
     RDKit          3D

 46 48  0  0  0  0  0  0  0  0999 V2000
   35.3546   29.8348   46.7700 O   0  0  0  0  0  0  0  0  0  0  0  0
   34.0984   29.9958   47.6170 P   0  0  2  0  0  0  0  0  0  0  0  0
   33.0968   31.0308   46.7264 O   0  0  0  0  0  0  0  0  0  0  0  0
   34.4126   30.6344   49.1639 O   0  0  0  0  0  0  0  0  0  0  0  0
   35.6380   30.5060   49.7838 C   0  0  0  0  0  0  0  0  0  0  0  0
   35.9651   29.4882   50.7041 C   0  0  0  0  0  0  0  0  0  0  0  0
   37.2438   29.4892   51.2476 C   0  0  0  0  0  0  0  0  0  0  0  0
   38.1178   30.4748   50.8632 N   0  0  0  0  0  0  0  0  0  0  0  0
   37.7662   31.4419   49.9713 C   0  0  0  0  0  0  0  0  0  0  0  0
   36.5228   31.4624   49.4263 N   0  0  0  0  0  0  0  0  0  0  0  0
   33.3357   28.5117   47.8405 O   0  0  0  0  0  0  0  0  0  0  0  0
   33.0869   27.3411   45.8707 C   0  0  1  0  0  0  0  0  0  0  0  0
   33.9199   27.4811   47.1632 C   0  0  2  0  0  0  0  0  0  0  0  0
   33.8351   26.2461   47.7245 O   0  0  0  0  0  0  0  0  0  0  0  0
   34.0556   25.3654   46.6885 C   0  0  0  0  0  0  0  0  0  0  0  0
   33.4591   25.9447   45.4427 C   0  0  2  0  0  0  0  0  0  0  0  0
   31.7435   27.5264   46.1411 O   0  0  0  0  0  0  0  0  0  0  0  0
   34.3910   26.0043   44.4141 O   0  0  0  0  0  0  0  0  0  0  0  0
   32.1671   30.8345   47.0074 H   0  0  0  0  0  0  0  0  0  0  0  0
   35.1867   28.7991   50.9016 H   0  0  0  0  0  0  0  0  0  0  0  0
   37.4825   28.7204   51.9393 H   0  0  0  0  0  0  0  0  0  0  0  0
   38.5217   32.1776   49.7281 H   0  0  0  0  0  0  0  0  0  0  0  0
   33.4742   28.1104   45.1759 H   0  0  0  0  0  0  0  0  0  0  0  0
   34.9384   27.8117   46.8357 H   0  0  0  0  0  0  0  0  0  0  0  0
   33.4647   24.4398   46.9488 H   0  0  0  0  0  0  0  0  0  0  0  0
   35.0981   25.0237   46.5959 H   0  0  0  0  0  0  0  0  0  0  0  0
   32.5772   25.3938   45.0992 H   0  0  0  0  0  0  0  0  0  0  0  0
   31.3885   26.7294   46.5788 H   0  0  0  0  0  0  0  0  0  0  0  0
   32.6355   24.2726   44.9057 O   0  0  0  0  0  0  0  0  0  0  0  0
   32.8809   24.3895   43.5232 C   0  0  1  0  0  0  0  0  0  0  0  0
   33.9924   25.3767   43.2500 C   0  0  2  0  0  0  0  0  0  0  0  0
   35.1251   24.6741   42.7865 O   0  0  0  0  0  0  0  0  0  0  0  0
   35.5285   23.7905   43.7982 C   0  0  0  0  0  0  0  0  0  0  0  0
   34.5488   22.6328   43.8676 C   0  0  2  0  0  0  0  0  0  0  0  0
   35.1092   21.4783   43.2797 O   0  0  0  0  0  0  0  0  0  0  0  0
   33.3082   23.0007   43.0804 C   0  0  2  0  0  0  0  0  0  0  0  0
   33.6061   22.9665   41.7211 O   0  0  0  0  0  0  0  0  0  0  0  0
   33.4079   24.5413   45.4386 H   0  0  0  0  0  0  0  0  0  0  0  0
   31.9426   24.7203   43.0740 H   0  0  0  0  0  0  0  0  0  0  0  0
   33.6869   26.0699   42.4355 H   0  0  0  0  0  0  0  0  0  0  0  0
   36.5155   23.3705   43.4966 H   0  0  0  0  0  0  0  0  0  0  0  0
   35.6989   24.2848   44.7640 H   0  0  0  0  0  0  0  0  0  0  0  0
   34.2995   22.4540   44.9328 H   0  0  0  0  0  0  0  0  0  0  0  0
   34.3554   20.8549   43.1335 H   0  0  0  0  0  0  0  0  0  0  0  0
   32.4656   22.3098   43.3037 H   0  0  0  0  0  0  0  0  0  0  0  0
   32.9532   23.5317   41.2542 H   0  0  0  0  0  0  0  0  0  0  0  0
  2  1  2  0
  2 11  1  1
  2  4  1  0
  3  2  1  0
  4  5  1  0
  5  6  2  0
  6  7  1  0
  8  7  2  0
  9  8  1  0
 10  5  1  0
 10  9  2  0
 12 17  1  0
 12 13  1  0
 13 14  1  0
 13 11  1  0
 15 14  1  0
 16 18  1  0
 16 12  1  0
 16 15  1  0
  3 19  1  0
  6 20  1  0
  7 21  1  0
  9 22  1  0
 12 23  1  6
 13 24  1  6
 15 25  1  0
 15 26  1  0
 16 27  1  6
 17 28  1  0
 29 30  1  0
 30 31  1  0
 31 32  1  0
 32 33  1  0
 33 34  1  0
 34 35  1  0
 34 36  1  0
 36 37  1  0
 36 30  1  0
 29 38  1  0
 30 39  1  6
 31 40  1  6
 33 41  1  0
 33 42  1  0
 34 43  1  1
 35 44  1  0
 36 45  1  6
 37 46  1  0
 18 31  1  0
M  ISO  8  19   3  20  14  21  14  22  14  23  13  24  13  25  13  26  13
M  ISO  2  27  13  28   3
M  END
>  <DihAtoms>  (1) 
15,17,30,29

>  <DihDeg>  (1) 
-124.73924225924961

$$$$
