REMARK  Name = 
REMARK  6 active torsions:
REMARK  status: ('A' for Active; 'I' for Inactive)
REMARK    1  A    between atoms: C_1  and  S_7
REMARK    2  A    between atoms: S_7  and  C_8
REMARK    3  A    between atoms: C_8  and  C_16
REMARK    4  A    between atoms: O_14  and  C_15
REMARK    5  A    between atoms: C_19  and  O_20
REMARK    6  A    between atoms: C_21  and  O_22
REMARK                            x       y       z     vdW  Elec       q    Type
REMARK                         _______ _______ _______ _____ _____    ______ ____
ROOT
ATOM      1  C   UNL     1      35.665  29.210  51.265  0.00  0.00    +0.000 C 
ATOM      2  H   UNL     1      35.728  28.906  52.344  0.00  0.00    +0.000 HD
ATOM      3  H   UNL     1      35.720  28.257  50.702  0.00  0.00    +0.000 HD
ENDROOT
BRANCH   1   5
ATOM      4  C   UNL     1      33.579  28.966  50.078  0.00  0.00    +0.000 C 
ATOM      5  C   UNL     1      34.310  29.881  51.035  0.00  0.00    +0.000 C 
ATOM      6  O   UNL     1      33.656  29.866  52.242  0.00  0.00    +0.000 OA
ATOM      7  C   UNL     1      32.357  30.303  52.197  0.00  0.00    +0.000 C 
ATOM      8  C   UNL     1      31.484  29.590  51.202  0.00  0.00    +0.000 C 
ATOM      9  C   UNL     1      32.135  29.368  49.876  0.00  0.00    +0.000 C 
BRANCH   4  10
ATOM     10  O   UNL     1      33.640  27.678  50.609  0.00  0.00    +0.000 OA
ATOM     11  H   UNL     1      33.128  27.025  50.065  0.00  0.00    +0.000 HD
ENDBRANCH   4  10
BRANCH   8  12
ATOM     12  O   UNL     1      30.360  30.397  51.022  0.00  0.00    +0.000 OA
ATOM     13  H   UNL     1      30.415  30.901  50.156  0.00  0.00    +0.000 HD
ENDBRANCH   8  12
BRANCH   9  14
ATOM     14  O   UNL     1      31.512  28.307  49.191  0.00  0.00    +0.000 OA
ATOM     15  H   UNL     1      31.688  28.341  48.211  0.00  0.00    +0.000 HD
ENDBRANCH   9  14
ENDBRANCH   1   5
BRANCH   1  16
ATOM     16  S   UNL     1      37.038  30.262  50.759  0.00  0.00    +0.000 S 
BRANCH  16  17
ATOM     17  C   UNL     1      36.922  30.430  48.974  0.00  0.00    +0.000 A 
ATOM     18  C   UNL     1      38.130  30.826  48.394  0.00  0.00    +0.000 A 
ATOM     19  C   UNL     1      38.197  30.997  47.006  0.00  0.00    +0.000 A 
ATOM     20  N   UNL     1      37.060  30.764  46.298  0.00  0.00    +0.000 NA
ATOM     21  C   UNL     1      35.914  30.383  46.903  0.00  0.00    +0.000 A 
ATOM     22  N   UNL     1      35.844  30.216  48.236  0.00  0.00    +0.000 NA
ATOM     23  H   UNL     1      39.067  31.023  48.933  0.00  0.00    +0.000 HD
ATOM     24  H   UNL     1      39.119  31.301  46.549  0.00  0.00    +0.000 HD
ATOM     25  H   UNL     1      35.061  30.220  46.264  0.00  0.00    +0.000 HD
ENDBRANCH  16  17
ENDBRANCH   1  16
TORSDOF 6
