REMARK  Name = 
REMARK  6 active torsions:
REMARK  status: ('A' for Active; 'I' for Inactive)
REMARK    1  A    between atoms: C_1  and  C_7
REMARK    2  A    between atoms: C_3  and  C_15
REMARK    3  A    between atoms: C_19  and  C_38
REMARK    4  A    between atoms: O_36  and  C_37
REMARK    5  A    between atoms: C_41  and  O_42
REMARK    6  A    between atoms: C_43  and  O_44
REMARK                            x       y       z     vdW  Elec       q    Type
REMARK                         _______ _______ _______ _____ _____    ______ ____
ROOT
ATOM      1  C   UNL     1      35.329  30.367  49.967  0.00  0.00    +0.000 C 
ATOM      2  C   UNL     1      36.250  31.344  49.335  0.00  0.00    +0.000 C 
ATOM      3  C   UNL     1      37.718  30.892  49.395  0.00  0.00    +0.000 C 
ATOM      4  C   UNL     1      38.200  30.596  50.742  0.00  0.00    +0.000 C 
ATOM      5  C   UNL     1      37.179  29.866  51.604  0.00  0.00    +0.000 C 
ATOM      6  C   UNL     1      36.042  29.322  50.791  0.00  0.00    +0.000 C 
ATOM      7  H   UNL     1      34.608  30.851  50.692  0.00  0.00    +0.000 HD
ATOM      8  H   UNL     1      36.145  31.626  48.311  0.00  0.00    +0.000 HD
ATOM      9  H   UNL     1      36.209  32.322  49.920  0.00  0.00    +0.000 HD
ATOM     10  H   UNL     1      37.815  30.056  48.694  0.00  0.00    +0.000 HD
ATOM     11  H   UNL     1      39.152  30.026  50.669  0.00  0.00    +0.000 HD
ATOM     12  H   UNL     1      38.456  31.508  51.315  0.00  0.00    +0.000 HD
ATOM     13  H   UNL     1      37.704  28.991  52.039  0.00  0.00    +0.000 HD
ATOM     14  H   UNL     1      36.818  30.455  52.455  0.00  0.00    +0.000 HD
ATOM     15  H   UNL     1      36.360  28.518  50.109  0.00  0.00    +0.000 HD
ATOM     16  H   UNL     1      35.312  28.871  51.485  0.00  0.00    +0.000 HD
ENDROOT
BRANCH   3  19
ATOM     17 CL   UNL     1      38.560  30.571  46.587  0.00  0.00    +0.000 Cl
ATOM     18  C   UNL     1      38.945  32.002  47.530  0.00  0.00    +0.000 A 
ATOM     19  C   UNL     1      38.464  32.055  48.827  0.00  0.00    +0.000 A 
ATOM     20  C   UNL     1      38.796  33.225  49.474  0.00  0.00    +0.000 A 
ATOM     21  C   UNL     1      39.533  34.231  48.883  0.00  0.00    +0.000 A 
ATOM     22  C   UNL     1      39.978  34.097  47.574  0.00  0.00    +0.000 A 
ATOM     23  C   UNL     1      39.670  32.938  46.877  0.00  0.00    +0.000 A 
ATOM     24  H   UNL     1      38.450  33.340  50.493  0.00  0.00    +0.000 HD
ATOM     25  H   UNL     1      39.732  35.109  49.497  0.00  0.00    +0.000 HD
ATOM     26  H   UNL     1      40.548  34.904  47.155  0.00  0.00    +0.000 HD
BRANCH  23  28
ATOM     27  C   UNL     1      40.396  31.353  45.111  0.00  0.00    +0.000 C 
ATOM     28  C   UNL     1      40.144  32.795  45.484  0.00  0.00    +0.000 C 
ATOM     29  O   UNL     1      41.283  33.568  45.252  0.00  0.00    +0.000 OA
ATOM     30  C   UNL     1      41.447  33.784  43.895  0.00  0.00    +0.000 C 
ATOM     31  C   UNL     1      41.316  32.507  43.096  0.00  0.00    +0.000 C 
ATOM     32  C   UNL     1      41.455  31.329  44.036  0.00  0.00    +0.000 C 
BRANCH  27  33
ATOM     33  O   UNL     1      40.903  30.619  46.180  0.00  0.00    +0.000 OA
ATOM     34  H   UNL     1      41.890  30.475  46.110  0.00  0.00    +0.000 HD
ENDBRANCH  27  33
BRANCH  31  35
ATOM     35  O   UNL     1      40.101  32.403  42.442  0.00  0.00    +0.000 OA
ATOM     36  H   UNL     1      39.772  33.300  42.143  0.00  0.00    +0.000 HD
ENDBRANCH  31  35
BRANCH  32  37
ATOM     37  O   UNL     1      41.368  30.151  43.325  0.00  0.00    +0.000 OA
ATOM     38  H   UNL     1      42.289  29.866  43.044  0.00  0.00    +0.000 HD
ENDBRANCH  32  37
ENDBRANCH  23  28
ENDBRANCH   3  19
BRANCH   1  39
ATOM     39  C   UNL     1      34.488  29.657  48.989  0.00  0.00    +0.000 A 
ATOM     40  C   UNL     1      34.442  30.233  47.718  0.00  0.00    +0.000 A 
ATOM     41  C   UNL     1      33.668  29.587  46.742  0.00  0.00    +0.000 A 
ATOM     42  N   UNL     1      32.993  28.420  47.085  0.00  0.00    +0.000 NA
ATOM     43  C   UNL     1      33.068  27.904  48.327  0.00  0.00    +0.000 A 
ATOM     44  N   UNL     1      33.811  28.535  49.238  0.00  0.00    +0.000 NA
ATOM     45  H   UNL     1      34.821  31.080  47.175  0.00  0.00    +0.000 HD
ATOM     46  H   UNL     1      33.460  29.796  45.721  0.00  0.00    +0.000 HD
ATOM     47  H   UNL     1      32.548  26.999  48.603  0.00  0.00    +0.000 HD
ENDBRANCH   1  39
TORSDOF 6
