
     RDKit          3D

 28 29  0  0  0  0  0  0  0  0999 V2000
   37.3009   29.9948   51.1787 C   0  0  0  0  0  0  0  0  0  0  0  0
   37.9502   30.9149   50.3554 C   0  0  0  0  0  0  0  0  0  0  0  0
   37.2753   31.3838   49.2391 C   0  0  0  0  0  0  0  0  0  0  0  0
   36.0196   30.9308   48.9959 N   0  0  0  0  0  0  0  0  0  0  0  0
   35.4008   30.0270   49.8177 C   0  0  0  0  0  0  0  0  0  0  0  0
   36.0514   29.5810   50.8855 N   0  0  0  0  0  0  0  0  0  0  0  0
   38.0959   29.6116   52.2596 O   0  0  0  0  0  0  0  0  0  0  0  0
   38.9402   31.3219   50.4782 H   0  0  0  0  0  0  0  0  0  0  0  0
   34.4116   29.6631   49.6360 H   0  0  0  0  0  0  0  0  0  0  0  0
   37.6952   28.8384   52.8135 H   0  0  0  0  0  0  0  0  0  0  0  0
   38.1306   30.7077   46.6762 O   0  0  0  0  0  0  0  0  0  0  0  0
   37.5892   31.9944   46.8515 C   0  0  1  0  0  0  0  0  0  0  0  0
   37.8590   32.3638   48.2876 C   0  0  1  0  0  0  0  0  0  0  0  0
   37.2656   33.5929   48.5145 O   0  0  0  0  0  0  0  0  0  0  0  0
   37.8232   34.6361   47.8193 C   0  0  0  0  0  0  0  0  0  0  0  0
   38.6206   34.2763   46.6168 C   0  0  1  0  0  0  0  0  0  0  0  0
   39.9666   34.1750   46.9812 O   0  0  0  0  0  0  0  0  0  0  0  0
   38.2070   33.0022   45.9505 C   0  0  2  0  0  0  0  0  0  0  0  0
   37.3350   33.2427   44.8645 O   0  0  0  0  0  0  0  0  0  0  0  0
   38.9650   30.7560   46.1162 H   0  0  0  0  0  0  0  0  0  0  0  0
   36.4929   31.8816   46.7058 H   0  0  0  0  0  0  0  0  0  0  0  0
   38.9438   32.4667   48.3901 H   0  0  0  0  0  0  0  0  0  0  0  0
   38.4430   35.2370   48.5433 H   0  0  0  0  0  0  0  0  0  0  0  0
   36.9847   35.3488   47.5657 H   0  0  0  0  0  0  0  0  0  0  0  0
   38.5035   35.1242   45.8821 H   0  0  0  0  0  0  0  0  0  0  0  0
   40.4308   33.7373   46.1980 H   0  0  0  0  0  0  0  0  0  0  0  0
   39.1107   32.5575   45.4821 H   0  0  0  0  0  0  0  0  0  0  0  0
   37.8994   33.6198   44.1201 H   0  0  0  0  0  0  0  0  0  0  0  0
  1  7  1  0
  2  1  2  0
  3  2  1  0
  4  3  2  0
  4  5  1  0
  5  6  2  0
  6  1  1  0
  2  8  1  0
  5  9  1  0
  7 10  1  0
 11 12  1  0
 12 13  1  0
 13 14  1  0
 14 15  1  0
 15 16  1  0
 16 17  1  0
 16 18  1  0
 18 19  1  0
 18 12  1  0
 11 20  1  0
 12 21  1  1
 13 22  1  6
 15 23  1  0
 15 24  1  0
 16 25  1  6
 17 26  1  0
 18 27  1  6
 19 28  1  0
  3 13  1  0
M  ISO  3   8  14   9  14  10   3
M  END
>  <DihAtoms>  (1) 
1,2,12,11

>  <DihDeg>  (1) 
106.77630777056751

$$$$
