REMARK  Name = 
REMARK  7 active torsions:
REMARK  status: ('A' for Active; 'I' for Inactive)
REMARK    1  A    between atoms: C_1  and  C_15
REMARK    2  A    between atoms: C_3  and  C_9
REMARK    3  A    between atoms: C_13  and  N_14
REMARK    4  A    between atoms: C_19  and  C_40
REMARK    5  A    between atoms: O_38  and  C_39
REMARK    6  A    between atoms: C_43  and  O_44
REMARK    7  A    between atoms: C_45  and  O_46
REMARK                            x       y       z     vdW  Elec       q    Type
REMARK                         _______ _______ _______ _____ _____    ______ ____
ROOT
ATOM      1  C   UNL     1      35.337  30.392  49.969  0.00  0.00    +0.000 C 
ATOM      2  C   UNL     1      36.254  31.378  49.417  0.00  0.00    +0.000 C 
ATOM      3  C   UNL     1      37.739  30.899  49.446  0.00  0.00    +0.000 C 
ATOM      4  C   UNL     1      38.218  30.572  50.768  0.00  0.00    +0.000 C 
ATOM      5  C   UNL     1      37.173  29.874  51.645  0.00  0.00    +0.000 C 
ATOM      6  C   UNL     1      36.056  29.324  50.807  0.00  0.00    +0.000 C 
ATOM      7  H   UNL     1      34.637  30.855  50.728  0.00  0.00    +0.000 HD
ATOM      8  H   UNL     1      36.306  32.256  50.151  0.00  0.00    +0.000 HD
ATOM      9  H   UNL     1      36.140  31.831  48.461  0.00  0.00    +0.000 HD
ATOM     10  H   UNL     1      37.824  30.068  48.728  0.00  0.00    +0.000 HD
ATOM     11  H   UNL     1      38.512  31.473  51.339  0.00  0.00    +0.000 HD
ATOM     12  H   UNL     1      39.142  29.966  50.685  0.00  0.00    +0.000 HD
ATOM     13  H   UNL     1      36.818  30.499  52.467  0.00  0.00    +0.000 HD
ATOM     14  H   UNL     1      37.678  28.994  52.091  0.00  0.00    +0.000 HD
ATOM     15  H   UNL     1      36.449  28.576  50.106  0.00  0.00    +0.000 HD
ATOM     16  H   UNL     1      35.325  28.845  51.465  0.00  0.00    +0.000 HD
ENDROOT
BRANCH   3  19
ATOM     17 CL   UNL     1      38.574  30.621  46.630  0.00  0.00    +0.000 Cl
ATOM     18  C   UNL     1      38.957  32.030  47.584  0.00  0.00    +0.000 A 
ATOM     19  C   UNL     1      38.477  32.065  48.869  0.00  0.00    +0.000 A 
ATOM     20  C   UNL     1      38.795  33.233  49.545  0.00  0.00    +0.000 A 
ATOM     21  C   UNL     1      39.524  34.263  48.984  0.00  0.00    +0.000 A 
ATOM     22  C   UNL     1      39.977  34.146  47.668  0.00  0.00    +0.000 A 
ATOM     23  C   UNL     1      39.680  32.988  46.949  0.00  0.00    +0.000 A 
ATOM     24  H   UNL     1      38.446  33.335  50.565  0.00  0.00    +0.000 HD
ATOM     25  H   UNL     1      39.716  35.127  49.597  0.00  0.00    +0.000 HD
ATOM     26  H   UNL     1      40.545  34.941  47.224  0.00  0.00    +0.000 HD
BRANCH  23  27
ATOM     27  N   UNL     1      40.141  32.873  45.614  0.00  0.00    +0.000 N 
ATOM     28  H   UNL     1      39.463  33.459  45.117  0.00  0.00    +0.000 HD
ATOM     29  H   UNL     1      40.940  32.355  45.186  0.00  0.00    +0.000 HD
ENDBRANCH  23  27
ENDBRANCH   3  19
BRANCH   1  30
ATOM     30  C   UNL     1      34.498  29.674  49.014  0.00  0.00    +0.000 A 
ATOM     31  C   UNL     1      34.516  30.198  47.730  0.00  0.00    +0.000 A 
ATOM     32  C   UNL     1      33.773  29.571  46.736  0.00  0.00    +0.000 A 
ATOM     33  N   UNL     1      33.038  28.434  47.084  0.00  0.00    +0.000 NA
ATOM     34  C   UNL     1      33.044  27.954  48.340  0.00  0.00    +0.000 A 
ATOM     35  N   UNL     1      33.776  28.595  49.263  0.00  0.00    +0.000 NA
ATOM     36  H   UNL     1      34.970  31.026  47.205  0.00  0.00    +0.000 HD
ATOM     37  H   UNL     1      33.626  29.772  45.701  0.00  0.00    +0.000 HD
BRANCH  34  39
ATOM     38  C   UNL     1      32.825  25.560  48.004  0.00  0.00    +0.000 C 
ATOM     39  C   UNL     1      32.265  26.752  48.707  0.00  0.00    +0.000 C 
ATOM     40  O   UNL     1      30.904  26.929  48.476  0.00  0.00    +0.000 OA
ATOM     41  C   UNL     1      30.352  25.919  47.714  0.00  0.00    +0.000 C 
ATOM     42  C   UNL     1      30.607  24.532  48.261  0.00  0.00    +0.000 C 
ATOM     43  C   UNL     1      32.086  24.293  48.275  0.00  0.00    +0.000 C 
BRANCH  38  44
ATOM     44  O   UNL     1      34.136  25.382  48.468  0.00  0.00    +0.000 OA
ATOM     45  H   UNL     1      34.797  25.377  47.718  0.00  0.00    +0.000 HD
ENDBRANCH  38  44
BRANCH  42  46
ATOM     46  O   UNL     1      30.005  23.635  47.399  0.00  0.00    +0.000 OA
ATOM     47  H   UNL     1      30.615  22.871  47.260  0.00  0.00    +0.000 HD
ENDBRANCH  42  46
BRANCH  43  48
ATOM     48  O   UNL     1      32.478  23.730  49.492  0.00  0.00    +0.000 OA
ATOM     49  H   UNL     1      33.265  24.219  49.843  0.00  0.00    +0.000 HD
ENDBRANCH  43  48
ENDBRANCH  34  39
ENDBRANCH   1  30
TORSDOF 7
