
     RDKit          3D

 32 33  0  0  0  0  0  0  0  0999 V2000
   35.6177   29.0130   50.1699 C   0  0  0  0  0  0  0  0  0  0  0  0
   36.2827   30.1552   49.6488 C   0  0  0  0  0  0  0  0  0  0  0  0
   36.0347   30.5195   48.3340 C   0  0  0  0  0  0  0  0  0  0  0  0
   35.1606   29.7528   47.6146 N   0  0  0  0  0  0  0  0  0  0  0  0
   34.5444   28.6656   48.1497 C   0  0  0  0  0  0  0  0  0  0  0  0
   34.7665   28.2920   49.4198 N   0  0  0  0  0  0  0  0  0  0  0  0
   33.7059   28.0162   47.2206 N   0  0  0  0  0  0  0  0  0  0  0  0
   37.2164   30.9058   50.5245 C   0  0  0  0  0  0  0  0  0  0  0  0
   38.5369   30.7808   50.1142 F   0  0  0  0  0  0  0  0  0  0  0  0
   36.8627   32.2224   50.5103 F   0  0  0  0  0  0  0  0  0  0  0  0
   37.1845   30.4696   51.8376 F   0  0  0  0  0  0  0  0  0  0  0  0
   35.8264   28.7479   51.1988 H   0  0  0  0  0  0  0  0  0  0  0  0
   34.2288   27.1022   47.0740 H   0  0  0  0  0  0  0  0  0  0  0  0
   32.8326   28.3598   46.8144 H   0  0  0  0  0  0  0  0  0  0  0  0
   37.6744   30.0270   46.3296 O   0  0  0  0  0  0  0  0  0  0  0  0
   37.5940   31.4107   46.5839 C   0  0  1  0  0  0  0  0  0  0  0  0
   36.7062   31.7087   47.7467 C   0  0  2  0  0  0  0  0  0  0  0  0
   37.5325   32.2189   48.7554 O   0  0  0  0  0  0  0  0  0  0  0  0
   38.0330   33.4636   48.4261 C   0  0  0  0  0  0  0  0  0  0  0  0
   39.1170   33.2390   47.4078 C   0  0  2  0  0  0  0  0  0  0  0  0
   38.9874   34.1458   46.3626 O   0  0  0  0  0  0  0  0  0  0  0  0
   39.0546   31.8115   46.8486 C   0  0  1  0  0  0  0  0  0  0  0  0
   39.5600   30.9824   47.8364 O   0  0  0  0  0  0  0  0  0  0  0  0
   38.0902   29.9125   45.4251 H   0  0  0  0  0  0  0  0  0  0  0  0
   37.3537   31.9957   45.6556 H   0  0  0  0  0  0  0  0  0  0  0  0
   36.0023   32.5445   47.5619 H   0  0  0  0  0  0  0  0  0  0  0  0
   38.4320   33.8980   49.3720 H   0  0  0  0  0  0  0  0  0  0  0  0
   37.2240   34.1435   48.0891 H   0  0  0  0  0  0  0  0  0  0  0  0
   40.0860   33.3177   47.9125 H   0  0  0  0  0  0  0  0  0  0  0  0
   38.7894   35.0443   46.7215 H   0  0  0  0  0  0  0  0  0  0  0  0
   39.6280   31.8405   45.9193 H   0  0  0  0  0  0  0  0  0  0  0  0
   40.5352   31.0288   47.9066 H   0  0  0  0  0  0  0  0  0  0  0  0
  2  1  2  0
  2  8  1  0
  3  2  1  0
  4  5  1  0
  4  3  2  0
  5  6  2  0
  6  1  1  0
  7  5  1  0
  8 11  1  0
  9  8  1  0
 10  8  1  0
  1 12  1  0
  7 13  1  0
  7 14  1  0
 15 16  1  0
 16 17  1  0
 17 18  1  0
 18 19  1  0
 19 20  1  0
 20 21  1  0
 20 22  1  0
 22 23  1  0
 22 16  1  0
 15 24  1  0
 16 25  1  6
 17 26  1  6
 19 27  1  0
 19 28  1  0
 20 29  1  1
 21 30  1  0
 22 31  1  6
 23 32  1  0
  3 17  1  0
M  ISO  1  12  14
M  END
>  <DihAtoms>  (1) 
1,2,16,15

>  <DihDeg>  (1) 
-91.90979488336156

$$$$
