
 OpenBabel03272507553D

 26 27  0  0  1  0  0  0  0  0999 V2000
   35.4950   29.0330   50.2970 C   0  0  0  0  0  0  0  0  0  0  0  0
   36.3110   30.0020   49.6540 C   0  0  0  0  0  0  0  0  0  0  0  0
   36.2750   30.0800   48.2700 C   0  0  0  0  0  0  0  0  0  0  0  0
   35.4520   29.2140   47.6050 N   0  0  0  0  0  0  0  0  0  0  0  0
   34.6860   28.3000   48.2570 C   0  0  0  0  0  0  0  0  0  0  0  0
   34.7020   28.2040   49.5960 N   0  0  0  0  0  0  0  0  0  0  0  0
   33.9360   27.5000   47.3700 N   0  0  0  0  0  0  0  0  0  0  0  0
   35.5380   28.9920   51.3780 H   0  0  0  0  0  0  0  0  0  0  0  0
   34.4030   26.5540   47.5000 H   0  0  0  0  0  0  0  0  0  0  0  0
   33.1570   27.7850   46.7730 H   0  0  0  0  0  0  0  0  0  0  0  0
   36.5720   31.5020   46.2270 C   0  0  1  0  0  3  0  0  0  0  0  0
   37.1100   31.0790   47.5540 C   0  0  2  0  0  3  0  0  0  0  0  0
   38.3320   30.4470   47.3020 O   0  0  0  0  0  0  0  0  0  0  0  0
   39.2880   31.3390   46.8550 C   0  0  0  0  0  2  0  0  0  0  0  0
   38.9530   31.6500   45.4220 C   0  0  1  0  0  3  0  0  0  0  0  0
   37.5370   31.1740   45.0750 C   0  0  1  0  0  3  0  0  0  0  0  0
   35.4030   30.7920   45.8870 O   0  0  0  0  0  0  0  0  0  0  0  0
   34.9770   31.2690   45.1140 H   0  0  0  0  0  0  0  0  0  0  0  0
   39.0430   33.0190   45.1960 O   0  0  0  0  0  0  0  0  0  0  0  0
   39.8550   33.3770   45.6300 H   0  0  0  0  0  0  0  0  0  0  0  0
   37.6090   29.7960   44.9490 O   0  0  0  0  0  0  0  0  0  0  0  0
   38.0270   29.5150   44.1100 H   0  0  0  0  0  0  0  0  0  0  0  0
   37.1690   30.8840   50.4830 C   0  0  0  0  0  0  0  0  0  0  0  0
   38.5090   30.7980   50.1270 F   0  0  0  0  0  0  0  0  0  0  0  0
   36.7450   32.1700   50.3320 F   0  0  0  0  0  0  0  0  0  0  0  0
   37.1130   30.5710   51.8300 F   0  0  0  0  0  0  0  0  0  0  0  0
  1  8  1  0  0  0  0
  2  1  1  0  0  0  0
  2 23  1  0  0  0  0
  3  2  2  0  0  0  0
  4  5  2  0  0  0  0
  4  3  1  0  0  0  0
  5  6  1  0  0  0  0
  6  1  2  0  0  0  0
  7  9  1  0  0  0  0
  7  5  1  0  0  0  0
 10  7  1  0  0  0  0
 11 17  1  6  0  0  0
 11 12  1  0  0  0  0
 12  3  1  6  0  0  0
 13 12  1  0  0  0  0
 14 13  1  0  0  0  0
 15 19  1  1  0  0  0
 15 14  1  0  0  0  0
 16 21  1  1  0  0  0
 16 15  1  0  0  0  0
 16 11  1  0  0  0  0
 18 17  1  0  0  0  0
 19 20  1  0  0  0  0
 22 21  1  0  0  0  0
 23 26  1  0  0  0  0
 24 23  1  0  0  0  0
 25 23  1  0  0  0  0
M  END
>  <minimizedAffinity>
-5.17482376

>  <minimizedRMSD>
1.86190343

$$$$
