
 OpenBabel03272502083D

 42 45  0  0  1  0  0  0  0  0999 V2000
   36.2120   27.7720   35.1160 F   0  0  0  0  0  0  0  0  0  0  0  0
   36.5080   28.1960   33.8450 C   0  0  0  0  0  0  0  0  0  0  0  0
   37.3230   27.4600   33.0070 C   0  0  0  0  0  0  0  0  0  0  0  0
   37.5690   27.9340   31.7400 C   0  0  0  0  0  0  0  0  0  0  0  0
   37.0040   29.1370   31.3100 C   0  0  0  0  0  0  0  0  0  0  0  0
   36.1960   29.8290   32.1950 C   0  0  0  0  0  0  0  0  0  0  0  0
   35.9320   29.3990   33.4420 C   0  0  0  0  0  0  0  0  0  0  0  0
   38.2100   27.3300   31.1150 H   0  0  0  0  0  0  0  0  0  0  0  0
   37.2240   29.4670   30.3090 H   0  0  0  0  0  0  0  0  0  0  0  0
   35.8000   30.7480   31.7820 H   0  0  0  0  0  0  0  0  0  0  0  0
   32.8340   29.1810   33.0540 Br  0  0  0  0  0  0  0  0  0  0  0  0
   33.7170   30.2130   34.3850 C   0  0  0  0  0  0  0  0  0  0  0  0
   35.0860   30.1670   34.3380 C   0  0  0  0  0  0  0  0  0  0  0  0
   35.8030   30.9310   35.2720 C   0  0  0  0  0  0  0  0  0  0  0  0
   35.1560   31.6920   36.1920 C   0  0  0  0  0  0  0  0  0  0  0  0
   33.7670   31.6940   36.1880 C   0  0  0  0  0  0  0  0  0  0  0  0
   33.0260   30.9390   35.2660 C   0  0  0  0  0  0  0  0  0  0  0  0
   36.8810   30.9550   35.3050 H   0  0  0  0  0  0  0  0  0  0  0  0
   35.6780   32.2870   36.9170 H   0  0  0  0  0  0  0  0  0  0  0  0
   33.2180   32.2890   36.9100 H   0  0  0  0  0  0  0  0  0  0  0  0
   31.6670   30.8960   35.2110 O   0  0  0  0  0  0  0  0  0  0  0  0
   31.1660   31.7270   34.9060 H   0  0  0  0  0  0  0  0  0  0  0  0
   37.3080   25.0450   33.0860 C   0  0  0  0  0  0  0  0  0  0  0  0
   37.8410   26.2470   33.5640 C   0  0  0  0  0  0  0  0  0  0  0  0
   38.8250   26.1670   34.5330 C   0  0  0  0  0  0  0  0  0  0  0  0
   39.2380   24.9610   34.9810 N   0  0  0  0  0  0  0  0  0  0  0  0
   38.7090   23.8250   34.5030 C   0  0  0  0  0  0  0  0  0  0  0  0
   37.7640   23.8710   33.5750 N   0  0  0  0  0  0  0  0  0  0  0  0
   36.5350   25.0440   32.3290 H   0  0  0  0  0  0  0  0  0  0  0  0
   39.2400   27.0770   34.9080 H   0  0  0  0  0  0  0  0  0  0  0  0
   38.5390   22.2840   36.3500 C   0  0  1  0  0  3  0  0  0  0  0  0
   39.1570   22.4930   34.9890 C   0  0  2  0  0  3  0  0  0  0  0  0
   40.5000   22.2810   34.9430 O   0  0  0  0  0  0  0  0  0  0  0  0
   41.2680   22.8010   35.9400 C   0  0  0  0  0  2  0  0  0  0  0  0
   40.7330   22.6780   37.3240 C   0  0  1  0  0  3  0  0  0  0  0  0
   39.2700   23.0290   37.4380 C   0  0  2  0  0  3  0  0  0  0  0  0
   37.2410   22.7910   36.2920 O   0  0  0  0  0  0  0  0  0  0  0  0
   37.3220   23.7470   36.0430 H   0  0  0  0  0  0  0  0  0  0  0  0
   40.9600   21.4280   37.8940 O   0  0  0  0  0  0  0  0  0  0  0  0
   40.2900   21.3210   38.6170 H   0  0  0  0  0  0  0  0  0  0  0  0
   38.8070   22.5540   38.6640 O   0  0  0  0  0  0  0  0  0  0  0  0
   38.6860   23.2790   39.3280 H   0  0  0  0  0  0  0  0  0  0  0  0
  2  1  1  0  0  0  0
  3 24  1  0  0  0  0
  3  2  2  0  0  0  0
  4  3  1  0  0  0  0
  5  4  2  0  0  0  0
  5  6  1  0  0  0  0
  6  7  2  0  0  0  0
  7  2  1  0  0  0  0
  7 13  1  0  0  0  0
  8  4  1  0  0  0  0
  9  5  1  0  0  0  0
 10  6  1  0  0  0  0
 11 12  1  0  0  0  0
 12 17  1  0  0  0  0
 13 12  2  0  0  0  0
 13 14  1  0  0  0  0
 14 18  1  0  0  0  0
 14 15  2  0  0  0  0
 15 19  1  0  0  0  0
 16 15  1  0  0  0  0
 16 20  1  0  0  0  0
 17 16  2  0  0  0  0
 21 17  1  0  0  0  0
 22 21  1  0  0  0  0
 23 24  2  0  0  0  0
 23 28  1  0  0  0  0
 24 25  1  0  0  0  0
 25 30  1  0  0  0  0
 25 26  2  0  0  0  0
 27 26  1  0  0  0  0
 28 27  2  0  0  0  0
 29 23  1  0  0  0  0
 31 37  1  6  0  0  0
 31 36  1  0  0  0  0
 32 27  1  1  0  0  0
 32 31  1  0  0  0  0
 33 32  1  0  0  0  0
 33 34  1  0  0  0  0
 34 35  1  0  0  0  0
 35 36  1  0  0  0  0
 35 39  1  6  0  0  0
 36 41  1  1  0  0  0
 38 37  1  0  0  0  0
 39 40  1  0  0  0  0
 41 42  1  0  0  0  0
M  END
>  <minimizedAffinity>
-7.91572428

$$$$

 OpenBabel03272502083D

 42 45  0  0  1  0  0  0  0  0999 V2000
   36.1190   28.0450   34.8030 F   0  0  0  0  0  0  0  0  0  0  0  0
   36.2340   28.6920   33.5990 C   0  0  0  0  0  0  0  0  0  0  0  0
   36.9150   28.1300   32.5360 C   0  0  0  0  0  0  0  0  0  0  0  0
   36.9810   28.8260   31.3520 C   0  0  0  0  0  0  0  0  0  0  0  0
   36.3710   30.0760   31.2280 C   0  0  0  0  0  0  0  0  0  0  0  0
   35.7040   30.5860   32.3270 C   0  0  0  0  0  0  0  0  0  0  0  0
   35.6170   29.9370   33.5020 C   0  0  0  0  0  0  0  0  0  0  0  0
   37.5220   28.3530   30.5450 H   0  0  0  0  0  0  0  0  0  0  0  0
   36.4500   30.5820   30.2810 H   0  0  0  0  0  0  0  0  0  0  0  0
   35.2610   31.5570   32.1440 H   0  0  0  0  0  0  0  0  0  0  0  0
   32.5440   29.3900   33.7380 Br  0  0  0  0  0  0  0  0  0  0  0  0
   33.5900   30.4000   34.9640 C   0  0  0  0  0  0  0  0  0  0  0  0
   34.9140   30.5200   34.6310 C   0  0  0  0  0  0  0  0  0  0  0  0
   35.7390   31.2810   35.4760 C   0  0  0  0  0  0  0  0  0  0  0  0
   35.2350   31.8780   36.5870 C   0  0  0  0  0  0  0  0  0  0  0  0
   33.8850   31.7160   36.8690 C   0  0  0  0  0  0  0  0  0  0  0  0
   33.0390   30.9610   36.0420 C   0  0  0  0  0  0  0  0  0  0  0  0
   36.7900   31.4280   35.2890 H   0  0  0  0  0  0  0  0  0  0  0  0
   35.8410   32.4650   37.2500 H   0  0  0  0  0  0  0  0  0  0  0  0
   33.4500   32.1780   37.7480 H   0  0  0  0  0  0  0  0  0  0  0  0
   31.7110   30.7630   36.2630 O   0  0  0  0  0  0  0  0  0  0  0  0
   31.0780   31.5520   36.1600 H   0  0  0  0  0  0  0  0  0  0  0  0
   38.5650   26.7950   33.6900 C   0  0  0  0  0  0  0  0  0  0  0  0
   37.4960   26.8460   32.7890 C   0  0  0  0  0  0  0  0  0  0  0  0
   37.0830   25.6550   32.2200 C   0  0  0  0  0  0  0  0  0  0  0  0
   37.7080   24.5000   32.5410 N   0  0  0  0  0  0  0  0  0  0  0  0
   38.7310   24.4820   33.4080 C   0  0  0  0  0  0  0  0  0  0  0  0
   39.1470   25.6070   33.9680 N   0  0  0  0  0  0  0  0  0  0  0  0
   38.9320   27.6940   34.1660 H   0  0  0  0  0  0  0  0  0  0  0  0
   36.2690   25.6790   31.5300 H   0  0  0  0  0  0  0  0  0  0  0  0
   38.4130   22.3350   34.4590 C   0  0  1  0  0  3  0  0  0  0  0  0
   39.4230   23.2160   33.7670 C   0  0  2  0  0  3  0  0  0  0  0  0
   40.5940   23.3680   34.4450 O   0  0  0  0  0  0  0  0  0  0  0  0
   40.5350   23.6080   35.7830 C   0  0  0  0  0  2  0  0  0  0  0  0
   39.5440   22.8130   36.5590 C   0  0  1  0  0  3  0  0  0  0  0  0
   38.1900   22.7280   35.8970 C   0  0  2  0  0  3  0  0  0  0  0  0
   37.2010   22.4960   33.7870 O   0  0  0  0  0  0  0  0  0  0  0  0
   36.9770   23.4600   33.8360 H   0  0  0  0  0  0  0  0  0  0  0  0
   39.9910   21.5330   36.8770 O   0  0  0  0  0  0  0  0  0  0  0  0
   39.1820   20.9870   37.0520 H   0  0  0  0  0  0  0  0  0  0  0  0
   37.4730   21.7030   36.5130 O   0  0  0  0  0  0  0  0  0  0  0  0
   36.7760   22.0460   37.1270 H   0  0  0  0  0  0  0  0  0  0  0  0
  2  1  1  0  0  0  0
  3 24  1  0  0  0  0
  3  2  2  0  0  0  0
  4  3  1  0  0  0  0
  5  4  2  0  0  0  0
  5  6  1  0  0  0  0
  6  7  2  0  0  0  0
  7  2  1  0  0  0  0
  7 13  1  0  0  0  0
  8  4  1  0  0  0  0
  9  5  1  0  0  0  0
 10  6  1  0  0  0  0
 11 12  1  0  0  0  0
 12 17  1  0  0  0  0
 13 12  2  0  0  0  0
 13 14  1  0  0  0  0
 14 15  2  0  0  0  0
 15 16  1  0  0  0  0
 15 19  1  0  0  0  0
 16 20  1  0  0  0  0
 17 21  1  0  0  0  0
 17 16  2  0  0  0  0
 18 14  1  0  0  0  0
 22 21  1  0  0  0  0
 23 28  1  0  0  0  0
 23 29  1  0  0  0  0
 24 23  2  0  0  0  0
 25 26  2  0  0  0  0
 25 24  1  0  0  0  0
 26 27  1  0  0  0  0
 27 28  2  0  0  0  0
 30 25  1  0  0  0  0
 31 37  1  6  0  0  0
 31 36  1  0  0  0  0
 32 27  1  1  0  0  0
 32 33  1  0  0  0  0
 32 31  1  0  0  0  0
 33 34  1  0  0  0  0
 34 35  1  0  0  0  0
 35 39  1  6  0  0  0
 36 41  1  1  0  0  0
 36 35  1  0  0  0  0
 37 38  1  0  0  0  0
 39 40  1  0  0  0  0
 41 42  1  0  0  0  0
M  END
>  <minimizedAffinity>
-7.47961044

$$$$

 OpenBabel03272502083D

 42 45  0  0  1  0  0  0  0  0999 V2000
   35.6340   27.5390   34.9300 F   0  0  0  0  0  0  0  0  0  0  0  0
   36.1050   28.1190   33.7800 C   0  0  0  0  0  0  0  0  0  0  0  0
   37.1480   27.5650   33.0630 C   0  0  0  0  0  0  0  0  0  0  0  0
   37.5630   28.1900   31.9110 C   0  0  0  0  0  0  0  0  0  0  0  0
   36.9410   29.3610   31.4750 C   0  0  0  0  0  0  0  0  0  0  0  0
   35.9030   29.8680   32.2360 C   0  0  0  0  0  0  0  0  0  0  0  0
   35.4680   29.2870   33.3680 C   0  0  0  0  0  0  0  0  0  0  0  0
   38.3800   27.7260   31.3780 H   0  0  0  0  0  0  0  0  0  0  0  0
   37.3010   29.8140   30.5660 H   0  0  0  0  0  0  0  0  0  0  0  0
   35.4780   30.7760   31.8260 H   0  0  0  0  0  0  0  0  0  0  0  0
   36.2090   31.2930   35.6550 Br  0  0  0  0  0  0  0  0  0  0  0  0
   34.4470   30.7780   35.1560 C   0  0  0  0  0  0  0  0  0  0  0  0
   34.3800   29.8640   34.1370 C   0  0  0  0  0  0  0  0  0  0  0  0
   33.1100   29.4140   33.7390 C   0  0  0  0  0  0  0  0  0  0  0  0
   31.9870   29.8730   34.3490 C   0  0  0  0  0  0  0  0  0  0  0  0
   32.1230   30.8010   35.3740 C   0  0  0  0  0  0  0  0  0  0  0  0
   33.3800   31.2670   35.7910 C   0  0  0  0  0  0  0  0  0  0  0  0
   32.9650   28.6960   32.9480 H   0  0  0  0  0  0  0  0  0  0  0  0
   31.0040   29.5470   34.0670 H   0  0  0  0  0  0  0  0  0  0  0  0
   31.2470   31.1890   35.8810 H   0  0  0  0  0  0  0  0  0  0  0  0
   33.5810   32.1740   36.7850 O   0  0  0  0  0  0  0  0  0  0  0  0
   33.3870   31.8950   37.7440 H   0  0  0  0  0  0  0  0  0  0  0  0
   37.3170   25.1550   33.0250 C   0  0  0  0  0  0  0  0  0  0  0  0
   37.7010   26.3640   33.6130 C   0  0  0  0  0  0  0  0  0  0  0  0
   38.5860   26.3050   34.6750 C   0  0  0  0  0  0  0  0  0  0  0  0
   39.0460   25.1090   35.1060 N   0  0  0  0  0  0  0  0  0  0  0  0
   38.6600   23.9660   34.5220 C   0  0  0  0  0  0  0  0  0  0  0  0
   37.8130   23.9920   33.5040 N   0  0  0  0  0  0  0  0  0  0  0  0
   36.6260   25.1390   32.1920 H   0  0  0  0  0  0  0  0  0  0  0  0
   38.8870   27.2200   35.1340 H   0  0  0  0  0  0  0  0  0  0  0  0
   38.4940   22.3580   36.3110 C   0  0  1  0  0  3  0  0  0  0  0  0
   39.1610   22.6460   34.9880 C   0  0  2  0  0  3  0  0  0  0  0  0
   40.5150   22.5110   35.0010 O   0  0  0  0  0  0  0  0  0  0  0  0
   41.2040   23.0410   36.0490 C   0  0  0  0  0  2  0  0  0  0  0  0
   40.6140   22.8420   37.4010 C   0  0  1  0  0  3  0  0  0  0  0  0
   39.1300   23.1060   37.4550 C   0  0  2  0  0  3  0  0  0  0  0  0
   37.1730   22.7930   36.2070 O   0  0  0  0  0  0  0  0  0  0  0  0
   37.2100   23.7590   35.9900 H   0  0  0  0  0  0  0  0  0  0  0  0
   40.8860   21.5880   37.9430 O   0  0  0  0  0  0  0  0  0  0  0  0
   40.1910   21.4200   38.6300 H   0  0  0  0  0  0  0  0  0  0  0  0
   38.6380   22.5670   38.6430 O   0  0  0  0  0  0  0  0  0  0  0  0
   38.4450   23.2610   39.3210 H   0  0  0  0  0  0  0  0  0  0  0  0
  2  1  1  0  0  0  0
  3 24  1  0  0  0  0
  3  2  2  0  0  0  0
  4  3  1  0  0  0  0
  5  4  2  0  0  0  0
  5  6  1  0  0  0  0
  6  7  2  0  0  0  0
  7  2  1  0  0  0  0
  7 13  1  0  0  0  0
  8  4  1  0  0  0  0
  9  5  1  0  0  0  0
 10  6  1  0  0  0  0
 12 11  1  0  0  0  0
 12 17  1  0  0  0  0
 13 12  2  0  0  0  0
 14 13  1  0  0  0  0
 14 15  2  0  0  0  0
 15 16  1  0  0  0  0
 16 17  2  0  0  0  0
 16 20  1  0  0  0  0
 17 21  1  0  0  0  0
 18 14  1  0  0  0  0
 19 15  1  0  0  0  0
 21 22  1  0  0  0  0
 23 28  2  0  0  0  0
 23 24  1  0  0  0  0
 24 25  2  0  0  0  0
 25 26  1  0  0  0  0
 25 30  1  0  0  0  0
 27 26  2  0  0  0  0
 28 27  1  0  0  0  0
 29 23  1  0  0  0  0
 31 37  1  6  0  0  0
 31 36  1  0  0  0  0
 32 27  1  1  0  0  0
 32 33  1  0  0  0  0
 32 31  1  0  0  0  0
 33 34  1  0  0  0  0
 34 35  1  0  0  0  0
 35 36  1  0  0  0  0
 35 39  1  6  0  0  0
 36 41  1  1  0  0  0
 38 37  1  0  0  0  0
 39 40  1  0  0  0  0
 41 42  1  0  0  0  0
M  END
>  <minimizedAffinity>
-7.18547344

$$$$

 OpenBabel03272502083D

 42 45  0  0  1  0  0  0  0  0999 V2000
   35.9730   28.3420   34.7480 F   0  0  0  0  0  0  0  0  0  0  0  0
   35.9370   29.0220   33.5570 C   0  0  0  0  0  0  0  0  0  0  0  0
   36.4640   28.4830   32.3990 C   0  0  0  0  0  0  0  0  0  0  0  0
   36.3830   29.2110   31.2350 C   0  0  0  0  0  0  0  0  0  0  0  0
   35.7800   30.4700   31.2260 C   0  0  0  0  0  0  0  0  0  0  0  0
   35.2710   30.9560   32.4170 C   0  0  0  0  0  0  0  0  0  0  0  0
   35.3310   30.2760   33.5760 C   0  0  0  0  0  0  0  0  0  0  0  0
   36.8060   28.7560   30.3520 H   0  0  0  0  0  0  0  0  0  0  0  0
   35.7390   31.0030   30.2910 H   0  0  0  0  0  0  0  0  0  0  0  0
   34.8210   31.9370   32.3200 H   0  0  0  0  0  0  0  0  0  0  0  0
   32.4050   29.4890   34.3650 Br  0  0  0  0  0  0  0  0  0  0  0  0
   33.5620   30.6170   35.3690 C   0  0  0  0  0  0  0  0  0  0  0  0
   34.7910   30.8330   34.8030 C   0  0  0  0  0  0  0  0  0  0  0  0
   35.6840   31.6830   35.4750 C   0  0  0  0  0  0  0  0  0  0  0  0
   35.3360   32.2710   36.6490 C   0  0  0  0  0  0  0  0  0  0  0  0
   34.0750   32.0090   37.1700 C   0  0  0  0  0  0  0  0  0  0  0  0
   33.1640   31.1640   36.5190 C   0  0  0  0  0  0  0  0  0  0  0  0
   36.6700   31.9100   35.1020 H   0  0  0  0  0  0  0  0  0  0  0  0
   35.9970   32.9250   37.1840 H   0  0  0  0  0  0  0  0  0  0  0  0
   33.7650   32.4610   38.1060 H   0  0  0  0  0  0  0  0  0  0  0  0
   31.9180   30.8660   36.9770 O   0  0  0  0  0  0  0  0  0  0  0  0
   31.2110   31.5980   36.9760 H   0  0  0  0  0  0  0  0  0  0  0  0
   38.3880   27.1340   32.9610 C   0  0  0  0  0  0  0  0  0  0  0  0
   37.0560   27.1870   32.5390 C   0  0  0  0  0  0  0  0  0  0  0  0
   36.4160   25.9850   32.2950 C   0  0  0  0  0  0  0  0  0  0  0  0
   37.0780   24.8190   32.4670 N   0  0  0  0  0  0  0  0  0  0  0  0
   38.3550   24.8000   32.8730 C   0  0  0  0  0  0  0  0  0  0  0  0
   38.9930   25.9350   33.1130 N   0  0  0  0  0  0  0  0  0  0  0  0
   38.9410   28.0420   33.1650 H   0  0  0  0  0  0  0  0  0  0  0  0
   35.3990   26.0100   31.9710 H   0  0  0  0  0  0  0  0  0  0  0  0
   39.2580   22.8940   31.7030 C   0  0  1  0  0  3  0  0  0  0  0  0
   39.0910   23.5230   33.0650 C   0  0  2  0  0  3  0  0  0  0  0  0
   38.5720   22.6900   34.0080 O   0  0  0  0  0  0  0  0  0  0  0  0
   37.5040   21.9170   33.6650 C   0  0  0  0  0  2  0  0  0  0  0  0
   37.5520   21.2740   32.3230 C   0  0  1  0  0  3  0  0  0  0  0  0
   38.0050   22.2060   31.2260 C   0  0  2  0  0  3  0  0  0  0  0  0
   39.5380   23.9260   30.8080 O   0  0  0  0  0  0  0  0  0  0  0  0
   38.7750   24.5570   30.8560 H   0  0  0  0  0  0  0  0  0  0  0  0
   38.3170   20.1110   32.2950 O   0  0  0  0  0  0  0  0  0  0  0  0
   38.5820   19.9700   31.3500 H   0  0  0  0  0  0  0  0  0  0  0  0
   38.3400   21.4330   30.1150 O   0  0  0  0  0  0  0  0  0  0  0  0
   37.6520   21.4750   29.4040 H   0  0  0  0  0  0  0  0  0  0  0  0
  2  7  1  0  0  0  0
  2  1  1  0  0  0  0
  3 24  1  0  0  0  0
  3  2  2  0  0  0  0
  4  3  1  0  0  0  0
  5  4  2  0  0  0  0
  5  6  1  0  0  0  0
  6  7  2  0  0  0  0
  7 13  1  0  0  0  0
  8  4  1  0  0  0  0
  9  5  1  0  0  0  0
 10  6  1  0  0  0  0
 11 12  1  0  0  0  0
 12 17  1  0  0  0  0
 13 12  2  0  0  0  0
 13 14  1  0  0  0  0
 14 15  2  0  0  0  0
 15 16  1  0  0  0  0
 15 19  1  0  0  0  0
 16 20  1  0  0  0  0
 17 21  1  0  0  0  0
 17 16  2  0  0  0  0
 18 14  1  0  0  0  0
 22 21  1  0  0  0  0
 23 28  1  0  0  0  0
 23 29  1  0  0  0  0
 24 23  2  0  0  0  0
 25 26  2  0  0  0  0
 25 24  1  0  0  0  0
 26 27  1  0  0  0  0
 27 28  2  0  0  0  0
 30 25  1  0  0  0  0
 31 37  1  6  0  0  0
 31 32  1  0  0  0  0
 32 27  1  6  0  0  0
 32 33  1  0  0  0  0
 34 33  1  0  0  0  0
 35 39  1  1  0  0  0
 35 34  1  0  0  0  0
 36 41  1  6  0  0  0
 36 31  1  0  0  0  0
 36 35  1  0  0  0  0
 37 38  1  0  0  0  0
 40 39  1  0  0  0  0
 42 41  1  0  0  0  0
M  END
>  <minimizedAffinity>
-6.43080473

$$$$

 OpenBabel03272502083D

 42 45  0  0  1  0  0  0  0  0999 V2000
   35.7130   28.1840   34.8420 F   0  0  0  0  0  0  0  0  0  0  0  0
   35.6470   28.9170   33.6840 C   0  0  0  0  0  0  0  0  0  0  0  0
   36.2900   28.5100   32.5310 C   0  0  0  0  0  0  0  0  0  0  0  0
   36.1720   29.2840   31.4010 C   0  0  0  0  0  0  0  0  0  0  0  0
   35.4160   30.4580   31.4200 C   0  0  0  0  0  0  0  0  0  0  0  0
   34.7960   30.8130   32.6040 C   0  0  0  0  0  0  0  0  0  0  0  0
   34.8880   30.0840   33.7310 C   0  0  0  0  0  0  0  0  0  0  0  0
   36.6880   28.9320   30.5200 H   0  0  0  0  0  0  0  0  0  0  0  0
   35.3530   31.0310   30.5100 H   0  0  0  0  0  0  0  0  0  0  0  0
   34.2320   31.7350   32.5310 H   0  0  0  0  0  0  0  0  0  0  0  0
   36.3130   32.2530   35.4820 Br  0  0  0  0  0  0  0  0  0  0  0  0
   34.6300   31.4490   35.8590 C   0  0  0  0  0  0  0  0  0  0  0  0
   34.2260   30.5050   34.9530 C   0  0  0  0  0  0  0  0  0  0  0  0
   33.0070   29.8470   35.1880 C   0  0  0  0  0  0  0  0  0  0  0  0
   32.2570   30.1410   36.2800 C   0  0  0  0  0  0  0  0  0  0  0  0
   32.7230   31.1100   37.1600 C   0  0  0  0  0  0  0  0  0  0  0  0
   33.9360   31.7830   36.9490 C   0  0  0  0  0  0  0  0  0  0  0  0
   32.6140   29.0900   34.5280 H   0  0  0  0  0  0  0  0  0  0  0  0
   31.3230   29.6540   36.4860 H   0  0  0  0  0  0  0  0  0  0  0  0
   32.1480   31.3700   38.0420 H   0  0  0  0  0  0  0  0  0  0  0  0
   34.4460   32.7410   37.7690 O   0  0  0  0  0  0  0  0  0  0  0  0
   34.7790   32.4660   38.6900 H   0  0  0  0  0  0  0  0  0  0  0  0
   38.3820   27.3930   32.9930 C   0  0  0  0  0  0  0  0  0  0  0  0
   37.0320   27.2900   32.6400 C   0  0  0  0  0  0  0  0  0  0  0  0
   36.5220   26.0220   32.4280 C   0  0  0  0  0  0  0  0  0  0  0  0
   37.3210   24.9400   32.5650 N   0  0  0  0  0  0  0  0  0  0  0  0
   38.6120   25.0700   32.9060 C   0  0  0  0  0  0  0  0  0  0  0  0
   39.1270   26.2720   33.1140 N   0  0  0  0  0  0  0  0  0  0  0  0
   38.8360   28.3590   33.1710 H   0  0  0  0  0  0  0  0  0  0  0  0
   35.4940   25.9290   32.1570 H   0  0  0  0  0  0  0  0  0  0  0  0
   39.6080   23.2320   31.7050 C   0  0  1  0  0  3  0  0  0  0  0  0
   39.4980   23.8860   33.0600 C   0  0  2  0  0  3  0  0  0  0  0  0
   39.1600   23.0360   34.0680 O   0  0  0  0  0  0  0  0  0  0  0  0
   38.1570   22.1420   33.8460 C   0  0  0  0  0  2  0  0  0  0  0  0
   38.1540   21.4610   32.5210 C   0  0  1  0  0  3  0  0  0  0  0  0
   38.4000   22.3980   31.3640 C   0  0  2  0  0  3  0  0  0  0  0  0
   39.6910   24.2560   30.7620 O   0  0  0  0  0  0  0  0  0  0  0  0
   38.8710   24.8030   30.8660 H   0  0  0  0  0  0  0  0  0  0  0  0
   39.0360   20.3870   32.4510 O   0  0  0  0  0  0  0  0  0  0  0  0
   39.2280   20.2420   31.4890 H   0  0  0  0  0  0  0  0  0  0  0  0
   38.7160   21.6270   30.2460 O   0  0  0  0  0  0  0  0  0  0  0  0
   37.9660   21.5700   29.6030 H   0  0  0  0  0  0  0  0  0  0  0  0
  2  7  1  0  0  0  0
  2  1  1  0  0  0  0
  3 24  1  0  0  0  0
  3  2  2  0  0  0  0
  4  5  2  0  0  0  0
  4  3  1  0  0  0  0
  5  6  1  0  0  0  0
  6  7  2  0  0  0  0
  7 13  1  0  0  0  0
  8  4  1  0  0  0  0
  9  5  1  0  0  0  0
 10  6  1  0  0  0  0
 11 12  1  0  0  0  0
 12 17  1  0  0  0  0
 13 14  1  0  0  0  0
 13 12  2  0  0  0  0
 14 15  2  0  0  0  0
 15 19  1  0  0  0  0
 15 16  1  0  0  0  0
 16 20  1  0  0  0  0
 17 16  2  0  0  0  0
 17 21  1  0  0  0  0
 18 14  1  0  0  0  0
 21 22  1  0  0  0  0
 23 28  1  0  0  0  0
 23 29  1  0  0  0  0
 24 23  2  0  0  0  0
 25 26  2  0  0  0  0
 25 24  1  0  0  0  0
 26 27  1  0  0  0  0
 27 28  2  0  0  0  0
 30 25  1  0  0  0  0
 31 37  1  6  0  0  0
 31 32  1  0  0  0  0
 32 27  1  6  0  0  0
 32 33  1  0  0  0  0
 34 33  1  0  0  0  0
 35 39  1  1  0  0  0
 35 34  1  0  0  0  0
 36 41  1  6  0  0  0
 36 31  1  0  0  0  0
 36 35  1  0  0  0  0
 37 38  1  0  0  0  0
 40 39  1  0  0  0  0
 42 41  1  0  0  0  0
M  END
>  <minimizedAffinity>
-6.38290977

$$$$

 OpenBabel03272502083D

 42 45  0  0  1  0  0  0  0  0999 V2000
   33.3710   29.0120   33.7130 F   0  0  0  0  0  0  0  0  0  0  0  0
   34.0700   29.8700   34.5240 C   0  0  0  0  0  0  0  0  0  0  0  0
   35.4510   29.8780   34.5520 C   0  0  0  0  0  0  0  0  0  0  0  0
   36.0900   30.7720   35.3770 C   0  0  0  0  0  0  0  0  0  0  0  0
   35.3560   31.6560   36.1710 C   0  0  0  0  0  0  0  0  0  0  0  0
   33.9750   31.6000   36.1000 C   0  0  0  0  0  0  0  0  0  0  0  0
   33.3130   30.7390   35.3060 C   0  0  0  0  0  0  0  0  0  0  0  0
   37.1700   30.7480   35.3710 H   0  0  0  0  0  0  0  0  0  0  0  0
   35.9010   32.3390   36.8010 H   0  0  0  0  0  0  0  0  0  0  0  0
   33.4860   32.3180   36.7460 H   0  0  0  0  0  0  0  0  0  0  0  0
   31.8800   32.3650   33.0470 Br  0  0  0  0  0  0  0  0  0  0  0  0
   31.0180   31.3120   34.3760 C   0  0  0  0  0  0  0  0  0  0  0  0
   31.8620   30.7120   35.2740 C   0  0  0  0  0  0  0  0  0  0  0  0
   31.2900   29.9450   36.3030 C   0  0  0  0  0  0  0  0  0  0  0  0
   29.9440   29.8060   36.4010 C   0  0  0  0  0  0  0  0  0  0  0  0
   29.1430   30.4380   35.4570 C   0  0  0  0  0  0  0  0  0  0  0  0
   29.6880   31.2090   34.4190 C   0  0  0  0  0  0  0  0  0  0  0  0
   31.8790   29.4410   37.0520 H   0  0  0  0  0  0  0  0  0  0  0  0
   29.4790   29.2270   37.1760 H   0  0  0  0  0  0  0  0  0  0  0  0
   28.0640   30.3470   35.5050 H   0  0  0  0  0  0  0  0  0  0  0  0
   28.9610   31.8510   33.4650 O   0  0  0  0  0  0  0  0  0  0  0  0
   28.3970   32.6520   33.7390 H   0  0  0  0  0  0  0  0  0  0  0  0
   36.4710   27.7060   34.2630 C   0  0  0  0  0  0  0  0  0  0  0  0
   36.0880   28.9250   33.6930 C   0  0  0  0  0  0  0  0  0  0  0  0
   36.3500   29.1100   32.3480 C   0  0  0  0  0  0  0  0  0  0  0  0
   36.9550   28.1330   31.6360 N   0  0  0  0  0  0  0  0  0  0  0  0
   37.3100   26.9750   32.2100 C   0  0  0  0  0  0  0  0  0  0  0  0
   37.0720   26.7700   33.4960 N   0  0  0  0  0  0  0  0  0  0  0  0
   36.2930   27.5050   35.3120 H   0  0  0  0  0  0  0  0  0  0  0  0
   36.0640   30.0360   31.9000 H   0  0  0  0  0  0  0  0  0  0  0  0
   36.8870   24.9990   30.8940 C   0  0  1  0  0  3  0  0  0  0  0  0
   37.9750   25.8940   31.4350 C   0  0  2  0  0  3  0  0  0  0  0  0
   38.9690   25.2360   32.0910 O   0  0  0  0  0  0  0  0  0  0  0  0
   38.6200   24.2620   32.9760 C   0  0  0  0  0  2  0  0  0  0  0  0
   37.5290   23.3400   32.5530 C   0  0  1  0  0  3  0  0  0  0  0  0
   36.3500   24.0480   31.9330 C   0  0  2  0  0  3  0  0  0  0  0  0
   35.8360   25.8250   30.4970 O   0  0  0  0  0  0  0  0  0  0  0  0
   35.5590   26.3350   31.3010 H   0  0  0  0  0  0  0  0  0  0  0  0
   37.9630   22.3230   31.7070 O   0  0  0  0  0  0  0  0  0  0  0  0
   37.1640   22.0060   31.2130 H   0  0  0  0  0  0  0  0  0  0  0  0
   35.5720   23.0950   31.2770 O   0  0  0  0  0  0  0  0  0  0  0  0
   34.7460   22.8740   31.7770 H   0  0  0  0  0  0  0  0  0  0  0  0
  1  2  1  0  0  0  0
  2  3  2  0  0  0  0
  2  7  1  0  0  0  0
  3  4  1  0  0  0  0
  4  5  2  0  0  0  0
  5  9  1  0  0  0  0
  6  5  1  0  0  0  0
  6 10  1  0  0  0  0
  7  6  2  0  0  0  0
  8  4  1  0  0  0  0
 11 12  1  0  0  0  0
 12 17  2  0  0  0  0
 12 13  1  0  0  0  0
 13  7  1  0  0  0  0
 13 14  2  0  0  0  0
 14 15  1  0  0  0  0
 14 18  1  0  0  0  0
 15 19  1  0  0  0  0
 16 20  1  0  0  0  0
 16 15  2  0  0  0  0
 17 16  1  0  0  0  0
 21 22  1  0  0  0  0
 21 17  1  0  0  0  0
 23 29  1  0  0  0  0
 24 23  1  0  0  0  0
 24  3  1  0  0  0  0
 25 24  2  0  0  0  0
 26 27  2  0  0  0  0
 26 25  1  0  0  0  0
 27 28  1  0  0  0  0
 28 23  2  0  0  0  0
 30 25  1  0  0  0  0
 31 37  1  1  0  0  0
 31 32  1  0  0  0  0
 31 36  1  0  0  0  0
 32 33  1  0  0  0  0
 32 27  1  1  0  0  0
 33 34  1  0  0  0  0
 35 39  1  6  0  0  0
 35 34  1  0  0  0  0
 36 41  1  6  0  0  0
 36 35  1  0  0  0  0
 37 38  1  0  0  0  0
 40 39  1  0  0  0  0
 41 42  1  0  0  0  0
M  END
>  <minimizedAffinity>
-6.33546495

$$$$

 OpenBabel03272502083D

 42 45  0  0  1  0  0  0  0  0999 V2000
   38.6160   26.3120   34.9960 F   0  0  0  0  0  0  0  0  0  0  0  0
   38.1370   25.4540   34.0380 C   0  0  0  0  0  0  0  0  0  0  0  0
   37.2000   25.8590   33.1070 C   0  0  0  0  0  0  0  0  0  0  0  0
   36.7710   24.9540   32.1650 C   0  0  0  0  0  0  0  0  0  0  0  0
   37.2750   23.6520   32.1510 C   0  0  0  0  0  0  0  0  0  0  0  0
   38.2120   23.3060   33.1090 C   0  0  0  0  0  0  0  0  0  0  0  0
   38.6550   24.1620   34.0470 C   0  0  0  0  0  0  0  0  0  0  0  0
   36.0390   25.3080   31.4550 H   0  0  0  0  0  0  0  0  0  0  0  0
   36.9100   22.9790   31.3930 H   0  0  0  0  0  0  0  0  0  0  0  0
   38.5490   22.2810   33.0250 H   0  0  0  0  0  0  0  0  0  0  0  0
   37.5820   23.0290   36.7610 Br  0  0  0  0  0  0  0  0  0  0  0  0
   39.4130   23.1990   36.2740 C   0  0  0  0  0  0  0  0  0  0  0  0
   39.6330   23.7480   35.0380 C   0  0  0  0  0  0  0  0  0  0  0  0
   40.9630   23.9330   34.6280 C   0  0  0  0  0  0  0  0  0  0  0  0
   41.9960   23.5790   35.4340 C   0  0  0  0  0  0  0  0  0  0  0  0
   41.7050   23.0260   36.6750 C   0  0  0  0  0  0  0  0  0  0  0  0
   40.3850   22.8290   37.1090 C   0  0  0  0  0  0  0  0  0  0  0  0
   41.2270   24.3590   33.6730 H   0  0  0  0  0  0  0  0  0  0  0  0
   43.0220   23.7090   35.1480 H   0  0  0  0  0  0  0  0  0  0  0  0
   42.5060   22.7300   37.3440 H   0  0  0  0  0  0  0  0  0  0  0  0
   40.0340   22.2920   38.3090 O   0  0  0  0  0  0  0  0  0  0  0  0
   40.2130   22.8310   39.1540 H   0  0  0  0  0  0  0  0  0  0  0  0
   36.8030   28.0070   32.0730 C   0  0  0  0  0  0  0  0  0  0  0  0
   36.7620   27.2170   33.2270 C   0  0  0  0  0  0  0  0  0  0  0  0
   36.2980   27.8080   34.3890 C   0  0  0  0  0  0  0  0  0  0  0  0
   35.9070   29.1020   34.3790 N   0  0  0  0  0  0  0  0  0  0  0  0
   35.9570   29.8340   33.2570 C   0  0  0  0  0  0  0  0  0  0  0  0
   36.3970   29.2940   32.1310 N   0  0  0  0  0  0  0  0  0  0  0  0
   37.1570   27.5990   31.1360 H   0  0  0  0  0  0  0  0  0  0  0  0
   36.2620   27.2180   35.2770 H   0  0  0  0  0  0  0  0  0  0  0  0
   34.1690   31.3050   32.5840 C   0  0  1  0  0  3  0  0  0  0  0  0
   35.5280   31.2570   33.2380 C   0  0  2  0  0  3  0  0  0  0  0  0
   36.4340   32.1290   32.7150 O   0  0  0  0  0  0  0  0  0  0  0  0
   36.5190   32.2310   31.3600 C   0  0  0  0  0  2  0  0  0  0  0  0
   35.2310   32.2530   30.6120 C   0  0  1  0  0  3  0  0  0  0  0  0
   34.2460   31.2120   31.0820 C   0  0  2  0  0  3  0  0  0  0  0  0
   33.4580   30.1940   33.0380 O   0  0  0  0  0  0  0  0  0  0  0  0
   33.9870   29.3960   32.7820 H   0  0  0  0  0  0  0  0  0  0  0  0
   34.6210   33.5040   30.6000 O   0  0  0  0  0  0  0  0  0  0  0  0
   33.6590   33.3480   30.4160 H   0  0  0  0  0  0  0  0  0  0  0  0
   32.9910   31.5440   30.5700 O   0  0  0  0  0  0  0  0  0  0  0  0
   32.7280   30.9640   29.8110 H   0  0  0  0  0  0  0  0  0  0  0  0
  2  7  1  0  0  0  0
  2  1  1  0  0  0  0
  3 24  1  0  0  0  0
  3  2  2  0  0  0  0
  4  3  1  0  0  0  0
  5  4  2  0  0  0  0
  5  6  1  0  0  0  0
  6  7  2  0  0  0  0
  7 13  1  0  0  0  0
  8  4  1  0  0  0  0
  9  5  1  0  0  0  0
 10  6  1  0  0  0  0
 12 11  1  0  0  0  0
 12 17  1  0  0  0  0
 13 12  2  0  0  0  0
 14 13  1  0  0  0  0
 14 15  2  0  0  0  0
 15 16  1  0  0  0  0
 16 17  2  0  0  0  0
 16 20  1  0  0  0  0
 17 21  1  0  0  0  0
 18 14  1  0  0  0  0
 19 15  1  0  0  0  0
 21 22  1  0  0  0  0
 23 28  2  0  0  0  0
 23 24  1  0  0  0  0
 24 25  2  0  0  0  0
 25 30  1  0  0  0  0
 26 25  1  0  0  0  0
 27 26  2  0  0  0  0
 28 27  1  0  0  0  0
 29 23  1  0  0  0  0
 31 37  1  1  0  0  0
 31 32  1  0  0  0  0
 32 27  1  6  0  0  0
 33 32  1  0  0  0  0
 34 33  1  0  0  0  0
 35 39  1  1  0  0  0
 35 36  1  0  0  0  0
 35 34  1  0  0  0  0
 36 41  1  6  0  0  0
 36 31  1  0  0  0  0
 38 37  1  0  0  0  0
 40 39  1  0  0  0  0
 42 41  1  0  0  0  0
M  END
>  <minimizedAffinity>
-6.32243252

$$$$

 OpenBabel03272502083D

 42 45  0  0  1  0  0  0  0  0999 V2000
   36.2860   28.5690   34.8220 F   0  0  0  0  0  0  0  0  0  0  0  0
   35.9930   29.1050   33.5930 C   0  0  0  0  0  0  0  0  0  0  0  0
   36.4470   28.5260   32.4230 C   0  0  0  0  0  0  0  0  0  0  0  0
   36.1070   29.1060   31.2240 C   0  0  0  0  0  0  0  0  0  0  0  0
   35.3160   30.2570   31.1910 C   0  0  0  0  0  0  0  0  0  0  0  0
   34.8920   30.7890   32.3960 C   0  0  0  0  0  0  0  0  0  0  0  0
   35.2040   30.2520   33.5890 C   0  0  0  0  0  0  0  0  0  0  0  0
   36.4800   28.6240   30.3330 H   0  0  0  0  0  0  0  0  0  0  0  0
   35.0750   30.6740   30.2280 H   0  0  0  0  0  0  0  0  0  0  0  0
   34.2850   31.6780   32.2780 H   0  0  0  0  0  0  0  0  0  0  0  0
   32.4050   29.3710   34.6780 Br  0  0  0  0  0  0  0  0  0  0  0  0
   33.5810   30.6120   35.5110 C   0  0  0  0  0  0  0  0  0  0  0  0
   34.7430   30.8550   34.8270 C   0  0  0  0  0  0  0  0  0  0  0  0
   35.6430   31.7870   35.3690 C   0  0  0  0  0  0  0  0  0  0  0  0
   35.3660   32.4250   36.5340 C   0  0  0  0  0  0  0  0  0  0  0  0
   34.1710   32.1330   37.1800 C   0  0  0  0  0  0  0  0  0  0  0  0
   33.2550   31.2060   36.6600 C   0  0  0  0  0  0  0  0  0  0  0  0
   36.5790   32.0390   34.8960 H   0  0  0  0  0  0  0  0  0  0  0  0
   36.0350   33.1420   36.9710 H   0  0  0  0  0  0  0  0  0  0  0  0
   33.9190   32.6240   38.1130 H   0  0  0  0  0  0  0  0  0  0  0  0
   32.0710   30.8750   37.2430 O   0  0  0  0  0  0  0  0  0  0  0  0
   31.3280   31.5700   37.2660 H   0  0  0  0  0  0  0  0  0  0  0  0
   38.6160   27.4660   32.3230 C   0  0  0  0  0  0  0  0  0  0  0  0
   37.2480   27.3510   32.5910 C   0  0  0  0  0  0  0  0  0  0  0  0
   36.7800   26.1150   32.9990 C   0  0  0  0  0  0  0  0  0  0  0  0
   37.6350   25.0760   33.1250 N   0  0  0  0  0  0  0  0  0  0  0  0
   38.9420   25.2170   32.8620 C   0  0  0  0  0  0  0  0  0  0  0  0
   39.4180   26.3880   32.4690 N   0  0  0  0  0  0  0  0  0  0  0  0
   39.0400   28.4080   31.9990 H   0  0  0  0  0  0  0  0  0  0  0  0
   35.7370   26.0120   33.2060 H   0  0  0  0  0  0  0  0  0  0  0  0
   40.6300   24.2700   34.3000 C   0  0  1  0  0  3  0  0  0  0  0  0
   39.8890   24.0790   32.9990 C   0  0  2  0  0  3  0  0  0  0  0  0
   40.6930   23.8600   31.9220 O   0  0  0  0  0  0  0  0  0  0  0  0
   41.7970   24.6440   31.7740 C   0  0  0  0  0  2  0  0  0  0  0  0
   42.5840   24.9230   33.0060 C   0  0  1  0  0  3  0  0  0  0  0  0
   41.7310   25.2940   34.1940 C   0  0  2  0  0  3  0  0  0  0  0  0
   39.7060   24.7410   35.2320 O   0  0  0  0  0  0  0  0  0  0  0  0
   39.3390   25.5850   34.8630 H   0  0  0  0  0  0  0  0  0  0  0  0
   43.4480   23.8880   33.3550 O   0  0  0  0  0  0  0  0  0  0  0  0
   43.6400   23.9940   34.3230 H   0  0  0  0  0  0  0  0  0  0  0  0
   42.5190   25.1920   35.3400 O   0  0  0  0  0  0  0  0  0  0  0  0
   42.7950   26.0760   35.6880 H   0  0  0  0  0  0  0  0  0  0  0  0
  2  1  1  0  0  0  0
  3 24  1  0  0  0  0
  3  2  2  0  0  0  0
  4  3  1  0  0  0  0
  5  4  2  0  0  0  0
  5  6  1  0  0  0  0
  6  7  2  0  0  0  0
  7  2  1  0  0  0  0
  7 13  1  0  0  0  0
  8  4  1  0  0  0  0
  9  5  1  0  0  0  0
 10  6  1  0  0  0  0
 11 12  1  0  0  0  0
 12 17  1  0  0  0  0
 13 14  1  0  0  0  0
 13 12  2  0  0  0  0
 14 15  2  0  0  0  0
 15 19  1  0  0  0  0
 15 16  1  0  0  0  0
 16 20  1  0  0  0  0
 17 16  2  0  0  0  0
 17 21  1  0  0  0  0
 18 14  1  0  0  0  0
 21 22  1  0  0  0  0
 23 28  2  0  0  0  0
 23 24  1  0  0  0  0
 24 25  2  0  0  0  0
 25 26  1  0  0  0  0
 25 30  1  0  0  0  0
 27 26  2  0  0  0  0
 28 27  1  0  0  0  0
 29 23  1  0  0  0  0
 31 37  1  1  0  0  0
 32 27  1  6  0  0  0
 32 31  1  0  0  0  0
 33 32  1  0  0  0  0
 34 33  1  0  0  0  0
 34 35  1  0  0  0  0
 35 39  1  1  0  0  0
 35 36  1  0  0  0  0
 36 31  1  0  0  0  0
 36 41  1  1  0  0  0
 38 37  1  0  0  0  0
 39 40  1  0  0  0  0
 41 42  1  0  0  0  0
M  END
>  <minimizedAffinity>
-6.29838181

$$$$

 OpenBabel03272502083D

 42 45  0  0  1  0  0  0  0  0999 V2000
   37.0620   27.9550   34.0420 F   0  0  0  0  0  0  0  0  0  0  0  0
   37.2740   28.1260   32.6970 C   0  0  0  0  0  0  0  0  0  0  0  0
   36.4660   28.9460   31.9340 C   0  0  0  0  0  0  0  0  0  0  0  0
   36.7410   29.0840   30.5950 C   0  0  0  0  0  0  0  0  0  0  0  0
   37.8180   28.4080   30.0180 C   0  0  0  0  0  0  0  0  0  0  0  0
   38.5910   27.6000   30.8340 C   0  0  0  0  0  0  0  0  0  0  0  0
   38.3540   27.4390   32.1480 C   0  0  0  0  0  0  0  0  0  0  0  0
   36.0870   29.7340   30.0330 H   0  0  0  0  0  0  0  0  0  0  0  0
   37.9950   28.5480   28.9650 H   0  0  0  0  0  0  0  0  0  0  0  0
   39.4030   27.1150   30.3070 H   0  0  0  0  0  0  0  0  0  0  0  0
   37.4530   24.4600   32.4900 Br  0  0  0  0  0  0  0  0  0  0  0  0
   39.0230   25.2390   33.2300 C   0  0  0  0  0  0  0  0  0  0  0  0
   39.1890   26.5720   32.9600 C   0  0  0  0  0  0  0  0  0  0  0  0
   40.3110   27.2190   33.5030 C   0  0  0  0  0  0  0  0  0  0  0  0
   41.2010   26.5410   34.2720 C   0  0  0  0  0  0  0  0  0  0  0  0
   40.9760   25.1900   34.5070 C   0  0  0  0  0  0  0  0  0  0  0  0
   39.8640   24.5190   33.9760 C   0  0  0  0  0  0  0  0  0  0  0  0
   40.5180   28.2650   33.3420 H   0  0  0  0  0  0  0  0  0  0  0  0
   42.0660   27.0090   34.7000 H   0  0  0  0  0  0  0  0  0  0  0  0
   41.6680   24.6180   35.1160 H   0  0  0  0  0  0  0  0  0  0  0  0
   39.5890   23.2010   34.1670 O   0  0  0  0  0  0  0  0  0  0  0  0
   39.3100   22.8910   35.0950 H   0  0  0  0  0  0  0  0  0  0  0  0
   35.6110   30.8930   33.0820 C   0  0  0  0  0  0  0  0  0  0  0  0
   35.3960   29.5830   32.6420 C   0  0  0  0  0  0  0  0  0  0  0  0
   34.1680   29.0100   32.9200 C   0  0  0  0  0  0  0  0  0  0  0  0
   33.2310   29.7130   33.5940 N   0  0  0  0  0  0  0  0  0  0  0  0
   33.4660   30.9670   34.0040 C   0  0  0  0  0  0  0  0  0  0  0  0
   34.6320   31.5420   33.7510 N   0  0  0  0  0  0  0  0  0  0  0  0
   36.5520   31.3930   32.8940 H   0  0  0  0  0  0  0  0  0  0  0  0
   33.9910   28.0100   32.5910 H   0  0  0  0  0  0  0  0  0  0  0  0
   32.5980   31.4170   36.2080 C   0  0  1  0  0  3  0  0  0  0  0  0
   32.4400   31.7490   34.7450 C   0  0  2  0  0  3  0  0  0  0  0  0
   31.1680   31.6280   34.2760 O   0  0  0  0  0  0  0  0  0  0  0  0
   30.4540   30.5250   34.6330 C   0  0  0  0  0  2  0  0  0  0  0  0
   30.5660   30.0900   36.0530 C   0  0  1  0  0  3  0  0  0  0  0  0
   31.9820   30.0910   36.5720 C   0  0  2  0  0  3  0  0  0  0  0  0
   33.9670   31.3290   36.4620 O   0  0  0  0  0  0  0  0  0  0  0  0
   34.3200   30.6240   35.8620 H   0  0  0  0  0  0  0  0  0  0  0  0
   29.7500   30.8160   36.9170 O   0  0  0  0  0  0  0  0  0  0  0  0
   30.1420   30.7180   37.8230 H   0  0  0  0  0  0  0  0  0  0  0  0
   31.9320   30.0110   37.9630 O   0  0  0  0  0  0  0  0  0  0  0  0
   32.1670   29.1100   38.2980 H   0  0  0  0  0  0  0  0  0  0  0  0
  2  1  1  0  0  0  0
  3 24  1  0  0  0  0
  3  2  2  0  0  0  0
  4  3  1  0  0  0  0
  5  4  2  0  0  0  0
  5  6  1  0  0  0  0
  6  7  2  0  0  0  0
  7  2  1  0  0  0  0
  7 13  1  0  0  0  0
  8  4  1  0  0  0  0
  9  5  1  0  0  0  0
 10  6  1  0  0  0  0
 11 12  1  0  0  0  0
 12 17  1  0  0  0  0
 13 12  2  0  0  0  0
 13 14  1  0  0  0  0
 14 15  2  0  0  0  0
 15 16  1  0  0  0  0
 15 19  1  0  0  0  0
 16 20  1  0  0  0  0
 17 21  1  0  0  0  0
 17 16  2  0  0  0  0
 18 14  1  0  0  0  0
 21 22  1  0  0  0  0
 23 28  1  0  0  0  0
 24 25  1  0  0  0  0
 24 23  2  0  0  0  0
 25 26  2  0  0  0  0
 26 27  1  0  0  0  0
 28 27  2  0  0  0  0
 29 23  1  0  0  0  0
 30 25  1  0  0  0  0
 31 37  1  6  0  0  0
 31 36  1  0  0  0  0
 32 27  1  6  0  0  0
 32 31  1  0  0  0  0
 33 34  1  0  0  0  0
 33 32  1  0  0  0  0
 34 35  1  0  0  0  0
 35 36  1  0  0  0  0
 35 39  1  1  0  0  0
 36 41  1  1  0  0  0
 38 37  1  0  0  0  0
 39 40  1  0  0  0  0
 41 42  1  0  0  0  0
M  END
>  <minimizedAffinity>
-6.24326944

$$$$
