
 OpenBabel03272509053D

 36 38  0  0  1  0  0  0  0  0999 V2000
   37.5540   30.3020   51.3350 C   0  0  0  0  0  0  0  0  0  0  0  0
   38.0410   31.0610   50.2280 C   0  0  0  0  0  0  0  0  0  0  0  0
   37.3850   30.9280   48.9850 C   0  0  0  0  0  0  0  0  0  0  0  0
   36.3210   30.0790   48.9120 N   0  0  0  0  0  0  0  0  0  0  0  0
   35.9070   29.3870   49.9910 C   0  0  0  0  0  0  0  0  0  0  0  0
   36.5040   29.4870   51.1920 N   0  0  0  0  0  0  0  0  0  0  0  0
   38.1110   30.4600   52.2470 H   0  0  0  0  0  0  0  0  0  0  0  0
   38.8900   31.7330   50.3000 H   0  0  0  0  0  0  0  0  0  0  0  0
   38.1890   30.7220   46.7230 C   0  0  2  0  0  3  0  0  0  0  0  0
   37.8560   31.7000   47.8050 C   0  0  2  0  0  3  0  0  0  0  0  0
   38.9520   32.4380   48.2330 O   0  0  0  0  0  0  0  0  0  0  0  0
   39.6980   33.0120   47.2460 C   0  0  0  0  0  2  0  0  0  0  0  0
   39.2210   32.7570   45.8460 C   0  0  2  0  0  3  0  0  0  0  0  0
   39.1550   31.2480   45.6880 C   0  0  2  0  0  3  0  0  0  0  0  0
   37.0120   30.3710   46.0630 O   0  0  0  0  0  0  0  0  0  0  0  0
   36.8770   29.4040   46.1370 H   0  0  0  0  0  0  0  0  0  0  0  0
   40.2020   33.2540   44.9810 O   0  0  0  0  0  0  0  0  0  0  0  0
   41.0740   32.8650   45.2090 H   0  0  0  0  0  0  0  0  0  0  0  0
   38.8280   30.9010   44.3950 O   0  0  0  0  0  0  0  0  0  0  0  0
   37.9260   31.2050   44.1550 H   0  0  0  0  0  0  0  0  0  0  0  0
   34.7670   28.5080   49.7780 C   0  0  0  0  0  3  0  0  0  0  0  0
   34.3840   28.2820   48.5650 C   0  0  0  0  0  3  0  0  0  0  0  0
   33.2800   27.4280   48.0940 C   0  0  0  0  0  0  0  0  0  0  0  0
   32.9390   26.8100   48.9720 H   0  0  0  0  0  0  0  0  0  0  0  0
   32.3910   28.0000   47.7750 H   0  0  0  0  0  0  0  0  0  0  0  0
   33.6930   26.4310   47.0580 C   0  0  0  0  0  0  0  0  0  0  0  0
   33.9240   25.0910   47.2740 C   0  0  0  0  0  0  0  0  0  0  0  0
   34.3000   24.2850   46.2110 C   0  0  0  0  0  0  0  0  0  0  0  0
   34.4540   24.7890   44.9250 C   0  0  0  0  0  0  0  0  0  0  0  0
   34.2260   26.1250   44.7060 C   0  0  0  0  0  0  0  0  0  0  0  0
   33.8480   26.9420   45.7670 C   0  0  0  0  0  0  0  0  0  0  0  0
   33.7910   24.7440   48.2900 H   0  0  0  0  0  0  0  0  0  0  0  0
   34.4510   23.2550   46.5060 H   0  0  0  0  0  0  0  0  0  0  0  0
   34.7520   24.0580   44.1850 H   0  0  0  0  0  0  0  0  0  0  0  0
   34.3550   26.4860   43.6950 H   0  0  0  0  0  0  0  0  0  0  0  0
   33.6890   27.9800   45.5030 H   0  0  0  0  0  0  0  0  0  0  0  0
  1  7  1  0  0  0  0
  2  8  1  0  0  0  0
  2  1  2  0  0  0  0
  3  2  1  0  0  0  0
  4  3  2  0  0  0  0
  4  5  1  0  0  0  0
  5  6  2  0  0  0  0
  6  1  1  0  0  0  0
  9 15  1  6  0  0  0
  9 10  1  0  0  0  0
 10 11  1  0  0  0  0
 10  3  1  1  0  0  0
 12 11  1  0  0  0  0
 13 17  1  6  0  0  0
 13 12  1  0  0  0  0
 14 19  1  6  0  0  0
 14 13  1  0  0  0  0
 14  9  1  0  0  0  0
 15 16  1  0  0  0  0
 17 18  1  0  0  0  0
 20 19  1  0  0  0  0
 21  5  1  0  0  0  0
 22 21  2  0  0  0  0
 23 22  1  0  0  0  0
 23 24  1  0  0  0  0
 25 23  1  0  0  0  0
 26 27  1  0  0  0  0
 26 23  1  0  0  0  0
 27 32  1  0  0  0  0
 28 33  1  0  0  0  0
 28 27  2  0  0  0  0
 29 28  1  0  0  0  0
 30 29  2  0  0  0  0
 30 31  1  0  0  0  0
 31 26  2  0  0  0  0
 34 29  1  0  0  0  0
 35 30  1  0  0  0  0
 36 31  1  0  0  0  0
M  END
>  <minimizedAffinity>
-6.23510599

>  <minimizedRMSD>
1.04900968

$$$$
