
     RDKit          3D

 28 29  0  0  0  0  0  0  0  0999 V2000
   37.2978   29.9913   51.1813 C   0  0  0  0  0  0  0  0  0  0  0  0
   37.9591   30.9216   50.3523 C   0  0  0  0  0  0  0  0  0  0  0  0
   37.2738   31.3882   49.2320 C   0  0  0  0  0  0  0  0  0  0  0  0
   36.0156   30.9284   48.9965 N   0  0  0  0  0  0  0  0  0  0  0  0
   35.4095   30.0298   49.8198 C   0  0  0  0  0  0  0  0  0  0  0  0
   36.0573   29.5760   50.8966 N   0  0  0  0  0  0  0  0  0  0  0  0
   38.0810   29.6086   52.2535 O   0  0  0  0  0  0  0  0  0  0  0  0
   38.9439   31.3122   50.4941 H   0  0  0  0  0  0  0  0  0  0  0  0
   37.7067   32.1026   48.5434 H   0  0  0  0  0  0  0  0  0  0  0  0
   38.9162   29.0663   52.0011 H   0  0  0  0  0  0  0  0  0  0  0  0
   32.7076   29.7579   47.4756 O   0  0  0  0  0  0  0  0  0  0  0  0
   33.8886   29.3175   48.0191 C   0  0  1  0  0  0  0  0  0  0  0  0
   34.0308   29.5714   49.4990 C   0  0  1  0  0  0  0  0  0  0  0  0
   33.7658   28.4339   50.2579 O   0  0  0  0  0  0  0  0  0  0  0  0
   32.6714   27.7714   49.6585 C   0  0  0  0  0  0  0  0  0  0  0  0
   33.3045   26.9277   48.5601 C   0  0  1  0  0  0  0  0  0  0  0  0
   32.4173   26.0955   47.9261 O   0  0  0  0  0  0  0  0  0  0  0  0
   34.0625   27.8594   47.6677 C   0  0  2  0  0  0  0  0  0  0  0  0
   35.4465   27.5993   47.7626 O   0  0  0  0  0  0  0  0  0  0  0  0
   32.6033   30.7432   47.4862 H   0  0  0  0  0  0  0  0  0  0  0  0
   34.7088   29.8730   47.5114 H   0  0  0  0  0  0  0  0  0  0  0  0
   33.3019   30.3454   49.8021 H   0  0  0  0  0  0  0  0  0  0  0  0
   31.9212   28.4657   49.2583 H   0  0  0  0  0  0  0  0  0  0  0  0
   32.1788   27.0623   50.3726 H   0  0  0  0  0  0  0  0  0  0  0  0
   34.0345   26.2641   49.1100 H   0  0  0  0  0  0  0  0  0  0  0  0
   32.2465   26.3268   46.9797 H   0  0  0  0  0  0  0  0  0  0  0  0
   33.7735   27.7362   46.6039 H   0  0  0  0  0  0  0  0  0  0  0  0
   35.8852   27.6005   46.8905 H   0  0  0  0  0  0  0  0  0  0  0  0
  1  7  1  0
  2  1  2  0
  3  2  1  0
  4  3  2  0
  4  5  1  0
  5  6  2  0
  6  1  1  0
  2  8  1  0
  3  9  1  0
  7 10  1  0
 11 12  1  0
 12 13  1  0
 13 14  1  0
 14 15  1  0
 15 16  1  0
 16 17  1  0
 16 18  1  0
 18 19  1  0
 18 12  1  0
 11 20  1  0
 12 21  1  6
 13 22  1  1
 15 23  1  0
 15 24  1  0
 16 25  1  1
 17 26  1  0
 18 27  1  6
 19 28  1  0
  5 13  1  0
M  ISO  3   8  14   9  14  10   3
M  END
>  <DihAtoms>  (1) 
3,4,12,11

>  <DihDeg>  (1) 
-78.24753155161936

$$$$
