
 OpenBabel03272508233D

 52 55  0  0  1  0  0  0  0  0999 V2000
   31.2130   26.9270   46.9780 C   0  0  0  0  0  0  0  0  0  0  0  0
   32.3870   26.6530   47.6360 C   0  0  0  0  0  0  0  0  0  0  0  0
   32.8020   25.3810   47.4940 C   0  0  0  0  0  0  0  0  0  0  0  0
   32.1350   24.4710   46.7810 N   0  0  0  0  0  0  0  0  0  0  0  0
   31.0050   24.7270   46.1460 C   0  0  0  0  0  0  0  0  0  0  0  0
   30.5300   25.9670   46.2400 N   0  0  0  0  0  0  0  0  0  0  0  0
   33.7320   25.0290   47.9710 H   0  0  0  0  0  0  0  0  0  0  0  0
   30.4470   24.0260   45.5690 H   0  0  0  0  0  0  0  0  0  0  0  0
   30.5760   28.2860   47.0130 C   0  0  1  0  0  0  0  0  0  0  0  0
   29.3240   28.5240   46.4080 C   0  0  0  0  0  0  0  0  0  0  0  0
   29.3570   28.3280   47.9240 C   0  0  1  0  0  0  0  0  0  0  0  0
   31.2810   29.1320   47.1500 H   0  0  0  0  0  0  0  0  0  0  0  0
   29.0740   29.4950   45.9740 H   0  0  0  0  0  0  0  0  0  0  0  0
   28.7980   27.6750   45.8870 H   0  0  0  0  0  0  0  0  0  0  0  0
   29.1770   29.3090   48.4480 H   0  0  0  0  0  0  0  0  0  0  0  0
   27.2360   27.2840   48.5340 C   0  0  2  0  0  0  0  0  0  0  0  0
   28.7690   27.1670   48.5710 C   0  0  2  0  0  0  0  0  0  0  0  0
   29.1070   26.8280   49.8290 O   0  0  0  0  0  0  0  0  0  0  0  0
   28.5740   27.4330   50.8990 C   0  0  0  0  0  0  0  0  0  0  0  0
   27.6040   28.5380   50.6730 C   0  0  2  0  0  0  0  0  0  0  0  0
   26.7240   28.3450   49.4640 C   0  0  1  0  0  0  0  0  0  0  0  0
   26.7620   26.0450   48.9700 O   0  0  0  0  0  0  0  0  0  0  0  0
   26.4490   26.0310   49.8920 H   0  0  0  0  0  0  0  0  0  0  0  0
   28.2650   29.7670   50.6700 O   0  0  0  0  0  0  0  0  0  0  0  0
   27.7410   30.4610   50.1870 H   0  0  0  0  0  0  0  0  0  0  0  0
   26.5120   29.5740   48.8370 O   0  0  0  0  0  0  0  0  0  0  0  0
   25.5980   29.7000   48.5090 H   0  0  0  0  0  0  0  0  0  0  0  0
   33.0730   27.6620   48.3880 C   0  0  0  0  0  0  0  0  0  0  0  0
   32.3020   28.4340   48.6940 H   0  0  0  0  0  0  0  0  0  0  0  0
   33.5100   27.2970   49.3390 H   0  0  0  0  0  0  0  0  0  0  0  0
   34.0920   28.4500   47.6470 C   0  0  0  0  0  0  0  0  0  0  0  0
   34.5730   27.7180   46.9290 H   0  0  0  0  0  0  0  0  0  0  0  0
   33.5230   29.1180   46.9680 H   0  0  0  0  0  0  0  0  0  0  0  0
   35.4370   30.6320   46.5590 F   0  0  0  0  0  0  0  0  0  0  0  0
   35.7640   30.1400   47.8030 C   0  0  0  0  0  0  0  0  0  0  0  0
   35.1160   29.0560   48.4090 C   0  0  0  0  0  0  0  0  0  0  0  0
   35.5760   28.7430   49.6210 C   0  0  0  0  0  0  0  0  0  0  0  0
   36.5890   29.3870   50.2610 C   0  0  0  0  0  0  0  0  0  0  0  0
   37.2360   30.4640   49.6620 C   0  0  0  0  0  0  0  0  0  0  0  0
   36.7760   30.7890   48.4320 C   0  0  0  0  0  0  0  0  0  0  0  0
   35.0980   27.8960   50.1410 H   0  0  0  0  0  0  0  0  0  0  0  0
   36.9180   29.0750   51.2620 H   0  0  0  0  0  0  0  0  0  0  0  0
   38.3290   31.1540   50.3580 C   0  0  0  0  0  0  0  0  0  0  0  0
   38.4800   32.1490   49.8860 H   0  0  0  0  0  0  0  0  0  0  0  0
   38.1580   31.2510   51.4460 H   0  0  0  0  0  0  0  0  0  0  0  0
   39.2800   30.6010   50.2160 H   0  0  0  0  0  0  0  0  0  0  0  0
   37.4580   31.8940   47.8180 O   0  0  0  0  0  0  0  0  0  0  0  0
   38.4860   31.5590   46.9860 C   0  0  0  0  0  0  0  0  0  0  0  0
   39.4180   32.4550   47.0450 O   0  0  0  0  0  0  0  0  0  0  0  0
   38.7250   30.4920   46.1230 N   0  0  0  0  0  0  0  0  0  0  0  0
   39.0780   29.7330   45.5070 H   0  0  0  0  0  0  0  0  0  0  0  0
   39.6990   30.1900   45.8760 H   0  0  0  0  0  0  0  0  0  0  0  0
  1  9  1  0  0  0  0
  1  2  1  0  0  0  0
  2 28  1  0  0  0  0
  3  2  2  0  0  0  0
  3  7  1  0  0  0  0
  4  3  1  0  0  0  0
  5  6  1  0  0  0  0
  5  4  2  0  0  0  0
  6  1  2  0  0  0  0
  8  5  1  0  0  0  0
  9 12  1  1  0  0  0
  9 11  1  0  0  0  0
 10  9  1  0  0  0  0
 10 11  1  0  0  0  0
 11 15  1  1  0  0  0
 11 17  1  0  0  0  0
 13 10  1  0  0  0  0
 14 10  1  0  0  0  0
 16 17  1  0  0  0  0
 16 22  1  1  0  0  0
 16 21  1  0  0  0  0
 17 18  1  1  0  0  0
 18 19  1  0  0  0  0
 20 24  1  6  0  0  0
 20 19  1  0  0  0  0
 21 26  1  6  0  0  0
 21 20  1  0  0  0  0
 22 23  1  0  0  0  0
 25 24  1  0  0  0  0
 27 26  1  0  0  0  0
 28 29  1  0  0  0  0
 28 30  1  0  0  0  0
 31 28  1  0  0  0  0
 31 36  1  0  0  0  0
 32 31  1  0  0  0  0
 33 31  1  0  0  0  0
 34 35  1  0  0  0  0
 35 36  2  0  0  0  0
 35 40  1  0  0  0  0
 36 37  1  0  0  0  0
 37 41  1  0  0  0  0
 37 38  2  0  0  0  0
 38 42  1  0  0  0  0
 39 38  1  0  0  0  0
 39 43  1  0  0  0  0
 40 39  2  0  0  0  0
 43 45  1  0  0  0  0
 44 43  1  0  0  0  0
 46 43  1  0  0  0  0
 47 40  1  0  0  0  0
 48 49  2  0  0  0  0
 48 47  1  0  0  0  0
 50 48  1  0  0  0  0
 51 50  1  0  0  0  0
 52 50  1  0  0  0  0
M  END
>  <minimizedAffinity>
-7.61667395

>  <minimizedRMSD>
1.79705548

$$$$
