
 OpenBabel03272505593D

 47 50  0  0  1  0  0  0  0  0999 V2000
   35.2650   30.4040   49.8350 C   0  0  2  0  0  0  0  0  0  0  0  0
   36.1760   31.1940   48.9720 C   0  0  0  0  0  0  0  0  0  0  0  0
   37.6300   30.7000   49.0430 C   0  0  2  0  0  0  0  0  0  0  0  0
   38.1830   30.6560   50.3940 C   0  0  0  0  0  0  0  0  0  0  0  0
   37.1940   30.1570   51.4380 C   0  0  0  0  0  0  0  0  0  0  0  0
   35.9930   29.5130   50.8130 C   0  0  0  0  0  0  0  0  0  0  0  0
   34.6050   31.0530   50.4860 H   0  0  0  0  0  0  0  0  0  0  0  0
   36.0180   31.2720   47.9190 H   0  0  0  0  0  0  0  0  0  0  0  0
   36.2030   32.2700   49.3500 H   0  0  0  0  0  0  0  0  0  0  0  0
   37.6570   29.7380   48.5200 H   0  0  0  0  0  0  0  0  0  0  0  0
   39.1100   30.0420   50.3860 H   0  0  0  0  0  0  0  0  0  0  0  0
   38.5030   31.6520   50.7580 H   0  0  0  0  0  0  0  0  0  0  0  0
   37.7160   29.3640   52.0120 H   0  0  0  0  0  0  0  0  0  0  0  0
   36.9050   30.9190   52.1720 H   0  0  0  0  0  0  0  0  0  0  0  0
   36.2420   28.5760   50.2900 H   0  0  0  0  0  0  0  0  0  0  0  0
   35.2920   29.2410   51.6210 H   0  0  0  0  0  0  0  0  0  0  0  0
   37.7670   30.0590   46.1670 Cl  0  0  0  0  0  0  0  0  0  0  0  0
   38.5420   31.4770   46.8560 C   0  0  0  0  0  0  0  0  0  0  0  0
   38.3770   31.6930   48.2140 C   0  0  0  0  0  0  0  0  0  0  0  0
   38.9990   32.8410   48.6530 C   0  0  0  0  0  0  0  0  0  0  0  0
   39.7110   33.6790   47.8200 C   0  0  0  0  0  0  0  0  0  0  0  0
   39.8280   33.3880   46.4660 C   0  0  0  0  0  0  0  0  0  0  0  0
   39.2190   32.2440   45.9720 C   0  0  0  0  0  0  0  0  0  0  0  0
   38.9100   33.0780   49.7050 H   0  0  0  0  0  0  0  0  0  0  0  0
   40.1590   34.5570   48.2850 H   0  0  0  0  0  0  0  0  0  0  0  0
   40.3910   34.0670   45.8560 H   0  0  0  0  0  0  0  0  0  0  0  0
   38.2780   32.6180   43.7070 C   0  0  1  0  0  3  0  0  0  0  0  0
   39.3430   31.9340   44.5320 C   0  0  2  0  0  3  0  0  0  0  0  0
   39.3320   30.5570   44.3060 O   0  0  0  0  0  0  0  0  0  0  0  0
   39.8860   30.2710   43.0690 C   0  0  0  0  0  2  0  0  0  0  0  0
   39.3170   31.1460   41.9760 C   0  0  1  0  0  3  0  0  0  0  0  0
   38.0350   31.7790   42.4760 C   0  0  2  0  0  3  0  0  0  0  0  0
   37.0620   32.6880   44.3810 O   0  0  0  0  0  0  0  0  0  0  0  0
   36.4110   31.9980   44.0660 H   0  0  0  0  0  0  0  0  0  0  0  0
   40.1810   32.1560   41.5890 O   0  0  0  0  0  0  0  0  0  0  0  0
   41.1340   31.8580   41.6430 H   0  0  0  0  0  0  0  0  0  0  0  0
   37.4810   32.5600   41.4840 O   0  0  0  0  0  0  0  0  0  0  0  0
   36.8420   32.0040   40.9450 H   0  0  0  0  0  0  0  0  0  0  0  0
   34.3430   29.5510   49.0660 C   0  0  0  0  0  0  0  0  0  0  0  0
   34.3470   29.7670   47.6870 C   0  0  0  0  0  0  0  0  0  0  0  0
   33.4990   28.9690   46.9030 C   0  0  0  0  0  0  0  0  0  0  0  0
   32.7060   28.0150   47.5320 N   0  0  0  0  0  0  0  0  0  0  0  0
   32.7370   27.8450   48.8680 C   0  0  0  0  0  0  0  0  0  0  0  0
   33.5520   28.6150   49.5920 N   0  0  0  0  0  0  0  0  0  0  0  0
   34.8100   30.3930   46.9450 H   0  0  0  0  0  0  0  0  0  0  0  0
   33.3050   28.9180   45.8600 H   0  0  0  0  0  0  0  0  0  0  0  0
   32.1260   27.1080   49.3660 H   0  0  0  0  0  0  0  0  0  0  0  0
  1  7  1  1  0  0  0
  1  6  1  0  0  0  0
  2  3  1  0  0  0  0
  2  9  1  0  0  0  0
  2  1  1  0  0  0  0
  3 10  1  6  0  0  0
  3  4  1  0  0  0  0
  4 12  1  0  0  0  0
  4  5  1  0  0  0  0
  5 13  1  0  0  0  0
  5 14  1  0  0  0  0
  6  5  1  0  0  0  0
  6 16  1  0  0  0  0
  8  2  1  0  0  0  0
 11  4  1  0  0  0  0
 15  6  1  0  0  0  0
 17 18  1  0  0  0  0
 18 19  1  0  0  0  0
 19 20  2  0  0  0  0
 19  3  1  0  0  0  0
 20 24  1  0  0  0  0
 21 25  1  0  0  0  0
 21 20  1  0  0  0  0
 22 21  2  0  0  0  0
 23 22  1  0  0  0  0
 23 18  2  0  0  0  0
 26 22  1  0  0  0  0
 27 33  1  1  0  0  0
 27 28  1  0  0  0  0
 28 23  1  1  0  0  0
 29 28  1  0  0  0  0
 30 29  1  0  0  0  0
 31 35  1  1  0  0  0
 31 32  1  0  0  0  0
 31 30  1  0  0  0  0
 32 37  1  6  0  0  0
 32 27  1  0  0  0  0
 34 33  1  0  0  0  0
 35 36  1  0  0  0  0
 38 37  1  0  0  0  0
 39 44  1  0  0  0  0
 39  1  1  0  0  0  0
 40 39  2  0  0  0  0
 41 42  2  0  0  0  0
 41 40  1  0  0  0  0
 42 43  1  0  0  0  0
 43 47  1  0  0  0  0
 43 44  2  0  0  0  0
 45 40  1  0  0  0  0
 46 41  1  0  0  0  0
M  END
>  <minimizedAffinity>
-7.781353

>  <minimizedRMSD>
1.74980521

$$$$
