
     RDKit          3D

 55 58  0  0  0  0  0  0  0  0999 V2000
   35.3365   30.3916   49.9690 C   0  0  2  0  0  0  0  0  0  0  0  0
   36.2535   31.3781   49.4170 C   0  0  0  0  0  0  0  0  0  0  0  0
   37.7393   30.8992   49.4464 C   0  0  2  0  0  0  0  0  0  0  0  0
   38.2178   30.5719   50.7682 C   0  0  0  0  0  0  0  0  0  0  0  0
   37.1735   29.8744   51.6447 C   0  0  0  0  0  0  0  0  0  0  0  0
   36.0565   29.3240   50.8073 C   0  0  0  0  0  0  0  0  0  0  0  0
   38.5740   30.6209   46.6296 Cl  0  0  0  0  0  0  0  0  0  0  0  0
   38.9568   32.0303   47.5845 C   0  0  0  0  0  0  0  0  0  0  0  0
   38.4769   32.0650   48.8693 C   0  0  0  0  0  0  0  0  0  0  0  0
   38.7946   33.2331   49.5449 C   0  0  0  0  0  0  0  0  0  0  0  0
   39.5242   34.2630   48.9843 C   0  0  0  0  0  0  0  0  0  0  0  0
   39.9773   34.1464   47.6682 C   0  0  0  0  0  0  0  0  0  0  0  0
   39.6801   32.9879   46.9487 C   0  0  0  0  0  0  0  0  0  0  0  0
   40.1413   32.8731   45.6144 N   0  0  0  0  0  0  0  0  0  0  0  0
   34.4975   29.6739   49.0140 C   0  0  0  0  0  0  0  0  0  0  0  0
   34.5155   30.1979   47.7300 C   0  0  0  0  0  0  0  0  0  0  0  0
   33.7735   29.5713   46.7364 C   0  0  0  0  0  0  0  0  0  0  0  0
   33.0382   28.4336   47.0845 N   0  0  0  0  0  0  0  0  0  0  0  0
   33.0436   27.9545   48.3396 C   0  0  0  0  0  0  0  0  0  0  0  0
   33.7763   28.5948   49.2631 N   0  0  0  0  0  0  0  0  0  0  0  0
   34.6368   30.8550   50.7285 H   0  0  0  0  0  0  0  0  0  0  0  0
   36.3065   32.2557   50.1508 H   0  0  0  0  0  0  0  0  0  0  0  0
   36.1401   31.8307   48.4605 H   0  0  0  0  0  0  0  0  0  0  0  0
   37.8235   30.0677   48.7281 H   0  0  0  0  0  0  0  0  0  0  0  0
   38.5122   31.4734   51.3390 H   0  0  0  0  0  0  0  0  0  0  0  0
   39.1422   29.9660   50.6849 H   0  0  0  0  0  0  0  0  0  0  0  0
   36.8184   30.4992   52.4672 H   0  0  0  0  0  0  0  0  0  0  0  0
   37.6785   28.9943   52.0911 H   0  0  0  0  0  0  0  0  0  0  0  0
   36.4485   28.5755   50.1062 H   0  0  0  0  0  0  0  0  0  0  0  0
   35.3252   28.8448   51.4650 H   0  0  0  0  0  0  0  0  0  0  0  0
   38.4458   33.3347   50.5646 H   0  0  0  0  0  0  0  0  0  0  0  0
   39.7160   35.1271   49.5969 H   0  0  0  0  0  0  0  0  0  0  0  0
   40.5452   34.9405   47.2238 H   0  0  0  0  0  0  0  0  0  0  0  0
   39.4631   33.4590   45.1166 H   0  0  0  0  0  0  0  0  0  0  0  0
   40.9399   32.3551   45.1864 H   0  0  0  0  0  0  0  0  0  0  0  0
   34.9698   31.0261   47.2051 H   0  0  0  0  0  0  0  0  0  0  0  0
   33.6259   29.7716   45.7009 H   0  0  0  0  0  0  0  0  0  0  0  0
   32.2056   26.0276   46.4921 O   0  0  0  0  0  0  0  0  0  0  0  0
   31.3770   26.3646   47.5719 C   0  0  2  0  0  0  0  0  0  0  0  0
   32.2651   26.7516   48.7069 C   0  0  2  0  0  0  0  0  0  0  0  0
   31.5729   26.9313   49.9014 O   0  0  0  0  0  0  0  0  0  0  0  0
   30.2298   26.6330   49.7936 C   0  0  0  0  0  0  0  0  0  0  0  0
   29.9518   25.2539   49.2381 C   0  0  1  0  0  0  0  0  0  0  0  0
   28.5792   25.1035   49.1853 O   0  0  0  0  0  0  0  0  0  0  0  0
   30.5144   25.1807   47.8518 C   0  0  2  0  0  0  0  0  0  0  0  0
   31.2219   23.9881   47.6743 O   0  0  0  0  0  0  0  0  0  0  0  0
   31.9930   26.5683   45.6787 H   0  0  0  0  0  0  0  0  0  0  0  0
   30.7978   27.2638   47.2574 H   0  0  0  0  0  0  0  0  0  0  0  0
   33.0117   25.9284   48.8460 H   0  0  0  0  0  0  0  0  0  0  0  0
   29.6808   27.3928   49.1910 H   0  0  0  0  0  0  0  0  0  0  0  0
   29.8060   26.6612   50.8184 H   0  0  0  0  0  0  0  0  0  0  0  0
   30.4488   24.4985   49.8808 H   0  0  0  0  0  0  0  0  0  0  0  0
   28.3405   24.6697   48.3305 H   0  0  0  0  0  0  0  0  0  0  0  0
   29.7035   25.1702   47.0858 H   0  0  0  0  0  0  0  0  0  0  0  0
   32.1001   24.1843   47.2623 H   0  0  0  0  0  0  0  0  0  0  0  0
  1  6  1  0
  2  3  1  0
  2  1  1  0
  3  4  1  0
  4  5  1  0
  6  5  1  0
  7  8  1  0
  8  9  2  0
  9  3  1  0
  9 10  1  0
 11 10  2  0
 12 11  1  0
 13  8  1  0
 13 12  2  0
 14 13  1  0
 15 20  1  0
 15  1  1  0
 16 15  2  0
 17 18  2  0
 17 16  1  0
 18 19  1  0
 19 20  2  0
  1 21  1  1
  2 22  1  0
  2 23  1  0
  3 24  1  6
  4 25  1  0
  4 26  1  0
  5 27  1  0
  5 28  1  0
  6 29  1  0
  6 30  1  0
 10 31  1  0
 11 32  1  0
 12 33  1  0
 14 34  1  0
 14 35  1  0
 16 36  1  0
 17 37  1  0
 38 39  1  0
 39 40  1  0
 40 41  1  0
 41 42  1  0
 42 43  1  0
 43 44  1  0
 43 45  1  0
 45 46  1  0
 45 39  1  0
 38 47  1  0
 39 48  1  6
 40 49  1  1
 42 50  1  0
 42 51  1  0
 43 52  1  1
 44 53  1  0
 45 54  1  6
 46 55  1  0
 19 40  1  0
M  ISO  8  21  13  22  13  23  13  24  13  25  13  26  13  27  13  28  13
M  ISO  7  29  13  30  13  31  14  32  14  33  14  36  14  37  14
M  END
>  <DihAtoms>  (1) 
17,18,39,38

>  <DihDeg>  (1) 
170.96098319844037

$$$$
