
 OpenBabel03272509053D

 36 38  0  0  1  0  0  0  0  0999 V2000
   37.3220   30.8580   50.8010 C   0  0  0  0  0  0  0  0  0  0  0  0
   38.2910   31.1390   49.7900 C   0  0  0  0  0  0  0  0  0  0  0  0
   37.9510   30.8750   48.4460 C   0  0  0  0  0  0  0  0  0  0  0  0
   36.7130   30.3650   48.1880 N   0  0  0  0  0  0  0  0  0  0  0  0
   35.8410   30.1190   49.1850 C   0  0  0  0  0  0  0  0  0  0  0  0
   36.1260   30.3570   50.4770 N   0  0  0  0  0  0  0  0  0  0  0  0
   37.6610   31.0870   51.8010 H   0  0  0  0  0  0  0  0  0  0  0  0
   39.2730   31.5460   50.0090 H   0  0  0  0  0  0  0  0  0  0  0  0
   38.6880   32.5490   46.8760 C   0  0  2  0  0  3  0  0  0  0  0  0
   38.9270   31.1540   47.3600 C   0  0  2  0  0  3  0  0  0  0  0  0
   38.7120   30.1900   46.3850 O   0  0  0  0  0  0  0  0  0  0  0  0
   39.3190   30.4190   45.1840 C   0  0  0  0  0  2  0  0  0  0  0  0
   40.1280   31.6810   45.1020 C   0  0  2  0  0  3  0  0  0  0  0  0
   39.1880   32.8140   45.4760 C   0  0  2  0  0  3  0  0  0  0  0  0
   39.3400   33.4360   47.7340 O   0  0  0  0  0  0  0  0  0  0  0  0
   38.6830   34.0460   48.1250 H   0  0  0  0  0  0  0  0  0  0  0  0
   40.5080   31.8390   43.7640 O   0  0  0  0  0  0  0  0  0  0  0  0
   39.7130   31.8060   43.1880 H   0  0  0  0  0  0  0  0  0  0  0  0
   39.8040   34.0370   45.3280 O   0  0  0  0  0  0  0  0  0  0  0  0
   40.5590   34.1400   45.9470 H   0  0  0  0  0  0  0  0  0  0  0  0
   34.5580   29.5650   48.7780 C   0  0  0  0  0  3  0  0  0  0  0  0
   34.5240   28.7870   47.7460 C   0  0  0  0  0  3  0  0  0  0  0  0
   33.3660   28.0990   47.1520 C   0  0  0  0  0  0  0  0  0  0  0  0
   32.6260   27.9150   47.9820 H   0  0  0  0  0  0  0  0  0  0  0  0
   32.8260   28.7130   46.4090 H   0  0  0  0  0  0  0  0  0  0  0  0
   33.6860   26.7410   46.6140 C   0  0  0  0  0  0  0  0  0  0  0  0
   33.7380   25.5740   47.3440 C   0  0  0  0  0  0  0  0  0  0  0  0
   34.0480   24.3840   46.7050 C   0  0  0  0  0  0  0  0  0  0  0  0
   34.3090   24.3280   45.3420 C   0  0  0  0  0  0  0  0  0  0  0  0
   34.2590   25.4890   44.6090 C   0  0  0  0  0  0  0  0  0  0  0  0
   33.9490   26.6890   45.2420 C   0  0  0  0  0  0  0  0  0  0  0  0
   33.5270   25.6660   48.4010 H   0  0  0  0  0  0  0  0  0  0  0  0
   34.0570   23.5410   47.3830 H   0  0  0  0  0  0  0  0  0  0  0  0
   34.5380   23.3410   44.9640 H   0  0  0  0  0  0  0  0  0  0  0  0
   34.4680   25.4120   43.5510 H   0  0  0  0  0  0  0  0  0  0  0  0
   33.9310   27.5530   44.5890 H   0  0  0  0  0  0  0  0  0  0  0  0
  1  7  1  0  0  0  0
  2  8  1  0  0  0  0
  2  1  2  0  0  0  0
  3  2  1  0  0  0  0
  4  3  2  0  0  0  0
  4  5  1  0  0  0  0
  5  6  2  0  0  0  0
  6  1  1  0  0  0  0
  9 10  1  0  0  0  0
  9 15  1  1  0  0  0
 10  3  1  1  0  0  0
 11 10  1  0  0  0  0
 12 11  1  0  0  0  0
 13 17  1  6  0  0  0
 13 12  1  0  0  0  0
 13 14  1  0  0  0  0
 14 19  1  1  0  0  0
 14  9  1  0  0  0  0
 15 16  1  0  0  0  0
 18 17  1  0  0  0  0
 19 20  1  0  0  0  0
 21  5  1  0  0  0  0
 22 21  2  0  0  0  0
 23 22  1  0  0  0  0
 23 24  1  0  0  0  0
 25 23  1  0  0  0  0
 26 23  1  0  0  0  0
 26 27  1  0  0  0  0
 27 32  1  0  0  0  0
 28 27  2  0  0  0  0
 28 33  1  0  0  0  0
 29 28  1  0  0  0  0
 30 31  1  0  0  0  0
 30 29  2  0  0  0  0
 31 26  2  0  0  0  0
 34 29  1  0  0  0  0
 35 30  1  0  0  0  0
 36 31  1  0  0  0  0
M  END
>  <minimizedAffinity>
-6.24672651

>  <minimizedRMSD>
1.23200858

$$$$
