
 OpenBabel03272503373D

 22 23  0  0  1  0  0  0  0  0999 V2000
   36.9910   31.0720   46.4130 C   0  0  1  0  0  0  0  0  0  0  0  0
   37.9450   30.5710   47.4670 C   0  0  1  0  0  0  0  0  0  0  0  0
   38.8320   31.5980   47.7390 O   0  0  0  0  0  0  0  0  0  0  0  0
   39.6670   31.9250   46.7010 C   0  0  0  0  0  0  0  0  0  0  0  0
   39.2240   31.5100   45.3430 C   0  0  2  0  0  0  0  0  0  0  0  0
   37.7410   31.4040   45.1740 C   0  0  2  0  0  0  0  0  0  0  0  0
   37.1410   29.7780   51.0730 C   0  0  0  0  0  0  0  0  0  0  0  0
   37.8960   30.1240   49.9530 C   0  0  0  0  0  0  0  0  0  0  0  0
   37.2500   30.2110   48.7300 C   0  0  0  0  0  0  0  0  0  0  0  0
   35.9190   29.9570   48.6740 N   0  0  0  0  0  0  0  0  0  0  0  0
   35.1960   29.6180   49.7860 C   0  0  0  0  0  0  0  0  0  0  0  0
   35.8190   29.5370   50.9560 N   0  0  0  0  0  0  0  0  0  0  0  0
   38.9510   30.3400   49.9140 H   0  0  0  0  0  0  0  0  0  0  0  0
   34.1460   29.4160   49.7540 H   0  0  0  0  0  0  0  0  0  0  0  0
   37.9180   29.7290   52.2310 O   0  0  0  0  0  0  0  0  0  0  0  0
   37.4150   29.3500   53.0500 H   0  0  0  0  0  0  0  0  0  0  0  0
   36.0540   30.0400   46.2200 O   0  0  0  0  0  0  0  0  0  0  0  0
   36.2110   29.5920   45.3320 H   0  0  0  0  0  0  0  0  0  0  0  0
   39.8010   30.2740   45.0390 O   0  0  0  0  0  0  0  0  0  0  0  0
   39.3200   29.9420   44.2140 H   0  0  0  0  0  0  0  0  0  0  0  0
   37.1960   32.5770   44.6080 O   0  0  0  0  0  0  0  0  0  0  0  0
   37.4550   32.5730   43.6330 H   0  0  0  0  0  0  0  0  0  0  0  0
  1 17  1  6  0  0  0
  1  2  1  0  0  0  0
  2  3  1  0  0  0  0
  2  9  1  1  0  0  0
  4  3  1  0  0  0  0
  5 19  1  1  0  0  0
  5  4  1  0  0  0  0
  6 21  1  1  0  0  0
  6  5  1  0  0  0  0
  6  1  1  0  0  0  0
  7 15  1  0  0  0  0
  8  7  2  0  0  0  0
  9  8  1  0  0  0  0
 10  9  2  0  0  0  0
 10 11  1  0  0  0  0
 11 12  2  0  0  0  0
 12  7  1  0  0  0  0
 13  8  1  0  0  0  0
 14 11  1  0  0  0  0
 15 16  1  0  0  0  0
 18 17  1  0  0  0  0
 20 19  1  0  0  0  0
 22 21  1  0  0  0  0
M  END
>  <minimizedAffinity>
-5.73819733

>  <minimizedRMSD>
2.4385972

$$$$
