
     RDKit          3D

 28 29  0  0  0  0  0  0  0  0999 V2000
   37.2978   29.9913   51.1813 C   0  0  0  0  0  0  0  0  0  0  0  0
   37.9591   30.9216   50.3523 C   0  0  0  0  0  0  0  0  0  0  0  0
   37.2738   31.3882   49.2320 C   0  0  0  0  0  0  0  0  0  0  0  0
   36.0156   30.9284   48.9965 N   0  0  0  0  0  0  0  0  0  0  0  0
   35.4095   30.0298   49.8198 C   0  0  0  0  0  0  0  0  0  0  0  0
   36.0573   29.5760   50.8966 N   0  0  0  0  0  0  0  0  0  0  0  0
   38.0810   29.6086   52.2535 O   0  0  0  0  0  0  0  0  0  0  0  0
   38.9439   31.3122   50.4941 H   0  0  0  0  0  0  0  0  0  0  0  0
   37.7067   32.1026   48.5434 H   0  0  0  0  0  0  0  0  0  0  0  0
   38.9162   29.0663   52.0011 H   0  0  0  0  0  0  0  0  0  0  0  0
   32.3539   30.4615   47.9906 O   0  0  0  0  0  0  0  0  0  0  0  0
   33.6414   30.0000   48.1064 C   0  0  1  0  0  0  0  0  0  0  0  0
   34.0308   29.5714   49.4990 C   0  0  1  0  0  0  0  0  0  0  0  0
   33.9871   28.1882   49.6575 O   0  0  0  0  0  0  0  0  0  0  0  0
   32.8512   27.7186   48.9612 C   0  0  0  0  0  0  0  0  0  0  0  0
   33.3324   27.5688   47.5242 C   0  0  1  0  0  0  0  0  0  0  0  0
   32.4053   26.9960   46.6911 O   0  0  0  0  0  0  0  0  0  0  0  0
   33.8499   28.9038   47.0892 C   0  0  2  0  0  0  0  0  0  0  0  0
   35.2429   28.8343   46.8730 O   0  0  0  0  0  0  0  0  0  0  0  0
   32.1849   31.3073   48.4783 H   0  0  0  0  0  0  0  0  0  0  0  0
   34.3156   30.8387   47.8214 H   0  0  0  0  0  0  0  0  0  0  0  0
   33.3167   30.0074   50.2216 H   0  0  0  0  0  0  0  0  0  0  0  0
   31.9945   28.4011   49.0355 H   0  0  0  0  0  0  0  0  0  0  0  0
   32.5463   26.6991   49.3120 H   0  0  0  0  0  0  0  0  0  0  0  0
   34.1941   26.8424   47.5975 H   0  0  0  0  0  0  0  0  0  0  0  0
   32.0504   27.6044   45.9965 H   0  0  0  0  0  0  0  0  0  0  0  0
   33.3825   29.2367   46.1399 H   0  0  0  0  0  0  0  0  0  0  0  0
   35.5155   29.2957   46.0570 H   0  0  0  0  0  0  0  0  0  0  0  0
  1  7  1  0
  2  1  2  0
  3  2  1  0
  4  3  2  0
  4  5  1  0
  5  6  2  0
  6  1  1  0
  2  8  1  0
  3  9  1  0
  7 10  1  0
 11 12  1  0
 12 13  1  0
 13 14  1  0
 14 15  1  0
 15 16  1  0
 16 17  1  0
 16 18  1  0
 18 19  1  0
 18 12  1  0
 11 20  1  0
 12 21  1  6
 13 22  1  1
 15 23  1  0
 15 24  1  0
 16 25  1  1
 17 26  1  0
 18 27  1  6
 19 28  1  0
  5 13  1  0
M  ISO  3   8  14   9  14  10   3
M  END
>  <DihAtoms>  (1) 
3,4,12,11

>  <DihDeg>  (1) 
-78.24753155161936

$$$$
