
 OpenBabel03272507343D

 39 42  0  0  1  0  0  0  0  0999 V2000
   33.2190   27.4960   48.1640 C   0  0  0  0  0  0  0  0  0  0  0  0
   31.9870   27.3920   48.4800 O   0  0  0  0  0  0  0  0  0  0  0  0
   35.8980   29.1920   49.8190 C   0  0  0  0  0  0  0  0  0  0  0  0
   34.8540   29.6340   50.6050 C   0  0  0  0  0  0  0  0  0  0  0  0
   33.6770   29.0600   50.0980 C   0  0  0  0  0  0  0  0  0  0  0  0
   34.0870   28.3000   49.0260 C   0  0  0  0  0  0  0  0  0  0  0  0
   35.3930   28.4060   48.9000 O   0  0  0  0  0  0  0  0  0  0  0  0
   34.8870   30.3010   51.4660 H   0  0  0  0  0  0  0  0  0  0  0  0
   32.6760   29.1670   50.4370 H   0  0  0  0  0  0  0  0  0  0  0  0
   37.2730   29.5940   50.0640 C   0  0  0  0  0  0  0  0  0  0  0  0
   37.9090   29.0510   50.9800 O   0  0  0  0  0  0  0  0  0  0  0  0
   37.8160   30.6140   49.2120 C   0  0  0  0  0  0  0  0  0  0  0  0
   38.1620   31.8170   49.8100 C   0  0  0  0  0  0  0  0  0  0  0  0
   38.6920   32.8330   49.0060 C   0  0  0  0  0  0  0  0  0  0  0  0
   38.8390   32.5800   47.6640 N   0  0  0  0  0  0  0  0  0  0  0  0
   38.4950   31.4120   47.1230 C   0  0  0  0  0  0  0  0  0  0  0  0
   37.9860   30.4280   47.8840 N   0  0  0  0  0  0  0  0  0  0  0  0
   38.0420   31.9980   50.8540 H   0  0  0  0  0  0  0  0  0  0  0  0
   38.9780   33.7940   49.4310 H   0  0  0  0  0  0  0  0  0  0  0  0
   38.6220   31.2430   46.0680 H   0  0  0  0  0  0  0  0  0  0  0  0
   33.7720   26.8120   46.9510 C   0  0  1  0  0  0  0  0  0  0  0  0
   33.8230   25.2530   47.1930 C   0  0  0  0  0  0  0  0  0  0  0  0
   32.9480   25.8830   46.1710 C   0  0  2  0  0  0  0  0  0  0  0  0
   34.8240   27.1300   46.6910 H   0  0  0  0  0  0  0  0  0  0  0  0
   33.4500   24.8760   48.1370 H   0  0  0  0  0  0  0  0  0  0  0  0
   34.6860   24.7160   46.7890 H   0  0  0  0  0  0  0  0  0  0  0  0
   31.8600   25.9010   46.4370 H   0  0  0  0  0  0  0  0  0  0  0  0
   33.2390   26.9370   43.9960 C   0  0  1  0  0  3  0  0  0  0  0  0
   33.2840   25.6550   44.7020 C   0  0  1  0  0  3  0  0  0  0  0  0
   34.4050   24.9030   44.6390 O   0  0  0  0  0  0  0  0  0  0  0  0
   35.2930   25.0750   43.6400 C   0  0  0  0  0  2  0  0  0  0  0  0
   34.8270   25.8460   42.4430 C   0  0  2  0  0  3  0  0  0  0  0  0
   34.3210   27.1730   42.9810 C   0  0  2  0  0  3  0  0  0  0  0  0
   32.0160   27.1170   43.3390 O   0  0  0  0  0  0  0  0  0  0  0  0
   31.9950   28.0570   43.0060 H   0  0  0  0  0  0  0  0  0  0  0  0
   33.8270   25.1580   41.7650 O   0  0  0  0  0  0  0  0  0  0  0  0
   34.1200   25.1040   40.8260 H   0  0  0  0  0  0  0  0  0  0  0  0
   35.4190   27.7930   43.6040 O   0  0  0  0  0  0  0  0  0  0  0  0
   36.1820   27.8200   42.9660 H   0  0  0  0  0  0  0  0  0  0  0  0
  1  2  2  0  0  0  0
  1  6  1  0  0  0  0
  3 10  1  0  0  0  0
  3  4  2  0  0  0  0
  4  8  1  0  0  0  0
  5  9  1  0  0  0  0
  5  4  1  0  0  0  0
  6  5  2  0  0  0  0
  7  6  1  0  0  0  0
  7  3  1  0  0  0  0
 10 11  2  0  0  0  0
 12 13  1  0  0  0  0
 12 10  1  0  0  0  0
 13 18  1  0  0  0  0
 14 19  1  0  0  0  0
 14 13  2  0  0  0  0
 15 14  1  0  0  0  0
 16 15  2  0  0  0  0
 16 17  1  0  0  0  0
 17 12  2  0  0  0  0
 20 16  1  0  0  0  0
 21 24  1  6  0  0  0
 21 22  1  0  0  0  0
 21  1  1  0  0  0  0
 22 25  1  0  0  0  0
 23 27  1  1  0  0  0
 23 21  1  0  0  0  0
 23 22  1  0  0  0  0
 26 22  1  0  0  0  0
 28 34  1  6  0  0  0
 28 29  1  0  0  0  0
 29 30  1  1  0  0  0
 29 23  1  0  0  0  0
 31 30  1  0  0  0  0
 32 36  1  1  0  0  0
 32 33  1  0  0  0  0
 32 31  1  0  0  0  0
 33 38  1  1  0  0  0
 33 28  1  0  0  0  0
 35 34  1  0  0  0  0
 37 36  1  0  0  0  0
 39 38  1  0  0  0  0
M  END
>  <minimizedAffinity>
-5.04164124

>  <minimizedRMSD>
1.62690306

$$$$
