
 OpenBabel03272507513D

 31 33  0  0  1  0  0  0  0  0999 V2000
   36.0890   30.4100   46.4120 C   0  0  0  0  0  0  0  0  0  0  0  0
   36.7660   30.7410   45.2090 C   0  0  0  0  0  0  0  0  0  0  0  0
   36.0600   30.6420   44.0080 C   0  0  0  0  0  0  0  0  0  0  0  0
   34.7660   30.2390   44.0330 N   0  0  0  0  0  0  0  0  0  0  0  0
   34.1400   29.9300   45.1910 C   0  0  0  0  0  0  0  0  0  0  0  0
   34.7940   30.0130   46.3850 N   0  0  0  0  0  0  0  0  0  0  0  0
   36.5910   30.8980   43.0970 H   0  0  0  0  0  0  0  0  0  0  0  0
   33.0980   29.6110   45.1590 H   0  0  0  0  0  0  0  0  0  0  0  0
   38.1150   31.1560   45.2910 N   0  0  0  0  0  0  0  0  0  0  0  0
   38.4580   32.3960   45.6520 C   0  0  0  0  0  0  0  0  0  0  0  0
   39.7810   32.7920   45.7340 C   0  0  0  0  0  0  0  0  0  0  0  0
   40.6770   31.7760   45.4060 C   0  0  0  0  0  0  0  0  0  0  0  0
   41.9060   32.0970   45.4690 O   0  0  0  0  0  0  0  0  0  0  0  0
   40.3780   30.5180   45.0390 N   0  0  0  0  0  0  0  0  0  0  0  0
   39.0590   30.2390   44.9920 C   0  0  0  0  0  0  0  0  0  0  0  0
   38.7590   29.0540   44.6450 O   0  0  0  0  0  0  0  0  0  0  0  0
   37.6960   33.1140   45.8790 H   0  0  0  0  0  0  0  0  0  0  0  0
   40.1290   33.7680   46.0160 H   0  0  0  0  0  0  0  0  0  0  0  0
   41.1220   29.8470   44.8170 H   0  0  0  0  0  0  0  0  0  0  0  0
   35.8770   29.7670   48.8340 C   0  0  2  0  0  3  0  0  0  0  0  0
   36.6720   30.4470   47.7630 C   0  0  2  0  0  3  0  0  0  0  0  0
   36.9500   31.7250   48.2360 O   0  0  0  0  0  0  0  0  0  0  0  0
   37.5390   31.6460   49.4610 C   0  0  0  0  0  2  0  0  0  0  0  0
   37.9800   30.2970   49.9310 C   0  0  2  0  0  3  0  0  0  0  0  0
   36.8860   29.2570   49.8840 C   0  0  1  0  0  3  0  0  0  0  0  0
   35.1310   28.7500   48.2950 O   0  0  0  0  0  0  0  0  0  0  0  0
   34.5250   28.4100   49.0090 H   0  0  0  0  0  0  0  0  0  0  0  0
   38.3490   30.4340   51.2740 O   0  0  0  0  0  0  0  0  0  0  0  0
   38.9740   31.2030   51.4100 H   0  0  0  0  0  0  0  0  0  0  0  0
   36.2470   29.0810   51.1120 O   0  0  0  0  0  0  0  0  0  0  0  0
   36.6530   29.6600   51.7810 H   0  0  0  0  0  0  0  0  0  0  0  0
  2  9  1  0  0  0  0
  2  1  2  0  0  0  0
  3  4  2  0  0  0  0
  3  2  1  0  0  0  0
  4  5  1  0  0  0  0
  5  6  2  0  0  0  0
  6  1  1  0  0  0  0
  7  3  1  0  0  0  0
  8  5  1  0  0  0  0
  9 10  1  0  0  0  0
 10 11  2  0  0  0  0
 10 17  1  0  0  0  0
 11 18  1  0  0  0  0
 12 13  2  0  0  0  0
 12 11  1  0  0  0  0
 14 12  1  0  0  0  0
 15 14  1  0  0  0  0
 15  9  1  0  0  0  0
 16 15  2  0  0  0  0
 19 14  1  0  0  0  0
 20 26  1  6  0  0  0
 20 25  1  0  0  0  0
 21  1  1  6  0  0  0
 21 22  1  0  0  0  0
 21 20  1  0  0  0  0
 22 23  1  0  0  0  0
 23 24  1  0  0  0  0
 24 28  1  1  0  0  0
 25 24  1  0  0  0  0
 25 30  1  1  0  0  0
 26 27  1  0  0  0  0
 28 29  1  0  0  0  0
 30 31  1  0  0  0  0
M  END
>  <minimizedAffinity>
-5.87588072

>  <minimizedRMSD>
3.57483315

$$$$
