
     RDKit          3D

 31 32  0  0  0  0  0  0  0  0999 V2000
   36.9215   30.4301   48.9739 C   0  0  0  0  0  0  0  0  0  0  0  0
   38.1305   30.8256   48.3935 C   0  0  0  0  0  0  0  0  0  0  0  0
   38.1967   30.9972   47.0062 C   0  0  0  0  0  0  0  0  0  0  0  0
   37.0597   30.7639   46.2979 N   0  0  0  0  0  0  0  0  0  0  0  0
   35.9139   30.3830   46.9034 C   0  0  0  0  0  0  0  0  0  0  0  0
   35.8436   30.2163   48.2361 N   0  0  0  0  0  0  0  0  0  0  0  0
   37.0382   30.2624   50.7589 S   0  0  0  0  0  0  0  0  0  0  0  0
   35.6649   29.2105   51.2651 C   0  0  0  0  0  0  0  0  0  0  0  0
   39.0673   31.0230   48.9334 H   0  0  0  0  0  0  0  0  0  0  0  0
   39.1193   31.3008   46.5494 H   0  0  0  0  0  0  0  0  0  0  0  0
   35.0609   30.2203   46.2639 H   0  0  0  0  0  0  0  0  0  0  0  0
   35.7285   28.9064   52.3437 H   0  0  0  0  0  0  0  0  0  0  0  0
   35.7200   28.2573   50.7018 H   0  0  0  0  0  0  0  0  0  0  0  0
   33.5379   27.6772   51.2059 O   0  0  0  0  0  0  0  0  0  0  0  0
   33.4474   28.8120   50.4010 C   0  0  2  0  0  0  0  0  0  0  0  0
   34.3103   29.8809   51.0347 C   0  0  1  0  0  0  0  0  0  0  0  0
   33.8031   30.1748   52.2765 O   0  0  0  0  0  0  0  0  0  0  0  0
   32.5196   30.6573   52.2732 C   0  0  0  0  0  0  0  0  0  0  0  0
   31.5174   29.7835   51.5714 C   0  0  1  0  0  0  0  0  0  0  0  0
   30.4011   30.5865   51.3329 O   0  0  0  0  0  0  0  0  0  0  0  0
   32.0007   29.2327   50.2701 C   0  0  2  0  0  0  0  0  0  0  0  0
   31.2744   28.0782   49.9217 O   0  0  0  0  0  0  0  0  0  0  0  0
   32.9485   26.9448   50.8872 H   0  0  0  0  0  0  0  0  0  0  0  0
   33.8907   28.5578   49.4160 H   0  0  0  0  0  0  0  0  0  0  0  0
   34.3949   30.7831   50.4344 H   0  0  0  0  0  0  0  0  0  0  0  0
   32.5065   31.6648   51.7983 H   0  0  0  0  0  0  0  0  0  0  0  0
   32.2070   30.7383   53.3408 H   0  0  0  0  0  0  0  0  0  0  0  0
   31.2642   28.9419   52.2811 H   0  0  0  0  0  0  0  0  0  0  0  0
   30.3660   30.8773   50.3731 H   0  0  0  0  0  0  0  0  0  0  0  0
   31.8945   30.0182   49.5025 H   0  0  0  0  0  0  0  0  0  0  0  0
   31.3346   27.8791   48.9475 H   0  0  0  0  0  0  0  0  0  0  0  0
  1  7  1  0
  2  1  2  0
  3  2  1  0
  4  5  1  0
  4  3  2  0
  5  6  2  0
  6  1  1  0
  7  8  1  0
  2  9  1  0
  3 10  1  0
  5 11  1  0
  8 12  1  0
  8 13  1  0
 14 15  1  0
 15 16  1  0
 16 17  1  0
 17 18  1  0
 18 19  1  0
 19 20  1  0
 19 21  1  0
 21 22  1  0
 21 15  1  0
 14 23  1  0
 15 24  1  6
 16 25  1  6
 18 26  1  0
 18 27  1  0
 19 28  1  1
 20 29  1  0
 21 30  1  6
 22 31  1  0
  8 16  1  0
M  ISO  5   9  14  10  14  11  14  12   8  13   8
M  END
>  <DihAtoms>  (1) 
6,7,15,14

>  <DihDeg>  (1) 
179.9222906144749

$$$$
