REMARK  Name = 
REMARK  5 active torsions:
REMARK  status: ('A' for Active; 'I' for Inactive)
REMARK    1  A    between atoms: C_2  and  C_8
REMARK    2  A    between atoms: C_3  and  C_17
REMARK    3  A    between atoms: O_15  and  C_16
REMARK    4  A    between atoms: C_20  and  O_21
REMARK    5  A    between atoms: C_22  and  O_23
REMARK                            x       y       z     vdW  Elec       q    Type
REMARK                         _______ _______ _______ _____ _____    ______ ____
ROOT
ATOM      1  C   UNL     1      35.618  29.013  50.170  0.00  0.00    +0.000 A 
ATOM      2  C   UNL     1      36.283  30.155  49.649  0.00  0.00    +0.000 A 
ATOM      3  C   UNL     1      36.035  30.520  48.334  0.00  0.00    +0.000 A 
ATOM      4  N   UNL     1      35.161  29.753  47.615  0.00  0.00    +0.000 NA
ATOM      5  C   UNL     1      34.544  28.666  48.150  0.00  0.00    +0.000 A 
ATOM      6  N   UNL     1      34.767  28.292  49.420  0.00  0.00    +0.000 NA
ATOM      7  N   UNL     1      33.706  28.016  47.221  0.00  0.00    +0.000 N 
ATOM      8  H   UNL     1      35.826  28.748  51.199  0.00  0.00    +0.000 HD
ATOM      9  H   UNL     1      34.229  27.102  47.074  0.00  0.00    +0.000 HD
ATOM     10  H   UNL     1      32.833  28.360  46.814  0.00  0.00    +0.000 HD
ENDROOT
BRANCH   3  12
ATOM     11  C   UNL     1      36.383  31.960  46.311  0.00  0.00    +0.000 C 
ATOM     12  C   UNL     1      36.706  31.709  47.747  0.00  0.00    +0.000 C 
ATOM     13  O   UNL     1      38.079  31.440  47.803  0.00  0.00    +0.000 OA
ATOM     14  C   UNL     1      38.832  32.560  47.511  0.00  0.00    +0.000 C 
ATOM     15  C   UNL     1      38.753  32.760  46.022  0.00  0.00    +0.000 C 
ATOM     16  C   UNL     1      37.632  31.907  45.415  0.00  0.00    +0.000 C 
BRANCH  11  17
ATOM     17  O   UNL     1      35.555  30.952  45.778  0.00  0.00    +0.000 OA
ATOM     18  H   UNL     1      35.199  31.287  44.904  0.00  0.00    +0.000 HD
ENDBRANCH  11  17
BRANCH  15  19
ATOM     19  O   UNL     1      38.518  34.099  45.731  0.00  0.00    +0.000 OA
ATOM     20  H   UNL     1      39.085  34.670  46.303  0.00  0.00    +0.000 HD
ENDBRANCH  15  19
BRANCH  16  21
ATOM     21  O   UNL     1      38.099  30.603  45.398  0.00  0.00    +0.000 OA
ATOM     22  H   UNL     1      38.752  30.445  44.686  0.00  0.00    +0.000 HD
ENDBRANCH  16  21
ENDBRANCH   3  12
BRANCH   2  23
ATOM     23  C   UNL     1      37.216  30.906  50.525  0.00  0.00    +0.000 C 
ATOM     24  F   UNL     1      38.537  30.781  50.114  0.00  0.00    +0.000 F 
ATOM     25  F   UNL     1      36.863  32.222  50.510  0.00  0.00    +0.000 F 
ATOM     26  F   UNL     1      37.184  30.470  51.838  0.00  0.00    +0.000 F 
ENDBRANCH   2  23
TORSDOF 5
