
 OpenBabel03272500083D

 42 45  0  0  1  0  0  0  0  0999 V2000
   31.1560   27.1480   48.3390 C   0  0  0  0  0  0  0  0  0  0  0  0
   30.9600   27.8240   49.5210 C   0  0  0  0  0  0  0  0  0  0  0  0
   29.7000   28.2300   49.9100 C   0  0  0  0  0  0  0  0  0  0  0  0
   28.6130   27.9400   49.0740 C   0  0  0  0  0  0  0  0  0  0  0  0
   28.8220   27.2560   47.8800 C   0  0  0  0  0  0  0  0  0  0  0  0
   30.0820   26.8730   47.5340 C   0  0  0  0  0  0  0  0  0  0  0  0
   31.7650   28.0700   50.1980 H   0  0  0  0  0  0  0  0  0  0  0  0
   29.5550   28.7640   50.8480 H   0  0  0  0  0  0  0  0  0  0  0  0
   27.6580   28.2900   49.4440 H   0  0  0  0  0  0  0  0  0  0  0  0
   27.9470   27.0670   47.2860 H   0  0  0  0  0  0  0  0  0  0  0  0
   30.2420   27.0810   45.0990 C   0  0  1  0  0  3  0  0  0  0  0  0
   30.2750   26.1400   46.2810 C   0  0  1  0  0  3  0  0  0  0  0  0
   31.4730   25.4350   46.3590 O   0  0  0  0  0  0  0  0  0  0  0  0
   32.0310   25.1790   45.1110 C   0  0  0  0  0  2  0  0  0  0  0  0
   32.6230   26.4710   44.6060 C   0  0  1  0  0  3  0  0  0  0  0  0
   31.5790   27.5610   44.6470 C   0  0  1  0  0  3  0  0  0  0  0  0
   29.5270   26.5560   44.0360 O   0  0  0  0  0  0  0  0  0  0  0  0
   28.7800   25.9970   44.3840 H   0  0  0  0  0  0  0  0  0  0  0  0
   33.6890   26.8900   45.4020 O   0  0  0  0  0  0  0  0  0  0  0  0
   33.9720   27.7730   45.0040 H   0  0  0  0  0  0  0  0  0  0  0  0
   31.4250   28.0330   43.3330 O   0  0  0  0  0  0  0  0  0  0  0  0
   30.4920   27.9760   43.0140 H   0  0  0  0  0  0  0  0  0  0  0  0
   32.4780   26.8060   48.0810 O   0  0  0  0  0  0  0  0  0  0  0  0
   35.3560   28.6760   49.1630 C   0  0  0  0  0  0  0  0  0  0  0  0
   35.2450   29.8830   48.4290 C   0  0  0  0  0  0  0  0  0  0  0  0
   34.1620   30.0170   47.5700 C   0  0  0  0  0  0  0  0  0  0  0  0
   33.2760   28.9870   47.4830 N   0  0  0  0  0  0  0  0  0  0  0  0
   33.4030   27.8600   48.1840 C   0  0  0  0  0  0  0  0  0  0  0  0
   34.4540   27.6860   49.0420 N   0  0  0  0  0  0  0  0  0  0  0  0
   36.2050   28.5650   49.8400 H   0  0  0  0  0  0  0  0  0  0  0  0
   34.0680   30.9340   47.0070 H   0  0  0  0  0  0  0  0  0  0  0  0
   36.2440   30.8700   48.6180 N   0  0  0  0  0  0  0  0  0  0  0  0
   36.3790   31.5420   49.7570 C   0  0  0  0  0  0  0  0  0  0  0  0
   37.3850   32.4930   49.8660 C   0  0  0  0  0  0  0  0  0  0  0  0
   38.1670   32.6620   48.7680 C   0  0  0  0  0  0  0  0  0  0  0  0
   39.0930   33.5300   48.8520 O   0  0  0  0  0  0  0  0  0  0  0  0
   38.0650   32.0160   47.6230 N   0  0  0  0  0  0  0  0  0  0  0  0
   37.0700   31.0860   47.5380 C   0  0  0  0  0  0  0  0  0  0  0  0
   36.9530   30.4510   46.4420 O   0  0  0  0  0  0  0  0  0  0  0  0
   35.6920   31.3180   50.5670 H   0  0  0  0  0  0  0  0  0  0  0  0
   37.4770   33.0280   50.8020 H   0  0  0  0  0  0  0  0  0  0  0  0
   38.7040   32.2010   46.8230 H   0  0  0  0  0  0  0  0  0  0  0  0
  1  2  1  0  0  0  0
  2  3  2  0  0  0  0
  2  7  1  0  0  0  0
  3  8  1  0  0  0  0
  4  9  1  0  0  0  0
  4  3  1  0  0  0  0
  5  4  2  0  0  0  0
  6  5  1  0  0  0  0
  6  1  2  0  0  0  0
 10  5  1  0  0  0  0
 11 17  1  6  0  0  0
 11 12  1  0  0  0  0
 12 13  1  0  0  0  0
 12  6  1  1  0  0  0
 14 13  1  0  0  0  0
 15 16  1  0  0  0  0
 15 14  1  0  0  0  0
 15 19  1  1  0  0  0
 16 21  1  6  0  0  0
 16 11  1  0  0  0  0
 17 18  1  0  0  0  0
 20 19  1  0  0  0  0
 22 21  1  0  0  0  0
 23 28  1  0  0  0  0
 23  1  1  0  0  0  0
 24 30  1  0  0  0  0
 25 32  1  0  0  0  0
 25 24  2  0  0  0  0
 26 25  1  0  0  0  0
 27 26  2  0  0  0  0
 27 28  1  0  0  0  0
 28 29  2  0  0  0  0
 29 24  1  0  0  0  0
 31 26  1  0  0  0  0
 32 33  1  0  0  0  0
 33 34  2  0  0  0  0
 33 40  1  0  0  0  0
 34 41  1  0  0  0  0
 35 36  2  0  0  0  0
 35 34  1  0  0  0  0
 37 35  1  0  0  0  0
 38 37  1  0  0  0  0
 38 32  1  0  0  0  0
 39 38  2  0  0  0  0
 42 37  1  0  0  0  0
M  END
>  <minimizedAffinity>
-5.85543633

>  <minimizedRMSD>
1.209584

$$$$
