
     RDKit          3D

 32 33  0  0  0  0  0  0  0  0999 V2000
   35.6177   29.0130   50.1699 C   0  0  0  0  0  0  0  0  0  0  0  0
   36.2827   30.1552   49.6488 C   0  0  0  0  0  0  0  0  0  0  0  0
   36.0347   30.5195   48.3340 C   0  0  0  0  0  0  0  0  0  0  0  0
   35.1606   29.7528   47.6146 N   0  0  0  0  0  0  0  0  0  0  0  0
   34.5444   28.6656   48.1497 C   0  0  0  0  0  0  0  0  0  0  0  0
   34.7665   28.2920   49.4198 N   0  0  0  0  0  0  0  0  0  0  0  0
   33.7059   28.0162   47.2206 N   0  0  0  0  0  0  0  0  0  0  0  0
   37.2164   30.9058   50.5245 C   0  0  0  0  0  0  0  0  0  0  0  0
   38.5369   30.7808   50.1142 F   0  0  0  0  0  0  0  0  0  0  0  0
   36.8627   32.2224   50.5103 F   0  0  0  0  0  0  0  0  0  0  0  0
   37.1845   30.4696   51.8376 F   0  0  0  0  0  0  0  0  0  0  0  0
   35.8264   28.7479   51.1988 H   0  0  0  0  0  0  0  0  0  0  0  0
   34.2288   27.1022   47.0740 H   0  0  0  0  0  0  0  0  0  0  0  0
   32.8326   28.3598   46.8144 H   0  0  0  0  0  0  0  0  0  0  0  0
   37.1707   30.1415   45.9855 O   0  0  0  0  0  0  0  0  0  0  0  0
   37.3021   31.4830   46.3965 C   0  0  1  0  0  0  0  0  0  0  0  0
   36.7062   31.7087   47.7467 C   0  0  2  0  0  0  0  0  0  0  0  0
   37.7713   32.0095   48.6045 O   0  0  0  0  0  0  0  0  0  0  0  0
   38.3345   33.2360   48.3101 C   0  0  0  0  0  0  0  0  0  0  0  0
   39.1588   33.0467   47.0662 C   0  0  2  0  0  0  0  0  0  0  0  0
   38.9266   34.0874   46.1749 O   0  0  0  0  0  0  0  0  0  0  0  0
   38.8222   31.7137   46.3848 C   0  0  1  0  0  0  0  0  0  0  0  0
   39.4174   30.7232   47.1485 O   0  0  0  0  0  0  0  0  0  0  0  0
   37.3803   30.1065   45.0063 H   0  0  0  0  0  0  0  0  0  0  0  0
   36.9487   32.2009   45.6082 H   0  0  0  0  0  0  0  0  0  0  0  0
   36.0800   32.6211   47.8060 H   0  0  0  0  0  0  0  0  0  0  0  0
   38.9626   33.5084   49.1898 H   0  0  0  0  0  0  0  0  0  0  0  0
   37.5577   34.0233   48.2274 H   0  0  0  0  0  0  0  0  0  0  0  0
   40.2120   32.9728   47.3583 H   0  0  0  0  0  0  0  0  0  0  0  0
   38.9090   34.9469   46.6611 H   0  0  0  0  0  0  0  0  0  0  0  0
   39.1966   31.8094   45.3631 H   0  0  0  0  0  0  0  0  0  0  0  0
   40.3856   30.6724   47.0139 H   0  0  0  0  0  0  0  0  0  0  0  0
  2  1  2  0
  2  8  1  0
  3  2  1  0
  4  5  1  0
  4  3  2  0
  5  6  2  0
  6  1  1  0
  7  5  1  0
  8 11  1  0
  9  8  1  0
 10  8  1  0
  1 12  1  0
  7 13  1  0
  7 14  1  0
 15 16  1  0
 16 17  1  0
 17 18  1  0
 18 19  1  0
 19 20  1  0
 20 21  1  0
 20 22  1  0
 22 23  1  0
 22 16  1  0
 15 24  1  0
 16 25  1  6
 17 26  1  6
 19 27  1  0
 19 28  1  0
 20 29  1  1
 21 30  1  0
 22 31  1  6
 23 32  1  0
  3 17  1  0
M  ISO  1  12  14
M  END
>  <DihAtoms>  (1) 
1,2,16,15

>  <DihDeg>  (1) 
-91.90979488336156

$$$$
