
 OpenBabel03262520523D

 51 55  0  0  1  0  0  0  0  0999 V2000
   38.0390   25.9140   35.0390 C   0  0  0  0  0  0  0  0  0  0  0  0
   37.2920   26.7620   34.2270 C   0  0  0  0  0  0  0  0  0  0  0  0
   36.8430   26.3200   32.9870 C   0  0  0  0  0  0  0  0  0  0  0  0
   37.1240   25.0520   32.5430 C   0  0  0  0  0  0  0  0  0  0  0  0
   36.8130   24.4050   31.4170 N   0  0  0  0  0  0  0  0  0  0  0  0
   37.3510   23.1700   31.5090 C   0  0  0  0  0  0  0  0  0  0  0  0
   38.0230   22.9800   32.6940 C   0  0  0  0  0  0  0  0  0  0  0  0
   37.8690   24.2000   33.3480 C   0  0  0  0  0  0  0  0  0  0  0  0
   38.3140   24.6390   34.5800 C   0  0  0  0  0  0  0  0  0  0  0  0
   38.4340   26.1410   36.0080 H   0  0  0  0  0  0  0  0  0  0  0  0
   36.2670   26.9790   32.3630 H   0  0  0  0  0  0  0  0  0  0  0  0
   36.2600   24.7460   30.5900 H   0  0  0  0  0  0  0  0  0  0  0  0
   37.2790   22.3890   30.7530 H   0  0  0  0  0  0  0  0  0  0  0  0
   38.5470   22.1040   33.0420 H   0  0  0  0  0  0  0  0  0  0  0  0
   38.3620   23.1450   36.5840 C   0  0  2  0  0  3  0  0  0  0  0  0
   39.1090   23.6810   35.3990 C   0  0  2  0  0  3  0  0  0  0  0  0
   40.3110   24.2880   35.7690 O   0  0  0  0  0  0  0  0  0  0  0  0
   41.2200   23.3060   36.2190 C   0  0  0  0  0  2  0  0  0  0  0  0
   40.6180   22.4550   37.3240 C   0  0  1  0  0  3  0  0  0  0  0  0
   39.3390   23.1580   37.7610 C   0  0  2  0  0  3  0  0  0  0  0  0
   37.8000   21.8990   36.3900 O   0  0  0  0  0  0  0  0  0  0  0  0
   38.2950   21.3010   35.7850 H   0  0  0  0  0  0  0  0  0  0  0  0
   40.3820   21.1560   36.8830 O   0  0  0  0  0  0  0  0  0  0  0  0
   40.3030   20.5240   37.6190 H   0  0  0  0  0  0  0  0  0  0  0  0
   38.7990   22.6500   38.9160 O   0  0  0  0  0  0  0  0  0  0  0  0
   39.2580   23.0940   39.6970 H   0  0  0  0  0  0  0  0  0  0  0  0
   36.9970   28.1420   34.7330 C   0  0  0  0  0  0  0  0  0  0  0  0
   37.8820   28.8060   34.6490 H   0  0  0  0  0  0  0  0  0  0  0  0
   36.6350   28.0770   35.7940 H   0  0  0  0  0  0  0  0  0  0  0  0
   35.8730   28.7160   33.8920 C   0  0  0  0  0  0  0  0  0  0  0  0
   35.0840   27.9160   33.7720 H   0  0  0  0  0  0  0  0  0  0  0  0
   36.3350   28.9890   32.9030 H   0  0  0  0  0  0  0  0  0  0  0  0
   33.7980   30.1360   34.1420 C   0  0  1  0  0  0  0  0  0  0  0  0
   34.8720   31.1190   33.7420 C   0  0  0  0  0  0  0  0  0  0  0  0
   35.2090   29.8960   34.4960 C   0  0  2  0  0  0  0  0  0  0  0  0
   33.3270   29.5270   33.3180 H   0  0  0  0  0  0  0  0  0  0  0  0
   35.1220   31.1240   32.6430 H   0  0  0  0  0  0  0  0  0  0  0  0
   34.9270   32.1130   34.1950 H   0  0  0  0  0  0  0  0  0  0  0  0
   35.4430   30.0980   35.5830 H   0  0  0  0  0  0  0  0  0  0  0  0
   32.8110   30.6480   35.1430 C   0  0  0  0  0  0  0  0  0  0  0  0
   32.1150   31.4000   34.7550 H   0  0  0  0  0  0  0  0  0  0  0  0
   33.3820   31.1380   35.9640 H   0  0  0  0  0  0  0  0  0  0  0  0
   30.6610   27.5890   35.4460 C   0  0  0  0  0  0  0  0  0  0  0  0
   31.4170   28.6650   34.8930 C   0  0  0  0  0  0  0  0  0  0  0  0
   32.0340   29.5410   35.7470 C   0  0  0  0  0  0  0  0  0  0  0  0
   31.8910   29.3370   37.0630 N   0  0  0  0  0  0  0  0  0  0  0  0
   31.1820   28.3280   37.5840 C   0  0  0  0  0  0  0  0  0  0  0  0
   30.5760   27.4670   36.7620 N   0  0  0  0  0  0  0  0  0  0  0  0
   30.1690   26.8900   34.7970 H   0  0  0  0  0  0  0  0  0  0  0  0
   31.4520   28.7160   33.8140 H   0  0  0  0  0  0  0  0  0  0  0  0
   31.2090   28.3640   38.6770 H   0  0  0  0  0  0  0  0  0  0  0  0
  1 10  1  0  0  0  0
  2 27  1  0  0  0  0
  2  1  2  0  0  0  0
  3  2  1  0  0  0  0
  4  3  2  0  0  0  0
  4  8  1  0  0  0  0
  5  6  1  0  0  0  0
  5  4  1  0  0  0  0
  6  7  2  0  0  0  0
  7 14  1  0  0  0  0
  7  8  1  0  0  0  0
  8  9  2  0  0  0  0
  9  1  1  0  0  0  0
 11  3  1  0  0  0  0
 12  5  1  0  0  0  0
 13  6  1  0  0  0  0
 15 21  1  6  0  0  0
 15 20  1  0  0  0  0
 16  9  1  1  0  0  0
 16 17  1  0  0  0  0
 16 15  1  0  0  0  0
 17 18  1  0  0  0  0
 18 19  1  0  0  0  0
 19 23  1  6  0  0  0
 19 20  1  0  0  0  0
 20 25  1  1  0  0  0
 22 21  1  0  0  0  0
 23 24  1  0  0  0  0
 25 26  1  0  0  0  0
 27 29  1  0  0  0  0
 28 27  1  0  0  0  0
 30 35  1  0  0  0  0
 30 27  1  0  0  0  0
 31 30  1  0  0  0  0
 32 30  1  0  0  0  0
 33 36  1  6  0  0  0
 33 35  1  0  0  0  0
 33 40  1  0  0  0  0
 34 33  1  0  0  0  0
 34 38  1  0  0  0  0
 34 35  1  0  0  0  0
 35 39  1  1  0  0  0
 37 34  1  0  0  0  0
 40 45  1  0  0  0  0
 40 42  1  0  0  0  0
 41 40  1  0  0  0  0
 43 48  1  0  0  0  0
 44 43  2  0  0  0  0
 44 45  1  0  0  0  0
 45 46  2  0  0  0  0
 46 47  1  0  0  0  0
 47 51  1  0  0  0  0
 48 47  2  0  0  0  0
 49 43  1  0  0  0  0
 50 44  1  0  0  0  0
M  END
>  <minimizedAffinity>
-6.94127369

$$$$

 OpenBabel03262520523D

 51 55  0  0  1  0  0  0  0  0999 V2000
   36.7970   28.5550   35.2250 C   0  0  0  0  0  0  0  0  0  0  0  0
   37.6280   27.5030   34.8530 C   0  0  0  0  0  0  0  0  0  0  0  0
   37.7780   27.1760   33.5090 C   0  0  0  0  0  0  0  0  0  0  0  0
   37.1160   27.8780   32.5320 C   0  0  0  0  0  0  0  0  0  0  0  0
   37.0950   27.7620   31.2020 N   0  0  0  0  0  0  0  0  0  0  0  0
   36.2670   28.7220   30.7350 C   0  0  0  0  0  0  0  0  0  0  0  0
   35.7300   29.4850   31.7450 C   0  0  0  0  0  0  0  0  0  0  0  0
   36.2860   28.9290   32.8950 C   0  0  0  0  0  0  0  0  0  0  0  0
   36.1370   29.2540   34.2300 C   0  0  0  0  0  0  0  0  0  0  0  0
   36.6060   28.8980   36.2210 H   0  0  0  0  0  0  0  0  0  0  0  0
   38.4200   26.3630   33.2280 H   0  0  0  0  0  0  0  0  0  0  0  0
   37.6050   27.0750   30.5900 H   0  0  0  0  0  0  0  0  0  0  0  0
   36.0310   28.9000   29.6870 H   0  0  0  0  0  0  0  0  0  0  0  0
   35.0440   30.3140   31.6750 H   0  0  0  0  0  0  0  0  0  0  0  0
   35.7500   31.2680   35.6620 C   0  0  2  0  0  3  0  0  0  0  0  0
   35.2320   30.3910   34.5600 C   0  0  2  0  0  3  0  0  0  0  0  0
   33.9590   29.8920   34.8420 O   0  0  0  0  0  0  0  0  0  0  0  0
   33.0160   30.9410   34.7960 C   0  0  0  0  0  2  0  0  0  0  0  0
   33.4190   32.0920   35.7030 C   0  0  1  0  0  3  0  0  0  0  0  0
   34.5600   31.5770   36.5720 C   0  0  2  0  0  3  0  0  0  0  0  0
   36.3850   32.4140   35.2300 O   0  0  0  0  0  0  0  0  0  0  0  0
   36.0420   32.7980   34.3910 H   0  0  0  0  0  0  0  0  0  0  0  0
   33.7860   33.2100   34.9590 O   0  0  0  0  0  0  0  0  0  0  0  0
   33.7420   34.0310   35.4810 H   0  0  0  0  0  0  0  0  0  0  0  0
   34.8800   32.4120   37.6120 O   0  0  0  0  0  0  0  0  0  0  0  0
   34.2600   32.2050   38.3810 H   0  0  0  0  0  0  0  0  0  0  0  0
   38.3400   26.7520   35.9370 C   0  0  0  0  0  0  0  0  0  0  0  0
   38.0470   27.1110   36.9450 H   0  0  0  0  0  0  0  0  0  0  0  0
   39.4490   26.8390   35.7800 H   0  0  0  0  0  0  0  0  0  0  0  0
   37.9660   25.2870   35.8130 C   0  0  0  0  0  0  0  0  0  0  0  0
   38.5950   24.8350   34.9900 H   0  0  0  0  0  0  0  0  0  0  0  0
   36.8720   25.2680   35.5510 H   0  0  0  0  0  0  0  0  0  0  0  0
   38.9310   23.2130   36.8850 C   0  0  1  0  0  0  0  0  0  0  0  0
   37.5000   23.2450   37.3660 C   0  0  0  0  0  0  0  0  0  0  0  0
   38.2170   24.4930   37.0390 C   0  0  2  0  0  0  0  0  0  0  0  0
   39.1140   22.8080   35.8490 H   0  0  0  0  0  0  0  0  0  0  0  0
   36.7410   22.8840   36.6160 H   0  0  0  0  0  0  0  0  0  0  0  0
   37.2420   22.9770   38.3940 H   0  0  0  0  0  0  0  0  0  0  0  0
   38.5280   25.0760   37.9560 H   0  0  0  0  0  0  0  0  0  0  0  0
   39.9280   22.7400   37.8950 C   0  0  0  0  0  0  0  0  0  0  0  0
   39.5640   21.9510   38.5630 H   0  0  0  0  0  0  0  0  0  0  0  0
   40.1940   23.6060   38.5420 H   0  0  0  0  0  0  0  0  0  0  0  0
   42.9780   22.7140   35.7110 C   0  0  0  0  0  0  0  0  0  0  0  0
   41.7760   23.1310   36.3540 C   0  0  0  0  0  0  0  0  0  0  0  0
   41.1760   22.2780   37.2430 C   0  0  0  0  0  0  0  0  0  0  0  0
   41.7570   21.0910   37.4590 N   0  0  0  0  0  0  0  0  0  0  0  0
   42.8850   20.6970   36.8570 C   0  0  0  0  0  0  0  0  0  0  0  0
   43.4790   21.5190   35.9880 N   0  0  0  0  0  0  0  0  0  0  0  0
   43.4650   23.3650   35.0100 H   0  0  0  0  0  0  0  0  0  0  0  0
   41.4120   24.1150   36.0900 H   0  0  0  0  0  0  0  0  0  0  0  0
   43.1680   19.6940   37.1890 H   0  0  0  0  0  0  0  0  0  0  0  0
  1 10  1  0  0  0  0
  2  1  1  0  0  0  0
  2 27  1  0  0  0  0
  3  2  2  0  0  0  0
  4  8  2  0  0  0  0
  4  3  1  0  0  0  0
  5  4  1  0  0  0  0
  6  5  1  0  0  0  0
  6  7  2  0  0  0  0
  7  8  1  0  0  0  0
  8  9  1  0  0  0  0
  9  1  2  0  0  0  0
 11  3  1  0  0  0  0
 12  5  1  0  0  0  0
 13  6  1  0  0  0  0
 14  7  1  0  0  0  0
 15 21  1  6  0  0  0
 15 20  1  0  0  0  0
 16  9  1  1  0  0  0
 16 17  1  0  0  0  0
 16 15  1  0  0  0  0
 18 17  1  0  0  0  0
 18 19  1  0  0  0  0
 19 23  1  6  0  0  0
 19 20  1  0  0  0  0
 20 25  1  1  0  0  0
 22 21  1  0  0  0  0
 23 24  1  0  0  0  0
 25 26  1  0  0  0  0
 27 28  1  0  0  0  0
 29 27  1  0  0  0  0
 30 27  1  0  0  0  0
 30 35  1  0  0  0  0
 31 30  1  0  0  0  0
 32 30  1  0  0  0  0
 33 36  1  6  0  0  0
 33 35  1  0  0  0  0
 33 34  1  0  0  0  0
 33 40  1  0  0  0  0
 34 38  1  0  0  0  0
 35 34  1  0  0  0  0
 35 39  1  1  0  0  0
 37 34  1  0  0  0  0
 40 42  1  0  0  0  0
 40 41  1  0  0  0  0
 43 48  2  0  0  0  0
 43 44  1  0  0  0  0
 44 45  2  0  0  0  0
 45 46  1  0  0  0  0
 45 40  1  0  0  0  0
 47 51  1  0  0  0  0
 47 46  2  0  0  0  0
 48 47  1  0  0  0  0
 49 43  1  0  0  0  0
 50 44  1  0  0  0  0
M  END
>  <minimizedAffinity>
-6.91024303

$$$$

 OpenBabel03262520523D

 51 55  0  0  1  0  0  0  0  0999 V2000
   37.9430   25.7420   34.7830 C   0  0  0  0  0  0  0  0  0  0  0  0
   37.1830   26.5070   33.9030 C   0  0  0  0  0  0  0  0  0  0  0  0
   36.7710   25.9670   32.6890 C   0  0  0  0  0  0  0  0  0  0  0  0
   37.1000   24.6810   32.3380 C   0  0  0  0  0  0  0  0  0  0  0  0
   36.8310   23.9500   31.2540 N   0  0  0  0  0  0  0  0  0  0  0  0
   37.4070   22.7420   31.4390 C   0  0  0  0  0  0  0  0  0  0  0  0
   38.0640   22.6560   32.6440 C   0  0  0  0  0  0  0  0  0  0  0  0
   37.8580   23.9120   33.2100 C   0  0  0  0  0  0  0  0  0  0  0  0
   38.2670   24.4490   34.4160 C   0  0  0  0  0  0  0  0  0  0  0  0
   38.3130   26.0470   35.7400 H   0  0  0  0  0  0  0  0  0  0  0  0
   36.1850   26.5620   32.0130 H   0  0  0  0  0  0  0  0  0  0  0  0
   36.2810   24.2150   30.3970 H   0  0  0  0  0  0  0  0  0  0  0  0
   37.3740   21.9100   30.7370 H   0  0  0  0  0  0  0  0  0  0  0  0
   38.6100   21.8240   33.0590 H   0  0  0  0  0  0  0  0  0  0  0  0
   38.3140   23.0580   36.4940 C   0  0  2  0  0  3  0  0  0  0  0  0
   39.0780   23.5760   35.3110 C   0  0  2  0  0  3  0  0  0  0  0  0
   40.2320   24.2640   35.6940 O   0  0  0  0  0  0  0  0  0  0  0  0
   41.1730   23.3560   36.2250 C   0  0  0  0  0  2  0  0  0  0  0  0
   40.5730   22.5280   37.3500 C   0  0  1  0  0  3  0  0  0  0  0  0
   39.2430   23.1810   37.7040 C   0  0  2  0  0  3  0  0  0  0  0  0
   37.8260   21.7760   36.3430 O   0  0  0  0  0  0  0  0  0  0  0  0
   38.3750   21.1770   35.7870 H   0  0  0  0  0  0  0  0  0  0  0  0
   40.4220   21.1980   36.9660 O   0  0  0  0  0  0  0  0  0  0  0  0
   40.3470   20.6000   37.7300 H   0  0  0  0  0  0  0  0  0  0  0  0
   38.6850   22.7020   38.8620 O   0  0  0  0  0  0  0  0  0  0  0  0
   39.0900   23.2080   39.6360 H   0  0  0  0  0  0  0  0  0  0  0  0
   36.8350   27.9070   34.3080 C   0  0  0  0  0  0  0  0  0  0  0  0
   37.7270   28.4670   34.6560 H   0  0  0  0  0  0  0  0  0  0  0  0
   36.0390   27.8760   35.1010 H   0  0  0  0  0  0  0  0  0  0  0  0
   36.2570   28.6130   33.0970 C   0  0  0  0  0  0  0  0  0  0  0  0
   35.8250   27.8270   32.4080 H   0  0  0  0  0  0  0  0  0  0  0  0
   37.1180   29.1540   32.6140 H   0  0  0  0  0  0  0  0  0  0  0  0
   35.3090   30.3840   34.6300 C   0  0  1  0  0  0  0  0  0  0  0  0
   34.2020   29.3620   34.5170 C   0  0  0  0  0  0  0  0  0  0  0  0
   35.1630   29.5630   33.4150 C   0  0  2  0  0  0  0  0  0  0  0  0
   36.1460   30.1550   35.3510 H   0  0  0  0  0  0  0  0  0  0  0  0
   34.3420   28.4420   35.1520 H   0  0  0  0  0  0  0  0  0  0  0  0
   33.1560   29.6680   34.4360 H   0  0  0  0  0  0  0  0  0  0  0  0
   34.7200   30.1240   32.5400 H   0  0  0  0  0  0  0  0  0  0  0  0
   34.8530   31.8080   34.6780 C   0  0  0  0  0  0  0  0  0  0  0  0
   34.3850   32.1070   35.6220 H   0  0  0  0  0  0  0  0  0  0  0  0
   34.0840   31.9460   33.8840 H   0  0  0  0  0  0  0  0  0  0  0  0
   37.7600   34.1240   35.1830 C   0  0  0  0  0  0  0  0  0  0  0  0
   36.6830   33.2260   35.4400 C   0  0  0  0  0  0  0  0  0  0  0  0
   35.9660   32.7390   34.3790 C   0  0  0  0  0  0  0  0  0  0  0  0
   36.3210   33.1370   33.1500 N   0  0  0  0  0  0  0  0  0  0  0  0
   37.3310   33.9800   32.9060 C   0  0  0  0  0  0  0  0  0  0  0  0
   38.0370   34.4620   33.9320 N   0  0  0  0  0  0  0  0  0  0  0  0
   38.3350   34.5190   35.9990 H   0  0  0  0  0  0  0  0  0  0  0  0
   36.5010   32.9860   36.4790 H   0  0  0  0  0  0  0  0  0  0  0  0
   37.4320   34.1580   31.8320 H   0  0  0  0  0  0  0  0  0  0  0  0
  1 10  1  0  0  0  0
  2 27  1  0  0  0  0
  2  1  2  0  0  0  0
  3  2  1  0  0  0  0
  4  3  2  0  0  0  0
  4  8  1  0  0  0  0
  5  6  1  0  0  0  0
  5  4  1  0  0  0  0
  6  7  2  0  0  0  0
  7 14  1  0  0  0  0
  7  8  1  0  0  0  0
  8  9  2  0  0  0  0
  9  1  1  0  0  0  0
 11  3  1  0  0  0  0
 12  5  1  0  0  0  0
 13  6  1  0  0  0  0
 15 21  1  6  0  0  0
 15 20  1  0  0  0  0
 16  9  1  1  0  0  0
 16 17  1  0  0  0  0
 16 15  1  0  0  0  0
 17 18  1  0  0  0  0
 18 19  1  0  0  0  0
 19 23  1  6  0  0  0
 19 20  1  0  0  0  0
 20 25  1  1  0  0  0
 22 21  1  0  0  0  0
 23 24  1  0  0  0  0
 25 26  1  0  0  0  0
 27 28  1  0  0  0  0
 27 29  1  0  0  0  0
 30 35  1  0  0  0  0
 30 27  1  0  0  0  0
 31 30  1  0  0  0  0
 32 30  1  0  0  0  0
 33 40  1  0  0  0  0
 33 36  1  1  0  0  0
 34 33  1  0  0  0  0
 34 37  1  0  0  0  0
 35 39  1  6  0  0  0
 35 34  1  0  0  0  0
 35 33  1  0  0  0  0
 38 34  1  0  0  0  0
 40 41  1  0  0  0  0
 42 40  1  0  0  0  0
 43 44  1  0  0  0  0
 43 49  1  0  0  0  0
 44 50  1  0  0  0  0
 45 40  1  0  0  0  0
 45 44  2  0  0  0  0
 46 45  1  0  0  0  0
 47 46  2  0  0  0  0
 47 48  1  0  0  0  0
 48 43  2  0  0  0  0
 51 47  1  0  0  0  0
M  END
>  <minimizedAffinity>
-6.80871201

$$$$

 OpenBabel03262520523D

 51 55  0  0  1  0  0  0  0  0999 V2000
   37.4390   26.1490   34.4110 C   0  0  0  0  0  0  0  0  0  0  0  0
   37.4800   27.0180   33.3250 C   0  0  0  0  0  0  0  0  0  0  0  0
   38.7050   27.4610   32.8370 C   0  0  0  0  0  0  0  0  0  0  0  0
   39.8850   27.0550   33.4090 C   0  0  0  0  0  0  0  0  0  0  0  0
   41.1610   27.3330   33.1300 N   0  0  0  0  0  0  0  0  0  0  0  0
   41.9170   26.6550   34.0200 C   0  0  0  0  0  0  0  0  0  0  0  0
   41.1560   25.9200   34.8990 C   0  0  0  0  0  0  0  0  0  0  0  0
   39.8510   26.1890   34.4930 C   0  0  0  0  0  0  0  0  0  0  0  0
   38.6350   25.7480   34.9780 C   0  0  0  0  0  0  0  0  0  0  0  0
   36.5620   25.7410   34.8700 H   0  0  0  0  0  0  0  0  0  0  0  0
   38.7320   28.1320   31.9980 H   0  0  0  0  0  0  0  0  0  0  0  0
   41.5530   27.9520   32.3750 H   0  0  0  0  0  0  0  0  0  0  0  0
   43.0050   26.6650   34.0650 H   0  0  0  0  0  0  0  0  0  0  0  0
   41.4810   25.2870   35.7090 H   0  0  0  0  0  0  0  0  0  0  0  0
   38.2370   23.4200   35.8030 C   0  0  2  0  0  3  0  0  0  0  0  0
   38.6600   24.8190   36.1430 C   0  0  2  0  0  3  0  0  0  0  0  0
   37.8910   25.3620   37.1750 O   0  0  0  0  0  0  0  0  0  0  0  0
   38.1900   24.7050   38.3880 C   0  0  0  0  0  2  0  0  0  0  0  0
   38.0330   23.1990   38.2580 C   0  0  1  0  0  3  0  0  0  0  0  0
   37.3200   22.9530   36.9350 C   0  0  2  0  0  3  0  0  0  0  0  0
   39.2810   22.5440   35.5860 O   0  0  0  0  0  0  0  0  0  0  0  0
   40.0960   22.7190   36.1110 H   0  0  0  0  0  0  0  0  0  0  0  0
   39.2690   22.5610   38.3170 O   0  0  0  0  0  0  0  0  0  0  0  0
   39.1870   21.6200   38.5530 H   0  0  0  0  0  0  0  0  0  0  0  0
   36.8850   21.6610   36.7750 O   0  0  0  0  0  0  0  0  0  0  0  0
   35.9850   21.5770   37.2250 H   0  0  0  0  0  0  0  0  0  0  0  0
   36.1800   27.4470   32.7160 C   0  0  0  0  0  0  0  0  0  0  0  0
   35.3190   26.9170   33.1740 H   0  0  0  0  0  0  0  0  0  0  0  0
   36.2180   27.2780   31.6060 H   0  0  0  0  0  0  0  0  0  0  0  0
   36.0210   28.9360   32.9560 C   0  0  0  0  0  0  0  0  0  0  0  0
   35.2420   29.3240   32.2350 H   0  0  0  0  0  0  0  0  0  0  0  0
   37.0300   29.3910   32.7550 H   0  0  0  0  0  0  0  0  0  0  0  0
   34.8610   30.5670   34.4980 C   0  0  1  0  0  0  0  0  0  0  0  0
   36.1950   30.3180   35.1610 C   0  0  0  0  0  0  0  0  0  0  0  0
   35.5600   29.2820   34.3220 C   0  0  2  0  0  0  0  0  0  0  0  0
   34.8430   31.3040   33.6440 H   0  0  0  0  0  0  0  0  0  0  0  0
   37.0610   30.8790   34.7070 H   0  0  0  0  0  0  0  0  0  0  0  0
   36.2770   30.2150   36.2460 H   0  0  0  0  0  0  0  0  0  0  0  0
   35.1130   28.4380   34.9270 H   0  0  0  0  0  0  0  0  0  0  0  0
   33.7050   30.7140   35.4360 C   0  0  0  0  0  0  0  0  0  0  0  0
   33.2360   31.7040   35.4330 H   0  0  0  0  0  0  0  0  0  0  0  0
   34.0830   30.5430   36.4690 H   0  0  0  0  0  0  0  0  0  0  0  0
   31.2070   28.5990   33.6030 C   0  0  0  0  0  0  0  0  0  0  0  0
   32.2080   29.5750   33.8860 C   0  0  0  0  0  0  0  0  0  0  0  0
   32.6660   29.6910   35.1720 C   0  0  0  0  0  0  0  0  0  0  0  0
   32.1440   28.8760   36.0970 N   0  0  0  0  0  0  0  0  0  0  0  0
   31.2050   27.9590   35.8340 C   0  0  0  0  0  0  0  0  0  0  0  0
   30.7500   27.8360   34.5840 N   0  0  0  0  0  0  0  0  0  0  0  0
   30.8330   28.4900   32.6020 H   0  0  0  0  0  0  0  0  0  0  0  0
   32.5430   30.1700   33.0480 H   0  0  0  0  0  0  0  0  0  0  0  0
   30.9350   27.4140   36.7430 H   0  0  0  0  0  0  0  0  0  0  0  0
  1 10  1  0  0  0  0
  1  9  1  0  0  0  0
  2  1  2  0  0  0  0
  3  2  1  0  0  0  0
  3  4  2  0  0  0  0
  4  8  1  0  0  0  0
  5  4  1  0  0  0  0
  5  6  1  0  0  0  0
  6 13  1  0  0  0  0
  6  7  2  0  0  0  0
  7 14  1  0  0  0  0
  8  7  1  0  0  0  0
  8  9  2  0  0  0  0
 11  3  1  0  0  0  0
 12  5  1  0  0  0  0
 15 21  1  1  0  0  0
 15 16  1  0  0  0  0
 15 20  1  0  0  0  0
 16  9  1  6  0  0  0
 16 17  1  0  0  0  0
 17 18  1  0  0  0  0
 19 23  1  6  0  0  0
 19 18  1  0  0  0  0
 20 25  1  6  0  0  0
 20 19  1  0  0  0  0
 21 22  1  0  0  0  0
 23 24  1  0  0  0  0
 25 26  1  0  0  0  0
 27 30  1  0  0  0  0
 27 28  1  0  0  0  0
 27  2  1  0  0  0  0
 29 27  1  0  0  0  0
 30 35  1  0  0  0  0
 31 30  1  0  0  0  0
 32 30  1  0  0  0  0
 33 36  1  6  0  0  0
 33 34  1  0  0  0  0
 33 40  1  0  0  0  0
 34 38  1  0  0  0  0
 35 33  1  0  0  0  0
 35 39  1  1  0  0  0
 35 34  1  0  0  0  0
 37 34  1  0  0  0  0
 40 42  1  0  0  0  0
 41 40  1  0  0  0  0
 43 44  2  0  0  0  0
 43 48  1  0  0  0  0
 44 45  1  0  0  0  0
 45 40  1  0  0  0  0
 45 46  2  0  0  0  0
 47 46  1  0  0  0  0
 47 51  1  0  0  0  0
 48 47  2  0  0  0  0
 49 43  1  0  0  0  0
 50 44  1  0  0  0  0
M  END
>  <minimizedAffinity>
-6.66492081

$$$$

 OpenBabel03262520523D

 51 55  0  0  1  0  0  0  0  0999 V2000
   36.5510   28.4170   34.8070 C   0  0  0  0  0  0  0  0  0  0  0  0
   37.5660   27.4790   34.6420 C   0  0  0  0  0  0  0  0  0  0  0  0
   38.0070   27.1500   33.3640 C   0  0  0  0  0  0  0  0  0  0  0  0
   37.4570   27.7380   32.2520 C   0  0  0  0  0  0  0  0  0  0  0  0
   37.7010   27.5940   30.9470 N   0  0  0  0  0  0  0  0  0  0  0  0
   36.8600   28.4240   30.2930 C   0  0  0  0  0  0  0  0  0  0  0  0
   36.0480   29.1270   31.1530 C   0  0  0  0  0  0  0  0  0  0  0  0
   36.4440   28.6730   32.4090 C   0  0  0  0  0  0  0  0  0  0  0  0
   36.0070   29.0000   33.6780 C   0  0  0  0  0  0  0  0  0  0  0  0
   36.1340   28.7500   35.7350 H   0  0  0  0  0  0  0  0  0  0  0  0
   38.7900   26.4250   33.2410 H   0  0  0  0  0  0  0  0  0  0  0  0
   38.4020   26.9710   30.4700 H   0  0  0  0  0  0  0  0  0  0  0  0
   36.8040   28.5490   29.2130 H   0  0  0  0  0  0  0  0  0  0  0  0
   35.2860   29.8540   30.9210 H   0  0  0  0  0  0  0  0  0  0  0  0
   33.5720   29.4860   33.3770 C   0  0  2  0  0  3  0  0  0  0  0  0
   34.9170   30.0110   33.7850 C   0  0  2  0  0  3  0  0  0  0  0  0
   35.2770   31.1480   33.0580 O   0  0  0  0  0  0  0  0  0  0  0  0
   34.4560   32.2330   33.4340 C   0  0  0  0  0  2  0  0  0  0  0  0
   32.9820   31.8870   33.3050 C   0  0  1  0  0  3  0  0  0  0  0  0
   32.9140   30.5770   32.5290 C   0  0  2  0  0  3  0  0  0  0  0  0
   32.7690   29.0900   34.4270 O   0  0  0  0  0  0  0  0  0  0  0  0
   32.8880   29.5960   35.2640 H   0  0  0  0  0  0  0  0  0  0  0  0
   32.3800   31.7910   34.5560 O   0  0  0  0  0  0  0  0  0  0  0  0
   31.4120   31.8860   34.5080 H   0  0  0  0  0  0  0  0  0  0  0  0
   31.6480   30.2480   32.1160 O   0  0  0  0  0  0  0  0  0  0  0  0
   31.4710   30.7220   31.2430 H   0  0  0  0  0  0  0  0  0  0  0  0
   38.1520   26.8520   35.8700 C   0  0  0  0  0  0  0  0  0  0  0  0
   37.7230   27.2860   36.7960 H   0  0  0  0  0  0  0  0  0  0  0  0
   39.2700   26.9660   35.8470 H   0  0  0  0  0  0  0  0  0  0  0  0
   37.8340   25.3690   35.8330 C   0  0  0  0  0  0  0  0  0  0  0  0
   38.4340   24.9050   34.9950 H   0  0  0  0  0  0  0  0  0  0  0  0
   36.7290   25.2940   35.6380 H   0  0  0  0  0  0  0  0  0  0  0  0
   38.8000   23.3100   36.9340 C   0  0  1  0  0  0  0  0  0  0  0  0
   37.4450   23.4740   37.5820 C   0  0  0  0  0  0  0  0  0  0  0  0
   38.1900   24.6440   37.0770 C   0  0  2  0  0  0  0  0  0  0  0  0
   38.8260   22.8240   35.9170 H   0  0  0  0  0  0  0  0  0  0  0  0
   36.5770   23.1160   36.9580 H   0  0  0  0  0  0  0  0  0  0  0  0
   37.3040   23.2940   38.6500 H   0  0  0  0  0  0  0  0  0  0  0  0
   38.6490   25.2650   37.9030 H   0  0  0  0  0  0  0  0  0  0  0  0
   39.8860   22.8380   37.8480 C   0  0  0  0  0  0  0  0  0  0  0  0
   39.5530   22.1650   38.6460 H   0  0  0  0  0  0  0  0  0  0  0  0
   40.3220   23.7320   38.3490 H   0  0  0  0  0  0  0  0  0  0  0  0
   42.2470   21.9960   35.0570 C   0  0  0  0  0  0  0  0  0  0  0  0
   41.2030   22.6100   35.8100 C   0  0  0  0  0  0  0  0  0  0  0  0
   40.9780   22.1820   37.0920 C   0  0  0  0  0  0  0  0  0  0  0  0
   41.7580   21.2040   37.5690 N   0  0  0  0  0  0  0  0  0  0  0  0
   42.7390   20.6260   36.8660 C   0  0  0  0  0  0  0  0  0  0  0  0
   42.9670   21.0340   35.6150 N   0  0  0  0  0  0  0  0  0  0  0  0
   42.4410   22.3150   34.0510 H   0  0  0  0  0  0  0  0  0  0  0  0
   40.6470   23.3880   35.3050 H   0  0  0  0  0  0  0  0  0  0  0  0
   43.2370   19.8560   37.4610 H   0  0  0  0  0  0  0  0  0  0  0  0
  1 10  1  0  0  0  0
  2  1  1  0  0  0  0
  2 27  1  0  0  0  0
  3  2  2  0  0  0  0
  4  8  2  0  0  0  0
  4  3  1  0  0  0  0
  5  4  1  0  0  0  0
  6  5  1  0  0  0  0
  6  7  2  0  0  0  0
  7  8  1  0  0  0  0
  8  9  1  0  0  0  0
  9  1  2  0  0  0  0
 11  3  1  0  0  0  0
 12  5  1  0  0  0  0
 13  6  1  0  0  0  0
 14  7  1  0  0  0  0
 15 16  1  0  0  0  0
 15 21  1  1  0  0  0
 16  9  1  6  0  0  0
 17 18  1  0  0  0  0
 17 16  1  0  0  0  0
 19 18  1  0  0  0  0
 19 23  1  1  0  0  0
 20 25  1  1  0  0  0
 20 19  1  0  0  0  0
 20 15  1  0  0  0  0
 21 22  1  0  0  0  0
 24 23  1  0  0  0  0
 26 25  1  0  0  0  0
 27 28  1  0  0  0  0
 29 27  1  0  0  0  0
 30 27  1  0  0  0  0
 30 35  1  0  0  0  0
 31 30  1  0  0  0  0
 32 30  1  0  0  0  0
 33 36  1  6  0  0  0
 33 35  1  0  0  0  0
 33 34  1  0  0  0  0
 33 40  1  0  0  0  0
 34 38  1  0  0  0  0
 35 34  1  0  0  0  0
 35 39  1  1  0  0  0
 37 34  1  0  0  0  0
 40 42  1  0  0  0  0
 40 41  1  0  0  0  0
 43 48  2  0  0  0  0
 43 44  1  0  0  0  0
 44 45  2  0  0  0  0
 45 46  1  0  0  0  0
 45 40  1  0  0  0  0
 47 51  1  0  0  0  0
 47 46  2  0  0  0  0
 48 47  1  0  0  0  0
 49 43  1  0  0  0  0
 50 44  1  0  0  0  0
M  END
>  <minimizedAffinity>
-6.52877665

$$$$

 OpenBabel03262520523D

 51 55  0  0  1  0  0  0  0  0999 V2000
   38.5580   25.9610   34.2550 C   0  0  0  0  0  0  0  0  0  0  0  0
   39.0020   26.6460   33.1270 C   0  0  0  0  0  0  0  0  0  0  0  0
   40.3470   26.6080   32.7750 C   0  0  0  0  0  0  0  0  0  0  0  0
   41.2550   25.9010   33.5240 C   0  0  0  0  0  0  0  0  0  0  0  0
   42.5710   25.7130   33.3970 N   0  0  0  0  0  0  0  0  0  0  0  0
   42.9590   24.9250   34.4220 C   0  0  0  0  0  0  0  0  0  0  0  0
   41.9090   24.5790   35.2410 C   0  0  0  0  0  0  0  0  0  0  0  0
   40.8200   25.2160   34.6500 C   0  0  0  0  0  0  0  0  0  0  0  0
   39.4840   25.2530   34.9990 C   0  0  0  0  0  0  0  0  0  0  0  0
   37.5530   25.9150   34.6200 H   0  0  0  0  0  0  0  0  0  0  0  0
   40.6840   27.1380   31.9040 H   0  0  0  0  0  0  0  0  0  0  0  0
   43.2240   26.0850   32.6600 H   0  0  0  0  0  0  0  0  0  0  0  0
   43.9750   24.5820   34.6100 H   0  0  0  0  0  0  0  0  0  0  0  0
   41.9160   23.9670   36.1280 H   0  0  0  0  0  0  0  0  0  0  0  0
   38.5600   23.1210   35.9240 C   0  0  2  0  0  3  0  0  0  0  0  0
   39.0760   24.4990   36.2180 C   0  0  2  0  0  3  0  0  0  0  0  0
   38.1520   25.2610   36.9370 O   0  0  0  0  0  0  0  0  0  0  0  0
   38.0320   24.7510   38.2470 C   0  0  0  0  0  2  0  0  0  0  0  0
   37.7000   23.2680   38.2380 C   0  0  1  0  0  3  0  0  0  0  0  0
   37.3240   22.9190   36.8040 C   0  0  2  0  0  3  0  0  0  0  0  0
   39.4880   22.1140   36.0940 O   0  0  0  0  0  0  0  0  0  0  0  0
   40.1570   22.2700   36.8000 H   0  0  0  0  0  0  0  0  0  0  0  0
   38.7750   22.5130   38.7000 O   0  0  0  0  0  0  0  0  0  0  0  0
   38.5020   21.6280   39.0020 H   0  0  0  0  0  0  0  0  0  0  0  0
   36.7650   21.6730   36.6680 O   0  0  0  0  0  0  0  0  0  0  0  0
   35.7780   21.7520   36.8610 H   0  0  0  0  0  0  0  0  0  0  0  0
   37.9920   27.4090   32.3250 C   0  0  0  0  0  0  0  0  0  0  0  0
   37.6180   26.8150   31.4650 H   0  0  0  0  0  0  0  0  0  0  0  0
   38.4470   28.3780   31.9830 H   0  0  0  0  0  0  0  0  0  0  0  0
   36.8250   27.7380   33.2350 C   0  0  0  0  0  0  0  0  0  0  0  0
   37.2350   27.9330   34.2710 H   0  0  0  0  0  0  0  0  0  0  0  0
   36.1570   26.8320   33.2220 H   0  0  0  0  0  0  0  0  0  0  0  0
   35.5370   29.8050   33.9070 C   0  0  1  0  0  0  0  0  0  0  0  0
   34.6020   29.0760   32.9720 C   0  0  0  0  0  0  0  0  0  0  0  0
   36.0660   28.9460   32.8330 C   0  0  2  0  0  0  0  0  0  0  0  0
   35.5820   29.4420   34.9740 H   0  0  0  0  0  0  0  0  0  0  0  0
   34.0560   28.2040   33.4340 H   0  0  0  0  0  0  0  0  0  0  0  0
   33.9960   29.6170   32.2410 H   0  0  0  0  0  0  0  0  0  0  0  0
   36.4780   29.5240   31.9530 H   0  0  0  0  0  0  0  0  0  0  0  0
   35.5170   31.2960   33.7860 C   0  0  0  0  0  0  0  0  0  0  0  0
   34.9010   31.6810   32.9660 H   0  0  0  0  0  0  0  0  0  0  0  0
   36.5590   31.6350   33.5860 H   0  0  0  0  0  0  0  0  0  0  0  0
   35.1220   33.8440   36.5110 C   0  0  0  0  0  0  0  0  0  0  0  0
   35.5240   33.2060   35.3000 C   0  0  0  0  0  0  0  0  0  0  0  0
   35.0830   31.9320   35.0520 C   0  0  0  0  0  0  0  0  0  0  0  0
   34.2950   31.3550   35.9670 N   0  0  0  0  0  0  0  0  0  0  0  0
   33.9160   31.9510   37.1030 C   0  0  0  0  0  0  0  0  0  0  0  0
   34.3390   33.1920   37.3570 N   0  0  0  0  0  0  0  0  0  0  0  0
   35.4550   34.8410   36.7270 H   0  0  0  0  0  0  0  0  0  0  0  0
   36.1630   33.7840   34.6470 H   0  0  0  0  0  0  0  0  0  0  0  0
   33.2760   31.2870   37.6910 H   0  0  0  0  0  0  0  0  0  0  0  0
  1 10  1  0  0  0  0
  1  9  1  0  0  0  0
  2  1  2  0  0  0  0
  3  2  1  0  0  0  0
  3  4  2  0  0  0  0
  4  8  1  0  0  0  0
  5  4  1  0  0  0  0
  5  6  1  0  0  0  0
  6 13  1  0  0  0  0
  6  7  2  0  0  0  0
  7 14  1  0  0  0  0
  8  9  2  0  0  0  0
  8  7  1  0  0  0  0
 11  3  1  0  0  0  0
 12  5  1  0  0  0  0
 15 21  1  1  0  0  0
 15 16  1  0  0  0  0
 15 20  1  0  0  0  0
 16  9  1  6  0  0  0
 16 17  1  0  0  0  0
 17 18  1  0  0  0  0
 19 18  1  0  0  0  0
 19 23  1  6  0  0  0
 20 25  1  1  0  0  0
 20 19  1  0  0  0  0
 21 22  1  0  0  0  0
 23 24  1  0  0  0  0
 25 26  1  0  0  0  0
 27  2  1  0  0  0  0
 27 30  1  0  0  0  0
 28 27  1  0  0  0  0
 29 27  1  0  0  0  0
 30 31  1  0  0  0  0
 32 30  1  0  0  0  0
 33 36  1  1  0  0  0
 34 37  1  0  0  0  0
 34 33  1  0  0  0  0
 35 39  1  6  0  0  0
 35 34  1  0  0  0  0
 35 30  1  0  0  0  0
 35 33  1  0  0  0  0
 38 34  1  0  0  0  0
 40 33  1  0  0  0  0
 40 45  1  0  0  0  0
 41 40  1  0  0  0  0
 42 40  1  0  0  0  0
 43 49  1  0  0  0  0
 43 48  1  0  0  0  0
 44 43  2  0  0  0  0
 45 44  1  0  0  0  0
 45 46  2  0  0  0  0
 46 47  1  0  0  0  0
 47 48  2  0  0  0  0
 47 51  1  0  0  0  0
 50 44  1  0  0  0  0
M  END
>  <minimizedAffinity>
-6.46406746

$$$$

 OpenBabel03262520523D

 51 55  0  0  1  0  0  0  0  0999 V2000
   36.7250   28.5560   35.1670 C   0  0  0  0  0  0  0  0  0  0  0  0
   37.5300   27.4910   34.7750 C   0  0  0  0  0  0  0  0  0  0  0  0
   37.6860   27.1970   33.4240 C   0  0  0  0  0  0  0  0  0  0  0  0
   37.0560   27.9440   32.4600 C   0  0  0  0  0  0  0  0  0  0  0  0
   37.0460   27.8660   31.1270 N   0  0  0  0  0  0  0  0  0  0  0  0
   36.2510   28.8610   30.6780 C   0  0  0  0  0  0  0  0  0  0  0  0
   35.7240   29.6110   31.7040 C   0  0  0  0  0  0  0  0  0  0  0  0
   36.2500   29.0080   32.8440 C   0  0  0  0  0  0  0  0  0  0  0  0
   36.0960   29.2990   34.1850 C   0  0  0  0  0  0  0  0  0  0  0  0
   36.5320   28.8760   36.1700 H   0  0  0  0  0  0  0  0  0  0  0  0
   38.3090   26.3740   33.1270 H   0  0  0  0  0  0  0  0  0  0  0  0
   37.5450   27.1820   30.5020 H   0  0  0  0  0  0  0  0  0  0  0  0
   36.0310   29.0740   29.6330 H   0  0  0  0  0  0  0  0  0  0  0  0
   35.0610   30.4600   31.6500 H   0  0  0  0  0  0  0  0  0  0  0  0
   35.7410   31.2740   35.6790 C   0  0  2  0  0  3  0  0  0  0  0  0
   35.2190   30.4520   34.5370 C   0  0  2  0  0  3  0  0  0  0  0  0
   33.9260   29.9830   34.7780 O   0  0  0  0  0  0  0  0  0  0  0  0
   33.0160   31.0620   34.7500 C   0  0  0  0  0  2  0  0  0  0  0  0
   33.4360   32.1680   35.7040 C   0  0  1  0  0  3  0  0  0  0  0  0
   34.5420   31.5890   36.5760 C   0  0  2  0  0  3  0  0  0  0  0  0
   36.4190   32.4150   35.2990 O   0  0  0  0  0  0  0  0  0  0  0  0
   36.1040   32.8370   34.4670 H   0  0  0  0  0  0  0  0  0  0  0  0
   33.8510   33.2990   35.0070 O   0  0  0  0  0  0  0  0  0  0  0  0
   33.8200   34.1030   35.5550 H   0  0  0  0  0  0  0  0  0  0  0  0
   34.8670   32.3770   37.6510 O   0  0  0  0  0  0  0  0  0  0  0  0
   34.2250   32.1640   38.4000 H   0  0  0  0  0  0  0  0  0  0  0  0
   38.2090   26.6900   35.8450 C   0  0  0  0  0  0  0  0  0  0  0  0
   37.5670   25.8610   36.2050 H   0  0  0  0  0  0  0  0  0  0  0  0
   38.5040   27.3730   36.6870 H   0  0  0  0  0  0  0  0  0  0  0  0
   39.4780   26.1050   35.2550 C   0  0  0  0  0  0  0  0  0  0  0  0
   40.3550   26.5130   35.8410 H   0  0  0  0  0  0  0  0  0  0  0  0
   39.5060   26.4450   34.1830 H   0  0  0  0  0  0  0  0  0  0  0  0
   38.3160   23.8690   35.0710 C   0  0  1  0  0  0  0  0  0  0  0  0
   38.9700   23.8340   36.4320 C   0  0  0  0  0  0  0  0  0  0  0  0
   39.5530   24.6260   35.3310 C   0  0  2  0  0  0  0  0  0  0  0  0
   37.3380   24.4250   34.9870 H   0  0  0  0  0  0  0  0  0  0  0  0
   38.4220   24.4050   37.2350 H   0  0  0  0  0  0  0  0  0  0  0  0
   39.4470   22.9250   36.8070 H   0  0  0  0  0  0  0  0  0  0  0  0
   40.4760   24.1500   34.8860 H   0  0  0  0  0  0  0  0  0  0  0  0
   38.3280   22.5700   34.3290 C   0  0  0  0  0  0  0  0  0  0  0  0
   38.1350   21.6870   34.9490 H   0  0  0  0  0  0  0  0  0  0  0  0
   39.3440   22.4370   33.8940 H   0  0  0  0  0  0  0  0  0  0  0  0
   36.4300   23.7410   31.3130 C   0  0  0  0  0  0  0  0  0  0  0  0
   37.3470   23.6980   32.4040 C   0  0  0  0  0  0  0  0  0  0  0  0
   37.3650   22.5850   33.2030 C   0  0  0  0  0  0  0  0  0  0  0  0
   36.5140   21.5930   32.9120 N   0  0  0  0  0  0  0  0  0  0  0  0
   35.6530   21.6300   31.8880 C   0  0  0  0  0  0  0  0  0  0  0  0
   35.6260   22.7100   31.1020 N   0  0  0  0  0  0  0  0  0  0  0  0
   36.3980   24.6030   30.6740 H   0  0  0  0  0  0  0  0  0  0  0  0
   37.9790   24.5670   32.5300 H   0  0  0  0  0  0  0  0  0  0  0  0
   35.0630   20.7100   31.8480 H   0  0  0  0  0  0  0  0  0  0  0  0
  1 10  1  0  0  0  0
  2  1  1  0  0  0  0
  2 27  1  0  0  0  0
  3  2  2  0  0  0  0
  4  8  2  0  0  0  0
  4  3  1  0  0  0  0
  5  4  1  0  0  0  0
  6  5  1  0  0  0  0
  6  7  2  0  0  0  0
  7  8  1  0  0  0  0
  8  9  1  0  0  0  0
  9  1  2  0  0  0  0
 11  3  1  0  0  0  0
 12  5  1  0  0  0  0
 13  6  1  0  0  0  0
 14  7  1  0  0  0  0
 15 21  1  6  0  0  0
 15 20  1  0  0  0  0
 16  9  1  1  0  0  0
 16 17  1  0  0  0  0
 16 15  1  0  0  0  0
 18 17  1  0  0  0  0
 18 19  1  0  0  0  0
 19 23  1  6  0  0  0
 19 20  1  0  0  0  0
 20 25  1  1  0  0  0
 22 21  1  0  0  0  0
 23 24  1  0  0  0  0
 25 26  1  0  0  0  0
 27 28  1  0  0  0  0
 27 29  1  0  0  0  0
 30 35  1  0  0  0  0
 30 31  1  0  0  0  0
 30 27  1  0  0  0  0
 32 30  1  0  0  0  0
 33 36  1  6  0  0  0
 33 35  1  0  0  0  0
 33 34  1  0  0  0  0
 34 38  1  0  0  0  0
 34 37  1  0  0  0  0
 35 39  1  6  0  0  0
 35 34  1  0  0  0  0
 40 41  1  0  0  0  0
 40 33  1  0  0  0  0
 42 40  1  0  0  0  0
 43 44  1  0  0  0  0
 44 50  1  0  0  0  0
 44 45  2  0  0  0  0
 45 40  1  0  0  0  0
 46 45  1  0  0  0  0
 47 46  2  0  0  0  0
 48 43  2  0  0  0  0
 48 47  1  0  0  0  0
 49 43  1  0  0  0  0
 51 47  1  0  0  0  0
M  END
>  <minimizedAffinity>
-6.40971708

$$$$

 OpenBabel03262520523D

 51 55  0  0  1  0  0  0  0  0999 V2000
   37.5220   26.1740   34.4060 C   0  0  0  0  0  0  0  0  0  0  0  0
   37.5960   27.0360   33.3160 C   0  0  0  0  0  0  0  0  0  0  0  0
   38.8360   27.4350   32.8280 C   0  0  0  0  0  0  0  0  0  0  0  0
   40.0000   26.9910   33.4060 C   0  0  0  0  0  0  0  0  0  0  0  0
   41.2860   27.2240   33.1290 N   0  0  0  0  0  0  0  0  0  0  0  0
   42.0160   26.5250   34.0240 C   0  0  0  0  0  0  0  0  0  0  0  0
   41.2280   25.8200   34.9040 C   0  0  0  0  0  0  0  0  0  0  0  0
   39.9340   26.1320   34.4940 C   0  0  0  0  0  0  0  0  0  0  0  0
   38.7020   25.7350   34.9770 C   0  0  0  0  0  0  0  0  0  0  0  0
   36.6300   25.7990   34.8640 H   0  0  0  0  0  0  0  0  0  0  0  0
   38.8890   28.1000   31.9870 H   0  0  0  0  0  0  0  0  0  0  0  0
   41.7000   27.8260   32.3720 H   0  0  0  0  0  0  0  0  0  0  0  0
   43.1030   26.4980   34.0730 H   0  0  0  0  0  0  0  0  0  0  0  0
   41.5290   25.1810   35.7190 H   0  0  0  0  0  0  0  0  0  0  0  0
   38.2690   23.4140   35.8030 C   0  0  2  0  0  3  0  0  0  0  0  0
   38.6930   24.8120   36.1470 C   0  0  2  0  0  3  0  0  0  0  0  0
   37.9020   25.3650   37.1570 O   0  0  0  0  0  0  0  0  0  0  0  0
   38.1670   24.7110   38.3800 C   0  0  0  0  0  2  0  0  0  0  0  0
   38.0030   23.2060   38.2530 C   0  0  1  0  0  3  0  0  0  0  0  0
   37.3200   22.9580   36.9140 C   0  0  2  0  0  3  0  0  0  0  0  0
   39.3120   22.5300   35.6160 O   0  0  0  0  0  0  0  0  0  0  0  0
   40.1150   22.7010   36.1590 H   0  0  0  0  0  0  0  0  0  0  0  0
   39.2320   22.5590   38.3460 O   0  0  0  0  0  0  0  0  0  0  0  0
   39.1390   21.6200   38.5830 H   0  0  0  0  0  0  0  0  0  0  0  0
   36.8800   21.6690   36.7500 O   0  0  0  0  0  0  0  0  0  0  0  0
   35.9700   21.5930   37.1780 H   0  0  0  0  0  0  0  0  0  0  0  0
   36.3130   27.5060   32.7010 C   0  0  0  0  0  0  0  0  0  0  0  0
   35.5440   26.7060   32.6960 H   0  0  0  0  0  0  0  0  0  0  0  0
   36.5160   27.8830   31.6620 H   0  0  0  0  0  0  0  0  0  0  0  0
   35.8000   28.6700   33.5260 C   0  0  0  0  0  0  0  0  0  0  0  0
   36.6480   29.0370   34.1780 H   0  0  0  0  0  0  0  0  0  0  0  0
   34.9540   28.2620   34.1460 H   0  0  0  0  0  0  0  0  0  0  0  0
   36.3420   30.5180   31.8900 C   0  0  1  0  0  0  0  0  0  0  0  0
   35.6690   31.2290   33.0400 C   0  0  0  0  0  0  0  0  0  0  0  0
   35.3390   29.8260   32.7200 C   0  0  2  0  0  0  0  0  0  0  0  0
   37.4320   30.2580   32.0150 H   0  0  0  0  0  0  0  0  0  0  0  0
   36.3280   31.4040   33.9380 H   0  0  0  0  0  0  0  0  0  0  0  0
   34.9630   32.0440   32.8660 H   0  0  0  0  0  0  0  0  0  0  0  0
   34.3340   29.7130   32.2150 H   0  0  0  0  0  0  0  0  0  0  0  0
   36.0080   31.0520   30.5330 C   0  0  0  0  0  0  0  0  0  0  0  0
   35.9980   32.1450   30.4610 H   0  0  0  0  0  0  0  0  0  0  0  0
   34.9810   30.7070   30.2750 H   0  0  0  0  0  0  0  0  0  0  0  0
   38.2160   28.6640   28.6640 C   0  0  0  0  0  0  0  0  0  0  0  0
   37.3330   29.2110   29.6410 C   0  0  0  0  0  0  0  0  0  0  0  0
   36.9250   30.5120   29.5020 C   0  0  0  0  0  0  0  0  0  0  0  0
   37.3820   31.2010   28.4500 N   0  0  0  0  0  0  0  0  0  0  0  0
   38.2110   30.6900   27.5310 C   0  0  0  0  0  0  0  0  0  0  0  0
   38.6160   29.4230   27.6550 N   0  0  0  0  0  0  0  0  0  0  0  0
   38.5500   27.6470   28.7520 H   0  0  0  0  0  0  0  0  0  0  0  0
   37.0400   28.5470   30.4420 H   0  0  0  0  0  0  0  0  0  0  0  0
   38.4470   31.4370   26.7680 H   0  0  0  0  0  0  0  0  0  0  0  0
  1 10  1  0  0  0  0
  1  9  1  0  0  0  0
  2  1  2  0  0  0  0
  3  2  1  0  0  0  0
  3  4  2  0  0  0  0
  4  8  1  0  0  0  0
  5  4  1  0  0  0  0
  5  6  1  0  0  0  0
  6 13  1  0  0  0  0
  6  7  2  0  0  0  0
  7 14  1  0  0  0  0
  8  7  1  0  0  0  0
  8  9  2  0  0  0  0
 11  3  1  0  0  0  0
 12  5  1  0  0  0  0
 15 21  1  1  0  0  0
 15 16  1  0  0  0  0
 15 20  1  0  0  0  0
 16  9  1  6  0  0  0
 16 17  1  0  0  0  0
 17 18  1  0  0  0  0
 19 23  1  6  0  0  0
 19 18  1  0  0  0  0
 20 25  1  6  0  0  0
 20 19  1  0  0  0  0
 21 22  1  0  0  0  0
 23 24  1  0  0  0  0
 25 26  1  0  0  0  0
 27  2  1  0  0  0  0
 27 30  1  0  0  0  0
 28 27  1  0  0  0  0
 29 27  1  0  0  0  0
 30 32  1  0  0  0  0
 30 31  1  0  0  0  0
 33 36  1  1  0  0  0
 33 35  1  0  0  0  0
 33 34  1  0  0  0  0
 34 37  1  0  0  0  0
 35 39  1  6  0  0  0
 35 34  1  0  0  0  0
 35 30  1  0  0  0  0
 38 34  1  0  0  0  0
 40 33  1  0  0  0  0
 41 40  1  0  0  0  0
 42 40  1  0  0  0  0
 43 49  1  0  0  0  0
 43 44  1  0  0  0  0
 44 50  1  0  0  0  0
 45 44  2  0  0  0  0
 45 40  1  0  0  0  0
 46 45  1  0  0  0  0
 47 48  1  0  0  0  0
 47 46  2  0  0  0  0
 48 43  2  0  0  0  0
 51 47  1  0  0  0  0
M  END
>  <minimizedAffinity>
-6.35890627

$$$$

 OpenBabel03262520523D

 51 55  0  0  1  0  0  0  0  0999 V2000
   38.9110   25.3130   34.0030 C   0  0  0  0  0  0  0  0  0  0  0  0
   39.4830   25.7990   32.8310 C   0  0  0  0  0  0  0  0  0  0  0  0
   40.8520   25.6640   32.6180 C   0  0  0  0  0  0  0  0  0  0  0  0
   41.6570   25.0560   33.5500 C   0  0  0  0  0  0  0  0  0  0  0  0
   42.9690   24.8110   33.5780 N   0  0  0  0  0  0  0  0  0  0  0  0
   43.2280   24.1820   34.7450 C   0  0  0  0  0  0  0  0  0  0  0  0
   42.0950   24.0010   35.5030 C   0  0  0  0  0  0  0  0  0  0  0  0
   41.0930   24.5700   34.7210 C   0  0  0  0  0  0  0  0  0  0  0  0
   39.7340   24.7030   34.9320 C   0  0  0  0  0  0  0  0  0  0  0  0
   37.8770   25.3570   34.2750 H   0  0  0  0  0  0  0  0  0  0  0  0
   41.2890   26.0410   31.7120 H   0  0  0  0  0  0  0  0  0  0  0  0
   43.7010   25.0410   32.8580 H   0  0  0  0  0  0  0  0  0  0  0  0
   44.2070   23.8410   35.0780 H   0  0  0  0  0  0  0  0  0  0  0  0
   41.9960   23.5350   36.4710 H   0  0  0  0  0  0  0  0  0  0  0  0
   38.5680   22.8030   36.0650 C   0  0  2  0  0  3  0  0  0  0  0  0
   39.1850   24.1630   36.2080 C   0  0  2  0  0  3  0  0  0  0  0  0
   38.2900   25.0900   36.7470 O   0  0  0  0  0  0  0  0  0  0  0  0
   38.0430   24.7790   38.1020 C   0  0  0  0  0  2  0  0  0  0  0  0
   37.5830   23.3410   38.2680 C   0  0  1  0  0  3  0  0  0  0  0  0
   37.2670   22.8250   36.8700 C   0  0  2  0  0  3  0  0  0  0  0  0
   39.3910   21.7590   36.4370 O   0  0  0  0  0  0  0  0  0  0  0  0
   40.0250   21.9590   37.1630 H   0  0  0  0  0  0  0  0  0  0  0  0
   38.5550   22.5750   38.9060 O   0  0  0  0  0  0  0  0  0  0  0  0
   38.1860   21.7660   39.3030 H   0  0  0  0  0  0  0  0  0  0  0  0
   36.6090   21.6210   36.8630 O   0  0  0  0  0  0  0  0  0  0  0  0
   35.6220   21.8040   36.9700 H   0  0  0  0  0  0  0  0  0  0  0  0
   38.5850   26.4570   31.8290 C   0  0  0  0  0  0  0  0  0  0  0  0
   38.4060   25.8060   30.9490 H   0  0  0  0  0  0  0  0  0  0  0  0
   39.0310   27.4420   31.5230 H   0  0  0  0  0  0  0  0  0  0  0  0
   37.2570   26.7380   32.5070 C   0  0  0  0  0  0  0  0  0  0  0  0
   37.2790   26.2560   33.5290 H   0  0  0  0  0  0  0  0  0  0  0  0
   36.4700   26.2720   31.8510 H   0  0  0  0  0  0  0  0  0  0  0  0
   35.5620   28.5920   32.7720 C   0  0  1  0  0  0  0  0  0  0  0  0
   36.4560   29.0670   31.6520 C   0  0  0  0  0  0  0  0  0  0  0  0
   36.9750   28.1790   32.7100 C   0  0  2  0  0  0  0  0  0  0  0  0
   34.7590   27.8460   32.5060 H   0  0  0  0  0  0  0  0  0  0  0  0
   36.2480   28.5960   30.6490 H   0  0  0  0  0  0  0  0  0  0  0  0
   36.7580   30.1150   31.5740 H   0  0  0  0  0  0  0  0  0  0  0  0
   37.6360   28.7170   33.4520 H   0  0  0  0  0  0  0  0  0  0  0  0
   35.0940   29.6630   33.7060 C   0  0  0  0  0  0  0  0  0  0  0  0
   35.3360   30.6830   33.3910 H   0  0  0  0  0  0  0  0  0  0  0  0
   35.5990   29.5040   34.6860 H   0  0  0  0  0  0  0  0  0  0  0  0
   31.7710   29.8700   35.4340 C   0  0  0  0  0  0  0  0  0  0  0  0
   33.1710   29.9500   35.1760 C   0  0  0  0  0  0  0  0  0  0  0  0
   33.6340   29.5690   33.9440 C   0  0  0  0  0  0  0  0  0  0  0  0
   32.7400   29.1390   33.0450 N   0  0  0  0  0  0  0  0  0  0  0  0
   31.4250   29.0630   33.2850 C   0  0  0  0  0  0  0  0  0  0  0  0
   30.9610   29.4320   34.4820 N   0  0  0  0  0  0  0  0  0  0  0  0
   31.3850   30.1630   36.3920 H   0  0  0  0  0  0  0  0  0  0  0  0
   33.7850   30.3140   35.9880 H   0  0  0  0  0  0  0  0  0  0  0  0
   30.8950   28.6850   32.4060 H   0  0  0  0  0  0  0  0  0  0  0  0
  1 10  1  0  0  0  0
  1  9  1  0  0  0  0
  2  1  2  0  0  0  0
  3  2  1  0  0  0  0
  3  4  2  0  0  0  0
  4  5  1  0  0  0  0
  4  8  1  0  0  0  0
  5  6  1  0  0  0  0
  6 13  1  0  0  0  0
  6  7  2  0  0  0  0
  7 14  1  0  0  0  0
  8  9  2  0  0  0  0
  8  7  1  0  0  0  0
 11  3  1  0  0  0  0
 12  5  1  0  0  0  0
 15 16  1  0  0  0  0
 15 21  1  1  0  0  0
 15 20  1  0  0  0  0
 16  9  1  6  0  0  0
 16 17  1  0  0  0  0
 17 18  1  0  0  0  0
 18 19  1  0  0  0  0
 19 23  1  6  0  0  0
 20 25  1  1  0  0  0
 20 19  1  0  0  0  0
 21 22  1  0  0  0  0
 23 24  1  0  0  0  0
 25 26  1  0  0  0  0
 27 30  1  0  0  0  0
 27  2  1  0  0  0  0
 28 27  1  0  0  0  0
 29 27  1  0  0  0  0
 30 35  1  0  0  0  0
 30 31  1  0  0  0  0
 32 30  1  0  0  0  0
 33 36  1  6  0  0  0
 33 40  1  0  0  0  0
 34 35  1  0  0  0  0
 34 33  1  0  0  0  0
 35 33  1  0  0  0  0
 35 39  1  1  0  0  0
 37 34  1  0  0  0  0
 38 34  1  0  0  0  0
 40 45  1  0  0  0  0
 40 42  1  0  0  0  0
 41 40  1  0  0  0  0
 43 49  1  0  0  0  0
 44 43  1  0  0  0  0
 44 50  1  0  0  0  0
 45 44  2  0  0  0  0
 46 47  2  0  0  0  0
 46 45  1  0  0  0  0
 47 48  1  0  0  0  0
 48 43  2  0  0  0  0
 51 47  1  0  0  0  0
M  END
>  <minimizedAffinity>
-6.34939432

$$$$
