
 OpenBabel03272506353D

 22 23  0  0  1  0  0  0  0  0999 V2000
   33.9370   28.9250   47.1350 C   0  0  1  0  0  3  0  0  0  0  0  0
   35.4260   29.1270   47.0110 C   0  0  1  0  0  3  0  0  0  0  0  0
   35.7610   29.9460   45.9350 O   0  0  0  0  0  0  0  0  0  0  0  0
   34.9040   29.6080   44.8630 C   0  0  0  0  0  2  0  0  0  0  0  0
   33.6410   30.4170   45.1270 C   0  0  2  0  0  3  0  0  0  0  0  0
   33.1510   30.0410   46.4890 C   0  0  2  0  0  3  0  0  0  0  0  0
   36.9020   31.5580   49.3750 C   0  0  0  0  0  0  0  0  0  0  0  0
   36.9760   30.8210   50.5760 C   0  0  0  0  0  0  0  0  0  0  0  0
   36.5180   29.5050   50.5540 C   0  0  0  0  0  0  0  0  0  0  0  0
   36.0290   29.0020   49.3890 N   0  0  0  0  0  0  0  0  0  0  0  0
   35.9740   29.7440   48.2490 C   0  0  0  0  0  0  0  0  0  0  0  0
   36.4100   31.0070   48.2580 N   0  0  0  0  0  0  0  0  0  0  0  0
   37.3500   31.1700   51.5140 H   0  0  0  0  0  0  0  0  0  0  0  0
   36.5390   28.8690   51.4310 H   0  0  0  0  0  0  0  0  0  0  0  0
   37.3860   32.8440   49.5290 O   0  0  0  0  0  0  0  0  0  0  0  0
   36.8200   33.4420   50.1440 H   0  0  0  0  0  0  0  0  0  0  0  0
   33.4800   27.7290   46.6400 O   0  0  0  0  0  0  0  0  0  0  0  0
   33.7980   26.9370   47.1440 H   0  0  0  0  0  0  0  0  0  0  0  0
   32.7130   30.3310   44.1210 O   0  0  0  0  0  0  0  0  0  0  0  0
   31.8800   29.8600   44.3740 H   0  0  0  0  0  0  0  0  0  0  0  0
   33.2560   31.1450   47.3620 O   0  0  0  0  0  0  0  0  0  0  0  0
   32.4630   31.2530   47.9230 H   0  0  0  0  0  0  0  0  0  0  0  0
  1 17  1  6  0  0  0
  2  1  1  0  0  0  0
  2 11  1  1  0  0  0
  3  2  1  0  0  0  0
  4  5  1  0  0  0  0
  4  3  1  0  0  0  0
  5 19  1  6  0  0  0
  5  6  1  0  0  0  0
  6  1  1  0  0  0  0
  6 21  1  1  0  0  0
  7 15  1  0  0  0  0
  7  8  1  0  0  0  0
  8 13  1  0  0  0  0
  9  8  2  0  0  0  0
  9 14  1  0  0  0  0
 10  9  1  0  0  0  0
 11 12  1  0  0  0  0
 11 10  2  0  0  0  0
 12  7  2  0  0  0  0
 15 16  1  0  0  0  0
 17 18  1  0  0  0  0
 19 20  1  0  0  0  0
 21 22  1  0  0  0  0
M  END
>  <minimizedAffinity>
-3.88013482

>  <minimizedRMSD>
4.34332085

$$$$
