
     RDKit          3D

 37 39  0  0  0  0  0  0  0  0999 V2000
   37.0084   31.3900   48.5632 N   0  0  0  0  0  0  0  0  0  0  0  0
   37.1872   32.1563   49.6430 C   0  0  0  0  0  0  0  0  0  0  0  0
   38.1407   33.1579   49.6748 C   0  0  0  0  0  0  0  0  0  0  0  0
   38.8621   33.2649   48.4881 C   0  0  0  0  0  0  0  0  0  0  0  0
   39.7508   34.1749   48.4737 O   0  0  0  0  0  0  0  0  0  0  0  0
   38.7161   32.5182   47.3797 N   0  0  0  0  0  0  0  0  0  0  0  0
   37.7588   31.5705   47.4565 C   0  0  0  0  0  0  0  0  0  0  0  0
   37.6073   30.8563   46.4170 O   0  0  0  0  0  0  0  0  0  0  0  0
   36.2192   29.2328   49.3664 C   0  0  0  0  0  0  0  0  0  0  0  0
   36.0387   30.3603   48.5216 C   0  0  0  0  0  0  0  0  0  0  0  0
   34.9107   30.3933   47.6991 C   0  0  0  0  0  0  0  0  0  0  0  0
   34.0356   29.3590   47.7351 N   0  0  0  0  0  0  0  0  0  0  0  0
   34.2260   28.2949   48.5477 C   0  0  0  0  0  0  0  0  0  0  0  0
   35.3145   28.2237   49.3662 N   0  0  0  0  0  0  0  0  0  0  0  0
   36.5771   32.0055   50.5099 H   0  0  0  0  0  0  0  0  0  0  0  0
   38.3401   33.8104   50.5054 H   0  0  0  0  0  0  0  0  0  0  0  0
   39.3047   32.6835   46.5558 H   0  0  0  0  0  0  0  0  0  0  0  0
   34.7881   31.2615   47.0597 H   0  0  0  0  0  0  0  0  0  0  0  0
   33.4930   27.4877   48.5408 H   0  0  0  0  0  0  0  0  0  0  0  0
   36.1722   30.4169   51.7774 O   0  0  0  0  0  0  0  0  0  0  0  0
   37.4257   29.9703   51.4448 C   0  0  2  0  0  0  0  0  0  0  0  0
   37.3460   29.0234   50.2891 C   0  0  2  0  0  0  0  0  0  0  0  0
   38.5985   29.0416   49.6826 O   0  0  0  0  0  0  0  0  0  0  0  0
   39.5618   28.7791   50.6080 C   0  0  0  0  0  0  0  0  0  0  0  0
   39.1183   28.3025   51.9535 C   0  0  1  0  0  0  0  0  0  0  0  0
   40.2474   28.3090   52.7814 O   0  0  0  0  0  0  0  0  0  0  0  0
   38.0976   29.2058   52.6045 C   0  0  1  0  0  0  0  0  0  0  0  0
   38.6633   30.1078   53.5059 O   0  0  0  0  0  0  0  0  0  0  0  0
   36.2783   31.1355   52.4581 H   0  0  0  0  0  0  0  0  0  0  0  0
   38.1560   30.8171   51.2931 H   0  0  0  0  0  0  0  0  0  0  0  0
   37.2861   27.9825   50.7333 H   0  0  0  0  0  0  0  0  0  0  0  0
   40.2161   27.9580   50.1994 H   0  0  0  0  0  0  0  0  0  0  0  0
   40.2153   29.6768   50.7589 H   0  0  0  0  0  0  0  0  0  0  0  0
   38.7542   27.2601   51.9764 H   0  0  0  0  0  0  0  0  0  0  0  0
   41.0233   27.8432   52.3522 H   0  0  0  0  0  0  0  0  0  0  0  0
   37.2813   28.6068   53.0716 H   0  0  0  0  0  0  0  0  0  0  0  0
   39.6238   29.9634   53.5577 H   0  0  0  0  0  0  0  0  0  0  0  0
  1  2  1  0
  2  3  2  0
  4  3  1  0
  5  4  2  0
  6  7  1  0
  6  4  1  0
  7  1  1  0
  8  7  2  0
  9 14  1  0
 10  1  1  0
 10  9  2  0
 11 12  2  0
 11 10  1  0
 12 13  1  0
 13 14  2  0
  2 15  1  0
  3 16  1  0
  6 17  1  0
 11 18  1  0
 13 19  1  0
 20 21  1  0
 21 22  1  0
 22 23  1  0
 23 24  1  0
 24 25  1  0
 25 26  1  0
 25 27  1  0
 27 28  1  0
 27 21  1  0
 20 29  1  0
 21 30  1  6
 22 31  1  1
 24 32  1  0
 24 33  1  0
 25 34  1  6
 26 35  1  0
 27 36  1  1
 28 37  1  0
  9 22  1  0
M  ISO  5  15  14  16  14  17   9  18  14  19  14
M  END
>  <DihAtoms>  (1) 
13,8,21,20

>  <DihDeg>  (1) 
-83.67392457258205

$$$$
