
     RDKit          3D

 28 29  0  0  0  0  0  0  0  0999 V2000
   37.2978   29.9913   51.1813 C   0  0  0  0  0  0  0  0  0  0  0  0
   37.9591   30.9216   50.3523 C   0  0  0  0  0  0  0  0  0  0  0  0
   37.2738   31.3882   49.2320 C   0  0  0  0  0  0  0  0  0  0  0  0
   36.0156   30.9284   48.9965 N   0  0  0  0  0  0  0  0  0  0  0  0
   35.4095   30.0298   49.8198 C   0  0  0  0  0  0  0  0  0  0  0  0
   36.0573   29.5760   50.8966 N   0  0  0  0  0  0  0  0  0  0  0  0
   38.0810   29.6086   52.2535 O   0  0  0  0  0  0  0  0  0  0  0  0
   38.9439   31.3122   50.4941 H   0  0  0  0  0  0  0  0  0  0  0  0
   37.7067   32.1026   48.5434 H   0  0  0  0  0  0  0  0  0  0  0  0
   38.9162   29.0663   52.0011 H   0  0  0  0  0  0  0  0  0  0  0  0
   33.0175   28.8719   47.4101 O   0  0  0  0  0  0  0  0  0  0  0  0
   34.0426   28.6594   48.2978 C   0  0  1  0  0  0  0  0  0  0  0  0
   34.0308   29.5714   49.4990 C   0  0  1  0  0  0  0  0  0  0  0  0
   33.5081   28.9486   50.6299 O   0  0  0  0  0  0  0  0  0  0  0  0
   32.4139   28.1595   50.2103 C   0  0  0  0  0  0  0  0  0  0  0  0
   33.0516   26.8554   49.7501 C   0  0  1  0  0  0  0  0  0  0  0  0
   32.1404   25.8865   49.4148 O   0  0  0  0  0  0  0  0  0  0  0  0
   34.0450   27.2001   48.6853 C   0  0  2  0  0  0  0  0  0  0  0  0
   35.3527   26.9200   49.1365 O   0  0  0  0  0  0  0  0  0  0  0  0
   33.0577   29.7500   46.9527 H   0  0  0  0  0  0  0  0  0  0  0  0
   34.9930   28.8507   47.7508 H   0  0  0  0  0  0  0  0  0  0  0  0
   33.3902   30.4454   49.2799 H   0  0  0  0  0  0  0  0  0  0  0  0
   31.8303   28.6329   49.4101 H   0  0  0  0  0  0  0  0  0  0  0  0
   31.7362   27.9079   51.0663 H   0  0  0  0  0  0  0  0  0  0  0  0
   33.6009   26.4812   50.6632 H   0  0  0  0  0  0  0  0  0  0  0  0
   32.1270   25.6547   48.4533 H   0  0  0  0  0  0  0  0  0  0  0  0
   33.8788   26.6096   47.7612 H   0  0  0  0  0  0  0  0  0  0  0  0
   35.8942   26.4788   48.4546 H   0  0  0  0  0  0  0  0  0  0  0  0
  1  7  1  0
  2  1  2  0
  3  2  1  0
  4  3  2  0
  4  5  1  0
  5  6  2  0
  6  1  1  0
  2  8  1  0
  3  9  1  0
  7 10  1  0
 11 12  1  0
 12 13  1  0
 13 14  1  0
 14 15  1  0
 15 16  1  0
 16 17  1  0
 16 18  1  0
 18 19  1  0
 18 12  1  0
 11 20  1  0
 12 21  1  6
 13 22  1  6
 15 23  1  0
 15 24  1  0
 16 25  1  1
 17 26  1  0
 18 27  1  6
 19 28  1  0
  5 13  1  0
M  ISO  3   8  14   9  14  10   3
M  END
>  <DihAtoms>  (1) 
3,4,12,11

>  <DihDeg>  (1) 
-78.24753155161936

$$$$
