
 OpenBabel03272505313D

 43 46  0  0  1  0  0  0  0  0999 V2000
   37.3590   31.1590   47.2020 N   0  0  0  0  0  0  0  0  0  0  0  0
   36.6660   30.9360   46.0540 C   0  0  0  0  0  0  0  0  0  0  0  0
   37.0630   31.4550   44.8360 C   0  0  0  0  0  0  0  0  0  0  0  0
   38.2340   32.2400   44.8130 C   0  0  0  0  0  0  0  0  0  0  0  0
   38.6390   32.7350   43.7350 O   0  0  0  0  0  0  0  0  0  0  0  0
   38.9290   32.4600   45.9810 N   0  0  0  0  0  0  0  0  0  0  0  0
   38.4460   31.9080   47.0820 C   0  0  0  0  0  0  0  0  0  0  0  0
   39.1070   32.1310   48.1220 O   0  0  0  0  0  0  0  0  0  0  0  0
   35.7560   30.3260   46.0660 H   0  0  0  0  0  0  0  0  0  0  0  0
   37.4140   29.4980   50.5260 C   0  0  0  0  0  0  0  0  0  0  0  0
   37.8500   30.0370   49.3000 C   0  0  0  0  0  0  0  0  0  0  0  0
   36.9360   30.6220   48.4210 C   0  0  0  0  0  0  0  0  0  0  0  0
   35.6360   30.6530   48.7860 N   0  0  0  0  0  0  0  0  0  0  0  0
   35.2010   30.1360   49.9700 C   0  0  0  0  0  0  0  0  0  0  0  0
   36.0950   29.5660   50.8240 N   0  0  0  0  0  0  0  0  0  0  0  0
   38.1400   29.0580   51.1750 H   0  0  0  0  0  0  0  0  0  0  0  0
   38.8720   30.0310   48.9740 H   0  0  0  0  0  0  0  0  0  0  0  0
   34.1850   30.1490   50.2780 H   0  0  0  0  0  0  0  0  0  0  0  0
   36.3620   31.2490   43.5830 C   0  0  0  0  0  0  0  0  0  0  0  0
   36.4880   30.1130   42.8310 C   0  0  0  0  0  0  0  0  0  0  0  0
   35.8460   29.8720   41.6410 C   0  0  0  0  0  0  0  0  0  0  0  0
   34.9880   30.8690   41.1430 C   0  0  0  0  0  0  0  0  0  0  0  0
   34.8860   32.0100   41.9350 C   0  0  0  0  0  0  0  0  0  0  0  0
   35.5440   32.1740   43.0860 N   0  0  0  0  0  0  0  0  0  0  0  0
   37.1420   29.3150   43.1800 H   0  0  0  0  0  0  0  0  0  0  0  0
   35.9470   28.9750   41.0510 H   0  0  0  0  0  0  0  0  0  0  0  0
   34.4270   30.8070   40.2270 H   0  0  0  0  0  0  0  0  0  0  0  0
   32.8100   33.2210   42.4660 C   0  0  2  0  0  3  0  0  0  0  0  0
   34.0140   33.1650   41.5480 C   0  0  1  0  0  3  0  0  0  0  0  0
   34.7620   34.3390   41.5710 O   0  0  0  0  0  0  0  0  0  0  0  0
   34.0390   35.4000   41.0930 C   0  0  0  0  0  2  0  0  0  0  0  0
   32.6370   35.5080   41.6680 C   0  0  2  0  0  3  0  0  0  0  0  0
   32.6110   34.6580   42.9190 C   0  0  1  0  0  3  0  0  0  0  0  0
   32.9560   32.3670   43.5640 O   0  0  0  0  0  0  0  0  0  0  0  0
   32.4010   31.5440   43.3700 H   0  0  0  0  0  0  0  0  0  0  0  0
   31.7790   34.8740   40.7460 O   0  0  0  0  0  0  0  0  0  0  0  0
   31.9090   35.2930   39.8410 H   0  0  0  0  0  0  0  0  0  0  0  0
   31.3900   34.7280   43.5840 O   0  0  0  0  0  0  0  0  0  0  0  0
   31.5480   35.1080   44.4920 H   0  0  0  0  0  0  0  0  0  0  0  0
   40.1260   33.2640   45.9510 C   0  0  0  0  0  0  0  0  0  0  0  0
   40.0510   34.2170   44.9950 F   0  0  0  0  0  0  0  0  0  0  0  0
   41.2810   32.5280   45.6810 F   0  0  0  0  0  0  0  0  0  0  0  0
   40.2640   33.9040   47.1870 F   0  0  0  0  0  0  0  0  0  0  0  0
  1 12  1  0  0  0  0
  2  9  1  0  0  0  0
  2  1  1  0  0  0  0
  3  2  2  0  0  0  0
  4  3  1  0  0  0  0
  4  6  1  0  0  0  0
  5  4  2  0  0  0  0
  6  7  1  0  0  0  0
  7  1  1  0  0  0  0
  7  8  2  0  0  0  0
 10 15  1  0  0  0  0
 10 16  1  0  0  0  0
 11 10  2  0  0  0  0
 12 13  2  0  0  0  0
 12 11  1  0  0  0  0
 13 14  1  0  0  0  0
 14 18  1  0  0  0  0
 14 15  2  0  0  0  0
 17 11  1  0  0  0  0
 19  3  1  0  0  0  0
 20 25  1  0  0  0  0
 20 19  2  0  0  0  0
 21 20  1  0  0  0  0
 22 21  2  0  0  0  0
 22 23  1  0  0  0  0
 23 24  2  0  0  0  0
 24 19  1  0  0  0  0
 26 21  1  0  0  0  0
 27 22  1  0  0  0  0
 28 33  1  0  0  0  0
 28 34  1  1  0  0  0
 29 30  1  0  0  0  0
 29 23  1  1  0  0  0
 29 28  1  0  0  0  0
 31 30  1  0  0  0  0
 31 32  1  0  0  0  0
 32 36  1  6  0  0  0
 32 33  1  0  0  0  0
 33 38  1  6  0  0  0
 35 34  1  0  0  0  0
 37 36  1  0  0  0  0
 38 39  1  0  0  0  0
 40  6  1  0  0  0  0
 40 43  1  0  0  0  0
 41 40  1  0  0  0  0
 42 40  1  0  0  0  0
M  END
>  <minimizedAffinity>
-7.20783615

>  <minimizedRMSD>
0.660487592

$$$$
