
 OpenBabel03272507343D

 39 42  0  0  1  0  0  0  0  0999 V2000
   33.0330   27.5770   48.2710 C   0  0  0  0  0  0  0  0  0  0  0  0
   31.8150   27.5150   48.6450 O   0  0  0  0  0  0  0  0  0  0  0  0
   35.8460   29.1610   49.8110 C   0  0  0  0  0  0  0  0  0  0  0  0
   34.8510   29.6720   50.6180 C   0  0  0  0  0  0  0  0  0  0  0  0
   33.6310   29.1510   50.1570 C   0  0  0  0  0  0  0  0  0  0  0  0
   33.9680   28.3500   49.0900 C   0  0  0  0  0  0  0  0  0  0  0  0
   35.2730   28.3850   48.9240 O   0  0  0  0  0  0  0  0  0  0  0  0
   34.9450   30.3530   51.4640 H   0  0  0  0  0  0  0  0  0  0  0  0
   32.6480   29.3170   50.5230 H   0  0  0  0  0  0  0  0  0  0  0  0
   37.2470   29.4940   50.0070 C   0  0  0  0  0  0  0  0  0  0  0  0
   37.9050   28.8730   50.8550 O   0  0  0  0  0  0  0  0  0  0  0  0
   37.7890   30.5430   49.1890 C   0  0  0  0  0  0  0  0  0  0  0  0
   38.1350   31.7250   49.8260 C   0  0  0  0  0  0  0  0  0  0  0  0
   38.6640   32.7680   49.0560 C   0  0  0  0  0  0  0  0  0  0  0  0
   38.8090   32.5610   47.7060 N   0  0  0  0  0  0  0  0  0  0  0  0
   38.4640   31.4110   47.1270 C   0  0  0  0  0  0  0  0  0  0  0  0
   37.9570   30.4020   47.8550 N   0  0  0  0  0  0  0  0  0  0  0  0
   38.0160   31.8700   50.8760 H   0  0  0  0  0  0  0  0  0  0  0  0
   38.9500   33.7140   49.5130 H   0  0  0  0  0  0  0  0  0  0  0  0
   38.5900   31.2780   46.0660 H   0  0  0  0  0  0  0  0  0  0  0  0
   33.5050   26.8750   47.0340 C   0  0  1  0  0  0  0  0  0  0  0  0
   33.7890   25.3570   47.3550 C   0  0  0  0  0  0  0  0  0  0  0  0
   32.7130   25.7980   46.4330 C   0  0  2  0  0  0  0  0  0  0  0  0
   34.4630   27.2980   46.6100 H   0  0  0  0  0  0  0  0  0  0  0  0
   33.5960   25.0100   48.3630 H   0  0  0  0  0  0  0  0  0  0  0  0
   34.6530   24.8990   46.8660 H   0  0  0  0  0  0  0  0  0  0  0  0
   31.6760   25.7040   46.8480 H   0  0  0  0  0  0  0  0  0  0  0  0
   31.8500   24.5420   44.5340 C   0  0  1  0  0  3  0  0  0  0  0  0
   32.8770   25.5020   44.9460 C   0  0  1  0  0  3  0  0  0  0  0  0
   32.9840   26.6790   44.2930 O   0  0  0  0  0  0  0  0  0  0  0  0
   32.4890   26.8220   43.0480 C   0  0  0  0  0  2  0  0  0  0  0  0
   32.1560   25.5660   42.3000 C   0  0  2  0  0  3  0  0  0  0  0  0
   31.2060   24.7940   43.2000 C   0  0  2  0  0  3  0  0  0  0  0  0
   32.3550   23.2350   44.5050 O   0  0  0  0  0  0  0  0  0  0  0  0
   31.5800   22.6240   44.3610 H   0  0  0  0  0  0  0  0  0  0  0  0
   33.3040   24.8320   42.0250 O   0  0  0  0  0  0  0  0  0  0  0  0
   33.2920   24.6580   41.0560 H   0  0  0  0  0  0  0  0  0  0  0  0
   30.0750   25.6100   43.3750 O   0  0  0  0  0  0  0  0  0  0  0  0
   29.7340   25.8890   42.4820 H   0  0  0  0  0  0  0  0  0  0  0  0
  1  2  2  0  0  0  0
  1  6  1  0  0  0  0
  3 10  1  0  0  0  0
  3  4  2  0  0  0  0
  4  8  1  0  0  0  0
  5  9  1  0  0  0  0
  5  4  1  0  0  0  0
  6  5  2  0  0  0  0
  7  6  1  0  0  0  0
  7  3  1  0  0  0  0
 10 11  2  0  0  0  0
 12 13  1  0  0  0  0
 12 10  1  0  0  0  0
 13 18  1  0  0  0  0
 14 19  1  0  0  0  0
 14 13  2  0  0  0  0
 15 14  1  0  0  0  0
 16 15  2  0  0  0  0
 16 17  1  0  0  0  0
 17 12  2  0  0  0  0
 20 16  1  0  0  0  0
 21 24  1  6  0  0  0
 21 22  1  0  0  0  0
 21  1  1  0  0  0  0
 22 25  1  0  0  0  0
 23 27  1  1  0  0  0
 23 21  1  0  0  0  0
 23 22  1  0  0  0  0
 26 22  1  0  0  0  0
 28 34  1  6  0  0  0
 28 29  1  0  0  0  0
 29 30  1  6  0  0  0
 29 23  1  0  0  0  0
 31 30  1  0  0  0  0
 32 36  1  1  0  0  0
 32 31  1  0  0  0  0
 32 33  1  0  0  0  0
 33 38  1  1  0  0  0
 33 28  1  0  0  0  0
 35 34  1  0  0  0  0
 37 36  1  0  0  0  0
 39 38  1  0  0  0  0
M  END
>  <minimizedAffinity>
-4.89978075

>  <minimizedRMSD>
0.377661645

$$$$
