
 OpenBabel03272503373D

 22 23  0  0  1  0  0  0  0  0999 V2000
   37.7290   31.6380   46.3190 C   0  0  1  0  0  3  0  0  0  0  0  0
   38.4820   31.5220   47.6190 C   0  0  1  0  0  3  0  0  0  0  0  0
   38.8960   32.7950   47.9690 O   0  0  0  0  0  0  0  0  0  0  0  0
   39.8240   33.3490   47.1260 C   0  0  0  0  0  2  0  0  0  0  0  0
   39.9090   32.7640   45.7610 C   0  0  2  0  0  3  0  0  0  0  0  0
   38.6340   32.1600   45.2600 C   0  0  2  0  0  3  0  0  0  0  0  0
   37.2480   30.0200   50.8600 C   0  0  0  0  0  0  0  0  0  0  0  0
   38.1450   30.4900   49.9000 C   0  0  0  0  0  0  0  0  0  0  0  0
   37.6310   30.9930   48.7150 C   0  0  0  0  0  0  0  0  0  0  0  0
   36.2860   31.0050   48.5390 N   0  0  0  0  0  0  0  0  0  0  0  0
   35.4230   30.5370   49.4940 C   0  0  0  0  0  0  0  0  0  0  0  0
   35.9200   30.0570   50.6280 N   0  0  0  0  0  0  0  0  0  0  0  0
   39.2200   30.5160   49.9630 H   0  0  0  0  0  0  0  0  0  0  0  0
   34.3610   30.5410   49.3660 H   0  0  0  0  0  0  0  0  0  0  0  0
   37.9030   29.5460   51.9970 O   0  0  0  0  0  0  0  0  0  0  0  0
   37.2760   29.0740   52.6680 H   0  0  0  0  0  0  0  0  0  0  0  0
   37.2530   30.3460   46.0320 O   0  0  0  0  0  0  0  0  0  0  0  0
   37.7680   29.9470   45.2670 H   0  0  0  0  0  0  0  0  0  0  0  0
   40.9050   31.7830   45.7500 O   0  0  0  0  0  0  0  0  0  0  0  0
   40.7870   31.2820   44.8810 H   0  0  0  0  0  0  0  0  0  0  0  0
   37.9160   33.0630   44.4450 O   0  0  0  0  0  0  0  0  0  0  0  0
   38.4070   33.1140   43.5680 H   0  0  0  0  0  0  0  0  0  0  0  0
  1 17  1  6  0  0  0
  1  2  1  0  0  0  0
  2  3  1  0  0  0  0
  2  9  1  1  0  0  0
  4  3  1  0  0  0  0
  5 19  1  1  0  0  0
  5  4  1  0  0  0  0
  6 21  1  1  0  0  0
  6  5  1  0  0  0  0
  6  1  1  0  0  0  0
  7 15  1  0  0  0  0
  8 13  1  0  0  0  0
  8  7  2  0  0  0  0
  9  8  1  0  0  0  0
 10  9  2  0  0  0  0
 10 11  1  0  0  0  0
 11 12  2  0  0  0  0
 12  7  1  0  0  0  0
 14 11  1  0  0  0  0
 15 16  1  0  0  0  0
 18 17  1  0  0  0  0
 20 19  1  0  0  0  0
 22 21  1  0  0  0  0
M  END
>  <minimizedAffinity>
-5.38640833

>  <minimizedRMSD>
1.36670136

$$$$
