
 OpenBabel03272507343D

 39 42  0  0  1  0  0  0  0  0999 V2000
   33.2140   27.5610   48.2060 C   0  0  0  0  0  0  0  0  0  0  0  0
   31.9770   27.5050   48.5140 O   0  0  0  0  0  0  0  0  0  0  0  0
   35.9380   29.2120   49.8320 C   0  0  0  0  0  0  0  0  0  0  0  0
   34.9150   29.6350   50.6560 C   0  0  0  0  0  0  0  0  0  0  0  0
   33.7250   29.0750   50.1650 C   0  0  0  0  0  0  0  0  0  0  0  0
   34.1050   28.3420   49.0650 C   0  0  0  0  0  0  0  0  0  0  0  0
   35.4080   28.4500   48.9070 O   0  0  0  0  0  0  0  0  0  0  0  0
   34.9720   30.2800   51.5320 H   0  0  0  0  0  0  0  0  0  0  0  0
   32.7330   29.1740   50.5330 H   0  0  0  0  0  0  0  0  0  0  0  0
   37.3190   29.6060   50.0510 C   0  0  0  0  0  0  0  0  0  0  0  0
   37.9730   29.0520   50.9480 O   0  0  0  0  0  0  0  0  0  0  0  0
   37.8480   30.6320   49.1970 C   0  0  0  0  0  0  0  0  0  0  0  0
   38.1830   31.8390   49.7950 C   0  0  0  0  0  0  0  0  0  0  0  0
   38.6980   32.8620   48.9890 C   0  0  0  0  0  0  0  0  0  0  0  0
   38.8430   32.6110   47.6460 N   0  0  0  0  0  0  0  0  0  0  0  0
   38.5110   31.4390   47.1070 C   0  0  0  0  0  0  0  0  0  0  0  0
   38.0160   30.4490   47.8690 N   0  0  0  0  0  0  0  0  0  0  0  0
   38.0640   32.0180   50.8390 H   0  0  0  0  0  0  0  0  0  0  0  0
   38.9750   33.8250   49.4130 H   0  0  0  0  0  0  0  0  0  0  0  0
   38.6370   31.2720   46.0510 H   0  0  0  0  0  0  0  0  0  0  0  0
   33.7490   26.8440   47.0030 C   0  0  1  0  0  0  0  0  0  0  0  0
   33.8090   25.2930   47.2880 C   0  0  0  0  0  0  0  0  0  0  0  0
   32.9160   25.8920   46.2640 C   0  0  2  0  0  0  0  0  0  0  0  0
   34.7960   27.1570   46.7160 H   0  0  0  0  0  0  0  0  0  0  0  0
   33.4520   24.9420   48.2490 H   0  0  0  0  0  0  0  0  0  0  0  0
   34.6670   24.7470   46.8860 H   0  0  0  0  0  0  0  0  0  0  0  0
   31.8320   25.9140   46.5470 H   0  0  0  0  0  0  0  0  0  0  0  0
   33.2020   26.8900   44.0620 C   0  0  1  0  0  3  0  0  0  0  0  0
   33.2270   25.6220   44.7960 C   0  0  1  0  0  3  0  0  0  0  0  0
   34.3300   24.8450   44.7370 O   0  0  0  0  0  0  0  0  0  0  0  0
   35.2100   24.9740   43.7240 C   0  0  0  0  0  2  0  0  0  0  0  0
   34.7450   25.7280   42.5140 C   0  0  2  0  0  3  0  0  0  0  0  0
   34.2760   27.0780   43.0280 C   0  0  2  0  0  3  0  0  0  0  0  0
   31.9740   27.0810   43.4160 O   0  0  0  0  0  0  0  0  0  0  0  0
   31.9700   28.0140   43.0620 H   0  0  0  0  0  0  0  0  0  0  0  0
   33.7230   25.0480   41.8650 O   0  0  0  0  0  0  0  0  0  0  0  0
   34.0020   24.9660   40.9250 H   0  0  0  0  0  0  0  0  0  0  0  0
   35.3960   27.6870   43.6240 O   0  0  0  0  0  0  0  0  0  0  0  0
   36.1510   27.6830   42.9760 H   0  0  0  0  0  0  0  0  0  0  0  0
  1  2  2  0  0  0  0
  1  6  1  0  0  0  0
  3 10  1  0  0  0  0
  3  4  2  0  0  0  0
  4  8  1  0  0  0  0
  5  9  1  0  0  0  0
  5  4  1  0  0  0  0
  6  5  2  0  0  0  0
  7  6  1  0  0  0  0
  7  3  1  0  0  0  0
 10 11  2  0  0  0  0
 12 13  1  0  0  0  0
 12 10  1  0  0  0  0
 13 18  1  0  0  0  0
 14 19  1  0  0  0  0
 14 13  2  0  0  0  0
 15 14  1  0  0  0  0
 16 15  2  0  0  0  0
 16 17  1  0  0  0  0
 17 12  2  0  0  0  0
 20 16  1  0  0  0  0
 21 24  1  6  0  0  0
 21 22  1  0  0  0  0
 21  1  1  0  0  0  0
 22 25  1  0  0  0  0
 23 27  1  1  0  0  0
 23 21  1  0  0  0  0
 23 22  1  0  0  0  0
 26 22  1  0  0  0  0
 28 34  1  6  0  0  0
 28 29  1  0  0  0  0
 29 30  1  1  0  0  0
 29 23  1  0  0  0  0
 31 30  1  0  0  0  0
 32 36  1  1  0  0  0
 32 33  1  0  0  0  0
 32 31  1  0  0  0  0
 33 38  1  1  0  0  0
 33 28  1  0  0  0  0
 35 34  1  0  0  0  0
 37 36  1  0  0  0  0
 39 38  1  0  0  0  0
M  END
>  <minimizedAffinity>
-5.03839159

>  <minimizedRMSD>
1.22943616

$$$$
