
 OpenBabel03272506003D

 47 50  0  0  1  0  0  0  0  0999 V2000
   35.6900   28.3540   31.7260 C   0  0  2  0  0  0  0  0  0  0  0  0
   35.9360   26.9550   32.1560 C   0  0  0  0  0  0  0  0  0  0  0  0
   37.4120   26.6980   32.5020 C   0  0  2  0  0  0  0  0  0  0  0  0
   38.3460   27.0310   31.4290 C   0  0  0  0  0  0  0  0  0  0  0  0
   37.9860   28.3110   30.6880 C   0  0  0  0  0  0  0  0  0  0  0  0
   36.9570   29.1170   31.4230 C   0  0  0  0  0  0  0  0  0  0  0  0
   35.0890   28.4180   30.7700 H   0  0  0  0  0  0  0  0  0  0  0  0
   35.4330   26.5340   32.9980 H   0  0  0  0  0  0  0  0  0  0  0  0
   35.7010   26.2550   31.2870 H   0  0  0  0  0  0  0  0  0  0  0  0
   37.6080   27.2240   33.4420 H   0  0  0  0  0  0  0  0  0  0  0  0
   39.3760   27.0790   31.8470 H   0  0  0  0  0  0  0  0  0  0  0  0
   38.3930   26.2510   30.6440 H   0  0  0  0  0  0  0  0  0  0  0  0
   38.9080   28.9270   30.6590 H   0  0  0  0  0  0  0  0  0  0  0  0
   37.6980   28.1500   29.6430 H   0  0  0  0  0  0  0  0  0  0  0  0
   37.3390   29.5200   32.3740 H   0  0  0  0  0  0  0  0  0  0  0  0
   36.6950   29.9880   30.7980 H   0  0  0  0  0  0  0  0  0  0  0  0
   39.0440   25.9270   34.8340 Cl  0  0  0  0  0  0  0  0  0  0  0  0
   38.2210   24.7470   33.8270 C   0  0  0  0  0  0  0  0  0  0  0  0
   37.4540   25.2310   32.7810 C   0  0  0  0  0  0  0  0  0  0  0  0
   36.8300   24.2310   32.0680 C   0  0  0  0  0  0  0  0  0  0  0  0
   36.9640   22.8910   32.3710 C   0  0  0  0  0  0  0  0  0  0  0  0
   37.7550   22.4910   33.4400 C   0  0  0  0  0  0  0  0  0  0  0  0
   38.4050   23.4580   34.1920 C   0  0  0  0  0  0  0  0  0  0  0  0
   36.2080   24.5340   31.2350 H   0  0  0  0  0  0  0  0  0  0  0  0
   36.4200   22.1950   31.7330 H   0  0  0  0  0  0  0  0  0  0  0  0
   37.8300   21.4390   33.6390 H   0  0  0  0  0  0  0  0  0  0  0  0
   38.4560   22.9020   36.6100 C   0  0  1  0  0  3  0  0  0  0  0  0
   39.2470   23.0320   35.3290 C   0  0  2  0  0  3  0  0  0  0  0  0
   40.3330   23.8910   35.5090 O   0  0  0  0  0  0  0  0  0  0  0  0
   41.3240   23.2630   36.2420 C   0  0  0  0  0  2  0  0  0  0  0  0
   40.7760   22.5900   37.4800 C   0  0  1  0  0  3  0  0  0  0  0  0
   39.3970   23.1440   37.7650 C   0  0  2  0  0  3  0  0  0  0  0  0
   37.4570   23.8670   36.7060 O   0  0  0  0  0  0  0  0  0  0  0  0
   37.7100   24.6180   37.3150 H   0  0  0  0  0  0  0  0  0  0  0  0
   40.6760   21.2160   37.3470 O   0  0  0  0  0  0  0  0  0  0  0  0
   41.4150   20.8520   36.7790 H   0  0  0  0  0  0  0  0  0  0  0  0
   38.8870   22.5660   38.9080 O   0  0  0  0  0  0  0  0  0  0  0  0
   39.1330   23.1310   39.7010 H   0  0  0  0  0  0  0  0  0  0  0  0
   34.9340   29.1330   32.7210 C   0  0  0  0  0  0  0  0  0  0  0  0
   35.7080   29.7430   33.7090 C   0  0  0  0  0  0  0  0  0  0  0  0
   35.0400   30.5130   34.6730 C   0  0  0  0  0  0  0  0  0  0  0  0
   33.6550   30.6290   34.5970 N   0  0  0  0  0  0  0  0  0  0  0  0
   32.9520   30.0190   33.6230 C   0  0  0  0  0  0  0  0  0  0  0  0
   33.6090   29.2930   32.7170 N   0  0  0  0  0  0  0  0  0  0  0  0
   36.7320   29.8340   34.0250 H   0  0  0  0  0  0  0  0  0  0  0  0
   35.3680   31.0740   35.5140 H   0  0  0  0  0  0  0  0  0  0  0  0
   31.8770   30.1020   33.5560 H   0  0  0  0  0  0  0  0  0  0  0  0
  1  7  1  6  0  0  0
  1  2  1  0  0  0  0
  1 39  1  0  0  0  0
  2  3  1  0  0  0  0
  2  8  1  0  0  0  0
  3 19  1  0  0  0  0
  3 10  1  1  0  0  0
  4 11  1  0  0  0  0
  4  3  1  0  0  0  0
  5  6  1  0  0  0  0
  5  4  1  0  0  0  0
  6  1  1  0  0  0  0
  6 15  1  0  0  0  0
  9  2  1  0  0  0  0
 12  4  1  0  0  0  0
 13  5  1  0  0  0  0
 14  5  1  0  0  0  0
 16  6  1  0  0  0  0
 18 23  1  0  0  0  0
 18 17  1  0  0  0  0
 19 18  2  0  0  0  0
 20 21  2  0  0  0  0
 20 19  1  0  0  0  0
 21 22  1  0  0  0  0
 22 26  1  0  0  0  0
 22 23  2  0  0  0  0
 24 20  1  0  0  0  0
 25 21  1  0  0  0  0
 27 33  1  6  0  0  0
 27 32  1  0  0  0  0
 28 23  1  6  0  0  0
 28 29  1  0  0  0  0
 28 27  1  0  0  0  0
 29 30  1  0  0  0  0
 30 31  1  0  0  0  0
 31 35  1  6  0  0  0
 31 32  1  0  0  0  0
 32 37  1  1  0  0  0
 33 34  1  0  0  0  0
 36 35  1  0  0  0  0
 37 38  1  0  0  0  0
 39 40  1  0  0  0  0
 40 45  1  0  0  0  0
 40 41  2  0  0  0  0
 41 46  1  0  0  0  0
 42 41  1  0  0  0  0
 43 42  2  0  0  0  0
 44 39  2  0  0  0  0
 44 43  1  0  0  0  0
 47 43  1  0  0  0  0
M  END
>  <minimizedAffinity>
-7.027668

$$$$

 OpenBabel03272506003D

 47 50  0  0  1  0  0  0  0  0999 V2000
   37.9110   25.2000   32.7720 C   0  0  2  0  0  0  0  0  0  0  0  0
   37.6390   26.6550   32.6580 C   0  0  0  0  0  0  0  0  0  0  0  0
   36.1900   26.9510   32.2410 C   0  0  2  0  0  0  0  0  0  0  0  0
   35.7770   26.2980   31.0010 C   0  0  0  0  0  0  0  0  0  0  0  0
   36.2960   24.8730   30.8650 C   0  0  0  0  0  0  0  0  0  0  0  0
   36.8290   24.3420   32.1620 C   0  0  0  0  0  0  0  0  0  0  0  0
   38.8540   24.8880   32.2310 H   0  0  0  0  0  0  0  0  0  0  0  0
   37.7710   27.3120   33.4890 H   0  0  0  0  0  0  0  0  0  0  0  0
   38.2890   27.0880   31.8280 H   0  0  0  0  0  0  0  0  0  0  0  0
   35.5610   26.7050   33.1030 H   0  0  0  0  0  0  0  0  0  0  0  0
   34.6690   26.3360   30.9220 H   0  0  0  0  0  0  0  0  0  0  0  0
   36.1460   26.8220   30.0980 H   0  0  0  0  0  0  0  0  0  0  0  0
   35.4210   24.2440   30.6010 H   0  0  0  0  0  0  0  0  0  0  0  0
   37.0180   24.7410   30.0500 H   0  0  0  0  0  0  0  0  0  0  0  0
   36.0400   24.2110   32.9190 H   0  0  0  0  0  0  0  0  0  0  0  0
   37.2480   23.3390   31.9730 H   0  0  0  0  0  0  0  0  0  0  0  0
   35.7290   28.4780   34.7210 Cl  0  0  0  0  0  0  0  0  0  0  0  0
   35.9250   29.2540   33.1570 C   0  0  0  0  0  0  0  0  0  0  0  0
   36.1730   28.4350   32.0700 C   0  0  0  0  0  0  0  0  0  0  0  0
   36.3370   29.1370   30.8960 C   0  0  0  0  0  0  0  0  0  0  0  0
   36.2580   30.5130   30.8230 C   0  0  0  0  0  0  0  0  0  0  0  0
   36.0050   31.2620   31.9650 C   0  0  0  0  0  0  0  0  0  0  0  0
   35.8320   30.6030   33.1740 C   0  0  0  0  0  0  0  0  0  0  0  0
   36.5390   28.5630   30.0010 H   0  0  0  0  0  0  0  0  0  0  0  0
   36.4050   30.9540   29.8380 H   0  0  0  0  0  0  0  0  0  0  0  0
   35.9510   32.3290   31.8620 H   0  0  0  0  0  0  0  0  0  0  0  0
   34.0860   31.4890   34.6990 C   0  0  1  0  0  3  0  0  0  0  0  0
   35.5620   31.4000   34.3900 C   0  0  2  0  0  3  0  0  0  0  0  0
   36.1220   32.6750   34.2970 O   0  0  0  0  0  0  0  0  0  0  0  0
   36.2600   33.2300   35.5570 C   0  0  0  0  0  2  0  0  0  0  0  0
   34.9960   33.0990   36.3780 C   0  0  1  0  0  3  0  0  0  0  0  0
   33.8450   32.7750   35.4490 C   0  0  2  0  0  3  0  0  0  0  0  0
   33.3150   31.5570   33.5420 O   0  0  0  0  0  0  0  0  0  0  0  0
   33.0030   32.4860   33.3450 H   0  0  0  0  0  0  0  0  0  0  0  0
   35.0770   32.1030   37.3360 O   0  0  0  0  0  0  0  0  0  0  0  0
   36.0060   32.0260   37.7010 H   0  0  0  0  0  0  0  0  0  0  0  0
   32.6750   32.6790   36.1720 O   0  0  0  0  0  0  0  0  0  0  0  0
   32.2280   33.5780   36.1980 H   0  0  0  0  0  0  0  0  0  0  0  0
   38.0900   24.7580   34.1650 C   0  0  0  0  0  0  0  0  0  0  0  0
   38.1090   25.7820   35.1140 C   0  0  0  0  0  0  0  0  0  0  0  0
   38.2600   25.4140   36.4600 C   0  0  0  0  0  0  0  0  0  0  0  0
   38.3830   24.0660   36.7770 N   0  0  0  0  0  0  0  0  0  0  0  0
   38.3610   23.1140   35.8240 C   0  0  0  0  0  0  0  0  0  0  0  0
   38.2150   23.4870   34.5510 N   0  0  0  0  0  0  0  0  0  0  0  0
   38.0490   26.8530   35.1820 H   0  0  0  0  0  0  0  0  0  0  0  0
   38.3060   25.9680   37.3650 H   0  0  0  0  0  0  0  0  0  0  0  0
   38.4550   22.0650   36.0600 H   0  0  0  0  0  0  0  0  0  0  0  0
  1  7  1  6  0  0  0
  1 39  1  0  0  0  0
  2  1  1  0  0  0  0
  2  8  1  0  0  0  0
  3  2  1  0  0  0  0
  3 10  1  1  0  0  0
  4  3  1  0  0  0  0
  5  4  1  0  0  0  0
  5  6  1  0  0  0  0
  6  1  1  0  0  0  0
  6 15  1  0  0  0  0
  9  2  1  0  0  0  0
 11  4  1  0  0  0  0
 12  4  1  0  0  0  0
 13  5  1  0  0  0  0
 14  5  1  0  0  0  0
 16  6  1  0  0  0  0
 18 23  1  0  0  0  0
 18 17  1  0  0  0  0
 19  3  1  0  0  0  0
 19 18  2  0  0  0  0
 20 19  1  0  0  0  0
 21 20  2  0  0  0  0
 21 22  1  0  0  0  0
 22 23  2  0  0  0  0
 24 20  1  0  0  0  0
 25 21  1  0  0  0  0
 26 22  1  0  0  0  0
 27 33  1  6  0  0  0
 27 32  1  0  0  0  0
 28 23  1  6  0  0  0
 28 27  1  0  0  0  0
 29 28  1  0  0  0  0
 29 30  1  0  0  0  0
 30 31  1  0  0  0  0
 31 35  1  1  0  0  0
 32 37  1  1  0  0  0
 32 31  1  0  0  0  0
 34 33  1  0  0  0  0
 35 36  1  0  0  0  0
 37 38  1  0  0  0  0
 39 44  2  0  0  0  0
 39 40  1  0  0  0  0
 40 45  1  0  0  0  0
 40 41  2  0  0  0  0
 41 42  1  0  0  0  0
 41 46  1  0  0  0  0
 43 47  1  0  0  0  0
 43 42  2  0  0  0  0
 44 43  1  0  0  0  0
M  END
>  <minimizedAffinity>
-6.3183322

$$$$

 OpenBabel03272506003D

 47 50  0  0  1  0  0  0  0  0999 V2000
   34.8700   30.1790   32.7940 C   0  0  2  0  0  0  0  0  0  0  0  0
   35.2000   28.7330   32.7330 C   0  0  0  0  0  0  0  0  0  0  0  0
   36.6660   28.4800   32.3470 C   0  0  2  0  0  0  0  0  0  0  0  0
   37.0730   29.1080   31.0920 C   0  0  0  0  0  0  0  0  0  0  0  0
   36.5020   30.5070   30.9010 C   0  0  0  0  0  0  0  0  0  0  0  0
   35.9280   31.0590   32.1720 C   0  0  0  0  0  0  0  0  0  0  0  0
   33.9250   30.4370   32.2290 H   0  0  0  0  0  0  0  0  0  0  0  0
   35.0800   28.0990   33.5820 H   0  0  0  0  0  0  0  0  0  0  0  0
   34.5800   28.2480   31.9070 H   0  0  0  0  0  0  0  0  0  0  0  0
   37.2710   28.7780   33.2100 H   0  0  0  0  0  0  0  0  0  0  0  0
   38.1830   29.1110   31.0310 H   0  0  0  0  0  0  0  0  0  0  0  0
   36.7390   28.5410   30.2020 H   0  0  0  0  0  0  0  0  0  0  0  0
   37.3570   31.1600   30.6300 H   0  0  0  0  0  0  0  0  0  0  0  0
   35.7890   30.5830   30.0720 H   0  0  0  0  0  0  0  0  0  0  0  0
   36.7000   31.2450   32.9350 H   0  0  0  0  0  0  0  0  0  0  0  0
   35.4740   32.0380   31.9440 H   0  0  0  0  0  0  0  0  0  0  0  0
   37.8060   27.1030   34.6920 Cl  0  0  0  0  0  0  0  0  0  0  0  0
   37.2980   26.2430   33.2480 C   0  0  0  0  0  0  0  0  0  0  0  0
   36.7430   26.9930   32.2250 C   0  0  0  0  0  0  0  0  0  0  0  0
   36.3530   26.2270   31.1490 C   0  0  0  0  0  0  0  0  0  0  0  0
   36.5060   24.8560   31.1040 C   0  0  0  0  0  0  0  0  0  0  0  0
   37.0740   24.1790   32.1760 C   0  0  0  0  0  0  0  0  0  0  0  0
   37.4830   24.9040   33.2860 C   0  0  0  0  0  0  0  0  0  0  0  0
   35.9060   26.7450   30.3110 H   0  0  0  0  0  0  0  0  0  0  0  0
   36.1590   24.3600   30.1980 H   0  0  0  0  0  0  0  0  0  0  0  0
   37.1730   23.1140   32.0980 H   0  0  0  0  0  0  0  0  0  0  0  0
   39.5850   24.3700   34.4900 C   0  0  1  0  0  3  0  0  0  0  0  0
   38.0880   24.1840   34.4260 C   0  0  2  0  0  3  0  0  0  0  0  0
   37.7620   22.8270   34.4020 O   0  0  0  0  0  0  0  0  0  0  0  0
   37.9350   22.2700   35.6570 C   0  0  0  0  0  2  0  0  0  0  0  0
   39.2700   22.6400   36.2640 C   0  0  1  0  0  3  0  0  0  0  0  0
   40.1760   23.1570   35.1680 C   0  0  2  0  0  3  0  0  0  0  0  0
   40.1580   24.4300   33.2220 O   0  0  0  0  0  0  0  0  0  0  0  0
   40.5970   23.5710   32.9610 H   0  0  0  0  0  0  0  0  0  0  0  0
   39.1660   23.6140   37.2410 O   0  0  0  0  0  0  0  0  0  0  0  0
   38.3110   23.5240   37.7540 H   0  0  0  0  0  0  0  0  0  0  0  0
   41.4110   23.4740   35.6920 O   0  0  0  0  0  0  0  0  0  0  0  0
   42.0120   22.6720   35.6290 H   0  0  0  0  0  0  0  0  0  0  0  0
   34.6520   30.6590   34.1680 C   0  0  0  0  0  0  0  0  0  0  0  0
   35.7850   31.1710   34.8050 C   0  0  0  0  0  0  0  0  0  0  0  0
   35.6290   31.6580   36.1110 C   0  0  0  0  0  0  0  0  0  0  0  0
   34.3700   31.6070   36.7010 N   0  0  0  0  0  0  0  0  0  0  0  0
   33.3070   31.1020   36.0450 C   0  0  0  0  0  0  0  0  0  0  0  0
   33.4790   30.6460   34.8030 N   0  0  0  0  0  0  0  0  0  0  0  0
   36.8340   31.3320   34.6320 H   0  0  0  0  0  0  0  0  0  0  0  0
   36.3000   32.0920   36.8120 H   0  0  0  0  0  0  0  0  0  0  0  0
   32.3260   31.0580   36.4940 H   0  0  0  0  0  0  0  0  0  0  0  0
  1  7  1  6  0  0  0
  1 39  1  0  0  0  0
  2  1  1  0  0  0  0
  2  8  1  0  0  0  0
  3  2  1  0  0  0  0
  3 10  1  1  0  0  0
  4  3  1  0  0  0  0
  5  4  1  0  0  0  0
  5  6  1  0  0  0  0
  6  1  1  0  0  0  0
  6 15  1  0  0  0  0
  9  2  1  0  0  0  0
 11  4  1  0  0  0  0
 12  4  1  0  0  0  0
 13  5  1  0  0  0  0
 14  5  1  0  0  0  0
 16  6  1  0  0  0  0
 18 23  1  0  0  0  0
 18 17  1  0  0  0  0
 19  3  1  0  0  0  0
 19 18  2  0  0  0  0
 20 19  1  0  0  0  0
 21 20  2  0  0  0  0
 21 22  1  0  0  0  0
 22 23  2  0  0  0  0
 24 20  1  0  0  0  0
 25 21  1  0  0  0  0
 26 22  1  0  0  0  0
 27 33  1  6  0  0  0
 27 32  1  0  0  0  0
 28 23  1  6  0  0  0
 28 27  1  0  0  0  0
 29 28  1  0  0  0  0
 29 30  1  0  0  0  0
 30 31  1  0  0  0  0
 31 35  1  1  0  0  0
 32 37  1  1  0  0  0
 32 31  1  0  0  0  0
 34 33  1  0  0  0  0
 35 36  1  0  0  0  0
 38 37  1  0  0  0  0
 39 44  2  0  0  0  0
 39 40  1  0  0  0  0
 40 41  2  0  0  0  0
 41 42  1  0  0  0  0
 41 46  1  0  0  0  0
 43 47  1  0  0  0  0
 43 42  2  0  0  0  0
 44 43  1  0  0  0  0
 45 40  1  0  0  0  0
M  END
>  <minimizedAffinity>
-6.30207396

$$$$

 OpenBabel03272506003D

 47 50  0  0  1  0  0  0  0  0999 V2000
   34.9310   30.0590   32.8860 C   0  0  2  0  0  0  0  0  0  0  0  0
   35.2460   28.6080   32.8900 C   0  0  0  0  0  0  0  0  0  0  0  0
   36.7180   28.3250   32.5520 C   0  0  2  0  0  0  0  0  0  0  0  0
   37.1630   28.8980   31.2830 C   0  0  0  0  0  0  0  0  0  0  0  0
   36.6130   30.2930   31.0230 C   0  0  0  0  0  0  0  0  0  0  0  0
   36.0140   30.9020   32.2570 C   0  0  0  0  0  0  0  0  0  0  0  0
   34.0030   30.3040   32.2880 H   0  0  0  0  0  0  0  0  0  0  0  0
   35.0980   28.0090   33.7610 H   0  0  0  0  0  0  0  0  0  0  0  0
   34.6410   28.0970   32.0700 H   0  0  0  0  0  0  0  0  0  0  0  0
   37.3050   28.6500   33.4170 H   0  0  0  0  0  0  0  0  0  0  0  0
   38.2740   28.8860   31.2500 H   0  0  0  0  0  0  0  0  0  0  0  0
   36.8440   28.2990   30.4080 H   0  0  0  0  0  0  0  0  0  0  0  0
   37.4810   30.9260   30.7480 H   0  0  0  0  0  0  0  0  0  0  0  0
   35.9210   30.3440   30.1740 H   0  0  0  0  0  0  0  0  0  0  0  0
   36.7690   31.1100   33.0310 H   0  0  0  0  0  0  0  0  0  0  0  0
   35.5770   31.8760   31.9780 H   0  0  0  0  0  0  0  0  0  0  0  0
   38.7140   27.0950   34.3410 Cl  0  0  0  0  0  0  0  0  0  0  0  0
   37.7070   26.1480   33.2570 C   0  0  0  0  0  0  0  0  0  0  0  0
   36.7800   26.8330   32.4910 C   0  0  0  0  0  0  0  0  0  0  0  0
   36.0240   26.0020   31.6940 C   0  0  0  0  0  0  0  0  0  0  0  0
   36.1830   24.6320   31.6680 C   0  0  0  0  0  0  0  0  0  0  0  0
   37.1400   24.0220   32.4700 C   0  0  0  0  0  0  0  0  0  0  0  0
   37.9280   24.8140   33.2920 C   0  0  0  0  0  0  0  0  0  0  0  0
   35.2730   26.4680   31.0690 H   0  0  0  0  0  0  0  0  0  0  0  0
   35.5250   24.0810   30.9970 H   0  0  0  0  0  0  0  0  0  0  0  0
   37.2290   22.9540   32.4180 H   0  0  0  0  0  0  0  0  0  0  0  0
   38.3650   23.6570   35.4440 C   0  0  1  0  0  3  0  0  0  0  0  0
   38.9460   24.1660   34.1460 C   0  0  2  0  0  3  0  0  0  0  0  0
   40.0230   25.0200   34.3920 O   0  0  0  0  0  0  0  0  0  0  0  0
   41.1320   24.2920   34.7850 C   0  0  0  0  0  2  0  0  0  0  0  0
   40.7990   23.2870   35.8650 C   0  0  1  0  0  3  0  0  0  0  0  0
   39.4650   23.6560   36.4770 C   0  0  2  0  0  3  0  0  0  0  0  0
   37.3670   24.4960   35.9320 O   0  0  0  0  0  0  0  0  0  0  0  0
   37.6890   25.0800   36.6770 H   0  0  0  0  0  0  0  0  0  0  0  0
   40.7170   21.9910   35.3880 O   0  0  0  0  0  0  0  0  0  0  0  0
   41.3700   21.8350   34.6450 H   0  0  0  0  0  0  0  0  0  0  0  0
   39.1530   22.7700   37.4860 O   0  0  0  0  0  0  0  0  0  0  0  0
   39.5020   23.1260   38.3580 H   0  0  0  0  0  0  0  0  0  0  0  0
   34.6850   30.5960   34.2350 C   0  0  0  0  0  0  0  0  0  0  0  0
   35.8130   31.0910   34.8910 C   0  0  0  0  0  0  0  0  0  0  0  0
   35.6320   31.6300   36.1740 C   0  0  0  0  0  0  0  0  0  0  0  0
   34.3530   31.6440   36.7210 N   0  0  0  0  0  0  0  0  0  0  0  0
   33.2950   31.1510   36.0480 C   0  0  0  0  0  0  0  0  0  0  0  0
   33.4920   30.6450   34.8290 N   0  0  0  0  0  0  0  0  0  0  0  0
   36.8720   31.2100   34.7490 H   0  0  0  0  0  0  0  0  0  0  0  0
   36.2940   32.0660   36.8810 H   0  0  0  0  0  0  0  0  0  0  0  0
   32.2990   31.1570   36.4640 H   0  0  0  0  0  0  0  0  0  0  0  0
  1  7  1  6  0  0  0
  1  2  1  0  0  0  0
  1 39  1  0  0  0  0
  2  8  1  0  0  0  0
  3  2  1  0  0  0  0
  3 10  1  1  0  0  0
  4  3  1  0  0  0  0
  5  4  1  0  0  0  0
  5  6  1  0  0  0  0
  6  1  1  0  0  0  0
  6 15  1  0  0  0  0
  9  2  1  0  0  0  0
 11  4  1  0  0  0  0
 12  4  1  0  0  0  0
 13  5  1  0  0  0  0
 14  5  1  0  0  0  0
 16  6  1  0  0  0  0
 18 23  1  0  0  0  0
 18 17  1  0  0  0  0
 19  3  1  0  0  0  0
 19 18  2  0  0  0  0
 20 19  1  0  0  0  0
 21 20  2  0  0  0  0
 21 22  1  0  0  0  0
 22 23  2  0  0  0  0
 24 20  1  0  0  0  0
 25 21  1  0  0  0  0
 26 22  1  0  0  0  0
 27 33  1  1  0  0  0
 27 32  1  0  0  0  0
 28 23  1  1  0  0  0
 28 29  1  0  0  0  0
 28 27  1  0  0  0  0
 29 30  1  0  0  0  0
 30 31  1  0  0  0  0
 31 35  1  6  0  0  0
 31 32  1  0  0  0  0
 32 37  1  1  0  0  0
 33 34  1  0  0  0  0
 36 35  1  0  0  0  0
 37 38  1  0  0  0  0
 39 44  2  0  0  0  0
 39 40  1  0  0  0  0
 40 41  2  0  0  0  0
 41 42  1  0  0  0  0
 41 46  1  0  0  0  0
 43 47  1  0  0  0  0
 43 42  2  0  0  0  0
 44 43  1  0  0  0  0
 45 40  1  0  0  0  0
M  END
>  <minimizedAffinity>
-6.25265074

$$$$

 OpenBabel03272506003D

 47 50  0  0  1  0  0  0  0  0999 V2000
   40.0730   24.8010   34.7550 C   0  0  2  0  0  0  0  0  0  0  0  0
   38.8220   25.0380   33.9930 C   0  0  0  0  0  0  0  0  0  0  0  0
   38.7690   24.2310   32.6850 C   0  0  2  0  0  0  0  0  0  0  0  0
   39.9080   24.4520   31.7980 C   0  0  0  0  0  0  0  0  0  0  0  0
   41.2370   24.5580   32.5330 C   0  0  0  0  0  0  0  0  0  0  0  0
   41.1340   24.0870   33.9530 C   0  0  0  0  0  0  0  0  0  0  0  0
   40.5710   25.7610   35.0860 H   0  0  0  0  0  0  0  0  0  0  0  0
   37.8640   24.8360   34.4190 H   0  0  0  0  0  0  0  0  0  0  0  0
   38.7830   26.1330   33.6760 H   0  0  0  0  0  0  0  0  0  0  0  0
   38.6240   23.1840   32.9710 H   0  0  0  0  0  0  0  0  0  0  0  0
   39.9310   23.6470   31.0300 H   0  0  0  0  0  0  0  0  0  0  0  0
   39.8250   25.3940   31.2220 H   0  0  0  0  0  0  0  0  0  0  0  0
   41.9350   23.8650   32.0200 H   0  0  0  0  0  0  0  0  0  0  0  0
   41.6970   25.5510   32.4720 H   0  0  0  0  0  0  0  0  0  0  0  0
   40.9360   23.0060   34.0240 H   0  0  0  0  0  0  0  0  0  0  0  0
   42.1090   24.2570   34.4400 H   0  0  0  0  0  0  0  0  0  0  0  0
   38.5650   27.1570   32.3720 Cl  0  0  0  0  0  0  0  0  0  0  0  0
   37.2860   26.0620   31.8700 C   0  0  0  0  0  0  0  0  0  0  0  0
   37.5110   24.7060   32.0340 C   0  0  0  0  0  0  0  0  0  0  0  0
   36.4630   23.9320   31.5880 C   0  0  0  0  0  0  0  0  0  0  0  0
   35.3120   24.4620   31.0400 C   0  0  0  0  0  0  0  0  0  0  0  0
   35.1670   25.8370   30.9120 C   0  0  0  0  0  0  0  0  0  0  0  0
   36.1940   26.6630   31.3450 C   0  0  0  0  0  0  0  0  0  0  0  0
   36.5690   22.8590   31.6800 H   0  0  0  0  0  0  0  0  0  0  0  0
   34.5530   23.7470   30.7240 H   0  0  0  0  0  0  0  0  0  0  0  0
   34.2560   26.2050   30.4800 H   0  0  0  0  0  0  0  0  0  0  0  0
   36.5230   28.6310   29.8690 C   0  0  1  0  0  3  0  0  0  0  0  0
   36.0390   28.1270   31.2090 C   0  0  2  0  0  3  0  0  0  0  0  0
   36.6790   28.8050   32.2480 O   0  0  0  0  0  0  0  0  0  0  0  0
   36.1690   30.0850   32.3700 C   0  0  0  0  0  2  0  0  0  0  0  0
   36.0930   30.7960   31.0380 C   0  0  1  0  0  3  0  0  0  0  0  0
   36.9680   30.0630   30.0450 C   0  0  2  0  0  3  0  0  0  0  0  0
   37.6340   27.9250   29.4170 O   0  0  0  0  0  0  0  0  0  0  0  0
   38.4870   28.4290   29.5540 H   0  0  0  0  0  0  0  0  0  0  0  0
   34.8070   30.8520   30.5300 O   0  0  0  0  0  0  0  0  0  0  0  0
   34.1310   30.9390   31.2630 H   0  0  0  0  0  0  0  0  0  0  0  0
   36.9380   30.7100   28.8280 O   0  0  0  0  0  0  0  0  0  0  0  0
   37.6860   31.3790   28.7910 H   0  0  0  0  0  0  0  0  0  0  0  0
   39.8550   24.0240   35.9870 C   0  0  0  0  0  0  0  0  0  0  0  0
   40.8810   23.1370   36.3160 C   0  0  0  0  0  0  0  0  0  0  0  0
   40.7330   22.3830   37.4910 C   0  0  0  0  0  0  0  0  0  0  0  0
   39.5850   22.5550   38.2580 N   0  0  0  0  0  0  0  0  0  0  0  0
   38.6210   23.4240   37.8960 C   0  0  0  0  0  0  0  0  0  0  0  0
   38.7850   24.1310   36.7760 N   0  0  0  0  0  0  0  0  0  0  0  0
   41.8310   22.7900   35.9500 H   0  0  0  0  0  0  0  0  0  0  0  0
   41.3390   21.6540   37.9700 H   0  0  0  0  0  0  0  0  0  0  0  0
   37.7270   23.5650   38.4840 H   0  0  0  0  0  0  0  0  0  0  0  0
  1  7  1  1  0  0  0
  1 39  1  0  0  0  0
  2  8  1  0  0  0  0
  2  1  1  0  0  0  0
  3 10  1  1  0  0  0
  3  2  1  0  0  0  0
  4  5  1  0  0  0  0
  4  3  1  0  0  0  0
  5  6  1  0  0  0  0
  6 15  1  0  0  0  0
  6 16  1  0  0  0  0
  6  1  1  0  0  0  0
  9  2  1  0  0  0  0
 11  4  1  0  0  0  0
 12  4  1  0  0  0  0
 13  5  1  0  0  0  0
 14  5  1  0  0  0  0
 18 19  1  0  0  0  0
 18 17  1  0  0  0  0
 19  3  1  0  0  0  0
 20 24  1  0  0  0  0
 20 19  2  0  0  0  0
 21 20  1  0  0  0  0
 22 21  2  0  0  0  0
 22 23  1  0  0  0  0
 23 18  2  0  0  0  0
 25 21  1  0  0  0  0
 26 22  1  0  0  0  0
 27 33  1  1  0  0  0
 27 32  1  0  0  0  0
 27 28  1  0  0  0  0
 28 23  1  1  0  0  0
 28 29  1  0  0  0  0
 29 30  1  0  0  0  0
 31 35  1  6  0  0  0
 31 30  1  0  0  0  0
 32 37  1  6  0  0  0
 32 31  1  0  0  0  0
 33 34  1  0  0  0  0
 35 36  1  0  0  0  0
 38 37  1  0  0  0  0
 39 40  2  0  0  0  0
 39 44  1  0  0  0  0
 40 41  1  0  0  0  0
 41 46  1  0  0  0  0
 41 42  2  0  0  0  0
 43 42  1  0  0  0  0
 43 47  1  0  0  0  0
 44 43  2  0  0  0  0
 45 40  1  0  0  0  0
M  END
>  <minimizedAffinity>
-6.13485527

$$$$

 OpenBabel03272506003D

 47 50  0  0  1  0  0  0  0  0999 V2000
   36.3470   27.3510   31.7610 C   0  0  2  0  0  0  0  0  0  0  0  0
   36.5960   26.0850   32.4950 C   0  0  0  0  0  0  0  0  0  0  0  0
   38.0810   25.8870   32.8380 C   0  0  2  0  0  0  0  0  0  0  0  0
   38.9760   25.9450   31.6850 C   0  0  0  0  0  0  0  0  0  0  0  0
   38.6000   27.0260   30.6800 C   0  0  0  0  0  0  0  0  0  0  0  0
   37.6090   27.9990   31.2450 C   0  0  0  0  0  0  0  0  0  0  0  0
   35.7100   27.2040   30.8380 H   0  0  0  0  0  0  0  0  0  0  0  0
   36.1210   25.8810   33.4280 H   0  0  0  0  0  0  0  0  0  0  0  0
   36.3200   25.2080   31.8210 H   0  0  0  0  0  0  0  0  0  0  0  0
   38.3180   26.6130   33.6230 H   0  0  0  0  0  0  0  0  0  0  0  0
   40.0210   26.0690   32.0440 H   0  0  0  0  0  0  0  0  0  0  0  0
   38.9840   25.0040   31.1010 H   0  0  0  0  0  0  0  0  0  0  0  0
   39.5270   27.6010   30.4770 H   0  0  0  0  0  0  0  0  0  0  0  0
   38.2700   26.6330   29.7120 H   0  0  0  0  0  0  0  0  0  0  0  0
   38.0320   28.6040   32.0620 H   0  0  0  0  0  0  0  0  0  0  0  0
   37.3320   28.7070   30.4440 H   0  0  0  0  0  0  0  0  0  0  0  0
   37.2810   23.6980   31.0300 Cl  0  0  0  0  0  0  0  0  0  0  0  0
   37.7250   23.4230   32.7070 C   0  0  0  0  0  0  0  0  0  0  0  0
   38.1180   24.5240   33.4480 C   0  0  0  0  0  0  0  0  0  0  0  0
   38.4700   24.2020   34.7410 C   0  0  0  0  0  0  0  0  0  0  0  0
   38.4290   22.9140   35.2350 C   0  0  0  0  0  0  0  0  0  0  0  0
   38.0210   21.8640   34.4230 C   0  0  0  0  0  0  0  0  0  0  0  0
   37.6570   22.1340   33.1120 C   0  0  0  0  0  0  0  0  0  0  0  0
   38.7930   25.0130   35.3800 H   0  0  0  0  0  0  0  0  0  0  0  0
   38.7310   22.7860   36.2740 H   0  0  0  0  0  0  0  0  0  0  0  0
   38.0040   20.8800   34.8490 H   0  0  0  0  0  0  0  0  0  0  0  0
   35.7810   20.6330   32.4890 C   0  0  1  0  0  3  0  0  0  0  0  0
   37.2220   21.0170   32.2470 C   0  0  2  0  0  3  0  0  0  0  0  0
   38.0570   19.9070   32.3910 O   0  0  0  0  0  0  0  0  0  0  0  0
   37.9320   19.0690   31.2970 C   0  0  0  0  0  2  0  0  0  0  0  0
   36.4850   18.7940   30.9530 C   0  0  1  0  0  3  0  0  0  0  0  0
   35.6240   19.1740   32.1380 C   0  0  2  0  0  3  0  0  0  0  0  0
   35.4280   20.7560   33.8310 O   0  0  0  0  0  0  0  0  0  0  0  0
   35.4080   19.8740   34.3020 H   0  0  0  0  0  0  0  0  0  0  0  0
   36.0490   19.5050   29.8500 O   0  0  0  0  0  0  0  0  0  0  0  0
   36.7830   19.6200   29.1790 H   0  0  0  0  0  0  0  0  0  0  0  0
   34.3010   18.9040   31.8590 O   0  0  0  0  0  0  0  0  0  0  0  0
   34.0820   17.9730   32.1670 H   0  0  0  0  0  0  0  0  0  0  0  0
   35.6380   28.3540   32.5730 C   0  0  0  0  0  0  0  0  0  0  0  0
   36.2740   28.7080   33.7650 C   0  0  0  0  0  0  0  0  0  0  0  0
   35.6490   29.6740   34.5700 C   0  0  0  0  0  0  0  0  0  0  0  0
   34.4430   30.2220   34.1460 N   0  0  0  0  0  0  0  0  0  0  0  0
   33.8680   29.8450   32.9880 C   0  0  0  0  0  0  0  0  0  0  0  0
   34.4810   28.9270   32.2380 N   0  0  0  0  0  0  0  0  0  0  0  0
   37.1520   28.4760   34.3390 H   0  0  0  0  0  0  0  0  0  0  0  0
   35.9020   30.1200   35.5000 H   0  0  0  0  0  0  0  0  0  0  0  0
   32.9320   30.2650   32.6500 H   0  0  0  0  0  0  0  0  0  0  0  0
  1  7  1  6  0  0  0
  1  2  1  0  0  0  0
  1 39  1  0  0  0  0
  2  3  1  0  0  0  0
  2  8  1  0  0  0  0
  3 19  1  0  0  0  0
  3 10  1  1  0  0  0
  4 11  1  0  0  0  0
  4  3  1  0  0  0  0
  5  6  1  0  0  0  0
  5  4  1  0  0  0  0
  6  1  1  0  0  0  0
  6 15  1  0  0  0  0
  9  2  1  0  0  0  0
 12  4  1  0  0  0  0
 13  5  1  0  0  0  0
 14  5  1  0  0  0  0
 16  6  1  0  0  0  0
 17 18  1  0  0  0  0
 18 23  2  0  0  0  0
 18 19  1  0  0  0  0
 19 20  2  0  0  0  0
 20 21  1  0  0  0  0
 20 24  1  0  0  0  0
 21 25  1  0  0  0  0
 22 26  1  0  0  0  0
 22 21  2  0  0  0  0
 23 22  1  0  0  0  0
 27 33  1  1  0  0  0
 28 29  1  0  0  0  0
 28 27  1  0  0  0  0
 28 23  1  1  0  0  0
 30 29  1  0  0  0  0
 31 35  1  6  0  0  0
 31 30  1  0  0  0  0
 31 32  1  0  0  0  0
 32 37  1  6  0  0  0
 32 27  1  0  0  0  0
 33 34  1  0  0  0  0
 36 35  1  0  0  0  0
 37 38  1  0  0  0  0
 39 40  1  0  0  0  0
 40 45  1  0  0  0  0
 40 41  2  0  0  0  0
 41 46  1  0  0  0  0
 42 41  1  0  0  0  0
 43 42  2  0  0  0  0
 44 39  2  0  0  0  0
 44 43  1  0  0  0  0
 47 43  1  0  0  0  0
M  END
>  <minimizedAffinity>
-6.06954002

$$$$

 OpenBabel03272506003D

 47 50  0  0  1  0  0  0  0  0999 V2000
   38.0090   25.8310   32.9090 C   0  0  2  0  0  0  0  0  0  0  0  0
   37.6660   27.2750   32.8930 C   0  0  0  0  0  0  0  0  0  0  0  0
   36.2350   27.5340   32.3940 C   0  0  2  0  0  0  0  0  0  0  0  0
   35.9480   26.9680   31.0780 C   0  0  0  0  0  0  0  0  0  0  0  0
   36.5530   25.5870   30.8670 C   0  0  0  0  0  0  0  0  0  0  0  0
   37.0220   24.9750   32.1530 C   0  0  0  0  0  0  0  0  0  0  0  0
   39.0040   25.6130   32.4170 H   0  0  0  0  0  0  0  0  0  0  0  0
   37.7030   27.8660   33.7810 H   0  0  0  0  0  0  0  0  0  0  0  0
   38.3480   27.8090   32.1510 H   0  0  0  0  0  0  0  0  0  0  0  0
   35.5620   27.1850   33.1840 H   0  0  0  0  0  0  0  0  0  0  0  0
   34.8470   26.9580   30.9200 H   0  0  0  0  0  0  0  0  0  0  0  0
   36.3500   27.5840   30.2500 H   0  0  0  0  0  0  0  0  0  0  0  0
   35.7350   24.9400   30.4890 H   0  0  0  0  0  0  0  0  0  0  0  0
   37.3360   25.5600   30.1000 H   0  0  0  0  0  0  0  0  0  0  0  0
   36.1900   24.7420   32.8360 H   0  0  0  0  0  0  0  0  0  0  0  0
   37.5090   24.0130   31.9160 H   0  0  0  0  0  0  0  0  0  0  0  0
   34.6890   28.7610   34.5840 Cl  0  0  0  0  0  0  0  0  0  0  0  0
   35.4140   29.7080   33.2950 C   0  0  0  0  0  0  0  0  0  0  0  0
   36.1490   29.0240   32.3420 C   0  0  0  0  0  0  0  0  0  0  0  0
   36.6970   29.8550   31.3900 C   0  0  0  0  0  0  0  0  0  0  0  0
   36.5250   31.2250   31.3950 C   0  0  0  0  0  0  0  0  0  0  0  0
   35.7710   31.8320   32.3910 C   0  0  0  0  0  0  0  0  0  0  0  0
   35.1970   31.0400   33.3740 C   0  0  0  0  0  0  0  0  0  0  0  0
   37.2900   29.3910   30.6130 H   0  0  0  0  0  0  0  0  0  0  0  0
   37.0080   31.7750   30.5880 H   0  0  0  0  0  0  0  0  0  0  0  0
   35.6630   32.8990   32.3550 H   0  0  0  0  0  0  0  0  0  0  0  0
   35.2310   32.0720   35.6310 C   0  0  1  0  0  3  0  0  0  0  0  0
   34.3940   31.6870   34.4340 C   0  0  2  0  0  3  0  0  0  0  0  0
   33.3220   30.8820   34.8230 O   0  0  0  0  0  0  0  0  0  0  0  0
   32.3540   31.6440   35.4520 C   0  0  0  0  0  2  0  0  0  0  0  0
   32.9420   32.5530   36.5080 C   0  0  1  0  0  3  0  0  0  0  0  0
   34.3350   32.0670   36.8450 C   0  0  2  0  0  3  0  0  0  0  0  0
   36.2400   31.1450   35.8810 O   0  0  0  0  0  0  0  0  0  0  0  0
   36.0150   30.5320   36.6380 H   0  0  0  0  0  0  0  0  0  0  0  0
   33.0270   33.8710   36.0980 O   0  0  0  0  0  0  0  0  0  0  0  0
   32.2640   34.1140   35.4970 H   0  0  0  0  0  0  0  0  0  0  0  0
   34.8830   32.8630   37.8290 O   0  0  0  0  0  0  0  0  0  0  0  0
   34.6710   32.4700   38.7280 H   0  0  0  0  0  0  0  0  0  0  0  0
   38.1140   25.2830   34.2710 C   0  0  0  0  0  0  0  0  0  0  0  0
   38.0330   26.2250   35.2980 C   0  0  0  0  0  0  0  0  0  0  0  0
   38.1100   25.7540   36.6170 C   0  0  0  0  0  0  0  0  0  0  0  0
   38.2630   24.3880   36.8340 N   0  0  0  0  0  0  0  0  0  0  0  0
   38.3380   23.5180   35.8090 C   0  0  0  0  0  0  0  0  0  0  0  0
   38.2610   23.9890   34.5630 N   0  0  0  0  0  0  0  0  0  0  0  0
   37.9280   27.2850   35.4470 H   0  0  0  0  0  0  0  0  0  0  0  0
   38.0760   26.2330   37.5650 H   0  0  0  0  0  0  0  0  0  0  0  0
   38.4570   22.4570   35.9670 H   0  0  0  0  0  0  0  0  0  0  0  0
  1  7  1  6  0  0  0
  1 39  1  0  0  0  0
  2  1  1  0  0  0  0
  2  8  1  0  0  0  0
  3  2  1  0  0  0  0
  3 10  1  1  0  0  0
  4  3  1  0  0  0  0
  5  4  1  0  0  0  0
  5  6  1  0  0  0  0
  6 15  1  0  0  0  0
  6  1  1  0  0  0  0
  9  2  1  0  0  0  0
 11  4  1  0  0  0  0
 12  4  1  0  0  0  0
 13  5  1  0  0  0  0
 14  5  1  0  0  0  0
 16  6  1  0  0  0  0
 18 23  1  0  0  0  0
 18 17  1  0  0  0  0
 19  3  1  0  0  0  0
 19 18  2  0  0  0  0
 20 21  2  0  0  0  0
 20 19  1  0  0  0  0
 21 22  1  0  0  0  0
 22 23  2  0  0  0  0
 24 20  1  0  0  0  0
 25 21  1  0  0  0  0
 26 22  1  0  0  0  0
 27 33  1  1  0  0  0
 27 32  1  0  0  0  0
 28 23  1  6  0  0  0
 28 29  1  0  0  0  0
 28 27  1  0  0  0  0
 29 30  1  0  0  0  0
 30 31  1  0  0  0  0
 31 35  1  6  0  0  0
 31 32  1  0  0  0  0
 32 37  1  1  0  0  0
 33 34  1  0  0  0  0
 36 35  1  0  0  0  0
 37 38  1  0  0  0  0
 39 44  2  0  0  0  0
 39 40  1  0  0  0  0
 40 45  1  0  0  0  0
 40 41  2  0  0  0  0
 41 42  1  0  0  0  0
 41 46  1  0  0  0  0
 43 47  1  0  0  0  0
 43 42  2  0  0  0  0
 44 43  1  0  0  0  0
M  END
>  <minimizedAffinity>
-6.04996347

$$$$

 OpenBabel03272506003D

 47 50  0  0  1  0  0  0  0  0999 V2000
   39.0410   22.7520   36.0510 C   0  0  2  0  0  0  0  0  0  0  0  0
   38.6400   23.8360   35.1190 C   0  0  0  0  0  0  0  0  0  0  0  0
   38.7640   25.2310   35.7520 C   0  0  2  0  0  0  0  0  0  0  0  0
   38.0270   25.3910   37.0030 C   0  0  0  0  0  0  0  0  0  0  0  0
   38.1050   24.1720   37.9110 C   0  0  0  0  0  0  0  0  0  0  0  0
   39.1770   23.2160   37.4810 C   0  0  0  0  0  0  0  0  0  0  0  0
   38.2830   21.9140   36.0990 H   0  0  0  0  0  0  0  0  0  0  0  0
   39.1280   23.9720   34.1800 H   0  0  0  0  0  0  0  0  0  0  0  0
   37.5340   23.7140   34.8660 H   0  0  0  0  0  0  0  0  0  0  0  0
   39.8360   25.4390   35.8370 H   0  0  0  0  0  0  0  0  0  0  0  0
   38.3870   26.3070   37.5200 H   0  0  0  0  0  0  0  0  0  0  0  0
   36.9450   25.5590   36.8430 H   0  0  0  0  0  0  0  0  0  0  0  0
   38.3970   24.5460   38.9140 H   0  0  0  0  0  0  0  0  0  0  0  0
   37.1440   23.6620   38.0480 H   0  0  0  0  0  0  0  0  0  0  0  0
   40.1880   23.6370   37.6010 H   0  0  0  0  0  0  0  0  0  0  0  0
   39.1290   22.3310   38.1380 H   0  0  0  0  0  0  0  0  0  0  0  0
   40.4110   25.4820   33.3180 Cl  0  0  0  0  0  0  0  0  0  0  0  0
   38.9090   26.3660   33.5370 C   0  0  0  0  0  0  0  0  0  0  0  0
   38.2040   26.1390   34.7060 C   0  0  0  0  0  0  0  0  0  0  0  0
   37.0300   26.8570   34.7720 C   0  0  0  0  0  0  0  0  0  0  0  0
   36.6120   27.7130   33.7740 C   0  0  0  0  0  0  0  0  0  0  0  0
   37.3820   27.8840   32.6300 C   0  0  0  0  0  0  0  0  0  0  0  0
   38.5730   27.1830   32.5130 C   0  0  0  0  0  0  0  0  0  0  0  0
   36.4220   26.7270   35.6580 H   0  0  0  0  0  0  0  0  0  0  0  0
   35.6660   28.2260   33.9420 H   0  0  0  0  0  0  0  0  0  0  0  0
   37.0180   28.5600   31.8800 H   0  0  0  0  0  0  0  0  0  0  0  0
   38.7750   26.7020   30.0860 C   0  0  1  0  0  3  0  0  0  0  0  0
   39.3920   27.3650   31.2960 C   0  0  2  0  0  3  0  0  0  0  0  0
   40.6980   26.9130   31.4890 O   0  0  0  0  0  0  0  0  0  0  0  0
   41.5450   27.4790   30.5520 C   0  0  0  0  0  2  0  0  0  0  0  0
   40.9890   27.3770   29.1490 C   0  0  1  0  0  3  0  0  0  0  0  0
   39.8890   26.3380   29.1360 C   0  0  2  0  0  3  0  0  0  0  0  0
   38.1320   25.5120   30.4150 O   0  0  0  0  0  0  0  0  0  0  0  0
   38.6760   24.7070   30.1800 H   0  0  0  0  0  0  0  0  0  0  0  0
   40.4660   28.5730   28.6890 O   0  0  0  0  0  0  0  0  0  0  0  0
   40.9810   29.3540   29.0440 H   0  0  0  0  0  0  0  0  0  0  0  0
   39.3860   26.2060   27.8600 O   0  0  0  0  0  0  0  0  0  0  0  0
   39.8920   25.4840   27.3780 H   0  0  0  0  0  0  0  0  0  0  0  0
   40.3120   22.1130   35.6730 C   0  0  0  0  0  0  0  0  0  0  0  0
   41.1180   21.7170   36.7420 C   0  0  0  0  0  0  0  0  0  0  0  0
   42.3340   21.0870   36.4380 C   0  0  0  0  0  0  0  0  0  0  0  0
   42.6730   20.8920   35.1030 N   0  0  0  0  0  0  0  0  0  0  0  0
   41.8620   21.2940   34.1060 C   0  0  0  0  0  0  0  0  0  0  0  0
   40.7100   21.8900   34.4190 N   0  0  0  0  0  0  0  0  0  0  0  0
   41.1390   21.7310   37.8170 H   0  0  0  0  0  0  0  0  0  0  0  0
   43.1190   20.6920   37.0350 H   0  0  0  0  0  0  0  0  0  0  0  0
   42.1160   21.1470   33.0670 H   0  0  0  0  0  0  0  0  0  0  0  0
  1  7  1  6  0  0  0
  1  6  1  0  0  0  0
  2  3  1  0  0  0  0
  2  1  1  0  0  0  0
  3 10  1  1  0  0  0
  3  4  1  0  0  0  0
  4 11  1  0  0  0  0
  4  5  1  0  0  0  0
  5 14  1  0  0  0  0
  5 13  1  0  0  0  0
  6 15  1  0  0  0  0
  6  5  1  0  0  0  0
  6 16  1  0  0  0  0
  8  2  1  0  0  0  0
  9  2  1  0  0  0  0
 12  4  1  0  0  0  0
 17 18  1  0  0  0  0
 18 19  1  0  0  0  0
 19 20  2  0  0  0  0
 19  3  1  0  0  0  0
 20 24  1  0  0  0  0
 21 25  1  0  0  0  0
 21 20  1  0  0  0  0
 22 21  2  0  0  0  0
 23 22  1  0  0  0  0
 23 18  2  0  0  0  0
 26 22  1  0  0  0  0
 27 33  1  1  0  0  0
 27 28  1  0  0  0  0
 28 29  1  0  0  0  0
 28 23  1  1  0  0  0
 30 29  1  0  0  0  0
 31 35  1  1  0  0  0
 31 30  1  0  0  0  0
 32 37  1  6  0  0  0
 32 31  1  0  0  0  0
 32 27  1  0  0  0  0
 34 33  1  0  0  0  0
 35 36  1  0  0  0  0
 38 37  1  0  0  0  0
 39  1  1  0  0  0  0
 39 40  1  0  0  0  0
 40 45  1  0  0  0  0
 41 40  2  0  0  0  0
 41 46  1  0  0  0  0
 42 41  1  0  0  0  0
 43 44  1  0  0  0  0
 43 42  2  0  0  0  0
 44 39  2  0  0  0  0
 47 43  1  0  0  0  0
M  END
>  <minimizedAffinity>
-5.99636555

$$$$

 OpenBabel03272506003D

 47 50  0  0  1  0  0  0  0  0999 V2000
   38.8370   27.6100   31.3030 C   0  0  2  0  0  0  0  0  0  0  0  0
   38.8790   26.2550   31.9080 C   0  0  0  0  0  0  0  0  0  0  0  0
   37.4840   25.7450   32.3050 C   0  0  2  0  0  0  0  0  0  0  0  0
   36.7520   26.6370   33.2010 C   0  0  0  0  0  0  0  0  0  0  0  0
   36.9150   28.1110   32.8550 C   0  0  0  0  0  0  0  0  0  0  0  0
   37.5110   28.3070   31.4930 C   0  0  0  0  0  0  0  0  0  0  0  0
   39.5930   28.3170   31.7600 H   0  0  0  0  0  0  0  0  0  0  0  0
   39.2790   25.4210   31.3770 H   0  0  0  0  0  0  0  0  0  0  0  0
   39.4730   26.3040   32.8800 H   0  0  0  0  0  0  0  0  0  0  0  0
   36.9580   25.5220   31.3710 H   0  0  0  0  0  0  0  0  0  0  0  0
   35.6810   26.3390   33.2120 H   0  0  0  0  0  0  0  0  0  0  0  0
   37.0830   26.5530   34.2540 H   0  0  0  0  0  0  0  0  0  0  0  0
   35.8930   28.5400   32.8180 H   0  0  0  0  0  0  0  0  0  0  0  0
   37.4560   28.6850   33.6160 H   0  0  0  0  0  0  0  0  0  0  0  0
   36.8390   27.9720   30.6880 H   0  0  0  0  0  0  0  0  0  0  0  0
   37.6640   29.3890   31.3410 H   0  0  0  0  0  0  0  0  0  0  0  0
   36.8000   23.3390   30.7430 Cl  0  0  0  0  0  0  0  0  0  0  0  0
   37.4520   23.2530   32.3710 C   0  0  0  0  0  0  0  0  0  0  0  0
   37.7700   24.4490   32.9910 C   0  0  0  0  0  0  0  0  0  0  0  0
   38.2970   24.2760   34.2520 C   0  0  0  0  0  0  0  0  0  0  0  0
   38.4820   23.0360   34.8280 C   0  0  0  0  0  0  0  0  0  0  0  0
   38.1360   21.8830   34.1350 C   0  0  0  0  0  0  0  0  0  0  0  0
   37.6020   22.0020   32.8610 C   0  0  0  0  0  0  0  0  0  0  0  0
   38.5730   25.1690   34.7980 H   0  0  0  0  0  0  0  0  0  0  0  0
   38.9070   23.0270   35.8320 H   0  0  0  0  0  0  0  0  0  0  0  0
   38.2970   20.9400   34.6220 H   0  0  0  0  0  0  0  0  0  0  0  0
   35.8180   20.3340   32.4180 C   0  0  1  0  0  3  0  0  0  0  0  0
   37.2330   20.7750   32.1240 C   0  0  2  0  0  3  0  0  0  0  0  0
   38.1320   19.7380   32.3780 O   0  0  0  0  0  0  0  0  0  0  0  0
   38.0560   18.7820   31.3800 C   0  0  0  0  0  2  0  0  0  0  0  0
   36.6270   18.3860   31.0810 C   0  0  1  0  0  3  0  0  0  0  0  0
   35.7470   18.8390   32.2260 C   0  0  2  0  0  3  0  0  0  0  0  0
   35.4610   20.5780   33.7420 O   0  0  0  0  0  0  0  0  0  0  0  0
   35.4950   19.7530   34.3050 H   0  0  0  0  0  0  0  0  0  0  0  0
   36.1470   18.9480   29.9120 O   0  0  0  0  0  0  0  0  0  0  0  0
   36.8710   19.0340   29.2260 H   0  0  0  0  0  0  0  0  0  0  0  0
   34.4420   18.4630   31.9890 O   0  0  0  0  0  0  0  0  0  0  0  0
   34.2800   17.5590   32.3960 H   0  0  0  0  0  0  0  0  0  0  0  0
   39.1270   27.6020   29.8600 C   0  0  0  0  0  0  0  0  0  0  0  0
   39.6500   26.4050   29.3670 C   0  0  0  0  0  0  0  0  0  0  0  0
   39.9280   26.3370   27.9930 C   0  0  0  0  0  0  0  0  0  0  0  0
   39.6730   27.4510   27.2010 N   0  0  0  0  0  0  0  0  0  0  0  0
   39.1680   28.5850   27.7240 C   0  0  0  0  0  0  0  0  0  0  0  0
   38.9100   28.6260   29.0330 N   0  0  0  0  0  0  0  0  0  0  0  0
   39.9490   25.4280   29.7020 H   0  0  0  0  0  0  0  0  0  0  0  0
   40.3190   25.5730   27.3660 H   0  0  0  0  0  0  0  0  0  0  0  0
   38.9670   29.4550   27.1180 H   0  0  0  0  0  0  0  0  0  0  0  0
  1  6  1  0  0  0  0
  1  7  1  1  0  0  0
  1  2  1  0  0  0  0
  2  3  1  0  0  0  0
  2  9  1  0  0  0  0
  3 10  1  6  0  0  0
  3 19  1  0  0  0  0
  3  4  1  0  0  0  0
  4 11  1  0  0  0  0
  4 12  1  0  0  0  0
  5  4  1  0  0  0  0
  5 14  1  0  0  0  0
  6  5  1  0  0  0  0
  8  2  1  0  0  0  0
 13  5  1  0  0  0  0
 15  6  1  0  0  0  0
 16  6  1  0  0  0  0
 17 18  1  0  0  0  0
 18 23  2  0  0  0  0
 18 19  1  0  0  0  0
 19 20  2  0  0  0  0
 20 24  1  0  0  0  0
 20 21  1  0  0  0  0
 21 25  1  0  0  0  0
 22 26  1  0  0  0  0
 22 21  2  0  0  0  0
 23 22  1  0  0  0  0
 27 33  1  1  0  0  0
 28 29  1  0  0  0  0
 28 27  1  0  0  0  0
 28 23  1  1  0  0  0
 30 29  1  0  0  0  0
 31 35  1  6  0  0  0
 31 30  1  0  0  0  0
 31 32  1  0  0  0  0
 32 37  1  6  0  0  0
 32 27  1  0  0  0  0
 33 34  1  0  0  0  0
 36 35  1  0  0  0  0
 37 38  1  0  0  0  0
 39  1  1  0  0  0  0
 40 45  1  0  0  0  0
 40 39  1  0  0  0  0
 41 40  2  0  0  0  0
 42 43  2  0  0  0  0
 42 41  1  0  0  0  0
 43 44  1  0  0  0  0
 44 39  2  0  0  0  0
 46 41  1  0  0  0  0
 47 43  1  0  0  0  0
M  END
>  <minimizedAffinity>
-5.96269608

$$$$
