
 OpenBabel03272500513D

 48 53  0  0  1  0  0  0  0  0999 V2000
   33.1070   28.5870   47.0310 C   0  0  0  0  0  0  0  0  0  0  0  0
   33.6320   28.6260   45.7510 C   0  0  0  0  0  0  0  0  0  0  0  0
   34.7940   29.3290   45.8010 N   0  0  0  0  0  0  0  0  0  0  0  0
   35.0110   29.7300   47.0740 C   0  0  0  0  0  0  0  0  0  0  0  0
   33.9770   29.2710   47.8130 N   0  0  0  0  0  0  0  0  0  0  0  0
   33.2170   28.1840   44.8330 H   0  0  0  0  0  0  0  0  0  0  0  0
   35.4670   29.5630   45.0200 H   0  0  0  0  0  0  0  0  0  0  0  0
   31.5040   27.7390   48.8410 C   0  0  1  0  0  0  0  0  0  0  0  0
   31.8530   26.5100   47.9200 C   0  0  0  0  0  0  0  0  0  0  0  0
   31.8230   27.9240   47.4260 C   0  0  2  0  0  0  0  0  0  0  0  0
   32.2900   27.9550   49.5940 H   0  0  0  0  0  0  0  0  0  0  0  0
   31.0060   25.8400   47.7440 H   0  0  0  0  0  0  0  0  0  0  0  0
   32.8470   26.0650   48.0790 H   0  0  0  0  0  0  0  0  0  0  0  0
   30.9900   28.1040   46.7080 H   0  0  0  0  0  0  0  0  0  0  0  0
   28.0610   28.5730   49.4680 C   0  0  0  0  0  0  0  0  0  0  0  0
   28.2320   27.5140   50.3580 C   0  0  0  0  0  0  0  0  0  0  0  0
   29.5620   27.0580   50.2360 C   0  0  0  0  0  0  0  0  0  0  0  0
   30.1350   27.8320   49.3060 N   0  0  0  0  0  0  0  0  0  0  0  0
   29.2370   28.6920   48.8890 N   0  0  0  0  0  0  0  0  0  0  0  0
   27.5250   27.0690   51.0430 H   0  0  0  0  0  0  0  0  0  0  0  0
   29.9830   26.2380   50.8090 H   0  0  0  0  0  0  0  0  0  0  0  0
   25.5580   28.6920   49.5590 C   0  0  0  0  0  0  0  0  0  0  0  0
   26.8250   29.2820   49.3220 C   0  0  0  0  0  0  0  0  0  0  0  0
   26.8180   30.5990   48.9360 C   0  0  0  0  0  0  0  0  0  0  0  0
   25.6240   31.2450   48.8070 N   0  0  0  0  0  0  0  0  0  0  0  0
   24.4500   30.6430   49.0410 C   0  0  0  0  0  0  0  0  0  0  0  0
   24.4040   29.3430   49.4260 N   0  0  0  0  0  0  0  0  0  0  0  0
   25.5760   27.6570   49.8610 H   0  0  0  0  0  0  0  0  0  0  0  0
   27.7440   31.1270   48.7350 H   0  0  0  0  0  0  0  0  0  0  0  0
   23.6180   31.3200   48.8850 H   0  0  0  0  0  0  0  0  0  0  0  0
   36.1620   30.5350   47.5820 C   0  0  0  0  0  0  0  0  0  0  0  0
   36.2540   30.9000   48.9340 C   0  0  0  0  0  0  0  0  0  0  0  0
   37.8010   31.8620   48.9820 S   0  0  0  0  0  0  0  0  0  0  0  0
   38.0760   31.6070   47.1290 C   0  0  0  0  0  0  0  0  0  0  0  0
   37.1600   30.9820   46.8550 N   0  0  0  0  0  0  0  0  0  0  0  0
   35.5750   30.6670   49.7410 H   0  0  0  0  0  0  0  0  0  0  0  0
   39.0140   32.8970   45.2310 C   0  0  2  0  0  0  0  0  0  0  0  0
   39.2950   32.2200   46.5320 C   0  0  2  0  0  0  0  0  0  0  0  0
   40.3510   31.3130   46.4920 O   0  0  0  0  0  0  0  0  0  0  0  0
   41.0220   31.3140   45.2900 C   0  0  0  0  0  0  0  0  0  0  0  0
   40.1500   31.0750   44.0920 C   0  0  2  0  0  0  0  0  0  0  0  0
   38.9530   31.9740   44.0570 C   0  0  2  0  0  0  0  0  0  0  0  0
   39.8510   33.9850   45.0140 O   0  0  0  0  0  0  0  0  0  0  0  0
   40.3860   34.1950   45.8090 H   0  0  0  0  0  0  0  0  0  0  0  0
   39.7970   29.7260   43.9250 O   0  0  0  0  0  0  0  0  0  0  0  0
   38.9160   29.7160   43.4650 H   0  0  0  0  0  0  0  0  0  0  0  0
   38.9500   32.7820   42.9000 O   0  0  0  0  0  0  0  0  0  0  0  0
   39.5740   33.5560   43.0730 H   0  0  0  0  0  0  0  0  0  0  0  0
  1 10  1  0  0  0  0
  1  5  1  0  0  0  0
  2  3  1  0  0  0  0
  2  1  2  0  0  0  0
  3  4  1  0  0  0  0
  4 31  1  0  0  0  0
  4  5  2  0  0  0  0
  6  2  1  0  0  0  0
  7  3  1  0  0  0  0
  8 18  1  0  0  0  0
  8 11  1  1  0  0  0
  9 13  1  0  0  0  0
  9  8  1  0  0  0  0
 10 14  1  6  0  0  0
 10  9  1  0  0  0  0
 10  8  1  0  0  0  0
 12  9  1  0  0  0  0
 15 16  1  0  0  0  0
 16 20  1  0  0  0  0
 17 16  2  0  0  0  0
 17 21  1  0  0  0  0
 18 17  1  0  0  0  0
 19 18  1  0  0  0  0
 19 15  2  0  0  0  0
 22 28  1  0  0  0  0
 23 15  1  0  0  0  0
 23 22  2  0  0  0  0
 24 23  1  0  0  0  0
 25 24  2  0  0  0  0
 25 26  1  0  0  0  0
 26 27  2  0  0  0  0
 27 22  1  0  0  0  0
 29 24  1  0  0  0  0
 30 26  1  0  0  0  0
 31 32  2  0  0  0  0
 32 33  1  0  0  0  0
 32 36  1  0  0  0  0
 34 33  1  0  0  0  0
 35 34  2  0  0  0  0
 35 31  1  0  0  0  0
 37 43  1  6  0  0  0
 37 38  1  0  0  0  0
 38 34  1  6  0  0  0
 39 38  1  0  0  0  0
 40 39  1  0  0  0  0
 41 45  1  1  0  0  0
 41 40  1  0  0  0  0
 42 47  1  6  0  0  0
 42 41  1  0  0  0  0
 42 37  1  0  0  0  0
 43 44  1  0  0  0  0
 46 45  1  0  0  0  0
 47 48  1  0  0  0  0
M  END
>  <minimizedAffinity>
-7.95618105

>  <minimizedRMSD>
2.51927352

$$$$
