
 OpenBabel03272503373D

 22 23  0  0  1  0  0  0  0  0999 V2000
   37.8430   31.7200   46.2580 C   0  0  1  0  0  3  0  0  0  0  0  0
   38.6080   31.6130   47.5520 C   0  0  1  0  0  3  0  0  0  0  0  0
   39.0320   32.8860   47.8860 O   0  0  0  0  0  0  0  0  0  0  0  0
   39.9560   33.4260   47.0270 C   0  0  0  0  0  2  0  0  0  0  0  0
   40.0220   32.8280   45.6670 C   0  0  2  0  0  3  0  0  0  0  0  0
   38.7400   32.2260   45.1860 C   0  0  2  0  0  3  0  0  0  0  0  0
   37.3960   30.1860   50.8350 C   0  0  0  0  0  0  0  0  0  0  0  0
   38.2860   30.6460   49.8630 C   0  0  0  0  0  0  0  0  0  0  0  0
   37.7640   31.0990   48.6620 C   0  0  0  0  0  0  0  0  0  0  0  0
   36.4200   31.0750   48.4820 N   0  0  0  0  0  0  0  0  0  0  0  0
   35.5650   30.6190   49.4490 C   0  0  0  0  0  0  0  0  0  0  0  0
   36.0680   30.1870   50.5990 N   0  0  0  0  0  0  0  0  0  0  0  0
   39.3600   30.6970   49.9280 H   0  0  0  0  0  0  0  0  0  0  0  0
   34.5040   30.5960   49.3180 H   0  0  0  0  0  0  0  0  0  0  0  0
   38.0580   29.7630   51.9890 O   0  0  0  0  0  0  0  0  0  0  0  0
   37.4390   29.2990   52.6720 H   0  0  0  0  0  0  0  0  0  0  0  0
   37.3540   30.4280   45.9890 O   0  0  0  0  0  0  0  0  0  0  0  0
   37.8610   30.0190   45.2230 H   0  0  0  0  0  0  0  0  0  0  0  0
   41.0120   31.8410   45.6560 O   0  0  0  0  0  0  0  0  0  0  0  0
   40.8830   31.3320   44.7930 H   0  0  0  0  0  0  0  0  0  0  0  0
   38.0180   33.1260   44.3690 O   0  0  0  0  0  0  0  0  0  0  0  0
   38.5010   33.1640   43.4860 H   0  0  0  0  0  0  0  0  0  0  0  0
  1 17  1  6  0  0  0
  1  2  1  0  0  0  0
  2  3  1  0  0  0  0
  2  9  1  1  0  0  0
  4  3  1  0  0  0  0
  5 19  1  1  0  0  0
  5  4  1  0  0  0  0
  6 21  1  1  0  0  0
  6  5  1  0  0  0  0
  6  1  1  0  0  0  0
  7 15  1  0  0  0  0
  8 13  1  0  0  0  0
  8  7  2  0  0  0  0
  9  8  1  0  0  0  0
 10  9  2  0  0  0  0
 10 11  1  0  0  0  0
 11 12  2  0  0  0  0
 12  7  1  0  0  0  0
 14 11  1  0  0  0  0
 15 16  1  0  0  0  0
 18 17  1  0  0  0  0
 20 19  1  0  0  0  0
 22 21  1  0  0  0  0
M  END
>  <minimizedAffinity>
-5.42148685

>  <minimizedRMSD>
1.48791146

$$$$
