
 OpenBabel03272509053D

 36 38  0  0  1  0  0  0  0  0999 V2000
   37.4390   30.6440   51.0380 C   0  0  0  0  0  0  0  0  0  0  0  0
   38.2050   30.9530   49.8740 C   0  0  0  0  0  0  0  0  0  0  0  0
   37.7570   30.4650   48.6280 C   0  0  0  0  0  0  0  0  0  0  0  0
   36.6130   29.7220   48.6070 N   0  0  0  0  0  0  0  0  0  0  0  0
   35.9320   29.4620   49.7400 C   0  0  0  0  0  0  0  0  0  0  0  0
   36.3260   29.9090   50.9450 N   0  0  0  0  0  0  0  0  0  0  0  0
   37.8500   31.0540   51.9490 H   0  0  0  0  0  0  0  0  0  0  0  0
   39.1150   31.5460   49.9040 H   0  0  0  0  0  0  0  0  0  0  0  0
   38.4540   32.2390   47.1540 C   0  0  2  0  0  3  0  0  0  0  0  0
   38.5220   30.7630   47.3890 C   0  0  2  0  0  3  0  0  0  0  0  0
   37.9330   30.0190   46.3760 O   0  0  0  0  0  0  0  0  0  0  0  0
   38.3110   30.3450   45.1070 C   0  0  0  0  0  2  0  0  0  0  0  0
   39.3080   31.4620   44.9990 C   0  0  2  0  0  3  0  0  0  0  0  0
   38.6940   32.6500   45.7200 C   0  0  2  0  0  3  0  0  0  0  0  0
   39.4230   32.8600   47.9410 O   0  0  0  0  0  0  0  0  0  0  0  0
   38.9880   33.4930   48.5470 H   0  0  0  0  0  0  0  0  0  0  0  0
   39.4260   31.7770   43.6410 O   0  0  0  0  0  0  0  0  0  0  0  0
   38.5380   31.9640   43.2650 H   0  0  0  0  0  0  0  0  0  0  0  0
   39.4860   33.7700   45.5890 O   0  0  0  0  0  0  0  0  0  0  0  0
   40.3580   33.6510   46.0250 H   0  0  0  0  0  0  0  0  0  0  0  0
   34.7350   28.6500   49.5830 C   0  0  0  0  0  3  0  0  0  0  0  0
   34.4690   28.1660   48.4150 C   0  0  0  0  0  3  0  0  0  0  0  0
   33.3390   27.3120   48.0090 C   0  0  0  0  0  0  0  0  0  0  0  0
   32.9820   26.7720   48.9310 H   0  0  0  0  0  0  0  0  0  0  0  0
   32.4670   27.8850   47.6480 H   0  0  0  0  0  0  0  0  0  0  0  0
   33.7200   26.2290   47.0510 C   0  0  0  0  0  0  0  0  0  0  0  0
   33.9050   24.9010   47.3650 C   0  0  0  0  0  0  0  0  0  0  0  0
   34.2560   24.0070   46.3660 C   0  0  0  0  0  0  0  0  0  0  0  0
   34.4290   24.4090   45.0480 C   0  0  0  0  0  0  0  0  0  0  0  0
   34.2460   25.7320   44.7290 C   0  0  0  0  0  0  0  0  0  0  0  0
   33.8940   26.6370   45.7260 C   0  0  0  0  0  0  0  0  0  0  0  0
   33.7590   24.6340   48.4040 H   0  0  0  0  0  0  0  0  0  0  0  0
   34.3710   22.9970   46.7370 H   0  0  0  0  0  0  0  0  0  0  0  0
   34.7030   23.6160   44.3650 H   0  0  0  0  0  0  0  0  0  0  0  0
   34.3890   26.0130   43.6950 H   0  0  0  0  0  0  0  0  0  0  0  0
   33.7700   27.6580   45.3860 H   0  0  0  0  0  0  0  0  0  0  0  0
  1  7  1  0  0  0  0
  2  8  1  0  0  0  0
  2  1  2  0  0  0  0
  3  2  1  0  0  0  0
  4  3  2  0  0  0  0
  4  5  1  0  0  0  0
  5  6  2  0  0  0  0
  6  1  1  0  0  0  0
  9 10  1  0  0  0  0
  9 15  1  1  0  0  0
 10  3  1  1  0  0  0
 11 10  1  0  0  0  0
 12 11  1  0  0  0  0
 13 17  1  6  0  0  0
 13 12  1  0  0  0  0
 13 14  1  0  0  0  0
 14 19  1  1  0  0  0
 14  9  1  0  0  0  0
 15 16  1  0  0  0  0
 18 17  1  0  0  0  0
 19 20  1  0  0  0  0
 21  5  1  0  0  0  0
 22 21  2  0  0  0  0
 23 22  1  0  0  0  0
 23 24  1  0  0  0  0
 25 23  1  0  0  0  0
 26 27  1  0  0  0  0
 26 23  1  0  0  0  0
 27 32  1  0  0  0  0
 28 33  1  0  0  0  0
 28 27  2  0  0  0  0
 29 28  1  0  0  0  0
 30 29  2  0  0  0  0
 30 31  1  0  0  0  0
 31 26  2  0  0  0  0
 34 29  1  0  0  0  0
 35 30  1  0  0  0  0
 36 31  1  0  0  0  0
M  END
>  <minimizedAffinity>
-6.08225584

>  <minimizedRMSD>
0.44883135

$$$$
