
     RDKit          3D

 28 29  0  0  0  0  0  0  0  0999 V2000
   37.2978   29.9913   51.1813 C   0  0  0  0  0  0  0  0  0  0  0  0
   37.9591   30.9216   50.3523 C   0  0  0  0  0  0  0  0  0  0  0  0
   37.2738   31.3882   49.2320 C   0  0  0  0  0  0  0  0  0  0  0  0
   36.0156   30.9284   48.9965 N   0  0  0  0  0  0  0  0  0  0  0  0
   35.4095   30.0298   49.8198 C   0  0  0  0  0  0  0  0  0  0  0  0
   36.0573   29.5760   50.8966 N   0  0  0  0  0  0  0  0  0  0  0  0
   38.0810   29.6086   52.2535 O   0  0  0  0  0  0  0  0  0  0  0  0
   38.9439   31.3122   50.4941 H   0  0  0  0  0  0  0  0  0  0  0  0
   37.7067   32.1026   48.5434 H   0  0  0  0  0  0  0  0  0  0  0  0
   38.9162   29.0663   52.0011 H   0  0  0  0  0  0  0  0  0  0  0  0
   33.2271   27.7178   48.1582 O   0  0  0  0  0  0  0  0  0  0  0  0
   34.0182   28.0899   49.2163 C   0  0  1  0  0  0  0  0  0  0  0  0
   34.0308   29.5714   49.4990 C   0  0  1  0  0  0  0  0  0  0  0  0
   33.2025   29.9127   50.5656 O   0  0  0  0  0  0  0  0  0  0  0  0
   32.0343   29.1250   50.4624 C   0  0  0  0  0  0  0  0  0  0  0  0
   32.4110   27.8122   51.1360 C   0  0  1  0  0  0  0  0  0  0  0  0
   31.3623   26.9366   51.2586 O   0  0  0  0  0  0  0  0  0  0  0  0
   33.6142   27.2788   50.4240 C   0  0  2  0  0  0  0  0  0  0  0  0
   34.7298   27.2873   51.2887 O   0  0  0  0  0  0  0  0  0  0  0  0
   33.5458   28.0517   47.2814 H   0  0  0  0  0  0  0  0  0  0  0  0
   35.0616   27.7961   48.9631 H   0  0  0  0  0  0  0  0  0  0  0  0
   33.6579   30.1099   48.6084 H   0  0  0  0  0  0  0  0  0  0  0  0
   31.7141   28.9732   49.4234 H   0  0  0  0  0  0  0  0  0  0  0  0
   31.1888   29.5643   51.0520 H   0  0  0  0  0  0  0  0  0  0  0  0
   32.7037   28.1154   52.1838 H   0  0  0  0  0  0  0  0  0  0  0  0
   31.4479   26.1185   50.7093 H   0  0  0  0  0  0  0  0  0  0  0  0
   33.4628   26.2327   50.0875 H   0  0  0  0  0  0  0  0  0  0  0  0
   35.2534   26.4657   51.2274 H   0  0  0  0  0  0  0  0  0  0  0  0
  1  7  1  0
  2  1  2  0
  3  2  1  0
  4  3  2  0
  4  5  1  0
  5  6  2  0
  6  1  1  0
  2  8  1  0
  3  9  1  0
  7 10  1  0
 11 12  1  0
 12 13  1  0
 13 14  1  0
 14 15  1  0
 15 16  1  0
 16 17  1  0
 16 18  1  0
 18 19  1  0
 18 12  1  0
 11 20  1  0
 12 21  1  6
 13 22  1  6
 15 23  1  0
 15 24  1  0
 16 25  1  1
 17 26  1  0
 18 27  1  6
 19 28  1  0
  5 13  1  0
M  ISO  3   8  14   9  14  10   3
M  END
>  <DihAtoms>  (1) 
3,4,12,11

>  <DihDeg>  (1) 
-78.24753155161936

$$$$
