
 OpenBabel03272507513D

 31 33  0  0  1  0  0  0  0  0999 V2000
   36.0620   30.3810   46.4300 C   0  0  0  0  0  0  0  0  0  0  0  0
   36.7270   30.7150   45.2210 C   0  0  0  0  0  0  0  0  0  0  0  0
   36.0130   30.6040   44.0250 C   0  0  0  0  0  0  0  0  0  0  0  0
   34.7250   30.1870   44.0600 N   0  0  0  0  0  0  0  0  0  0  0  0
   34.1100   29.8750   45.2240 C   0  0  0  0  0  0  0  0  0  0  0  0
   34.7720   29.9690   46.4130 N   0  0  0  0  0  0  0  0  0  0  0  0
   36.5360   30.8640   43.1090 H   0  0  0  0  0  0  0  0  0  0  0  0
   33.0710   29.5450   45.2000 H   0  0  0  0  0  0  0  0  0  0  0  0
   38.0730   31.1450   45.2920 N   0  0  0  0  0  0  0  0  0  0  0  0
   38.4030   32.3910   45.6430 C   0  0  0  0  0  0  0  0  0  0  0  0
   39.7230   32.8010   45.7140 C   0  0  0  0  0  0  0  0  0  0  0  0
   40.6280   31.7940   45.3870 C   0  0  0  0  0  0  0  0  0  0  0  0
   41.8540   32.1280   45.4400 O   0  0  0  0  0  0  0  0  0  0  0  0
   40.3400   30.5300   45.0290 N   0  0  0  0  0  0  0  0  0  0  0  0
   39.0240   30.2360   44.9920 C   0  0  0  0  0  0  0  0  0  0  0  0
   38.7350   29.0460   44.6550 O   0  0  0  0  0  0  0  0  0  0  0  0
   37.6360   33.1020   45.8690 H   0  0  0  0  0  0  0  0  0  0  0  0
   40.0620   33.7830   45.9880 H   0  0  0  0  0  0  0  0  0  0  0  0
   41.0900   29.8660   44.8080 H   0  0  0  0  0  0  0  0  0  0  0  0
   35.8730   29.7480   48.8560 C   0  0  2  0  0  3  0  0  0  0  0  0
   36.6550   30.4280   47.7760 C   0  0  2  0  0  3  0  0  0  0  0  0
   36.9260   31.7110   48.2420 O   0  0  0  0  0  0  0  0  0  0  0  0
   37.5250   31.6410   49.4620 C   0  0  0  0  0  2  0  0  0  0  0  0
   37.9790   30.2980   49.9340 C   0  0  2  0  0  3  0  0  0  0  0  0
   36.8920   29.2500   49.9020 C   0  0  1  0  0  3  0  0  0  0  0  0
   35.1300   28.7230   48.3270 O   0  0  0  0  0  0  0  0  0  0  0  0
   34.5310   28.3810   49.0460 H   0  0  0  0  0  0  0  0  0  0  0  0
   38.3560   30.4430   51.2750 O   0  0  0  0  0  0  0  0  0  0  0  0
   38.9770   31.2190   51.4020 H   0  0  0  0  0  0  0  0  0  0  0  0
   36.2630   29.0750   51.1340 O   0  0  0  0  0  0  0  0  0  0  0  0
   36.6700   29.6600   51.7970 H   0  0  0  0  0  0  0  0  0  0  0  0
  2  9  1  0  0  0  0
  2  1  2  0  0  0  0
  3  4  2  0  0  0  0
  3  2  1  0  0  0  0
  4  5  1  0  0  0  0
  5  6  2  0  0  0  0
  6  1  1  0  0  0  0
  7  3  1  0  0  0  0
  8  5  1  0  0  0  0
  9 10  1  0  0  0  0
 10 11  2  0  0  0  0
 10 17  1  0  0  0  0
 11 18  1  0  0  0  0
 12 13  2  0  0  0  0
 12 11  1  0  0  0  0
 14 12  1  0  0  0  0
 15 14  1  0  0  0  0
 15  9  1  0  0  0  0
 16 15  2  0  0  0  0
 19 14  1  0  0  0  0
 20 26  1  6  0  0  0
 20 25  1  0  0  0  0
 21  1  1  6  0  0  0
 21 22  1  0  0  0  0
 21 20  1  0  0  0  0
 22 23  1  0  0  0  0
 23 24  1  0  0  0  0
 24 28  1  1  0  0  0
 25 24  1  0  0  0  0
 25 30  1  1  0  0  0
 26 27  1  0  0  0  0
 28 29  1  0  0  0  0
 30 31  1  0  0  0  0
M  END
>  <minimizedAffinity>
-5.87594986

>  <minimizedRMSD>
3.5300684

$$$$
