
 OpenBabel03272507553D

 26 27  0  0  1  0  0  0  0  0999 V2000
   35.4930   29.0350   50.2970 C   0  0  0  0  0  0  0  0  0  0  0  0
   36.3100   30.0030   49.6530 C   0  0  0  0  0  0  0  0  0  0  0  0
   36.2750   30.0810   48.2690 C   0  0  0  0  0  0  0  0  0  0  0  0
   35.4520   29.2150   47.6040 N   0  0  0  0  0  0  0  0  0  0  0  0
   34.6850   28.3010   48.2570 C   0  0  0  0  0  0  0  0  0  0  0  0
   34.7010   28.2060   49.5960 N   0  0  0  0  0  0  0  0  0  0  0  0
   33.9360   27.5010   47.3700 N   0  0  0  0  0  0  0  0  0  0  0  0
   35.5360   28.9940   51.3780 H   0  0  0  0  0  0  0  0  0  0  0  0
   34.4020   26.5540   47.5000 H   0  0  0  0  0  0  0  0  0  0  0  0
   33.1560   27.7860   46.7720 H   0  0  0  0  0  0  0  0  0  0  0  0
   36.5730   31.5020   46.2250 C   0  0  1  0  0  3  0  0  0  0  0  0
   37.1100   31.0800   47.5530 C   0  0  2  0  0  3  0  0  0  0  0  0
   38.3330   30.4470   47.3020 O   0  0  0  0  0  0  0  0  0  0  0  0
   39.2890   31.3390   46.8550 C   0  0  0  0  0  2  0  0  0  0  0  0
   38.9550   31.6500   45.4220 C   0  0  1  0  0  3  0  0  0  0  0  0
   37.5380   31.1720   45.0740 C   0  0  1  0  0  3  0  0  0  0  0  0
   35.4030   30.7920   45.8860 O   0  0  0  0  0  0  0  0  0  0  0  0
   34.9790   31.2690   45.1130 H   0  0  0  0  0  0  0  0  0  0  0  0
   39.0450   33.0180   45.1960 O   0  0  0  0  0  0  0  0  0  0  0  0
   39.8560   33.3770   45.6300 H   0  0  0  0  0  0  0  0  0  0  0  0
   37.6090   29.7950   44.9480 O   0  0  0  0  0  0  0  0  0  0  0  0
   38.0280   29.5130   44.1100 H   0  0  0  0  0  0  0  0  0  0  0  0
   37.1680   30.8850   50.4820 C   0  0  0  0  0  0  0  0  0  0  0  0
   38.5080   30.8000   50.1250 F   0  0  0  0  0  0  0  0  0  0  0  0
   36.7430   32.1710   50.3320 F   0  0  0  0  0  0  0  0  0  0  0  0
   37.1130   30.5720   51.8290 F   0  0  0  0  0  0  0  0  0  0  0  0
  1  8  1  0  0  0  0
  2  1  1  0  0  0  0
  2 23  1  0  0  0  0
  3  2  2  0  0  0  0
  4  5  2  0  0  0  0
  4  3  1  0  0  0  0
  5  6  1  0  0  0  0
  6  1  2  0  0  0  0
  7  9  1  0  0  0  0
  7  5  1  0  0  0  0
 10  7  1  0  0  0  0
 11 17  1  6  0  0  0
 11 12  1  0  0  0  0
 12  3  1  6  0  0  0
 13 12  1  0  0  0  0
 14 13  1  0  0  0  0
 15 19  1  1  0  0  0
 15 14  1  0  0  0  0
 16 21  1  1  0  0  0
 16 15  1  0  0  0  0
 16 11  1  0  0  0  0
 18 17  1  0  0  0  0
 19 20  1  0  0  0  0
 22 21  1  0  0  0  0
 23 26  1  0  0  0  0
 24 23  1  0  0  0  0
 25 23  1  0  0  0  0
M  END
>  <minimizedAffinity>
-5.17817688

>  <minimizedRMSD>
1.61276889

$$$$
