REMARK  Name = 
REMARK  5 active torsions:
REMARK  status: ('A' for Active; 'I' for Inactive)
REMARK    1  A    between atoms: C_1  and  O_7
REMARK    2  A    between atoms: C_3  and  C_13
REMARK    3  A    between atoms: O_11  and  C_12
REMARK    4  A    between atoms: C_16  and  O_17
REMARK    5  A    between atoms: C_18  and  O_19
REMARK                            x       y       z     vdW  Elec       q    Type
REMARK                         _______ _______ _______ _____ _____    ______ ____
ROOT
ATOM      1  C   UNL     1      37.913  31.829  46.880  0.00  0.00    +0.000 C 
ATOM      2  C   UNL     1      37.859  32.364  48.288  0.00  0.00    +0.000 C 
ATOM      3  O   UNL     1      37.049  33.485  48.271  0.00  0.00    +0.000 OA
ATOM      4  C   UNL     1      37.552  34.545  47.559  0.00  0.00    +0.000 C 
ATOM      5  C   UNL     1      38.598  34.227  46.552  0.00  0.00    +0.000 C 
ATOM      6  C   UNL     1      38.516  32.847  45.980  0.00  0.00    +0.000 C 
ENDROOT
BRANCH   2   9
ATOM      7  C   UNL     1      37.301  29.995  51.179  0.00  0.00    +0.000 A 
ATOM      8  C   UNL     1      37.950  30.915  50.355  0.00  0.00    +0.000 A 
ATOM      9  C   UNL     1      37.275  31.384  49.239  0.00  0.00    +0.000 A 
ATOM     10  N   UNL     1      36.020  30.931  48.996  0.00  0.00    +0.000 NA
ATOM     11  C   UNL     1      35.401  30.027  49.818  0.00  0.00    +0.000 A 
ATOM     12  N   UNL     1      36.051  29.581  50.886  0.00  0.00    +0.000 NA
ATOM     13  H   UNL     1      38.940  31.322  50.478  0.00  0.00    +0.000 HD
ATOM     14  H   UNL     1      34.412  29.663  49.636  0.00  0.00    +0.000 HD
BRANCH   7  15
ATOM     15  O   UNL     1      38.096  29.612  52.260  0.00  0.00    +0.000 OA
ATOM     16  H   UNL     1      37.695  28.838  52.813  0.00  0.00    +0.000 HD
ENDBRANCH   7  15
ENDBRANCH   2   9
BRANCH   1  17
ATOM     17  O   UNL     1      38.672  30.646  46.945  0.00  0.00    +0.000 OA
ATOM     18  H   UNL     1      39.575  30.791  46.526  0.00  0.00    +0.000 HD
ENDBRANCH   1  17
BRANCH   5  19
ATOM     19  O   UNL     1      39.856  34.394  47.139  0.00  0.00    +0.000 OA
ATOM     20  H   UNL     1      40.516  33.977  46.498  0.00  0.00    +0.000 HD
ENDBRANCH   5  19
BRANCH   6  21
ATOM     21  O   UNL     1      37.826  32.836  44.746  0.00  0.00    +0.000 OA
ATOM     22  H   UNL     1      38.449  33.239  44.065  0.00  0.00    +0.000 HD
ENDBRANCH   6  21
TORSDOF 5
