
     RDKit          3D

 32 33  0  0  0  0  0  0  0  0999 V2000
   35.6177   29.0130   50.1699 C   0  0  0  0  0  0  0  0  0  0  0  0
   36.2827   30.1552   49.6488 C   0  0  0  0  0  0  0  0  0  0  0  0
   36.0347   30.5195   48.3340 C   0  0  0  0  0  0  0  0  0  0  0  0
   35.1606   29.7528   47.6146 N   0  0  0  0  0  0  0  0  0  0  0  0
   34.5444   28.6656   48.1497 C   0  0  0  0  0  0  0  0  0  0  0  0
   34.7665   28.2920   49.4198 N   0  0  0  0  0  0  0  0  0  0  0  0
   33.7059   28.0162   47.2206 N   0  0  0  0  0  0  0  0  0  0  0  0
   37.2164   30.9058   50.5245 C   0  0  0  0  0  0  0  0  0  0  0  0
   38.5369   30.7808   50.1142 F   0  0  0  0  0  0  0  0  0  0  0  0
   36.8627   32.2224   50.5103 F   0  0  0  0  0  0  0  0  0  0  0  0
   37.1845   30.4696   51.8376 F   0  0  0  0  0  0  0  0  0  0  0  0
   35.8264   28.7479   51.1988 H   0  0  0  0  0  0  0  0  0  0  0  0
   34.2288   27.1022   47.0740 H   0  0  0  0  0  0  0  0  0  0  0  0
   32.8326   28.3598   46.8144 H   0  0  0  0  0  0  0  0  0  0  0  0
   35.5546   30.9517   45.7784 O   0  0  0  0  0  0  0  0  0  0  0  0
   36.3831   31.9596   46.3108 C   0  0  1  0  0  0  0  0  0  0  0  0
   36.7062   31.7087   47.7467 C   0  0  2  0  0  0  0  0  0  0  0  0
   38.0792   31.4396   47.8026 O   0  0  0  0  0  0  0  0  0  0  0  0
   38.8324   32.5603   47.5111 C   0  0  0  0  0  0  0  0  0  0  0  0
   38.7530   32.7603   46.0224 C   0  0  2  0  0  0  0  0  0  0  0  0
   38.5183   34.0988   45.7310 O   0  0  0  0  0  0  0  0  0  0  0  0
   37.6316   31.9070   45.4151 C   0  0  1  0  0  0  0  0  0  0  0  0
   38.0987   30.6032   45.3975 O   0  0  0  0  0  0  0  0  0  0  0  0
   35.1992   31.2874   44.9037 H   0  0  0  0  0  0  0  0  0  0  0  0
   35.9839   32.9879   46.0986 H   0  0  0  0  0  0  0  0  0  0  0  0
   36.6079   32.6091   48.3852 H   0  0  0  0  0  0  0  0  0  0  0  0
   39.8706   32.3326   47.8471 H   0  0  0  0  0  0  0  0  0  0  0  0
   38.4975   33.4334   48.1074 H   0  0  0  0  0  0  0  0  0  0  0  0
   39.6822   32.3912   45.5748 H   0  0  0  0  0  0  0  0  0  0  0  0
   39.0854   34.6703   46.3028 H   0  0  0  0  0  0  0  0  0  0  0  0
   37.4311   32.3486   44.4363 H   0  0  0  0  0  0  0  0  0  0  0  0
   38.7524   30.4452   44.6864 H   0  0  0  0  0  0  0  0  0  0  0  0
  2  1  2  0
  2  8  1  0
  3  2  1  0
  4  5  1  0
  4  3  2  0
  5  6  2  0
  6  1  1  0
  7  5  1  0
  8 11  1  0
  9  8  1  0
 10  8  1  0
  1 12  1  0
  7 13  1  0
  7 14  1  0
 15 16  1  0
 16 17  1  0
 17 18  1  0
 18 19  1  0
 19 20  1  0
 20 21  1  0
 20 22  1  0
 22 23  1  0
 22 16  1  0
 15 24  1  0
 16 25  1  1
 17 26  1  1
 19 27  1  0
 19 28  1  0
 20 29  1  6
 21 30  1  0
 22 31  1  6
 23 32  1  0
  3 17  1  0
M  ISO  1  12  14
M  END
>  <DihAtoms>  (1) 
1,2,16,15

>  <DihDeg>  (1) 
-91.90979488336156

$$$$
