
 OpenBabel03272506353D

 22 23  0  0  1  0  0  0  0  0999 V2000
   34.2450   30.5520   47.1890 C   0  0  1  0  0  0  0  0  0  0  0  0
   34.5280   29.7490   48.4350 C   0  0  1  0  0  0  0  0  0  0  0  0
   34.6200   28.3840   48.1740 O   0  0  0  0  0  0  0  0  0  0  0  0
   33.6230   28.0670   47.2220 C   0  0  0  0  0  0  0  0  0  0  0  0
   34.2690   28.3980   45.8840 C   0  0  2  0  0  0  0  0  0  0  0  0
   34.6800   29.8350   45.9340 C   0  0  2  0  0  0  0  0  0  0  0  0
   37.3630   30.0810   50.7870 C   0  0  0  0  0  0  0  0  0  0  0  0
   38.1800   31.0440   50.1570 C   0  0  0  0  0  0  0  0  0  0  0  0
   37.7450   31.5610   48.9390 C   0  0  0  0  0  0  0  0  0  0  0  0
   36.5680   31.1170   48.4230 N   0  0  0  0  0  0  0  0  0  0  0  0
   35.8050   30.1870   49.0600 C   0  0  0  0  0  0  0  0  0  0  0  0
   36.2120   29.6840   50.2290 N   0  0  0  0  0  0  0  0  0  0  0  0
   39.1100   31.4230   50.5220 H   0  0  0  0  0  0  0  0  0  0  0  0
   38.3110   32.3030   48.3890 H   0  0  0  0  0  0  0  0  0  0  0  0
   37.9030   29.6490   51.9830 O   0  0  0  0  0  0  0  0  0  0  0  0
   38.7750   29.1130   51.8890 H   0  0  0  0  0  0  0  0  0  0  0  0
   32.9340   30.9320   47.0420 O   0  0  0  0  0  0  0  0  0  0  0  0
   32.6210   31.5740   47.7280 H   0  0  0  0  0  0  0  0  0  0  0  0
   33.5050   28.0410   44.8030 O   0  0  0  0  0  0  0  0  0  0  0  0
   33.1620   28.8030   44.2760 H   0  0  0  0  0  0  0  0  0  0  0  0
   36.0880   29.9370   45.8980 O   0  0  0  0  0  0  0  0  0  0  0  0
   36.3930   30.6440   45.2980 H   0  0  0  0  0  0  0  0  0  0  0  0
  1 17  1  6  0  0  0
  1  2  1  0  0  0  0
  2 11  1  6  0  0  0
  3  2  1  0  0  0  0
  4  3  1  0  0  0  0
  5 19  1  6  0  0  0
  5  6  1  0  0  0  0
  5  4  1  0  0  0  0
  6 21  1  1  0  0  0
  6  1  1  0  0  0  0
  7 15  1  0  0  0  0
  8 13  1  0  0  0  0
  8  7  2  0  0  0  0
  9  8  1  0  0  0  0
 10  9  2  0  0  0  0
 10 11  1  0  0  0  0
 11 12  2  0  0  0  0
 12  7  1  0  0  0  0
 14  9  1  0  0  0  0
 16 15  1  0  0  0  0
 17 18  1  0  0  0  0
 20 19  1  0  0  0  0
 22 21  1  0  0  0  0
M  END
>  <minimizedAffinity>
-4.76456404

>  <minimizedRMSD>
1.96239173

$$$$
