
 OpenBabel03272505313D

 43 46  0  0  1  0  0  0  0  0999 V2000
   37.3400   31.1550   47.1010 N   0  0  0  0  0  0  0  0  0  0  0  0
   36.6950   30.9330   45.9250 C   0  0  0  0  0  0  0  0  0  0  0  0
   37.1340   31.4640   44.7280 C   0  0  0  0  0  0  0  0  0  0  0  0
   38.2980   32.2600   44.7550 C   0  0  0  0  0  0  0  0  0  0  0  0
   38.7400   32.7650   43.6970 O   0  0  0  0  0  0  0  0  0  0  0  0
   38.9440   32.4780   45.9510 N   0  0  0  0  0  0  0  0  0  0  0  0
   38.4230   31.9150   47.0280 C   0  0  0  0  0  0  0  0  0  0  0  0
   39.0410   32.1360   48.0960 O   0  0  0  0  0  0  0  0  0  0  0  0
   35.7900   30.3150   45.8980 H   0  0  0  0  0  0  0  0  0  0  0  0
   37.2670   29.4040   50.3780 C   0  0  0  0  0  0  0  0  0  0  0  0
   37.7460   29.9540   49.1730 C   0  0  0  0  0  0  0  0  0  0  0  0
   36.8740   30.6060   48.2990 C   0  0  0  0  0  0  0  0  0  0  0  0
   35.5720   30.6900   48.6480 N   0  0  0  0  0  0  0  0  0  0  0  0
   35.0960   30.1620   49.8110 C   0  0  0  0  0  0  0  0  0  0  0  0
   35.9490   29.5270   50.6600 N   0  0  0  0  0  0  0  0  0  0  0  0
   37.9620   28.9110   51.0240 H   0  0  0  0  0  0  0  0  0  0  0  0
   38.7720   29.9080   48.8610 H   0  0  0  0  0  0  0  0  0  0  0  0
   34.0770   30.2150   50.1060 H   0  0  0  0  0  0  0  0  0  0  0  0
   36.4850   31.2600   43.4460 C   0  0  0  0  0  0  0  0  0  0  0  0
   36.8180   30.2480   42.5880 C   0  0  0  0  0  0  0  0  0  0  0  0
   36.2340   30.0140   41.3680 C   0  0  0  0  0  0  0  0  0  0  0  0
   35.2080   30.8820   40.9540 C   0  0  0  0  0  0  0  0  0  0  0  0
   34.8960   31.9000   41.8520 C   0  0  0  0  0  0  0  0  0  0  0  0
   35.5110   32.0650   43.0270 N   0  0  0  0  0  0  0  0  0  0  0  0
   37.6080   29.5530   42.8700 H   0  0  0  0  0  0  0  0  0  0  0  0
   36.4990   29.2140   40.6940 H   0  0  0  0  0  0  0  0  0  0  0  0
   34.6690   30.8110   40.0250 H   0  0  0  0  0  0  0  0  0  0  0  0
   34.4570   34.2700   41.3530 C   0  0  2  0  0  3  0  0  0  0  0  0
   33.8270   32.9090   41.5640 C   0  0  1  0  0  3  0  0  0  0  0  0
   33.0750   32.4890   40.4710 O   0  0  0  0  0  0  0  0  0  0  0  0
   32.0020   33.3130   40.2580 C   0  0  0  0  0  2  0  0  0  0  0  0
   32.3390   34.7940   40.2890 C   0  0  2  0  0  3  0  0  0  0  0  0
   33.8370   34.9040   40.1190 C   0  0  1  0  0  3  0  0  0  0  0  0
   35.8480   34.1840   41.2250 O   0  0  0  0  0  0  0  0  0  0  0  0
   36.2400   34.4640   42.1120 H   0  0  0  0  0  0  0  0  0  0  0  0
   32.0580   35.2390   41.5970 O   0  0  0  0  0  0  0  0  0  0  0  0
   31.1060   35.0080   41.8210 H   0  0  0  0  0  0  0  0  0  0  0  0
   34.2700   36.2280   40.0600 O   0  0  0  0  0  0  0  0  0  0  0  0
   34.6980   36.3800   39.1730 H   0  0  0  0  0  0  0  0  0  0  0  0
   40.1340   33.2930   45.9730 C   0  0  0  0  0  0  0  0  0  0  0  0
   40.0730   34.2740   45.0450 F   0  0  0  0  0  0  0  0  0  0  0  0
   41.3020   32.5750   45.7080 F   0  0  0  0  0  0  0  0  0  0  0  0
   40.2380   33.8960   47.2310 F   0  0  0  0  0  0  0  0  0  0  0  0
  1 12  1  0  0  0  0
  2  1  1  0  0  0  0
  3  4  1  0  0  0  0
  3  2  2  0  0  0  0
  4  6  1  0  0  0  0
  5  4  2  0  0  0  0
  6 40  1  0  0  0  0
  6  7  1  0  0  0  0
  7  1  1  0  0  0  0
  7  8  2  0  0  0  0
  9  2  1  0  0  0  0
 10 15  1  0  0  0  0
 10 16  1  0  0  0  0
 11 10  2  0  0  0  0
 12 13  2  0  0  0  0
 12 11  1  0  0  0  0
 13 14  1  0  0  0  0
 14 18  1  0  0  0  0
 14 15  2  0  0  0  0
 17 11  1  0  0  0  0
 19  3  1  0  0  0  0
 20 25  1  0  0  0  0
 20 19  2  0  0  0  0
 21 20  1  0  0  0  0
 22 21  2  0  0  0  0
 22 23  1  0  0  0  0
 23 24  2  0  0  0  0
 24 19  1  0  0  0  0
 26 21  1  0  0  0  0
 27 22  1  0  0  0  0
 28 34  1  6  0  0  0
 28 29  1  0  0  0  0
 29 23  1  6  0  0  0
 30 29  1  0  0  0  0
 31 32  1  0  0  0  0
 31 30  1  0  0  0  0
 32 36  1  1  0  0  0
 33 38  1  1  0  0  0
 33 32  1  0  0  0  0
 33 28  1  0  0  0  0
 34 35  1  0  0  0  0
 36 37  1  0  0  0  0
 39 38  1  0  0  0  0
 40 43  1  0  0  0  0
 41 40  1  0  0  0  0
 42 40  1  0  0  0  0
M  END
>  <minimizedAffinity>
-6.80802298

>  <minimizedRMSD>
0.997163177

$$$$
