
 OpenBabel03272505313D

 43 46  0  0  1  0  0  0  0  0999 V2000
   37.3350   31.0210   47.3160 N   0  0  0  0  0  0  0  0  0  0  0  0
   36.6920   30.7180   46.1580 C   0  0  0  0  0  0  0  0  0  0  0  0
   37.1100   31.1990   44.9310 C   0  0  0  0  0  0  0  0  0  0  0  0
   38.2480   32.0310   44.9110 C   0  0  0  0  0  0  0  0  0  0  0  0
   38.6710   32.4930   43.8250 O   0  0  0  0  0  0  0  0  0  0  0  0
   38.8930   32.3310   46.0900 N   0  0  0  0  0  0  0  0  0  0  0  0
   38.3940   31.8090   47.1980 C   0  0  0  0  0  0  0  0  0  0  0  0
   39.0090   32.1050   48.2490 O   0  0  0  0  0  0  0  0  0  0  0  0
   35.8070   30.0720   46.1680 H   0  0  0  0  0  0  0  0  0  0  0  0
   37.3340   29.4660   50.6920 C   0  0  0  0  0  0  0  0  0  0  0  0
   37.7910   29.9670   49.4570 C   0  0  0  0  0  0  0  0  0  0  0  0
   36.8910   30.5220   48.5440 C   0  0  0  0  0  0  0  0  0  0  0  0
   35.5850   30.5590   48.8850 N   0  0  0  0  0  0  0  0  0  0  0  0
   35.1300   30.0780   50.0760 C   0  0  0  0  0  0  0  0  0  0  0  0
   36.0100   29.5390   50.9640 N   0  0  0  0  0  0  0  0  0  0  0  0
   38.0500   29.0490   51.3670 H   0  0  0  0  0  0  0  0  0  0  0  0
   38.8190   29.9550   49.1500 H   0  0  0  0  0  0  0  0  0  0  0  0
   34.1080   30.0980   50.3650 H   0  0  0  0  0  0  0  0  0  0  0  0
   36.4620   30.9080   43.6660 C   0  0  0  0  0  0  0  0  0  0  0  0
   36.6710   29.7530   42.9640 C   0  0  0  0  0  0  0  0  0  0  0  0
   36.0820   29.4330   41.7660 C   0  0  0  0  0  0  0  0  0  0  0  0
   35.1900   30.3630   41.2020 C   0  0  0  0  0  0  0  0  0  0  0  0
   35.0030   31.5270   41.9450 C   0  0  0  0  0  0  0  0  0  0  0  0
   35.6140   31.7700   43.1080 N   0  0  0  0  0  0  0  0  0  0  0  0
   37.3540   29.0050   43.3640 H   0  0  0  0  0  0  0  0  0  0  0  0
   36.2480   28.5200   41.2150 H   0  0  0  0  0  0  0  0  0  0  0  0
   34.6630   30.2370   40.2720 H   0  0  0  0  0  0  0  0  0  0  0  0
   34.3240   33.8640   42.3160 C   0  0  2  0  0  3  0  0  0  0  0  0
   34.0860   32.6190   41.4860 C   0  0  1  0  0  3  0  0  0  0  0  0
   34.2700   32.8380   40.1230 O   0  0  0  0  0  0  0  0  0  0  0  0
   33.3560   33.7330   39.6350 C   0  0  0  0  0  2  0  0  0  0  0  0
   33.1960   34.9840   40.4820 C   0  0  2  0  0  3  0  0  0  0  0  0
   34.4080   35.0590   41.3820 C   0  0  1  0  0  3  0  0  0  0  0  0
   35.4830   33.7550   43.0920 O   0  0  0  0  0  0  0  0  0  0  0  0
   35.1840   33.5400   44.0330 H   0  0  0  0  0  0  0  0  0  0  0  0
   32.0910   34.7530   41.3280 O   0  0  0  0  0  0  0  0  0  0  0  0
   31.2960   34.5080   40.7640 H   0  0  0  0  0  0  0  0  0  0  0  0
   34.4160   36.2110   42.1670 O   0  0  0  0  0  0  0  0  0  0  0  0
   35.2240   36.7450   41.9330 H   0  0  0  0  0  0  0  0  0  0  0  0
   40.0570   33.1820   46.0620 C   0  0  0  0  0  0  0  0  0  0  0  0
   39.9520   34.1240   45.0980 F   0  0  0  0  0  0  0  0  0  0  0  0
   41.2430   32.4910   45.8090 F   0  0  0  0  0  0  0  0  0  0  0  0
   40.1590   33.8370   47.2940 F   0  0  0  0  0  0  0  0  0  0  0  0
  1 12  1  0  0  0  0
  2  9  1  0  0  0  0
  2  1  1  0  0  0  0
  3  2  2  0  0  0  0
  4  3  1  0  0  0  0
  4  6  1  0  0  0  0
  5  4  2  0  0  0  0
  6  7  1  0  0  0  0
  7  1  1  0  0  0  0
  7  8  2  0  0  0  0
 10 15  1  0  0  0  0
 10 16  1  0  0  0  0
 11 10  2  0  0  0  0
 12 13  2  0  0  0  0
 12 11  1  0  0  0  0
 13 14  1  0  0  0  0
 14 18  1  0  0  0  0
 14 15  2  0  0  0  0
 17 11  1  0  0  0  0
 19  3  1  0  0  0  0
 20 25  1  0  0  0  0
 20 19  2  0  0  0  0
 21 20  1  0  0  0  0
 22 21  2  0  0  0  0
 22 23  1  0  0  0  0
 23 24  2  0  0  0  0
 24 19  1  0  0  0  0
 26 21  1  0  0  0  0
 27 22  1  0  0  0  0
 28 34  1  6  0  0  0
 29 23  1  1  0  0  0
 29 28  1  0  0  0  0
 30 29  1  0  0  0  0
 31 30  1  0  0  0  0
 31 32  1  0  0  0  0
 32 36  1  1  0  0  0
 32 33  1  0  0  0  0
 33 38  1  1  0  0  0
 33 28  1  0  0  0  0
 34 35  1  0  0  0  0
 37 36  1  0  0  0  0
 39 38  1  0  0  0  0
 40  6  1  0  0  0  0
 40 43  1  0  0  0  0
 41 40  1  0  0  0  0
 42 40  1  0  0  0  0
M  END
>  <minimizedAffinity>
-7.44833517

>  <minimizedRMSD>
0.30828777

$$$$
