
 OpenBabel03262521523D

 25 26  0  0  1  0  0  0  0  0999 V2000
   38.2170   25.0940   34.9990 C   0  0  0  0  0  0  0  0  0  0  0  0
   37.2440   24.5510   35.1390 H   0  0  0  0  0  0  0  0  0  0  0  0
   38.0260   26.1150   35.3850 H   0  0  0  0  0  0  0  0  0  0  0  0
   38.5520   23.9620   37.1050 C   0  0  2  0  0  3  0  0  0  0  0  0
   39.2800   24.3980   35.8520 C   0  0  1  0  0  3  0  0  0  0  0  0
   39.6670   23.2790   35.1580 O   0  0  0  0  0  0  0  0  0  0  0  0
   40.5190   22.4480   35.8380 C   0  0  0  0  0  2  0  0  0  0  0  0
   40.0240   21.9960   37.1830 C   0  0  2  0  0  3  0  0  0  0  0  0
   39.4010   23.0840   37.9950 C   0  0  2  0  0  3  0  0  0  0  0  0
   37.4140   23.2660   36.7000 O   0  0  0  0  0  0  0  0  0  0  0  0
   36.9110   22.8940   37.4700 H   0  0  0  0  0  0  0  0  0  0  0  0
   41.1390   21.5070   37.8650 O   0  0  0  0  0  0  0  0  0  0  0  0
   41.4630   22.1700   38.5450 H   0  0  0  0  0  0  0  0  0  0  0  0
   38.5390   22.5420   38.9680 O   0  0  0  0  0  0  0  0  0  0  0  0
   38.3690   23.1830   39.7130 H   0  0  0  0  0  0  0  0  0  0  0  0
   38.7050   25.2100   33.2680 S   0  0  0  0  0  0  0  0  0  0  0  0
   37.2010   25.0350   32.3010 C   0  0  0  0  0  0  0  0  0  0  0  0
   36.6760   26.2670   31.9010 C   0  0  0  0  0  0  0  0  0  0  0  0
   35.5040   26.2930   31.1360 C   0  0  0  0  0  0  0  0  0  0  0  0
   34.9390   25.0950   30.8270 N   0  0  0  0  0  0  0  0  0  0  0  0
   35.4830   23.9290   31.2370 C   0  0  0  0  0  0  0  0  0  0  0  0
   36.6100   23.8980   31.9710 N   0  0  0  0  0  0  0  0  0  0  0  0
   37.1030   27.2530   32.1310 H   0  0  0  0  0  0  0  0  0  0  0  0
   35.0910   27.2320   30.8230 H   0  0  0  0  0  0  0  0  0  0  0  0
   34.9690   23.0270   30.9460 H   0  0  0  0  0  0  0  0  0  0  0  0
  1  2  1  0  0  0  0
  1  3  1  0  0  0  0
  4 10  1  6  0  0  0
  4  9  1  0  0  0  0
  5  1  1  6  0  0  0
  5  4  1  0  0  0  0
  6  7  1  0  0  0  0
  6  5  1  0  0  0  0
  7  8  1  0  0  0  0
  8 12  1  1  0  0  0
  8  9  1  0  0  0  0
  9 14  1  1  0  0  0
 10 11  1  0  0  0  0
 12 13  1  0  0  0  0
 14 15  1  0  0  0  0
 16  1  1  0  0  0  0
 17 16  1  0  0  0  0
 18 23  1  0  0  0  0
 18 17  2  0  0  0  0
 19 18  1  0  0  0  0
 20 19  2  0  0  0  0
 20 21  1  0  0  0  0
 21 22  2  0  0  0  0
 22 17  1  0  0  0  0
 24 19  1  0  0  0  0
 25 21  1  0  0  0  0
M  END
>  <minimizedAffinity>
-4.90593767

$$$$

 OpenBabel03262521523D

 25 26  0  0  1  0  0  0  0  0999 V2000
   37.9290   25.3590   35.2810 C   0  0  0  0  0  0  0  0  0  0  0  0
   36.9290   25.0910   35.7150 H   0  0  0  0  0  0  0  0  0  0  0  0
   38.0240   26.4500   35.4490 H   0  0  0  0  0  0  0  0  0  0  0  0
   38.3080   24.0960   37.3020 C   0  0  2  0  0  3  0  0  0  0  0  0
   39.0080   24.6090   36.0630 C   0  0  1  0  0  3  0  0  0  0  0  0
   39.3760   23.5350   35.2910 O   0  0  0  0  0  0  0  0  0  0  0  0
   40.2400   22.6610   35.8980 C   0  0  0  0  0  2  0  0  0  0  0  0
   39.7740   22.1260   37.2230 C   0  0  2  0  0  3  0  0  0  0  0  0
   39.1730   23.1620   38.1160 C   0  0  2  0  0  3  0  0  0  0  0  0
   37.1580   23.4290   36.8800 O   0  0  0  0  0  0  0  0  0  0  0  0
   36.6710   23.0100   37.6360 H   0  0  0  0  0  0  0  0  0  0  0  0
   40.9020   21.5930   37.8470 O   0  0  0  0  0  0  0  0  0  0  0  0
   41.2430   22.2100   38.5600 H   0  0  0  0  0  0  0  0  0  0  0  0
   38.3320   22.5610   39.0720 O   0  0  0  0  0  0  0  0  0  0  0  0
   38.1800   23.1540   39.8600 H   0  0  0  0  0  0  0  0  0  0  0  0
   38.0250   25.0350   33.5100 S   0  0  0  0  0  0  0  0  0  0  0  0
   37.1870   26.3990   32.6950 C   0  0  0  0  0  0  0  0  0  0  0  0
   36.8830   27.4420   33.5740 C   0  0  0  0  0  0  0  0  0  0  0  0
   36.2290   28.5790   33.0830 C   0  0  0  0  0  0  0  0  0  0  0  0
   35.9250   28.5950   31.7580 N   0  0  0  0  0  0  0  0  0  0  0  0
   36.2390   27.5620   30.9470 C   0  0  0  0  0  0  0  0  0  0  0  0
   36.8680   26.4680   31.4120 N   0  0  0  0  0  0  0  0  0  0  0  0
   37.1120   27.4650   34.6480 H   0  0  0  0  0  0  0  0  0  0  0  0
   35.9900   29.3870   33.7480 H   0  0  0  0  0  0  0  0  0  0  0  0
   35.9600   27.6600   29.9100 H   0  0  0  0  0  0  0  0  0  0  0  0
  1  3  1  0  0  0  0
  1  2  1  0  0  0  0
  4 10  1  6  0  0  0
  4  9  1  0  0  0  0
  5  1  1  6  0  0  0
  5  4  1  0  0  0  0
  6  7  1  0  0  0  0
  6  5  1  0  0  0  0
  7  8  1  0  0  0  0
  8 12  1  1  0  0  0
  8  9  1  0  0  0  0
  9 14  1  1  0  0  0
 10 11  1  0  0  0  0
 12 13  1  0  0  0  0
 14 15  1  0  0  0  0
 16  1  1  0  0  0  0
 17 16  1  0  0  0  0
 17 18  1  0  0  0  0
 18 23  1  0  0  0  0
 19 18  2  0  0  0  0
 19 24  1  0  0  0  0
 20 19  1  0  0  0  0
 21 22  1  0  0  0  0
 21 20  2  0  0  0  0
 22 17  2  0  0  0  0
 25 21  1  0  0  0  0
M  END
>  <minimizedAffinity>
-4.77562141

$$$$

 OpenBabel03262521523D

 25 26  0  0  1  0  0  0  0  0999 V2000
   39.3300   23.9730   33.8660 C   0  0  0  0  0  0  0  0  0  0  0  0
   40.4520   24.0080   33.9170 H   0  0  0  0  0  0  0  0  0  0  0  0
   39.1100   23.3250   32.9950 H   0  0  0  0  0  0  0  0  0  0  0  0
   40.0400   22.7460   35.8190 C   0  0  2  0  0  3  0  0  0  0  0  0
   38.8120   23.3250   35.1510 C   0  0  1  0  0  3  0  0  0  0  0  0
   38.3240   24.3410   35.9330 O   0  0  0  0  0  0  0  0  0  0  0  0
   37.9430   23.9640   37.1940 C   0  0  0  0  0  2  0  0  0  0  0  0
   39.0010   23.2500   37.9890 C   0  0  2  0  0  3  0  0  0  0  0  0
   39.7540   22.2230   37.2080 C   0  0  2  0  0  3  0  0  0  0  0  0
   40.9920   23.7620   35.8840 O   0  0  0  0  0  0  0  0  0  0  0  0
   41.8110   23.4770   36.3660 H   0  0  0  0  0  0  0  0  0  0  0  0
   38.3380   22.6200   39.0420 O   0  0  0  0  0  0  0  0  0  0  0  0
   38.2390   21.6370   38.8660 H   0  0  0  0  0  0  0  0  0  0  0  0
   41.0020   21.9640   37.8080 O   0  0  0  0  0  0  0  0  0  0  0  0
   41.3770   21.0860   37.5220 H   0  0  0  0  0  0  0  0  0  0  0  0
   38.5990   25.5950   33.5810 S   0  0  0  0  0  0  0  0  0  0  0  0
   37.1890   25.3360   32.4980 C   0  0  0  0  0  0  0  0  0  0  0  0
   36.6380   26.5360   32.0400 C   0  0  0  0  0  0  0  0  0  0  0  0
   35.5320   26.4960   31.1830 C   0  0  0  0  0  0  0  0  0  0  0  0
   35.0540   25.2690   30.8460 N   0  0  0  0  0  0  0  0  0  0  0  0
   35.6190   24.1350   31.3150 C   0  0  0  0  0  0  0  0  0  0  0  0
   36.6830   24.1670   32.1380 N   0  0  0  0  0  0  0  0  0  0  0  0
   36.9970   27.5440   32.2910 H   0  0  0  0  0  0  0  0  0  0  0  0
   35.1000   27.4110   30.8250 H   0  0  0  0  0  0  0  0  0  0  0  0
   35.1750   23.2060   30.9960 H   0  0  0  0  0  0  0  0  0  0  0  0
  1  2  1  0  0  0  0
  3  1  1  0  0  0  0
  4 10  1  1  0  0  0
  4  9  1  0  0  0  0
  5  1  1  6  0  0  0
  5  4  1  0  0  0  0
  5  6  1  0  0  0  0
  6  7  1  0  0  0  0
  7  8  1  0  0  0  0
  8 12  1  1  0  0  0
  9 14  1  1  0  0  0
  9  8  1  0  0  0  0
 10 11  1  0  0  0  0
 13 12  1  0  0  0  0
 15 14  1  0  0  0  0
 16  1  1  0  0  0  0
 17 16  1  0  0  0  0
 18 23  1  0  0  0  0
 18 17  2  0  0  0  0
 19 18  1  0  0  0  0
 20 19  2  0  0  0  0
 20 21  1  0  0  0  0
 21 22  2  0  0  0  0
 22 17  1  0  0  0  0
 24 19  1  0  0  0  0
 25 21  1  0  0  0  0
M  END
>  <minimizedAffinity>
-4.73652554

$$$$

 OpenBabel03262521523D

 25 26  0  0  1  0  0  0  0  0999 V2000
   38.9750   24.7580   34.0880 C   0  0  0  0  0  0  0  0  0  0  0  0
   39.3970   25.7330   34.4510 H   0  0  0  0  0  0  0  0  0  0  0  0
   39.8380   24.2300   33.6370 H   0  0  0  0  0  0  0  0  0  0  0  0
   39.5520   22.9930   35.6290 C   0  0  2  0  0  3  0  0  0  0  0  0
   38.4550   23.9810   35.2990 C   0  0  1  0  0  3  0  0  0  0  0  0
   38.3520   24.8830   36.3280 O   0  0  0  0  0  0  0  0  0  0  0  0
   38.0340   24.3340   37.5430 C   0  0  0  0  0  2  0  0  0  0  0  0
   38.9480   23.2310   37.9990 C   0  0  2  0  0  3  0  0  0  0  0  0
   39.3010   22.2560   36.9250 C   0  0  2  0  0  3  0  0  0  0  0  0
   40.7430   23.7140   35.7180 O   0  0  0  0  0  0  0  0  0  0  0  0
   41.5060   23.1410   35.9930 H   0  0  0  0  0  0  0  0  0  0  0  0
   38.2680   22.5570   39.0140 O   0  0  0  0  0  0  0  0  0  0  0  0
   37.8890   21.6910   38.6780 H   0  0  0  0  0  0  0  0  0  0  0  0
   40.4950   21.5810   37.2440 O   0  0  0  0  0  0  0  0  0  0  0  0
   40.5860   20.7250   36.7400 H   0  0  0  0  0  0  0  0  0  0  0  0
   37.7060   24.9770   32.8270 S   0  0  0  0  0  0  0  0  0  0  0  0
   36.9830   26.5980   33.1060 C   0  0  0  0  0  0  0  0  0  0  0  0
   36.5340   27.1950   31.9250 C   0  0  0  0  0  0  0  0  0  0  0  0
   35.9420   28.4620   31.9830 C   0  0  0  0  0  0  0  0  0  0  0  0
   35.8420   29.0440   33.2080 N   0  0  0  0  0  0  0  0  0  0  0  0
   36.2920   28.4280   34.3230 C   0  0  0  0  0  0  0  0  0  0  0  0
   36.8600   27.2100   34.2740 N   0  0  0  0  0  0  0  0  0  0  0  0
   36.5970   26.7560   30.9200 H   0  0  0  0  0  0  0  0  0  0  0  0
   35.5930   28.9310   31.0820 H   0  0  0  0  0  0  0  0  0  0  0  0
   36.1720   28.9630   35.2520 H   0  0  0  0  0  0  0  0  0  0  0  0
  1  2  1  0  0  0  0
  3  1  1  0  0  0  0
  4 10  1  1  0  0  0
  4  9  1  0  0  0  0
  5  1  1  6  0  0  0
  5  4  1  0  0  0  0
  5  6  1  0  0  0  0
  6  7  1  0  0  0  0
  7  8  1  0  0  0  0
  8 12  1  1  0  0  0
  9 14  1  1  0  0  0
  9  8  1  0  0  0  0
 10 11  1  0  0  0  0
 13 12  1  0  0  0  0
 15 14  1  0  0  0  0
 16 17  1  0  0  0  0
 16  1  1  0  0  0  0
 17 22  1  0  0  0  0
 18 19  1  0  0  0  0
 18 17  2  0  0  0  0
 19 20  2  0  0  0  0
 20 21  1  0  0  0  0
 21 25  1  0  0  0  0
 22 21  2  0  0  0  0
 23 18  1  0  0  0  0
 24 19  1  0  0  0  0
M  END
>  <minimizedAffinity>
-4.69209146

$$$$

 OpenBabel03262521523D

 25 26  0  0  1  0  0  0  0  0999 V2000
   38.2970   24.4850   34.5270 C   0  0  0  0  0  0  0  0  0  0  0  0
   37.2990   24.3430   35.0210 H   0  0  0  0  0  0  0  0  0  0  0  0
   38.3890   25.5810   34.3920 H   0  0  0  0  0  0  0  0  0  0  0  0
   38.6540   23.6970   36.7800 C   0  0  2  0  0  3  0  0  0  0  0  0
   39.3790   23.9790   35.4830 C   0  0  1  0  0  3  0  0  0  0  0  0
   39.8330   22.7910   34.9670 O   0  0  0  0  0  0  0  0  0  0  0  0
   40.7140   22.1150   35.7700 C   0  0  0  0  0  2  0  0  0  0  0  0
   40.2200   21.8420   37.1630 C   0  0  2  0  0  3  0  0  0  0  0  0
   39.5310   23.0050   37.7990 C   0  0  2  0  0  3  0  0  0  0  0  0
   37.5590   22.8910   36.4740 O   0  0  0  0  0  0  0  0  0  0  0  0
   37.0620   22.6110   37.2870 H   0  0  0  0  0  0  0  0  0  0  0  0
   41.3470   21.5180   37.9190 O   0  0  0  0  0  0  0  0  0  0  0  0
   41.6260   22.2890   38.4960 H   0  0  0  0  0  0  0  0  0  0  0  0
   38.6820   22.5700   38.8350 O   0  0  0  0  0  0  0  0  0  0  0  0
   38.4680   23.3040   39.4740 H   0  0  0  0  0  0  0  0  0  0  0  0
   38.3920   23.6910   32.9120 S   0  0  0  0  0  0  0  0  0  0  0  0
   37.0990   22.4440   32.8790 C   0  0  0  0  0  0  0  0  0  0  0  0
   36.3910   22.4390   31.6750 C   0  0  0  0  0  0  0  0  0  0  0  0
   35.3520   21.5180   31.4980 C   0  0  0  0  0  0  0  0  0  0  0  0
   35.0920   20.6720   32.5300 N   0  0  0  0  0  0  0  0  0  0  0  0
   35.8030   20.7150   33.6780 C   0  0  0  0  0  0  0  0  0  0  0  0
   36.8040   21.5970   33.8530 N   0  0  0  0  0  0  0  0  0  0  0  0
   36.5730   23.1050   30.8200 H   0  0  0  0  0  0  0  0  0  0  0  0
   34.8010   21.5040   30.5770 H   0  0  0  0  0  0  0  0  0  0  0  0
   35.5290   20.0070   34.4440 H   0  0  0  0  0  0  0  0  0  0  0  0
  1  2  1  0  0  0  0
  3  1  1  0  0  0  0
  4 10  1  6  0  0  0
  4  9  1  0  0  0  0
  5  1  1  6  0  0  0
  5  4  1  0  0  0  0
  6  5  1  0  0  0  0
  6  7  1  0  0  0  0
  7  8  1  0  0  0  0
  8  9  1  0  0  0  0
  8 12  1  1  0  0  0
  9 14  1  1  0  0  0
 10 11  1  0  0  0  0
 12 13  1  0  0  0  0
 14 15  1  0  0  0  0
 16  1  1  0  0  0  0
 17 16  1  0  0  0  0
 17 22  1  0  0  0  0
 18 17  2  0  0  0  0
 19 18  1  0  0  0  0
 19 20  2  0  0  0  0
 20 21  1  0  0  0  0
 21 22  2  0  0  0  0
 21 25  1  0  0  0  0
 23 18  1  0  0  0  0
 24 19  1  0  0  0  0
M  END
>  <minimizedAffinity>
-4.67543936

$$$$

 OpenBabel03262521523D

 25 26  0  0  1  0  0  0  0  0999 V2000
   36.9150   27.3750   34.6400 C   0  0  0  0  0  0  0  0  0  0  0  0
   36.3850   28.1960   35.1940 H   0  0  0  0  0  0  0  0  0  0  0  0
   36.1930   26.5340   34.6290 H   0  0  0  0  0  0  0  0  0  0  0  0
   37.5700   26.6120   32.4460 C   0  0  2  0  0  3  0  0  0  0  0  0
   37.1840   27.8570   33.2140 C   0  0  1  0  0  3  0  0  0  0  0  0
   35.9880   28.3210   32.7250 O   0  0  0  0  0  0  0  0  0  0  0  0
   36.0050   28.6660   31.3990 C   0  0  0  0  0  2  0  0  0  0  0  0
   36.4850   27.5860   30.4690 C   0  0  2  0  0  3  0  0  0  0  0  0
   37.6930   26.8580   30.9600 C   0  0  2  0  0  3  0  0  0  0  0  0
   36.5830   25.6560   32.6870 O   0  0  0  0  0  0  0  0  0  0  0  0
   36.7350   24.8240   32.1680 H   0  0  0  0  0  0  0  0  0  0  0  0
   36.7980   28.2190   29.2660 O   0  0  0  0  0  0  0  0  0  0  0  0
   37.7910   28.3250   29.1640 H   0  0  0  0  0  0  0  0  0  0  0  0
   37.7900   25.5940   30.3480 O   0  0  0  0  0  0  0  0  0  0  0  0
   38.7160   25.2280   30.3930 H   0  0  0  0  0  0  0  0  0  0  0  0
   38.4210   26.8360   35.4700 S   0  0  0  0  0  0  0  0  0  0  0  0
   38.2530   25.0670   35.7350 C   0  0  0  0  0  0  0  0  0  0  0  0
   38.0350   24.7460   37.0770 C   0  0  0  0  0  0  0  0  0  0  0  0
   37.8810   23.4020   37.4410 C   0  0  0  0  0  0  0  0  0  0  0  0
   37.9570   22.4790   36.4460 N   0  0  0  0  0  0  0  0  0  0  0  0
   38.1710   22.8380   35.1610 C   0  0  0  0  0  0  0  0  0  0  0  0
   38.3180   24.1270   34.8060 N   0  0  0  0  0  0  0  0  0  0  0  0
   37.9670   25.4630   37.9070 H   0  0  0  0  0  0  0  0  0  0  0  0
   37.7130   23.1430   38.4690 H   0  0  0  0  0  0  0  0  0  0  0  0
   38.2170   22.0400   34.4380 H   0  0  0  0  0  0  0  0  0  0  0  0
  1  2  1  0  0  0  0
  1 16  1  0  0  0  0
  3  1  1  0  0  0  0
  4 10  1  6  0  0  0
  4  5  1  0  0  0  0
  5  1  1  1  0  0  0
  6  5  1  0  0  0  0
  7  6  1  0  0  0  0
  8 12  1  6  0  0  0
  8  9  1  0  0  0  0
  8  7  1  0  0  0  0
  9 14  1  6  0  0  0
  9  4  1  0  0  0  0
 11 10  1  0  0  0  0
 13 12  1  0  0  0  0
 14 15  1  0  0  0  0
 16 17  1  0  0  0  0
 17 18  1  0  0  0  0
 18 19  2  0  0  0  0
 18 23  1  0  0  0  0
 19 24  1  0  0  0  0
 20 19  1  0  0  0  0
 21 20  2  0  0  0  0
 22 21  1  0  0  0  0
 22 17  2  0  0  0  0
 25 21  1  0  0  0  0
M  END
>  <minimizedAffinity>
-4.60548735

$$$$

 OpenBabel03262521523D

 25 26  0  0  1  0  0  0  0  0999 V2000
   41.2870   24.3610   34.2410 C   0  0  0  0  0  0  0  0  0  0  0  0
   41.8940   24.0190   33.3600 H   0  0  0  0  0  0  0  0  0  0  0  0
   40.2450   24.0810   33.9870 H   0  0  0  0  0  0  0  0  0  0  0  0
   40.5370   23.4990   36.3670 C   0  0  2  0  0  3  0  0  0  0  0  0
   41.7560   23.5870   35.4740 C   0  0  1  0  0  3  0  0  0  0  0  0
   42.0770   22.3240   35.0450 O   0  0  0  0  0  0  0  0  0  0  0  0
   42.3860   21.4390   36.0440 C   0  0  0  0  0  2  0  0  0  0  0  0
   41.3380   21.2990   37.1130 C   0  0  2  0  0  3  0  0  0  0  0  0
   40.7540   22.5990   37.5610 C   0  0  2  0  0  3  0  0  0  0  0  0
   39.4900   23.0070   35.5880 O   0  0  0  0  0  0  0  0  0  0  0  0
   38.6650   22.8630   36.1200 H   0  0  0  0  0  0  0  0  0  0  0  0
   41.9670   20.6890   38.1990 O   0  0  0  0  0  0  0  0  0  0  0  0
   42.1740   21.3600   38.9160 H   0  0  0  0  0  0  0  0  0  0  0  0
   39.4910   22.3960   38.1500 O   0  0  0  0  0  0  0  0  0  0  0  0
   39.2260   23.1590   38.7350 H   0  0  0  0  0  0  0  0  0  0  0  0
   41.3650   26.1440   34.4880 S   0  0  0  0  0  0  0  0  0  0  0  0
   39.6840   26.7570   34.3210 C   0  0  0  0  0  0  0  0  0  0  0  0
   39.0840   27.0160   35.5560 C   0  0  0  0  0  0  0  0  0  0  0  0
   37.7710   27.5030   35.5880 C   0  0  0  0  0  0  0  0  0  0  0  0
   37.1530   27.6940   34.3930 N   0  0  0  0  0  0  0  0  0  0  0  0
   37.7740   27.4280   33.2230 C   0  0  0  0  0  0  0  0  0  0  0  0
   39.0350   26.9620   33.1860 N   0  0  0  0  0  0  0  0  0  0  0  0
   39.5520   26.8740   36.5400 H   0  0  0  0  0  0  0  0  0  0  0  0
   37.3000   27.7050   36.5300 H   0  0  0  0  0  0  0  0  0  0  0  0
   37.2080   27.6090   32.3230 H   0  0  0  0  0  0  0  0  0  0  0  0
  1 16  1  0  0  0  0
  2  1  1  0  0  0  0
  3  1  1  0  0  0  0
  4 10  1  6  0  0  0
  4  9  1  0  0  0  0
  5  1  1  6  0  0  0
  5  4  1  0  0  0  0
  6  5  1  0  0  0  0
  6  7  1  0  0  0  0
  7  8  1  0  0  0  0
  8  9  1  0  0  0  0
  8 12  1  1  0  0  0
  9 14  1  6  0  0  0
 10 11  1  0  0  0  0
 12 13  1  0  0  0  0
 14 15  1  0  0  0  0
 17 16  1  0  0  0  0
 17 18  1  0  0  0  0
 18 19  2  0  0  0  0
 18 23  1  0  0  0  0
 19 24  1  0  0  0  0
 20 19  1  0  0  0  0
 21 20  2  0  0  0  0
 22 21  1  0  0  0  0
 22 17  2  0  0  0  0
 25 21  1  0  0  0  0
M  END
>  <minimizedAffinity>
-4.538661

$$$$

 OpenBabel03262521523D

 25 26  0  0  1  0  0  0  0  0999 V2000
   38.8040   24.5250   33.8350 C   0  0  0  0  0  0  0  0  0  0  0  0
   39.2720   25.5070   34.1120 H   0  0  0  0  0  0  0  0  0  0  0  0
   39.6230   23.9480   33.3610 H   0  0  0  0  0  0  0  0  0  0  0  0
   39.4480   22.8500   35.4480 C   0  0  2  0  0  3  0  0  0  0  0  0
   38.3460   23.8330   35.1200 C   0  0  1  0  0  3  0  0  0  0  0  0
   38.3160   24.7990   36.0950 O   0  0  0  0  0  0  0  0  0  0  0  0
   38.0620   24.3320   37.3580 C   0  0  0  0  0  2  0  0  0  0  0  0
   38.9870   23.2440   37.8290 C   0  0  2  0  0  3  0  0  0  0  0  0
   39.2640   22.1980   36.7990 C   0  0  2  0  0  3  0  0  0  0  0  0
   40.6510   23.5540   35.4230 O   0  0  0  0  0  0  0  0  0  0  0  0
   41.4210   22.9870   35.6880 H   0  0  0  0  0  0  0  0  0  0  0  0
   38.3590   22.6450   38.9220 O   0  0  0  0  0  0  0  0  0  0  0  0
   37.9500   21.7660   38.6630 H   0  0  0  0  0  0  0  0  0  0  0  0
   40.4660   21.5250   37.0910 O   0  0  0  0  0  0  0  0  0  0  0  0
   40.5160   20.6380   36.6370 H   0  0  0  0  0  0  0  0  0  0  0  0
   37.4610   24.7070   32.6470 S   0  0  0  0  0  0  0  0  0  0  0  0
   37.2110   23.0900   31.9060 C   0  0  0  0  0  0  0  0  0  0  0  0
   35.8590   22.7920   31.7140 C   0  0  0  0  0  0  0  0  0  0  0  0
   35.5050   21.5640   31.1420 C   0  0  0  0  0  0  0  0  0  0  0  0
   36.5190   20.7230   30.8050 N   0  0  0  0  0  0  0  0  0  0  0  0
   37.8120   21.0540   31.0100 C   0  0  0  0  0  0  0  0  0  0  0  0
   38.1580   22.2330   31.5580 N   0  0  0  0  0  0  0  0  0  0  0  0
   35.0150   23.4450   31.9740 H   0  0  0  0  0  0  0  0  0  0  0  0
   34.4700   21.3240   30.9900 H   0  0  0  0  0  0  0  0  0  0  0  0
   38.5500   20.3270   30.7130 H   0  0  0  0  0  0  0  0  0  0  0  0
  1  2  1  0  0  0  0
  3  1  1  0  0  0  0
  4 10  1  1  0  0  0
  4  9  1  0  0  0  0
  5  1  1  6  0  0  0
  5  4  1  0  0  0  0
  5  6  1  0  0  0  0
  6  7  1  0  0  0  0
  7  8  1  0  0  0  0
  8 12  1  1  0  0  0
  9 14  1  1  0  0  0
  9  8  1  0  0  0  0
 10 11  1  0  0  0  0
 13 12  1  0  0  0  0
 15 14  1  0  0  0  0
 16  1  1  0  0  0  0
 17 16  1  0  0  0  0
 18 17  1  0  0  0  0
 18 23  1  0  0  0  0
 19 18  2  0  0  0  0
 20 21  2  0  0  0  0
 20 19  1  0  0  0  0
 21 22  1  0  0  0  0
 22 17  2  0  0  0  0
 24 19  1  0  0  0  0
 25 21  1  0  0  0  0
M  END
>  <minimizedAffinity>
-4.52966595

$$$$

 OpenBabel03262521523D

 25 26  0  0  1  0  0  0  0  0999 V2000
   37.8280   25.0990   33.6150 C   0  0  0  0  0  0  0  0  0  0  0  0
   37.0550   24.9440   34.4140 H   0  0  0  0  0  0  0  0  0  0  0  0
   37.5390   24.3990   32.8060 H   0  0  0  0  0  0  0  0  0  0  0  0
   37.2900   26.4360   31.6790 C   0  0  2  0  0  3  0  0  0  0  0  0
   37.7250   26.5440   33.1240 C   0  0  1  0  0  3  0  0  0  0  0  0
   36.7140   27.1310   33.8430 O   0  0  0  0  0  0  0  0  0  0  0  0
   36.3810   28.3970   33.4380 C   0  0  0  0  0  2  0  0  0  0  0  0
   36.0310   28.5240   31.9810 C   0  0  2  0  0  3  0  0  0  0  0  0
   36.9500   27.7780   31.0710 C   0  0  2  0  0  3  0  0  0  0  0  0
   36.1710   25.6050   31.6460 O   0  0  0  0  0  0  0  0  0  0  0  0
   35.7880   25.5300   30.7330 H   0  0  0  0  0  0  0  0  0  0  0  0
   36.1050   29.8850   31.6800 O   0  0  0  0  0  0  0  0  0  0  0  0
   36.9500   30.0960   31.1820 H   0  0  0  0  0  0  0  0  0  0  0  0
   36.3190   27.5150   29.8390 O   0  0  0  0  0  0  0  0  0  0  0  0
   36.9780   27.3220   29.1170 H   0  0  0  0  0  0  0  0  0  0  0  0
   39.4920   24.6880   34.1690 S   0  0  0  0  0  0  0  0  0  0  0  0
   39.3320   24.0590   35.8450 C   0  0  0  0  0  0  0  0  0  0  0  0
   38.2250   24.5900   36.5120 C   0  0  0  0  0  0  0  0  0  0  0  0
   37.9660   24.1910   37.8290 C   0  0  0  0  0  0  0  0  0  0  0  0
   38.8250   23.2960   38.3850 N   0  0  0  0  0  0  0  0  0  0  0  0
   39.8830   22.8100   37.7000 C   0  0  0  0  0  0  0  0  0  0  0  0
   40.1360   23.1890   36.4350 N   0  0  0  0  0  0  0  0  0  0  0  0
   37.5100   25.3130   36.0960 H   0  0  0  0  0  0  0  0  0  0  0  0
   37.1200   24.5920   38.3520 H   0  0  0  0  0  0  0  0  0  0  0  0
   40.5120   22.1050   38.2190 H   0  0  0  0  0  0  0  0  0  0  0  0
  1 16  1  0  0  0  0
  1  2  1  0  0  0  0
  3  1  1  0  0  0  0
  4 10  1  1  0  0  0
  4  5  1  0  0  0  0
  5  1  1  1  0  0  0
  5  6  1  0  0  0  0
  7  6  1  0  0  0  0
  8 12  1  6  0  0  0
  8  7  1  0  0  0  0
  9 14  1  6  0  0  0
  9  4  1  0  0  0  0
  9  8  1  0  0  0  0
 11 10  1  0  0  0  0
 13 12  1  0  0  0  0
 15 14  1  0  0  0  0
 16 17  1  0  0  0  0
 17 22  2  0  0  0  0
 17 18  1  0  0  0  0
 18 19  2  0  0  0  0
 19 24  1  0  0  0  0
 19 20  1  0  0  0  0
 21 25  1  0  0  0  0
 21 20  2  0  0  0  0
 22 21  1  0  0  0  0
 23 18  1  0  0  0  0
M  END
>  <minimizedAffinity>
-4.4766202

$$$$
