
 OpenBabel03272500523D

 48 53  0  0  1  0  0  0  0  0999 V2000
   37.3330   27.3120   33.7050 C   0  0  0  0  0  0  0  0  0  0  0  0
   37.3090   27.2160   32.3240 C   0  0  0  0  0  0  0  0  0  0  0  0
   36.2580   27.9500   31.8760 N   0  0  0  0  0  0  0  0  0  0  0  0
   35.6240   28.5030   32.9350 C   0  0  0  0  0  0  0  0  0  0  0  0
   36.2880   28.1070   34.0420 N   0  0  0  0  0  0  0  0  0  0  0  0
   37.9950   26.6580   31.6700 H   0  0  0  0  0  0  0  0  0  0  0  0
   35.9290   28.1090   30.8830 H   0  0  0  0  0  0  0  0  0  0  0  0
   37.8780   26.0690   35.8770 C   0  0  1  0  0  0  0  0  0  0  0  0
   38.7860   27.3560   35.8410 C   0  0  0  0  0  0  0  0  0  0  0  0
   38.3220   26.6420   34.6070 C   0  0  2  0  0  0  0  0  0  0  0  0
   36.8430   26.2770   36.2190 H   0  0  0  0  0  0  0  0  0  0  0  0
   39.7940   27.1910   36.2340 H   0  0  0  0  0  0  0  0  0  0  0  0
   38.2780   28.3020   36.0820 H   0  0  0  0  0  0  0  0  0  0  0  0
   39.1610   26.1510   34.0630 H   0  0  0  0  0  0  0  0  0  0  0  0
   39.8770   23.1490   36.5250 C   0  0  0  0  0  0  0  0  0  0  0  0
   38.9900   23.0930   37.5990 C   0  0  0  0  0  0  0  0  0  0  0  0
   38.1150   24.1950   37.4940 C   0  0  0  0  0  0  0  0  0  0  0  0
   38.4880   24.8610   36.3950 N   0  0  0  0  0  0  0  0  0  0  0  0
   39.5060   24.2250   35.8650 N   0  0  0  0  0  0  0  0  0  0  0  0
   38.9240   22.3720   38.4010 H   0  0  0  0  0  0  0  0  0  0  0  0
   37.3150   24.4100   38.1960 H   0  0  0  0  0  0  0  0  0  0  0  0
   41.4120   21.8500   35.0270 C   0  0  0  0  0  0  0  0  0  0  0  0
   40.9110   22.1810   36.3110 C   0  0  0  0  0  0  0  0  0  0  0  0
   41.4750   21.5170   37.3710 C   0  0  0  0  0  0  0  0  0  0  0  0
   42.4570   20.6020   37.1340 N   0  0  0  0  0  0  0  0  0  0  0  0
   42.8970   20.3210   35.8990 C   0  0  0  0  0  0  0  0  0  0  0  0
   42.3730   20.9520   34.8190 N   0  0  0  0  0  0  0  0  0  0  0  0
   40.9610   22.3770   34.2010 H   0  0  0  0  0  0  0  0  0  0  0  0
   41.1500   21.7110   38.3880 H   0  0  0  0  0  0  0  0  0  0  0  0
   43.6780   19.5710   35.9170 H   0  0  0  0  0  0  0  0  0  0  0  0
   34.4120   29.3770   32.9050 C   0  0  0  0  0  0  0  0  0  0  0  0
   34.1820   30.2640   31.8430 C   0  0  0  0  0  0  0  0  0  0  0  0
   32.6180   31.0650   32.3260 S   0  0  0  0  0  0  0  0  0  0  0  0
   32.5300   30.0470   33.9170 C   0  0  0  0  0  0  0  0  0  0  0  0
   33.4810   29.4210   33.8300 N   0  0  0  0  0  0  0  0  0  0  0  0
   34.7840   30.4280   30.9610 H   0  0  0  0  0  0  0  0  0  0  0  0
   31.6910   30.0570   36.2500 C   0  0  2  0  0  3  0  0  0  0  0  0
   31.3620   30.2830   34.8110 C   0  0  2  0  0  3  0  0  0  0  0  0
   30.2350   29.5980   34.3640 O   0  0  0  0  0  0  0  0  0  0  0  0
   29.5600   28.9480   35.3730 C   0  0  0  0  0  2  0  0  0  0  0  0
   30.4040   27.9970   36.1720 C   0  0  2  0  0  3  0  0  0  0  0  0
   31.6710   28.6230   36.6690 C   0  0  2  0  0  3  0  0  0  0  0  0
   30.9460   30.8720   37.0940 O   0  0  0  0  0  0  0  0  0  0  0  0
   30.4340   31.5420   36.5910 H   0  0  0  0  0  0  0  0  0  0  0  0
   30.6430   26.7820   35.5110 O   0  0  0  0  0  0  0  0  0  0  0  0
   31.5190   26.4460   35.8420 H   0  0  0  0  0  0  0  0  0  0  0  0
   31.7340   28.6070   38.0790 O   0  0  0  0  0  0  0  0  0  0  0  0
   31.1770   29.3780   38.4130 H   0  0  0  0  0  0  0  0  0  0  0  0
  1  5  1  0  0  0  0
  1 10  1  0  0  0  0
  2  1  2  0  0  0  0
  3  2  1  0  0  0  0
  3  4  1  0  0  0  0
  4  5  2  0  0  0  0
  6  2  1  0  0  0  0
  7  3  1  0  0  0  0
  8 11  1  1  0  0  0
  8 18  1  0  0  0  0
  9  8  1  0  0  0  0
  9 13  1  0  0  0  0
  9 12  1  0  0  0  0
 10 14  1  6  0  0  0
 10  9  1  0  0  0  0
 10  8  1  0  0  0  0
 15 16  1  0  0  0  0
 16 20  1  0  0  0  0
 17 16  2  0  0  0  0
 17 21  1  0  0  0  0
 18 17  1  0  0  0  0
 19 18  1  0  0  0  0
 19 15  2  0  0  0  0
 22 23  1  0  0  0  0
 23 15  1  0  0  0  0
 23 24  2  0  0  0  0
 24 29  1  0  0  0  0
 25 24  1  0  0  0  0
 26 30  1  0  0  0  0
 26 25  2  0  0  0  0
 27 22  2  0  0  0  0
 27 26  1  0  0  0  0
 28 22  1  0  0  0  0
 31  4  1  0  0  0  0
 31 35  1  0  0  0  0
 32 33  1  0  0  0  0
 32 31  2  0  0  0  0
 33 34  1  0  0  0  0
 35 34  2  0  0  0  0
 36 32  1  0  0  0  0
 37 42  1  0  0  0  0
 37 43  1  1  0  0  0
 38 34  1  6  0  0  0
 38 37  1  0  0  0  0
 39 38  1  0  0  0  0
 39 40  1  0  0  0  0
 40 41  1  0  0  0  0
 41 45  1  6  0  0  0
 41 42  1  0  0  0  0
 42 47  1  1  0  0  0
 44 43  1  0  0  0  0
 45 46  1  0  0  0  0
 47 48  1  0  0  0  0
M  END
>  <minimizedAffinity>
-7.31312513

$$$$

 OpenBabel03272500523D

 48 53  0  0  1  0  0  0  0  0999 V2000
   37.3350   27.2690   33.6240 C   0  0  0  0  0  0  0  0  0  0  0  0
   37.0430   26.9270   32.3150 C   0  0  0  0  0  0  0  0  0  0  0  0
   36.0800   27.7750   31.8710 N   0  0  0  0  0  0  0  0  0  0  0  0
   35.7610   28.6380   32.8620 C   0  0  0  0  0  0  0  0  0  0  0  0
   36.5330   28.3200   33.9240 N   0  0  0  0  0  0  0  0  0  0  0  0
   37.4840   26.1230   31.7090 H   0  0  0  0  0  0  0  0  0  0  0  0
   35.6100   27.8150   30.9240 H   0  0  0  0  0  0  0  0  0  0  0  0
   37.9230   26.0700   35.8110 C   0  0  1  0  0  0  0  0  0  0  0  0
   38.8890   27.3080   35.6880 C   0  0  0  0  0  0  0  0  0  0  0  0
   38.3330   26.5800   34.5020 C   0  0  2  0  0  0  0  0  0  0  0  0
   36.9170   26.3400   36.1930 H   0  0  0  0  0  0  0  0  0  0  0  0
   39.9060   27.1070   36.0390 H   0  0  0  0  0  0  0  0  0  0  0  0
   38.4400   28.2850   35.9200 H   0  0  0  0  0  0  0  0  0  0  0  0
   39.1200   26.0300   33.9370 H   0  0  0  0  0  0  0  0  0  0  0  0
   39.8720   23.1310   36.5200 C   0  0  0  0  0  0  0  0  0  0  0  0
   38.9230   23.0580   37.5380 C   0  0  0  0  0  0  0  0  0  0  0  0
   38.0590   24.1650   37.4020 C   0  0  0  0  0  0  0  0  0  0  0  0
   38.4980   24.8510   36.3400 N   0  0  0  0  0  0  0  0  0  0  0  0
   39.5440   24.2210   35.8600 N   0  0  0  0  0  0  0  0  0  0  0  0
   38.8070   22.3220   38.3210 H   0  0  0  0  0  0  0  0  0  0  0  0
   37.2180   24.3690   38.0580 H   0  0  0  0  0  0  0  0  0  0  0  0
   41.5100   21.4650   37.4310 C   0  0  0  0  0  0  0  0  0  0  0  0
   40.9150   22.1640   36.3500 C   0  0  0  0  0  0  0  0  0  0  0  0
   41.3940   21.8660   35.0990 C   0  0  0  0  0  0  0  0  0  0  0  0
   42.3870   20.9410   34.9720 N   0  0  0  0  0  0  0  0  0  0  0  0
   42.9200   20.3060   36.0260 C   0  0  0  0  0  0  0  0  0  0  0  0
   42.4800   20.5650   37.2830 N   0  0  0  0  0  0  0  0  0  0  0  0
   41.1260   21.7070   38.4090 H   0  0  0  0  0  0  0  0  0  0  0  0
   40.9940   22.3550   34.2170 H   0  0  0  0  0  0  0  0  0  0  0  0
   43.6930   19.6110   35.7220 H   0  0  0  0  0  0  0  0  0  0  0  0
   34.7450   29.7320   32.8140 C   0  0  0  0  0  0  0  0  0  0  0  0
   34.4340   30.3830   31.6100 C   0  0  0  0  0  0  0  0  0  0  0  0
   33.1850   31.6040   32.1290 S   0  0  0  0  0  0  0  0  0  0  0  0
   33.2910   31.0230   33.9250 C   0  0  0  0  0  0  0  0  0  0  0  0
   34.0740   30.1950   33.8430 N   0  0  0  0  0  0  0  0  0  0  0  0
   34.8350   30.2010   30.6240 H   0  0  0  0  0  0  0  0  0  0  0  0
   32.7130   33.1750   35.0130 C   0  0  2  0  0  3  0  0  0  0  0  0
   32.4190   31.7140   34.9160 C   0  0  2  0  0  3  0  0  0  0  0  0
   32.4110   31.0460   36.1370 O   0  0  0  0  0  0  0  0  0  0  0  0
   32.5440   31.8900   37.2180 C   0  0  0  0  0  2  0  0  0  0  0  0
   33.7570   32.7730   37.1700 C   0  0  2  0  0  3  0  0  0  0  0  0
   33.8880   33.5110   35.8740 C   0  0  2  0  0  3  0  0  0  0  0  0
   31.5840   33.9180   35.3330 O   0  0  0  0  0  0  0  0  0  0  0  0
   30.7700   33.3690   35.3100 H   0  0  0  0  0  0  0  0  0  0  0  0
   34.9420   32.1020   37.5140 O   0  0  0  0  0  0  0  0  0  0  0  0
   35.6790   32.5610   37.0290 H   0  0  0  0  0  0  0  0  0  0  0  0
   33.8640   34.9080   36.0720 O   0  0  0  0  0  0  0  0  0  0  0  0
   32.8980   35.1810   36.1740 H   0  0  0  0  0  0  0  0  0  0  0  0
  1  5  1  0  0  0  0
  1 10  1  0  0  0  0
  2  1  2  0  0  0  0
  3  2  1  0  0  0  0
  3  4  1  0  0  0  0
  4  5  2  0  0  0  0
  6  2  1  0  0  0  0
  7  3  1  0  0  0  0
  8 11  1  1  0  0  0
  8 18  1  0  0  0  0
  9  8  1  0  0  0  0
  9 13  1  0  0  0  0
  9 12  1  0  0  0  0
 10 14  1  6  0  0  0
 10  9  1  0  0  0  0
 10  8  1  0  0  0  0
 15 16  1  0  0  0  0
 16 20  1  0  0  0  0
 17 16  2  0  0  0  0
 17 21  1  0  0  0  0
 18 17  1  0  0  0  0
 19 18  1  0  0  0  0
 19 15  2  0  0  0  0
 22 28  1  0  0  0  0
 23 15  1  0  0  0  0
 23 22  2  0  0  0  0
 24 23  1  0  0  0  0
 25 24  2  0  0  0  0
 25 26  1  0  0  0  0
 26 27  2  0  0  0  0
 27 22  1  0  0  0  0
 29 24  1  0  0  0  0
 30 26  1  0  0  0  0
 31  4  1  0  0  0  0
 31 35  1  0  0  0  0
 32 33  1  0  0  0  0
 32 31  2  0  0  0  0
 33 34  1  0  0  0  0
 35 34  2  0  0  0  0
 36 32  1  0  0  0  0
 37 43  1  1  0  0  0
 37 42  1  0  0  0  0
 38 34  1  6  0  0  0
 38 37  1  0  0  0  0
 38 39  1  0  0  0  0
 39 40  1  0  0  0  0
 41 40  1  0  0  0  0
 41 45  1  6  0  0  0
 42 47  1  1  0  0  0
 42 41  1  0  0  0  0
 44 43  1  0  0  0  0
 46 45  1  0  0  0  0
 47 48  1  0  0  0  0
M  END
>  <minimizedAffinity>
-6.65374374

$$$$

 OpenBabel03272500523D

 48 53  0  0  1  0  0  0  0  0999 V2000
   37.9730   25.9880   35.4110 C   0  0  0  0  0  0  0  0  0  0  0  0
   38.4030   27.0550   36.1800 C   0  0  0  0  0  0  0  0  0  0  0  0
   37.7560   28.1670   35.7440 N   0  0  0  0  0  0  0  0  0  0  0  0
   36.9340   27.8270   34.7260 C   0  0  0  0  0  0  0  0  0  0  0  0
   37.0750   26.4970   34.5330 N   0  0  0  0  0  0  0  0  0  0  0  0
   39.1330   27.0490   37.0030 H   0  0  0  0  0  0  0  0  0  0  0  0
   37.8300   29.1630   36.0920 H   0  0  0  0  0  0  0  0  0  0  0  0
   39.8330   24.2350   35.2340 C   0  0  1  0  0  0  0  0  0  0  0  0
   38.6530   23.7520   34.3080 C   0  0  0  0  0  0  0  0  0  0  0  0
   38.4440   24.5730   35.5450 C   0  0  2  0  0  0  0  0  0  0  0  0
   40.4720   25.0060   34.7570 H   0  0  0  0  0  0  0  0  0  0  0  0
   38.4990   22.6700   34.3250 H   0  0  0  0  0  0  0  0  0  0  0  0
   38.5590   24.2790   33.3470 H   0  0  0  0  0  0  0  0  0  0  0  0
   37.9210   24.0020   36.3470 H   0  0  0  0  0  0  0  0  0  0  0  0
   42.0780   21.7170   36.4840 C   0  0  0  0  0  0  0  0  0  0  0  0
   41.1240   21.7340   37.5000 C   0  0  0  0  0  0  0  0  0  0  0  0
   40.1470   22.6930   37.1590 C   0  0  0  0  0  0  0  0  0  0  0  0
   40.5280   23.2090   35.9840 N   0  0  0  0  0  0  0  0  0  0  0  0
   41.6450   22.6200   35.6290 N   0  0  0  0  0  0  0  0  0  0  0  0
   41.0760   21.1520   38.4090 H   0  0  0  0  0  0  0  0  0  0  0  0
   39.2780   22.9240   37.7670 H   0  0  0  0  0  0  0  0  0  0  0  0
   43.2260   19.5780   37.1090 C   0  0  0  0  0  0  0  0  0  0  0  0
   43.2230   20.8570   36.4980 C   0  0  0  0  0  0  0  0  0  0  0  0
   44.3960   21.2460   35.9030 C   0  0  0  0  0  0  0  0  0  0  0  0
   45.4680   20.4040   35.9340 N   0  0  0  0  0  0  0  0  0  0  0  0
   45.4230   19.2030   36.5270 C   0  0  0  0  0  0  0  0  0  0  0  0
   44.2860   18.7710   37.1280 N   0  0  0  0  0  0  0  0  0  0  0  0
   42.2990   19.2820   37.5740 H   0  0  0  0  0  0  0  0  0  0  0  0
   44.4800   22.2100   35.4120 H   0  0  0  0  0  0  0  0  0  0  0  0
   46.3700   18.6840   36.4450 H   0  0  0  0  0  0  0  0  0  0  0  0
   36.0420   28.7360   33.9440 C   0  0  0  0  0  0  0  0  0  0  0  0
   35.7840   28.5080   32.5840 C   0  0  0  0  0  0  0  0  0  0  0  0
   34.6830   29.8940   32.1500 S   0  0  0  0  0  0  0  0  0  0  0  0
   34.7540   30.5670   33.9160 C   0  0  0  0  0  0  0  0  0  0  0  0
   35.4400   29.8040   34.4150 N   0  0  0  0  0  0  0  0  0  0  0  0
   36.1480   27.7090   31.9550 H   0  0  0  0  0  0  0  0  0  0  0  0
   34.8470   33.0150   34.2980 C   0  0  2  0  0  3  0  0  0  0  0  0
   33.9760   31.8060   34.2020 C   0  0  2  0  0  3  0  0  0  0  0  0
   33.1190   31.6270   35.2840 O   0  0  0  0  0  0  0  0  0  0  0  0
   33.1430   32.6770   36.1750 C   0  0  0  0  0  2  0  0  0  0  0  0
   34.5070   33.0110   36.7050 C   0  0  2  0  0  3  0  0  0  0  0  0
   35.5250   33.1830   35.6200 C   0  0  2  0  0  3  0  0  0  0  0  0
   34.1930   34.1680   33.8810 O   0  0  0  0  0  0  0  0  0  0  0  0
   33.3230   33.9640   33.4760 H   0  0  0  0  0  0  0  0  0  0  0  0
   34.9460   32.1220   37.6990 O   0  0  0  0  0  0  0  0  0  0  0  0
   35.9390   32.1050   37.6480 H   0  0  0  0  0  0  0  0  0  0  0  0
   36.0780   34.4820   35.6350 O   0  0  0  0  0  0  0  0  0  0  0  0
   35.4230   35.0930   35.1700 H   0  0  0  0  0  0  0  0  0  0  0  0
  1 10  1  0  0  0  0
  1  2  2  0  0  0  0
  2  6  1  0  0  0  0
  3  7  1  0  0  0  0
  3  2  1  0  0  0  0
  4  3  1  0  0  0  0
  5  4  2  0  0  0  0
  5  1  1  0  0  0  0
  8 11  1  6  0  0  0
  8 10  1  0  0  0  0
  8 18  1  0  0  0  0
  9 12  1  0  0  0  0
  9  8  1  0  0  0  0
  9 10  1  0  0  0  0
 10 14  1  1  0  0  0
 13  9  1  0  0  0  0
 15 23  1  0  0  0  0
 15 16  1  0  0  0  0
 16 20  1  0  0  0  0
 17 16  2  0  0  0  0
 17 21  1  0  0  0  0
 18 17  1  0  0  0  0
 19 18  1  0  0  0  0
 19 15  2  0  0  0  0
 22 27  1  0  0  0  0
 22 28  1  0  0  0  0
 23 22  2  0  0  0  0
 24 25  2  0  0  0  0
 24 23  1  0  0  0  0
 25 26  1  0  0  0  0
 26 27  2  0  0  0  0
 29 24  1  0  0  0  0
 30 26  1  0  0  0  0
 31 35  1  0  0  0  0
 31  4  1  0  0  0  0
 32 31  2  0  0  0  0
 33 32  1  0  0  0  0
 33 34  1  0  0  0  0
 34 35  2  0  0  0  0
 36 32  1  0  0  0  0
 37 43  1  1  0  0  0
 37 42  1  0  0  0  0
 38 34  1  1  0  0  0
 38 37  1  0  0  0  0
 38 39  1  0  0  0  0
 39 40  1  0  0  0  0
 40 41  1  0  0  0  0
 41 45  1  1  0  0  0
 42 47  1  6  0  0  0
 42 41  1  0  0  0  0
 44 43  1  0  0  0  0
 46 45  1  0  0  0  0
 48 47  1  0  0  0  0
M  END
>  <minimizedAffinity>
-6.58728743

$$$$

 OpenBabel03272500523D

 48 53  0  0  1  0  0  0  0  0999 V2000
   36.2190   28.5300   31.2540 C   0  0  0  0  0  0  0  0  0  0  0  0
   36.3820   29.6210   30.4180 C   0  0  0  0  0  0  0  0  0  0  0  0
   35.4070   30.5190   30.7150 N   0  0  0  0  0  0  0  0  0  0  0  0
   34.6400   30.0230   31.7100 C   0  0  0  0  0  0  0  0  0  0  0  0
   35.1450   28.8120   32.0310 N   0  0  0  0  0  0  0  0  0  0  0  0
   37.1470   29.7740   29.6420 H   0  0  0  0  0  0  0  0  0  0  0  0
   35.2180   31.4660   30.2830 H   0  0  0  0  0  0  0  0  0  0  0  0
   36.7190   26.1690   32.1150 C   0  0  1  0  0  0  0  0  0  0  0  0
   37.9920   27.0490   32.4120 C   0  0  0  0  0  0  0  0  0  0  0  0
   37.0720   27.2990   31.2550 C   0  0  2  0  0  0  0  0  0  0  0  0
   35.9130   26.3060   32.8650 H   0  0  0  0  0  0  0  0  0  0  0  0
   38.9360   26.5150   32.2670 H   0  0  0  0  0  0  0  0  0  0  0  0
   37.9060   27.7360   33.2670 H   0  0  0  0  0  0  0  0  0  0  0  0
   37.5600   27.0940   30.2750 H   0  0  0  0  0  0  0  0  0  0  0  0
   36.7450   22.6130   31.5730 C   0  0  0  0  0  0  0  0  0  0  0  0
   37.7250   23.0150   30.6660 C   0  0  0  0  0  0  0  0  0  0  0  0
   37.8430   24.4190   30.7530 C   0  0  0  0  0  0  0  0  0  0  0  0
   36.9600   24.8090   31.6800 N   0  0  0  0  0  0  0  0  0  0  0  0
   36.3470   23.7380   32.1280 N   0  0  0  0  0  0  0  0  0  0  0  0
   38.3230   22.4220   29.9900 H   0  0  0  0  0  0  0  0  0  0  0  0
   38.5320   25.0130   30.1610 H   0  0  0  0  0  0  0  0  0  0  0  0
   35.8580   20.7360   32.9780 C   0  0  0  0  0  0  0  0  0  0  0  0
   36.3590   21.2460   31.7550 C   0  0  0  0  0  0  0  0  0  0  0  0
   36.4630   20.3490   30.7220 C   0  0  0  0  0  0  0  0  0  0  0  0
   36.0870   19.0540   30.9270 N   0  0  0  0  0  0  0  0  0  0  0  0
   35.6190   18.6180   32.1050 C   0  0  0  0  0  0  0  0  0  0  0  0
   35.4970   19.4670   33.1570 N   0  0  0  0  0  0  0  0  0  0  0  0
   35.7810   21.4500   33.7840 H   0  0  0  0  0  0  0  0  0  0  0  0
   36.8370   20.6560   29.7510 H   0  0  0  0  0  0  0  0  0  0  0  0
   35.3760   17.5630   32.0700 H   0  0  0  0  0  0  0  0  0  0  0  0
   33.4500   30.6710   32.3410 C   0  0  0  0  0  0  0  0  0  0  0  0
   32.5150   31.3800   31.5720 C   0  0  0  0  0  0  0  0  0  0  0  0
   31.3230   31.9550   32.8250 S   0  0  0  0  0  0  0  0  0  0  0  0
   32.3040   31.1240   34.2110 C   0  0  0  0  0  0  0  0  0  0  0  0
   33.1670   30.6620   33.6230 N   0  0  0  0  0  0  0  0  0  0  0  0
   32.5080   31.5420   30.5040 H   0  0  0  0  0  0  0  0  0  0  0  0
   32.2010   30.1380   36.4840 C   0  0  2  0  0  3  0  0  0  0  0  0
   31.7710   31.2600   35.5960 C   0  0  2  0  0  3  0  0  0  0  0  0
   30.3990   31.4950   35.5900 O   0  0  0  0  0  0  0  0  0  0  0  0
   29.7140   30.7340   36.5110 C   0  0  0  0  0  2  0  0  0  0  0  0
   29.9400   29.2550   36.3840 C   0  0  2  0  0  3  0  0  0  0  0  0
   31.3910   28.8910   36.3370 C   0  0  2  0  0  3  0  0  0  0  0  0
   32.3340   30.5380   37.8080 O   0  0  0  0  0  0  0  0  0  0  0  0
   32.2500   31.5120   37.9020 H   0  0  0  0  0  0  0  0  0  0  0  0
   29.2190   28.6750   35.3280 O   0  0  0  0  0  0  0  0  0  0  0  0
   29.7430   27.8870   35.0240 H   0  0  0  0  0  0  0  0  0  0  0  0
   31.7440   28.0450   37.4100 O   0  0  0  0  0  0  0  0  0  0  0  0
   31.8780   28.6280   38.2220 H   0  0  0  0  0  0  0  0  0  0  0  0
  1 10  1  0  0  0  0
  1  5  1  0  0  0  0
  2  3  1  0  0  0  0
  2  1  2  0  0  0  0
  3  4  1  0  0  0  0
  4  5  2  0  0  0  0
  4 31  1  0  0  0  0
  6  2  1  0  0  0  0
  7  3  1  0  0  0  0
  8  9  1  0  0  0  0
  8 11  1  1  0  0  0
  9 13  1  0  0  0  0
 10 14  1  6  0  0  0
 10  8  1  0  0  0  0
 10  9  1  0  0  0  0
 12  9  1  0  0  0  0
 15 23  1  0  0  0  0
 15 19  2  0  0  0  0
 16 17  2  0  0  0  0
 16 15  1  0  0  0  0
 17 18  1  0  0  0  0
 18  8  1  0  0  0  0
 18 19  1  0  0  0  0
 20 16  1  0  0  0  0
 21 17  1  0  0  0  0
 22 27  1  0  0  0  0
 22 28  1  0  0  0  0
 23 22  2  0  0  0  0
 24 25  2  0  0  0  0
 24 23  1  0  0  0  0
 25 26  1  0  0  0  0
 26 27  2  0  0  0  0
 29 24  1  0  0  0  0
 30 26  1  0  0  0  0
 31 35  1  0  0  0  0
 32 31  2  0  0  0  0
 32 33  1  0  0  0  0
 33 34  1  0  0  0  0
 35 34  2  0  0  0  0
 36 32  1  0  0  0  0
 37 43  1  1  0  0  0
 38 34  1  6  0  0  0
 38 37  1  0  0  0  0
 39 38  1  0  0  0  0
 39 40  1  0  0  0  0
 41 45  1  6  0  0  0
 41 40  1  0  0  0  0
 42 41  1  0  0  0  0
 42 37  1  0  0  0  0
 42 47  1  1  0  0  0
 43 44  1  0  0  0  0
 46 45  1  0  0  0  0
 47 48  1  0  0  0  0
M  END
>  <minimizedAffinity>
-6.47447109

$$$$

 OpenBabel03272500523D

 48 53  0  0  1  0  0  0  0  0999 V2000
   38.0540   25.8890   35.3840 C   0  0  0  0  0  0  0  0  0  0  0  0
   38.5380   26.9900   36.0690 C   0  0  0  0  0  0  0  0  0  0  0  0
   37.8630   28.0820   35.6260 N   0  0  0  0  0  0  0  0  0  0  0  0
   36.9730   27.6980   34.6840 C   0  0  0  0  0  0  0  0  0  0  0  0
   37.0980   26.3600   34.5470 N   0  0  0  0  0  0  0  0  0  0  0  0
   39.3230   27.0200   36.8390 H   0  0  0  0  0  0  0  0  0  0  0  0
   37.9630   29.0930   35.9200 H   0  0  0  0  0  0  0  0  0  0  0  0
   39.9120   24.1320   35.2160 C   0  0  1  0  0  0  0  0  0  0  0  0
   38.7080   23.6180   34.3390 C   0  0  0  0  0  0  0  0  0  0  0  0
   38.5320   24.4790   35.5530 C   0  0  2  0  0  0  0  0  0  0  0  0
   40.5360   24.8880   34.6950 H   0  0  0  0  0  0  0  0  0  0  0  0
   38.5560   22.5360   34.3970 H   0  0  0  0  0  0  0  0  0  0  0  0
   38.5860   24.1110   33.3640 H   0  0  0  0  0  0  0  0  0  0  0  0
   38.0320   23.9360   36.3880 H   0  0  0  0  0  0  0  0  0  0  0  0
   42.1980   21.6640   36.4900 C   0  0  0  0  0  0  0  0  0  0  0  0
   41.2680   21.7090   37.5280 C   0  0  0  0  0  0  0  0  0  0  0  0
   40.2790   22.6530   37.1800 C   0  0  0  0  0  0  0  0  0  0  0  0
   40.6290   23.1340   35.9810 N   0  0  0  0  0  0  0  0  0  0  0  0
   41.7410   22.5380   35.6180 N   0  0  0  0  0  0  0  0  0  0  0  0
   41.2440   21.1560   38.4550 H   0  0  0  0  0  0  0  0  0  0  0  0
   39.4240   22.9000   37.8010 H   0  0  0  0  0  0  0  0  0  0  0  0
   43.3680   19.5470   37.1480 C   0  0  0  0  0  0  0  0  0  0  0  0
   43.3470   20.8090   36.5030 C   0  0  0  0  0  0  0  0  0  0  0  0
   44.5060   21.1880   35.8750 C   0  0  0  0  0  0  0  0  0  0  0  0
   45.5820   20.3510   35.9070 N   0  0  0  0  0  0  0  0  0  0  0  0
   45.5540   19.1650   36.5320 C   0  0  0  0  0  0  0  0  0  0  0  0
   44.4310   18.7450   37.1660 N   0  0  0  0  0  0  0  0  0  0  0  0
   42.4510   19.2590   37.6380 H   0  0  0  0  0  0  0  0  0  0  0  0
   44.5760   22.1390   35.3580 H   0  0  0  0  0  0  0  0  0  0  0  0
   46.5020   18.6480   36.4450 H   0  0  0  0  0  0  0  0  0  0  0  0
   36.0300   28.5720   33.9240 C   0  0  0  0  0  0  0  0  0  0  0  0
   36.4090   29.1690   32.7120 C   0  0  0  0  0  0  0  0  0  0  0  0
   34.9200   30.1130   32.2500 S   0  0  0  0  0  0  0  0  0  0  0  0
   34.0100   29.5330   33.8030 C   0  0  0  0  0  0  0  0  0  0  0  0
   34.8070   28.8760   34.2920 N   0  0  0  0  0  0  0  0  0  0  0  0
   37.3500   29.0870   32.1870 H   0  0  0  0  0  0  0  0  0  0  0  0
   32.4880   30.9240   35.1790 C   0  0  2  0  0  3  0  0  0  0  0  0
   32.6160   30.0220   33.9960 C   0  0  2  0  0  3  0  0  0  0  0  0
   31.7030   28.9710   33.9720 O   0  0  0  0  0  0  0  0  0  0  0  0
   30.7650   29.0440   34.9780 C   0  0  0  0  0  2  0  0  0  0  0  0
   31.3450   29.1350   36.3610 C   0  0  2  0  0  3  0  0  0  0  0  0
   32.3770   30.2120   36.4880 C   0  0  2  0  0  3  0  0  0  0  0  0
   31.4960   31.8820   35.0040 O   0  0  0  0  0  0  0  0  0  0  0  0
   31.1480   31.8780   34.0860 H   0  0  0  0  0  0  0  0  0  0  0  0
   31.8100   27.9020   36.8460 O   0  0  0  0  0  0  0  0  0  0  0  0
   32.5480   28.1060   37.4810 H   0  0  0  0  0  0  0  0  0  0  0  0
   31.9990   31.1750   37.4480 O   0  0  0  0  0  0  0  0  0  0  0  0
   31.3460   31.8020   37.0040 H   0  0  0  0  0  0  0  0  0  0  0  0
  1 10  1  0  0  0  0
  1  2  2  0  0  0  0
  2  6  1  0  0  0  0
  3  7  1  0  0  0  0
  3  2  1  0  0  0  0
  4  3  1  0  0  0  0
  5  4  2  0  0  0  0
  5  1  1  0  0  0  0
  8 11  1  6  0  0  0
  8 10  1  0  0  0  0
  8 18  1  0  0  0  0
  9 12  1  0  0  0  0
  9  8  1  0  0  0  0
  9 10  1  0  0  0  0
 10 14  1  1  0  0  0
 13  9  1  0  0  0  0
 15 23  1  0  0  0  0
 15 16  1  0  0  0  0
 16 20  1  0  0  0  0
 17 16  2  0  0  0  0
 17 21  1  0  0  0  0
 18 17  1  0  0  0  0
 19 18  1  0  0  0  0
 19 15  2  0  0  0  0
 22 27  1  0  0  0  0
 22 28  1  0  0  0  0
 23 22  2  0  0  0  0
 24 25  2  0  0  0  0
 24 23  1  0  0  0  0
 25 26  1  0  0  0  0
 26 27  2  0  0  0  0
 29 24  1  0  0  0  0
 30 26  1  0  0  0  0
 31 35  1  0  0  0  0
 31  4  1  0  0  0  0
 32 31  2  0  0  0  0
 33 32  1  0  0  0  0
 33 34  1  0  0  0  0
 34 35  2  0  0  0  0
 36 32  1  0  0  0  0
 37 43  1  6  0  0  0
 37 42  1  0  0  0  0
 38 34  1  1  0  0  0
 38 37  1  0  0  0  0
 39 38  1  0  0  0  0
 39 40  1  0  0  0  0
 40 41  1  0  0  0  0
 41 42  1  0  0  0  0
 41 45  1  6  0  0  0
 42 47  1  1  0  0  0
 44 43  1  0  0  0  0
 45 46  1  0  0  0  0
 48 47  1  0  0  0  0
M  END
>  <minimizedAffinity>
-6.44588566

$$$$

 OpenBabel03272500523D

 48 53  0  0  1  0  0  0  0  0999 V2000
   36.1510   28.3710   31.4670 C   0  0  0  0  0  0  0  0  0  0  0  0
   36.3400   29.3910   30.5510 C   0  0  0  0  0  0  0  0  0  0  0  0
   35.3840   30.3300   30.7740 N   0  0  0  0  0  0  0  0  0  0  0  0
   34.6030   29.9270   31.8010 C   0  0  0  0  0  0  0  0  0  0  0  0
   35.0800   28.7340   32.2150 N   0  0  0  0  0  0  0  0  0  0  0  0
   37.1090   29.4670   29.7690 H   0  0  0  0  0  0  0  0  0  0  0  0
   35.2160   31.2450   30.2700 H   0  0  0  0  0  0  0  0  0  0  0  0
   37.8810   26.9380   32.6990 C   0  0  1  0  0  0  0  0  0  0  0  0
   38.4390   27.1910   31.2480 C   0  0  0  0  0  0  0  0  0  0  0  0
   36.9760   27.1250   31.5650 C   0  0  2  0  0  0  0  0  0  0  0  0
   38.0530   27.7920   33.3860 H   0  0  0  0  0  0  0  0  0  0  0  0
   38.9560   26.3260   30.8210 H   0  0  0  0  0  0  0  0  0  0  0  0
   38.8590   28.1920   31.0690 H   0  0  0  0  0  0  0  0  0  0  0  0
   36.4860   26.2290   31.1180 H   0  0  0  0  0  0  0  0  0  0  0  0
   38.9510   24.0500   34.5580 C   0  0  0  0  0  0  0  0  0  0  0  0
   38.0270   23.4660   33.6930 C   0  0  0  0  0  0  0  0  0  0  0  0
   37.4990   24.4870   32.8740 C   0  0  0  0  0  0  0  0  0  0  0  0
   38.1010   25.6190   33.2570 N   0  0  0  0  0  0  0  0  0  0  0  0
   38.9310   25.3240   34.2300 N   0  0  0  0  0  0  0  0  0  0  0  0
   37.7190   22.4350   33.6070 H   0  0  0  0  0  0  0  0  0  0  0  0
   36.7540   24.3270   32.1010 H   0  0  0  0  0  0  0  0  0  0  0  0
   40.8440   22.5490   35.2280 C   0  0  0  0  0  0  0  0  0  0  0  0
   39.6870   23.3060   35.5370 C   0  0  0  0  0  0  0  0  0  0  0  0
   39.2890   23.2960   36.8500 C   0  0  0  0  0  0  0  0  0  0  0  0
   40.0100   22.5780   37.7560 N   0  0  0  0  0  0  0  0  0  0  0  0
   41.1000   21.8750   37.4150 C   0  0  0  0  0  0  0  0  0  0  0  0
   41.5340   21.8540   36.1300 N   0  0  0  0  0  0  0  0  0  0  0  0
   41.1480   22.5640   34.1930 H   0  0  0  0  0  0  0  0  0  0  0  0
   38.4130   23.8490   37.1720 H   0  0  0  0  0  0  0  0  0  0  0  0
   41.5330   21.3740   38.2720 H   0  0  0  0  0  0  0  0  0  0  0  0
   33.4260   30.6470   32.3760 C   0  0  0  0  0  0  0  0  0  0  0  0
   33.0230   31.8950   31.8770 C   0  0  0  0  0  0  0  0  0  0  0  0
   31.5930   32.3010   32.9310 S   0  0  0  0  0  0  0  0  0  0  0  0
   31.7790   30.6850   33.8930 C   0  0  0  0  0  0  0  0  0  0  0  0
   32.6840   30.2210   33.3710 N   0  0  0  0  0  0  0  0  0  0  0  0
   33.4540   32.4680   31.0680 H   0  0  0  0  0  0  0  0  0  0  0  0
   31.4340   29.7770   36.1740 C   0  0  2  0  0  3  0  0  0  0  0  0
   30.8020   30.4290   34.9890 C   0  0  2  0  0  3  0  0  0  0  0  0
   29.6660   29.7810   34.5130 O   0  0  0  0  0  0  0  0  0  0  0  0
   29.2630   28.7350   35.3130 C   0  0  0  0  0  2  0  0  0  0  0  0
   30.3230   27.7030   35.5660 C   0  0  2  0  0  3  0  0  0  0  0  0
   31.6110   28.2990   36.0430 C   0  0  2  0  0  3  0  0  0  0  0  0
   30.8140   30.1380   37.3650 O   0  0  0  0  0  0  0  0  0  0  0  0
   30.1600   30.8570   37.2280 H   0  0  0  0  0  0  0  0  0  0  0  0
   30.5180   26.8340   34.4800 O   0  0  0  0  0  0  0  0  0  0  0  0
   31.4660   26.5360   34.5200 H   0  0  0  0  0  0  0  0  0  0  0  0
   31.9610   27.8130   37.3210 O   0  0  0  0  0  0  0  0  0  0  0  0
   31.4250   28.3350   37.9980 H   0  0  0  0  0  0  0  0  0  0  0  0
  1 10  1  0  0  0  0
  1  5  1  0  0  0  0
  2  3  1  0  0  0  0
  2  1  2  0  0  0  0
  3  4  1  0  0  0  0
  4  5  2  0  0  0  0
  4 31  1  0  0  0  0
  6  2  1  0  0  0  0
  7  3  1  0  0  0  0
  8 18  1  0  0  0  0
  8 11  1  1  0  0  0
  9 10  1  0  0  0  0
  9  8  1  0  0  0  0
 10 14  1  6  0  0  0
 10  8  1  0  0  0  0
 12  9  1  0  0  0  0
 13  9  1  0  0  0  0
 15 23  1  0  0  0  0
 16 15  1  0  0  0  0
 17 18  1  0  0  0  0
 17 16  2  0  0  0  0
 18 19  1  0  0  0  0
 19 15  2  0  0  0  0
 20 16  1  0  0  0  0
 21 17  1  0  0  0  0
 22 23  2  0  0  0  0
 22 27  1  0  0  0  0
 23 24  1  0  0  0  0
 24 29  1  0  0  0  0
 24 25  2  0  0  0  0
 26 25  1  0  0  0  0
 26 30  1  0  0  0  0
 27 26  2  0  0  0  0
 28 22  1  0  0  0  0
 31 35  1  0  0  0  0
 32 31  2  0  0  0  0
 32 33  1  0  0  0  0
 33 34  1  0  0  0  0
 35 34  2  0  0  0  0
 36 32  1  0  0  0  0
 37 43  1  1  0  0  0
 38 34  1  6  0  0  0
 38 37  1  0  0  0  0
 39 38  1  0  0  0  0
 39 40  1  0  0  0  0
 40 41  1  0  0  0  0
 41 45  1  6  0  0  0
 41 42  1  0  0  0  0
 42 37  1  0  0  0  0
 42 47  1  1  0  0  0
 44 43  1  0  0  0  0
 45 46  1  0  0  0  0
 47 48  1  0  0  0  0
M  END
>  <minimizedAffinity>
-6.44169331

$$$$

 OpenBabel03272500523D

 48 53  0  0  1  0  0  0  0  0999 V2000
   35.9220   28.2030   31.6410 C   0  0  0  0  0  0  0  0  0  0  0  0
   36.3760   28.8130   30.4850 C   0  0  0  0  0  0  0  0  0  0  0  0
   35.8650   30.0710   30.4530 N   0  0  0  0  0  0  0  0  0  0  0  0
   35.1040   30.2650   31.5530 C   0  0  0  0  0  0  0  0  0  0  0  0
   35.1470   29.1210   32.2690 N   0  0  0  0  0  0  0  0  0  0  0  0
   37.0320   28.3930   29.7080 H   0  0  0  0  0  0  0  0  0  0  0  0
   35.9950   30.8260   29.7230 H   0  0  0  0  0  0  0  0  0  0  0  0
   37.5530   26.2330   31.7930 C   0  0  1  0  0  0  0  0  0  0  0  0
   36.2740   25.7160   31.0320 C   0  0  0  0  0  0  0  0  0  0  0  0
   36.2330   26.8010   32.0660 C   0  0  2  0  0  0  0  0  0  0  0  0
   38.2480   26.7980   31.1400 H   0  0  0  0  0  0  0  0  0  0  0  0
   35.9960   24.6900   31.2900 H   0  0  0  0  0  0  0  0  0  0  0  0
   36.1860   26.0340   29.9820 H   0  0  0  0  0  0  0  0  0  0  0  0
   35.6950   26.4840   32.9890 H   0  0  0  0  0  0  0  0  0  0  0  0
   38.6420   24.3470   34.6570 C   0  0  0  0  0  0  0  0  0  0  0  0
   39.3580   23.7090   33.6450 C   0  0  0  0  0  0  0  0  0  0  0  0
   39.0380   24.3410   32.4250 C   0  0  0  0  0  0  0  0  0  0  0  0
   38.1660   25.3110   32.7270 N   0  0  0  0  0  0  0  0  0  0  0  0
   37.9650   25.2810   34.0230 N   0  0  0  0  0  0  0  0  0  0  0  0
   40.0470   22.8790   33.7060 H   0  0  0  0  0  0  0  0  0  0  0  0
   39.4480   24.0550   31.4610 H   0  0  0  0  0  0  0  0  0  0  0  0
   37.7650   24.3510   37.0050 C   0  0  0  0  0  0  0  0  0  0  0  0
   38.7230   23.9650   36.0350 C   0  0  0  0  0  0  0  0  0  0  0  0
   39.7610   23.1880   36.4830 C   0  0  0  0  0  0  0  0  0  0  0  0
   39.8090   22.8420   37.8010 N   0  0  0  0  0  0  0  0  0  0  0  0
   38.8780   23.2330   38.6830 C   0  0  0  0  0  0  0  0  0  0  0  0
   37.8320   24.0010   38.2890 N   0  0  0  0  0  0  0  0  0  0  0  0
   36.9540   24.9620   36.6420 H   0  0  0  0  0  0  0  0  0  0  0  0
   40.5380   22.8480   35.8060 H   0  0  0  0  0  0  0  0  0  0  0  0
   39.0900   22.8580   39.6770 H   0  0  0  0  0  0  0  0  0  0  0  0
   34.3450   31.5000   31.9190 C   0  0  0  0  0  0  0  0  0  0  0  0
   33.9490   32.4250   30.9420 C   0  0  0  0  0  0  0  0  0  0  0  0
   33.1020   33.7040   31.9270 S   0  0  0  0  0  0  0  0  0  0  0  0
   33.4300   32.7570   33.5300 C   0  0  0  0  0  0  0  0  0  0  0  0
   33.9940   31.8460   33.1360 N   0  0  0  0  0  0  0  0  0  0  0  0
   34.1070   32.3860   29.8740 H   0  0  0  0  0  0  0  0  0  0  0  0
   33.9540   33.3650   35.8760 C   0  0  2  0  0  3  0  0  0  0  0  0
   32.9250   33.3650   34.7930 C   0  0  2  0  0  3  0  0  0  0  0  0
   31.6990   32.8190   35.1640 O   0  0  0  0  0  0  0  0  0  0  0  0
   31.6280   32.5060   36.5030 C   0  0  0  0  0  2  0  0  0  0  0  0
   32.7170   31.5920   36.9850 C   0  0  2  0  0  3  0  0  0  0  0  0
   34.0840   32.0650   36.6010 C   0  0  2  0  0  3  0  0  0  0  0  0
   33.8100   34.4470   36.7370 O   0  0  0  0  0  0  0  0  0  0  0  0
   33.1440   35.0870   36.4050 H   0  0  0  0  0  0  0  0  0  0  0  0
   32.5080   30.2490   36.6320 O   0  0  0  0  0  0  0  0  0  0  0  0
   33.4070   29.8320   36.5530 H   0  0  0  0  0  0  0  0  0  0  0  0
   34.8830   32.3090   37.7390 O   0  0  0  0  0  0  0  0  0  0  0  0
   34.6280   33.2180   38.0960 H   0  0  0  0  0  0  0  0  0  0  0  0
  1 10  1  0  0  0  0
  1  5  1  0  0  0  0
  2  1  2  0  0  0  0
  3  2  1  0  0  0  0
  3  4  1  0  0  0  0
  4 31  1  0  0  0  0
  4  5  2  0  0  0  0
  6  2  1  0  0  0  0
  7  3  1  0  0  0  0
  8 11  1  6  0  0  0
  8 10  1  0  0  0  0
  8 18  1  0  0  0  0
  9 12  1  0  0  0  0
  9  8  1  0  0  0  0
  9 10  1  0  0  0  0
 10 14  1  1  0  0  0
 13  9  1  0  0  0  0
 15 23  1  0  0  0  0
 16 20  1  0  0  0  0
 16 15  1  0  0  0  0
 17 18  1  0  0  0  0
 17 16  2  0  0  0  0
 18 19  1  0  0  0  0
 19 15  2  0  0  0  0
 21 17  1  0  0  0  0
 22 27  1  0  0  0  0
 23 24  1  0  0  0  0
 23 22  2  0  0  0  0
 24 25  2  0  0  0  0
 25 26  1  0  0  0  0
 26 30  1  0  0  0  0
 27 26  2  0  0  0  0
 28 22  1  0  0  0  0
 29 24  1  0  0  0  0
 31 35  1  0  0  0  0
 32 31  2  0  0  0  0
 32 33  1  0  0  0  0
 33 34  1  0  0  0  0
 35 34  2  0  0  0  0
 36 32  1  0  0  0  0
 37 42  1  0  0  0  0
 37 43  1  1  0  0  0
 38 34  1  6  0  0  0
 38 39  1  0  0  0  0
 38 37  1  0  0  0  0
 39 40  1  0  0  0  0
 40 41  1  0  0  0  0
 41 45  1  6  0  0  0
 42 41  1  0  0  0  0
 42 47  1  1  0  0  0
 44 43  1  0  0  0  0
 46 45  1  0  0  0  0
 47 48  1  0  0  0  0
M  END
>  <minimizedAffinity>
-6.37957716

$$$$

 OpenBabel03272500523D

 48 53  0  0  1  0  0  0  0  0999 V2000
   37.1930   27.9090   33.0230 C   0  0  0  0  0  0  0  0  0  0  0  0
   36.8280   28.7190   31.9620 C   0  0  0  0  0  0  0  0  0  0  0  0
   35.8900   29.5930   32.4120 N   0  0  0  0  0  0  0  0  0  0  0  0
   35.6590   29.3530   33.7230 C   0  0  0  0  0  0  0  0  0  0  0  0
   36.4590   28.3260   34.0830 N   0  0  0  0  0  0  0  0  0  0  0  0
   37.2020   28.6940   30.9280 H   0  0  0  0  0  0  0  0  0  0  0  0
   35.3830   30.3570   31.8860 H   0  0  0  0  0  0  0  0  0  0  0  0
   39.6220   27.0990   32.9200 C   0  0  1  0  0  0  0  0  0  0  0  0
   38.8810   26.4980   31.6660 C   0  0  0  0  0  0  0  0  0  0  0  0
   38.1930   26.7940   32.9640 C   0  0  2  0  0  0  0  0  0  0  0  0
   39.9350   28.1540   32.7750 H   0  0  0  0  0  0  0  0  0  0  0  0
   39.1920   25.4790   31.4210 H   0  0  0  0  0  0  0  0  0  0  0  0
   38.6980   27.2030   30.8410 H   0  0  0  0  0  0  0  0  0  0  0  0
   37.8590   25.8680   33.4860 H   0  0  0  0  0  0  0  0  0  0  0  0
   41.3450   24.5990   34.8490 C   0  0  0  0  0  0  0  0  0  0  0  0
   42.4260   25.2840   34.2970 C   0  0  0  0  0  0  0  0  0  0  0  0
   41.9140   26.3220   33.4920 C   0  0  0  0  0  0  0  0  0  0  0  0
   40.5810   26.2370   33.5790 N   0  0  0  0  0  0  0  0  0  0  0  0
   40.2940   25.2310   34.3710 N   0  0  0  0  0  0  0  0  0  0  0  0
   43.4860   25.1090   34.4170 H   0  0  0  0  0  0  0  0  0  0  0  0
   42.5270   27.0240   32.9340 H   0  0  0  0  0  0  0  0  0  0  0  0
   42.7320   22.8260   35.9520 C   0  0  0  0  0  0  0  0  0  0  0  0
   41.4930   23.4760   35.7260 C   0  0  0  0  0  0  0  0  0  0  0  0
   40.4110   22.9700   36.4010 C   0  0  0  0  0  0  0  0  0  0  0  0
   40.5860   21.9000   37.2270 N   0  0  0  0  0  0  0  0  0  0  0  0
   41.7790   21.3170   37.4080 C   0  0  0  0  0  0  0  0  0  0  0  0
   42.8800   21.7810   36.7640 N   0  0  0  0  0  0  0  0  0  0  0  0
   43.5750   23.2310   35.4150 H   0  0  0  0  0  0  0  0  0  0  0  0
   39.4250   23.4090   36.2850 H   0  0  0  0  0  0  0  0  0  0  0  0
   41.7150   20.4860   38.1000 H   0  0  0  0  0  0  0  0  0  0  0  0
   34.6980   30.0700   34.6150 C   0  0  0  0  0  0  0  0  0  0  0  0
   34.9970   31.3370   35.1360 C   0  0  0  0  0  0  0  0  0  0  0  0
   33.5230   31.7130   36.1410 S   0  0  0  0  0  0  0  0  0  0  0  0
   32.7280   30.0600   35.6810 C   0  0  0  0  0  0  0  0  0  0  0  0
   33.5300   29.6110   35.0020 N   0  0  0  0  0  0  0  0  0  0  0  0
   35.8810   31.9380   34.9790 H   0  0  0  0  0  0  0  0  0  0  0  0
   31.3860   28.5520   37.1200 C   0  0  2  0  0  3  0  0  0  0  0  0
   31.3850   29.7700   36.2550 C   0  0  2  0  0  3  0  0  0  0  0  0
   30.4010   29.7740   35.2700 O   0  0  0  0  0  0  0  0  0  0  0  0
   29.5290   28.7130   35.3690 C   0  0  0  0  0  2  0  0  0  0  0  0
   30.1890   27.3650   35.3700 C   0  0  2  0  0  3  0  0  0  0  0  0
   31.2990   27.2630   36.3690 C   0  0  2  0  0  3  0  0  0  0  0  0
   30.4550   28.6370   38.1480 O   0  0  0  0  0  0  0  0  0  0  0  0
   30.0560   29.5330   38.2020 H   0  0  0  0  0  0  0  0  0  0  0  0
   30.5940   26.9480   34.0910 O   0  0  0  0  0  0  0  0  0  0  0  0
   31.3790   26.3520   34.2220 H   0  0  0  0  0  0  0  0  0  0  0  0
   31.0440   26.2520   37.3200 O   0  0  0  0  0  0  0  0  0  0  0  0
   30.4120   26.6360   38.0060 H   0  0  0  0  0  0  0  0  0  0  0  0
  1  5  1  0  0  0  0
  2  3  1  0  0  0  0
  2  1  2  0  0  0  0
  3  4  1  0  0  0  0
  4  5  2  0  0  0  0
  4 31  1  0  0  0  0
  6  2  1  0  0  0  0
  7  3  1  0  0  0  0
  8 11  1  6  0  0  0
  8 10  1  0  0  0  0
  8 18  1  0  0  0  0
  9  8  1  0  0  0  0
  9 10  1  0  0  0  0
 10  1  1  0  0  0  0
 10 14  1  1  0  0  0
 12  9  1  0  0  0  0
 13  9  1  0  0  0  0
 15 23  1  0  0  0  0
 16 20  1  0  0  0  0
 16 15  1  0  0  0  0
 17 18  1  0  0  0  0
 17 16  2  0  0  0  0
 18 19  1  0  0  0  0
 19 15  2  0  0  0  0
 21 17  1  0  0  0  0
 22 27  1  0  0  0  0
 23 22  2  0  0  0  0
 23 24  1  0  0  0  0
 24 25  2  0  0  0  0
 25 26  1  0  0  0  0
 26 30  1  0  0  0  0
 27 26  2  0  0  0  0
 28 22  1  0  0  0  0
 29 24  1  0  0  0  0
 31 35  1  0  0  0  0
 31 32  2  0  0  0  0
 32 33  1  0  0  0  0
 34 33  1  0  0  0  0
 35 34  2  0  0  0  0
 36 32  1  0  0  0  0
 37 43  1  1  0  0  0
 38 34  1  6  0  0  0
 38 37  1  0  0  0  0
 39 40  1  0  0  0  0
 39 38  1  0  0  0  0
 40 41  1  0  0  0  0
 41 45  1  6  0  0  0
 41 42  1  0  0  0  0
 42 37  1  0  0  0  0
 42 47  1  1  0  0  0
 43 44  1  0  0  0  0
 45 46  1  0  0  0  0
 47 48  1  0  0  0  0
M  END
>  <minimizedAffinity>
-6.31058407

$$$$

 OpenBabel03272500523D

 48 53  0  0  1  0  0  0  0  0999 V2000
   38.7720   26.8380   34.5970 C   0  0  0  0  0  0  0  0  0  0  0  0
   38.6010   27.4660   35.8180 C   0  0  0  0  0  0  0  0  0  0  0  0
   37.4690   28.2120   35.7460 N   0  0  0  0  0  0  0  0  0  0  0  0
   36.9260   28.0700   34.5160 C   0  0  0  0  0  0  0  0  0  0  0  0
   37.7280   27.2310   33.8260 N   0  0  0  0  0  0  0  0  0  0  0  0
   39.2410   27.4000   36.7110 H   0  0  0  0  0  0  0  0  0  0  0  0
   37.0250   28.8260   36.4840 H   0  0  0  0  0  0  0  0  0  0  0  0
   41.2840   26.3430   34.4990 C   0  0  1  0  0  0  0  0  0  0  0  0
   40.7340   26.2390   33.0260 C   0  0  0  0  0  0  0  0  0  0  0  0
   39.9060   25.9290   34.2360 C   0  0  2  0  0  0  0  0  0  0  0  0
   41.4710   27.3880   34.8200 H   0  0  0  0  0  0  0  0  0  0  0  0
   41.1930   25.4350   32.4430 H   0  0  0  0  0  0  0  0  0  0  0  0
   40.5340   27.1990   32.5260 H   0  0  0  0  0  0  0  0  0  0  0  0
   39.6490   24.8470   34.3050 H   0  0  0  0  0  0  0  0  0  0  0  0
   43.1320   23.4470   35.5670 C   0  0  0  0  0  0  0  0  0  0  0  0
   44.1740   24.3500   35.3550 C   0  0  0  0  0  0  0  0  0  0  0  0
   43.6080   25.5670   34.9210 C   0  0  0  0  0  0  0  0  0  0  0  0
   42.2840   25.3700   34.8860 N   0  0  0  0  0  0  0  0  0  0  0  0
   42.0520   24.1360   35.2660 N   0  0  0  0  0  0  0  0  0  0  0  0
   45.2380   24.2140   35.4770 H   0  0  0  0  0  0  0  0  0  0  0  0
   44.1810   26.4560   34.6770 H   0  0  0  0  0  0  0  0  0  0  0  0
   42.4640   21.4400   36.9120 C   0  0  0  0  0  0  0  0  0  0  0  0
   43.3390   22.1030   36.0160 C   0  0  0  0  0  0  0  0  0  0  0  0
   44.4230   21.3820   35.5830 C   0  0  0  0  0  0  0  0  0  0  0  0
   44.5920   20.1050   36.0280 N   0  0  0  0  0  0  0  0  0  0  0  0
   43.7370   19.5200   36.8790 C   0  0  0  0  0  0  0  0  0  0  0  0
   42.6490   20.1900   37.3350 N   0  0  0  0  0  0  0  0  0  0  0  0
   41.6160   22.0160   37.2470 H   0  0  0  0  0  0  0  0  0  0  0  0
   45.1430   21.8150   34.8950 H   0  0  0  0  0  0  0  0  0  0  0  0
   44.0400   18.5070   37.1140 H   0  0  0  0  0  0  0  0  0  0  0  0
   35.6840   28.7190   33.9970 C   0  0  0  0  0  0  0  0  0  0  0  0
   35.5490   29.0530   32.6410 C   0  0  0  0  0  0  0  0  0  0  0  0
   33.8930   29.8110   32.5800 S   0  0  0  0  0  0  0  0  0  0  0  0
   33.6490   29.5460   34.4370 C   0  0  0  0  0  0  0  0  0  0  0  0
   34.6360   29.0450   34.7190 N   0  0  0  0  0  0  0  0  0  0  0  0
   36.2540   28.8970   31.8370 H   0  0  0  0  0  0  0  0  0  0  0  0
   32.1620   29.5110   36.4190 C   0  0  2  0  0  3  0  0  0  0  0  0
   32.3610   30.0080   35.0250 C   0  0  2  0  0  3  0  0  0  0  0  0
   31.2930   29.7580   34.1670 O   0  0  0  0  0  0  0  0  0  0  0  0
   30.1990   29.2190   34.8050 C   0  0  0  0  0  2  0  0  0  0  0  0
   30.4870   27.9640   35.5780 C   0  0  2  0  0  3  0  0  0  0  0  0
   31.6520   28.1090   36.5070 C   0  0  2  0  0  3  0  0  0  0  0  0
   31.4220   30.3980   37.1930 O   0  0  0  0  0  0  0  0  0  0  0  0
   31.2760   31.2500   36.7260 H   0  0  0  0  0  0  0  0  0  0  0  0
   30.6050   26.8280   34.7610 O   0  0  0  0  0  0  0  0  0  0  0  0
   31.2210   26.2030   35.2290 H   0  0  0  0  0  0  0  0  0  0  0  0
   31.2700   27.8940   37.8480 O   0  0  0  0  0  0  0  0  0  0  0  0
   30.8500   28.7490   38.1820 H   0  0  0  0  0  0  0  0  0  0  0  0
  1  2  2  0  0  0  0
  2  6  1  0  0  0  0
  3  2  1  0  0  0  0
  3  7  1  0  0  0  0
  4  3  1  0  0  0  0
  5  4  2  0  0  0  0
  5  1  1  0  0  0  0
  8 11  1  1  0  0  0
  8 18  1  0  0  0  0
  9 10  1  0  0  0  0
  9  8  1  0  0  0  0
 10 14  1  1  0  0  0
 10  8  1  0  0  0  0
 10  1  1  0  0  0  0
 12  9  1  0  0  0  0
 13  9  1  0  0  0  0
 15 23  1  0  0  0  0
 16 20  1  0  0  0  0
 16 15  1  0  0  0  0
 17 16  2  0  0  0  0
 18 17  1  0  0  0  0
 18 19  1  0  0  0  0
 19 15  2  0  0  0  0
 21 17  1  0  0  0  0
 22 28  1  0  0  0  0
 22 27  1  0  0  0  0
 23 22  2  0  0  0  0
 24 23  1  0  0  0  0
 24 25  2  0  0  0  0
 25 26  1  0  0  0  0
 26 30  1  0  0  0  0
 26 27  2  0  0  0  0
 29 24  1  0  0  0  0
 31  4  1  0  0  0  0
 31 35  1  0  0  0  0
 32 31  2  0  0  0  0
 33 32  1  0  0  0  0
 33 34  1  0  0  0  0
 34 35  2  0  0  0  0
 36 32  1  0  0  0  0
 37 42  1  0  0  0  0
 37 43  1  6  0  0  0
 38 34  1  6  0  0  0
 38 37  1  0  0  0  0
 39 40  1  0  0  0  0
 39 38  1  0  0  0  0
 40 41  1  0  0  0  0
 41 45  1  6  0  0  0
 41 42  1  0  0  0  0
 42 47  1  1  0  0  0
 44 43  1  0  0  0  0
 45 46  1  0  0  0  0
 47 48  1  0  0  0  0
M  END
>  <minimizedAffinity>
-6.28671217

$$$$
