
 OpenBabel03272505313D

 43 46  0  0  1  0  0  0  0  0999 V2000
   37.3670   31.1660   47.1980 N   0  0  0  0  0  0  0  0  0  0  0  0
   36.6730   30.9420   46.0510 C   0  0  0  0  0  0  0  0  0  0  0  0
   37.0680   31.4590   44.8320 C   0  0  0  0  0  0  0  0  0  0  0  0
   38.2390   32.2450   44.8070 C   0  0  0  0  0  0  0  0  0  0  0  0
   38.6420   32.7380   43.7270 O   0  0  0  0  0  0  0  0  0  0  0  0
   38.9360   32.4650   45.9730 N   0  0  0  0  0  0  0  0  0  0  0  0
   38.4540   31.9150   47.0750 C   0  0  0  0  0  0  0  0  0  0  0  0
   39.1160   32.1390   48.1150 O   0  0  0  0  0  0  0  0  0  0  0  0
   35.7620   30.3320   46.0660 H   0  0  0  0  0  0  0  0  0  0  0  0
   37.4260   29.5040   50.5210 C   0  0  0  0  0  0  0  0  0  0  0  0
   37.8600   30.0410   49.2940 C   0  0  0  0  0  0  0  0  0  0  0  0
   36.9460   30.6310   48.4180 C   0  0  0  0  0  0  0  0  0  0  0  0
   35.6470   30.6670   48.7870 N   0  0  0  0  0  0  0  0  0  0  0  0
   35.2140   30.1510   49.9720 C   0  0  0  0  0  0  0  0  0  0  0  0
   36.1080   29.5780   50.8230 N   0  0  0  0  0  0  0  0  0  0  0  0
   38.1520   29.0610   51.1680 H   0  0  0  0  0  0  0  0  0  0  0  0
   38.8810   30.0320   48.9650 H   0  0  0  0  0  0  0  0  0  0  0  0
   34.1990   30.1680   50.2840 H   0  0  0  0  0  0  0  0  0  0  0  0
   36.3650   31.2520   43.5800 C   0  0  0  0  0  0  0  0  0  0  0  0
   36.4900   30.1160   42.8290 C   0  0  0  0  0  0  0  0  0  0  0  0
   35.8470   29.8730   41.6400 C   0  0  0  0  0  0  0  0  0  0  0  0
   34.9870   30.8690   41.1430 C   0  0  0  0  0  0  0  0  0  0  0  0
   34.8860   32.0120   41.9340 C   0  0  0  0  0  0  0  0  0  0  0  0
   35.5460   32.1770   43.0840 N   0  0  0  0  0  0  0  0  0  0  0  0
   37.1450   29.3180   43.1780 H   0  0  0  0  0  0  0  0  0  0  0  0
   35.9470   28.9750   41.0500 H   0  0  0  0  0  0  0  0  0  0  0  0
   34.4250   30.8070   40.2270 H   0  0  0  0  0  0  0  0  0  0  0  0
   32.8090   33.2210   42.4660 C   0  0  2  0  0  3  0  0  0  0  0  0
   34.0140   33.1660   41.5470 C   0  0  1  0  0  3  0  0  0  0  0  0
   34.7610   34.3400   41.5690 O   0  0  0  0  0  0  0  0  0  0  0  0
   34.0370   35.4010   41.0920 C   0  0  0  0  0  2  0  0  0  0  0  0
   32.6350   35.5080   41.6680 C   0  0  2  0  0  3  0  0  0  0  0  0
   32.6110   34.6580   42.9180 C   0  0  1  0  0  3  0  0  0  0  0  0
   32.9570   32.3670   43.5640 O   0  0  0  0  0  0  0  0  0  0  0  0
   32.4030   31.5450   43.3700 H   0  0  0  0  0  0  0  0  0  0  0  0
   31.7760   34.8730   40.7460 O   0  0  0  0  0  0  0  0  0  0  0  0
   31.9050   35.2920   39.8410 H   0  0  0  0  0  0  0  0  0  0  0  0
   31.3890   34.7280   43.5840 O   0  0  0  0  0  0  0  0  0  0  0  0
   31.5480   35.1080   44.4930 H   0  0  0  0  0  0  0  0  0  0  0  0
   40.1330   33.2690   45.9400 C   0  0  0  0  0  0  0  0  0  0  0  0
   40.0580   34.2200   44.9810 F   0  0  0  0  0  0  0  0  0  0  0  0
   41.2880   32.5330   45.6730 F   0  0  0  0  0  0  0  0  0  0  0  0
   40.2710   33.9140   47.1740 F   0  0  0  0  0  0  0  0  0  0  0  0
  1 12  1  0  0  0  0
  2  9  1  0  0  0  0
  2  1  1  0  0  0  0
  3  2  2  0  0  0  0
  4  3  1  0  0  0  0
  4  6  1  0  0  0  0
  5  4  2  0  0  0  0
  6  7  1  0  0  0  0
  7  1  1  0  0  0  0
  7  8  2  0  0  0  0
 10 15  1  0  0  0  0
 10 16  1  0  0  0  0
 11 10  2  0  0  0  0
 12 13  2  0  0  0  0
 12 11  1  0  0  0  0
 13 14  1  0  0  0  0
 14 18  1  0  0  0  0
 14 15  2  0  0  0  0
 17 11  1  0  0  0  0
 19  3  1  0  0  0  0
 20 25  1  0  0  0  0
 20 19  2  0  0  0  0
 21 20  1  0  0  0  0
 22 21  2  0  0  0  0
 22 23  1  0  0  0  0
 23 24  2  0  0  0  0
 24 19  1  0  0  0  0
 26 21  1  0  0  0  0
 27 22  1  0  0  0  0
 28 33  1  0  0  0  0
 28 34  1  1  0  0  0
 29 30  1  0  0  0  0
 29 23  1  1  0  0  0
 29 28  1  0  0  0  0
 31 30  1  0  0  0  0
 31 32  1  0  0  0  0
 32 36  1  6  0  0  0
 32 33  1  0  0  0  0
 33 38  1  6  0  0  0
 35 34  1  0  0  0  0
 37 36  1  0  0  0  0
 38 39  1  0  0  0  0
 40  6  1  0  0  0  0
 40 43  1  0  0  0  0
 41 40  1  0  0  0  0
 42 40  1  0  0  0  0
M  END
>  <minimizedAffinity>
-7.21062326

>  <minimizedRMSD>
0.592693865

$$$$
