
 OpenBabel03262520403D

 49 52  0  0  1  0  0  0  0  0999 V2000
   37.7270   30.6490   42.7810 C   0  0  2  0  0  0  0  0  0  0  0  0
   37.8010   29.5620   41.7600 C   0  0  0  0  0  0  0  0  0  0  0  0
   37.8030   28.1670   42.3790 C   0  0  0  0  0  0  0  0  0  0  0  0
   38.9820   28.0100   43.3050 C   0  0  0  0  0  0  0  0  0  0  0  0
   39.1980   29.2020   44.2060 C   0  0  0  0  0  0  0  0  0  0  0  0
   37.9940   30.1240   44.1820 C   0  0  1  0  0  0  0  0  0  0  0  0
   38.5280   31.4200   42.6050 H   0  0  0  0  0  0  0  0  0  0  0  0
   37.1550   29.5030   40.9370 H   0  0  0  0  0  0  0  0  0  0  0  0
   38.8600   29.6180   41.2990 H   0  0  0  0  0  0  0  0  0  0  0  0
   37.9120   27.4590   41.5430 H   0  0  0  0  0  0  0  0  0  0  0  0
   36.8660   28.0210   42.9310 H   0  0  0  0  0  0  0  0  0  0  0  0
   39.8820   27.8390   42.6480 H   0  0  0  0  0  0  0  0  0  0  0  0
   38.8590   27.0710   43.8830 H   0  0  0  0  0  0  0  0  0  0  0  0
   39.3260   28.8290   45.2250 H   0  0  0  0  0  0  0  0  0  0  0  0
   40.0870   29.7530   43.8240 H   0  0  0  0  0  0  0  0  0  0  0  0
   37.1510   29.4300   44.3550 H   0  0  0  0  0  0  0  0  0  0  0  0
   38.1530   31.1740   45.1080 N   0  0  2  0  0  0  0  0  0  0  0  0
   39.3650   31.9580   44.9290 C   0  0  0  0  0  0  0  0  0  0  0  0
   39.3470   32.8670   46.1530 C   0  0  0  0  0  0  0  0  0  0  0  0
   38.3430   32.2490   47.0870 C   0  0  0  0  0  0  0  0  0  0  0  0
   38.2180   30.8590   46.4790 C   0  0  1  0  0  0  0  0  0  0  0  0
   39.4160   32.5090   43.9910 H   0  0  0  0  0  0  0  0  0  0  0  0
   40.2620   31.2940   45.0500 H   0  0  0  0  0  0  0  0  0  0  0  0
   40.3690   32.9630   46.5640 H   0  0  0  0  0  0  0  0  0  0  0  0
   39.0220   33.8760   45.7670 H   0  0  0  0  0  0  0  0  0  0  0  0
   37.4160   32.8360   47.0220 H   0  0  0  0  0  0  0  0  0  0  0  0
   38.8460   32.2570   48.0690 H   0  0  0  0  0  0  0  0  0  0  0  0
   39.2860   30.4540   46.6220 H   0  0  0  0  0  0  0  0  0  0  0  0
   35.8640   29.9330   46.6400 C   0  0  1  0  0  0  0  0  0  0  0  0
   37.2660   29.9700   47.1260 C   0  0  2  0  0  0  0  0  0  0  0  0
   37.3830   30.0840   48.5030 O   0  0  0  0  0  0  0  0  0  0  0  0
   36.4210   30.9700   48.9590 C   0  0  0  0  0  0  0  0  0  0  0  0
   35.1730   30.0850   49.0640 C   0  0  2  0  0  0  0  0  0  0  0  0
   34.8360   29.5840   47.6870 C   0  0  2  0  0  0  0  0  0  0  0  0
   35.3960   31.1080   46.0450 O   0  0  0  0  0  0  0  0  0  0  0  0
   34.7540   30.9650   45.3240 H   0  0  0  0  0  0  0  0  0  0  0  0
   34.1320   30.7730   49.6760 O   0  0  0  0  0  0  0  0  0  0  0  0
   33.7290   31.4680   49.1000 H   0  0  0  0  0  0  0  0  0  0  0  0
   34.6140   28.2090   47.7970 O   0  0  0  0  0  0  0  0  0  0  0  0
   34.3210   27.9010   46.9000 H   0  0  0  0  0  0  0  0  0  0  0  0
   36.4060   31.3220   42.8170 C   0  0  0  0  0  0  0  0  0  0  0  0
   36.4510   32.7060   42.5420 C   0  0  0  0  0  0  0  0  0  0  0  0
   35.2500   33.3760   42.5210 C   0  0  0  0  0  0  0  0  0  0  0  0
   34.0860   32.6970   42.7580 N   0  0  0  0  0  0  0  0  0  0  0  0
   34.0740   31.3660   43.0200 C   0  0  0  0  0  0  0  0  0  0  0  0
   35.2290   30.7120   43.0440 N   0  0  0  0  0  0  0  0  0  0  0  0
   37.1930   33.4400   42.3320 H   0  0  0  0  0  0  0  0  0  0  0  0
   35.0070   34.4040   42.3410 H   0  0  0  0  0  0  0  0  0  0  0  0
   33.1600   30.8220   43.2090 H   0  0  0  0  0  0  0  0  0  0  0  0
  1  7  1  6  0  0  0
  1 41  1  0  0  0  0
  1  6  1  0  0  0  0
  2  3  1  0  0  0  0
  2  1  1  0  0  0  0
  3 11  1  0  0  0  0
  3  4  1  0  0  0  0
  4 13  1  0  0  0  0
  4  5  1  0  0  0  0
  5 14  1  0  0  0  0
  6  5  1  0  0  0  0
  6 16  1  1  0  0  0
  6 17  1  0  0  0  0
  8  2  1  0  0  0  0
  9  2  1  0  0  0  0
 10  3  1  0  0  0  0
 12  4  1  0  0  0  0
 15  5  1  0  0  0  0
 17 18  1  6  0  0  0
 17 21  1  0  0  0  0
 18 23  1  0  0  0  0
 18 19  1  0  0  0  0
 19 24  1  0  0  0  0
 19 20  1  0  0  0  0
 20 27  1  0  0  0  0
 21 28  1  1  0  0  0
 21 20  1  0  0  0  0
 21 30  1  0  0  0  0
 22 18  1  0  0  0  0
 25 19  1  0  0  0  0
 26 20  1  0  0  0  0
 29 35  1  1  0  0  0
 29 30  1  0  0  0  0
 29 34  1  0  0  0  0
 30 31  1  1  0  0  0
 31 32  1  0  0  0  0
 32 33  1  0  0  0  0
 33 37  1  6  0  0  0
 34 39  1  1  0  0  0
 34 33  1  0  0  0  0
 36 35  1  0  0  0  0
 38 37  1  0  0  0  0
 40 39  1  0  0  0  0
 41 46  1  0  0  0  0
 42 41  2  0  0  0  0
 43 42  1  0  0  0  0
 43 44  2  0  0  0  0
 44 45  1  0  0  0  0
 45 46  2  0  0  0  0
 45 49  1  0  0  0  0
 47 42  1  0  0  0  0
 48 43  1  0  0  0  0
M  END
>  <minimizedAffinity>
-4.65071774

>  <minimizedRMSD>
4.33601522

$$$$
