REMARK  Name = 
REMARK  6 active torsions:
REMARK  status: ('A' for Active; 'I' for Inactive)
REMARK    1  A    between atoms: N_1  and  C_6
REMARK    2  A    between atoms: C_4  and  C_14
REMARK    3  A    between atoms: C_18  and  C_34
REMARK    4  A    between atoms: O_32  and  C_33
REMARK    5  A    between atoms: C_37  and  O_38
REMARK    6  A    between atoms: C_39  and  O_40
REMARK                            x       y       z     vdW  Elec       q    Type
REMARK                         _______ _______ _______ _____ _____    ______ ____
ROOT
ATOM      1  F   UNL     1      37.365  32.106  48.475  0.00  0.00    +0.000 F 
ATOM      2  C   UNL     1      36.976  31.156  49.340  0.00  0.00    +0.000 A 
ATOM      3  C   UNL     1      35.894  30.324  49.213  0.00  0.00    +0.000 A 
ATOM      4  C   UNL     1      35.646  29.395  50.239  0.00  0.00    +0.000 A 
ATOM      5  C   UNL     1      36.452  29.305  51.349  0.00  0.00    +0.000 A 
ATOM      6  C   UNL     1      37.550  30.164  51.450  0.00  0.00    +0.000 A 
ATOM      7  C   UNL     1      37.806  31.095  50.429  0.00  0.00    +0.000 A 
ATOM      8  H   UNL     1      34.772  28.791  50.039  0.00  0.00    +0.000 HD
ATOM      9  H   UNL     1      36.196  28.575  52.085  0.00  0.00    +0.000 HD
ATOM     10  H   UNL     1      38.118  30.018  52.351  0.00  0.00    +0.000 HD
ENDROOT
BRANCH   3  14
ATOM     11  N   UNL     1      33.551  29.868  46.496  0.00  0.00    +0.000 N 
ATOM     12  C   UNL     1      34.784  29.784  45.730  0.00  0.00    +0.000 C 
ATOM     13  C   UNL     1      35.841  30.109  46.745  0.00  0.00    +0.000 C 
ATOM     14  C   UNL     1      35.036  30.545  48.049  0.00  0.00    +0.000 C 
ATOM     15  C   UNL     1      33.868  29.674  47.929  0.00  0.00    +0.000 C 
ATOM     16  H   UNL     1      34.828  30.498  44.899  0.00  0.00    +0.000 HD
ATOM     17  H   UNL     1      34.961  28.748  45.364  0.00  0.00    +0.000 HD
ATOM     18  H   UNL     1      36.429  29.248  47.066  0.00  0.00    +0.000 HD
ATOM     19  H   UNL     1      36.490  30.946  46.514  0.00  0.00    +0.000 HD
ATOM     20  H   UNL     1      34.876  31.617  47.858  0.00  0.00    +0.000 HD
ATOM     21  H   UNL     1      33.049  30.089  48.553  0.00  0.00    +0.000 HD
ATOM     22  H   UNL     1      34.046  28.611  48.137  0.00  0.00    +0.000 HD
BRANCH  11  23
ATOM     23  C   UNL     1      32.251  30.104  46.009  0.00  0.00    +0.000 A 
ATOM     24  C   UNL     1      32.110  31.238  45.192  0.00  0.00    +0.000 A 
ATOM     25  C   UNL     1      30.846  31.558  44.671  0.00  0.00    +0.000 A 
ATOM     26  N   UNL     1      29.818  30.700  45.019  0.00  0.00    +0.000 NA
ATOM     27  C   UNL     1      29.988  29.630  45.798  0.00  0.00    +0.000 A 
ATOM     28  N   UNL     1      31.212  29.345  46.286  0.00  0.00    +0.000 NA
ATOM     29  H   UNL     1      32.907  31.905  44.920  0.00  0.00    +0.000 HD
ATOM     30  H   UNL     1      30.668  32.415  44.036  0.00  0.00    +0.000 HD
ATOM     31  H   UNL     1      29.124  29.018  46.016  0.00  0.00    +0.000 HD
ENDBRANCH  11  23
ENDBRANCH   3  14
BRANCH   7  33
ATOM     32  C   UNL     1      38.647  33.429  50.361  0.00  0.00    +0.000 C 
ATOM     33  C   UNL     1      39.001  31.979  50.620  0.00  0.00    +0.000 C 
ATOM     34  O   UNL     1      40.074  31.633  49.830  0.00  0.00    +0.000 OA
ATOM     35  C   UNL     1      40.309  32.552  48.822  0.00  0.00    +0.000 C 
ATOM     36  C   UNL     1      40.812  33.865  49.366  0.00  0.00    +0.000 C 
ATOM     37  C   UNL     1      39.880  34.305  50.464  0.00  0.00    +0.000 C 
BRANCH  32  38
ATOM     38  O   UNL     1      37.796  33.794  51.417  0.00  0.00    +0.000 OA
ATOM     39  H   UNL     1      37.274  34.606  51.209  0.00  0.00    +0.000 HD
ENDBRANCH  32  38
BRANCH  36  40
ATOM     40  O   UNL     1      42.133  33.784  49.796  0.00  0.00    +0.000 OA
ATOM     41  H   UNL     1      42.694  33.845  48.960  0.00  0.00    +0.000 HD
ENDBRANCH  36  40
BRANCH  37  42
ATOM     42  O   UNL     1      40.470  34.183  51.724  0.00  0.00    +0.000 OA
ATOM     43  H   UNL     1      41.447  34.087  51.633  0.00  0.00    +0.000 HD
ENDBRANCH  37  42
ENDBRANCH   7  33
TORSDOF 6
