
     RDKit          3D

 48 51  0  0  0  0  0  0  0  0999 V2000
   35.4973   28.9161   49.1501 C   0  0  0  0  0  0  0  0  0  0  0  0
   35.4176   30.1104   48.3911 C   0  0  0  0  0  0  0  0  0  0  0  0
   34.3245   30.2666   47.5503 C   0  0  0  0  0  0  0  0  0  0  0  0
   33.3985   29.2703   47.5031 N   0  0  0  0  0  0  0  0  0  0  0  0
   33.4960   28.1548   48.2272 C   0  0  0  0  0  0  0  0  0  0  0  0
   34.5557   27.9592   49.0690 N   0  0  0  0  0  0  0  0  0  0  0  0
   36.4583   31.0622   48.5390 N   0  0  0  0  0  0  0  0  0  0  0  0
   36.6278   31.7667   49.6532 C   0  0  0  0  0  0  0  0  0  0  0  0
   37.6722   32.6801   49.7221 C   0  0  0  0  0  0  0  0  0  0  0  0
   38.4520   32.7775   48.6142 C   0  0  0  0  0  0  0  0  0  0  0  0
   39.4128   33.6097   48.6623 O   0  0  0  0  0  0  0  0  0  0  0  0
   38.3158   32.0975   47.4931 N   0  0  0  0  0  0  0  0  0  0  0  0
   37.2840   31.2064   47.4474 C   0  0  0  0  0  0  0  0  0  0  0  0
   37.1326   30.5385   46.3751 O   0  0  0  0  0  0  0  0  0  0  0  0
   32.5303   27.1350   48.1647 O   0  0  0  0  0  0  0  0  0  0  0  0
   31.2111   27.5584   48.2795 C   0  0  0  0  0  0  0  0  0  0  0  0
   30.7717   27.7211   49.5730 C   0  0  0  0  0  0  0  0  0  0  0  0
   29.4853   28.1382   49.8415 C   0  0  0  0  0  0  0  0  0  0  0  0
   28.6244   28.3964   48.7673 C   0  0  0  0  0  0  0  0  0  0  0  0
   29.0766   28.2291   47.4618 C   0  0  0  0  0  0  0  0  0  0  0  0
   30.3546   27.8150   47.2399 C   0  0  0  0  0  0  0  0  0  0  0  0
   36.3545   28.7869   49.8139 H   0  0  0  0  0  0  0  0  0  0  0  0
   34.2553   31.1735   46.9683 H   0  0  0  0  0  0  0  0  0  0  0  0
   35.9380   31.6002   50.4737 H   0  0  0  0  0  0  0  0  0  0  0  0
   37.7929   33.2436   50.6379 H   0  0  0  0  0  0  0  0  0  0  0  0
   38.9559   32.2281   46.6841 H   0  0  0  0  0  0  0  0  0  0  0  0
   31.3980   27.5348   50.4339 H   0  0  0  0  0  0  0  0  0  0  0  0
   29.1471   28.2638   50.8701 H   0  0  0  0  0  0  0  0  0  0  0  0
   27.6316   28.7200   49.0561 H   0  0  0  0  0  0  0  0  0  0  0  0
   28.3672   28.4439   46.6850 H   0  0  0  0  0  0  0  0  0  0  0  0
   32.8709   26.8265   44.9307 O   0  0  0  0  0  0  0  0  0  0  0  0
   31.8171   26.5105   45.7720 C   0  0  1  0  0  0  0  0  0  0  0  0
   30.8050   27.6295   45.8595 C   0  0  1  0  0  0  0  0  0  0  0  0
   29.6936   27.3961   45.0555 O   0  0  0  0  0  0  0  0  0  0  0  0
   29.9983   26.6756   43.9061 C   0  0  0  0  0  0  0  0  0  0  0  0
   30.2192   25.2421   44.3152 C   0  0  2  0  0  0  0  0  0  0  0  0
   29.0479   24.6641   44.8054 O   0  0  0  0  0  0  0  0  0  0  0  0
   31.2450   25.1788   45.4211 C   0  0  1  0  0  0  0  0  0  0  0  0
   32.3052   24.3850   44.9546 O   0  0  0  0  0  0  0  0  0  0  0  0
   33.0537   27.8035   44.9832 H   0  0  0  0  0  0  0  0  0  0  0  0
   32.2656   26.4199   46.7981 H   0  0  0  0  0  0  0  0  0  0  0  0
   31.3131   28.5260   45.4570 H   0  0  0  0  0  0  0  0  0  0  0  0
   30.9128   27.0319   43.3897 H   0  0  0  0  0  0  0  0  0  0  0  0
   29.1151   26.7301   43.2379 H   0  0  0  0  0  0  0  0  0  0  0  0
   30.5372   24.6797   43.4115 H   0  0  0  0  0  0  0  0  0  0  0  0
   29.3211   23.7348   45.0874 H   0  0  0  0  0  0  0  0  0  0  0  0
   30.8796   24.6620   46.3329 H   0  0  0  0  0  0  0  0  0  0  0  0
   33.1760   24.8512   44.9873 H   0  0  0  0  0  0  0  0  0  0  0  0
  2  7  1  0
  2  1  2  0
  3  2  1  0
  4  3  2  0
  4  5  1  0
  5  6  2  0
  6  1  1  0
  7  8  1  0
  8  9  2  0
 10 11  2  0
 10  9  1  0
 12 10  1  0
 13 12  1  0
 13  7  1  0
 14 13  2  0
 15  5  1  0
 15 16  1  0
 16 17  2  0
 17 18  1  0
 19 18  2  0
 20 19  1  0
 21 20  2  0
 21 16  1  0
  1 22  1  0
  3 23  1  0
  8 24  1  0
  9 25  1  0
 12 26  1  0
 17 27  1  0
 18 28  1  0
 19 29  1  0
 20 30  1  0
 31 32  1  0
 32 33  1  0
 33 34  1  0
 34 35  1  0
 35 36  1  0
 36 37  1  0
 36 38  1  0
 38 39  1  0
 38 32  1  0
 31 40  1  0
 32 41  1  1
 33 42  1  6
 35 43  1  0
 35 44  1  0
 36 45  1  6
 37 46  1  0
 38 47  1  1
 39 48  1  0
 21 33  1  0
M  ISO  8  22  14  23  14  24  14  25  14  26   9  27  14  28  14  29  14
M  ISO  1  30  14
M  END
>  <DihAtoms>  (1) 
19,20,32,31

>  <DihDeg>  (1) 
-87.66282515595329

$$$$
