
     RDKit          3D

 28 29  0  0  0  0  0  0  0  0999 V2000
   37.2978   29.9913   51.1813 C   0  0  0  0  0  0  0  0  0  0  0  0
   37.9591   30.9216   50.3523 C   0  0  0  0  0  0  0  0  0  0  0  0
   37.2738   31.3882   49.2320 C   0  0  0  0  0  0  0  0  0  0  0  0
   36.0156   30.9284   48.9965 N   0  0  0  0  0  0  0  0  0  0  0  0
   35.4095   30.0298   49.8198 C   0  0  0  0  0  0  0  0  0  0  0  0
   36.0573   29.5760   50.8966 N   0  0  0  0  0  0  0  0  0  0  0  0
   38.0810   29.6086   52.2535 O   0  0  0  0  0  0  0  0  0  0  0  0
   38.9439   31.3122   50.4941 H   0  0  0  0  0  0  0  0  0  0  0  0
   37.7067   32.1026   48.5434 H   0  0  0  0  0  0  0  0  0  0  0  0
   38.9162   29.0663   52.0011 H   0  0  0  0  0  0  0  0  0  0  0  0
   33.1288   28.4345   47.5565 O   0  0  0  0  0  0  0  0  0  0  0  0
   34.0703   28.3962   48.5545 C   0  0  1  0  0  0  0  0  0  0  0  0
   34.0308   29.5714   49.4990 C   0  0  1  0  0  0  0  0  0  0  0  0
   33.3873   29.2657   50.6959 O   0  0  0  0  0  0  0  0  0  0  0  0
   32.2773   28.4498   50.3826 C   0  0  0  0  0  0  0  0  0  0  0  0
   32.8600   27.0451   50.3024 C   0  0  1  0  0  0  0  0  0  0  0  0
   31.9142   26.0668   50.1293 O   0  0  0  0  0  0  0  0  0  0  0  0
   33.9488   27.0756   49.2763 C   0  0  2  0  0  0  0  0  0  0  0  0
   35.1990   26.8531   49.8925 O   0  0  0  0  0  0  0  0  0  0  0  0
   33.2598   29.1729   46.9088 H   0  0  0  0  0  0  0  0  0  0  0  0
   35.0686   28.4054   48.0621 H   0  0  0  0  0  0  0  0  0  0  0  0
   33.4665   30.3949   49.0239 H   0  0  0  0  0  0  0  0  0  0  0  0
   31.7859   28.7417   49.4455 H   0  0  0  0  0  0  0  0  0  0  0  0
   31.5239   28.4444   51.2120 H   0  0  0  0  0  0  0  0  0  0  0  0
   33.3155   26.8781   51.3223 H   0  0  0  0  0  0  0  0  0  0  0  0
   31.9558   25.6101   49.2530 H   0  0  0  0  0  0  0  0  0  0  0  0
   33.8122   26.2872   48.5081 H   0  0  0  0  0  0  0  0  0  0  0  0
   35.7588   26.2354   49.3844 H   0  0  0  0  0  0  0  0  0  0  0  0
  1  7  1  0
  2  1  2  0
  3  2  1  0
  4  3  2  0
  4  5  1  0
  5  6  2  0
  6  1  1  0
  2  8  1  0
  3  9  1  0
  7 10  1  0
 11 12  1  0
 12 13  1  0
 13 14  1  0
 14 15  1  0
 15 16  1  0
 16 17  1  0
 16 18  1  0
 18 19  1  0
 18 12  1  0
 11 20  1  0
 12 21  1  6
 13 22  1  6
 15 23  1  0
 15 24  1  0
 16 25  1  1
 17 26  1  0
 18 27  1  6
 19 28  1  0
  5 13  1  0
M  ISO  3   8  14   9  14  10   3
M  END
>  <DihAtoms>  (1) 
3,4,12,11

>  <DihDeg>  (1) 
-78.24753155161936

$$$$
