
 OpenBabel03272509093D

 43 46  0  0  1  0  0  0  0  0999 V2000
   33.3980   27.2280   46.8470 C   0  0  0  0  0  0  0  0  0  0  0  0
   33.9650   25.9820   47.1020 C   0  0  0  0  0  0  0  0  0  0  0  0
   34.3000   25.1260   46.0750 C   0  0  0  0  0  0  0  0  0  0  0  0
   34.0870   25.4670   44.7550 C   0  0  0  0  0  0  0  0  0  0  0  0
   33.5360   26.6770   44.5000 C   0  0  0  0  0  0  0  0  0  0  0  0
   33.1870   27.5620   45.5060 C   0  0  0  0  0  0  0  0  0  0  0  0
   34.1000   25.7900   48.1570 H   0  0  0  0  0  0  0  0  0  0  0  0
   34.7320   24.1920   46.4070 H   0  0  0  0  0  0  0  0  0  0  0  0
   34.3620   24.7700   43.9830 H   0  0  0  0  0  0  0  0  0  0  0  0
   33.3790   26.9200   43.4480 H   0  0  0  0  0  0  0  0  0  0  0  0
   33.5920   29.8600   44.6090 C   0  0  1  0  0  3  0  0  0  0  0  0
   32.5900   28.8550   45.0800 C   0  0  2  0  0  3  0  0  0  0  0  0
   31.9260   29.4300   46.1750 O   0  0  0  0  0  0  0  0  0  0  0  0
   31.1280   30.4870   45.7490 C   0  0  0  0  0  2  0  0  0  0  0  0
   31.9780   31.5870   45.1800 C   0  0  1  0  0  3  0  0  0  0  0  0
   32.7910   31.0240   44.0390 C   0  0  2  0  0  3  0  0  0  0  0  0
   34.3550   30.3470   45.6690 O   0  0  0  0  0  0  0  0  0  0  0  0
   33.8880   30.4040   46.5210 H   0  0  0  0  0  0  0  0  0  0  0  0
   31.1950   32.6640   44.8200 O   0  0  0  0  0  0  0  0  0  0  0  0
   31.5040   33.1750   44.0410 H   0  0  0  0  0  0  0  0  0  0  0  0
   31.9810   30.5110   43.0340 O   0  0  0  0  0  0  0  0  0  0  0  0
   31.7750   31.1730   42.3240 H   0  0  0  0  0  0  0  0  0  0  0  0
   33.0150   28.1940   47.8990 C   0  0  0  0  0  0  0  0  0  0  0  0
   32.2390   28.9130   47.5920 H   0  0  0  0  0  0  0  0  0  0  0  0
   32.5170   27.5720   48.6990 H   0  0  0  0  0  0  0  0  0  0  0  0
   34.9180   28.4450   49.4880 C   0  0  0  0  0  3  0  0  0  0  0  0
   34.1660   28.8830   48.5090 C   0  0  0  0  0  3  0  0  0  0  0  0
   37.3800   30.1360   51.5940 C   0  0  0  0  0  0  0  0  0  0  0  0
   38.0860   30.9000   50.6410 C   0  0  0  0  0  0  0  0  0  0  0  0
   37.6980   30.8140   49.2960 C   0  0  0  0  0  0  0  0  0  0  0  0
   36.6460   29.9880   48.9710 N   0  0  0  0  0  0  0  0  0  0  0  0
   36.0120   29.2810   49.9480 C   0  0  0  0  0  0  0  0  0  0  0  0
   36.3720   29.3550   51.2220 N   0  0  0  0  0  0  0  0  0  0  0  0
   37.6700   30.1950   52.6210 H   0  0  0  0  0  0  0  0  0  0  0  0
   38.9100   31.5460   50.8960 H   0  0  0  0  0  0  0  0  0  0  0  0
   38.3600   31.5610   48.2260 C   0  0  0  0  0  0  0  0  0  0  0  0
   38.5840   31.0320   46.9790 C   0  0  0  0  0  0  0  0  0  0  0  0
   39.2270   32.0040   46.2180 C   0  0  0  0  0  0  0  0  0  0  0  0
   39.3670   33.0830   47.0310 N   0  0  0  0  0  0  0  0  0  0  0  0
   38.8480   32.8110   48.2220 N   0  0  0  0  0  0  0  0  0  0  0  0
   38.3290   30.0580   46.6190 H   0  0  0  0  0  0  0  0  0  0  0  0
   39.5630   31.9580   45.1900 H   0  0  0  0  0  0  0  0  0  0  0  0
   39.8050   34.0240   46.8230 H   0  0  0  0  0  0  0  0  0  0  0  0
  1  2  1  0  0  0  0
  1 23  1  0  0  0  0
  2  7  1  0  0  0  0
  3  8  1  0  0  0  0
  3  2  2  0  0  0  0
  4  3  1  0  0  0  0
  5  4  2  0  0  0  0
  5  6  1  0  0  0  0
  6  1  2  0  0  0  0
  9  4  1  0  0  0  0
 10  5  1  0  0  0  0
 11 12  1  0  0  0  0
 11 17  1  1  0  0  0
 12  6  1  1  0  0  0
 12 13  1  0  0  0  0
 14 13  1  0  0  0  0
 15 19  1  6  0  0  0
 15 14  1  0  0  0  0
 16 21  1  6  0  0  0
 16 11  1  0  0  0  0
 16 15  1  0  0  0  0
 17 18  1  0  0  0  0
 20 19  1  0  0  0  0
 22 21  1  0  0  0  0
 23 27  1  0  0  0  0
 23 25  1  0  0  0  0
 24 23  1  0  0  0  0
 26 32  1  0  0  0  0
 27 26  2  0  0  0  0
 28 34  1  0  0  0  0
 29 35  1  0  0  0  0
 29 28  2  0  0  0  0
 30 29  1  0  0  0  0
 31 30  2  0  0  0  0
 31 32  1  0  0  0  0
 32 33  2  0  0  0  0
 33 28  1  0  0  0  0
 36 30  1  0  0  0  0
 37 36  1  0  0  0  0
 38 37  2  0  0  0  0
 38 39  1  0  0  0  0
 39 40  1  0  0  0  0
 40 36  2  0  0  0  0
 41 37  1  0  0  0  0
 42 38  1  0  0  0  0
 43 39  1  0  0  0  0
M  END
>  <minimizedAffinity>
-6.77421093

>  <minimizedRMSD>
1.01699889

$$$$
