
 OpenBabel03272507333D

 39 42  0  0  1  0  0  0  0  0999 V2000
   33.1250   27.4440   48.1620 C   0  0  0  0  0  0  0  0  0  0  0  0
   31.8750   27.4470   48.4210 O   0  0  0  0  0  0  0  0  0  0  0  0
   35.8350   29.1180   49.7880 C   0  0  0  0  0  0  0  0  0  0  0  0
   34.7960   29.6160   50.5470 C   0  0  0  0  0  0  0  0  0  0  0  0
   33.6090   29.0590   50.0470 C   0  0  0  0  0  0  0  0  0  0  0  0
   34.0070   28.2510   49.0060 C   0  0  0  0  0  0  0  0  0  0  0  0
   35.3160   28.3170   48.8910 O   0  0  0  0  0  0  0  0  0  0  0  0
   34.8410   30.3100   51.3860 H   0  0  0  0  0  0  0  0  0  0  0  0
   32.6080   29.2050   50.3710 H   0  0  0  0  0  0  0  0  0  0  0  0
   37.2180   29.4890   50.0340 C   0  0  0  0  0  0  0  0  0  0  0  0
   37.8550   28.8990   50.9210 O   0  0  0  0  0  0  0  0  0  0  0  0
   37.7690   30.5350   49.2180 C   0  0  0  0  0  0  0  0  0  0  0  0
   38.1090   31.7190   49.8560 C   0  0  0  0  0  0  0  0  0  0  0  0
   38.6450   32.7600   49.0870 C   0  0  0  0  0  0  0  0  0  0  0  0
   38.8040   32.5470   47.7390 N   0  0  0  0  0  0  0  0  0  0  0  0
   38.4660   31.3960   47.1610 C   0  0  0  0  0  0  0  0  0  0  0  0
   37.9510   30.3890   47.8870 N   0  0  0  0  0  0  0  0  0  0  0  0
   37.9790   31.8680   50.9030 H   0  0  0  0  0  0  0  0  0  0  0  0
   38.9270   33.7070   49.5440 H   0  0  0  0  0  0  0  0  0  0  0  0
   38.6030   31.2590   46.1020 H   0  0  0  0  0  0  0  0  0  0  0  0
   33.6830   26.6340   47.0310 C   0  0  1  0  0  0  0  0  0  0  0  0
   33.7020   25.1060   47.4260 C   0  0  0  0  0  0  0  0  0  0  0  0
   32.8540   25.6480   46.3330 C   0  0  2  0  0  0  0  0  0  0  0  0
   34.7450   26.9070   46.7580 H   0  0  0  0  0  0  0  0  0  0  0  0
   33.3070   24.8310   48.3960 H   0  0  0  0  0  0  0  0  0  0  0  0
   34.5600   24.5180   47.0920 H   0  0  0  0  0  0  0  0  0  0  0  0
   31.7620   25.7100   46.5780 H   0  0  0  0  0  0  0  0  0  0  0  0
   34.4880   25.8840   44.5440 C   0  0  1  0  0  3  0  0  0  0  0  0
   33.2070   25.2690   44.8990 C   0  0  1  0  0  3  0  0  0  0  0  0
   33.0540   23.9330   44.7660 O   0  0  0  0  0  0  0  0  0  0  0  0
   33.8560   23.2270   43.9460 C   0  0  0  0  0  2  0  0  0  0  0  0
   34.6530   24.0040   42.9420 C   0  0  2  0  0  3  0  0  0  0  0  0
   35.4320   25.0320   43.7440 C   0  0  2  0  0  3  0  0  0  0  0  0
   34.3030   27.0740   43.8280 O   0  0  0  0  0  0  0  0  0  0  0  0
   35.1970   27.5100   43.7460 H   0  0  0  0  0  0  0  0  0  0  0  0
   33.8220   24.6120   42.0080 O   0  0  0  0  0  0  0  0  0  0  0  0
   34.1590   24.3410   41.1240 H   0  0  0  0  0  0  0  0  0  0  0  0
   36.2610   24.3060   44.6180 O   0  0  0  0  0  0  0  0  0  0  0  0
   36.7870   23.6430   44.0940 H   0  0  0  0  0  0  0  0  0  0  0  0
  1  2  2  0  0  0  0
  1  6  1  0  0  0  0
  3 10  1  0  0  0  0
  3  4  2  0  0  0  0
  4  8  1  0  0  0  0
  5  9  1  0  0  0  0
  5  4  1  0  0  0  0
  6  5  2  0  0  0  0
  7  6  1  0  0  0  0
  7  3  1  0  0  0  0
 10 11  2  0  0  0  0
 12 13  1  0  0  0  0
 12 10  1  0  0  0  0
 13 18  1  0  0  0  0
 14 19  1  0  0  0  0
 14 13  2  0  0  0  0
 15 14  1  0  0  0  0
 16 15  2  0  0  0  0
 16 17  1  0  0  0  0
 17 12  2  0  0  0  0
 20 16  1  0  0  0  0
 21 24  1  6  0  0  0
 21 22  1  0  0  0  0
 21  1  1  0  0  0  0
 22 25  1  0  0  0  0
 23 27  1  1  0  0  0
 23 21  1  0  0  0  0
 23 22  1  0  0  0  0
 26 22  1  0  0  0  0
 28 34  1  6  0  0  0
 28 29  1  0  0  0  0
 29 30  1  1  0  0  0
 29 23  1  0  0  0  0
 31 30  1  0  0  0  0
 32 36  1  6  0  0  0
 32 33  1  0  0  0  0
 32 31  1  0  0  0  0
 33 28  1  0  0  0  0
 33 38  1  1  0  0  0
 35 34  1  0  0  0  0
 37 36  1  0  0  0  0
 39 38  1  0  0  0  0
M  END
>  <minimizedAffinity>
-5.07526112

>  <minimizedRMSD>
0.36168319

$$$$
