
     RDKit          3D

 28 29  0  0  0  0  0  0  0  0999 V2000
   37.2978   29.9913   51.1813 C   0  0  0  0  0  0  0  0  0  0  0  0
   37.9591   30.9216   50.3523 C   0  0  0  0  0  0  0  0  0  0  0  0
   37.2738   31.3882   49.2320 C   0  0  0  0  0  0  0  0  0  0  0  0
   36.0156   30.9284   48.9965 N   0  0  0  0  0  0  0  0  0  0  0  0
   35.4095   30.0298   49.8198 C   0  0  0  0  0  0  0  0  0  0  0  0
   36.0573   29.5760   50.8966 N   0  0  0  0  0  0  0  0  0  0  0  0
   38.0810   29.6086   52.2535 O   0  0  0  0  0  0  0  0  0  0  0  0
   38.9439   31.3122   50.4941 H   0  0  0  0  0  0  0  0  0  0  0  0
   37.7067   32.1026   48.5434 H   0  0  0  0  0  0  0  0  0  0  0  0
   38.9162   29.0663   52.0011 H   0  0  0  0  0  0  0  0  0  0  0  0
   32.8738   29.3233   47.3825 O   0  0  0  0  0  0  0  0  0  0  0  0
   33.9806   28.9736   48.1152 C   0  0  1  0  0  0  0  0  0  0  0  0
   34.0308   29.5714   49.4990 C   0  0  1  0  0  0  0  0  0  0  0  0
   33.6372   28.6649   50.4805 O   0  0  0  0  0  0  0  0  0  0  0  0
   32.5483   27.9282   49.9633 C   0  0  0  0  0  0  0  0  0  0  0  0
   33.2032   26.8154   49.1558 C   0  0  1  0  0  0  0  0  0  0  0  0
   32.3120   25.8962   48.6633 O   0  0  0  0  0  0  0  0  0  0  0  0
   34.0837   27.4674   48.1367 C   0  0  2  0  0  0  0  0  0  0  0  0
   35.4371   27.1745   48.4100 O   0  0  0  0  0  0  0  0  0  0  0  0
   32.8338   30.2856   47.1497 H   0  0  0  0  0  0  0  0  0  0  0  0
   34.8703   29.3513   47.5630 H   0  0  0  0  0  0  0  0  0  0  0  0
   33.3340   30.4285   49.5453 H   0  0  0  0  0  0  0  0  0  0  0  0
   31.8765   28.5388   49.3462 H   0  0  0  0  0  0  0  0  0  0  0  0
   31.9595   27.4365   50.7800 H   0  0  0  0  0  0  0  0  0  0  0  0
   33.8461   26.2718   49.9086 H   0  0  0  0  0  0  0  0  0  0  0  0
   32.2262   25.8992   47.6779 H   0  0  0  0  0  0  0  0  0  0  0  0
   33.8656   27.1038   47.1117 H   0  0  0  0  0  0  0  0  0  0  0  0
   35.9374   26.9444   47.6039 H   0  0  0  0  0  0  0  0  0  0  0  0
  1  7  1  0
  2  1  2  0
  3  2  1  0
  4  3  2  0
  4  5  1  0
  5  6  2  0
  6  1  1  0
  2  8  1  0
  3  9  1  0
  7 10  1  0
 11 12  1  0
 12 13  1  0
 13 14  1  0
 14 15  1  0
 15 16  1  0
 16 17  1  0
 16 18  1  0
 18 19  1  0
 18 12  1  0
 11 20  1  0
 12 21  1  6
 13 22  1  6
 15 23  1  0
 15 24  1  0
 16 25  1  1
 17 26  1  0
 18 27  1  6
 19 28  1  0
  5 13  1  0
M  ISO  3   8  14   9  14  10   3
M  END
>  <DihAtoms>  (1) 
3,4,12,11

>  <DihDeg>  (1) 
-78.24753155161936

$$$$
