
     RDKit          3D

 45 48  0  0  0  0  0  0  0  0999 V2000
   35.8230   29.1383   49.8013 C   0  0  0  0  0  0  0  0  0  0  0  0
   34.8027   29.6638   50.5660 C   0  0  0  0  0  0  0  0  0  0  0  0
   33.5989   29.1244   50.0857 C   0  0  0  0  0  0  0  0  0  0  0  0
   33.9697   28.2971   49.0501 C   0  0  0  0  0  0  0  0  0  0  0  0
   35.2787   28.3364   48.9187 O   0  0  0  0  0  0  0  0  0  0  0  0
   37.2162   29.4851   50.0272 C   0  0  0  0  0  0  0  0  0  0  0  0
   37.8593   28.8773   50.8958 O   0  0  0  0  0  0  0  0  0  0  0  0
   37.7678   30.5312   49.2122 C   0  0  0  0  0  0  0  0  0  0  0  0
   38.1101   31.7142   49.8510 C   0  0  0  0  0  0  0  0  0  0  0  0
   38.6483   32.7555   49.0844 C   0  0  0  0  0  0  0  0  0  0  0  0
   38.8073   32.5442   47.7363 N   0  0  0  0  0  0  0  0  0  0  0  0
   38.4673   31.3937   47.1564 C   0  0  0  0  0  0  0  0  0  0  0  0
   37.9500   30.3875   47.8813 N   0  0  0  0  0  0  0  0  0  0  0  0
   33.0632   27.4970   48.2259 C   0  0  0  0  0  0  0  0  0  0  0  0
   31.8439   27.4017   48.5910 O   0  0  0  0  0  0  0  0  0  0  0  0
   33.5616   26.8058   46.9928 C   0  0  1  0  0  0  0  0  0  0  0  0
   33.7909   25.2742   47.2935 C   0  0  0  0  0  0  0  0  0  0  0  0
   32.7641   25.7645   46.3404 C   0  0  2  0  0  0  0  0  0  0  0  0
   34.8699   30.3675   51.3961 H   0  0  0  0  0  0  0  0  0  0  0  0
   32.6051   29.2927   50.4203 H   0  0  0  0  0  0  0  0  0  0  0  0
   37.9801   31.8618   50.8987 H   0  0  0  0  0  0  0  0  0  0  0  0
   38.9314   33.7013   49.5417 H   0  0  0  0  0  0  0  0  0  0  0  0
   38.6041   31.2584   46.0975 H   0  0  0  0  0  0  0  0  0  0  0  0
   34.5481   27.2089   46.6149 H   0  0  0  0  0  0  0  0  0  0  0  0
   33.5490   24.9125   48.2863 H   0  0  0  0  0  0  0  0  0  0  0  0
   34.6600   24.8011   46.8289 H   0  0  0  0  0  0  0  0  0  0  0  0
   31.7097   25.6932   46.7133 H   0  0  0  0  0  0  0  0  0  0  0  0
   30.9013   25.0803   43.7963 O   0  0  0  0  0  0  0  0  0  0  0  0
   31.8567   26.0585   44.1001 C   0  0  1  0  0  0  0  0  0  0  0  0
   32.9779   25.4933   44.8550 C   0  0  1  0  0  0  0  0  0  0  0  0
   34.2398   25.8576   44.5380 O   0  0  0  0  0  0  0  0  0  0  0  0
   34.5244   26.3665   43.3238 C   0  0  0  0  0  0  0  0  0  0  0  0
   33.4966   26.1755   42.2494 C   0  0  1  0  0  0  0  0  0  0  0  0
   33.3579   24.8310   41.9252 O   0  0  0  0  0  0  0  0  0  0  0  0
   32.2057   26.7469   42.8115 C   0  0  2  0  0  0  0  0  0  0  0  0
   32.4514   28.1089   43.0612 O   0  0  0  0  0  0  0  0  0  0  0  0
   30.1086   25.5515   43.4159 H   0  0  0  0  0  0  0  0  0  0  0  0
   31.2903   26.8260   44.7048 H   0  0  0  0  0  0  0  0  0  0  0  0
   32.9384   24.3680   44.7635 H   0  0  0  0  0  0  0  0  0  0  0  0
   34.7560   27.4516   43.4276 H   0  0  0  0  0  0  0  0  0  0  0  0
   35.4778   25.8799   42.9638 H   0  0  0  0  0  0  0  0  0  0  0  0
   33.8046   26.8001   41.3780 H   0  0  0  0  0  0  0  0  0  0  0  0
   33.4696   24.7720   40.9491 H   0  0  0  0  0  0  0  0  0  0  0  0
   31.4107   26.6954   42.0576 H   0  0  0  0  0  0  0  0  0  0  0  0
   32.8164   28.5302   42.2367 H   0  0  0  0  0  0  0  0  0  0  0  0
  1  6  1  0
  1  2  2  0
  3  2  1  0
  4  3  2  0
  5  4  1  0
  5  1  1  0
  6  7  2  0
  8  9  2  0
  8  6  1  0
 10  9  1  0
 11 10  2  0
 12 11  1  0
 12 13  2  0
 13  8  1  0
 14 15  2  0
 14  4  1  0
 16 17  1  0
 16 14  1  0
 18 16  1  0
 18 17  1  0
  2 19  1  0
  3 20  1  0
  9 21  1  0
 10 22  1  0
 12 23  1  0
 16 24  1  6
 17 25  1  0
 17 26  1  0
 18 27  1  1
 28 29  1  0
 29 30  1  0
 30 31  1  0
 31 32  1  0
 32 33  1  0
 33 34  1  0
 33 35  1  0
 35 36  1  0
 35 29  1  0
 28 37  1  0
 29 38  1  1
 30 39  1  1
 32 40  1  0
 32 41  1  0
 33 42  1  6
 34 43  1  0
 35 44  1  6
 36 45  1  0
 18 30  1  0
M  ISO  8  19  14  20  14  21  14  22  14  23  14  24  13  25  13  26  13
M  ISO  1  27  13
M  END
>  <DihAtoms>  (1) 
15,17,29,28

>  <DihDeg>  (1) 
-60.00107449115729

$$$$
