
     RDKit          3D

 32 33  0  0  0  0  0  0  0  0999 V2000
   35.6177   29.0130   50.1699 C   0  0  0  0  0  0  0  0  0  0  0  0
   36.2827   30.1552   49.6488 C   0  0  0  0  0  0  0  0  0  0  0  0
   36.0347   30.5195   48.3340 C   0  0  0  0  0  0  0  0  0  0  0  0
   35.1606   29.7528   47.6146 N   0  0  0  0  0  0  0  0  0  0  0  0
   34.5444   28.6656   48.1497 C   0  0  0  0  0  0  0  0  0  0  0  0
   34.7665   28.2920   49.4198 N   0  0  0  0  0  0  0  0  0  0  0  0
   33.7059   28.0162   47.2206 N   0  0  0  0  0  0  0  0  0  0  0  0
   37.2164   30.9058   50.5245 C   0  0  0  0  0  0  0  0  0  0  0  0
   38.5369   30.7808   50.1142 F   0  0  0  0  0  0  0  0  0  0  0  0
   36.8627   32.2224   50.5103 F   0  0  0  0  0  0  0  0  0  0  0  0
   37.1845   30.4696   51.8376 F   0  0  0  0  0  0  0  0  0  0  0  0
   35.8264   28.7479   51.1988 H   0  0  0  0  0  0  0  0  0  0  0  0
   34.2288   27.1022   47.0740 H   0  0  0  0  0  0  0  0  0  0  0  0
   32.8326   28.3598   46.8144 H   0  0  0  0  0  0  0  0  0  0  0  0
   35.1036   31.3159   46.0000 O   0  0  0  0  0  0  0  0  0  0  0  0
   36.1320   32.1689   46.4476 C   0  0  1  0  0  0  0  0  0  0  0  0
   36.7062   31.7087   47.7467 C   0  0  2  0  0  0  0  0  0  0  0  0
   38.0223   31.3123   47.4798 O   0  0  0  0  0  0  0  0  0  0  0  0
   38.8250   32.3887   47.1551 C   0  0  0  0  0  0  0  0  0  0  0  0
   38.4715   32.7835   45.7474 C   0  0  2  0  0  0  0  0  0  0  0  0
   38.3378   34.1639   45.6565 O   0  0  0  0  0  0  0  0  0  0  0  0
   37.1607   32.1191   45.3060 C   0  0  1  0  0  0  0  0  0  0  0  0
   37.4622   30.7914   45.0510 O   0  0  0  0  0  0  0  0  0  0  0  0
   34.6205   31.7911   45.2619 H   0  0  0  0  0  0  0  0  0  0  0  0
   35.8189   33.2476   46.4357 H   0  0  0  0  0  0  0  0  0  0  0  0
   36.8420   32.5254   48.4833 H   0  0  0  0  0  0  0  0  0  0  0  0
   39.8764   32.0275   47.2360 H   0  0  0  0  0  0  0  0  0  0  0  0
   38.7190   33.2051   47.8983 H   0  0  0  0  0  0  0  0  0  0  0  0
   39.2432   32.3925   45.0754 H   0  0  0  0  0  0  0  0  0  0  0  0
   39.0700   34.6044   46.1516 H   0  0  0  0  0  0  0  0  0  0  0  0
   36.8195   32.6982   44.4449 H   0  0  0  0  0  0  0  0  0  0  0  0
   37.9372   30.6674   44.2042 H   0  0  0  0  0  0  0  0  0  0  0  0
  2  1  2  0
  2  8  1  0
  3  2  1  0
  4  5  1  0
  4  3  2  0
  5  6  2  0
  6  1  1  0
  7  5  1  0
  8 11  1  0
  9  8  1  0
 10  8  1  0
  1 12  1  0
  7 13  1  0
  7 14  1  0
 15 16  1  0
 16 17  1  0
 17 18  1  0
 18 19  1  0
 19 20  1  0
 20 21  1  0
 20 22  1  0
 22 23  1  0
 22 16  1  0
 15 24  1  0
 16 25  1  1
 17 26  1  1
 19 27  1  0
 19 28  1  0
 20 29  1  6
 21 30  1  0
 22 31  1  6
 23 32  1  0
  3 17  1  0
M  ISO  1  12  14
M  END
>  <DihAtoms>  (1) 
1,2,16,15

>  <DihDeg>  (1) 
-91.90979488336156

$$$$
