
 OpenBabel03272508233D

 52 55  0  0  1  0  0  0  0  0999 V2000
   38.3770   26.3790   33.9170 C   0  0  0  0  0  0  0  0  0  0  0  0
   37.2110   27.0290   33.6000 C   0  0  0  0  0  0  0  0  0  0  0  0
   36.7430   26.7330   32.3730 C   0  0  0  0  0  0  0  0  0  0  0  0
   37.3570   25.8870   31.5430 N   0  0  0  0  0  0  0  0  0  0  0  0
   38.4800   25.2590   31.8410 C   0  0  0  0  0  0  0  0  0  0  0  0
   39.0050   25.5010   33.0400 N   0  0  0  0  0  0  0  0  0  0  0  0
   35.8120   27.1860   31.9940 H   0  0  0  0  0  0  0  0  0  0  0  0
   38.9970   24.5790   31.2030 H   0  0  0  0  0  0  0  0  0  0  0  0
   39.0680   26.5740   35.2360 C   0  0  1  0  0  0  0  0  0  0  0  0
   38.3360   26.6910   36.4360 C   0  0  0  0  0  0  0  0  0  0  0  0
   38.9800   25.3400   36.1210 C   0  0  1  0  0  0  0  0  0  0  0  0
   40.0800   27.0240   35.1730 H   0  0  0  0  0  0  0  0  0  0  0  0
   38.6940   27.3030   37.2680 H   0  0  0  0  0  0  0  0  0  0  0  0
   37.2110   26.6380   36.3990 H   0  0  0  0  0  0  0  0  0  0  0  0
   39.8650   25.1640   36.7960 H   0  0  0  0  0  0  0  0  0  0  0  0
   37.8230   23.4360   37.1210 C   0  0  2  0  0  3  0  0  0  0  0  0
   38.1940   24.1570   35.8140 C   0  0  2  0  0  3  0  0  0  0  0  0
   38.6540   23.2200   34.9650 O   0  0  0  0  0  0  0  0  0  0  0  0
   39.5320   22.2810   35.3450 C   0  0  0  0  0  2  0  0  0  0  0  0
   40.0320   22.3100   36.7460 C   0  0  2  0  0  3  0  0  0  0  0  0
   39.0070   22.7640   37.7550 C   0  0  1  0  0  3  0  0  0  0  0  0
   36.9010   22.4560   36.7520 O   0  0  0  0  0  0  0  0  0  0  0  0
   37.2650   21.5550   36.6970 H   0  0  0  0  0  0  0  0  0  0  0  0
   41.2210   23.0380   36.8190 O   0  0  0  0  0  0  0  0  0  0  0  0
   41.3860   23.3730   37.7410 H   0  0  0  0  0  0  0  0  0  0  0  0
   39.6240   23.5420   38.7360 O   0  0  0  0  0  0  0  0  0  0  0  0
   39.2950   23.3740   39.6420 H   0  0  0  0  0  0  0  0  0  0  0  0
   36.5830   27.9270   34.5240 C   0  0  0  0  0  0  0  0  0  0  0  0
   35.8080   27.3310   35.0960 H   0  0  0  0  0  0  0  0  0  0  0  0
   37.2680   28.3290   35.2980 H   0  0  0  0  0  0  0  0  0  0  0  0
   35.8050   29.0430   33.9250 C   0  0  0  0  0  0  0  0  0  0  0  0
   36.5000   29.5190   33.1680 H   0  0  0  0  0  0  0  0  0  0  0  0
   35.0370   28.5650   33.2830 H   0  0  0  0  0  0  0  0  0  0  0  0
   33.0600   29.4130   34.2050 F   0  0  0  0  0  0  0  0  0  0  0  0
   33.9600   30.2000   34.8900 C   0  0  0  0  0  0  0  0  0  0  0  0
   35.3500   30.0530   34.8010 C   0  0  0  0  0  0  0  0  0  0  0  0
   36.0460   30.9080   35.5530 C   0  0  0  0  0  0  0  0  0  0  0  0
   35.5020   31.8640   36.3540 C   0  0  0  0  0  0  0  0  0  0  0  0
   34.1210   32.0130   36.4440 C   0  0  0  0  0  0  0  0  0  0  0  0
   33.4070   31.1500   35.6850 C   0  0  0  0  0  0  0  0  0  0  0  0
   37.1450   30.8330   35.5190 H   0  0  0  0  0  0  0  0  0  0  0  0
   36.1370   32.5360   36.9470 H   0  0  0  0  0  0  0  0  0  0  0  0
   33.5400   33.0470   37.3090 C   0  0  0  0  0  0  0  0  0  0  0  0
   32.4740   32.7960   37.4990 H   0  0  0  0  0  0  0  0  0  0  0  0
   34.0930   33.1790   38.2580 H   0  0  0  0  0  0  0  0  0  0  0  0
   33.5370   34.0240   36.7850 H   0  0  0  0  0  0  0  0  0  0  0  0
   31.9830   31.3200   35.7770 O   0  0  0  0  0  0  0  0  0  0  0  0
   31.3580   30.5310   36.6960 C   0  0  0  0  0  0  0  0  0  0  0  0
   30.0740   30.6590   36.5960 O   0  0  0  0  0  0  0  0  0  0  0  0
   31.8030   29.6500   37.6810 N   0  0  0  0  0  0  0  0  0  0  0  0
   31.9740   28.9130   38.3920 H   0  0  0  0  0  0  0  0  0  0  0  0
   31.2110   28.8500   38.0130 H   0  0  0  0  0  0  0  0  0  0  0  0
  1  9  1  0  0  0  0
  2  1  1  0  0  0  0
  2 28  1  0  0  0  0
  3  2  2  0  0  0  0
  4  5  2  0  0  0  0
  4  3  1  0  0  0  0
  5  6  1  0  0  0  0
  6  1  2  0  0  0  0
  7  3  1  0  0  0  0
  8  5  1  0  0  0  0
  9 12  1  6  0  0  0
  9 11  1  0  0  0  0
  9 10  1  0  0  0  0
 10 13  1  0  0  0  0
 11 10  1  0  0  0  0
 11 15  1  1  0  0  0
 14 10  1  0  0  0  0
 16 22  1  6  0  0  0
 16 21  1  0  0  0  0
 17 18  1  6  0  0  0
 17 11  1  0  0  0  0
 17 16  1  0  0  0  0
 18 19  1  0  0  0  0
 19 20  1  0  0  0  0
 20 24  1  6  0  0  0
 20 21  1  0  0  0  0
 21 26  1  1  0  0  0
 23 22  1  0  0  0  0
 24 25  1  0  0  0  0
 26 27  1  0  0  0  0
 28 29  1  0  0  0  0
 28 30  1  0  0  0  0
 31 28  1  0  0  0  0
 31 36  1  0  0  0  0
 32 31  1  0  0  0  0
 33 31  1  0  0  0  0
 34 35  1  0  0  0  0
 35 40  1  0  0  0  0
 36 35  2  0  0  0  0
 36 37  1  0  0  0  0
 37 38  2  0  0  0  0
 38 39  1  0  0  0  0
 38 42  1  0  0  0  0
 39 43  1  0  0  0  0
 40 47  1  0  0  0  0
 40 39  2  0  0  0  0
 41 37  1  0  0  0  0
 43 44  1  0  0  0  0
 43 45  1  0  0  0  0
 46 43  1  0  0  0  0
 47 48  1  0  0  0  0
 48 50  1  0  0  0  0
 49 48  2  0  0  0  0
 50 52  1  0  0  0  0
 50 51  1  0  0  0  0
M  END
>  <minimizedAffinity>
-7.01709747

$$$$

 OpenBabel03272508233D

 52 55  0  0  1  0  0  0  0  0999 V2000
   36.1830   29.1960   33.3670 C   0  0  0  0  0  0  0  0  0  0  0  0
   36.7390   27.9480   33.4910 C   0  0  0  0  0  0  0  0  0  0  0  0
   37.2550   27.4690   32.3440 C   0  0  0  0  0  0  0  0  0  0  0  0
   37.2270   28.1450   31.1930 N   0  0  0  0  0  0  0  0  0  0  0  0
   36.6920   29.3460   31.0670 C   0  0  0  0  0  0  0  0  0  0  0  0
   36.1600   29.8870   32.1610 N   0  0  0  0  0  0  0  0  0  0  0  0
   37.7340   26.4770   32.3050 H   0  0  0  0  0  0  0  0  0  0  0  0
   36.6510   29.9140   30.1650 H   0  0  0  0  0  0  0  0  0  0  0  0
   35.5480   29.9070   34.5280 C   0  0  1  0  0  0  0  0  0  0  0  0
   35.1410   31.2550   34.4280 C   0  0  0  0  0  0  0  0  0  0  0  0
   34.0670   30.1740   34.3010 C   0  0  1  0  0  0  0  0  0  0  0  0
   35.7920   29.4880   35.5250 H   0  0  0  0  0  0  0  0  0  0  0  0
   35.1630   31.9240   35.2910 H   0  0  0  0  0  0  0  0  0  0  0  0
   35.3000   31.8040   33.4570 H   0  0  0  0  0  0  0  0  0  0  0  0
   33.4240   30.1530   35.2260 H   0  0  0  0  0  0  0  0  0  0  0  0
   32.3890   31.0770   32.7740 C   0  0  2  0  0  3  0  0  0  0  0  0
   33.3630   29.9200   33.0550 C   0  0  2  0  0  3  0  0  0  0  0  0
   32.6800   28.7750   32.8650 O   0  0  0  0  0  0  0  0  0  0  0  0
   31.4470   28.5900   33.3550 C   0  0  0  0  0  2  0  0  0  0  0  0
   30.8400   29.6800   34.1660 C   0  0  2  0  0  3  0  0  0  0  0  0
   31.2120   31.0670   33.7060 C   0  0  1  0  0  3  0  0  0  0  0  0
   31.9280   30.8610   31.4740 O   0  0  0  0  0  0  0  0  0  0  0  0
   31.0350   30.4780   31.4170 H   0  0  0  0  0  0  0  0  0  0  0  0
   31.0960   29.4740   35.5220 O   0  0  0  0  0  0  0  0  0  0  0  0
   31.0270   30.3210   36.0380 H   0  0  0  0  0  0  0  0  0  0  0  0
   31.3770   31.9010   34.8130 O   0  0  0  0  0  0  0  0  0  0  0  0
   31.0190   32.8030   34.6870 H   0  0  0  0  0  0  0  0  0  0  0  0
   36.7520   27.2590   34.7480 C   0  0  0  0  0  0  0  0  0  0  0  0
   35.9230   27.7000   35.3810 H   0  0  0  0  0  0  0  0  0  0  0  0
   36.5140   26.1780   34.6720 H   0  0  0  0  0  0  0  0  0  0  0  0
   37.9710   27.4380   35.5800 C   0  0  0  0  0  0  0  0  0  0  0  0
   38.3430   28.4810   35.3450 H   0  0  0  0  0  0  0  0  0  0  0  0
   37.6110   27.5380   36.6250 H   0  0  0  0  0  0  0  0  0  0  0  0
   37.6320   24.7910   36.3750 F   0  0  0  0  0  0  0  0  0  0  0  0
   38.8100   25.2190   35.8010 C   0  0  0  0  0  0  0  0  0  0  0  0
   39.0330   26.5320   35.3680 C   0  0  0  0  0  0  0  0  0  0  0  0
   40.2360   26.7390   34.8290 C   0  0  0  0  0  0  0  0  0  0  0  0
   41.2030   25.7920   34.6890 C   0  0  0  0  0  0  0  0  0  0  0  0
   40.9830   24.4860   35.1190 C   0  0  0  0  0  0  0  0  0  0  0  0
   39.7660   24.2660   35.6680 C   0  0  0  0  0  0  0  0  0  0  0  0
   40.4630   27.7580   34.4720 H   0  0  0  0  0  0  0  0  0  0  0  0
   42.1730   26.0330   34.2350 H   0  0  0  0  0  0  0  0  0  0  0  0
   42.0300   23.4680   34.9670 C   0  0  0  0  0  0  0  0  0  0  0  0
   41.5640   22.4620   35.0520 H   0  0  0  0  0  0  0  0  0  0  0  0
   42.5960   23.5660   34.0220 H   0  0  0  0  0  0  0  0  0  0  0  0
   42.7560   23.5410   35.8010 H   0  0  0  0  0  0  0  0  0  0  0  0
   39.5540   22.9190   36.1170 O   0  0  0  0  0  0  0  0  0  0  0  0
   39.7320   22.7140   37.4540 C   0  0  0  0  0  0  0  0  0  0  0  0
   40.8370   22.0730   37.6640 O   0  0  0  0  0  0  0  0  0  0  0  0
   38.9960   23.0400   38.5920 N   0  0  0  0  0  0  0  0  0  0  0  0
   38.6060   23.2790   39.5250 H   0  0  0  0  0  0  0  0  0  0  0  0
   39.4530   23.1630   39.5280 H   0  0  0  0  0  0  0  0  0  0  0  0
  1  2  1  0  0  0  0
  1  9  1  0  0  0  0
  2 28  1  0  0  0  0
  3  2  2  0  0  0  0
  4  3  1  0  0  0  0
  5  4  2  0  0  0  0
  5  6  1  0  0  0  0
  6  1  2  0  0  0  0
  7  3  1  0  0  0  0
  8  5  1  0  0  0  0
  9 12  1  1  0  0  0
 10  9  1  0  0  0  0
 10 13  1  0  0  0  0
 11 10  1  0  0  0  0
 11  9  1  0  0  0  0
 11 15  1  1  0  0  0
 14 10  1  0  0  0  0
 16 22  1  6  0  0  0
 16 17  1  0  0  0  0
 16 21  1  0  0  0  0
 17 18  1  1  0  0  0
 17 11  1  0  0  0  0
 18 19  1  0  0  0  0
 19 20  1  0  0  0  0
 20 24  1  1  0  0  0
 21 20  1  0  0  0  0
 21 26  1  1  0  0  0
 23 22  1  0  0  0  0
 24 25  1  0  0  0  0
 27 26  1  0  0  0  0
 28 29  1  0  0  0  0
 28 31  1  0  0  0  0
 30 28  1  0  0  0  0
 31 33  1  0  0  0  0
 32 31  1  0  0  0  0
 35 34  1  0  0  0  0
 36 31  1  0  0  0  0
 36 35  2  0  0  0  0
 37 36  1  0  0  0  0
 38 37  2  0  0  0  0
 38 39  1  0  0  0  0
 39 40  2  0  0  0  0
 40 35  1  0  0  0  0
 40 47  1  0  0  0  0
 41 37  1  0  0  0  0
 42 38  1  0  0  0  0
 43 44  1  0  0  0  0
 43 39  1  0  0  0  0
 43 46  1  0  0  0  0
 45 43  1  0  0  0  0
 47 48  1  0  0  0  0
 48 49  2  0  0  0  0
 48 50  1  0  0  0  0
 50 51  1  0  0  0  0
 50 52  1  0  0  0  0
M  END
>  <minimizedAffinity>
-6.89706326

$$$$

 OpenBabel03272508233D

 52 55  0  0  1  0  0  0  0  0999 V2000
   38.3740   26.3870   33.9190 C   0  0  0  0  0  0  0  0  0  0  0  0
   37.2130   27.0350   33.5770 C   0  0  0  0  0  0  0  0  0  0  0  0
   36.7760   26.7420   32.3380 C   0  0  0  0  0  0  0  0  0  0  0  0
   37.4120   25.9000   31.5200 N   0  0  0  0  0  0  0  0  0  0  0  0
   38.5290   25.2740   31.8430 C   0  0  0  0  0  0  0  0  0  0  0  0
   39.0250   25.5140   33.0550 N   0  0  0  0  0  0  0  0  0  0  0  0
   35.8540   27.1940   31.9380 H   0  0  0  0  0  0  0  0  0  0  0  0
   39.0640   24.5980   31.2150 H   0  0  0  0  0  0  0  0  0  0  0  0
   39.0320   26.5800   35.2550 C   0  0  1  0  0  0  0  0  0  0  0  0
   38.2720   26.6750   36.4400 C   0  0  0  0  0  0  0  0  0  0  0  0
   38.9410   25.3360   36.1280 C   0  0  1  0  0  0  0  0  0  0  0  0
   40.0390   27.0440   35.2200 H   0  0  0  0  0  0  0  0  0  0  0  0
   38.6030   27.2840   37.2850 H   0  0  0  0  0  0  0  0  0  0  0  0
   37.1490   26.6070   36.3760 H   0  0  0  0  0  0  0  0  0  0  0  0
   39.8130   25.1660   36.8210 H   0  0  0  0  0  0  0  0  0  0  0  0
   37.8180   23.3890   37.0820 C   0  0  2  0  0  3  0  0  0  0  0  0
   38.1790   24.1450   35.7920 C   0  0  2  0  0  3  0  0  0  0  0  0
   38.6600   23.2350   34.9250 O   0  0  0  0  0  0  0  0  0  0  0  0
   39.5540   22.3060   35.2880 C   0  0  0  0  0  2  0  0  0  0  0  0
   40.0490   22.3140   36.6910 C   0  0  2  0  0  3  0  0  0  0  0  0
   39.0120   22.7260   37.7050 C   0  0  1  0  0  3  0  0  0  0  0  0
   36.9160   22.4000   36.6880 O   0  0  0  0  0  0  0  0  0  0  0  0
   37.2980   21.5070   36.6160 H   0  0  0  0  0  0  0  0  0  0  0  0
   41.2230   23.0630   36.7840 O   0  0  0  0  0  0  0  0  0  0  0  0
   41.3790   23.3810   37.7140 H   0  0  0  0  0  0  0  0  0  0  0  0
   39.6110   23.4940   38.7050 O   0  0  0  0  0  0  0  0  0  0  0  0
   39.2820   23.3010   39.6060 H   0  0  0  0  0  0  0  0  0  0  0  0
   36.5610   27.9280   34.4880 C   0  0  0  0  0  0  0  0  0  0  0  0
   35.6650   27.3790   34.9110 H   0  0  0  0  0  0  0  0  0  0  0  0
   37.1760   28.2000   35.3700 H   0  0  0  0  0  0  0  0  0  0  0  0
   35.9790   29.1590   33.8930 C   0  0  0  0  0  0  0  0  0  0  0  0
   36.8370   29.8940   33.8260 H   0  0  0  0  0  0  0  0  0  0  0  0
   35.7820   28.9160   32.8290 H   0  0  0  0  0  0  0  0  0  0  0  0
   36.5700   31.3490   35.5090 F   0  0  0  0  0  0  0  0  0  0  0  0
   35.2840   30.8650   35.4050 C   0  0  0  0  0  0  0  0  0  0  0  0
   34.9230   29.7780   34.5990 C   0  0  0  0  0  0  0  0  0  0  0  0
   33.6240   29.4730   34.6310 C   0  0  0  0  0  0  0  0  0  0  0  0
   32.6870   30.1280   35.3680 C   0  0  0  0  0  0  0  0  0  0  0  0
   33.0430   31.2080   36.1710 C   0  0  0  0  0  0  0  0  0  0  0  0
   34.3580   31.5250   36.1450 C   0  0  0  0  0  0  0  0  0  0  0  0
   33.2880   28.6240   34.0130 H   0  0  0  0  0  0  0  0  0  0  0  0
   31.6320   29.8230   35.3460 H   0  0  0  0  0  0  0  0  0  0  0  0
   32.0270   31.9110   36.9640 C   0  0  0  0  0  0  0  0  0  0  0  0
   32.4280   32.9060   37.2570 H   0  0  0  0  0  0  0  0  0  0  0  0
   31.0590   32.0100   36.4390 H   0  0  0  0  0  0  0  0  0  0  0  0
   31.8400   31.3650   37.9110 H   0  0  0  0  0  0  0  0  0  0  0  0
   34.7160   32.6340   36.9850 O   0  0  0  0  0  0  0  0  0  0  0  0
   34.7590   33.8480   36.3640 C   0  0  0  0  0  0  0  0  0  0  0  0
   35.9860   34.1800   36.1190 O   0  0  0  0  0  0  0  0  0  0  0  0
   33.7910   34.7630   35.9580 N   0  0  0  0  0  0  0  0  0  0  0  0
   33.1910   35.4970   35.5320 H   0  0  0  0  0  0  0  0  0  0  0  0
   33.9600   35.4290   35.1640 H   0  0  0  0  0  0  0  0  0  0  0  0
  1  9  1  0  0  0  0
  2  1  1  0  0  0  0
  2 28  1  0  0  0  0
  3  2  2  0  0  0  0
  4  5  2  0  0  0  0
  4  3  1  0  0  0  0
  5  6  1  0  0  0  0
  6  1  2  0  0  0  0
  7  3  1  0  0  0  0
  8  5  1  0  0  0  0
  9 12  1  6  0  0  0
  9 11  1  0  0  0  0
  9 10  1  0  0  0  0
 10 13  1  0  0  0  0
 11 10  1  0  0  0  0
 11 15  1  1  0  0  0
 14 10  1  0  0  0  0
 16 22  1  6  0  0  0
 16 21  1  0  0  0  0
 17 18  1  6  0  0  0
 17 11  1  0  0  0  0
 17 16  1  0  0  0  0
 18 19  1  0  0  0  0
 19 20  1  0  0  0  0
 20 24  1  6  0  0  0
 20 21  1  0  0  0  0
 21 26  1  1  0  0  0
 23 22  1  0  0  0  0
 24 25  1  0  0  0  0
 26 27  1  0  0  0  0
 28 29  1  0  0  0  0
 28 30  1  0  0  0  0
 31 28  1  0  0  0  0
 31 36  1  0  0  0  0
 32 31  1  0  0  0  0
 33 31  1  0  0  0  0
 35 34  1  0  0  0  0
 35 40  1  0  0  0  0
 36 37  1  0  0  0  0
 36 35  2  0  0  0  0
 37 38  2  0  0  0  0
 38 39  1  0  0  0  0
 39 43  1  0  0  0  0
 40 39  2  0  0  0  0
 40 47  1  0  0  0  0
 41 37  1  0  0  0  0
 42 38  1  0  0  0  0
 43 44  1  0  0  0  0
 43 46  1  0  0  0  0
 45 43  1  0  0  0  0
 48 47  1  0  0  0  0
 49 48  2  0  0  0  0
 50 48  1  0  0  0  0
 51 50  1  0  0  0  0
 52 50  1  0  0  0  0
M  END
>  <minimizedAffinity>
-6.51267576

$$$$

 OpenBabel03272508233D

 52 55  0  0  1  0  0  0  0  0999 V2000
   35.3990   30.4490   33.5480 C   0  0  0  0  0  0  0  0  0  0  0  0
   35.7670   29.1380   33.3750 C   0  0  0  0  0  0  0  0  0  0  0  0
   35.9140   28.7850   32.0840 C   0  0  0  0  0  0  0  0  0  0  0  0
   35.7210   29.6300   31.0690 N   0  0  0  0  0  0  0  0  0  0  0  0
   35.3660   30.8920   31.2300 C   0  0  0  0  0  0  0  0  0  0  0  0
   35.2000   31.3170   32.4810 N   0  0  0  0  0  0  0  0  0  0  0  0
   36.2090   27.7600   31.8040 H   0  0  0  0  0  0  0  0  0  0  0  0
   35.2020   31.5940   30.4430 H   0  0  0  0  0  0  0  0  0  0  0  0
   35.1770   31.0430   34.9100 C   0  0  1  0  0  0  0  0  0  0  0  0
   34.4120   32.2160   35.0820 C   0  0  0  0  0  0  0  0  0  0  0  0
   33.7410   30.8750   35.3840 C   0  0  1  0  0  0  0  0  0  0  0  0
   35.9440   30.7810   35.6670 H   0  0  0  0  0  0  0  0  0  0  0  0
   34.6280   32.9280   35.8820 H   0  0  0  0  0  0  0  0  0  0  0  0
   33.9630   32.7140   34.1760 H   0  0  0  0  0  0  0  0  0  0  0  0
   33.6100   30.7470   36.4960 H   0  0  0  0  0  0  0  0  0  0  0  0
   31.3940   31.1950   34.7900 C   0  0  2  0  0  3  0  0  0  0  0  0
   32.6580   30.3460   34.5720 C   0  0  2  0  0  3  0  0  0  0  0  0
   32.2870   29.0560   34.6650 O   0  0  0  0  0  0  0  0  0  0  0  0
   31.4870   28.6130   35.6440 C   0  0  0  0  0  2  0  0  0  0  0  0
   31.0320   29.5830   36.6760 C   0  0  2  0  0  3  0  0  0  0  0  0
   30.7880   30.9730   36.1460 C   0  0  1  0  0  3  0  0  0  0  0  0
   30.4870   30.7600   33.8220 O   0  0  0  0  0  0  0  0  0  0  0  0
   29.7930   30.1630   34.1550 H   0  0  0  0  0  0  0  0  0  0  0  0
   31.8980   29.5660   37.7710 O   0  0  0  0  0  0  0  0  0  0  0  0
   31.8410   30.4110   38.2930 H   0  0  0  0  0  0  0  0  0  0  0  0
   31.1950   31.9160   37.0930 O   0  0  0  0  0  0  0  0  0  0  0  0
   30.5950   32.6850   37.1700 H   0  0  0  0  0  0  0  0  0  0  0  0
   35.9680   28.2650   34.4940 C   0  0  0  0  0  0  0  0  0  0  0  0
   35.6900   28.8450   35.4250 H   0  0  0  0  0  0  0  0  0  0  0  0
   35.3050   27.3760   34.4970 H   0  0  0  0  0  0  0  0  0  0  0  0
   37.3690   27.8370   34.7440 C   0  0  0  0  0  0  0  0  0  0  0  0
   38.0000   28.4350   34.0180 H   0  0  0  0  0  0  0  0  0  0  0  0
   37.6480   28.2750   35.7250 H   0  0  0  0  0  0  0  0  0  0  0  0
   38.4000   26.4090   36.9010 F   0  0  0  0  0  0  0  0  0  0  0  0
   38.1940   25.8070   35.6790 C   0  0  0  0  0  0  0  0  0  0  0  0
   37.6660   26.4680   34.5630 C   0  0  0  0  0  0  0  0  0  0  0  0
   37.5350   25.7040   33.4770 C   0  0  0  0  0  0  0  0  0  0  0  0
   37.8730   24.3880   33.4040 C   0  0  0  0  0  0  0  0  0  0  0  0
   38.3990   23.7280   34.5110 C   0  0  0  0  0  0  0  0  0  0  0  0
   38.5350   24.4950   35.6170 C   0  0  0  0  0  0  0  0  0  0  0  0
   37.1240   26.1780   32.5710 H   0  0  0  0  0  0  0  0  0  0  0  0
   37.7380   23.8180   32.4750 H   0  0  0  0  0  0  0  0  0  0  0  0
   38.7620   22.3080   34.4260 C   0  0  0  0  0  0  0  0  0  0  0  0
   38.8400   21.8970   35.4560 H   0  0  0  0  0  0  0  0  0  0  0  0
   38.0580   21.7160   33.8130 H   0  0  0  0  0  0  0  0  0  0  0  0
   39.7700   22.2000   33.9760 H   0  0  0  0  0  0  0  0  0  0  0  0
   39.0890   23.8070   36.7500 O   0  0  0  0  0  0  0  0  0  0  0  0
   38.1820   23.3830   37.6770 C   0  0  0  0  0  0  0  0  0  0  0  0
   38.4020   23.9630   38.8130 O   0  0  0  0  0  0  0  0  0  0  0  0
   37.1130   22.4900   37.6490 N   0  0  0  0  0  0  0  0  0  0  0  0
   36.2490   21.9230   37.7640 H   0  0  0  0  0  0  0  0  0  0  0  0
   36.3010   22.5810   38.3080 H   0  0  0  0  0  0  0  0  0  0  0  0
  1  9  1  0  0  0  0
  2  1  1  0  0  0  0
  2 28  1  0  0  0  0
  3  2  2  0  0  0  0
  4  5  2  0  0  0  0
  4  3  1  0  0  0  0
  5  6  1  0  0  0  0
  6  1  2  0  0  0  0
  7  3  1  0  0  0  0
  8  5  1  0  0  0  0
  9 10  1  0  0  0  0
  9 11  1  0  0  0  0
  9 12  1  1  0  0  0
 10 11  1  0  0  0  0
 10 13  1  0  0  0  0
 11 15  1  1  0  0  0
 14 10  1  0  0  0  0
 16 22  1  6  0  0  0
 16 21  1  0  0  0  0
 17 18  1  1  0  0  0
 17 16  1  0  0  0  0
 17 11  1  0  0  0  0
 18 19  1  0  0  0  0
 19 20  1  0  0  0  0
 20 24  1  1  0  0  0
 21 20  1  0  0  0  0
 21 26  1  1  0  0  0
 22 23  1  0  0  0  0
 24 25  1  0  0  0  0
 26 27  1  0  0  0  0
 28 30  1  0  0  0  0
 28 31  1  0  0  0  0
 28 29  1  0  0  0  0
 31 33  1  0  0  0  0
 32 31  1  0  0  0  0
 35 34  1  0  0  0  0
 36 31  1  0  0  0  0
 36 35  2  0  0  0  0
 37 36  1  0  0  0  0
 38 37  2  0  0  0  0
 38 39  1  0  0  0  0
 39 40  2  0  0  0  0
 40 35  1  0  0  0  0
 40 47  1  0  0  0  0
 41 37  1  0  0  0  0
 42 38  1  0  0  0  0
 43 39  1  0  0  0  0
 43 44  1  0  0  0  0
 45 43  1  0  0  0  0
 46 43  1  0  0  0  0
 47 48  1  0  0  0  0
 48 49  2  0  0  0  0
 50 48  1  0  0  0  0
 50 51  1  0  0  0  0
 50 52  1  0  0  0  0
M  END
>  <minimizedAffinity>
-6.3325243

$$$$

 OpenBabel03272508233D

 52 55  0  0  1  0  0  0  0  0999 V2000
   39.7640   26.8460   34.0750 C   0  0  0  0  0  0  0  0  0  0  0  0
   39.1700   26.9330   32.8410 C   0  0  0  0  0  0  0  0  0  0  0  0
   40.0270   27.2420   31.8500 C   0  0  0  0  0  0  0  0  0  0  0  0
   41.3310   27.4450   32.0490 N   0  0  0  0  0  0  0  0  0  0  0  0
   41.9080   27.3640   33.2350 C   0  0  0  0  0  0  0  0  0  0  0  0
   41.1230   27.0610   34.2670 N   0  0  0  0  0  0  0  0  0  0  0  0
   39.6800   27.3420   30.8080 H   0  0  0  0  0  0  0  0  0  0  0  0
   42.9440   27.5200   33.4310 H   0  0  0  0  0  0  0  0  0  0  0  0
   38.9830   26.5170   35.3160 C   0  0  1  0  0  0  0  0  0  0  0  0
   37.9010   25.6130   35.2820 C   0  0  0  0  0  0  0  0  0  0  0  0
   39.2440   25.0990   35.8020 C   0  0  1  0  0  0  0  0  0  0  0  0
   39.0180   27.2900   36.1110 H   0  0  0  0  0  0  0  0  0  0  0  0
   37.0440   25.7210   35.9520 H   0  0  0  0  0  0  0  0  0  0  0  0
   37.6190   25.1320   34.3030 H   0  0  0  0  0  0  0  0  0  0  0  0
   39.2000   24.9540   36.9190 H   0  0  0  0  0  0  0  0  0  0  0  0
   39.2010   22.8260   34.9130 C   0  0  2  0  0  3  0  0  0  0  0  0
   40.0300   24.1100   35.0830 C   0  0  2  0  0  3  0  0  0  0  0  0
   41.2460   23.7380   35.5220 O   0  0  0  0  0  0  0  0  0  0  0  0
   41.4070   22.8430   36.5060 C   0  0  0  0  0  2  0  0  0  0  0  0
   40.1910   22.2770   37.1500 C   0  0  2  0  0  3  0  0  0  0  0  0
   39.0310   22.0830   36.2070 C   0  0  1  0  0  3  0  0  0  0  0  0
   39.9370   22.0270   34.0360 O   0  0  0  0  0  0  0  0  0  0  0  0
   40.4330   21.3050   34.4620 H   0  0  0  0  0  0  0  0  0  0  0  0
   39.8500   23.0240   38.2790 O   0  0  0  0  0  0  0  0  0  0  0  0
   38.8910   22.9100   38.5160 H   0  0  0  0  0  0  0  0  0  0  0  0
   37.8360   22.3830   36.8630 O   0  0  0  0  0  0  0  0  0  0  0  0
   37.1000   21.7750   36.6470 H   0  0  0  0  0  0  0  0  0  0  0  0
   37.7660   26.7030   32.6710 C   0  0  0  0  0  0  0  0  0  0  0  0
   37.6530   25.8140   31.9780 H   0  0  0  0  0  0  0  0  0  0  0  0
   37.2400   26.4110   33.6030 H   0  0  0  0  0  0  0  0  0  0  0  0
   37.0030   27.7840   31.9930 C   0  0  0  0  0  0  0  0  0  0  0  0
   37.7760   28.3800   31.4180 H   0  0  0  0  0  0  0  0  0  0  0  0
   36.4290   27.2870   31.1840 H   0  0  0  0  0  0  0  0  0  0  0  0
   35.3710   29.6830   30.7760 F   0  0  0  0  0  0  0  0  0  0  0  0
   35.4890   29.6170   32.1470 C   0  0  0  0  0  0  0  0  0  0  0  0
   36.2820   28.6760   32.8160 C   0  0  0  0  0  0  0  0  0  0  0  0
   36.2510   28.7730   34.1470 C   0  0  0  0  0  0  0  0  0  0  0  0
   35.5300   29.6910   34.8460 C   0  0  0  0  0  0  0  0  0  0  0  0
   34.7420   30.6280   34.1830 C   0  0  0  0  0  0  0  0  0  0  0  0
   34.7670   30.5370   32.8330 C   0  0  0  0  0  0  0  0  0  0  0  0
   36.8590   28.0550   34.7210 H   0  0  0  0  0  0  0  0  0  0  0  0
   35.5520   29.7140   35.9430 H   0  0  0  0  0  0  0  0  0  0  0  0
   33.9670   31.6170   34.9430 C   0  0  0  0  0  0  0  0  0  0  0  0
   33.1760   32.0350   34.2810 H   0  0  0  0  0  0  0  0  0  0  0  0
   33.5320   31.2060   35.8720 H   0  0  0  0  0  0  0  0  0  0  0  0
   34.6140   32.4720   35.2250 H   0  0  0  0  0  0  0  0  0  0  0  0
   33.9590   31.5160   32.1600 O   0  0  0  0  0  0  0  0  0  0  0  0
   32.7480   31.0690   31.7170 C   0  0  0  0  0  0  0  0  0  0  0  0
   32.4510   31.6310   30.5890 O   0  0  0  0  0  0  0  0  0  0  0  0
   31.8070   30.1690   32.2110 N   0  0  0  0  0  0  0  0  0  0  0  0
   31.0570   29.4760   32.4070 H   0  0  0  0  0  0  0  0  0  0  0  0
   31.1480   29.6550   31.5760 H   0  0  0  0  0  0  0  0  0  0  0  0
  1  6  1  0  0  0  0
  1  9  1  0  0  0  0
  2  1  2  0  0  0  0
  3  4  2  0  0  0  0
  3  2  1  0  0  0  0
  4  5  1  0  0  0  0
  5  8  1  0  0  0  0
  5  6  2  0  0  0  0
  7  3  1  0  0  0  0
  9 11  1  0  0  0  0
  9 12  1  1  0  0  0
 10  9  1  0  0  0  0
 10 11  1  0  0  0  0
 10 13  1  0  0  0  0
 11 15  1  1  0  0  0
 14 10  1  0  0  0  0
 16 22  1  6  0  0  0
 16 17  1  0  0  0  0
 16 21  1  0  0  0  0
 17 18  1  1  0  0  0
 17 11  1  0  0  0  0
 18 19  1  0  0  0  0
 19 20  1  0  0  0  0
 20 24  1  1  0  0  0
 21 26  1  1  0  0  0
 21 20  1  0  0  0  0
 22 23  1  0  0  0  0
 24 25  1  0  0  0  0
 27 26  1  0  0  0  0
 28  2  1  0  0  0  0
 28 30  1  0  0  0  0
 29 28  1  0  0  0  0
 31 28  1  0  0  0  0
 31 36  1  0  0  0  0
 32 31  1  0  0  0  0
 33 31  1  0  0  0  0
 34 35  1  0  0  0  0
 35 36  2  0  0  0  0
 35 40  1  0  0  0  0
 36 37  1  0  0  0  0
 37 41  1  0  0  0  0
 37 38  2  0  0  0  0
 38 42  1  0  0  0  0
 39 38  1  0  0  0  0
 39 43  1  0  0  0  0
 40 39  2  0  0  0  0
 43 46  1  0  0  0  0
 43 45  1  0  0  0  0
 44 43  1  0  0  0  0
 47 40  1  0  0  0  0
 48 47  1  0  0  0  0
 48 50  1  0  0  0  0
 49 48  2  0  0  0  0
 50 51  1  0  0  0  0
 52 50  1  0  0  0  0
M  END
>  <minimizedAffinity>
-6.23629951

$$$$

 OpenBabel03272508233D

 52 55  0  0  1  0  0  0  0  0999 V2000
   35.7760   29.9060   33.6630 C   0  0  0  0  0  0  0  0  0  0  0  0
   36.1600   28.5890   33.6310 C   0  0  0  0  0  0  0  0  0  0  0  0
   36.2450   28.0810   32.3870 C   0  0  0  0  0  0  0  0  0  0  0  0
   35.9800   28.7920   31.2890 N   0  0  0  0  0  0  0  0  0  0  0  0
   35.6080   30.0600   31.3140 C   0  0  0  0  0  0  0  0  0  0  0  0
   35.5020   30.6330   32.5110 N   0  0  0  0  0  0  0  0  0  0  0  0
   36.5450   27.0340   32.2180 H   0  0  0  0  0  0  0  0  0  0  0  0
   35.3880   30.6570   30.4580 H   0  0  0  0  0  0  0  0  0  0  0  0
   35.6150   30.6590   34.9530 C   0  0  1  0  0  0  0  0  0  0  0  0
   35.0350   31.9450   34.9830 C   0  0  0  0  0  0  0  0  0  0  0  0
   34.1590   30.7580   35.3850 C   0  0  1  0  0  0  0  0  0  0  0  0
   36.3150   30.3620   35.7600 H   0  0  0  0  0  0  0  0  0  0  0  0
   35.3390   32.6930   35.7190 H   0  0  0  0  0  0  0  0  0  0  0  0
   34.6900   32.4130   34.0170 H   0  0  0  0  0  0  0  0  0  0  0  0
   33.9830   30.7640   36.4980 H   0  0  0  0  0  0  0  0  0  0  0  0
   31.8960   31.3560   34.6900 C   0  0  2  0  0  3  0  0  0  0  0  0
   33.0270   30.3200   34.5840 C   0  0  2  0  0  3  0  0  0  0  0  0
   32.4720   29.1090   34.7730 O   0  0  0  0  0  0  0  0  0  0  0  0
   31.5970   28.8720   35.7600 C   0  0  0  0  0  2  0  0  0  0  0  0
   31.2660   29.9830   36.6920 C   0  0  2  0  0  3  0  0  0  0  0  0
   31.2370   31.3420   36.0400 C   0  0  1  0  0  3  0  0  0  0  0  0
   30.9550   30.9720   33.7330 O   0  0  0  0  0  0  0  0  0  0  0  0
   30.1750   30.5110   34.0920 H   0  0  0  0  0  0  0  0  0  0  0  0
   32.0990   29.9390   37.8110 O   0  0  0  0  0  0  0  0  0  0  0  0
   32.1550   30.8250   38.2590 H   0  0  0  0  0  0  0  0  0  0  0  0
   31.7570   32.2960   36.9170 O   0  0  0  0  0  0  0  0  0  0  0  0
   31.2740   33.1470   36.9100 H   0  0  0  0  0  0  0  0  0  0  0  0
   36.4400   27.8630   34.8350 C   0  0  0  0  0  0  0  0  0  0  0  0
   35.8620   28.3650   35.6700 H   0  0  0  0  0  0  0  0  0  0  0  0
   36.0790   26.8140   34.8230 H   0  0  0  0  0  0  0  0  0  0  0  0
   37.8490   27.8950   35.3050 C   0  0  0  0  0  0  0  0  0  0  0  0
   38.4050   28.5210   34.5430 H   0  0  0  0  0  0  0  0  0  0  0  0
   37.8530   28.5460   36.2040 H   0  0  0  0  0  0  0  0  0  0  0  0
   40.2460   27.5380   33.9330 F   0  0  0  0  0  0  0  0  0  0  0  0
   39.7080   26.5310   34.7040 C   0  0  0  0  0  0  0  0  0  0  0  0
   38.5150   26.6550   35.4270 C   0  0  0  0  0  0  0  0  0  0  0  0
   38.1710   25.5670   36.1190 C   0  0  0  0  0  0  0  0  0  0  0  0
   38.8810   24.4070   36.1520 C   0  0  0  0  0  0  0  0  0  0  0  0
   40.0670   24.2800   35.4340 C   0  0  0  0  0  0  0  0  0  0  0  0
   40.4230   25.3790   34.7290 C   0  0  0  0  0  0  0  0  0  0  0  0
   37.2390   25.6140   36.7060 H   0  0  0  0  0  0  0  0  0  0  0  0
   38.5380   23.5490   36.7450 H   0  0  0  0  0  0  0  0  0  0  0  0
   40.8280   23.0260   35.4730 C   0  0  0  0  0  0  0  0  0  0  0  0
   41.8660   23.2270   35.1280 H   0  0  0  0  0  0  0  0  0  0  0  0
   40.8260   22.5480   36.4700 H   0  0  0  0  0  0  0  0  0  0  0  0
   40.4010   22.2990   34.7530 H   0  0  0  0  0  0  0  0  0  0  0  0
   41.6420   25.2330   33.9830 O   0  0  0  0  0  0  0  0  0  0  0  0
   42.7380   25.8330   34.5290 C   0  0  0  0  0  0  0  0  0  0  0  0
   43.1970   26.7390   33.7260 O   0  0  0  0  0  0  0  0  0  0  0  0
   43.4340   25.6760   35.7260 N   0  0  0  0  0  0  0  0  0  0  0  0
   44.0010   25.7310   36.5950 H   0  0  0  0  0  0  0  0  0  0  0  0
   43.9850   26.4610   36.1510 H   0  0  0  0  0  0  0  0  0  0  0  0
  1  9  1  0  0  0  0
  2  1  1  0  0  0  0
  2 28  1  0  0  0  0
  3  2  2  0  0  0  0
  4  5  2  0  0  0  0
  4  3  1  0  0  0  0
  5  6  1  0  0  0  0
  6  1  2  0  0  0  0
  7  3  1  0  0  0  0
  8  5  1  0  0  0  0
  9 10  1  0  0  0  0
  9 11  1  0  0  0  0
  9 12  1  1  0  0  0
 10 11  1  0  0  0  0
 10 13  1  0  0  0  0
 11 15  1  1  0  0  0
 14 10  1  0  0  0  0
 16 22  1  6  0  0  0
 16 21  1  0  0  0  0
 17 16  1  0  0  0  0
 17 18  1  1  0  0  0
 17 11  1  0  0  0  0
 18 19  1  0  0  0  0
 19 20  1  0  0  0  0
 20 24  1  1  0  0  0
 21 20  1  0  0  0  0
 21 26  1  1  0  0  0
 22 23  1  0  0  0  0
 24 25  1  0  0  0  0
 27 26  1  0  0  0  0
 28 31  1  0  0  0  0
 28 29  1  0  0  0  0
 30 28  1  0  0  0  0
 31 36  1  0  0  0  0
 31 33  1  0  0  0  0
 32 31  1  0  0  0  0
 34 35  1  0  0  0  0
 35 40  2  0  0  0  0
 35 36  1  0  0  0  0
 36 37  2  0  0  0  0
 37 38  1  0  0  0  0
 37 41  1  0  0  0  0
 38 42  1  0  0  0  0
 39 43  1  0  0  0  0
 39 38  2  0  0  0  0
 40 39  1  0  0  0  0
 43 45  1  0  0  0  0
 44 43  1  0  0  0  0
 46 43  1  0  0  0  0
 47 48  1  0  0  0  0
 47 40  1  0  0  0  0
 48 50  1  0  0  0  0
 49 48  2  0  0  0  0
 50 52  1  0  0  0  0
 50 51  1  0  0  0  0
M  END
>  <minimizedAffinity>
-6.19111967

$$$$

 OpenBabel03272508233D

 52 55  0  0  1  0  0  0  0  0999 V2000
   38.2650   26.6850   33.2260 C   0  0  0  0  0  0  0  0  0  0  0  0
   37.0690   27.3550   33.3050 C   0  0  0  0  0  0  0  0  0  0  0  0
   36.2740   27.1680   32.2350 C   0  0  0  0  0  0  0  0  0  0  0  0
   36.6160   26.4040   31.1960 N   0  0  0  0  0  0  0  0  0  0  0  0
   37.7650   25.7580   31.1130 C   0  0  0  0  0  0  0  0  0  0  0  0
   38.6070   25.8940   32.1360 N   0  0  0  0  0  0  0  0  0  0  0  0
   35.2830   27.6480   32.1710 H   0  0  0  0  0  0  0  0  0  0  0  0
   38.0710   25.1410   30.2990 H   0  0  0  0  0  0  0  0  0  0  0  0
   39.2990   26.7650   34.3120 C   0  0  1  0  0  0  0  0  0  0  0  0
   38.9360   27.0220   35.6510 C   0  0  0  0  0  0  0  0  0  0  0  0
   39.2350   25.5740   35.2580 C   0  0  1  0  0  0  0  0  0  0  0  0
   40.3210   27.0250   33.9690 H   0  0  0  0  0  0  0  0  0  0  0  0
   39.5980   27.5660   36.3290 H   0  0  0  0  0  0  0  0  0  0  0  0
   37.8480   27.1710   35.9050 H   0  0  0  0  0  0  0  0  0  0  0  0
   40.2210   25.2480   35.6930 H   0  0  0  0  0  0  0  0  0  0  0  0
   38.3990   23.5940   36.4170 C   0  0  2  0  0  3  0  0  0  0  0  0
   38.2050   24.5490   35.2260 C   0  0  2  0  0  3  0  0  0  0  0  0
   38.0210   23.7840   34.1340 O   0  0  0  0  0  0  0  0  0  0  0  0
   38.7930   22.7210   33.8700 C   0  0  0  0  0  2  0  0  0  0  0  0
   39.9090   22.4100   34.8030 C   0  0  2  0  0  3  0  0  0  0  0  0
   39.6030   22.7130   36.2480 C   0  0  1  0  0  3  0  0  0  0  0  0
   37.2580   22.7900   36.4330 O   0  0  0  0  0  0  0  0  0  0  0  0
   37.3860   21.8970   36.0680 H   0  0  0  0  0  0  0  0  0  0  0  0
   41.0890   23.0120   34.3630 O   0  0  0  0  0  0  0  0  0  0  0  0
   41.7380   23.1270   35.1080 H   0  0  0  0  0  0  0  0  0  0  0  0
   40.7450   23.2120   36.8760 O   0  0  0  0  0  0  0  0  0  0  0  0
   40.8750   22.8790   37.7870 H   0  0  0  0  0  0  0  0  0  0  0  0
   36.7400   28.1620   34.4420 C   0  0  0  0  0  0  0  0  0  0  0  0
   36.5220   27.4580   35.3020 H   0  0  0  0  0  0  0  0  0  0  0  0
   37.5740   28.8020   34.7980 H   0  0  0  0  0  0  0  0  0  0  0  0
   35.5050   28.9810   34.3280 C   0  0  0  0  0  0  0  0  0  0  0  0
   34.8770   28.4670   33.5390 H   0  0  0  0  0  0  0  0  0  0  0  0
   34.9300   28.7910   35.2580 H   0  0  0  0  0  0  0  0  0  0  0  0
   35.9440   30.8650   36.3310 F   0  0  0  0  0  0  0  0  0  0  0  0
   35.8660   31.2360   35.0060 C   0  0  0  0  0  0  0  0  0  0  0  0
   35.6620   30.3340   33.9550 C   0  0  0  0  0  0  0  0  0  0  0  0
   35.6280   30.8940   32.7440 C   0  0  0  0  0  0  0  0  0  0  0  0
   35.7720   32.2240   32.4950 C   0  0  0  0  0  0  0  0  0  0  0  0
   35.9750   33.1230   33.5390 C   0  0  0  0  0  0  0  0  0  0  0  0
   36.0100   32.5640   34.7700 C   0  0  0  0  0  0  0  0  0  0  0  0
   35.4690   30.2260   31.8810 H   0  0  0  0  0  0  0  0  0  0  0  0
   35.7330   32.6170   31.4710 H   0  0  0  0  0  0  0  0  0  0  0  0
   36.1290   34.5570   33.2640 C   0  0  0  0  0  0  0  0  0  0  0  0
   36.5990   35.0410   34.1480 H   0  0  0  0  0  0  0  0  0  0  0  0
   36.7050   34.7630   32.3430 H   0  0  0  0  0  0  0  0  0  0  0  0
   35.1330   35.0310   33.1480 H   0  0  0  0  0  0  0  0  0  0  0  0
   36.2090   33.5020   35.8400 O   0  0  0  0  0  0  0  0  0  0  0  0
   35.0990   33.7930   36.5770 C   0  0  0  0  0  0  0  0  0  0  0  0
   34.6430   34.9610   36.2550 O   0  0  0  0  0  0  0  0  0  0  0  0
   34.3850   33.1160   37.5640 N   0  0  0  0  0  0  0  0  0  0  0  0
   33.7130   32.7090   38.2440 H   0  0  0  0  0  0  0  0  0  0  0  0
   33.3650   33.2970   37.7300 H   0  0  0  0  0  0  0  0  0  0  0  0
  1  2  1  0  0  0  0
  1  9  1  0  0  0  0
  2 28  1  0  0  0  0
  3  2  2  0  0  0  0
  4  3  1  0  0  0  0
  5  4  2  0  0  0  0
  5  6  1  0  0  0  0
  6  1  2  0  0  0  0
  7  3  1  0  0  0  0
  8  5  1  0  0  0  0
  9 12  1  6  0  0  0
  9 11  1  0  0  0  0
  9 10  1  0  0  0  0
 10 14  1  0  0  0  0
 10 13  1  0  0  0  0
 11 10  1  0  0  0  0
 11 15  1  1  0  0  0
 16 22  1  6  0  0  0
 17 18  1  6  0  0  0
 17 11  1  0  0  0  0
 17 16  1  0  0  0  0
 19 18  1  0  0  0  0
 19 20  1  0  0  0  0
 20 24  1  6  0  0  0
 20 21  1  0  0  0  0
 21 16  1  0  0  0  0
 21 26  1  6  0  0  0
 23 22  1  0  0  0  0
 24 25  1  0  0  0  0
 26 27  1  0  0  0  0
 28 30  1  0  0  0  0
 28 29  1  0  0  0  0
 31 28  1  0  0  0  0
 31 33  1  0  0  0  0
 32 31  1  0  0  0  0
 35 34  1  0  0  0  0
 36 31  1  0  0  0  0
 36 35  2  0  0  0  0
 37 36  1  0  0  0  0
 38 37  2  0  0  0  0
 38 39  1  0  0  0  0
 39 40  2  0  0  0  0
 40 35  1  0  0  0  0
 40 47  1  0  0  0  0
 41 37  1  0  0  0  0
 42 38  1  0  0  0  0
 43 39  1  0  0  0  0
 43 44  1  0  0  0  0
 45 43  1  0  0  0  0
 46 43  1  0  0  0  0
 47 48  1  0  0  0  0
 48 50  1  0  0  0  0
 49 48  2  0  0  0  0
 50 52  1  0  0  0  0
 50 51  1  0  0  0  0
M  END
>  <minimizedAffinity>
-6.13744688

$$$$

 OpenBabel03272508233D

 52 55  0  0  1  0  0  0  0  0999 V2000
   36.5680   27.8250   31.0440 C   0  0  0  0  0  0  0  0  0  0  0  0
   36.1580   29.0480   31.5140 C   0  0  0  0  0  0  0  0  0  0  0  0
   36.7180   30.0890   30.8720 C   0  0  0  0  0  0  0  0  0  0  0  0
   37.5910   29.9460   29.8720 N   0  0  0  0  0  0  0  0  0  0  0  0
   37.9900   28.7730   29.4160 C   0  0  0  0  0  0  0  0  0  0  0  0
   37.4780   27.6920   30.0020 N   0  0  0  0  0  0  0  0  0  0  0  0
   36.4740   31.1280   31.1500 H   0  0  0  0  0  0  0  0  0  0  0  0
   38.6850   28.6210   28.6210 H   0  0  0  0  0  0  0  0  0  0  0  0
   36.0660   26.5350   31.6280 C   0  0  1  0  0  0  0  0  0  0  0  0
   36.5680   25.2900   31.1940 C   0  0  0  0  0  0  0  0  0  0  0  0
   37.1060   25.8580   32.5090 C   0  0  1  0  0  0  0  0  0  0  0  0
   35.0500   26.5850   32.0700 H   0  0  0  0  0  0  0  0  0  0  0  0
   35.9440   24.3940   31.1840 H   0  0  0  0  0  0  0  0  0  0  0  0
   37.3600   25.2690   30.3930 H   0  0  0  0  0  0  0  0  0  0  0  0
   36.6950   25.2750   33.3810 H   0  0  0  0  0  0  0  0  0  0  0  0
   39.3740   25.1030   33.0030 C   0  0  2  0  0  3  0  0  0  0  0  0
   38.4810   26.3060   32.6580 C   0  0  2  0  0  3  0  0  0  0  0  0
   38.7990   27.2920   33.5160 O   0  0  0  0  0  0  0  0  0  0  0  0
   38.9480   27.0750   34.8300 C   0  0  0  0  0  2  0  0  0  0  0  0
   38.7150   25.7000   35.3480 C   0  0  2  0  0  3  0  0  0  0  0  0
   39.1440   24.6070   34.4020 C   0  0  1  0  0  3  0  0  0  0  0  0
   40.6830   25.5790   32.9110 O   0  0  0  0  0  0  0  0  0  0  0  0
   41.1070   25.7710   33.7660 H   0  0  0  0  0  0  0  0  0  0  0  0
   37.3920   25.5600   35.7700 O   0  0  0  0  0  0  0  0  0  0  0  0
   37.1120   24.6060   35.7820 H   0  0  0  0  0  0  0  0  0  0  0  0
   38.2410   23.5450   34.4690 O   0  0  0  0  0  0  0  0  0  0  0  0
   38.6620   22.6620   34.4370 H   0  0  0  0  0  0  0  0  0  0  0  0
   35.2150   29.1560   32.5880 C   0  0  0  0  0  0  0  0  0  0  0  0
   34.7150   30.1680   32.4950 H   0  0  0  0  0  0  0  0  0  0  0  0
   34.3870   28.4190   32.5370 H   0  0  0  0  0  0  0  0  0  0  0  0
   35.7850   29.1630   33.9610 C   0  0  0  0  0  0  0  0  0  0  0  0
   35.5190   28.1540   34.4010 H   0  0  0  0  0  0  0  0  0  0  0  0
   36.8850   29.0890   33.8310 H   0  0  0  0  0  0  0  0  0  0  0  0
   33.0480   29.3580   34.4310 F   0  0  0  0  0  0  0  0  0  0  0  0
   33.9380   30.2230   35.0290 C   0  0  0  0  0  0  0  0  0  0  0  0
   35.3250   30.1650   34.8430 C   0  0  0  0  0  0  0  0  0  0  0  0
   36.0130   31.0860   35.5210 C   0  0  0  0  0  0  0  0  0  0  0  0
   35.4640   32.0270   36.3360 C   0  0  0  0  0  0  0  0  0  0  0  0
   34.0850   32.0870   36.5230 C   0  0  0  0  0  0  0  0  0  0  0  0
   33.3800   31.1560   35.8390 C   0  0  0  0  0  0  0  0  0  0  0  0
   37.1100   31.0840   35.4080 H   0  0  0  0  0  0  0  0  0  0  0  0
   36.0920   32.7560   36.8650 H   0  0  0  0  0  0  0  0  0  0  0  0
   33.4990   33.1040   37.4030 C   0  0  0  0  0  0  0  0  0  0  0  0
   32.4680   32.7880   37.6760 H   0  0  0  0  0  0  0  0  0  0  0  0
   34.1070   33.3000   38.3050 H   0  0  0  0  0  0  0  0  0  0  0  0
   33.3910   34.0630   36.8570 H   0  0  0  0  0  0  0  0  0  0  0  0
   31.9580   31.2340   36.0310 O   0  0  0  0  0  0  0  0  0  0  0  0
   31.4160   30.2450   36.7980 C   0  0  0  0  0  0  0  0  0  0  0  0
   30.2510   29.9140   36.3410 O   0  0  0  0  0  0  0  0  0  0  0  0
   31.8440   29.5490   37.9270 N   0  0  0  0  0  0  0  0  0  0  0  0
   32.0550   28.8980   38.7090 H   0  0  0  0  0  0  0  0  0  0  0  0
   31.5010   28.5810   38.1410 H   0  0  0  0  0  0  0  0  0  0  0  0
  1  2  1  0  0  0  0
  1  9  1  0  0  0  0
  2 28  1  0  0  0  0
  3  7  1  0  0  0  0
  3  2  2  0  0  0  0
  4  3  1  0  0  0  0
  5  4  2  0  0  0  0
  5  6  1  0  0  0  0
  6  1  2  0  0  0  0
  8  5  1  0  0  0  0
  9 12  1  1  0  0  0
  9 11  1  0  0  0  0
 10  9  1  0  0  0  0
 10 11  1  0  0  0  0
 11 17  1  0  0  0  0
 11 15  1  1  0  0  0
 13 10  1  0  0  0  0
 14 10  1  0  0  0  0
 16 22  1  1  0  0  0
 16 21  1  0  0  0  0
 17 16  1  0  0  0  0
 17 18  1  1  0  0  0
 18 19  1  0  0  0  0
 19 20  1  0  0  0  0
 20 24  1  6  0  0  0
 21 26  1  6  0  0  0
 21 20  1  0  0  0  0
 22 23  1  0  0  0  0
 24 25  1  0  0  0  0
 27 26  1  0  0  0  0
 28 31  1  0  0  0  0
 29 28  1  0  0  0  0
 30 28  1  0  0  0  0
 31 32  1  0  0  0  0
 31 36  1  0  0  0  0
 33 31  1  0  0  0  0
 34 35  1  0  0  0  0
 35 40  1  0  0  0  0
 36 35  2  0  0  0  0
 36 37  1  0  0  0  0
 37 38  2  0  0  0  0
 38 39  1  0  0  0  0
 38 42  1  0  0  0  0
 39 43  1  0  0  0  0
 40 47  1  0  0  0  0
 40 39  2  0  0  0  0
 41 37  1  0  0  0  0
 43 44  1  0  0  0  0
 43 45  1  0  0  0  0
 46 43  1  0  0  0  0
 47 48  1  0  0  0  0
 48 50  1  0  0  0  0
 49 48  2  0  0  0  0
 50 52  1  0  0  0  0
 50 51  1  0  0  0  0
M  END
>  <minimizedAffinity>
-6.12727213

$$$$

 OpenBabel03272508233D

 52 55  0  0  1  0  0  0  0  0999 V2000
   39.4170   26.8850   34.0980 C   0  0  0  0  0  0  0  0  0  0  0  0
   38.7510   26.8950   32.8970 C   0  0  0  0  0  0  0  0  0  0  0  0
   39.5360   27.1990   31.8470 C   0  0  0  0  0  0  0  0  0  0  0  0
   40.8380   27.4660   31.9620 N   0  0  0  0  0  0  0  0  0  0  0  0
   41.4840   27.4600   33.1140 C   0  0  0  0  0  0  0  0  0  0  0  0
   40.7740   27.1670   34.2010 N   0  0  0  0  0  0  0  0  0  0  0  0
   39.1270   27.2400   30.8230 H   0  0  0  0  0  0  0  0  0  0  0  0
   42.5220   27.6690   33.2430 H   0  0  0  0  0  0  0  0  0  0  0  0
   38.7230   26.5750   35.3930 C   0  0  1  0  0  0  0  0  0  0  0  0
   37.6370   25.6770   35.4460 C   0  0  0  0  0  0  0  0  0  0  0  0
   39.0110   25.1620   35.8780 C   0  0  1  0  0  0  0  0  0  0  0  0
   38.8180   27.3570   36.1750 H   0  0  0  0  0  0  0  0  0  0  0  0
   36.8300   25.7970   36.1730 H   0  0  0  0  0  0  0  0  0  0  0  0
   37.2850   25.1870   34.4950 H   0  0  0  0  0  0  0  0  0  0  0  0
   39.0440   25.0300   36.9960 H   0  0  0  0  0  0  0  0  0  0  0  0
   38.8960   22.8770   35.0250 C   0  0  2  0  0  3  0  0  0  0  0  0
   39.7390   24.1600   35.1170 C   0  0  2  0  0  3  0  0  0  0  0  0
   40.9830   23.7890   35.4720 O   0  0  0  0  0  0  0  0  0  0  0  0
   41.2120   22.9070   36.4540 C   0  0  0  0  0  2  0  0  0  0  0  0
   40.0440   22.3550   37.1920 C   0  0  2  0  0  3  0  0  0  0  0  0
   38.8180   22.1520   36.3380 C   0  0  1  0  0  3  0  0  0  0  0  0
   39.5650   22.0630   34.1080 O   0  0  0  0  0  0  0  0  0  0  0  0
   40.0880   21.3460   34.5080 H   0  0  0  0  0  0  0  0  0  0  0  0
   39.7880   23.1180   38.3320 O   0  0  0  0  0  0  0  0  0  0  0  0
   38.8480   23.0110   38.6390 H   0  0  0  0  0  0  0  0  0  0  0  0
   37.6750   22.4660   37.0740 O   0  0  0  0  0  0  0  0  0  0  0  0
   36.9240   21.8580   36.9200 H   0  0  0  0  0  0  0  0  0  0  0  0
   37.3510   26.5970   32.8180 C   0  0  0  0  0  0  0  0  0  0  0  0
   37.2410   25.6750   32.1700 H   0  0  0  0  0  0  0  0  0  0  0  0
   36.8930   26.3240   33.7900 H   0  0  0  0  0  0  0  0  0  0  0  0
   36.5040   27.6130   32.1410 C   0  0  0  0  0  0  0  0  0  0  0  0
   37.0980   27.9430   31.2350 H   0  0  0  0  0  0  0  0  0  0  0  0
   35.6620   27.0500   31.6880 H   0  0  0  0  0  0  0  0  0  0  0  0
   36.2850   30.0430   30.7990 F   0  0  0  0  0  0  0  0  0  0  0  0
   36.0790   29.9570   32.1590 C   0  0  0  0  0  0  0  0  0  0  0  0
   36.1600   28.7630   32.8860 C   0  0  0  0  0  0  0  0  0  0  0  0
   35.9150   28.8920   34.1910 C   0  0  0  0  0  0  0  0  0  0  0  0
   35.6090   30.0610   34.8160 C   0  0  0  0  0  0  0  0  0  0  0  0
   35.5280   31.2500   34.0950 C   0  0  0  0  0  0  0  0  0  0  0  0
   35.7750   31.1290   32.7710 C   0  0  0  0  0  0  0  0  0  0  0  0
   35.9660   27.9800   34.8090 H   0  0  0  0  0  0  0  0  0  0  0  0
   35.4180   30.0950   35.8960 H   0  0  0  0  0  0  0  0  0  0  0  0
   35.1980   32.5090   34.7750 C   0  0  0  0  0  0  0  0  0  0  0  0
   34.8620   33.2470   34.0150 H   0  0  0  0  0  0  0  0  0  0  0  0
   34.4420   32.3860   35.5720 H   0  0  0  0  0  0  0  0  0  0  0  0
   36.1080   32.9400   35.2400 H   0  0  0  0  0  0  0  0  0  0  0  0
   35.7000   32.3630   32.0400 O   0  0  0  0  0  0  0  0  0  0  0  0
   36.8960   32.8790   31.6380 C   0  0  0  0  0  0  0  0  0  0  0  0
   37.3730   33.6640   32.5500 O   0  0  0  0  0  0  0  0  0  0  0  0
   37.6770   32.7390   30.4920 N   0  0  0  0  0  0  0  0  0  0  0  0
   38.3980   32.6750   29.7460 H   0  0  0  0  0  0  0  0  0  0  0  0
   38.7170   32.8770   30.5130 H   0  0  0  0  0  0  0  0  0  0  0  0
  1  6  1  0  0  0  0
  1  9  1  0  0  0  0
  2  1  2  0  0  0  0
  3  4  2  0  0  0  0
  3  2  1  0  0  0  0
  4  5  1  0  0  0  0
  5  8  1  0  0  0  0
  5  6  2  0  0  0  0
  7  3  1  0  0  0  0
  9 10  1  0  0  0  0
  9 11  1  0  0  0  0
  9 12  1  1  0  0  0
 10 11  1  0  0  0  0
 10 13  1  0  0  0  0
 11 15  1  1  0  0  0
 14 10  1  0  0  0  0
 16 22  1  6  0  0  0
 16 17  1  0  0  0  0
 16 21  1  0  0  0  0
 17 18  1  1  0  0  0
 17 11  1  0  0  0  0
 18 19  1  0  0  0  0
 19 20  1  0  0  0  0
 20 24  1  1  0  0  0
 21 26  1  1  0  0  0
 21 20  1  0  0  0  0
 22 23  1  0  0  0  0
 24 25  1  0  0  0  0
 27 26  1  0  0  0  0
 28  2  1  0  0  0  0
 28 30  1  0  0  0  0
 29 28  1  0  0  0  0
 31 28  1  0  0  0  0
 31 36  1  0  0  0  0
 32 31  1  0  0  0  0
 33 31  1  0  0  0  0
 34 35  1  0  0  0  0
 35 40  2  0  0  0  0
 35 36  1  0  0  0  0
 36 37  2  0  0  0  0
 37 41  1  0  0  0  0
 37 38  1  0  0  0  0
 38 42  1  0  0  0  0
 39 43  1  0  0  0  0
 39 38  2  0  0  0  0
 40 39  1  0  0  0  0
 43 46  1  0  0  0  0
 43 45  1  0  0  0  0
 44 43  1  0  0  0  0
 47 40  1  0  0  0  0
 48 47  1  0  0  0  0
 48 49  2  0  0  0  0
 50 52  1  0  0  0  0
 50 48  1  0  0  0  0
 51 50  1  0  0  0  0
M  END
>  <minimizedAffinity>
-6.10019207

$$$$
