
 OpenBabel03272509083D

 43 46  0  0  1  0  0  0  0  0999 V2000
   33.3560   26.9140   47.3660 C   0  0  0  0  0  0  0  0  0  0  0  0
   33.5260   25.5440   47.5430 C   0  0  0  0  0  0  0  0  0  0  0  0
   33.9050   24.7300   46.4970 C   0  0  0  0  0  0  0  0  0  0  0  0
   34.1310   25.2390   45.2350 C   0  0  0  0  0  0  0  0  0  0  0  0
   33.9680   26.5710   45.0560 C   0  0  0  0  0  0  0  0  0  0  0  0
   33.5890   27.4180   46.0830 C   0  0  0  0  0  0  0  0  0  0  0  0
   33.3310   25.2230   48.5570 H   0  0  0  0  0  0  0  0  0  0  0  0
   34.0020   23.6880   46.7660 H   0  0  0  0  0  0  0  0  0  0  0  0
   34.4260   24.5700   44.4450 H   0  0  0  0  0  0  0  0  0  0  0  0
   34.1540   26.9460   44.0480 H   0  0  0  0  0  0  0  0  0  0  0  0
   32.0280   29.3160   45.6230 C   0  0  1  0  0  3  0  0  0  0  0  0
   33.4470   28.8580   45.7440 C   0  0  2  0  0  3  0  0  0  0  0  0
   34.0530   29.0930   44.4990 O   0  0  0  0  0  0  0  0  0  0  0  0
   34.1860   30.4600   44.2820 C   0  0  0  0  0  2  0  0  0  0  0  0
   32.8350   31.1090   44.1920 C   0  0  1  0  0  3  0  0  0  0  0  0
   32.0840   30.8320   45.4720 C   0  0  2  0  0  3  0  0  0  0  0  0
   31.4240   28.7950   44.4820 O   0  0  0  0  0  0  0  0  0  0  0  0
   32.0190   28.6670   43.7220 H   0  0  0  0  0  0  0  0  0  0  0  0
   32.9620   32.4530   43.9090 O   0  0  0  0  0  0  0  0  0  0  0  0
   32.2800   33.0400   44.3020 H   0  0  0  0  0  0  0  0  0  0  0  0
   32.7530   31.3310   46.5820 O   0  0  0  0  0  0  0  0  0  0  0  0
   32.4690   32.2510   46.8240 H   0  0  0  0  0  0  0  0  0  0  0  0
   32.9520   27.8440   48.4440 C   0  0  0  0  0  0  0  0  0  0  0  0
   32.0930   28.4840   48.1890 H   0  0  0  0  0  0  0  0  0  0  0  0
   32.5690   27.1790   49.2720 H   0  0  0  0  0  0  0  0  0  0  0  0
   35.2640   28.2090   49.2990 C   0  0  0  0  0  3  0  0  0  0  0  0
   34.0700   28.6420   48.9800 C   0  0  0  0  0  3  0  0  0  0  0  0
   37.3800   30.1850   51.5290 C   0  0  0  0  0  0  0  0  0  0  0  0
   38.0720   31.0000   50.6090 C   0  0  0  0  0  0  0  0  0  0  0  0
   37.7940   30.8500   49.2430 C   0  0  0  0  0  0  0  0  0  0  0  0
   36.8580   29.9140   48.8650 N   0  0  0  0  0  0  0  0  0  0  0  0
   36.2310   29.1630   49.8140 C   0  0  0  0  0  0  0  0  0  0  0  0
   36.4860   29.2970   51.1070 N   0  0  0  0  0  0  0  0  0  0  0  0
   37.5860   30.2930   52.5720 H   0  0  0  0  0  0  0  0  0  0  0  0
   38.8050   31.7330   50.9050 H   0  0  0  0  0  0  0  0  0  0  0  0
   38.4530   31.6420   48.2030 C   0  0  0  0  0  0  0  0  0  0  0  0
   38.7350   31.1420   46.9550 C   0  0  0  0  0  0  0  0  0  0  0  0
   39.3570   32.1530   46.2270 C   0  0  0  0  0  0  0  0  0  0  0  0
   39.4260   33.2240   47.0600 N   0  0  0  0  0  0  0  0  0  0  0  0
   38.8860   32.9110   48.2310 N   0  0  0  0  0  0  0  0  0  0  0  0
   38.5330   30.1630   46.5750 H   0  0  0  0  0  0  0  0  0  0  0  0
   39.7240   32.1370   45.2090 H   0  0  0  0  0  0  0  0  0  0  0  0
   39.8290   34.1860   46.8780 H   0  0  0  0  0  0  0  0  0  0  0  0
  1  2  1  0  0  0  0
  1 23  1  0  0  0  0
  2  7  1  0  0  0  0
  3  8  1  0  0  0  0
  3  2  2  0  0  0  0
  4  3  1  0  0  0  0
  5  4  2  0  0  0  0
  5  6  1  0  0  0  0
  6  1  2  0  0  0  0
  9  4  1  0  0  0  0
 10  5  1  0  0  0  0
 11 17  1  6  0  0  0
 11 12  1  0  0  0  0
 12  6  1  6  0  0  0
 13 12  1  0  0  0  0
 14 13  1  0  0  0  0
 15 19  1  1  0  0  0
 15 14  1  0  0  0  0
 15 16  1  0  0  0  0
 16 11  1  0  0  0  0
 16 21  1  1  0  0  0
 18 17  1  0  0  0  0
 19 20  1  0  0  0  0
 21 22  1  0  0  0  0
 23 27  1  0  0  0  0
 23 25  1  0  0  0  0
 24 23  1  0  0  0  0
 26 32  1  0  0  0  0
 27 26  2  0  0  0  0
 28 34  1  0  0  0  0
 29 35  1  0  0  0  0
 29 28  2  0  0  0  0
 30 29  1  0  0  0  0
 31 30  2  0  0  0  0
 31 32  1  0  0  0  0
 32 33  2  0  0  0  0
 33 28  1  0  0  0  0
 36 40  2  0  0  0  0
 36 30  1  0  0  0  0
 37 36  1  0  0  0  0
 38 37  2  0  0  0  0
 38 39  1  0  0  0  0
 39 40  1  0  0  0  0
 41 37  1  0  0  0  0
 42 38  1  0  0  0  0
 43 39  1  0  0  0  0
M  END
>  <minimizedAffinity>
-7.26215887

>  <minimizedRMSD>
0.815901518

$$$$
