
 OpenBabel03272506343D

 22 23  0  0  1  0  0  0  0  0999 V2000
   34.2450   30.5520   47.1910 C   0  0  1  0  0  3  0  0  0  0  0  0
   34.5280   29.7490   48.4360 C   0  0  1  0  0  3  0  0  0  0  0  0
   34.6200   28.3840   48.1750 O   0  0  0  0  0  0  0  0  0  0  0  0
   33.6240   28.0670   47.2250 C   0  0  0  0  0  2  0  0  0  0  0  0
   34.2700   28.3980   45.8870 C   0  0  2  0  0  3  0  0  0  0  0  0
   34.6810   29.8350   45.9350 C   0  0  2  0  0  3  0  0  0  0  0  0
   37.3630   30.0820   50.7880 C   0  0  0  0  0  0  0  0  0  0  0  0
   38.1800   31.0440   50.1580 C   0  0  0  0  0  0  0  0  0  0  0  0
   37.7460   31.5610   48.9390 C   0  0  0  0  0  0  0  0  0  0  0  0
   36.5680   31.1170   48.4230 N   0  0  0  0  0  0  0  0  0  0  0  0
   35.8060   30.1880   49.0610 C   0  0  0  0  0  0  0  0  0  0  0  0
   36.2120   29.6850   50.2300 N   0  0  0  0  0  0  0  0  0  0  0  0
   39.1110   31.4230   50.5220 H   0  0  0  0  0  0  0  0  0  0  0  0
   38.3110   32.3030   48.3890 H   0  0  0  0  0  0  0  0  0  0  0  0
   37.9030   29.6510   51.9850 O   0  0  0  0  0  0  0  0  0  0  0  0
   38.7750   29.1150   51.8910 H   0  0  0  0  0  0  0  0  0  0  0  0
   32.9340   30.9320   47.0420 O   0  0  0  0  0  0  0  0  0  0  0  0
   32.6220   31.5750   47.7290 H   0  0  0  0  0  0  0  0  0  0  0  0
   33.5050   28.0400   44.8040 O   0  0  0  0  0  0  0  0  0  0  0  0
   33.1630   28.8030   44.2770 H   0  0  0  0  0  0  0  0  0  0  0  0
   36.0880   29.9360   45.8980 O   0  0  0  0  0  0  0  0  0  0  0  0
   36.3940   30.6420   45.2980 H   0  0  0  0  0  0  0  0  0  0  0  0
  1 17  1  6  0  0  0
  1  2  1  0  0  0  0
  2 11  1  6  0  0  0
  3  2  1  0  0  0  0
  4  3  1  0  0  0  0
  5 19  1  6  0  0  0
  5  6  1  0  0  0  0
  5  4  1  0  0  0  0
  6 21  1  1  0  0  0
  6  1  1  0  0  0  0
  7 15  1  0  0  0  0
  8 13  1  0  0  0  0
  8  7  2  0  0  0  0
  9  8  1  0  0  0  0
 10  9  2  0  0  0  0
 10 11  1  0  0  0  0
 11 12  2  0  0  0  0
 12  7  1  0  0  0  0
 14  9  1  0  0  0  0
 16 15  1  0  0  0  0
 17 18  1  0  0  0  0
 20 19  1  0  0  0  0
 22 21  1  0  0  0  0
M  END
>  <minimizedAffinity>
-4.76366854

>  <minimizedRMSD>
1.62660873

$$$$
