
 OpenBabel03272509083D

 43 46  0  0  1  0  0  0  0  0999 V2000
   33.3560   26.9130   47.3700 C   0  0  0  0  0  0  0  0  0  0  0  0
   33.5250   25.5430   47.5470 C   0  0  0  0  0  0  0  0  0  0  0  0
   33.9050   24.7280   46.5010 C   0  0  0  0  0  0  0  0  0  0  0  0
   34.1310   25.2370   45.2390 C   0  0  0  0  0  0  0  0  0  0  0  0
   33.9680   26.5700   45.0600 C   0  0  0  0  0  0  0  0  0  0  0  0
   33.5890   27.4170   46.0870 C   0  0  0  0  0  0  0  0  0  0  0  0
   33.3310   25.2220   48.5610 H   0  0  0  0  0  0  0  0  0  0  0  0
   34.0010   23.6860   46.7700 H   0  0  0  0  0  0  0  0  0  0  0  0
   34.4250   24.5680   44.4490 H   0  0  0  0  0  0  0  0  0  0  0  0
   34.1540   26.9440   44.0520 H   0  0  0  0  0  0  0  0  0  0  0  0
   32.0280   29.3150   45.6250 C   0  0  1  0  0  3  0  0  0  0  0  0
   33.4470   28.8560   45.7470 C   0  0  2  0  0  3  0  0  0  0  0  0
   34.0530   29.0900   44.5030 O   0  0  0  0  0  0  0  0  0  0  0  0
   34.1870   30.4580   44.2840 C   0  0  0  0  0  2  0  0  0  0  0  0
   32.8360   31.1070   44.1940 C   0  0  1  0  0  3  0  0  0  0  0  0
   32.0840   30.8310   45.4730 C   0  0  2  0  0  3  0  0  0  0  0  0
   31.4250   28.7930   44.4850 O   0  0  0  0  0  0  0  0  0  0  0  0
   32.0200   28.6650   43.7260 H   0  0  0  0  0  0  0  0  0  0  0  0
   32.9650   32.4500   43.9090 O   0  0  0  0  0  0  0  0  0  0  0  0
   32.2830   33.0380   44.3020 H   0  0  0  0  0  0  0  0  0  0  0  0
   32.7540   31.3300   46.5830 O   0  0  0  0  0  0  0  0  0  0  0  0
   32.4700   32.2510   46.8250 H   0  0  0  0  0  0  0  0  0  0  0  0
   32.9520   27.8430   48.4470 C   0  0  0  0  0  0  0  0  0  0  0  0
   32.0930   28.4830   48.1930 H   0  0  0  0  0  0  0  0  0  0  0  0
   32.5690   27.1790   49.2760 H   0  0  0  0  0  0  0  0  0  0  0  0
   35.2640   28.2090   49.3010 C   0  0  0  0  0  3  0  0  0  0  0  0
   34.0700   28.6420   48.9820 C   0  0  0  0  0  3  0  0  0  0  0  0
   37.3810   30.1860   51.5300 C   0  0  0  0  0  0  0  0  0  0  0  0
   38.0720   31.0010   50.6090 C   0  0  0  0  0  0  0  0  0  0  0  0
   37.7950   30.8500   49.2440 C   0  0  0  0  0  0  0  0  0  0  0  0
   36.8590   29.9140   48.8660 N   0  0  0  0  0  0  0  0  0  0  0  0
   36.2310   29.1630   49.8150 C   0  0  0  0  0  0  0  0  0  0  0  0
   36.4870   29.2980   51.1090 N   0  0  0  0  0  0  0  0  0  0  0  0
   37.5880   30.2940   52.5730 H   0  0  0  0  0  0  0  0  0  0  0  0
   38.8050   31.7340   50.9050 H   0  0  0  0  0  0  0  0  0  0  0  0
   38.4530   31.6420   48.2030 C   0  0  0  0  0  0  0  0  0  0  0  0
   38.7340   31.1410   46.9550 C   0  0  0  0  0  0  0  0  0  0  0  0
   39.3560   32.1530   46.2270 C   0  0  0  0  0  0  0  0  0  0  0  0
   39.4270   33.2230   47.0590 N   0  0  0  0  0  0  0  0  0  0  0  0
   38.8870   32.9100   48.2310 N   0  0  0  0  0  0  0  0  0  0  0  0
   38.5310   30.1630   46.5740 H   0  0  0  0  0  0  0  0  0  0  0  0
   39.7220   32.1360   45.2080 H   0  0  0  0  0  0  0  0  0  0  0  0
   39.8300   34.1850   46.8780 H   0  0  0  0  0  0  0  0  0  0  0  0
  1  2  1  0  0  0  0
  1 23  1  0  0  0  0
  2  7  1  0  0  0  0
  3  8  1  0  0  0  0
  3  2  2  0  0  0  0
  4  3  1  0  0  0  0
  5  4  2  0  0  0  0
  5  6  1  0  0  0  0
  6  1  2  0  0  0  0
  9  4  1  0  0  0  0
 10  5  1  0  0  0  0
 11 17  1  6  0  0  0
 11 12  1  0  0  0  0
 12  6  1  6  0  0  0
 13 12  1  0  0  0  0
 14 13  1  0  0  0  0
 15 19  1  1  0  0  0
 15 14  1  0  0  0  0
 15 16  1  0  0  0  0
 16 11  1  0  0  0  0
 16 21  1  1  0  0  0
 18 17  1  0  0  0  0
 19 20  1  0  0  0  0
 21 22  1  0  0  0  0
 23 27  1  0  0  0  0
 23 25  1  0  0  0  0
 24 23  1  0  0  0  0
 26 32  1  0  0  0  0
 27 26  2  0  0  0  0
 28 34  1  0  0  0  0
 29 35  1  0  0  0  0
 29 28  2  0  0  0  0
 30 29  1  0  0  0  0
 31 30  2  0  0  0  0
 31 32  1  0  0  0  0
 32 33  2  0  0  0  0
 33 28  1  0  0  0  0
 36 40  2  0  0  0  0
 36 30  1  0  0  0  0
 37 36  1  0  0  0  0
 38 37  2  0  0  0  0
 38 39  1  0  0  0  0
 39 40  1  0  0  0  0
 41 37  1  0  0  0  0
 42 38  1  0  0  0  0
 43 39  1  0  0  0  0
M  END
>  <minimizedAffinity>
-7.25900412

>  <minimizedRMSD>
1.31753933

$$$$
