
     RDKit          3D

 48 51  0  0  0  0  0  0  0  0999 V2000
   35.4973   28.9161   49.1501 C   0  0  0  0  0  0  0  0  0  0  0  0
   35.4176   30.1104   48.3911 C   0  0  0  0  0  0  0  0  0  0  0  0
   34.3245   30.2666   47.5503 C   0  0  0  0  0  0  0  0  0  0  0  0
   33.3985   29.2703   47.5031 N   0  0  0  0  0  0  0  0  0  0  0  0
   33.4960   28.1548   48.2272 C   0  0  0  0  0  0  0  0  0  0  0  0
   34.5557   27.9592   49.0690 N   0  0  0  0  0  0  0  0  0  0  0  0
   36.4583   31.0622   48.5390 N   0  0  0  0  0  0  0  0  0  0  0  0
   36.6278   31.7667   49.6532 C   0  0  0  0  0  0  0  0  0  0  0  0
   37.6722   32.6801   49.7221 C   0  0  0  0  0  0  0  0  0  0  0  0
   38.4520   32.7775   48.6142 C   0  0  0  0  0  0  0  0  0  0  0  0
   39.4128   33.6097   48.6623 O   0  0  0  0  0  0  0  0  0  0  0  0
   38.3158   32.0975   47.4931 N   0  0  0  0  0  0  0  0  0  0  0  0
   37.2840   31.2064   47.4474 C   0  0  0  0  0  0  0  0  0  0  0  0
   37.1326   30.5385   46.3751 O   0  0  0  0  0  0  0  0  0  0  0  0
   32.5303   27.1350   48.1647 O   0  0  0  0  0  0  0  0  0  0  0  0
   31.2111   27.5584   48.2795 C   0  0  0  0  0  0  0  0  0  0  0  0
   30.7717   27.7211   49.5730 C   0  0  0  0  0  0  0  0  0  0  0  0
   29.4853   28.1382   49.8415 C   0  0  0  0  0  0  0  0  0  0  0  0
   28.6244   28.3964   48.7673 C   0  0  0  0  0  0  0  0  0  0  0  0
   29.0766   28.2291   47.4618 C   0  0  0  0  0  0  0  0  0  0  0  0
   30.3546   27.8150   47.2399 C   0  0  0  0  0  0  0  0  0  0  0  0
   36.3545   28.7869   49.8139 H   0  0  0  0  0  0  0  0  0  0  0  0
   34.2553   31.1735   46.9683 H   0  0  0  0  0  0  0  0  0  0  0  0
   35.9380   31.6002   50.4737 H   0  0  0  0  0  0  0  0  0  0  0  0
   37.7929   33.2436   50.6379 H   0  0  0  0  0  0  0  0  0  0  0  0
   38.9559   32.2281   46.6841 H   0  0  0  0  0  0  0  0  0  0  0  0
   31.3980   27.5348   50.4339 H   0  0  0  0  0  0  0  0  0  0  0  0
   29.1471   28.2638   50.8701 H   0  0  0  0  0  0  0  0  0  0  0  0
   27.6316   28.7200   49.0561 H   0  0  0  0  0  0  0  0  0  0  0  0
   28.3672   28.4439   46.6850 H   0  0  0  0  0  0  0  0  0  0  0  0
   29.7394   26.6728   43.9296 O   0  0  0  0  0  0  0  0  0  0  0  0
   29.6324   27.6490   44.9062 C   0  0  1  0  0  0  0  0  0  0  0  0
   30.8050   27.6295   45.8595 C   0  0  1  0  0  0  0  0  0  0  0  0
   31.7414   28.6141   45.5600 O   0  0  0  0  0  0  0  0  0  0  0  0
   31.8151   28.8960   44.2005 C   0  0  0  0  0  0  0  0  0  0  0  0
   30.5948   29.7028   43.8383 C   0  0  2  0  0  0  0  0  0  0  0  0
   30.6001   30.9479   44.4675 O   0  0  0  0  0  0  0  0  0  0  0  0
   29.3504   28.9786   44.2923 C   0  0  1  0  0  0  0  0  0  0  0  0
   28.5684   28.7468   43.1492 O   0  0  0  0  0  0  0  0  0  0  0  0
   30.1954   25.8739   44.3099 H   0  0  0  0  0  0  0  0  0  0  0  0
   28.7332   27.3677   45.5182 H   0  0  0  0  0  0  0  0  0  0  0  0
   31.3014   26.6529   45.7049 H   0  0  0  0  0  0  0  0  0  0  0  0
   31.8321   27.9901   43.5609 H   0  0  0  0  0  0  0  0  0  0  0  0
   32.7204   29.5157   44.0399 H   0  0  0  0  0  0  0  0  0  0  0  0
   30.6124   29.8641   42.7394 H   0  0  0  0  0  0  0  0  0  0  0  0
   29.7283   31.3754   44.1935 H   0  0  0  0  0  0  0  0  0  0  0  0
   28.7062   29.5854   44.9621 H   0  0  0  0  0  0  0  0  0  0  0  0
   28.3541   27.7909   43.0190 H   0  0  0  0  0  0  0  0  0  0  0  0
  2  7  1  0
  2  1  2  0
  3  2  1  0
  4  3  2  0
  4  5  1  0
  5  6  2  0
  6  1  1  0
  7  8  1  0
  8  9  2  0
 10 11  2  0
 10  9  1  0
 12 10  1  0
 13 12  1  0
 13  7  1  0
 14 13  2  0
 15  5  1  0
 15 16  1  0
 16 17  2  0
 17 18  1  0
 19 18  2  0
 20 19  1  0
 21 20  2  0
 21 16  1  0
  1 22  1  0
  3 23  1  0
  8 24  1  0
  9 25  1  0
 12 26  1  0
 17 27  1  0
 18 28  1  0
 19 29  1  0
 20 30  1  0
 31 32  1  0
 32 33  1  0
 33 34  1  0
 34 35  1  0
 35 36  1  0
 36 37  1  0
 36 38  1  0
 38 39  1  0
 38 32  1  0
 31 40  1  0
 32 41  1  1
 33 42  1  1
 35 43  1  0
 35 44  1  0
 36 45  1  6
 37 46  1  0
 38 47  1  1
 39 48  1  0
 21 33  1  0
M  ISO  8  22  14  23  14  24  14  25  14  26   9  27  14  28  14  29  14
M  ISO  1  30  14
M  END
>  <DihAtoms>  (1) 
19,20,32,31

>  <DihDeg>  (1) 
-87.66282515595329

$$$$
