
 OpenBabel03272502073D

 42 45  0  0  1  0  0  0  0  0999 V2000
   34.1490   30.5240   47.5980 F   0  0  0  0  0  0  0  0  0  0  0  0
   34.5800   30.0120   46.4000 C   0  0  0  0  0  0  0  0  0  0  0  0
   33.7060   29.4190   45.5090 C   0  0  0  0  0  0  0  0  0  0  0  0
   34.2010   28.9390   44.3190 C   0  0  0  0  0  0  0  0  0  0  0  0
   35.5600   29.0500   44.0200 C   0  0  0  0  0  0  0  0  0  0  0  0
   36.3850   29.6530   44.9520 C   0  0  0  0  0  0  0  0  0  0  0  0
   35.9400   30.1340   46.1270 C   0  0  0  0  0  0  0  0  0  0  0  0
   33.4870   28.4830   43.6490 H   0  0  0  0  0  0  0  0  0  0  0  0
   35.9010   28.6590   43.0750 H   0  0  0  0  0  0  0  0  0  0  0  0
   37.4210   29.6970   44.6400 H   0  0  0  0  0  0  0  0  0  0  0  0
   37.9010   32.3250   45.0530 Br  0  0  0  0  0  0  0  0  0  0  0  0
   37.7670   31.7420   46.8580 C   0  0  0  0  0  0  0  0  0  0  0  0
   36.8480   30.7500   47.0780 C   0  0  0  0  0  0  0  0  0  0  0  0
   36.7200   30.2490   48.3840 C   0  0  0  0  0  0  0  0  0  0  0  0
   37.4860   30.7350   49.3940 C   0  0  0  0  0  0  0  0  0  0  0  0
   38.3990   31.7420   49.1050 C   0  0  0  0  0  0  0  0  0  0  0  0
   38.5460   32.2610   47.8100 C   0  0  0  0  0  0  0  0  0  0  0  0
   36.0230   29.4690   48.6450 H   0  0  0  0  0  0  0  0  0  0  0  0
   37.4110   30.3710   50.4000 H   0  0  0  0  0  0  0  0  0  0  0  0
   39.0250   32.1530   49.8880 H   0  0  0  0  0  0  0  0  0  0  0  0
   39.4180   33.2460   47.4630 O   0  0  0  0  0  0  0  0  0  0  0  0
   40.4140   33.0400   47.4740 H   0  0  0  0  0  0  0  0  0  0  0  0
   31.9330   28.2320   46.6410 C   0  0  0  0  0  0  0  0  0  0  0  0
   32.3390   29.3670   45.9320 C   0  0  0  0  0  0  0  0  0  0  0  0
   31.3920   30.3480   45.7000 C   0  0  0  0  0  0  0  0  0  0  0  0
   30.1290   30.1880   46.1540 N   0  0  0  0  0  0  0  0  0  0  0  0
   29.7680   29.0890   46.8320 C   0  0  0  0  0  0  0  0  0  0  0  0
   30.6540   28.1340   47.0680 N   0  0  0  0  0  0  0  0  0  0  0  0
   32.6300   27.4310   46.8520 H   0  0  0  0  0  0  0  0  0  0  0  0
   31.6880   31.2190   45.1590 H   0  0  0  0  0  0  0  0  0  0  0  0
   28.4820   28.5200   48.7910 C   0  0  1  0  0  3  0  0  0  0  0  0
   28.3810   28.9060   47.3350 C   0  0  2  0  0  3  0  0  0  0  0  0
   27.5970   28.0800   46.5870 O   0  0  0  0  0  0  0  0  0  0  0  0
   27.7380   26.7360   46.7550 C   0  0  0  0  0  2  0  0  0  0  0  0
   27.8790   26.2500   48.1560 C   0  0  1  0  0  3  0  0  0  0  0  0
   28.8410   27.0690   48.9810 C   0  0  2  0  0  3  0  0  0  0  0  0
   29.5080   29.2840   49.3460 O   0  0  0  0  0  0  0  0  0  0  0  0
   30.3270   29.0730   48.8290 H   0  0  0  0  0  0  0  0  0  0  0  0
   26.6640   26.1380   48.8260 O   0  0  0  0  0  0  0  0  0  0  0  0
   26.8710   26.1680   49.7960 H   0  0  0  0  0  0  0  0  0  0  0  0
   28.6330   26.7520   50.3250 O   0  0  0  0  0  0  0  0  0  0  0  0
   29.3450   26.1680   50.6870 H   0  0  0  0  0  0  0  0  0  0  0  0
  2  1  1  0  0  0  0
  3 24  1  0  0  0  0
  3  2  2  0  0  0  0
  4  3  1  0  0  0  0
  5  4  2  0  0  0  0
  5  6  1  0  0  0  0
  6  7  2  0  0  0  0
  7  2  1  0  0  0  0
  7 13  1  0  0  0  0
  8  4  1  0  0  0  0
  9  5  1  0  0  0  0
 10  6  1  0  0  0  0
 11 12  1  0  0  0  0
 12 13  2  0  0  0  0
 12 17  1  0  0  0  0
 13 14  1  0  0  0  0
 14 18  1  0  0  0  0
 14 15  2  0  0  0  0
 15 19  1  0  0  0  0
 16 15  1  0  0  0  0
 16 20  1  0  0  0  0
 17 16  2  0  0  0  0
 21 22  1  0  0  0  0
 21 17  1  0  0  0  0
 23 29  1  0  0  0  0
 23 28  1  0  0  0  0
 24 23  2  0  0  0  0
 25 24  1  0  0  0  0
 25 26  2  0  0  0  0
 26 27  1  0  0  0  0
 27 28  2  0  0  0  0
 30 25  1  0  0  0  0
 31 36  1  0  0  0  0
 31 37  1  6  0  0  0
 32 27  1  6  0  0  0
 32 31  1  0  0  0  0
 33 34  1  0  0  0  0
 33 32  1  0  0  0  0
 34 35  1  0  0  0  0
 35 39  1  1  0  0  0
 35 36  1  0  0  0  0
 36 41  1  1  0  0  0
 38 37  1  0  0  0  0
 39 40  1  0  0  0  0
 41 42  1  0  0  0  0
M  END
>  <minimizedAffinity>
-6.78176212

>  <minimizedRMSD>
0.684524357

$$$$
