
 OpenBabel03272500493D

 42 46  0  0  1  0  0  0  0  0999 V2000
   37.2240   27.2350   31.8140 C   0  0  1  0  0  0  0  0  0  0  0  0
   38.7450   27.0710   32.1550 C   0  0  0  0  0  0  0  0  0  0  0  0
   37.6960   26.2350   32.7920 C   0  0  2  0  0  0  0  0  0  0  0  0
   36.8940   26.8650   30.8400 H   0  0  0  0  0  0  0  0  0  0  0  0
   39.2080   27.9130   32.6970 H   0  0  0  0  0  0  0  0  0  0  0  0
   39.3290   26.5680   31.3510 H   0  0  0  0  0  0  0  0  0  0  0  0
   37.5370   26.4340   33.8780 H   0  0  0  0  0  0  0  0  0  0  0  0
   35.6080   29.8770   33.6630 C   0  0  0  0  0  0  0  0  0  0  0  0
   35.7590   30.4900   32.4310 C   0  0  0  0  0  0  0  0  0  0  0  0
   36.3890   29.5760   31.5650 C   0  0  0  0  0  0  0  0  0  0  0  0
   36.5980   28.4600   32.2830 N   0  0  0  0  0  0  0  0  0  0  0  0
   36.1320   28.6770   33.4880 N   0  0  0  0  0  0  0  0  0  0  0  0
   35.4590   31.4970   32.1380 H   0  0  0  0  0  0  0  0  0  0  0  0
   36.6480   29.7590   30.5240 H   0  0  0  0  0  0  0  0  0  0  0  0
   35.7180   31.3160   35.7120 C   0  0  0  0  0  0  0  0  0  0  0  0
   35.0010   30.5090   34.8010 C   0  0  0  0  0  0  0  0  0  0  0  0
   33.6530   30.3390   35.0480 C   0  0  0  0  0  0  0  0  0  0  0  0
   33.0910   30.9420   36.1290 N   0  0  0  0  0  0  0  0  0  0  0  0
   33.8080   31.7000   36.9690 C   0  0  0  0  0  0  0  0  0  0  0  0
   35.1530   31.8990   36.7650 N   0  0  0  0  0  0  0  0  0  0  0  0
   36.7760   31.4240   35.4810 H   0  0  0  0  0  0  0  0  0  0  0  0
   33.0700   29.7290   34.3760 H   0  0  0  0  0  0  0  0  0  0  0  0
   33.3530   32.1820   37.8340 H   0  0  0  0  0  0  0  0  0  0  0  0
   37.5980   24.7790   32.4600 C   0  0  0  0  0  0  0  0  0  0  0  0
   37.7380   24.2520   31.1740 C   0  0  0  0  0  0  0  0  0  0  0  0
   37.5790   22.9040   31.2670 N   0  0  0  0  0  0  0  0  0  0  0  0
   37.3490   22.6000   32.5610 C   0  0  0  0  0  0  0  0  0  0  0  0
   37.3590   23.7360   33.2950 N   0  0  0  0  0  0  0  0  0  0  0  0
   37.9360   24.7960   30.2560 H   0  0  0  0  0  0  0  0  0  0  0  0
   37.6310   22.2370   30.4600 H   0  0  0  0  0  0  0  0  0  0  0  0
   35.6840   20.9840   33.4040 C   0  0  1  0  0  3  0  0  0  0  0  0
   37.1220   21.2050   33.0740 C   0  0  1  0  0  3  0  0  0  0  0  0
   37.6180   20.3030   32.1650 O   0  0  0  0  0  0  0  0  0  0  0  0
   36.8990   19.1370   32.0400 C   0  0  0  0  0  2  0  0  0  0  0  0
   35.4660   19.3190   31.6270 C   0  0  2  0  0  3  0  0  0  0  0  0
   34.8710   20.5750   32.1810 C   0  0  2  0  0  3  0  0  0  0  0  0
   35.4520   20.0740   34.4160 O   0  0  0  0  0  0  0  0  0  0  0  0
   34.8300   20.4040   35.1140 H   0  0  0  0  0  0  0  0  0  0  0  0
   34.7830   18.1740   32.0590 O   0  0  0  0  0  0  0  0  0  0  0  0
   34.0930   18.3810   32.7350 H   0  0  0  0  0  0  0  0  0  0  0  0
   34.8920   21.6180   31.2390 O   0  0  0  0  0  0  0  0  0  0  0  0
   34.7340   21.3250   30.3230 H   0  0  0  0  0  0  0  0  0  0  0  0
  1  4  1  6  0  0  0
  1  2  1  0  0  0  0
  1 11  1  0  0  0  0
  1  3  1  0  0  0  0
  2  5  1  0  0  0  0
  2  3  1  0  0  0  0
  3  7  1  1  0  0  0
  6  2  1  0  0  0  0
  8 16  1  0  0  0  0
  9  8  1  0  0  0  0
 10 11  1  0  0  0  0
 10  9  2  0  0  0  0
 11 12  1  0  0  0  0
 12  8  2  0  0  0  0
 13  9  1  0  0  0  0
 14 10  1  0  0  0  0
 15 20  1  0  0  0  0
 16 17  1  0  0  0  0
 16 15  2  0  0  0  0
 17 18  2  0  0  0  0
 18 19  1  0  0  0  0
 19 23  1  0  0  0  0
 20 19  2  0  0  0  0
 21 15  1  0  0  0  0
 22 17  1  0  0  0  0
 24  3  1  0  0  0  0
 24 28  1  0  0  0  0
 25 26  1  0  0  0  0
 25 24  2  0  0  0  0
 26 27  1  0  0  0  0
 27 28  2  0  0  0  0
 29 25  1  0  0  0  0
 30 26  1  0  0  0  0
 31 37  1  1  0  0  0
 32 27  1  6  0  0  0
 32 31  1  0  0  0  0
 33 32  1  0  0  0  0
 34 33  1  0  0  0  0
 35 34  1  0  0  0  0
 35 39  1  1  0  0  0
 35 36  1  0  0  0  0
 36 41  1  6  0  0  0
 36 31  1  0  0  0  0
 37 38  1  0  0  0  0
 39 40  1  0  0  0  0
 42 41  1  0  0  0  0
M  END
>  <minimizedAffinity>
-6.33846951

$$$$

 OpenBabel03272500493D

 42 46  0  0  1  0  0  0  0  0999 V2000
   35.9320   28.2080   32.7880 C   0  0  1  0  0  0  0  0  0  0  0  0
   36.4030   26.9630   31.9610 C   0  0  0  0  0  0  0  0  0  0  0  0
   37.2730   27.6200   32.9680 C   0  0  2  0  0  0  0  0  0  0  0  0
   35.1960   28.0280   33.5750 H   0  0  0  0  0  0  0  0  0  0  0  0
   36.5540   27.1340   30.8810 H   0  0  0  0  0  0  0  0  0  0  0  0
   35.9340   26.0080   32.2900 H   0  0  0  0  0  0  0  0  0  0  0  0
   38.1540   28.1580   32.5450 H   0  0  0  0  0  0  0  0  0  0  0  0
   36.3280   31.1590   30.7500 C   0  0  0  0  0  0  0  0  0  0  0  0
   35.0010   31.2870   31.1220 C   0  0  0  0  0  0  0  0  0  0  0  0
   34.6710   30.1910   31.9420 C   0  0  0  0  0  0  0  0  0  0  0  0
   35.7840   29.4460   32.0400 N   0  0  0  0  0  0  0  0  0  0  0  0
   36.7160   30.0400   31.3380 N   0  0  0  0  0  0  0  0  0  0  0  0
   34.3000   32.0780   30.8510 H   0  0  0  0  0  0  0  0  0  0  0  0
   33.6990   30.0050   32.3940 H   0  0  0  0  0  0  0  0  0  0  0  0
   36.9720   32.0510   28.4980 C   0  0  0  0  0  0  0  0  0  0  0  0
   37.0180   32.0960   29.9100 C   0  0  0  0  0  0  0  0  0  0  0  0
   37.7750   33.1050   30.4750 C   0  0  0  0  0  0  0  0  0  0  0  0
   38.4240   33.9850   29.6680 N   0  0  0  0  0  0  0  0  0  0  0  0
   38.3530   33.9070   28.3330 C   0  0  0  0  0  0  0  0  0  0  0  0
   37.6120   32.9220   27.7240 N   0  0  0  0  0  0  0  0  0  0  0  0
   36.3660   31.2430   28.0940 H   0  0  0  0  0  0  0  0  0  0  0  0
   37.8370   33.1720   31.5500 H   0  0  0  0  0  0  0  0  0  0  0  0
   38.8740   34.6150   27.6890 H   0  0  0  0  0  0  0  0  0  0  0  0
   37.5990   26.9140   34.2470 C   0  0  0  0  0  0  0  0  0  0  0  0
   38.2250   27.5140   35.3420 C   0  0  0  0  0  0  0  0  0  0  0  0
   38.3590   26.5630   36.3060 N   0  0  0  0  0  0  0  0  0  0  0  0
   37.8360   25.4130   35.8330 C   0  0  0  0  0  0  0  0  0  0  0  0
   37.3700   25.6180   34.5790 N   0  0  0  0  0  0  0  0  0  0  0  0
   38.5540   28.5440   35.4310 H   0  0  0  0  0  0  0  0  0  0  0  0
   38.7960   26.7200   37.2460 H   0  0  0  0  0  0  0  0  0  0  0  0
   38.4990   23.0360   35.8680 C   0  0  1  0  0  3  0  0  0  0  0  0
   37.7930   24.1240   36.6040 C   0  0  1  0  0  3  0  0  0  0  0  0
   38.2850   24.3370   37.8680 O   0  0  0  0  0  0  0  0  0  0  0  0
   39.0050   23.2950   38.4030 C   0  0  0  0  0  2  0  0  0  0  0  0
   40.2120   22.8850   37.6070 C   0  0  2  0  0  3  0  0  0  0  0  0
   40.0010   23.0450   36.1340 C   0  0  2  0  0  3  0  0  0  0  0  0
   38.0150   21.7650   36.1020 O   0  0  0  0  0  0  0  0  0  0  0  0
   37.8420   21.2440   35.2750 H   0  0  0  0  0  0  0  0  0  0  0  0
   40.4880   21.5570   37.9610 O   0  0  0  0  0  0  0  0  0  0  0  0
   40.3930   20.9370   37.1980 H   0  0  0  0  0  0  0  0  0  0  0  0
   40.5490   24.2480   35.6580 O   0  0  0  0  0  0  0  0  0  0  0  0
   41.3820   24.5010   36.0960 H   0  0  0  0  0  0  0  0  0  0  0  0
  1  3  1  0  0  0  0
  1  4  1  1  0  0  0
  2  6  1  0  0  0  0
  2  1  1  0  0  0  0
  2  3  1  0  0  0  0
  3  7  1  6  0  0  0
  3 24  1  0  0  0  0
  5  2  1  0  0  0  0
  8  9  1  0  0  0  0
  8 12  2  0  0  0  0
  9 10  2  0  0  0  0
 10 11  1  0  0  0  0
 10 14  1  0  0  0  0
 11  1  1  0  0  0  0
 12 11  1  0  0  0  0
 13  9  1  0  0  0  0
 15 16  1  0  0  0  0
 16 17  2  0  0  0  0
 16  8  1  0  0  0  0
 17 22  1  0  0  0  0
 18 17  1  0  0  0  0
 19 18  2  0  0  0  0
 20 19  1  0  0  0  0
 20 15  2  0  0  0  0
 21 15  1  0  0  0  0
 23 19  1  0  0  0  0
 24 28  1  0  0  0  0
 24 25  2  0  0  0  0
 25 29  1  0  0  0  0
 25 26  1  0  0  0  0
 26 30  1  0  0  0  0
 27 26  1  0  0  0  0
 28 27  2  0  0  0  0
 31 37  1  1  0  0  0
 31 36  1  0  0  0  0
 31 32  1  0  0  0  0
 32 27  1  6  0  0  0
 32 33  1  0  0  0  0
 33 34  1  0  0  0  0
 35 39  1  6  0  0  0
 35 34  1  0  0  0  0
 36 41  1  1  0  0  0
 36 35  1  0  0  0  0
 38 37  1  0  0  0  0
 40 39  1  0  0  0  0
 41 42  1  0  0  0  0
M  END
>  <minimizedAffinity>
-6.21912098

$$$$

 OpenBabel03272500493D

 42 46  0  0  1  0  0  0  0  0999 V2000
   35.7820   28.1710   32.8990 C   0  0  1  0  0  0  0  0  0  0  0  0
   36.3210   26.9760   32.0410 C   0  0  0  0  0  0  0  0  0  0  0  0
   37.1530   27.6520   33.0670 C   0  0  2  0  0  0  0  0  0  0  0  0
   35.0570   27.9300   33.6800 H   0  0  0  0  0  0  0  0  0  0  0  0
   36.4630   27.1830   30.9660 H   0  0  0  0  0  0  0  0  0  0  0  0
   35.9050   25.9880   32.3440 H   0  0  0  0  0  0  0  0  0  0  0  0
   38.0040   28.2490   32.6600 H   0  0  0  0  0  0  0  0  0  0  0  0
   34.4980   31.1720   31.3640 C   0  0  0  0  0  0  0  0  0  0  0  0
   35.8300   31.2510   30.9940 C   0  0  0  0  0  0  0  0  0  0  0  0
   36.4950   30.1290   31.5220 C   0  0  0  0  0  0  0  0  0  0  0  0
   35.5680   29.4180   32.1840 N   0  0  0  0  0  0  0  0  0  0  0  0
   34.4290   30.0560   32.0680 N   0  0  0  0  0  0  0  0  0  0  0  0
   36.3180   32.0250   30.4000 H   0  0  0  0  0  0  0  0  0  0  0  0
   37.5530   29.9030   31.4060 H   0  0  0  0  0  0  0  0  0  0  0  0
   33.7370   33.5410   31.0600 C   0  0  0  0  0  0  0  0  0  0  0  0
   33.5080   32.1480   31.0030 C   0  0  0  0  0  0  0  0  0  0  0  0
   32.2590   31.7400   30.5760 C   0  0  0  0  0  0  0  0  0  0  0  0
   31.3310   32.6740   30.2380 N   0  0  0  0  0  0  0  0  0  0  0  0
   31.5900   33.9860   30.3070 C   0  0  0  0  0  0  0  0  0  0  0  0
   32.8180   34.4410   30.7250 N   0  0  0  0  0  0  0  0  0  0  0  0
   34.7320   33.8190   31.4010 H   0  0  0  0  0  0  0  0  0  0  0  0
   32.0450   30.6840   30.5200 H   0  0  0  0  0  0  0  0  0  0  0  0
   30.8430   34.7320   30.0340 H   0  0  0  0  0  0  0  0  0  0  0  0
   37.5170   26.9320   34.3280 C   0  0  0  0  0  0  0  0  0  0  0  0
   38.1730   27.5190   35.4110 C   0  0  0  0  0  0  0  0  0  0  0  0
   38.3350   26.5570   36.3590 N   0  0  0  0  0  0  0  0  0  0  0  0
   37.8010   25.4120   35.8880 C   0  0  0  0  0  0  0  0  0  0  0  0
   37.3000   25.6310   34.6500 N   0  0  0  0  0  0  0  0  0  0  0  0
   38.5020   28.5500   35.5040 H   0  0  0  0  0  0  0  0  0  0  0  0
   38.7980   26.7040   37.2890 H   0  0  0  0  0  0  0  0  0  0  0  0
   38.4630   23.0340   35.8720 C   0  0  1  0  0  3  0  0  0  0  0  0
   37.7820   24.1140   36.6440 C   0  0  1  0  0  3  0  0  0  0  0  0
   38.3160   24.3110   37.8940 O   0  0  0  0  0  0  0  0  0  0  0  0
   39.0530   23.2620   38.3920 C   0  0  0  0  0  2  0  0  0  0  0  0
   40.2320   22.8620   37.5510 C   0  0  2  0  0  3  0  0  0  0  0  0
   39.9730   23.0390   36.0880 C   0  0  2  0  0  3  0  0  0  0  0  0
   37.9850   21.7610   36.1070 O   0  0  0  0  0  0  0  0  0  0  0  0
   37.7850   21.2510   35.2790 H   0  0  0  0  0  0  0  0  0  0  0  0
   40.5180   21.5290   37.8800 O   0  0  0  0  0  0  0  0  0  0  0  0
   40.3980   20.9190   37.1130 H   0  0  0  0  0  0  0  0  0  0  0  0
   40.5060   24.2480   35.6090 O   0  0  0  0  0  0  0  0  0  0  0  0
   41.3530   24.4960   36.0230 H   0  0  0  0  0  0  0  0  0  0  0  0
  1  3  1  0  0  0  0
  1  4  1  1  0  0  0
  2  6  1  0  0  0  0
  2  1  1  0  0  0  0
  2  3  1  0  0  0  0
  3  7  1  6  0  0  0
  3 24  1  0  0  0  0
  5  2  1  0  0  0  0
  8 12  2  0  0  0  0
  9  8  1  0  0  0  0
  9 10  2  0  0  0  0
 10 11  1  0  0  0  0
 11  1  1  0  0  0  0
 12 11  1  0  0  0  0
 13  9  1  0  0  0  0
 14 10  1  0  0  0  0
 15 21  1  0  0  0  0
 16 15  1  0  0  0  0
 16  8  1  0  0  0  0
 17 16  2  0  0  0  0
 18 19  2  0  0  0  0
 18 17  1  0  0  0  0
 19 20  1  0  0  0  0
 20 15  2  0  0  0  0
 22 17  1  0  0  0  0
 23 19  1  0  0  0  0
 24 28  1  0  0  0  0
 24 25  2  0  0  0  0
 25 29  1  0  0  0  0
 25 26  1  0  0  0  0
 26 30  1  0  0  0  0
 27 26  1  0  0  0  0
 28 27  2  0  0  0  0
 31 36  1  0  0  0  0
 31 37  1  1  0  0  0
 31 32  1  0  0  0  0
 32 27  1  6  0  0  0
 32 33  1  0  0  0  0
 33 34  1  0  0  0  0
 35 39  1  6  0  0  0
 35 34  1  0  0  0  0
 36 41  1  1  0  0  0
 36 35  1  0  0  0  0
 38 37  1  0  0  0  0
 40 39  1  0  0  0  0
 41 42  1  0  0  0  0
M  END
>  <minimizedAffinity>
-6.13668394

$$$$

 OpenBabel03272500493D

 42 46  0  0  1  0  0  0  0  0999 V2000
   37.5800   26.1730   35.7410 C   0  0  1  0  0  0  0  0  0  0  0  0
   38.4550   27.4690   35.6350 C   0  0  0  0  0  0  0  0  0  0  0  0
   38.0280   26.7010   34.4380 C   0  0  2  0  0  0  0  0  0  0  0  0
   36.5270   26.3080   36.0000 H   0  0  0  0  0  0  0  0  0  0  0  0
   39.4830   27.3870   36.0270 H   0  0  0  0  0  0  0  0  0  0  0  0
   37.8850   28.4070   35.8250 H   0  0  0  0  0  0  0  0  0  0  0  0
   38.8530   26.1740   33.9030 H   0  0  0  0  0  0  0  0  0  0  0  0
   39.6710   23.3350   36.5070 C   0  0  0  0  0  0  0  0  0  0  0  0
   38.8240   23.3250   37.6010 C   0  0  0  0  0  0  0  0  0  0  0  0
   37.9180   24.3940   37.4610 C   0  0  0  0  0  0  0  0  0  0  0  0
   38.2380   25.0090   36.3100 N   0  0  0  0  0  0  0  0  0  0  0  0
   39.2540   24.3660   35.7920 N   0  0  0  0  0  0  0  0  0  0  0  0
   38.8210   22.6320   38.4440 H   0  0  0  0  0  0  0  0  0  0  0  0
   37.1260   24.6530   38.1600 H   0  0  0  0  0  0  0  0  0  0  0  0
   41.3050   21.6330   37.3540 C   0  0  0  0  0  0  0  0  0  0  0  0
   40.7290   22.3860   36.3050 C   0  0  0  0  0  0  0  0  0  0  0  0
   41.2340   22.1720   35.0370 C   0  0  0  0  0  0  0  0  0  0  0  0
   42.2350   21.2710   34.8590 N   0  0  0  0  0  0  0  0  0  0  0  0
   42.7530   20.5780   35.8820 C   0  0  0  0  0  0  0  0  0  0  0  0
   42.2840   20.7550   37.1620 N   0  0  0  0  0  0  0  0  0  0  0  0
   40.8790   21.8310   38.3350 H   0  0  0  0  0  0  0  0  0  0  0  0
   40.8210   22.7280   34.2090 H   0  0  0  0  0  0  0  0  0  0  0  0
   43.5560   19.8560   35.7360 H   0  0  0  0  0  0  0  0  0  0  0  0
   37.0220   27.2850   33.4960 C   0  0  0  0  0  0  0  0  0  0  0  0
   36.5280   26.6310   32.3660 C   0  0  0  0  0  0  0  0  0  0  0  0
   35.6460   27.4730   31.7610 N   0  0  0  0  0  0  0  0  0  0  0  0
   35.5910   28.6090   32.4860 C   0  0  0  0  0  0  0  0  0  0  0  0
   36.4260   28.5040   33.5450 N   0  0  0  0  0  0  0  0  0  0  0  0
   36.7830   25.6360   32.0140 H   0  0  0  0  0  0  0  0  0  0  0  0
   35.1130   27.2540   30.8850 H   0  0  0  0  0  0  0  0  0  0  0  0
   33.3440   29.6130   32.6770 C   0  0  1  0  0  3  0  0  0  0  0  0
   34.7260   29.7890   32.1420 C   0  0  1  0  0  3  0  0  0  0  0  0
   35.3360   30.9390   32.5760 O   0  0  0  0  0  0  0  0  0  0  0  0
   34.4890   31.9160   33.0440 C   0  0  0  0  0  2  0  0  0  0  0  0
   33.6260   31.5040   34.2030 C   0  0  2  0  0  3  0  0  0  0  0  0
   33.2300   30.0620   34.1300 C   0  0  2  0  0  3  0  0  0  0  0  0
   32.3520   30.2320   31.9430 O   0  0  0  0  0  0  0  0  0  0  0  0
   31.5840   29.6400   31.7330 H   0  0  0  0  0  0  0  0  0  0  0  0
   32.5150   32.3590   34.1930 O   0  0  0  0  0  0  0  0  0  0  0  0
   31.6690   31.8740   34.0350 H   0  0  0  0  0  0  0  0  0  0  0  0
   34.0570   29.2550   34.9310 O   0  0  0  0  0  0  0  0  0  0  0  0
   34.3330   29.6800   35.7640 H   0  0  0  0  0  0  0  0  0  0  0  0
  1  4  1  1  0  0  0
  1 11  1  0  0  0  0
  2  1  1  0  0  0  0
  2  6  1  0  0  0  0
  2  5  1  0  0  0  0
  3  7  1  6  0  0  0
  3  2  1  0  0  0  0
  3  1  1  0  0  0  0
  8  9  1  0  0  0  0
  9 13  1  0  0  0  0
 10  9  2  0  0  0  0
 10 14  1  0  0  0  0
 11 10  1  0  0  0  0
 12 11  1  0  0  0  0
 12  8  2  0  0  0  0
 15 21  1  0  0  0  0
 16  8  1  0  0  0  0
 16 15  2  0  0  0  0
 17 16  1  0  0  0  0
 18 17  2  0  0  0  0
 18 19  1  0  0  0  0
 19 20  2  0  0  0  0
 20 15  1  0  0  0  0
 22 17  1  0  0  0  0
 23 19  1  0  0  0  0
 24 28  1  0  0  0  0
 24  3  1  0  0  0  0
 25 24  2  0  0  0  0
 26 25  1  0  0  0  0
 26 27  1  0  0  0  0
 27 28  2  0  0  0  0
 29 25  1  0  0  0  0
 30 26  1  0  0  0  0
 31 37  1  6  0  0  0
 31 36  1  0  0  0  0
 32 27  1  1  0  0  0
 32 33  1  0  0  0  0
 32 31  1  0  0  0  0
 33 34  1  0  0  0  0
 34 35  1  0  0  0  0
 35 39  1  6  0  0  0
 36 35  1  0  0  0  0
 36 41  1  1  0  0  0
 38 37  1  0  0  0  0
 40 39  1  0  0  0  0
 41 42  1  0  0  0  0
M  END
>  <minimizedAffinity>
-6.04442835

$$$$

 OpenBabel03272500493D

 42 46  0  0  1  0  0  0  0  0999 V2000
   36.4290   27.4310   32.4100 C   0  0  1  0  0  0  0  0  0  0  0  0
   37.3970   28.2740   31.5110 C   0  0  0  0  0  0  0  0  0  0  0  0
   35.9570   28.6050   31.6510 C   0  0  2  0  0  0  0  0  0  0  0  0
   36.5350   27.5440   33.4920 H   0  0  0  0  0  0  0  0  0  0  0  0
   37.7790   27.7650   30.6100 H   0  0  0  0  0  0  0  0  0  0  0  0
   38.0910   28.9230   32.0930 H   0  0  0  0  0  0  0  0  0  0  0  0
   35.3480   28.4370   30.7310 H   0  0  0  0  0  0  0  0  0  0  0  0
   36.2580   23.8980   31.7050 C   0  0  0  0  0  0  0  0  0  0  0  0
   35.2450   24.3650   30.8860 C   0  0  0  0  0  0  0  0  0  0  0  0
   35.1720   25.7630   31.0400 C   0  0  0  0  0  0  0  0  0  0  0  0
   36.1220   26.0940   31.9300 N   0  0  0  0  0  0  0  0  0  0  0  0
   36.7250   24.9880   32.2880 N   0  0  0  0  0  0  0  0  0  0  0  0
   34.5950   23.7910   30.2250 H   0  0  0  0  0  0  0  0  0  0  0  0
   34.4750   26.4240   30.5300 H   0  0  0  0  0  0  0  0  0  0  0  0
   37.7840   22.0700   32.4900 C   0  0  0  0  0  0  0  0  0  0  0  0
   36.6260   22.5140   31.8120 C   0  0  0  0  0  0  0  0  0  0  0  0
   35.8330   21.5410   31.2340 C   0  0  0  0  0  0  0  0  0  0  0  0
   36.1930   20.2350   31.3420 N   0  0  0  0  0  0  0  0  0  0  0  0
   37.3000   19.8570   31.9950 C   0  0  0  0  0  0  0  0  0  0  0  0
   38.1210   20.7880   32.5870 N   0  0  0  0  0  0  0  0  0  0  0  0
   38.3800   22.8670   32.9300 H   0  0  0  0  0  0  0  0  0  0  0  0
   34.9410   21.8390   30.7060 H   0  0  0  0  0  0  0  0  0  0  0  0
   37.5850   18.8080   32.0790 H   0  0  0  0  0  0  0  0  0  0  0  0
   35.5420   29.8400   32.3890 C   0  0  0  0  0  0  0  0  0  0  0  0
   36.1320   31.0940   32.2220 C   0  0  0  0  0  0  0  0  0  0  0  0
   35.4980   31.9570   33.0610 N   0  0  0  0  0  0  0  0  0  0  0  0
   34.5480   31.2690   33.7270 C   0  0  0  0  0  0  0  0  0  0  0  0
   34.5680   29.9780   33.3240 N   0  0  0  0  0  0  0  0  0  0  0  0
   36.9460   31.3570   31.5530 H   0  0  0  0  0  0  0  0  0  0  0  0
   35.7250   32.9770   33.1560 H   0  0  0  0  0  0  0  0  0  0  0  0
   33.8700   31.2860   36.1000 C   0  0  1  0  0  3  0  0  0  0  0  0
   33.6280   31.8740   34.7500 C   0  0  1  0  0  3  0  0  0  0  0  0
   33.7530   33.2410   34.7190 O   0  0  0  0  0  0  0  0  0  0  0  0
   33.6460   33.8700   35.9380 C   0  0  0  0  0  2  0  0  0  0  0  0
   34.6540   33.4360   36.9640 C   0  0  2  0  0  3  0  0  0  0  0  0
   35.0080   31.9870   36.8350 C   0  0  2  0  0  3  0  0  0  0  0  0
   32.7640   31.2510   36.9260 O   0  0  0  0  0  0  0  0  0  0  0  0
   32.6110   30.3660   37.3490 H   0  0  0  0  0  0  0  0  0  0  0  0
   34.0980   33.7350   38.2150 O   0  0  0  0  0  0  0  0  0  0  0  0
   33.9370   32.9250   38.7590 H   0  0  0  0  0  0  0  0  0  0  0  0
   36.2030   31.8060   36.1190 O   0  0  0  0  0  0  0  0  0  0  0  0
   36.8720   32.4940   36.2900 H   0  0  0  0  0  0  0  0  0  0  0  0
  1  4  1  1  0  0  0
  2  3  1  0  0  0  0
  2  6  1  0  0  0  0
  2  1  1  0  0  0  0
  3  7  1  6  0  0  0
  3 24  1  0  0  0  0
  3  1  1  0  0  0  0
  5  2  1  0  0  0  0
  8 16  1  0  0  0  0
  8 12  2  0  0  0  0
  9 10  2  0  0  0  0
  9  8  1  0  0  0  0
 10 11  1  0  0  0  0
 11 12  1  0  0  0  0
 11  1  1  0  0  0  0
 13  9  1  0  0  0  0
 14 10  1  0  0  0  0
 15 20  1  0  0  0  0
 15 21  1  0  0  0  0
 16 15  2  0  0  0  0
 17 18  2  0  0  0  0
 17 16  1  0  0  0  0
 18 19  1  0  0  0  0
 19 23  1  0  0  0  0
 19 20  2  0  0  0  0
 22 17  1  0  0  0  0
 24 28  1  0  0  0  0
 25 24  2  0  0  0  0
 25 26  1  0  0  0  0
 26 30  1  0  0  0  0
 26 27  1  0  0  0  0
 28 27  2  0  0  0  0
 29 25  1  0  0  0  0
 31 36  1  0  0  0  0
 31 37  1  1  0  0  0
 32 27  1  6  0  0  0
 32 31  1  0  0  0  0
 33 32  1  0  0  0  0
 33 34  1  0  0  0  0
 34 35  1  0  0  0  0
 35 39  1  1  0  0  0
 36 41  1  6  0  0  0
 36 35  1  0  0  0  0
 37 38  1  0  0  0  0
 39 40  1  0  0  0  0
 41 42  1  0  0  0  0
M  END
>  <minimizedAffinity>
-5.93644333

$$$$

 OpenBabel03272500493D

 42 46  0  0  1  0  0  0  0  0999 V2000
   37.0020   27.2760   32.2600 C   0  0  1  0  0  0  0  0  0  0  0  0
   38.1230   27.2690   31.1650 C   0  0  0  0  0  0  0  0  0  0  0  0
   38.4300   27.1620   32.6140 C   0  0  2  0  0  0  0  0  0  0  0  0
   36.3910   26.3740   32.3470 H   0  0  0  0  0  0  0  0  0  0  0  0
   38.2680   28.2180   30.6220 H   0  0  0  0  0  0  0  0  0  0  0  0
   38.1820   26.3130   30.5960 H   0  0  0  0  0  0  0  0  0  0  0  0
   38.9450   28.0500   33.0490 H   0  0  0  0  0  0  0  0  0  0  0  0
   35.4520   30.2860   33.5050 C   0  0  0  0  0  0  0  0  0  0  0  0
   35.2140   30.4250   32.1480 C   0  0  0  0  0  0  0  0  0  0  0  0
   35.7660   29.3070   31.4940 C   0  0  0  0  0  0  0  0  0  0  0  0
   36.3120   28.5410   32.4530 N   0  0  0  0  0  0  0  0  0  0  0  0
   36.1080   29.1430   33.5980 N   0  0  0  0  0  0  0  0  0  0  0  0
   34.6970   31.2360   31.6350 H   0  0  0  0  0  0  0  0  0  0  0  0
   35.7440   29.1210   30.4220 H   0  0  0  0  0  0  0  0  0  0  0  0
   33.8900   32.0590   34.3400 C   0  0  0  0  0  0  0  0  0  0  0  0
   35.0310   31.2400   34.4920 C   0  0  0  0  0  0  0  0  0  0  0  0
   35.7540   31.3920   35.6600 C   0  0  0  0  0  0  0  0  0  0  0  0
   35.3450   32.2980   36.5860 N   0  0  0  0  0  0  0  0  0  0  0  0
   34.2560   33.0550   36.4020 C   0  0  0  0  0  0  0  0  0  0  0  0
   33.5030   32.9410   35.2570 N   0  0  0  0  0  0  0  0  0  0  0  0
   33.3490   31.9080   33.4080 H   0  0  0  0  0  0  0  0  0  0  0  0
   36.6330   30.7850   35.8130 H   0  0  0  0  0  0  0  0  0  0  0  0
   33.9310   33.7810   37.1470 H   0  0  0  0  0  0  0  0  0  0  0  0
   38.9470   25.8740   33.1740 C   0  0  0  0  0  0  0  0  0  0  0  0
   40.1670   25.2930   32.8210 C   0  0  0  0  0  0  0  0  0  0  0  0
   40.2870   24.1360   33.5260 N   0  0  0  0  0  0  0  0  0  0  0  0
   39.1850   23.9980   34.2920 C   0  0  0  0  0  0  0  0  0  0  0  0
   38.3630   25.0530   34.0840 N   0  0  0  0  0  0  0  0  0  0  0  0
   40.9000   25.6740   32.1170 H   0  0  0  0  0  0  0  0  0  0  0  0
   41.1040   23.4810   33.4690 H   0  0  0  0  0  0  0  0  0  0  0  0
   39.5050   23.1150   36.5750 C   0  0  1  0  0  3  0  0  0  0  0  0
   38.9400   22.8420   35.2210 C   0  0  1  0  0  3  0  0  0  0  0  0
   37.5990   22.5510   35.2370 O   0  0  0  0  0  0  0  0  0  0  0  0
   37.1000   22.1390   36.4500 C   0  0  0  0  0  2  0  0  0  0  0  0
   37.2720   23.1230   37.5720 C   0  0  2  0  0  3  0  0  0  0  0  0
   38.5400   23.9090   37.4480 C   0  0  2  0  0  3  0  0  0  0  0  0
   39.9150   21.9950   37.2700 O   0  0  0  0  0  0  0  0  0  0  0  0
   40.8270   22.0750   37.6520 H   0  0  0  0  0  0  0  0  0  0  0  0
   37.2230   22.3810   38.7600 O   0  0  0  0  0  0  0  0  0  0  0  0
   38.0730   22.4190   39.2630 H   0  0  0  0  0  0  0  0  0  0  0  0
   38.3160   25.1680   36.8660 O   0  0  0  0  0  0  0  0  0  0  0  0
   37.4710   25.5780   37.1280 H   0  0  0  0  0  0  0  0  0  0  0  0
  1  4  1  1  0  0  0
  1 11  1  0  0  0  0
  1  3  1  0  0  0  0
  2  1  1  0  0  0  0
  2  3  1  0  0  0  0
  3  7  1  1  0  0  0
  3 24  1  0  0  0  0
  5  2  1  0  0  0  0
  6  2  1  0  0  0  0
  8 12  2  0  0  0  0
  8 16  1  0  0  0  0
  9  8  1  0  0  0  0
 10  9  2  0  0  0  0
 10 11  1  0  0  0  0
 11 12  1  0  0  0  0
 13  9  1  0  0  0  0
 14 10  1  0  0  0  0
 15 16  2  0  0  0  0
 15 20  1  0  0  0  0
 16 17  1  0  0  0  0
 17 22  1  0  0  0  0
 17 18  2  0  0  0  0
 19 18  1  0  0  0  0
 19 23  1  0  0  0  0
 20 19  2  0  0  0  0
 21 15  1  0  0  0  0
 24 28  1  0  0  0  0
 25 24  2  0  0  0  0
 25 26  1  0  0  0  0
 26 27  1  0  0  0  0
 28 27  2  0  0  0  0
 29 25  1  0  0  0  0
 30 26  1  0  0  0  0
 31 37  1  1  0  0  0
 31 36  1  0  0  0  0
 32 27  1  6  0  0  0
 32 33  1  0  0  0  0
 32 31  1  0  0  0  0
 33 34  1  0  0  0  0
 34 35  1  0  0  0  0
 35 39  1  1  0  0  0
 36 41  1  6  0  0  0
 36 35  1  0  0  0  0
 37 38  1  0  0  0  0
 39 40  1  0  0  0  0
 41 42  1  0  0  0  0
M  END
>  <minimizedAffinity>
-5.93314934

$$$$

 OpenBabel03272500493D

 42 46  0  0  1  0  0  0  0  0999 V2000
   38.2440   27.0200   34.1720 C   0  0  1  0  0  0  0  0  0  0  0  0
   38.1150   26.7510   32.6330 C   0  0  0  0  0  0  0  0  0  0  0  0
   36.9470   27.1130   33.4740 C   0  0  2  0  0  0  0  0  0  0  0  0
   38.7200   27.9570   34.4710 H   0  0  0  0  0  0  0  0  0  0  0  0
   38.2850   25.7090   32.3120 H   0  0  0  0  0  0  0  0  0  0  0  0
   38.5190   27.5770   32.0030 H   0  0  0  0  0  0  0  0  0  0  0  0
   36.2030   26.2940   33.6180 H   0  0  0  0  0  0  0  0  0  0  0  0
   39.6730   24.1640   35.8490 C   0  0  0  0  0  0  0  0  0  0  0  0
   38.4190   24.1970   36.4340 C   0  0  0  0  0  0  0  0  0  0  0  0
   37.7090   25.2790   35.8810 C   0  0  0  0  0  0  0  0  0  0  0  0
   38.5360   25.8580   34.9950 N   0  0  0  0  0  0  0  0  0  0  0  0
   39.6590   25.1830   35.0080 N   0  0  0  0  0  0  0  0  0  0  0  0
   38.0120   23.5260   37.1920 H   0  0  0  0  0  0  0  0  0  0  0  0
   36.6920   25.5710   36.1360 H   0  0  0  0  0  0  0  0  0  0  0  0
   41.8690   23.0340   35.4210 C   0  0  0  0  0  0  0  0  0  0  0  0
   40.6790   23.1900   36.1660 C   0  0  0  0  0  0  0  0  0  0  0  0
   40.5070   22.3460   37.2470 C   0  0  0  0  0  0  0  0  0  0  0  0
   41.4670   21.4280   37.5370 N   0  0  0  0  0  0  0  0  0  0  0  0
   42.5820   21.3140   36.8030 C   0  0  0  0  0  0  0  0  0  0  0  0
   42.7990   22.1310   35.7190 N   0  0  0  0  0  0  0  0  0  0  0  0
   41.9650   23.7180   34.5800 H   0  0  0  0  0  0  0  0  0  0  0  0
   39.6110   22.4320   37.8410 H   0  0  0  0  0  0  0  0  0  0  0  0
   43.3500   20.5770   37.0390 H   0  0  0  0  0  0  0  0  0  0  0  0
   36.2940   28.4510   33.3120 C   0  0  0  0  0  0  0  0  0  0  0  0
   36.4310   29.2620   32.1840 C   0  0  0  0  0  0  0  0  0  0  0  0
   35.7040   30.3910   32.4050 N   0  0  0  0  0  0  0  0  0  0  0  0
   35.1340   30.2890   33.6230 C   0  0  0  0  0  0  0  0  0  0  0  0
   35.4890   29.1090   34.1830 N   0  0  0  0  0  0  0  0  0  0  0  0
   37.0040   29.0550   31.2860 H   0  0  0  0  0  0  0  0  0  0  0  0
   35.6160   31.1900   31.7300 H   0  0  0  0  0  0  0  0  0  0  0  0
   34.1000   31.1250   35.7020 C   0  0  1  0  0  3  0  0  0  0  0  0
   34.2500   31.3400   34.2330 C   0  0  1  0  0  3  0  0  0  0  0  0
   34.7350   32.5830   33.9100 O   0  0  0  0  0  0  0  0  0  0  0  0
   34.5970   33.5410   34.8860 C   0  0  0  0  0  2  0  0  0  0  0  0
   35.2680   33.2170   36.1900 C   0  0  2  0  0  3  0  0  0  0  0  0
   35.2430   31.7520   36.4930 C   0  0  2  0  0  3  0  0  0  0  0  0
   32.9020   31.5600   36.2340 O   0  0  0  0  0  0  0  0  0  0  0  0
   32.4520   30.8860   36.8070 H   0  0  0  0  0  0  0  0  0  0  0  0
   34.6110   33.9720   37.1720 O   0  0  0  0  0  0  0  0  0  0  0  0
   34.1540   33.4040   37.8390 H   0  0  0  0  0  0  0  0  0  0  0  0
   36.4510   31.1270   36.1360 O   0  0  0  0  0  0  0  0  0  0  0  0
   37.2390   31.6790   36.2900 H   0  0  0  0  0  0  0  0  0  0  0  0
  1  4  1  1  0  0  0
  1 11  1  0  0  0  0
  2  3  1  0  0  0  0
  2  1  1  0  0  0  0
  3  7  1  1  0  0  0
  3  1  1  0  0  0  0
  5  2  1  0  0  0  0
  6  2  1  0  0  0  0
  8 16  1  0  0  0  0
  8  9  1  0  0  0  0
  9 13  1  0  0  0  0
 10 14  1  0  0  0  0
 10  9  2  0  0  0  0
 11 12  1  0  0  0  0
 11 10  1  0  0  0  0
 12  8  2  0  0  0  0
 15 20  2  0  0  0  0
 15 16  1  0  0  0  0
 16 17  2  0  0  0  0
 17 18  1  0  0  0  0
 17 22  1  0  0  0  0
 19 23  1  0  0  0  0
 19 18  2  0  0  0  0
 20 19  1  0  0  0  0
 21 15  1  0  0  0  0
 24  3  1  0  0  0  0
 24 28  1  0  0  0  0
 25 26  1  0  0  0  0
 25 24  2  0  0  0  0
 26 27  1  0  0  0  0
 27 28  2  0  0  0  0
 29 25  1  0  0  0  0
 30 26  1  0  0  0  0
 31 37  1  1  0  0  0
 31 36  1  0  0  0  0
 32 27  1  1  0  0  0
 32 31  1  0  0  0  0
 33 32  1  0  0  0  0
 33 34  1  0  0  0  0
 34 35  1  0  0  0  0
 35 36  1  0  0  0  0
 35 39  1  1  0  0  0
 36 41  1  6  0  0  0
 37 38  1  0  0  0  0
 39 40  1  0  0  0  0
 41 42  1  0  0  0  0
M  END
>  <minimizedAffinity>
-5.88343048

$$$$

 OpenBabel03272500493D

 42 46  0  0  1  0  0  0  0  0999 V2000
   38.2950   26.9840   34.6540 C   0  0  1  0  0  0  0  0  0  0  0  0
   38.5770   26.9750   33.1130 C   0  0  0  0  0  0  0  0  0  0  0  0
   37.2030   27.0740   33.6660 C   0  0  2  0  0  0  0  0  0  0  0  0
   38.5540   27.8960   35.1990 H   0  0  0  0  0  0  0  0  0  0  0  0
   38.9580   26.0250   32.7010 H   0  0  0  0  0  0  0  0  0  0  0  0
   39.0060   27.9310   32.7340 H   0  0  0  0  0  0  0  0  0  0  0  0
   36.5640   26.1760   33.4930 H   0  0  0  0  0  0  0  0  0  0  0  0
   39.5910   23.9030   36.0100 C   0  0  0  0  0  0  0  0  0  0  0  0
   38.3440   23.9360   36.6100 C   0  0  0  0  0  0  0  0  0  0  0  0
   37.6850   25.1030   36.1800 C   0  0  0  0  0  0  0  0  0  0  0  0
   38.5350   25.7310   35.3500 N   0  0  0  0  0  0  0  0  0  0  0  0
   39.6220   25.0040   35.2790 N   0  0  0  0  0  0  0  0  0  0  0  0
   37.9100   23.2100   37.2990 H   0  0  0  0  0  0  0  0  0  0  0  0
   36.6860   25.4160   36.4760 H   0  0  0  0  0  0  0  0  0  0  0  0
   40.7750   22.2430   37.4680 C   0  0  0  0  0  0  0  0  0  0  0  0
   40.5490   22.8530   36.2130 C   0  0  0  0  0  0  0  0  0  0  0  0
   41.3060   22.3920   35.1520 C   0  0  0  0  0  0  0  0  0  0  0  0
   42.2090   21.3980   35.3580 N   0  0  0  0  0  0  0  0  0  0  0  0
   42.3920   20.8470   36.5650 C   0  0  0  0  0  0  0  0  0  0  0  0
   41.6640   21.2710   37.6520 N   0  0  0  0  0  0  0  0  0  0  0  0
   40.1600   22.6350   38.2750 H   0  0  0  0  0  0  0  0  0  0  0  0
   41.1630   22.8330   34.1780 H   0  0  0  0  0  0  0  0  0  0  0  0
   43.1180   20.0500   36.7270 H   0  0  0  0  0  0  0  0  0  0  0  0
   36.4350   28.3520   33.5340 C   0  0  0  0  0  0  0  0  0  0  0  0
   36.0780   28.9350   32.3170 C   0  0  0  0  0  0  0  0  0  0  0  0
   35.4000   30.0810   32.5970 N   0  0  0  0  0  0  0  0  0  0  0  0
   35.3360   30.2100   33.9390 C   0  0  0  0  0  0  0  0  0  0  0  0
   35.9640   29.1600   34.5180 N   0  0  0  0  0  0  0  0  0  0  0  0
   36.2900   28.5640   31.3190 H   0  0  0  0  0  0  0  0  0  0  0  0
   35.0050   30.7360   31.8790 H   0  0  0  0  0  0  0  0  0  0  0  0
   33.1940   31.3510   34.3890 C   0  0  1  0  0  3  0  0  0  0  0  0
   34.6630   31.3520   34.6470 C   0  0  1  0  0  3  0  0  0  0  0  0
   34.9830   31.3080   35.9810 O   0  0  0  0  0  0  0  0  0  0  0  0
   33.9820   31.6970   36.8400 C   0  0  0  0  0  2  0  0  0  0  0  0
   32.7180   30.8910   36.7430 C   0  0  2  0  0  3  0  0  0  0  0  0
   32.4450   30.4290   35.3460 C   0  0  2  0  0  3  0  0  0  0  0  0
   32.5970   32.5950   34.4130 O   0  0  0  0  0  0  0  0  0  0  0  0
   32.0180   32.7750   33.6280 H   0  0  0  0  0  0  0  0  0  0  0  0
   31.6910   31.7050   37.2420 O   0  0  0  0  0  0  0  0  0  0  0  0
   31.0150   31.9210   36.5540 H   0  0  0  0  0  0  0  0  0  0  0  0
   32.8700   29.1050   35.1440 O   0  0  0  0  0  0  0  0  0  0  0  0
   32.7420   28.5290   35.9190 H   0  0  0  0  0  0  0  0  0  0  0  0
  1  4  1  1  0  0  0
  1 11  1  0  0  0  0
  2  3  1  0  0  0  0
  2  1  1  0  0  0  0
  3  7  1  6  0  0  0
  3  1  1  0  0  0  0
  5  2  1  0  0  0  0
  6  2  1  0  0  0  0
  8 16  1  0  0  0  0
  8  9  1  0  0  0  0
  9 13  1  0  0  0  0
 10 14  1  0  0  0  0
 10  9  2  0  0  0  0
 11 10  1  0  0  0  0
 12 11  1  0  0  0  0
 12  8  2  0  0  0  0
 15 20  1  0  0  0  0
 15 21  1  0  0  0  0
 16 15  2  0  0  0  0
 17 18  2  0  0  0  0
 17 16  1  0  0  0  0
 18 19  1  0  0  0  0
 19 23  1  0  0  0  0
 19 20  2  0  0  0  0
 22 17  1  0  0  0  0
 24  3  1  0  0  0  0
 24 28  1  0  0  0  0
 25 26  1  0  0  0  0
 25 24  2  0  0  0  0
 26 27  1  0  0  0  0
 27 28  2  0  0  0  0
 29 25  1  0  0  0  0
 30 26  1  0  0  0  0
 31 37  1  1  0  0  0
 31 32  1  0  0  0  0
 31 36  1  0  0  0  0
 32 27  1  6  0  0  0
 32 33  1  0  0  0  0
 33 34  1  0  0  0  0
 35 34  1  0  0  0  0
 35 39  1  6  0  0  0
 36 41  1  1  0  0  0
 36 35  1  0  0  0  0
 38 37  1  0  0  0  0
 40 39  1  0  0  0  0
 41 42  1  0  0  0  0
M  END
>  <minimizedAffinity>
-5.81841469

$$$$

 OpenBabel03272500493D

 42 46  0  0  1  0  0  0  0  0999 V2000
   38.2760   26.9010   34.3120 C   0  0  1  0  0  0  0  0  0  0  0  0
   38.4490   27.0530   35.8620 C   0  0  0  0  0  0  0  0  0  0  0  0
   37.9370   25.8050   35.2410 C   0  0  2  0  0  0  0  0  0  0  0  0
   39.1880   26.7920   33.7210 H   0  0  0  0  0  0  0  0  0  0  0  0
   37.7660   27.7660   36.3530 H   0  0  0  0  0  0  0  0  0  0  0  0
   39.5110   27.0140   36.1960 H   0  0  0  0  0  0  0  0  0  0  0  0
   36.8620   25.5900   35.4440 H   0  0  0  0  0  0  0  0  0  0  0  0
   35.4030   28.9560   33.5790 C   0  0  0  0  0  0  0  0  0  0  0  0
   35.8850   28.7340   32.3010 C   0  0  0  0  0  0  0  0  0  0  0  0
   37.0350   27.9280   32.4030 C   0  0  0  0  0  0  0  0  0  0  0  0
   37.2120   27.6910   33.7130 N   0  0  0  0  0  0  0  0  0  0  0  0
   36.2490   28.3020   34.3560 N   0  0  0  0  0  0  0  0  0  0  0  0
   35.4790   29.0990   31.3560 H   0  0  0  0  0  0  0  0  0  0  0  0
   37.6440   27.5800   31.5720 H   0  0  0  0  0  0  0  0  0  0  0  0
   33.1030   29.7840   33.0240 C   0  0  0  0  0  0  0  0  0  0  0  0
   34.2350   29.7390   33.8690 C   0  0  0  0  0  0  0  0  0  0  0  0
   34.1810   30.4990   35.0220 C   0  0  0  0  0  0  0  0  0  0  0  0
   33.0690   31.2360   35.2850 N   0  0  0  0  0  0  0  0  0  0  0  0
   32.0170   31.2500   34.4560 C   0  0  0  0  0  0  0  0  0  0  0  0
   32.0230   30.5100   33.2970 N   0  0  0  0  0  0  0  0  0  0  0  0
   33.1860   29.1720   32.1290 H   0  0  0  0  0  0  0  0  0  0  0  0
   35.0250   30.4920   35.6930 H   0  0  0  0  0  0  0  0  0  0  0  0
   31.1280   31.8420   34.6700 H   0  0  0  0  0  0  0  0  0  0  0  0
   38.7770   24.5660   35.2520 C   0  0  0  0  0  0  0  0  0  0  0  0
   38.2650   23.2670   35.2690 C   0  0  0  0  0  0  0  0  0  0  0  0
   39.3240   22.4130   35.2830 N   0  0  0  0  0  0  0  0  0  0  0  0
   40.4540   23.1490   35.2730 C   0  0  0  0  0  0  0  0  0  0  0  0
   40.1300   24.4620   35.2540 N   0  0  0  0  0  0  0  0  0  0  0  0
   37.2210   22.9680   35.2730 H   0  0  0  0  0  0  0  0  0  0  0  0
   39.2500   21.3660   35.2970 H   0  0  0  0  0  0  0  0  0  0  0  0
   42.4520   22.6660   36.6400 C   0  0  1  0  0  3  0  0  0  0  0  0
   41.8410   22.5690   35.2820 C   0  0  1  0  0  3  0  0  0  0  0  0
   41.7970   21.2860   34.7940 O   0  0  0  0  0  0  0  0  0  0  0  0
   42.6670   20.4010   35.3860 C   0  0  0  0  0  2  0  0  0  0  0  0
   42.4860   20.2310   36.8680 C   0  0  2  0  0  3  0  0  0  0  0  0
   42.0500   21.4980   37.5350 C   0  0  2  0  0  3  0  0  0  0  0  0
   43.8280   22.7810   36.6520 O   0  0  0  0  0  0  0  0  0  0  0  0
   44.1610   23.5190   37.2250 H   0  0  0  0  0  0  0  0  0  0  0  0
   43.7110   19.7660   37.3650 O   0  0  0  0  0  0  0  0  0  0  0  0
   44.1290   20.4040   37.9930 H   0  0  0  0  0  0  0  0  0  0  0  0
   40.6600   21.5260   37.7380 O   0  0  0  0  0  0  0  0  0  0  0  0
   40.2780   20.6590   37.9640 H   0  0  0  0  0  0  0  0  0  0  0  0
  1  4  1  6  0  0  0
  1  3  1  0  0  0  0
  1  2  1  0  0  0  0
  2  6  1  0  0  0  0
  2  5  1  0  0  0  0
  3 24  1  0  0  0  0
  3  7  1  1  0  0  0
  3  2  1  0  0  0  0
  8 16  1  0  0  0  0
  8 12  2  0  0  0  0
  9 10  2  0  0  0  0
  9  8  1  0  0  0  0
 10 11  1  0  0  0  0
 11  1  1  0  0  0  0
 11 12  1  0  0  0  0
 13  9  1  0  0  0  0
 14 10  1  0  0  0  0
 15 20  2  0  0  0  0
 15 16  1  0  0  0  0
 16 17  2  0  0  0  0
 17 18  1  0  0  0  0
 17 22  1  0  0  0  0
 19 23  1  0  0  0  0
 19 18  2  0  0  0  0
 20 19  1  0  0  0  0
 21 15  1  0  0  0  0
 24 28  1  0  0  0  0
 24 25  2  0  0  0  0
 25 29  1  0  0  0  0
 25 26  1  0  0  0  0
 26 30  1  0  0  0  0
 27 26  1  0  0  0  0
 28 27  2  0  0  0  0
 31 37  1  6  0  0  0
 31 36  1  0  0  0  0
 32 27  1  1  0  0  0
 32 31  1  0  0  0  0
 33 32  1  0  0  0  0
 33 34  1  0  0  0  0
 34 35  1  0  0  0  0
 35 39  1  1  0  0  0
 35 36  1  0  0  0  0
 36 41  1  6  0  0  0
 37 38  1  0  0  0  0
 39 40  1  0  0  0  0
 41 42  1  0  0  0  0
M  END
>  <minimizedAffinity>
-5.7498188

$$$$
