
 OpenBabel03272507333D

 39 42  0  0  1  0  0  0  0  0999 V2000
   33.0590   27.4540   48.1900 C   0  0  0  0  0  0  0  0  0  0  0  0
   31.8270   27.4000   48.5180 O   0  0  0  0  0  0  0  0  0  0  0  0
   35.8050   29.1070   49.7760 C   0  0  0  0  0  0  0  0  0  0  0  0
   34.7800   29.6310   50.5350 C   0  0  0  0  0  0  0  0  0  0  0  0
   33.5800   29.0860   50.0500 C   0  0  0  0  0  0  0  0  0  0  0  0
   33.9590   28.2580   49.0170 C   0  0  0  0  0  0  0  0  0  0  0  0
   35.2690   28.3020   48.8920 O   0  0  0  0  0  0  0  0  0  0  0  0
   34.8400   30.3360   51.3640 H   0  0  0  0  0  0  0  0  0  0  0  0
   32.5840   29.2520   50.3790 H   0  0  0  0  0  0  0  0  0  0  0  0
   37.1960   29.4600   50.0080 C   0  0  0  0  0  0  0  0  0  0  0  0
   37.8380   28.8530   50.8780 O   0  0  0  0  0  0  0  0  0  0  0  0
   37.7470   30.5100   49.1970 C   0  0  0  0  0  0  0  0  0  0  0  0
   38.0910   31.6890   49.8410 C   0  0  0  0  0  0  0  0  0  0  0  0
   38.6280   32.7340   49.0780 C   0  0  0  0  0  0  0  0  0  0  0  0
   38.7840   32.5300   47.7290 N   0  0  0  0  0  0  0  0  0  0  0  0
   38.4420   31.3830   47.1440 C   0  0  0  0  0  0  0  0  0  0  0  0
   37.9260   30.3720   47.8650 N   0  0  0  0  0  0  0  0  0  0  0  0
   37.9640   31.8320   50.8900 H   0  0  0  0  0  0  0  0  0  0  0  0
   38.9130   33.6770   49.5400 H   0  0  0  0  0  0  0  0  0  0  0  0
   38.5760   31.2520   46.0840 H   0  0  0  0  0  0  0  0  0  0  0  0
   33.5800   26.7110   46.9970 C   0  0  1  0  0  0  0  0  0  0  0  0
   33.7980   25.1920   47.3660 C   0  0  0  0  0  0  0  0  0  0  0  0
   32.7910   25.6450   46.3730 C   0  0  2  0  0  0  0  0  0  0  0  0
   34.5740   27.0950   46.6220 H   0  0  0  0  0  0  0  0  0  0  0  0
   33.5360   24.8730   48.3670 H   0  0  0  0  0  0  0  0  0  0  0  0
   34.6740   24.6980   46.9380 H   0  0  0  0  0  0  0  0  0  0  0  0
   31.7300   25.5910   46.7280 H   0  0  0  0  0  0  0  0  0  0  0  0
   34.1710   24.3930   44.8050 C   0  0  1  0  0  3  0  0  0  0  0  0
   33.0330   25.3110   44.9050 C   0  0  1  0  0  3  0  0  0  0  0  0
   31.8510   24.9620   44.3530 O   0  0  0  0  0  0  0  0  0  0  0  0
   31.7930   24.0330   43.3790 C   0  0  0  0  0  2  0  0  0  0  0  0
   33.0830   23.6830   42.6970 C   0  0  2  0  0  3  0  0  0  0  0  0
   34.0360   23.2770   43.8090 C   0  0  2  0  0  3  0  0  0  0  0  0
   35.3530   25.0790   44.4940 O   0  0  0  0  0  0  0  0  0  0  0  0
   36.1020   24.4270   44.5830 H   0  0  0  0  0  0  0  0  0  0  0  0
   33.5740   24.7650   41.9760 O   0  0  0  0  0  0  0  0  0  0  0  0
   33.7360   24.4350   41.0630 H   0  0  0  0  0  0  0  0  0  0  0  0
   33.4590   22.1590   44.4360 O   0  0  0  0  0  0  0  0  0  0  0  0
   33.2430   21.4750   43.7470 H   0  0  0  0  0  0  0  0  0  0  0  0
  1  2  2  0  0  0  0
  1  6  1  0  0  0  0
  3 10  1  0  0  0  0
  3  4  2  0  0  0  0
  4  8  1  0  0  0  0
  5  9  1  0  0  0  0
  5  4  1  0  0  0  0
  6  5  2  0  0  0  0
  7  6  1  0  0  0  0
  7  3  1  0  0  0  0
 10 11  2  0  0  0  0
 12 13  1  0  0  0  0
 12 10  1  0  0  0  0
 13 18  1  0  0  0  0
 14 19  1  0  0  0  0
 14 13  2  0  0  0  0
 15 14  1  0  0  0  0
 16 15  2  0  0  0  0
 16 17  1  0  0  0  0
 17 12  2  0  0  0  0
 20 16  1  0  0  0  0
 21 24  1  6  0  0  0
 21 22  1  0  0  0  0
 21  1  1  0  0  0  0
 22 25  1  0  0  0  0
 23 27  1  1  0  0  0
 23 21  1  0  0  0  0
 23 22  1  0  0  0  0
 26 22  1  0  0  0  0
 28 34  1  6  0  0  0
 28 29  1  0  0  0  0
 29 30  1  1  0  0  0
 29 23  1  0  0  0  0
 31 30  1  0  0  0  0
 32 36  1  1  0  0  0
 32 31  1  0  0  0  0
 32 33  1  0  0  0  0
 33 38  1  1  0  0  0
 33 28  1  0  0  0  0
 34 35  1  0  0  0  0
 37 36  1  0  0  0  0
 39 38  1  0  0  0  0
M  END
>  <minimizedAffinity>
-4.95818949

>  <minimizedRMSD>
0.41880551

$$$$
