
 OpenBabel03272508023D

 27 29  0  0  0  0  0  0  0  0999 V2000
   39.0080   30.8560   45.6460 C   0  0  0  0  0  0  0  0  0  0  0  0
   40.1970   31.4680   45.9260 C   0  0  0  0  0  0  0  0  0  0  0  0
   41.0660   31.3680   44.8420 C   0  0  0  0  0  0  0  0  0  0  0  0
   40.3420   30.6790   43.9260 N   0  0  0  0  0  0  0  0  0  0  0  0
   39.1340   30.3750   44.3890 N   0  0  0  0  0  0  0  0  0  0  0  0
   40.4960   31.9770   46.8340 H   0  0  0  0  0  0  0  0  0  0  0  0
   42.0540   31.6930   44.6410 H   0  0  0  0  0  0  0  0  0  0  0  0
   40.6190   30.2320   42.6010 C   0  0  0  0  0  0  0  0  0  0  0  0
   40.0500   30.4400   41.3520 C   0  0  0  0  0  0  0  0  0  0  0  0
   39.1930   31.0790   41.2850 H   0  0  0  0  0  0  0  0  0  0  0  0
   40.8240   29.6970   40.4850 C   0  0  0  0  0  0  0  0  0  0  0  0
   40.5730   29.6970   39.4130 H   0  0  0  0  0  0  0  0  0  0  0  0
   41.8110   29.0680   41.1510 N   0  0  0  0  0  0  0  0  0  0  0  0
   42.5250   28.4460   40.7050 H   0  0  0  0  0  0  0  0  0  0  0  0
   41.6790   29.3980   42.4410 N   0  0  0  0  0  0  0  0  0  0  0  0
   37.8400   30.7420   46.5190 C   0  0  0  0  0  0  0  0  0  0  0  0
   38.0190   31.0060   47.9010 C   0  0  0  0  0  0  0  0  0  0  0  0
   36.9190   30.9010   48.7420 C   0  0  0  0  0  0  0  0  0  0  0  0
   35.7240   30.5440   48.1730 N   0  0  0  0  0  0  0  0  0  0  0  0
   35.5800   30.2980   46.8600 C   0  0  0  0  0  0  0  0  0  0  0  0
   36.6530   30.4010   46.0420 N   0  0  0  0  0  0  0  0  0  0  0  0
   39.0080   31.2860   48.2760 H   0  0  0  0  0  0  0  0  0  0  0  0
   34.6460   30.0190   46.4160 H   0  0  0  0  0  0  0  0  0  0  0  0
   37.0800   31.1730   50.1900 C   0  0  0  0  0  0  0  0  0  0  0  0
   36.5560   32.4200   50.4020 F   0  0  0  0  0  0  0  0  0  0  0  0
   36.3930   30.2520   50.9810 F   0  0  0  0  0  0  0  0  0  0  0  0
   38.4230   31.1880   50.5650 F   0  0  0  0  0  0  0  0  0  0  0  0
  1  2  1  0  0  0  0
  1 16  1  0  0  0  0
  2  6  1  0  0  0  0
  3  2  2  0  0  0  0
  4  5  1  0  0  0  0
  4  3  1  0  0  0  0
  5  1  2  0  0  0  0
  7  3  1  0  0  0  0
  8  4  1  0  0  0  0
  9  8  1  0  0  0  0
 10  9  1  0  0  0  0
 11 13  1  0  0  0  0
 11  9  2  0  0  0  0
 12 11  1  0  0  0  0
 13 15  1  0  0  0  0
 14 13  1  0  0  0  0
 15  8  2  0  0  0  0
 16 17  1  0  0  0  0
 17 22  1  0  0  0  0
 17 18  2  0  0  0  0
 18 24  1  0  0  0  0
 19 18  1  0  0  0  0
 20 19  2  0  0  0  0
 21 16  2  0  0  0  0
 21 20  1  0  0  0  0
 23 20  1  0  0  0  0
 24 25  1  0  0  0  0
 24 27  1  0  0  0  0
 24 26  1  0  0  0  0
M  END
>  <minimizedAffinity>
-6.25814676

>  <minimizedRMSD>
0.938098848

$$$$
