
 OpenBabel03262523593D

 28 30  0  0  0  0  0  0  0  0999 V2000
   35.7110   30.6220   48.9020 C   0  0  0  0  0  0  0  0  0  0  0  0
   36.8410   30.7170   48.0650 C   0  0  0  0  0  0  0  0  0  0  0  0
   36.6640   30.4590   46.7180 C   0  0  0  0  0  0  0  0  0  0  0  0
   35.4150   30.1240   46.2540 N   0  0  0  0  0  0  0  0  0  0  0  0
   34.3550   30.0460   47.1020 C   0  0  0  0  0  0  0  0  0  0  0  0
   34.5010   30.2950   48.4290 N   0  0  0  0  0  0  0  0  0  0  0  0
   35.7800   30.8100   49.9580 H   0  0  0  0  0  0  0  0  0  0  0  0
   37.5190   30.5290   46.0800 H   0  0  0  0  0  0  0  0  0  0  0  0
   33.5420   27.0940   47.7160 Br  0  0  0  0  0  0  0  0  0  0  0  0
   32.5160   28.4210   46.8190 C   0  0  0  0  0  0  0  0  0  0  0  0
   33.0240   29.6930   46.6240 C   0  0  0  0  0  0  0  0  0  0  0  0
   32.2130   30.5910   45.9660 C   0  0  0  0  0  0  0  0  0  0  0  0
   30.9480   30.3140   45.4930 C   0  0  0  0  0  0  0  0  0  0  0  0
   30.4870   29.0150   45.7170 C   0  0  0  0  0  0  0  0  0  0  0  0
   31.2830   28.0760   46.3840 C   0  0  0  0  0  0  0  0  0  0  0  0
   32.6240   31.5970   45.8160 H   0  0  0  0  0  0  0  0  0  0  0  0
   30.3500   31.0550   44.9810 H   0  0  0  0  0  0  0  0  0  0  0  0
   29.4960   28.7400   45.3660 H   0  0  0  0  0  0  0  0  0  0  0  0
   30.8450   27.0980   46.5120 H   0  0  0  0  0  0  0  0  0  0  0  0
   38.0590   31.0540   48.5880 O   0  0  0  0  0  0  0  0  0  0  0  0
   38.6990   32.2440   48.3530 C   0  0  0  0  0  0  0  0  0  0  0  0
   38.7520   33.0810   49.4730 C   0  0  0  0  0  0  0  0  0  0  0  0
   38.4150   33.0420   50.5010 H   0  0  0  0  0  0  0  0  0  0  0  0
   39.4240   34.2550   49.1090 C   0  0  0  0  0  0  0  0  0  0  0  0
   39.6750   35.1470   49.6680 H   0  0  0  0  0  0  0  0  0  0  0  0
   39.7480   34.0880   47.8010 N   0  0  0  0  0  0  0  0  0  0  0  0
   40.2520   34.7160   47.1380 H   0  0  0  0  0  0  0  0  0  0  0  0
   39.3240   32.9140   47.3640 N   0  0  0  0  0  0  0  0  0  0  0  0
  1  7  1  0  0  0  0
  2 20  1  0  0  0  0
  2  1  2  0  0  0  0
  3  2  1  0  0  0  0
  4  3  2  0  0  0  0
  4  5  1  0  0  0  0
  5  6  2  0  0  0  0
  6  1  1  0  0  0  0
  8  3  1  0  0  0  0
 10  9  1  0  0  0  0
 11 10  1  0  0  0  0
 11  5  1  0  0  0  0
 12 11  2  0  0  0  0
 13 14  2  0  0  0  0
 13 12  1  0  0  0  0
 14 15  1  0  0  0  0
 15 19  1  0  0  0  0
 15 10  2  0  0  0  0
 16 12  1  0  0  0  0
 17 13  1  0  0  0  0
 18 14  1  0  0  0  0
 21 20  1  0  0  0  0
 21 22  1  0  0  0  0
 22 23  1  0  0  0  0
 24 22  2  0  0  0  0
 24 25  1  0  0  0  0
 26 24  1  0  0  0  0
 27 26  1  0  0  0  0
 28 26  1  0  0  0  0
 28 21  2  0  0  0  0
M  END
>  <minimizedAffinity>
-5.1277566

>  <minimizedRMSD>
3.84348893

$$$$
