
 OpenBabel03272510113D

 34 37  0  0  0  0  0  0  0  0999 V2000
   33.4510   28.5290   48.1900 C   0  0  0  0  0  0  0  0  0  0  0  0
   34.0630   28.0130   49.2770 C   0  0  0  0  0  0  0  0  0  0  0  0
   35.2970   28.4110   49.7500 C   0  0  0  0  0  0  0  0  0  0  0  0
   35.9820   29.3980   49.0970 C   0  0  0  0  0  0  0  0  0  0  0  0
   35.3450   29.9310   47.9690 C   0  0  0  0  0  0  0  0  0  0  0  0
   34.1430   29.5130   47.5470 N   0  0  0  0  0  0  0  0  0  0  0  0
   33.6000   27.2280   49.8600 H   0  0  0  0  0  0  0  0  0  0  0  0
   35.7790   27.9960   50.6170 H   0  0  0  0  0  0  0  0  0  0  0  0
   35.8490   30.7200   47.4150 H   0  0  0  0  0  0  0  0  0  0  0  0
   31.3720   27.1080   48.3180 C   0  0  0  0  0  0  0  0  0  0  0  0
   32.1640   28.1030   47.7100 C   0  0  0  0  0  0  0  0  0  0  0  0
   31.6300   28.6900   46.5710 C   0  0  0  0  0  0  0  0  0  0  0  0
   30.4090   28.3000   46.0990 N   0  0  0  0  0  0  0  0  0  0  0  0
   29.7060   27.3420   46.7290 C   0  0  0  0  0  0  0  0  0  0  0  0
   30.1740   26.7380   47.8400 N   0  0  0  0  0  0  0  0  0  0  0  0
   31.7690   26.6370   49.2070 H   0  0  0  0  0  0  0  0  0  0  0  0
   32.2220   29.4590   46.0850 H   0  0  0  0  0  0  0  0  0  0  0  0
   28.7740   27.1820   46.1990 H   0  0  0  0  0  0  0  0  0  0  0  0
   37.2280   29.9210   49.4280 O   0  0  0  0  0  0  0  0  0  0  0  0
   37.8520   30.8810   48.6310 C   0  0  0  0  0  0  0  0  0  0  0  0
   38.2640   32.0070   49.3540 C   0  0  0  0  0  0  0  0  0  0  0  0
   38.8690   32.8900   48.4610 C   0  0  0  0  0  0  0  0  0  0  0  0
   38.8020   32.2830   47.2690 N   0  0  0  0  0  0  0  0  0  0  0  0
   38.2120   31.1170   47.3700 N   0  0  0  0  0  0  0  0  0  0  0  0
   38.2200   32.3320   50.4050 H   0  0  0  0  0  0  0  0  0  0  0  0
   39.3320   33.8630   48.5310 H   0  0  0  0  0  0  0  0  0  0  0  0
   39.2590   32.7110   45.9890 C   0  0  0  0  0  0  0  0  0  0  0  0
   40.3650   33.3180   45.4290 C   0  0  0  0  0  0  0  0  0  0  0  0
   41.1590   33.5670   46.1200 H   0  0  0  0  0  0  0  0  0  0  0  0
   40.0950   33.4230   44.0750 C   0  0  0  0  0  0  0  0  0  0  0  0
   40.8530   33.8790   43.4490 H   0  0  0  0  0  0  0  0  0  0  0  0
   38.8720   32.8980   43.8430 N   0  0  0  0  0  0  0  0  0  0  0  0
   38.4700   32.8790   42.8650 H   0  0  0  0  0  0  0  0  0  0  0  0
   38.3710   32.4720   44.9840 N   0  0  0  0  0  0  0  0  0  0  0  0
  1  2  1  0  0  0  0
  2  3  2  0  0  0  0
  2  7  1  0  0  0  0
  3  8  1  0  0  0  0
  4 19  1  0  0  0  0
  4  3  1  0  0  0  0
  5  4  2  0  0  0  0
  6  5  1  0  0  0  0
  6  1  2  0  0  0  0
  9  5  1  0  0  0  0
 10 16  1  0  0  0  0
 11  1  1  0  0  0  0
 11 10  2  0  0  0  0
 12 11  1  0  0  0  0
 13 12  2  0  0  0  0
 13 14  1  0  0  0  0
 14 15  2  0  0  0  0
 15 10  1  0  0  0  0
 17 12  1  0  0  0  0
 18 14  1  0  0  0  0
 20 21  1  0  0  0  0
 20 19  1  0  0  0  0
 21 25  1  0  0  0  0
 22 26  1  0  0  0  0
 22 21  2  0  0  0  0
 23 24  1  0  0  0  0
 23 22  1  0  0  0  0
 24 20  2  0  0  0  0
 27 23  1  0  0  0  0
 28 27  1  0  0  0  0
 28 29  1  0  0  0  0
 30 28  2  0  0  0  0
 31 30  1  0  0  0  0
 32 30  1  0  0  0  0
 32 34  1  0  0  0  0
 33 32  1  0  0  0  0
 34 27  2  0  0  0  0
M  END
>  <minimizedAffinity>
-6.26868582

>  <minimizedRMSD>
1.09573483

$$$$
