
 OpenBabel03272508023D

 27 29  0  0  0  0  0  0  0  0999 V2000
   37.4810   30.9250   45.2850 C   0  0  0  0  0  0  0  0  0  0  0  0
   37.3850   31.9630   44.4020 C   0  0  0  0  0  0  0  0  0  0  0  0
   38.2630   31.7810   43.3360 C   0  0  0  0  0  0  0  0  0  0  0  0
   38.8690   30.6060   43.6290 N   0  0  0  0  0  0  0  0  0  0  0  0
   38.4180   30.0960   44.7700 N   0  0  0  0  0  0  0  0  0  0  0  0
   36.7450   32.8350   44.4550 H   0  0  0  0  0  0  0  0  0  0  0  0
   38.5010   32.3270   42.4600 H   0  0  0  0  0  0  0  0  0  0  0  0
   39.8690   29.8320   42.9690 C   0  0  0  0  0  0  0  0  0  0  0  0
   41.0730   30.1120   42.3370 C   0  0  0  0  0  0  0  0  0  0  0  0
   41.3980   31.1320   42.2960 H   0  0  0  0  0  0  0  0  0  0  0  0
   41.5400   28.8860   41.9110 C   0  0  0  0  0  0  0  0  0  0  0  0
   42.4990   28.8390   41.3720 H   0  0  0  0  0  0  0  0  0  0  0  0
   40.6830   27.9060   42.2550 N   0  0  0  0  0  0  0  0  0  0  0  0
   40.8230   26.8930   42.0390 H   0  0  0  0  0  0  0  0  0  0  0  0
   39.6650   28.4920   42.9000 N   0  0  0  0  0  0  0  0  0  0  0  0
   36.7320   30.7420   46.5290 C   0  0  0  0  0  0  0  0  0  0  0  0
   37.3160   31.2220   47.7280 C   0  0  0  0  0  0  0  0  0  0  0  0
   36.6170   31.0550   48.9160 C   0  0  0  0  0  0  0  0  0  0  0  0
   35.3990   30.4310   48.8470 N   0  0  0  0  0  0  0  0  0  0  0  0
   34.8670   29.9840   47.6970 C   0  0  0  0  0  0  0  0  0  0  0  0
   35.5490   30.1480   46.5400 N   0  0  0  0  0  0  0  0  0  0  0  0
   38.2950   31.7100   47.6980 H   0  0  0  0  0  0  0  0  0  0  0  0
   33.9150   29.4970   47.6440 H   0  0  0  0  0  0  0  0  0  0  0  0
   37.2070   31.5490   50.1840 C   0  0  0  0  0  0  0  0  0  0  0  0
   36.6440   32.7770   50.4100 F   0  0  0  0  0  0  0  0  0  0  0  0
   36.9180   30.7130   51.2620 F   0  0  0  0  0  0  0  0  0  0  0  0
   38.5890   31.7070   50.0820 F   0  0  0  0  0  0  0  0  0  0  0  0
  1 16  1  0  0  0  0
  2  6  1  0  0  0  0
  2  1  1  0  0  0  0
  3  4  1  0  0  0  0
  3  2  2  0  0  0  0
  4  5  1  0  0  0  0
  5  1  2  0  0  0  0
  7  3  1  0  0  0  0
  8  4  1  0  0  0  0
  9  8  1  0  0  0  0
 10  9  1  0  0  0  0
 11 13  1  0  0  0  0
 11  9  2  0  0  0  0
 12 11  1  0  0  0  0
 13 15  1  0  0  0  0
 14 13  1  0  0  0  0
 15  8  2  0  0  0  0
 16 21  2  0  0  0  0
 16 17  1  0  0  0  0
 17 18  2  0  0  0  0
 18 24  1  0  0  0  0
 19 18  1  0  0  0  0
 20 19  2  0  0  0  0
 21 20  1  0  0  0  0
 22 17  1  0  0  0  0
 23 20  1  0  0  0  0
 24 25  1  0  0  0  0
 24 26  1  0  0  0  0
 27 24  1  0  0  0  0
M  END
>  <minimizedAffinity>
-6.147964

>  <minimizedRMSD>
1.51168561

$$$$
