REMARK  Name = 
REMARK  8 active torsions:
REMARK  status: ('A' for Active; 'I' for Inactive)
REMARK    1  A    between atoms: C_1  and  C_7
REMARK    2  A    between atoms: C_6  and  N_13
REMARK    3  A    between atoms: N_13  and  S_14
REMARK    4  A    between atoms: S_14  and  O_15
REMARK    5  A    between atoms: S_14  and  O_16
REMARK    6  A    between atoms: S_14  and  O_17
REMARK    7  A    between atoms: O_16  and  C_37
REMARK    8  A    between atoms: O_17  and  C_18
REMARK                            x       y       z     vdW  Elec       q    Type
REMARK                         _______ _______ _______ _____ _____    ______ ____
ROOT
ATOM      1  C   UNL     1      37.431  31.314  45.386  0.00  0.00    +0.000 C 
ATOM      2  C   UNL     1      38.348  30.819  44.368  0.00  0.00    +0.000 C 
ATOM      3  C   UNL     1      39.666  30.312  44.943  0.00  0.00    +0.000 C 
ATOM      4  C   UNL     1      40.371  31.360  45.761  0.00  0.00    +0.000 C 
ATOM      5  C   UNL     1      39.446  32.221  46.570  0.00  0.00    +0.000 C 
ATOM      6  C   UNL     1      38.075  31.577  46.723  0.00  0.00    +0.000 C 
ATOM      7  H   UNL     1      37.022  32.309  45.036  0.00  0.00    +0.000 HD
ATOM      8  H   UNL     1      38.642  31.594  43.592  0.00  0.00    +0.000 HD
ATOM      9  H   UNL     1      37.980  29.973  43.773  0.00  0.00    +0.000 HD
ATOM     10  H   UNL     1      40.322  30.123  44.059  0.00  0.00    +0.000 HD
ATOM     11  H   UNL     1      39.553  29.333  45.454  0.00  0.00    +0.000 HD
ATOM     12  H   UNL     1      41.033  30.804  46.467  0.00  0.00    +0.000 HD
ATOM     13  H   UNL     1      41.059  31.996  45.158  0.00  0.00    +0.000 HD
ATOM     14  H   UNL     1      39.826  32.530  47.542  0.00  0.00    +0.000 HD
ATOM     15  H   UNL     1      39.271  33.147  45.950  0.00  0.00    +0.000 HD
ATOM     16  H   UNL     1      37.447  32.348  47.234  0.00  0.00    +0.000 HD
ENDROOT
BRANCH   1  17
ATOM     17  C   UNL     1      36.250  30.485  45.635  0.00  0.00    +0.000 A 
ATOM     18  C   UNL     1      35.865  29.696  44.544  0.00  0.00    +0.000 A 
ATOM     19  C   UNL     1      34.760  28.876  44.727  0.00  0.00    +0.000 A 
ATOM     20  N   UNL     1      34.112  28.875  45.929  0.00  0.00    +0.000 NA
ATOM     21  C   UNL     1      34.515  29.650  46.950  0.00  0.00    +0.000 A 
ATOM     22  N   UNL     1      35.552  30.412  46.763  0.00  0.00    +0.000 NA
ATOM     23  H   UNL     1      36.191  29.538  43.538  0.00  0.00    +0.000 HD
ATOM     24  H   UNL     1      34.287  28.190  44.042  0.00  0.00    +0.000 HD
ATOM     25  H   UNL     1      33.989  29.640  47.901  0.00  0.00    +0.000 HD
ENDBRANCH   1  17
BRANCH   6  26
ATOM     26  N   UNL     1      38.227  30.521  47.619  0.00  0.00    +0.000 NA
ATOM     27  H   UNL     1      37.847  29.623  47.247  0.00  0.00    +0.000 HD
BRANCH  26  28
ATOM     28  S   UNL     1      37.669  30.735  49.197  0.00  0.00    +0.000 S 
BRANCH  28  29
ATOM     29  O   UNL     1      38.897  30.972  50.057  0.00  0.00    +0.000 OA
ATOM     30  H   UNL     1      39.505  30.285  50.425  0.00  0.00    +0.000 HD
ENDBRANCH  28  29
BRANCH  28  31
ATOM     31  O   UNL     1      36.766  31.917  49.352  0.00  0.00    +0.000 OA
BRANCH  31  32
ATOM     32  C   UNL     1      36.752  33.144  49.999  0.00  0.00    +0.000 A 
ATOM     33  C   UNL     1      38.008  33.729  50.180  0.00  0.00    +0.000 A 
ATOM     34  H   UNL     1      39.028  33.435  49.923  0.00  0.00    +0.000 HD
ATOM     35  C   UNL     1      37.801  34.934  50.835  0.00  0.00    +0.000 A 
ATOM     36  H   UNL     1      38.527  35.692  51.160  0.00  0.00    +0.000 HD
ATOM     37  N   UNL     1      36.473  35.007  51.007  0.00  0.00    +0.000 N 
ATOM     38  H   UNL     1      35.920  35.768  51.463  0.00  0.00    +0.000 HD
ATOM     39  N   UNL     1      35.839  33.964  50.522  0.00  0.00    +0.000 NA
ENDBRANCH  31  32
ENDBRANCH  28  31
BRANCH  28  40
ATOM     40  O   UNL     1      36.921  29.371  49.826  0.00  0.00    +0.000 OA
BRANCH  40  41
ATOM     41  C   UNL     1      36.787  29.419  51.203  0.00  0.00    +0.000 C 
ATOM     42  F   UNL     1      37.750  28.639  51.788  0.00  0.00    +0.000 F 
ATOM     43  F   UNL     1      37.018  30.723  51.599  0.00  0.00    +0.000 F 
ATOM     44  F   UNL     1      35.511  29.110  51.644  0.00  0.00    +0.000 F 
ENDBRANCH  40  41
ENDBRANCH  28  40
ENDBRANCH  26  28
ENDBRANCH   6  26
TORSDOF 8
