
     RDKit          3D

 28 30  0  0  0  0  0  0  0  0999 V2000
   38.4120   30.6081   46.7914 Cl  0  0  0  0  0  0  0  0  0  0  0  0
   38.8316   32.0528   47.6950 C   0  0  0  0  0  0  0  0  0  0  0  0
   38.3316   32.2089   48.9586 C   0  0  0  0  0  0  0  0  0  0  0  0
   38.7073   33.3657   49.6047 C   0  0  0  0  0  0  0  0  0  0  0  0
   39.5403   34.2851   48.9767 C   0  0  0  0  0  0  0  0  0  0  0  0
   40.0129   34.0790   47.7091 C   0  0  0  0  0  0  0  0  0  0  0  0
   39.6456   32.9194   47.0414 C   0  0  0  0  0  0  0  0  0  0  0  0
   37.9408   30.4213   50.6506 C   0  0  0  0  0  0  0  0  0  0  0  0
   37.4550   31.2395   49.6170 C   0  0  0  0  0  0  0  0  0  0  0  0
   36.1315   31.0978   49.2473 C   0  0  0  0  0  0  0  0  0  0  0  0
   35.3755   30.1821   49.8973 N   0  0  0  0  0  0  0  0  0  0  0  0
   35.8558   29.4052   50.8862 C   0  0  0  0  0  0  0  0  0  0  0  0
   37.1342   29.5274   51.2585 N   0  0  0  0  0  0  0  0  0  0  0  0
   40.1470   32.7578   45.7681 O   0  0  0  0  0  0  0  0  0  0  0  0
   38.3794   33.6075   50.6080 H   0  0  0  0  0  0  0  0  0  0  0  0
   39.8309   35.1972   49.4984 H   0  0  0  0  0  0  0  0  0  0  0  0
   40.6606   34.8363   47.2741 H   0  0  0  0  0  0  0  0  0  0  0  0
   38.9838   30.5117   50.9640 H   0  0  0  0  0  0  0  0  0  0  0  0
   35.7161   31.6992   48.4648 H   0  0  0  0  0  0  0  0  0  0  0  0
   35.2760   28.6704   51.4183 H   0  0  0  0  0  0  0  0  0  0  0  0
   39.4333   32.6328   44.6105 C   0  0  0  0  0  0  0  0  0  0  0  0
   38.1536   32.8412   44.1551 C   0  0  0  0  0  0  0  0  0  0  0  0
   37.4243   33.2174   44.8575 H   0  0  0  0  0  0  0  0  0  0  0  0
   38.0547   32.5116   42.8237 C   0  0  0  0  0  0  0  0  0  0  0  0
   37.1544   32.5865   42.2346 H   0  0  0  0  0  0  0  0  0  0  0  0
   39.2847   32.1101   42.5067 N   0  0  0  0  0  0  0  0  0  0  0  0
   39.5442   31.7825   41.5290 H   0  0  0  0  0  0  0  0  0  0  0  0
   40.1229   32.1666   43.5286 N   0  0  0  0  0  0  0  0  0  0  0  0
  1  2  1  0
  2  3  2  0
  3  4  1  0
  3  9  1  0
  5  4  2  0
  6  5  1  0
  7  2  1  0
  7  6  2  0
  8 13  2  0
  9  8  1  0
 10  9  2  0
 10 11  1  0
 11 12  2  0
 12 13  1  0
 14  7  1  0
  4 15  1  0
  5 16  1  0
  6 17  1  0
  8 18  1  0
 10 19  1  0
 12 20  1  0
 21 22  1  0
 22 23  1  0
 22 24  2  0
 24 25  1  0
 24 26  1  0
 26 27  1  0
 26 28  1  0
 28 21  2  0
 14 21  1  0
M  ISO  8  15  14  16  14  17  14  18  14  19  14  20  14  23  15  25  16
M  ISO  1  27   5
M  END
>  <DihAtoms>  (1) 
6,13,20,21

>  <DihDeg>  (1) 
0.21899627818085857

$$$$
