
     RDKit          3D

 45 49  0  0  0  0  0  0  0  0999 V2000
   38.1200   30.1464   47.4865 F   0  0  0  0  0  0  0  0  0  0  0  0
   38.3740   31.3890   47.9772 C   0  0  0  0  0  0  0  0  0  0  0  0
   37.7186   31.8326   49.0867 C   0  0  0  0  0  0  0  0  0  0  0  0
   38.0247   33.0940   49.5253 C   0  0  0  0  0  0  0  0  0  0  0  0
   38.9477   33.9053   48.8985 C   0  0  0  0  0  0  0  0  0  0  0  0
   39.6019   33.4312   47.7707 C   0  0  0  0  0  0  0  0  0  0  0  0
   39.3077   32.1573   47.3089 C   0  0  0  0  0  0  0  0  0  0  0  0
   36.0820   29.3650   51.4396 C   0  0  0  0  0  0  0  0  0  0  0  0
   37.0495   30.2199   50.8580 C   0  0  0  0  0  0  0  0  0  0  0  0
   36.7490   30.9395   49.7182 C   0  0  0  0  0  0  0  0  0  0  0  0
   35.4873   30.7901   49.1827 N   0  0  0  0  0  0  0  0  0  0  0  0
   34.5820   29.9783   49.7428 C   0  0  0  0  0  0  0  0  0  0  0  0
   34.8653   29.2803   50.8436 N   0  0  0  0  0  0  0  0  0  0  0  0
   39.2825   31.8943   44.9422 C   0  0  0  0  0  0  0  0  0  0  0  0
   38.1910   32.5469   45.0534 O   0  0  0  0  0  0  0  0  0  0  0  0
   39.9597   31.6342   46.1500 N   0  0  0  0  0  0  0  0  0  0  0  0
   39.1848   32.1931   42.5526 C   0  0  0  0  0  0  0  0  0  0  0  0
   39.7166   31.4892   43.6118 C   0  0  0  0  0  0  0  0  0  0  0  0
   40.6104   30.4610   43.4605 C   0  0  0  0  0  0  0  0  0  0  0  0
   41.0089   30.1007   42.1821 C   0  0  0  0  0  0  0  0  0  0  0  0
   41.8451   29.1667   41.7300 N   0  0  0  0  0  0  0  0  0  0  0  0
   41.8667   29.2521   40.4059 C   0  0  0  0  0  0  0  0  0  0  0  0
   41.0394   30.2462   40.0071 N   0  0  0  0  0  0  0  0  0  0  0  0
   40.4775   30.8058   41.1138 C   0  0  0  0  0  0  0  0  0  0  0  0
   39.5781   31.8399   41.2539 C   0  0  0  0  0  0  0  0  0  0  0  0
   39.0574   32.5280   40.1892 O   0  0  0  0  0  0  0  0  0  0  0  0
   37.4991   33.4491   50.4146 H   0  0  0  0  0  0  0  0  0  0  0  0
   39.1187   34.8855   49.3231 H   0  0  0  0  0  0  0  0  0  0  0  0
   40.3231   34.0636   47.2800 H   0  0  0  0  0  0  0  0  0  0  0  0
   36.4584   28.8751   52.3158 H   0  0  0  0  0  0  0  0  0  0  0  0
   38.0447   30.3658   51.2429 H   0  0  0  0  0  0  0  0  0  0  0  0
   33.5877   29.8547   49.3285 H   0  0  0  0  0  0  0  0  0  0  0  0
   40.8472   31.1007   46.0927 H   0  0  0  0  0  0  0  0  0  0  0  0
   38.4834   32.9950   42.7330 H   0  0  0  0  0  0  0  0  0  0  0  0
   40.9906   29.9472   44.3391 H   0  0  0  0  0  0  0  0  0  0  0  0
   42.3670   28.5088   42.3441 H   0  0  0  0  0  0  0  0  0  0  0  0
   42.4656   28.6116   39.7466 H   0  0  0  0  0  0  0  0  0  0  0  0
   38.1683   33.5570   40.2126 C   0  0  0  0  0  0  0  0  0  0  0  0
   37.8705   34.0049   38.9176 C   0  0  0  0  0  0  0  0  0  0  0  0
   38.1523   33.7605   37.8786 H   0  0  0  0  0  0  0  0  0  0  0  0
   36.9653   35.0468   39.0125 C   0  0  0  0  0  0  0  0  0  0  0  0
   36.4638   35.6851   38.2955 H   0  0  0  0  0  0  0  0  0  0  0  0
   36.7675   35.1704   40.3470 N   0  0  0  0  0  0  0  0  0  0  0  0
   36.1310   35.8706   40.8229 H   0  0  0  0  0  0  0  0  0  0  0  0
   37.4583   34.3123   41.0689 N   0  0  0  0  0  0  0  0  0  0  0  0
  1  2  1  0
  2  3  2  0
  3  4  1  0
  3 10  1  0
  5  4  2  0
  6  5  1  0
  7  6  2  0
  7  2  1  0
  9  8  2  0
 10  9  1  0
 11 10  2  0
 11 12  1  0
 12 13  2  0
 13  8  1  0
 14 15  2  0
 14 16  1  0
 16  7  1  0
 17 18  2  0
 18 14  1  0
 19 18  1  0
 20 19  2  0
 21 20  1  0
 22 21  1  0
 23 22  2  0
 23 24  1  0
 24 25  2  0
 24 20  1  0
 25 17  1  0
 26 25  1  0
  4 27  1  0
  5 28  1  0
  6 29  1  0
  8 30  1  0
  9 31  1  0
 12 32  1  0
 16 33  1  0
 17 34  1  0
 19 35  1  0
 21 36  1  0
 22 37  1  0
 38 39  1  0
 39 40  1  0
 39 41  2  0
 41 42  1  0
 41 43  1  0
 43 44  1  0
 43 45  1  0
 45 38  2  0
 26 38  1  0
M  ISO  8  27  14  28  14  29  14  30  14  31  14  32  14  34  14  35  14
M  ISO  5  36   9  37  14  40  15  42  16  44   5
M  END
>  <DihAtoms>  (1) 
24,25,37,38

>  <DihDeg>  (1) 
179.99956814143835

$$$$
