REMARK  Name = 
REMARK  3 active torsions:
REMARK  status: ('A' for Active; 'I' for Inactive)
REMARK    1  A    between atoms: C_3  and  C_12
REMARK    2  A    between atoms: C_9  and  O_14
REMARK    3  A    between atoms: O_14  and  C_21
REMARK                            x       y       z     vdW  Elec       q    Type
REMARK                         _______ _______ _______ _____ _____    ______ ____
ROOT
ATOM      1  C   UNL     1      37.862  33.240  49.467  0.00  0.00    +0.000 A 
ATOM      2  C   UNL     1      38.891  33.276  48.506  0.00  0.00    +0.000 A 
ATOM      3  C   UNL     1      38.940  32.249  47.581  0.00  0.00    +0.000 A 
ATOM      4  N   UNL     1      38.000  31.248  47.634  0.00  0.00    +0.000 NA
ATOM      5  C   UNL     1      37.026  31.258  48.582  0.00  0.00    +0.000 A 
ATOM      6  N   UNL     1      36.954  32.255  49.502  0.00  0.00    +0.000 NA
ATOM      7  H   UNL     1      37.767  34.008  50.214  0.00  0.00    +0.000 HD
ATOM      8  H   UNL     1      39.720  32.273  46.850  0.00  0.00    +0.000 HD
ENDROOT
BRANCH   5  11
ATOM      9 BR   UNL     1      37.272  29.452  51.118  0.00  0.00    +0.000 Br
ATOM     10  C   UNL     1      35.996  29.319  49.714  0.00  0.00    +0.000 A 
ATOM     11  C   UNL     1      36.021  30.204  48.651  0.00  0.00    +0.000 A 
ATOM     12  C   UNL     1      35.060  30.035  47.679  0.00  0.00    +0.000 A 
ATOM     13  C   UNL     1      34.087  29.058  47.692  0.00  0.00    +0.000 A 
ATOM     14  C   UNL     1      34.109  28.194  48.788  0.00  0.00    +0.000 A 
ATOM     15  C   UNL     1      35.071  28.336  49.795  0.00  0.00    +0.000 A 
ATOM     16  H   UNL     1      35.088  30.741  46.840  0.00  0.00    +0.000 HD
ATOM     17  H   UNL     1      33.353  28.967  46.903  0.00  0.00    +0.000 HD
ATOM     18  H   UNL     1      33.365  27.404  48.851  0.00  0.00    +0.000 HD
ATOM     19  H   UNL     1      35.011  27.623  50.603  0.00  0.00    +0.000 HD
ENDBRANCH   5  11
BRANCH   2  20
ATOM     20  O   UNL     1      39.798  34.300  48.505  0.00  0.00    +0.000 OA
BRANCH  20  21
ATOM     21  C   UNL     1      39.641  35.472  47.810  0.00  0.00    +0.000 A 
ATOM     22  C   UNL     1      40.437  35.553  46.662  0.00  0.00    +0.000 A 
ATOM     23  H   UNL     1      41.163  34.923  46.163  0.00  0.00    +0.000 HD
ATOM     24  C   UNL     1      40.189  36.784  46.045  0.00  0.00    +0.000 A 
ATOM     25  H   UNL     1      40.590  37.237  45.147  0.00  0.00    +0.000 HD
ATOM     26  N   UNL     1      39.265  37.396  46.829  0.00  0.00    +0.000 N 
ATOM     27  H   UNL     1      38.801  38.326  46.738  0.00  0.00    +0.000 HD
ATOM     28  N   UNL     1      38.947  36.627  47.857  0.00  0.00    +0.000 NA
ENDBRANCH  20  21
ENDBRANCH   2  20
TORSDOF 3
