
 OpenBabel03272502263D

 39 42  0  0  0  0  0  0  0  0999 V2000
   37.6670   30.2490   51.0180 C   0  0  0  0  0  0  0  0  0  0  0  0
   38.1350   30.8190   49.8160 C   0  0  0  0  0  0  0  0  0  0  0  0
   37.4330   30.5290   48.6550 C   0  0  0  0  0  0  0  0  0  0  0  0
   36.3640   29.7310   48.7580 N   0  0  0  0  0  0  0  0  0  0  0  0
   35.9240   29.1930   49.9050 C   0  0  0  0  0  0  0  0  0  0  0  0
   36.5760   29.4530   51.0370 N   0  0  0  0  0  0  0  0  0  0  0  0
   38.2250   30.4830   51.9260 H   0  0  0  0  0  0  0  0  0  0  0  0
   39.0040   31.4600   49.7640 H   0  0  0  0  0  0  0  0  0  0  0  0
   37.8100   31.0600   47.3710 C   0  0  0  0  0  0  0  0  0  0  0  0
   37.0750   30.7410   46.2320 C   0  0  0  0  0  0  0  0  0  0  0  0
   37.3820   31.2220   44.9830 C   0  0  0  0  0  0  0  0  0  0  0  0
   38.4430   32.0450   44.8370 N   0  0  0  0  0  0  0  0  0  0  0  0
   39.1410   32.3430   45.9460 C   0  0  0  0  0  0  0  0  0  0  0  0
   38.8640   31.8860   47.1860 N   0  0  0  0  0  0  0  0  0  0  0  0
   36.2170   30.0710   46.3670 H   0  0  0  0  0  0  0  0  0  0  0  0
   36.7590   30.9250   44.1490 H   0  0  0  0  0  0  0  0  0  0  0  0
   40.3120   33.2460   45.8150 C   0  0  0  0  0  0  0  0  0  0  0  0
   40.3960   33.9910   47.0130 F   0  0  0  0  0  0  0  0  0  0  0  0
   41.4580   32.5560   45.5660 F   0  0  0  0  0  0  0  0  0  0  0  0
   40.1120   34.2130   44.8440 F   0  0  0  0  0  0  0  0  0  0  0  0
   34.7970   28.3860   49.8350 O   0  0  0  0  0  0  0  0  0  0  0  0
   33.6010   26.7040   46.7850 N   0  0  0  0  0  0  0  0  0  0  0  0
   34.1560   26.8120   47.9990 C   0  0  0  0  0  0  0  0  0  0  0  0
   34.2600   28.0570   48.5970 C   0  0  0  0  0  0  0  0  0  0  0  0
   33.7830   29.1650   47.9130 C   0  0  0  0  0  0  0  0  0  0  0  0
   33.7760   30.3790   48.2680 O   0  0  0  0  0  0  0  0  0  0  0  0
   33.2310   29.0100   46.6930 N   0  0  0  0  0  0  0  0  0  0  0  0
   33.1370   27.7760   46.1210 C   0  0  0  0  0  0  0  0  0  0  0  0
   32.6290   27.5770   44.9810 O   0  0  0  0  0  0  0  0  0  0  0  0
   33.5760   25.7200   46.4380 H   0  0  0  0  0  0  0  0  0  0  0  0
   34.5470   26.0160   48.5930 H   0  0  0  0  0  0  0  0  0  0  0  0
   32.7090   30.0760   45.9000 C   0  0  0  0  0  0  0  0  0  0  0  0
   32.2730   29.7960   44.5990 C   0  0  0  0  0  0  0  0  0  0  0  0
   32.2450   28.8740   44.0240 H   0  0  0  0  0  0  0  0  0  0  0  0
   31.8310   31.0330   44.1130 C   0  0  0  0  0  0  0  0  0  0  0  0
   31.4110   31.2300   43.1170 H   0  0  0  0  0  0  0  0  0  0  0  0
   32.0000   31.9750   45.0750 N   0  0  0  0  0  0  0  0  0  0  0  0
   31.7450   32.9790   44.9480 H   0  0  0  0  0  0  0  0  0  0  0  0
   32.5340   31.3840   46.1550 N   0  0  0  0  0  0  0  0  0  0  0  0
  1  6  1  0  0  0  0
  1  7  1  0  0  0  0
  2  1  2  0  0  0  0
  3  4  2  0  0  0  0
  3  2  1  0  0  0  0
  4  5  1  0  0  0  0
  5  6  2  0  0  0  0
  8  2  1  0  0  0  0
  9  3  1  0  0  0  0
 10 15  1  0  0  0  0
 10  9  2  0  0  0  0
 11 10  1  0  0  0  0
 12 11  2  0  0  0  0
 12 13  1  0  0  0  0
 13 14  2  0  0  0  0
 14  9  1  0  0  0  0
 16 11  1  0  0  0  0
 17 13  1  0  0  0  0
 17 18  1  0  0  0  0
 19 17  1  0  0  0  0
 20 17  1  0  0  0  0
 21  5  1  0  0  0  0
 22 23  1  0  0  0  0
 23 31  1  0  0  0  0
 23 24  2  0  0  0  0
 24 21  1  0  0  0  0
 25 26  2  0  0  0  0
 25 24  1  0  0  0  0
 27 25  1  0  0  0  0
 28 27  1  0  0  0  0
 28 22  1  0  0  0  0
 29 28  2  0  0  0  0
 30 22  1  0  0  0  0
 32 39  2  0  0  0  0
 32 27  1  0  0  0  0
 33 32  1  0  0  0  0
 34 33  1  0  0  0  0
 35 33  2  0  0  0  0
 35 37  1  0  0  0  0
 36 35  1  0  0  0  0
 37 39  1  0  0  0  0
 38 37  1  0  0  0  0
M  END
>  <minimizedAffinity>
-7.06763792

>  <minimizedRMSD>
1.0198493

$$$$
