
 OpenBabel03272502263D

 29 31  0  0  0  0  0  0  0  0999 V2000
   38.2950   24.8110   31.4030 C   0  0  0  0  0  0  0  0  0  0  0  0
   38.9530   24.5460   32.6280 C   0  0  0  0  0  0  0  0  0  0  0  0
   38.3990   23.5850   33.4630 C   0  0  0  0  0  0  0  0  0  0  0  0
   37.2730   22.9690   33.0490 N   0  0  0  0  0  0  0  0  0  0  0  0
   36.6610   23.2340   31.8780 C   0  0  0  0  0  0  0  0  0  0  0  0
   37.1830   24.1620   31.0590 N   0  0  0  0  0  0  0  0  0  0  0  0
   38.7870   25.5780   30.8000 H   0  0  0  0  0  0  0  0  0  0  0  0
   39.8540   25.0480   32.9490 H   0  0  0  0  0  0  0  0  0  0  0  0
   38.9680   23.2160   34.7380 C   0  0  0  0  0  0  0  0  0  0  0  0
   40.1080   22.4290   34.8160 C   0  0  0  0  0  0  0  0  0  0  0  0
   40.6860   22.0530   36.0140 C   0  0  0  0  0  0  0  0  0  0  0  0
   40.1170   22.4700   37.1720 N   0  0  0  0  0  0  0  0  0  0  0  0
   39.0210   23.2250   37.0770 C   0  0  0  0  0  0  0  0  0  0  0  0
   38.4310   23.6100   35.9210 N   0  0  0  0  0  0  0  0  0  0  0  0
   40.6180   22.0590   33.9390 H   0  0  0  0  0  0  0  0  0  0  0  0
   41.5650   21.4460   36.0630 H   0  0  0  0  0  0  0  0  0  0  0  0
   38.3700   23.7020   38.3310 C   0  0  0  0  0  0  0  0  0  0  0  0
   37.9760   25.0350   38.1340 F   0  0  0  0  0  0  0  0  0  0  0  0
   37.2970   22.9110   38.6650 F   0  0  0  0  0  0  0  0  0  0  0  0
   39.2530   23.7340   39.3860 F   0  0  0  0  0  0  0  0  0  0  0  0
   35.5160   22.5190   31.5940 O   0  0  0  0  0  0  0  0  0  0  0  0
   35.6070   21.1560   31.3790 C   0  0  0  0  0  0  0  0  0  0  0  0
   34.8040   20.4560   32.2880 C   0  0  0  0  0  0  0  0  0  0  0  0
   34.1270   20.6610   33.1140 H   0  0  0  0  0  0  0  0  0  0  0  0
   34.9370   19.0900   32.0220 C   0  0  0  0  0  0  0  0  0  0  0  0
   34.5540   18.1630   32.4100 H   0  0  0  0  0  0  0  0  0  0  0  0
   35.7920   18.9960   30.9910 N   0  0  0  0  0  0  0  0  0  0  0  0
   36.2010   18.2160   30.4400 H   0  0  0  0  0  0  0  0  0  0  0  0
   36.1660   20.1990   30.6360 N   0  0  0  0  0  0  0  0  0  0  0  0
  1  2  1  0  0  0  0
  2  8  1  0  0  0  0
  2  3  2  0  0  0  0
  3  9  1  0  0  0  0
  4  3  1  0  0  0  0
  5  4  2  0  0  0  0
  6  1  2  0  0  0  0
  6  5  1  0  0  0  0
  7  1  1  0  0  0  0
  9 10  2  0  0  0  0
  9 14  1  0  0  0  0
 10 11  1  0  0  0  0
 11 16  1  0  0  0  0
 11 12  2  0  0  0  0
 13 12  1  0  0  0  0
 13 17  1  0  0  0  0
 14 13  2  0  0  0  0
 15 10  1  0  0  0  0
 17 19  1  0  0  0  0
 17 20  1  0  0  0  0
 18 17  1  0  0  0  0
 21  5  1  0  0  0  0
 22 21  1  0  0  0  0
 22 23  1  0  0  0  0
 23 24  1  0  0  0  0
 25 23  2  0  0  0  0
 25 26  1  0  0  0  0
 27 25  1  0  0  0  0
 28 27  1  0  0  0  0
 29 27  1  0  0  0  0
 29 22  2  0  0  0  0
M  END
>  <minimizedAffinity>
-5.70456553

$$$$

 OpenBabel03272502263D

 29 31  0  0  0  0  0  0  0  0999 V2000
   41.2640   26.7290   34.4920 C   0  0  0  0  0  0  0  0  0  0  0  0
   40.1400   27.1320   33.7340 C   0  0  0  0  0  0  0  0  0  0  0  0
   39.1140   26.2130   33.5630 C   0  0  0  0  0  0  0  0  0  0  0  0
   39.2580   24.9990   34.1330 N   0  0  0  0  0  0  0  0  0  0  0  0
   40.3370   24.6320   34.8530 C   0  0  0  0  0  0  0  0  0  0  0  0
   41.3390   25.5100   35.0270 N   0  0  0  0  0  0  0  0  0  0  0  0
   42.0310   27.5020   34.5840 H   0  0  0  0  0  0  0  0  0  0  0  0
   40.0370   28.1070   33.2820 H   0  0  0  0  0  0  0  0  0  0  0  0
   37.9100   26.4940   32.8150 C   0  0  0  0  0  0  0  0  0  0  0  0
   37.4490   27.7930   32.6540 C   0  0  0  0  0  0  0  0  0  0  0  0
   36.3050   28.1060   31.9460 C   0  0  0  0  0  0  0  0  0  0  0  0
   35.5930   27.1020   31.3790 N   0  0  0  0  0  0  0  0  0  0  0  0
   36.0510   25.8590   31.5440 C   0  0  0  0  0  0  0  0  0  0  0  0
   37.1670   25.5190   32.2310 N   0  0  0  0  0  0  0  0  0  0  0  0
   37.9610   28.6450   33.0770 H   0  0  0  0  0  0  0  0  0  0  0  0
   35.9580   29.1110   31.8290 H   0  0  0  0  0  0  0  0  0  0  0  0
   35.2930   24.7300   30.9320 C   0  0  0  0  0  0  0  0  0  0  0  0
   34.4010   25.2680   29.9900 F   0  0  0  0  0  0  0  0  0  0  0  0
   36.1410   23.8200   30.3500 F   0  0  0  0  0  0  0  0  0  0  0  0
   34.5020   24.0850   31.8560 F   0  0  0  0  0  0  0  0  0  0  0  0
   40.3380   23.3550   35.3730 O   0  0  0  0  0  0  0  0  0  0  0  0
   39.8990   23.1540   36.6690 C   0  0  0  0  0  0  0  0  0  0  0  0
   38.6230   23.7030   36.8500 C   0  0  0  0  0  0  0  0  0  0  0  0
   37.8700   24.2400   36.2790 H   0  0  0  0  0  0  0  0  0  0  0  0
   38.2350   23.4690   38.1730 C   0  0  0  0  0  0  0  0  0  0  0  0
   37.3860   23.6740   38.8010 H   0  0  0  0  0  0  0  0  0  0  0  0
   39.2530   22.8050   38.7450 N   0  0  0  0  0  0  0  0  0  0  0  0
   39.4420   22.4170   39.6900 H   0  0  0  0  0  0  0  0  0  0  0  0
   40.2010   22.6350   37.8600 N   0  0  0  0  0  0  0  0  0  0  0  0
  1  7  1  0  0  0  0
  1  6  1  0  0  0  0
  2  1  2  0  0  0  0
  3  2  1  0  0  0  0
  3  4  2  0  0  0  0
  4  5  1  0  0  0  0
  5  6  2  0  0  0  0
  5 21  1  0  0  0  0
  8  2  1  0  0  0  0
  9  3  1  0  0  0  0
 10  9  1  0  0  0  0
 10 15  1  0  0  0  0
 11 10  2  0  0  0  0
 12 13  2  0  0  0  0
 12 11  1  0  0  0  0
 13 14  1  0  0  0  0
 14  9  2  0  0  0  0
 16 11  1  0  0  0  0
 17 13  1  0  0  0  0
 17 20  1  0  0  0  0
 18 17  1  0  0  0  0
 19 17  1  0  0  0  0
 21 22  1  0  0  0  0
 22 23  1  0  0  0  0
 22 29  2  0  0  0  0
 23 25  2  0  0  0  0
 24 23  1  0  0  0  0
 25 27  1  0  0  0  0
 25 26  1  0  0  0  0
 27 28  1  0  0  0  0
 29 27  1  0  0  0  0
M  END
>  <minimizedAffinity>
-5.63433075

$$$$

 OpenBabel03272502263D

 29 31  0  0  0  0  0  0  0  0999 V2000
   38.6330   24.4820   30.4880 C   0  0  0  0  0  0  0  0  0  0  0  0
   38.8890   25.0530   31.7570 C   0  0  0  0  0  0  0  0  0  0  0  0
   37.9710   24.8120   32.7700 C   0  0  0  0  0  0  0  0  0  0  0  0
   36.8990   24.0500   32.4760 N   0  0  0  0  0  0  0  0  0  0  0  0
   36.6710   23.5140   31.2600 C   0  0  0  0  0  0  0  0  0  0  0  0
   37.5490   23.7380   30.2680 N   0  0  0  0  0  0  0  0  0  0  0  0
   39.3960   24.7140   29.7410 H   0  0  0  0  0  0  0  0  0  0  0  0
   39.7520   25.6630   31.9800 H   0  0  0  0  0  0  0  0  0  0  0  0
   38.1110   25.3310   34.1110 C   0  0  0  0  0  0  0  0  0  0  0  0
   38.3140   26.6850   34.3410 C   0  0  0  0  0  0  0  0  0  0  0  0
   38.4520   27.2230   35.6060 C   0  0  0  0  0  0  0  0  0  0  0  0
   38.3860   26.3960   36.6790 N   0  0  0  0  0  0  0  0  0  0  0  0
   38.1910   25.0990   36.4370 C   0  0  0  0  0  0  0  0  0  0  0  0
   38.0520   24.5390   35.2120 N   0  0  0  0  0  0  0  0  0  0  0  0
   38.3780   27.4050   33.5390 H   0  0  0  0  0  0  0  0  0  0  0  0
   38.6080   28.2680   35.7720 H   0  0  0  0  0  0  0  0  0  0  0  0
   38.1130   24.1600   37.5940 C   0  0  0  0  0  0  0  0  0  0  0  0
   37.9640   24.9250   38.7620 F   0  0  0  0  0  0  0  0  0  0  0  0
   37.0740   23.2730   37.4460 F   0  0  0  0  0  0  0  0  0  0  0  0
   39.2850   23.4600   37.7640 F   0  0  0  0  0  0  0  0  0  0  0  0
   35.5280   22.7560   31.1150 O   0  0  0  0  0  0  0  0  0  0  0  0
   35.6300   21.3760   31.1040 C   0  0  0  0  0  0  0  0  0  0  0  0
   34.8070   20.8120   32.0870 C   0  0  0  0  0  0  0  0  0  0  0  0
   34.1100   21.1300   32.8580 H   0  0  0  0  0  0  0  0  0  0  0  0
   34.9530   19.4220   32.0280 C   0  0  0  0  0  0  0  0  0  0  0  0
   34.5640   18.5600   32.5380 H   0  0  0  0  0  0  0  0  0  0  0  0
   35.8330   19.1840   31.0420 N   0  0  0  0  0  0  0  0  0  0  0  0
   36.2590   18.3350   30.6210 H   0  0  0  0  0  0  0  0  0  0  0  0
   36.2110   20.3250   30.5230 N   0  0  0  0  0  0  0  0  0  0  0  0
  1  2  1  0  0  0  0
  2  8  1  0  0  0  0
  2  3  2  0  0  0  0
  3  9  1  0  0  0  0
  4  3  1  0  0  0  0
  5  4  2  0  0  0  0
  6  1  2  0  0  0  0
  6  5  1  0  0  0  0
  7  1  1  0  0  0  0
  9 10  2  0  0  0  0
  9 14  1  0  0  0  0
 10 11  1  0  0  0  0
 11 16  1  0  0  0  0
 11 12  2  0  0  0  0
 13 12  1  0  0  0  0
 13 17  1  0  0  0  0
 14 13  2  0  0  0  0
 15 10  1  0  0  0  0
 17 20  1  0  0  0  0
 17 18  1  0  0  0  0
 19 17  1  0  0  0  0
 21  5  1  0  0  0  0
 22 21  1  0  0  0  0
 22 23  1  0  0  0  0
 23 24  1  0  0  0  0
 25 23  2  0  0  0  0
 25 26  1  0  0  0  0
 27 25  1  0  0  0  0
 28 27  1  0  0  0  0
 29 27  1  0  0  0  0
 29 22  2  0  0  0  0
M  END
>  <minimizedAffinity>
-5.62574577

$$$$

 OpenBabel03272502263D

 29 31  0  0  0  0  0  0  0  0999 V2000
   37.8760   27.1840   31.9860 C   0  0  0  0  0  0  0  0  0  0  0  0
   38.2610   26.0120   32.6780 C   0  0  0  0  0  0  0  0  0  0  0  0
   37.8000   25.8480   33.9770 C   0  0  0  0  0  0  0  0  0  0  0  0
   37.0150   26.8170   34.4900 N   0  0  0  0  0  0  0  0  0  0  0  0
   36.6570   27.9280   33.8160 C   0  0  0  0  0  0  0  0  0  0  0  0
   37.0960   28.1020   32.5580 N   0  0  0  0  0  0  0  0  0  0  0  0
   38.2760   27.2450   30.9710 H   0  0  0  0  0  0  0  0  0  0  0  0
   38.8910   25.2430   32.2550 H   0  0  0  0  0  0  0  0  0  0  0  0
   38.1140   24.6990   34.7940 C   0  0  0  0  0  0  0  0  0  0  0  0
   38.4730   23.4860   34.2230 C   0  0  0  0  0  0  0  0  0  0  0  0
   38.7830   22.3630   34.9660 C   0  0  0  0  0  0  0  0  0  0  0  0
   38.7370   22.4430   36.3190 N   0  0  0  0  0  0  0  0  0  0  0  0
   38.3900   23.6170   36.8500 C   0  0  0  0  0  0  0  0  0  0  0  0
   38.0810   24.7350   36.1500 N   0  0  0  0  0  0  0  0  0  0  0  0
   38.5310   23.3440   33.1540 H   0  0  0  0  0  0  0  0  0  0  0  0
   39.0570   21.4330   34.5160 H   0  0  0  0  0  0  0  0  0  0  0  0
   38.3300   23.7410   38.3350 C   0  0  0  0  0  0  0  0  0  0  0  0
   37.2830   22.9250   38.7950 F   0  0  0  0  0  0  0  0  0  0  0  0
   39.5250   23.3860   38.9120 F   0  0  0  0  0  0  0  0  0  0  0  0
   37.9980   25.0170   38.7290 F   0  0  0  0  0  0  0  0  0  0  0  0
   35.8480   28.8280   34.4770 O   0  0  0  0  0  0  0  0  0  0  0  0
   34.6640   29.2300   33.8870 C   0  0  0  0  0  0  0  0  0  0  0  0
   33.8920   29.9780   34.7850 C   0  0  0  0  0  0  0  0  0  0  0  0
   33.9420   30.3400   35.8090 H   0  0  0  0  0  0  0  0  0  0  0  0
   32.7130   30.3540   34.1340 C   0  0  0  0  0  0  0  0  0  0  0  0
   31.8220   30.9110   34.3620 H   0  0  0  0  0  0  0  0  0  0  0  0
   32.7950   29.8410   32.8960 N   0  0  0  0  0  0  0  0  0  0  0  0
   32.1850   29.8450   32.0540 H   0  0  0  0  0  0  0  0  0  0  0  0
   33.9270   29.1980   32.7750 N   0  0  0  0  0  0  0  0  0  0  0  0
  1  6  2  0  0  0  0
  1  2  1  0  0  0  0
  2  3  2  0  0  0  0
  3  4  1  0  0  0  0
  3  9  1  0  0  0  0
  5 21  1  0  0  0  0
  5  4  2  0  0  0  0
  6  5  1  0  0  0  0
  7  1  1  0  0  0  0
  8  2  1  0  0  0  0
  9 14  1  0  0  0  0
 10  9  2  0  0  0  0
 10 11  1  0  0  0  0
 11 12  2  0  0  0  0
 12 13  1  0  0  0  0
 13 17  1  0  0  0  0
 14 13  2  0  0  0  0
 15 10  1  0  0  0  0
 16 11  1  0  0  0  0
 17 20  1  0  0  0  0
 17 18  1  0  0  0  0
 17 19  1  0  0  0  0
 22 21  1  0  0  0  0
 22 23  1  0  0  0  0
 23 24  1  0  0  0  0
 25 26  1  0  0  0  0
 25 23  2  0  0  0  0
 27 25  1  0  0  0  0
 28 27  1  0  0  0  0
 29 27  1  0  0  0  0
 29 22  2  0  0  0  0
M  END
>  <minimizedAffinity>
-5.53499508

$$$$

 OpenBabel03272502263D

 29 31  0  0  0  0  0  0  0  0999 V2000
   36.6160   28.2390   33.9460 C   0  0  0  0  0  0  0  0  0  0  0  0
   37.3120   27.4340   34.8780 C   0  0  0  0  0  0  0  0  0  0  0  0
   37.6140   26.1310   34.5060 C   0  0  0  0  0  0  0  0  0  0  0  0
   37.2240   25.7220   33.2820 N   0  0  0  0  0  0  0  0  0  0  0  0
   36.5620   26.5030   32.4060 C   0  0  0  0  0  0  0  0  0  0  0  0
   36.2610   27.7670   32.7510 N   0  0  0  0  0  0  0  0  0  0  0  0
   36.4140   29.2500   34.3060 H   0  0  0  0  0  0  0  0  0  0  0  0
   37.6190   27.7730   35.8560 H   0  0  0  0  0  0  0  0  0  0  0  0
   38.3210   25.2030   35.3590 C   0  0  0  0  0  0  0  0  0  0  0  0
   39.4240   24.4980   34.8960 C   0  0  0  0  0  0  0  0  0  0  0  0
   40.1300   23.6030   35.6770 C   0  0  0  0  0  0  0  0  0  0  0  0
   39.7330   23.3990   36.9570 N   0  0  0  0  0  0  0  0  0  0  0  0
   38.6710   24.0860   37.3840 C   0  0  0  0  0  0  0  0  0  0  0  0
   37.9580   24.9690   36.6450 N   0  0  0  0  0  0  0  0  0  0  0  0
   39.7990   24.6060   33.8900 H   0  0  0  0  0  0  0  0  0  0  0  0
   40.9780   23.0640   35.3100 H   0  0  0  0  0  0  0  0  0  0  0  0
   38.2080   23.8860   38.7880 C   0  0  0  0  0  0  0  0  0  0  0  0
   37.4790   22.6870   38.8360 F   0  0  0  0  0  0  0  0  0  0  0  0
   39.2670   23.8590   39.6620 F   0  0  0  0  0  0  0  0  0  0  0  0
   37.3240   24.8660   39.1780 F   0  0  0  0  0  0  0  0  0  0  0  0
   36.2310   25.9410   31.1910 O   0  0  0  0  0  0  0  0  0  0  0  0
   36.4670   24.5950   30.9840 C   0  0  0  0  0  0  0  0  0  0  0  0
   35.3650   23.8310   31.3870 C   0  0  0  0  0  0  0  0  0  0  0  0
   34.3760   23.9760   31.8160 H   0  0  0  0  0  0  0  0  0  0  0  0
   35.6620   22.4840   31.1540 C   0  0  0  0  0  0  0  0  0  0  0  0
   35.1820   21.5310   31.2800 H   0  0  0  0  0  0  0  0  0  0  0  0
   36.8990   22.4640   30.6310 N   0  0  0  0  0  0  0  0  0  0  0  0
   37.5470   21.7240   30.2980 H   0  0  0  0  0  0  0  0  0  0  0  0
   37.3440   23.6910   30.5410 N   0  0  0  0  0  0  0  0  0  0  0  0
  1  7  1  0  0  0  0
  1  2  1  0  0  0  0
  2  8  1  0  0  0  0
  3  2  2  0  0  0  0
  3  9  1  0  0  0  0
  4  3  1  0  0  0  0
  5  6  1  0  0  0  0
  5  4  2  0  0  0  0
  6  1  2  0  0  0  0
  9 14  1  0  0  0  0
 10  9  2  0  0  0  0
 10 11  1  0  0  0  0
 11 12  2  0  0  0  0
 12 13  1  0  0  0  0
 13 17  1  0  0  0  0
 14 13  2  0  0  0  0
 15 10  1  0  0  0  0
 16 11  1  0  0  0  0
 17 18  1  0  0  0  0
 17 20  1  0  0  0  0
 17 19  1  0  0  0  0
 21  5  1  0  0  0  0
 22 21  1  0  0  0  0
 22 23  1  0  0  0  0
 23 24  1  0  0  0  0
 25 26  1  0  0  0  0
 25 23  2  0  0  0  0
 27 25  1  0  0  0  0
 28 27  1  0  0  0  0
 29 27  1  0  0  0  0
 29 22  2  0  0  0  0
M  END
>  <minimizedAffinity>
-5.5139904

$$$$

 OpenBabel03272502263D

 29 31  0  0  0  0  0  0  0  0999 V2000
   36.4960   27.5970   31.9070 C   0  0  0  0  0  0  0  0  0  0  0  0
   37.3120   26.6080   32.5040 C   0  0  0  0  0  0  0  0  0  0  0  0
   37.4380   26.6230   33.8870 C   0  0  0  0  0  0  0  0  0  0  0  0
   36.7720   27.5790   34.5660 N   0  0  0  0  0  0  0  0  0  0  0  0
   35.9980   28.5140   33.9800 C   0  0  0  0  0  0  0  0  0  0  0  0
   35.8660   28.5140   32.6420 N   0  0  0  0  0  0  0  0  0  0  0  0
   36.4450   27.5230   30.8180 H   0  0  0  0  0  0  0  0  0  0  0  0
   37.8410   25.8470   31.9490 H   0  0  0  0  0  0  0  0  0  0  0  0
   38.2360   25.6720   34.6250 C   0  0  0  0  0  0  0  0  0  0  0  0
   39.4140   25.1600   34.0980 C   0  0  0  0  0  0  0  0  0  0  0  0
   40.2090   24.2500   34.7700 C   0  0  0  0  0  0  0  0  0  0  0  0
   39.8250   23.8330   36.0010 N   0  0  0  0  0  0  0  0  0  0  0  0
   38.6910   24.3370   36.4910 C   0  0  0  0  0  0  0  0  0  0  0  0
   37.8900   25.2280   35.8600 N   0  0  0  0  0  0  0  0  0  0  0  0
   39.7840   25.4440   33.1240 H   0  0  0  0  0  0  0  0  0  0  0  0
   41.1140   23.8620   34.3540 H   0  0  0  0  0  0  0  0  0  0  0  0
   38.2390   23.9000   37.8440 C   0  0  0  0  0  0  0  0  0  0  0  0
   37.9740   25.0510   38.6030 F   0  0  0  0  0  0  0  0  0  0  0  0
   37.1310   23.0930   37.7620 F   0  0  0  0  0  0  0  0  0  0  0  0
   39.2340   23.2350   38.5240 F   0  0  0  0  0  0  0  0  0  0  0  0
   35.3800   29.4260   34.8090 O   0  0  0  0  0  0  0  0  0  0  0  0
   35.6220   30.7760   34.6280 C   0  0  0  0  0  0  0  0  0  0  0  0
   36.0150   31.3740   35.8320 C   0  0  0  0  0  0  0  0  0  0  0  0
   36.1870   31.0990   36.8690 H   0  0  0  0  0  0  0  0  0  0  0  0
   36.2440   32.7320   35.5850 C   0  0  0  0  0  0  0  0  0  0  0  0
   36.5490   33.6000   36.1410 H   0  0  0  0  0  0  0  0  0  0  0  0
   35.9930   32.9180   34.2790 N   0  0  0  0  0  0  0  0  0  0  0  0
   36.0200   33.7300   33.6310 H   0  0  0  0  0  0  0  0  0  0  0  0
   35.6370   31.7780   33.7470 N   0  0  0  0  0  0  0  0  0  0  0  0
  1  2  2  0  0  0  0
  1  6  1  0  0  0  0
  2  3  1  0  0  0  0
  3  4  2  0  0  0  0
  3  9  1  0  0  0  0
  5  4  1  0  0  0  0
  5 21  1  0  0  0  0
  6  5  2  0  0  0  0
  7  1  1  0  0  0  0
  8  2  1  0  0  0  0
  9 14  1  0  0  0  0
 10  9  2  0  0  0  0
 10 11  1  0  0  0  0
 11 12  2  0  0  0  0
 12 13  1  0  0  0  0
 13 17  1  0  0  0  0
 14 13  2  0  0  0  0
 15 10  1  0  0  0  0
 16 11  1  0  0  0  0
 17 20  1  0  0  0  0
 17 18  1  0  0  0  0
 19 17  1  0  0  0  0
 22 21  1  0  0  0  0
 22 23  1  0  0  0  0
 23 24  1  0  0  0  0
 25 23  2  0  0  0  0
 25 26  1  0  0  0  0
 27 25  1  0  0  0  0
 28 27  1  0  0  0  0
 29 27  1  0  0  0  0
 29 22  2  0  0  0  0
M  END
>  <minimizedAffinity>
-5.47536469

$$$$

 OpenBabel03272502263D

 29 31  0  0  0  0  0  0  0  0999 V2000
   37.0080   27.2990   34.0230 C   0  0  0  0  0  0  0  0  0  0  0  0
   37.4460   26.6190   35.1840 C   0  0  0  0  0  0  0  0  0  0  0  0
   37.9560   25.3370   35.0270 C   0  0  0  0  0  0  0  0  0  0  0  0
   38.0010   24.8290   33.7790 N   0  0  0  0  0  0  0  0  0  0  0  0
   37.5790   25.4920   32.6840 C   0  0  0  0  0  0  0  0  0  0  0  0
   37.0810   26.7330   32.8180 N   0  0  0  0  0  0  0  0  0  0  0  0
   36.6190   28.3000   34.2230 H   0  0  0  0  0  0  0  0  0  0  0  0
   37.4040   27.0370   36.1790 H   0  0  0  0  0  0  0  0  0  0  0  0
   38.4400   24.5330   36.1250 C   0  0  0  0  0  0  0  0  0  0  0  0
   37.7680   24.4950   37.3390 C   0  0  0  0  0  0  0  0  0  0  0  0
   38.1940   23.7380   38.4140 C   0  0  0  0  0  0  0  0  0  0  0  0
   39.3210   22.9960   38.2850 N   0  0  0  0  0  0  0  0  0  0  0  0
   39.9530   23.0450   37.1100 C   0  0  0  0  0  0  0  0  0  0  0  0
   39.5620   23.7750   36.0380 N   0  0  0  0  0  0  0  0  0  0  0  0
   36.8650   25.0580   37.5190 H   0  0  0  0  0  0  0  0  0  0  0  0
   37.6700   23.7170   39.3460 H   0  0  0  0  0  0  0  0  0  0  0  0
   41.1960   22.2400   36.9320 C   0  0  0  0  0  0  0  0  0  0  0  0
   42.2820   23.1280   36.8790 F   0  0  0  0  0  0  0  0  0  0  0  0
   41.3480   21.3290   37.9490 F   0  0  0  0  0  0  0  0  0  0  0  0
   41.2070   21.5780   35.7260 F   0  0  0  0  0  0  0  0  0  0  0  0
   37.6900   24.8390   31.4740 O   0  0  0  0  0  0  0  0  0  0  0  0
   37.3140   23.5110   31.3880 C   0  0  0  0  0  0  0  0  0  0  0  0
   35.9210   23.3950   31.2990 C   0  0  0  0  0  0  0  0  0  0  0  0
   35.0430   24.0350   31.2770 H   0  0  0  0  0  0  0  0  0  0  0  0
   35.6030   22.0360   31.2150 C   0  0  0  0  0  0  0  0  0  0  0  0
   34.7190   21.4300   31.1330 H   0  0  0  0  0  0  0  0  0  0  0  0
   36.7740   21.3800   31.2540 N   0  0  0  0  0  0  0  0  0  0  0  0
   37.0620   20.3820   31.2230 H   0  0  0  0  0  0  0  0  0  0  0  0
   37.7470   22.2490   31.3530 N   0  0  0  0  0  0  0  0  0  0  0  0
  1  7  1  0  0  0  0
  1  2  1  0  0  0  0
  2  8  1  0  0  0  0
  3  2  2  0  0  0  0
  3  9  1  0  0  0  0
  4  3  1  0  0  0  0
  5  6  1  0  0  0  0
  5  4  2  0  0  0  0
  6  1  2  0  0  0  0
  9 10  1  0  0  0  0
 10 15  1  0  0  0  0
 10 11  2  0  0  0  0
 11 16  1  0  0  0  0
 12 11  1  0  0  0  0
 13 12  2  0  0  0  0
 14  9  2  0  0  0  0
 14 13  1  0  0  0  0
 17 13  1  0  0  0  0
 17 19  1  0  0  0  0
 18 17  1  0  0  0  0
 20 17  1  0  0  0  0
 21  5  1  0  0  0  0
 22 21  1  0  0  0  0
 23 22  1  0  0  0  0
 24 23  1  0  0  0  0
 25 27  1  0  0  0  0
 25 23  2  0  0  0  0
 26 25  1  0  0  0  0
 27 29  1  0  0  0  0
 28 27  1  0  0  0  0
 29 22  2  0  0  0  0
M  END
>  <minimizedAffinity>
-5.4254427

$$$$

 OpenBabel03272502263D

 29 31  0  0  0  0  0  0  0  0999 V2000
   36.5350   28.2890   34.0540 C   0  0  0  0  0  0  0  0  0  0  0  0
   36.9630   27.2320   34.8920 C   0  0  0  0  0  0  0  0  0  0  0  0
   37.5080   26.1090   34.2850 C   0  0  0  0  0  0  0  0  0  0  0  0
   37.5930   26.1030   32.9390 N   0  0  0  0  0  0  0  0  0  0  0  0
   37.1800   27.1200   32.1570 C   0  0  0  0  0  0  0  0  0  0  0  0
   36.6490   28.2140   32.7280 N   0  0  0  0  0  0  0  0  0  0  0  0
   36.1170   29.1390   34.6010 H   0  0  0  0  0  0  0  0  0  0  0  0
   36.8890   27.2490   35.9690 H   0  0  0  0  0  0  0  0  0  0  0  0
   37.9870   24.9610   35.0190 C   0  0  0  0  0  0  0  0  0  0  0  0
   38.5530   23.8750   34.3670 C   0  0  0  0  0  0  0  0  0  0  0  0
   39.0250   22.7570   35.0300 C   0  0  0  0  0  0  0  0  0  0  0  0
   38.9330   22.7130   36.3820 N   0  0  0  0  0  0  0  0  0  0  0  0
   38.3860   23.7670   36.9910 C   0  0  0  0  0  0  0  0  0  0  0  0
   37.9140   24.8750   36.3720 N   0  0  0  0  0  0  0  0  0  0  0  0
   38.6600   23.8360   33.2930 H   0  0  0  0  0  0  0  0  0  0  0  0
   39.4590   21.9260   34.5170 H   0  0  0  0  0  0  0  0  0  0  0  0
   38.2690   23.7520   38.4780 C   0  0  0  0  0  0  0  0  0  0  0  0
   39.5190   23.3890   39.0060 F   0  0  0  0  0  0  0  0  0  0  0  0
   37.8640   24.9740   38.9570 F   0  0  0  0  0  0  0  0  0  0  0  0
   37.3950   22.7830   38.9130 F   0  0  0  0  0  0  0  0  0  0  0  0
   37.3330   26.9650   30.7950 O   0  0  0  0  0  0  0  0  0  0  0  0
   37.6850   28.0600   30.0270 C   0  0  0  0  0  0  0  0  0  0  0  0
   39.0770   28.2100   29.9890 C   0  0  0  0  0  0  0  0  0  0  0  0
   39.9680   27.7250   30.3810 H   0  0  0  0  0  0  0  0  0  0  0  0
   39.3710   29.3280   29.2020 C   0  0  0  0  0  0  0  0  0  0  0  0
   40.2450   29.8570   28.8670 H   0  0  0  0  0  0  0  0  0  0  0  0
   38.1870   29.8140   28.7940 N   0  0  0  0  0  0  0  0  0  0  0  0
   37.8810   30.6130   28.2050 H   0  0  0  0  0  0  0  0  0  0  0  0
   37.2300   29.0680   29.2810 N   0  0  0  0  0  0  0  0  0  0  0  0
  1  7  1  0  0  0  0
  1  2  1  0  0  0  0
  2  8  1  0  0  0  0
  3  2  2  0  0  0  0
  3  9  1  0  0  0  0
  4  3  1  0  0  0  0
  5  6  1  0  0  0  0
  5  4  2  0  0  0  0
  6  1  2  0  0  0  0
  9 14  1  0  0  0  0
 10  9  2  0  0  0  0
 10 11  1  0  0  0  0
 11 12  2  0  0  0  0
 12 13  1  0  0  0  0
 13 17  1  0  0  0  0
 14 13  2  0  0  0  0
 15 10  1  0  0  0  0
 16 11  1  0  0  0  0
 17 20  1  0  0  0  0
 17 19  1  0  0  0  0
 17 18  1  0  0  0  0
 21  5  1  0  0  0  0
 22 21  1  0  0  0  0
 23 22  1  0  0  0  0
 23 24  1  0  0  0  0
 25 23  2  0  0  0  0
 26 25  1  0  0  0  0
 27 25  1  0  0  0  0
 27 29  1  0  0  0  0
 28 27  1  0  0  0  0
 29 22  2  0  0  0  0
M  END
>  <minimizedAffinity>
-5.42543125

$$$$

 OpenBabel03272502263D

 29 31  0  0  0  0  0  0  0  0999 V2000
   41.1450   26.3350   34.3600 C   0  0  0  0  0  0  0  0  0  0  0  0
   40.2480   27.1240   33.6010 C   0  0  0  0  0  0  0  0  0  0  0  0
   38.9640   26.6340   33.4050 C   0  0  0  0  0  0  0  0  0  0  0  0
   38.6590   25.4400   33.9530 N   0  0  0  0  0  0  0  0  0  0  0  0
   39.5260   24.7020   34.6740 C   0  0  0  0  0  0  0  0  0  0  0  0
   40.7730   25.1620   34.8720 N   0  0  0  0  0  0  0  0  0  0  0  0
   42.1350   26.7830   34.4720 H   0  0  0  0  0  0  0  0  0  0  0  0
   40.5050   28.0780   33.1670 H   0  0  0  0  0  0  0  0  0  0  0  0
   37.9500   27.3360   32.6540 C   0  0  0  0  0  0  0  0  0  0  0  0
   38.0070   27.4170   31.2690 C   0  0  0  0  0  0  0  0  0  0  0  0
   37.0590   28.0760   30.5110 C   0  0  0  0  0  0  0  0  0  0  0  0
   36.0200   28.6760   31.1440 N   0  0  0  0  0  0  0  0  0  0  0  0
   35.9820   28.5870   32.4740 C   0  0  0  0  0  0  0  0  0  0  0  0
   36.8940   27.9490   33.2460 N   0  0  0  0  0  0  0  0  0  0  0  0
   38.8030   26.9660   30.6960 H   0  0  0  0  0  0  0  0  0  0  0  0
   37.1130   28.1330   29.4450 H   0  0  0  0  0  0  0  0  0  0  0  0
   34.8520   29.2340   33.2020 C   0  0  0  0  0  0  0  0  0  0  0  0
   35.0470   30.6240   33.1550 F   0  0  0  0  0  0  0  0  0  0  0  0
   33.6420   28.8840   32.6550 F   0  0  0  0  0  0  0  0  0  0  0  0
   34.8540   28.9110   34.5400 F   0  0  0  0  0  0  0  0  0  0  0  0
   39.0650   23.5010   35.1710 O   0  0  0  0  0  0  0  0  0  0  0  0
   39.1200   23.2680   36.5330 C   0  0  0  0  0  0  0  0  0  0  0  0
   38.0850   23.9430   37.1920 C   0  0  0  0  0  0  0  0  0  0  0  0
   37.2490   24.5970   36.9580 H   0  0  0  0  0  0  0  0  0  0  0  0
   38.1930   23.6710   38.5600 C   0  0  0  0  0  0  0  0  0  0  0  0
   37.6730   23.9290   39.4650 H   0  0  0  0  0  0  0  0  0  0  0  0
   39.2570   22.8620   38.6930 N   0  0  0  0  0  0  0  0  0  0  0  0
   39.7330   22.3950   39.4890 H   0  0  0  0  0  0  0  0  0  0  0  0
   39.7760   22.6430   37.5120 N   0  0  0  0  0  0  0  0  0  0  0  0
  1  7  1  0  0  0  0
  1  6  1  0  0  0  0
  2  1  2  0  0  0  0
  3  2  1  0  0  0  0
  3  4  2  0  0  0  0
  4  5  1  0  0  0  0
  5  6  2  0  0  0  0
  5 21  1  0  0  0  0
  8  2  1  0  0  0  0
  9 14  1  0  0  0  0
  9  3  1  0  0  0  0
 10  9  2  0  0  0  0
 11 12  2  0  0  0  0
 11 10  1  0  0  0  0
 12 13  1  0  0  0  0
 13 17  1  0  0  0  0
 13 14  2  0  0  0  0
 15 10  1  0  0  0  0
 16 11  1  0  0  0  0
 17 20  1  0  0  0  0
 18 17  1  0  0  0  0
 19 17  1  0  0  0  0
 21 22  1  0  0  0  0
 22 23  1  0  0  0  0
 22 29  2  0  0  0  0
 23 25  2  0  0  0  0
 24 23  1  0  0  0  0
 25 27  1  0  0  0  0
 25 26  1  0  0  0  0
 27 28  1  0  0  0  0
 29 27  1  0  0  0  0
M  END
>  <minimizedAffinity>
-5.3560214

$$$$
