
 OpenBabel03272502273D

 39 42  0  0  0  0  0  0  0  0999 V2000
   35.6340   26.6740   31.5220 C   0  0  0  0  0  0  0  0  0  0  0  0
   35.6880   25.3180   31.1390 C   0  0  0  0  0  0  0  0  0  0  0  0
   36.5380   24.4850   31.8510 C   0  0  0  0  0  0  0  0  0  0  0  0
   37.2460   25.0260   32.8500 N   0  0  0  0  0  0  0  0  0  0  0  0
   37.1900   26.3170   33.2090 C   0  0  0  0  0  0  0  0  0  0  0  0
   36.3830   27.1420   32.5450 N   0  0  0  0  0  0  0  0  0  0  0  0
   34.9630   27.3220   30.9560 H   0  0  0  0  0  0  0  0  0  0  0  0
   35.1030   24.9100   30.3260 H   0  0  0  0  0  0  0  0  0  0  0  0
   36.6690   23.0810   31.5580 C   0  0  0  0  0  0  0  0  0  0  0  0
   37.7190   22.6200   30.7690 C   0  0  0  0  0  0  0  0  0  0  0  0
   37.9000   21.2940   30.4620 C   0  0  0  0  0  0  0  0  0  0  0  0
   37.0250   20.3830   30.9400 N   0  0  0  0  0  0  0  0  0  0  0  0
   36.0170   20.8450   31.6990 C   0  0  0  0  0  0  0  0  0  0  0  0
   35.8140   22.1400   32.0180 N   0  0  0  0  0  0  0  0  0  0  0  0
   38.4210   23.3730   30.3880 H   0  0  0  0  0  0  0  0  0  0  0  0
   38.7440   21.0190   29.8420 H   0  0  0  0  0  0  0  0  0  0  0  0
   35.0420   19.8650   32.2390 C   0  0  0  0  0  0  0  0  0  0  0  0
   35.2730   19.7730   33.6300 F   0  0  0  0  0  0  0  0  0  0  0  0
   33.7580   20.2230   31.9620 F   0  0  0  0  0  0  0  0  0  0  0  0
   35.2920   18.5820   31.7820 F   0  0  0  0  0  0  0  0  0  0  0  0
   37.9910   26.7150   34.2700 O   0  0  0  0  0  0  0  0  0  0  0  0
   41.5880   25.9480   34.0770 N   0  0  0  0  0  0  0  0  0  0  0  0
   40.4500   26.6010   33.8150 C   0  0  0  0  0  0  0  0  0  0  0  0
   39.2680   26.1840   34.4060 C   0  0  0  0  0  0  0  0  0  0  0  0
   39.3010   25.0900   35.2580 C   0  0  0  0  0  0  0  0  0  0  0  0
   38.3540   24.5480   35.8960 O   0  0  0  0  0  0  0  0  0  0  0  0
   40.4710   24.4620   35.4920 N   0  0  0  0  0  0  0  0  0  0  0  0
   41.6230   24.8890   34.9020 C   0  0  0  0  0  0  0  0  0  0  0  0
   42.7440   24.3350   35.0890 O   0  0  0  0  0  0  0  0  0  0  0  0
   42.4100   26.3520   33.5770 H   0  0  0  0  0  0  0  0  0  0  0  0
   40.3340   27.4480   33.1750 H   0  0  0  0  0  0  0  0  0  0  0  0
   40.6230   23.3300   36.3490 C   0  0  0  0  0  0  0  0  0  0  0  0
   41.8700   22.6970   36.4130 C   0  0  0  0  0  0  0  0  0  0  0  0
   42.8150   22.8990   35.9140 H   0  0  0  0  0  0  0  0  0  0  0  0
   41.6770   21.6510   37.3230 C   0  0  0  0  0  0  0  0  0  0  0  0
   42.4300   20.9180   37.6440 H   0  0  0  0  0  0  0  0  0  0  0  0
   40.3930   21.6740   37.7620 N   0  0  0  0  0  0  0  0  0  0  0  0
   40.0070   20.9900   38.4480 H   0  0  0  0  0  0  0  0  0  0  0  0
   39.7620   22.6970   37.1640 N   0  0  0  0  0  0  0  0  0  0  0  0
  1  6  1  0  0  0  0
  2  1  2  0  0  0  0
  2  3  1  0  0  0  0
  3  4  2  0  0  0  0
  4  5  1  0  0  0  0
  5 21  1  0  0  0  0
  6  5  2  0  0  0  0
  7  1  1  0  0  0  0
  8  2  1  0  0  0  0
  9  3  1  0  0  0  0
  9 14  1  0  0  0  0
 10  9  2  0  0  0  0
 11 10  1  0  0  0  0
 11 12  2  0  0  0  0
 12 13  1  0  0  0  0
 13 14  2  0  0  0  0
 13 17  1  0  0  0  0
 15 10  1  0  0  0  0
 16 11  1  0  0  0  0
 17 18  1  0  0  0  0
 19 17  1  0  0  0  0
 20 17  1  0  0  0  0
 21 24  1  0  0  0  0
 22 28  1  0  0  0  0
 23 22  1  0  0  0  0
 23 24  2  0  0  0  0
 24 25  1  0  0  0  0
 25 27  1  0  0  0  0
 25 26  2  0  0  0  0
 27 32  1  0  0  0  0
 28 29  2  0  0  0  0
 28 27  1  0  0  0  0
 30 22  1  0  0  0  0
 31 23  1  0  0  0  0
 32 33  1  0  0  0  0
 32 39  2  0  0  0  0
 33 35  2  0  0  0  0
 34 33  1  0  0  0  0
 35 36  1  0  0  0  0
 35 37  1  0  0  0  0
 37 38  1  0  0  0  0
 39 37  1  0  0  0  0
M  END
>  <minimizedAffinity>
-6.9831872

$$$$

 OpenBabel03272502273D

 39 42  0  0  0  0  0  0  0  0999 V2000
   35.3040   20.5150   33.3040 C   0  0  0  0  0  0  0  0  0  0  0  0
   36.2210   20.8120   34.3330 C   0  0  0  0  0  0  0  0  0  0  0  0
   37.1520   21.8130   34.0920 C   0  0  0  0  0  0  0  0  0  0  0  0
   37.1130   22.4240   32.9020 N   0  0  0  0  0  0  0  0  0  0  0  0
   36.2370   22.1360   31.9270 C   0  0  0  0  0  0  0  0  0  0  0  0
   35.3310   21.1810   32.1280 N   0  0  0  0  0  0  0  0  0  0  0  0
   34.5760   19.7270   33.5020 H   0  0  0  0  0  0  0  0  0  0  0  0
   36.2280   20.3000   35.2850 H   0  0  0  0  0  0  0  0  0  0  0  0
   38.1300   22.2100   35.0700 C   0  0  0  0  0  0  0  0  0  0  0  0
   39.4900   22.0770   34.8020 C   0  0  0  0  0  0  0  0  0  0  0  0
   40.4690   22.4440   35.6920 C   0  0  0  0  0  0  0  0  0  0  0  0
   40.1110   22.9600   36.8880 N   0  0  0  0  0  0  0  0  0  0  0  0
   38.7950   23.0820   37.1310 C   0  0  0  0  0  0  0  0  0  0  0  0
   37.8110   22.7300   36.2760 N   0  0  0  0  0  0  0  0  0  0  0  0
   39.7640   21.6550   33.8280 H   0  0  0  0  0  0  0  0  0  0  0  0
   41.5040   22.3070   35.4060 H   0  0  0  0  0  0  0  0  0  0  0  0
   38.3730   23.6470   38.4360 C   0  0  0  0  0  0  0  0  0  0  0  0
   37.2960   22.8590   38.9010 F   0  0  0  0  0  0  0  0  0  0  0  0
   39.3990   23.6820   39.3290 F   0  0  0  0  0  0  0  0  0  0  0  0
   37.8150   24.9070   38.2970 F   0  0  0  0  0  0  0  0  0  0  0  0
   36.3350   22.8670   30.7520 O   0  0  0  0  0  0  0  0  0  0  0  0
   38.9940   25.3920   30.4010 N   0  0  0  0  0  0  0  0  0  0  0  0
   38.4310   24.1780   30.3610 C   0  0  0  0  0  0  0  0  0  0  0  0
   37.1020   24.0250   30.7220 C   0  0  0  0  0  0  0  0  0  0  0  0
   36.3890   25.1460   31.1200 C   0  0  0  0  0  0  0  0  0  0  0  0
   35.1810   25.2340   31.4850 O   0  0  0  0  0  0  0  0  0  0  0  0
   36.9960   26.3500   31.1460 N   0  0  0  0  0  0  0  0  0  0  0  0
   38.3040   26.4790   30.7860 C   0  0  0  0  0  0  0  0  0  0  0  0
   38.9190   27.5830   30.7930 O   0  0  0  0  0  0  0  0  0  0  0  0
   39.9950   25.3830   30.1070 H   0  0  0  0  0  0  0  0  0  0  0  0
   38.9040   23.2660   30.0690 H   0  0  0  0  0  0  0  0  0  0  0  0
   36.3620   27.5670   31.5370 C   0  0  0  0  0  0  0  0  0  0  0  0
   37.1370   28.7290   31.6350 C   0  0  0  0  0  0  0  0  0  0  0  0
   38.1950   28.9140   31.4650 H   0  0  0  0  0  0  0  0  0  0  0  0
   36.2260   29.7160   32.0310 C   0  0  0  0  0  0  0  0  0  0  0  0
   36.4520   30.7750   32.2160 H   0  0  0  0  0  0  0  0  0  0  0  0
   34.9940   29.1610   32.1560 N   0  0  0  0  0  0  0  0  0  0  0  0
   34.1480   29.6980   32.4420 H   0  0  0  0  0  0  0  0  0  0  0  0
   35.0870   27.8560   31.8530 N   0  0  0  0  0  0  0  0  0  0  0  0
  1  7  1  0  0  0  0
  1  2  1  0  0  0  0
  2  8  1  0  0  0  0
  3  2  2  0  0  0  0
  3  9  1  0  0  0  0
  4  3  1  0  0  0  0
  5  6  1  0  0  0  0
  5  4  2  0  0  0  0
  6  1  2  0  0  0  0
  9 14  1  0  0  0  0
 10  9  2  0  0  0  0
 10 11  1  0  0  0  0
 11 12  2  0  0  0  0
 12 13  1  0  0  0  0
 13 17  1  0  0  0  0
 14 13  2  0  0  0  0
 15 10  1  0  0  0  0
 16 11  1  0  0  0  0
 17 18  1  0  0  0  0
 17 19  1  0  0  0  0
 20 17  1  0  0  0  0
 21  5  1  0  0  0  0
 22 28  1  0  0  0  0
 23 22  1  0  0  0  0
 23 24  2  0  0  0  0
 24 21  1  0  0  0  0
 24 25  1  0  0  0  0
 25 27  1  0  0  0  0
 25 26  2  0  0  0  0
 27 32  1  0  0  0  0
 28 29  2  0  0  0  0
 28 27  1  0  0  0  0
 30 22  1  0  0  0  0
 31 23  1  0  0  0  0
 32 33  1  0  0  0  0
 32 39  2  0  0  0  0
 33 35  2  0  0  0  0
 34 33  1  0  0  0  0
 35 37  1  0  0  0  0
 35 36  1  0  0  0  0
 37 38  1  0  0  0  0
 39 37  1  0  0  0  0
M  END
>  <minimizedAffinity>
-6.91931581

$$$$

 OpenBabel03272502273D

 39 42  0  0  0  0  0  0  0  0999 V2000
   36.1170   25.6860   31.4080 C   0  0  0  0  0  0  0  0  0  0  0  0
   36.9190   24.9310   32.2890 C   0  0  0  0  0  0  0  0  0  0  0  0
   37.4780   25.5940   33.3730 C   0  0  0  0  0  0  0  0  0  0  0  0
   37.2180   26.9000   33.5040 N   0  0  0  0  0  0  0  0  0  0  0  0
   36.4540   27.6110   32.6620 C   0  0  0  0  0  0  0  0  0  0  0  0
   35.9030   27.0040   31.6130 N   0  0  0  0  0  0  0  0  0  0  0  0
   35.6820   25.1560   30.5590 H   0  0  0  0  0  0  0  0  0  0  0  0
   37.1120   23.8760   32.1560 H   0  0  0  0  0  0  0  0  0  0  0  0
   38.3040   24.9260   34.3440 C   0  0  0  0  0  0  0  0  0  0  0  0
   39.5780   24.4800   34.0000 C   0  0  0  0  0  0  0  0  0  0  0  0
   40.4140   23.8440   34.8840 C   0  0  0  0  0  0  0  0  0  0  0  0
   39.9950   23.6330   36.1510 N   0  0  0  0  0  0  0  0  0  0  0  0
   38.7630   24.0700   36.4660 C   0  0  0  0  0  0  0  0  0  0  0  0
   37.9200   24.6970   35.6200 N   0  0  0  0  0  0  0  0  0  0  0  0
   39.9030   24.6580   32.9670 H   0  0  0  0  0  0  0  0  0  0  0  0
   41.3890   23.5290   34.5360 H   0  0  0  0  0  0  0  0  0  0  0  0
   38.2770   23.8530   37.8520 C   0  0  0  0  0  0  0  0  0  0  0  0
   39.2700   23.1090   38.5280 F   0  0  0  0  0  0  0  0  0  0  0  0
   38.0050   25.0270   38.4830 F   0  0  0  0  0  0  0  0  0  0  0  0
   37.1700   23.0210   37.8850 F   0  0  0  0  0  0  0  0  0  0  0  0
   36.2850   28.9590   32.9460 O   0  0  0  0  0  0  0  0  0  0  0  0
   32.7020   29.7110   33.3450 N   0  0  0  0  0  0  0  0  0  0  0  0
   33.7940   29.1500   32.8100 C   0  0  0  0  0  0  0  0  0  0  0  0
   35.0400   29.4290   33.3460 C   0  0  0  0  0  0  0  0  0  0  0  0
   35.1200   30.2900   34.4300 C   0  0  0  0  0  0  0  0  0  0  0  0
   36.1420   30.6770   35.0670 O   0  0  0  0  0  0  0  0  0  0  0  0
   33.9950   30.8330   34.9360 N   0  0  0  0  0  0  0  0  0  0  0  0
   32.7770   30.5460   34.3950 C   0  0  0  0  0  0  0  0  0  0  0  0
   31.6940   31.0270   34.8330 O   0  0  0  0  0  0  0  0  0  0  0  0
   31.8230   29.4280   32.8600 H   0  0  0  0  0  0  0  0  0  0  0  0
   33.8230   28.4800   31.9800 H   0  0  0  0  0  0  0  0  0  0  0  0
   33.9580   31.7300   36.0470 C   0  0  0  0  0  0  0  0  0  0  0  0
   32.7360   32.3160   36.3980 C   0  0  0  0  0  0  0  0  0  0  0  0
   31.7380   32.2270   35.9750 H   0  0  0  0  0  0  0  0  0  0  0  0
   33.0470   33.1200   37.5010 C   0  0  0  0  0  0  0  0  0  0  0  0
   32.3470   33.7480   38.0690 H   0  0  0  0  0  0  0  0  0  0  0  0
   34.3710   33.0070   37.7750 N   0  0  0  0  0  0  0  0  0  0  0  0
   34.8420   33.5140   38.5550 H   0  0  0  0  0  0  0  0  0  0  0  0
   34.9150   32.1610   36.8860 N   0  0  0  0  0  0  0  0  0  0  0  0
  1  6  2  0  0  0  0
  1  2  1  0  0  0  0
  2  3  2  0  0  0  0
  3  4  1  0  0  0  0
  3  9  1  0  0  0  0
  5 21  1  0  0  0  0
  5  4  2  0  0  0  0
  6  5  1  0  0  0  0
  7  1  1  0  0  0  0
  8  2  1  0  0  0  0
  9 14  1  0  0  0  0
 10  9  2  0  0  0  0
 10 11  1  0  0  0  0
 11 12  2  0  0  0  0
 12 13  1  0  0  0  0
 13 17  1  0  0  0  0
 14 13  2  0  0  0  0
 15 10  1  0  0  0  0
 16 11  1  0  0  0  0
 17 20  1  0  0  0  0
 17 19  1  0  0  0  0
 17 18  1  0  0  0  0
 21 24  1  0  0  0  0
 22 28  1  0  0  0  0
 23 22  1  0  0  0  0
 23 24  2  0  0  0  0
 24 25  1  0  0  0  0
 25 27  1  0  0  0  0
 25 26  2  0  0  0  0
 27 32  1  0  0  0  0
 28 29  2  0  0  0  0
 28 27  1  0  0  0  0
 30 22  1  0  0  0  0
 31 23  1  0  0  0  0
 32 33  1  0  0  0  0
 32 39  2  0  0  0  0
 33 35  2  0  0  0  0
 34 33  1  0  0  0  0
 35 37  1  0  0  0  0
 35 36  1  0  0  0  0
 37 38  1  0  0  0  0
 39 37  1  0  0  0  0
M  END
>  <minimizedAffinity>
-6.88269234

$$$$

 OpenBabel03272502273D

 39 42  0  0  0  0  0  0  0  0999 V2000
   39.3220   27.1450   32.1140 C   0  0  0  0  0  0  0  0  0  0  0  0
   39.3880   26.0410   32.9880 C   0  0  0  0  0  0  0  0  0  0  0  0
   38.2070   25.6250   33.5860 C   0  0  0  0  0  0  0  0  0  0  0  0
   37.0900   26.3010   33.2910 N   0  0  0  0  0  0  0  0  0  0  0  0
   37.0340   27.3510   32.4580 C   0  0  0  0  0  0  0  0  0  0  0  0
   38.1510   27.7740   31.8690 N   0  0  0  0  0  0  0  0  0  0  0  0
   40.2560   27.4650   31.6490 H   0  0  0  0  0  0  0  0  0  0  0  0
   40.3070   25.5140   33.2070 H   0  0  0  0  0  0  0  0  0  0  0  0
   38.1500   24.5040   34.4870 C   0  0  0  0  0  0  0  0  0  0  0  0
   38.0370   23.2070   33.9940 C   0  0  0  0  0  0  0  0  0  0  0  0
   37.9850   22.0990   34.8020 C   0  0  0  0  0  0  0  0  0  0  0  0
   38.0450   22.2590   36.1420 N   0  0  0  0  0  0  0  0  0  0  0  0
   38.1530   23.5170   36.6020 C   0  0  0  0  0  0  0  0  0  0  0  0
   38.2070   24.6250   35.8330 N   0  0  0  0  0  0  0  0  0  0  0  0
   37.9890   23.0940   32.9030 H   0  0  0  0  0  0  0  0  0  0  0  0
   37.8970   21.1250   34.3380 H   0  0  0  0  0  0  0  0  0  0  0  0
   38.2220   23.7230   38.0700 C   0  0  0  0  0  0  0  0  0  0  0  0
   39.4780   23.2360   38.4990 F   0  0  0  0  0  0  0  0  0  0  0  0
   38.0430   25.0290   38.4080 F   0  0  0  0  0  0  0  0  0  0  0  0
   37.3160   22.9230   38.7460 F   0  0  0  0  0  0  0  0  0  0  0  0
   35.7920   27.9390   32.2630 O   0  0  0  0  0  0  0  0  0  0  0  0
   35.5380   31.5240   31.4610 N   0  0  0  0  0  0  0  0  0  0  0  0
   35.6640   30.2120   31.2250 C   0  0  0  0  0  0  0  0  0  0  0  0
   35.6720   29.3230   32.2870 C   0  0  0  0  0  0  0  0  0  0  0  0
   35.5490   29.8230   33.5740 C   0  0  0  0  0  0  0  0  0  0  0  0
   35.5310   29.1980   34.6740 O   0  0  0  0  0  0  0  0  0  0  0  0
   35.4250   31.1520   33.7650 N   0  0  0  0  0  0  0  0  0  0  0  0
   35.4180   32.0110   32.7070 C   0  0  0  0  0  0  0  0  0  0  0  0
   35.3040   33.2640   32.8320 O   0  0  0  0  0  0  0  0  0  0  0  0
   35.5450   32.0940   30.5870 H   0  0  0  0  0  0  0  0  0  0  0  0
   35.7640   29.7440   30.2710 H   0  0  0  0  0  0  0  0  0  0  0  0
   35.2920   31.7760   35.0420 C   0  0  0  0  0  0  0  0  0  0  0  0
   35.2920   33.1750   35.1100 C   0  0  0  0  0  0  0  0  0  0  0  0
   35.3770   33.9410   34.3430 H   0  0  0  0  0  0  0  0  0  0  0  0
   35.1480   33.4510   36.4760 C   0  0  0  0  0  0  0  0  0  0  0  0
   35.1030   34.4460   36.9390 H   0  0  0  0  0  0  0  0  0  0  0  0
   35.0690   32.2820   37.1600 N   0  0  0  0  0  0  0  0  0  0  0  0
   34.9590   32.2280   38.1960 H   0  0  0  0  0  0  0  0  0  0  0  0
   35.1580   31.2710   36.2810 N   0  0  0  0  0  0  0  0  0  0  0  0
  1  2  1  0  0  0  0
  2  8  1  0  0  0  0
  2  3  2  0  0  0  0
  3  9  1  0  0  0  0
  4  3  1  0  0  0  0
  5  4  2  0  0  0  0
  6  1  2  0  0  0  0
  6  5  1  0  0  0  0
  7  1  1  0  0  0  0
  9 14  1  0  0  0  0
 10  9  2  0  0  0  0
 10 11  1  0  0  0  0
 11 12  2  0  0  0  0
 12 13  1  0  0  0  0
 13 17  1  0  0  0  0
 14 13  2  0  0  0  0
 15 10  1  0  0  0  0
 16 11  1  0  0  0  0
 17 19  1  0  0  0  0
 17 18  1  0  0  0  0
 17 20  1  0  0  0  0
 21 24  1  0  0  0  0
 21  5  1  0  0  0  0
 22 28  1  0  0  0  0
 23 22  1  0  0  0  0
 23 24  2  0  0  0  0
 24 25  1  0  0  0  0
 25 27  1  0  0  0  0
 25 26  2  0  0  0  0
 27 32  1  0  0  0  0
 28 29  2  0  0  0  0
 28 27  1  0  0  0  0
 30 22  1  0  0  0  0
 31 23  1  0  0  0  0
 32 33  1  0  0  0  0
 32 39  2  0  0  0  0
 33 35  2  0  0  0  0
 34 33  1  0  0  0  0
 35 36  1  0  0  0  0
 35 37  1  0  0  0  0
 37 38  1  0  0  0  0
 39 37  1  0  0  0  0
M  END
>  <minimizedAffinity>
-6.86746597

$$$$

 OpenBabel03272502273D

 39 42  0  0  0  0  0  0  0  0999 V2000
   35.7050   25.8620   31.3060 C   0  0  0  0  0  0  0  0  0  0  0  0
   35.4090   24.4990   31.0920 C   0  0  0  0  0  0  0  0  0  0  0  0
   36.1930   23.5630   31.7500 C   0  0  0  0  0  0  0  0  0  0  0  0
   37.1720   24.0170   32.5400 N   0  0  0  0  0  0  0  0  0  0  0  0
   37.4480   25.3150   32.7390 C   0  0  0  0  0  0  0  0  0  0  0  0
   36.7140   26.2380   32.1220 N   0  0  0  0  0  0  0  0  0  0  0  0
   35.0830   26.5910   30.7830 H   0  0  0  0  0  0  0  0  0  0  0  0
   34.6100   24.1620   30.4460 H   0  0  0  0  0  0  0  0  0  0  0  0
   35.9780   22.1450   31.6180 C   0  0  0  0  0  0  0  0  0  0  0  0
   35.0470   21.4950   32.4240 C   0  0  0  0  0  0  0  0  0  0  0  0
   34.7940   20.1480   32.3390 C   0  0  0  0  0  0  0  0  0  0  0  0
   35.4730   19.4060   31.4360 N   0  0  0  0  0  0  0  0  0  0  0  0
   36.3670   20.0500   30.6670 C   0  0  0  0  0  0  0  0  0  0  0  0
   36.6370   21.3710   30.7270 N   0  0  0  0  0  0  0  0  0  0  0  0
   34.5060   22.1100   33.1530 H   0  0  0  0  0  0  0  0  0  0  0  0
   34.0540   19.7190   33.0030 H   0  0  0  0  0  0  0  0  0  0  0  0
   37.1260   19.2600   29.6650 C   0  0  0  0  0  0  0  0  0  0  0  0
   37.8200   18.2520   30.3710 F   0  0  0  0  0  0  0  0  0  0  0  0
   36.3110   18.7390   28.7080 F   0  0  0  0  0  0  0  0  0  0  0  0
   38.1380   20.0040   29.0820 F   0  0  0  0  0  0  0  0  0  0  0  0
   38.5010   25.6150   33.5920 O   0  0  0  0  0  0  0  0  0  0  0  0
   38.0100   24.5120   37.0720 N   0  0  0  0  0  0  0  0  0  0  0  0
   37.7730   25.2060   35.9510 C   0  0  0  0  0  0  0  0  0  0  0  0
   38.5740   25.0050   34.8390 C   0  0  0  0  0  0  0  0  0  0  0  0
   39.6070   24.0840   34.9200 C   0  0  0  0  0  0  0  0  0  0  0  0
   40.4470   23.7480   34.0370 O   0  0  0  0  0  0  0  0  0  0  0  0
   39.8090   23.4080   36.0690 N   0  0  0  0  0  0  0  0  0  0  0  0
   39.0100   23.6190   37.1530 C   0  0  0  0  0  0  0  0  0  0  0  0
   39.1580   23.0110   38.2510 O   0  0  0  0  0  0  0  0  0  0  0  0
   37.3450   24.7460   37.8400 H   0  0  0  0  0  0  0  0  0  0  0  0
   37.0040   25.9310   35.8020 H   0  0  0  0  0  0  0  0  0  0  0  0
   40.8390   22.4390   36.2660 C   0  0  0  0  0  0  0  0  0  0  0  0
   41.0170   21.8960   37.5450 C   0  0  0  0  0  0  0  0  0  0  0  0
   40.5000   22.0680   38.4860 H   0  0  0  0  0  0  0  0  0  0  0  0
   42.0820   21.0010   37.3920 C   0  0  0  0  0  0  0  0  0  0  0  0
   42.5250   20.3730   38.1770 H   0  0  0  0  0  0  0  0  0  0  0  0
   42.4990   21.0220   36.1010 N   0  0  0  0  0  0  0  0  0  0  0  0
   43.2850   20.4380   35.7400 H   0  0  0  0  0  0  0  0  0  0  0  0
   41.7380   21.8980   35.4260 N   0  0  0  0  0  0  0  0  0  0  0  0
  1  6  1  0  0  0  0
  2  1  2  0  0  0  0
  2  3  1  0  0  0  0
  3  4  2  0  0  0  0
  4  5  1  0  0  0  0
  5 21  1  0  0  0  0
  6  5  2  0  0  0  0
  7  1  1  0  0  0  0
  8  2  1  0  0  0  0
  9  3  1  0  0  0  0
  9 10  1  0  0  0  0
 10 15  1  0  0  0  0
 11 10  2  0  0  0  0
 11 16  1  0  0  0  0
 12 11  1  0  0  0  0
 13 14  1  0  0  0  0
 13 12  2  0  0  0  0
 14  9  2  0  0  0  0
 17 18  1  0  0  0  0
 17 13  1  0  0  0  0
 19 17  1  0  0  0  0
 20 17  1  0  0  0  0
 21 24  1  0  0  0  0
 22 28  1  0  0  0  0
 22 30  1  0  0  0  0
 23 22  1  0  0  0  0
 24 25  1  0  0  0  0
 24 23  2  0  0  0  0
 25 27  1  0  0  0  0
 26 25  2  0  0  0  0
 27 32  1  0  0  0  0
 27 28  1  0  0  0  0
 28 29  2  0  0  0  0
 31 23  1  0  0  0  0
 32 33  1  0  0  0  0
 33 34  1  0  0  0  0
 35 33  2  0  0  0  0
 35 36  1  0  0  0  0
 37 35  1  0  0  0  0
 38 37  1  0  0  0  0
 39 37  1  0  0  0  0
 39 32  2  0  0  0  0
M  END
>  <minimizedAffinity>
-6.79671717

$$$$

 OpenBabel03272502273D

 39 42  0  0  0  0  0  0  0  0999 V2000
   37.1370   27.5440   34.2320 C   0  0  0  0  0  0  0  0  0  0  0  0
   37.6240   26.8230   35.3410 C   0  0  0  0  0  0  0  0  0  0  0  0
   37.9010   25.4760   35.1580 C   0  0  0  0  0  0  0  0  0  0  0  0
   37.6860   24.9570   33.9440 N   0  0  0  0  0  0  0  0  0  0  0  0
   37.2230   25.6490   32.8920 C   0  0  0  0  0  0  0  0  0  0  0  0
   36.9480   26.9440   33.0360 N   0  0  0  0  0  0  0  0  0  0  0  0
   36.9220   28.6030   34.3850 H   0  0  0  0  0  0  0  0  0  0  0  0
   37.7870   27.2710   36.3120 H   0  0  0  0  0  0  0  0  0  0  0  0
   38.4120   24.6420   36.2140 C   0  0  0  0  0  0  0  0  0  0  0  0
   37.7740   24.6000   37.4510 C   0  0  0  0  0  0  0  0  0  0  0  0
   38.2100   23.8190   38.4930 C   0  0  0  0  0  0  0  0  0  0  0  0
   39.3080   23.0500   38.3250 N   0  0  0  0  0  0  0  0  0  0  0  0
   39.9110   23.1020   37.1250 C   0  0  0  0  0  0  0  0  0  0  0  0
   39.5070   23.8590   36.0830 N   0  0  0  0  0  0  0  0  0  0  0  0
   36.8850   25.2300   37.5720 H   0  0  0  0  0  0  0  0  0  0  0  0
   37.6560   23.8440   39.4230 H   0  0  0  0  0  0  0  0  0  0  0  0
   41.1190   22.2670   36.9120 C   0  0  0  0  0  0  0  0  0  0  0  0
   42.2140   23.1500   36.7680 F   0  0  0  0  0  0  0  0  0  0  0  0
   41.3110   21.3840   37.9290 F   0  0  0  0  0  0  0  0  0  0  0  0
   41.0780   21.6010   35.6980 F   0  0  0  0  0  0  0  0  0  0  0  0
   37.0570   24.9560   31.7010 O   0  0  0  0  0  0  0  0  0  0  0  0
   39.2860   22.0710   31.1840 N   0  0  0  0  0  0  0  0  0  0  0  0
   38.9400   23.3590   31.2940 C   0  0  0  0  0  0  0  0  0  0  0  0
   37.6210   23.6950   31.5530 C   0  0  0  0  0  0  0  0  0  0  0  0
   36.6910   22.6770   31.6910 C   0  0  0  0  0  0  0  0  0  0  0  0
   35.4510   22.7570   31.9280 O   0  0  0  0  0  0  0  0  0  0  0  0
   37.0840   21.3930   31.5730 N   0  0  0  0  0  0  0  0  0  0  0  0
   38.3860   21.0820   31.3180 C   0  0  0  0  0  0  0  0  0  0  0  0
   38.8060   19.8960   31.1990 O   0  0  0  0  0  0  0  0  0  0  0  0
   40.3030   21.9410   30.9900 H   0  0  0  0  0  0  0  0  0  0  0  0
   39.5880   24.2030   31.2020 H   0  0  0  0  0  0  0  0  0  0  0  0
   36.2150   20.2660   31.6960 C   0  0  0  0  0  0  0  0  0  0  0  0
   36.7260   18.9900   31.4320 C   0  0  0  0  0  0  0  0  0  0  0  0
   37.7150   18.6500   31.1320 H   0  0  0  0  0  0  0  0  0  0  0  0
   35.6380   18.1350   31.6410 C   0  0  0  0  0  0  0  0  0  0  0  0
   35.6360   17.0410   31.5340 H   0  0  0  0  0  0  0  0  0  0  0  0
   34.5570   18.8710   32.0060 N   0  0  0  0  0  0  0  0  0  0  0  0
   33.6230   18.4570   32.2160 H   0  0  0  0  0  0  0  0  0  0  0  0
   34.9190   20.1640   32.0360 N   0  0  0  0  0  0  0  0  0  0  0  0
  1  7  1  0  0  0  0
  1  2  1  0  0  0  0
  2  8  1  0  0  0  0
  3  2  2  0  0  0  0
  3  9  1  0  0  0  0
  4  3  1  0  0  0  0
  5  6  1  0  0  0  0
  5  4  2  0  0  0  0
  6  1  2  0  0  0  0
  9 10  1  0  0  0  0
 10 15  1  0  0  0  0
 10 11  2  0  0  0  0
 11 16  1  0  0  0  0
 12 11  1  0  0  0  0
 13 12  2  0  0  0  0
 14  9  2  0  0  0  0
 14 13  1  0  0  0  0
 17 13  1  0  0  0  0
 17 19  1  0  0  0  0
 18 17  1  0  0  0  0
 20 17  1  0  0  0  0
 21  5  1  0  0  0  0
 22 23  1  0  0  0  0
 22 28  1  0  0  0  0
 23 24  2  0  0  0  0
 24 25  1  0  0  0  0
 24 21  1  0  0  0  0
 25 26  2  0  0  0  0
 27 25  1  0  0  0  0
 27 32  1  0  0  0  0
 28 27  1  0  0  0  0
 29 28  2  0  0  0  0
 30 22  1  0  0  0  0
 31 23  1  0  0  0  0
 32 39  2  0  0  0  0
 33 35  2  0  0  0  0
 33 32  1  0  0  0  0
 34 33  1  0  0  0  0
 35 37  1  0  0  0  0
 36 35  1  0  0  0  0
 37 39  1  0  0  0  0
 37 38  1  0  0  0  0
M  END
>  <minimizedAffinity>
-6.76187754

$$$$

 OpenBabel03272502273D

 39 42  0  0  0  0  0  0  0  0999 V2000
   36.5840   29.1510   31.6800 C   0  0  0  0  0  0  0  0  0  0  0  0
   35.9230   30.0120   32.5810 C   0  0  0  0  0  0  0  0  0  0  0  0
   35.7470   29.5640   33.8820 C   0  0  0  0  0  0  0  0  0  0  0  0
   36.2160   28.3490   34.1890 N   0  0  0  0  0  0  0  0  0  0  0  0
   36.8430   27.5350   33.3270 C   0  0  0  0  0  0  0  0  0  0  0  0
   37.0280   27.9370   32.0710 N   0  0  0  0  0  0  0  0  0  0  0  0
   36.7170   29.5120   30.6590 H   0  0  0  0  0  0  0  0  0  0  0  0
   35.5550   30.9900   32.3020 H   0  0  0  0  0  0  0  0  0  0  0  0
   35.0970   30.3580   34.8920 C   0  0  0  0  0  0  0  0  0  0  0  0
   35.8130   31.3160   35.6050 C   0  0  0  0  0  0  0  0  0  0  0  0
   35.2480   32.1080   36.5730 C   0  0  0  0  0  0  0  0  0  0  0  0
   33.9360   31.9620   36.8590 N   0  0  0  0  0  0  0  0  0  0  0  0
   33.2590   31.0330   36.1620 C   0  0  0  0  0  0  0  0  0  0  0  0
   33.7880   30.2410   35.2050 N   0  0  0  0  0  0  0  0  0  0  0  0
   36.8780   31.4220   35.3620 H   0  0  0  0  0  0  0  0  0  0  0  0
   35.8750   32.8300   37.0810 H   0  0  0  0  0  0  0  0  0  0  0  0
   31.8150   30.8520   36.4540 C   0  0  0  0  0  0  0  0  0  0  0  0
   31.3440   32.0720   36.9890 F   0  0  0  0  0  0  0  0  0  0  0  0
   31.1170   30.4800   35.3470 F   0  0  0  0  0  0  0  0  0  0  0  0
   31.6070   29.9450   37.4800 F   0  0  0  0  0  0  0  0  0  0  0  0
   37.2670   26.3060   33.8110 O   0  0  0  0  0  0  0  0  0  0  0  0
   40.9160   26.5570   34.2450 N   0  0  0  0  0  0  0  0  0  0  0  0
   39.6930   26.9200   33.8380 C   0  0  0  0  0  0  0  0  0  0  0  0
   38.6050   26.1160   34.1360 C   0  0  0  0  0  0  0  0  0  0  0  0
   38.8170   24.9480   34.8520 C   0  0  0  0  0  0  0  0  0  0  0  0
   37.9780   24.0800   35.2290 O   0  0  0  0  0  0  0  0  0  0  0  0
   40.0660   24.6210   35.2410 N   0  0  0  0  0  0  0  0  0  0  0  0
   41.1240   25.4260   34.9390 C   0  0  0  0  0  0  0  0  0  0  0  0
   42.3130   25.1650   35.2810 O   0  0  0  0  0  0  0  0  0  0  0  0
   41.6540   27.2390   33.9640 H   0  0  0  0  0  0  0  0  0  0  0  0
   39.4400   27.7970   33.2850 H   0  0  0  0  0  0  0  0  0  0  0  0
   40.4010   23.4470   35.9810 C   0  0  0  0  0  0  0  0  0  0  0  0
   41.7520   23.1640   36.2190 C   0  0  0  0  0  0  0  0  0  0  0  0
   42.6650   23.6860   35.9400 H   0  0  0  0  0  0  0  0  0  0  0  0
   41.7280   21.9720   36.9530 C   0  0  0  0  0  0  0  0  0  0  0  0
   42.6000   21.4220   37.3330 H   0  0  0  0  0  0  0  0  0  0  0  0
   40.4400   21.5850   37.1310 N   0  0  0  0  0  0  0  0  0  0  0  0
   40.1650   20.7230   37.6490 H   0  0  0  0  0  0  0  0  0  0  0  0
   39.6420   22.4870   36.5370 N   0  0  0  0  0  0  0  0  0  0  0  0
  1  6  2  0  0  0  0
  1  2  1  0  0  0  0
  2  3  2  0  0  0  0
  3  4  1  0  0  0  0
  3  9  1  0  0  0  0
  5 21  1  0  0  0  0
  5  4  2  0  0  0  0
  6  5  1  0  0  0  0
  7  1  1  0  0  0  0
  8  2  1  0  0  0  0
  9 14  2  0  0  0  0
  9 10  1  0  0  0  0
 10 11  2  0  0  0  0
 11 12  1  0  0  0  0
 11 16  1  0  0  0  0
 13 17  1  0  0  0  0
 13 12  2  0  0  0  0
 14 13  1  0  0  0  0
 15 10  1  0  0  0  0
 17 18  1  0  0  0  0
 17 20  1  0  0  0  0
 19 17  1  0  0  0  0
 21 24  1  0  0  0  0
 22 28  1  0  0  0  0
 23 24  2  0  0  0  0
 23 22  1  0  0  0  0
 24 25  1  0  0  0  0
 25 26  2  0  0  0  0
 25 27  1  0  0  0  0
 27 32  1  0  0  0  0
 28 27  1  0  0  0  0
 28 29  2  0  0  0  0
 30 22  1  0  0  0  0
 31 23  1  0  0  0  0
 32 33  1  0  0  0  0
 32 39  2  0  0  0  0
 33 35  2  0  0  0  0
 34 33  1  0  0  0  0
 35 37  1  0  0  0  0
 35 36  1  0  0  0  0
 37 38  1  0  0  0  0
 39 37  1  0  0  0  0
M  END
>  <minimizedAffinity>
-6.71991014

$$$$

 OpenBabel03272502273D

 39 42  0  0  0  0  0  0  0  0999 V2000
   35.3270   20.5550   33.2950 C   0  0  0  0  0  0  0  0  0  0  0  0
   36.2430   20.8330   34.3310 C   0  0  0  0  0  0  0  0  0  0  0  0
   37.1610   21.8520   34.1180 C   0  0  0  0  0  0  0  0  0  0  0  0
   37.1110   22.4980   32.9470 N   0  0  0  0  0  0  0  0  0  0  0  0
   36.2360   22.2280   31.9660 C   0  0  0  0  0  0  0  0  0  0  0  0
   35.3430   21.2570   32.1400 N   0  0  0  0  0  0  0  0  0  0  0  0
   34.6090   19.7520   33.4720 H   0  0  0  0  0  0  0  0  0  0  0  0
   36.2590   20.2920   35.2670 H   0  0  0  0  0  0  0  0  0  0  0  0
   38.1370   22.2320   35.1050 C   0  0  0  0  0  0  0  0  0  0  0  0
   39.4970   22.0890   34.8440 C   0  0  0  0  0  0  0  0  0  0  0  0
   40.4740   22.4400   35.7430 C   0  0  0  0  0  0  0  0  0  0  0  0
   40.1130   22.9490   36.9410 N   0  0  0  0  0  0  0  0  0  0  0  0
   38.7960   23.0800   37.1770 C   0  0  0  0  0  0  0  0  0  0  0  0
   37.8140   22.7440   36.3140 N   0  0  0  0  0  0  0  0  0  0  0  0
   39.7730   21.6730   33.8670 H   0  0  0  0  0  0  0  0  0  0  0  0
   41.5090   22.2970   35.4610 H   0  0  0  0  0  0  0  0  0  0  0  0
   38.3710   23.6380   38.4850 C   0  0  0  0  0  0  0  0  0  0  0  0
   37.2860   22.8530   38.9380 F   0  0  0  0  0  0  0  0  0  0  0  0
   39.3930   23.6560   39.3840 F   0  0  0  0  0  0  0  0  0  0  0  0
   37.8240   24.9030   38.3530 F   0  0  0  0  0  0  0  0  0  0  0  0
   36.3220   22.9960   30.8130 O   0  0  0  0  0  0  0  0  0  0  0  0
   35.9270   26.6230   31.3140 N   0  0  0  0  0  0  0  0  0  0  0  0
   35.5660   25.3350   31.2830 C   0  0  0  0  0  0  0  0  0  0  0  0
   36.4890   24.3720   30.9110 C   0  0  0  0  0  0  0  0  0  0  0  0
   37.7730   24.7760   30.5780 C   0  0  0  0  0  0  0  0  0  0  0  0
   38.7610   24.0740   30.2160 O   0  0  0  0  0  0  0  0  0  0  0  0
   38.0940   26.0850   30.6220 N   0  0  0  0  0  0  0  0  0  0  0  0
   37.1710   27.0170   30.9920 C   0  0  0  0  0  0  0  0  0  0  0  0
   37.4210   28.2550   31.0500 O   0  0  0  0  0  0  0  0  0  0  0  0
   35.1510   27.2540   31.6090 H   0  0  0  0  0  0  0  0  0  0  0  0
   34.6040   24.9380   31.5220 H   0  0  0  0  0  0  0  0  0  0  0  0
   39.3800   26.6130   30.3010 C   0  0  0  0  0  0  0  0  0  0  0  0
   39.5490   28.0030   30.2720 C   0  0  0  0  0  0  0  0  0  0  0  0
   38.8590   28.8230   30.4550 H   0  0  0  0  0  0  0  0  0  0  0  0
   40.8960   28.1770   29.9320 C   0  0  0  0  0  0  0  0  0  0  0  0
   41.4190   29.1360   29.8090 H   0  0  0  0  0  0  0  0  0  0  0  0
   41.4760   26.9610   29.7730 N   0  0  0  0  0  0  0  0  0  0  0  0
   42.4790   26.8310   29.5170 H   0  0  0  0  0  0  0  0  0  0  0  0
   40.5480   26.0180   30.0000 N   0  0  0  0  0  0  0  0  0  0  0  0
  1  7  1  0  0  0  0
  1  2  1  0  0  0  0
  2  8  1  0  0  0  0
  3  2  2  0  0  0  0
  3  9  1  0  0  0  0
  4  3  1  0  0  0  0
  5  6  1  0  0  0  0
  5  4  2  0  0  0  0
  6  1  2  0  0  0  0
  9 14  1  0  0  0  0
 10  9  2  0  0  0  0
 10 11  1  0  0  0  0
 11 12  2  0  0  0  0
 12 13  1  0  0  0  0
 13 17  1  0  0  0  0
 14 13  2  0  0  0  0
 15 10  1  0  0  0  0
 16 11  1  0  0  0  0
 17 18  1  0  0  0  0
 17 19  1  0  0  0  0
 20 17  1  0  0  0  0
 21 24  1  0  0  0  0
 21  5  1  0  0  0  0
 22 30  1  0  0  0  0
 23 22  1  0  0  0  0
 23 31  1  0  0  0  0
 24 23  2  0  0  0  0
 25 27  1  0  0  0  0
 25 24  1  0  0  0  0
 26 25  2  0  0  0  0
 27 28  1  0  0  0  0
 28 29  2  0  0  0  0
 28 22  1  0  0  0  0
 32 27  1  0  0  0  0
 33 32  1  0  0  0  0
 33 34  1  0  0  0  0
 35 33  2  0  0  0  0
 36 35  1  0  0  0  0
 37 35  1  0  0  0  0
 37 39  1  0  0  0  0
 38 37  1  0  0  0  0
 39 32  2  0  0  0  0
M  END
>  <minimizedAffinity>
-6.67094803

$$$$

 OpenBabel03272502273D

 39 42  0  0  0  0  0  0  0  0999 V2000
   38.0440   23.6660   37.3450 C   0  0  0  0  0  0  0  0  0  0  0  0
   37.9530   22.6200   36.4040 C   0  0  0  0  0  0  0  0  0  0  0  0
   37.9420   22.9670   35.0600 C   0  0  0  0  0  0  0  0  0  0  0  0
   38.0180   24.2680   34.7540 N   0  0  0  0  0  0  0  0  0  0  0  0
   38.1050   25.2580   35.6550 C   0  0  0  0  0  0  0  0  0  0  0  0
   38.1180   24.9570   36.9520 N   0  0  0  0  0  0  0  0  0  0  0  0
   38.0520   23.3840   38.3990 H   0  0  0  0  0  0  0  0  0  0  0  0
   37.8930   21.5770   36.6820 H   0  0  0  0  0  0  0  0  0  0  0  0
   37.8640   21.9870   34.0100 C   0  0  0  0  0  0  0  0  0  0  0  0
   38.9930   21.6600   33.2640 C   0  0  0  0  0  0  0  0  0  0  0  0
   38.9820   20.7290   32.2550 C   0  0  0  0  0  0  0  0  0  0  0  0
   37.8280   20.0920   31.9600 N   0  0  0  0  0  0  0  0  0  0  0  0
   36.7470   20.4190   32.6900 C   0  0  0  0  0  0  0  0  0  0  0  0
   36.7280   21.3290   33.6860 N   0  0  0  0  0  0  0  0  0  0  0  0
   39.9220   22.1870   33.5140 H   0  0  0  0  0  0  0  0  0  0  0  0
   39.9040   20.5330   31.7230 H   0  0  0  0  0  0  0  0  0  0  0  0
   35.4660   19.7330   32.3890 C   0  0  0  0  0  0  0  0  0  0  0  0
   35.5390   19.2830   31.0520 F   0  0  0  0  0  0  0  0  0  0  0  0
   35.2220   18.7110   33.2550 F   0  0  0  0  0  0  0  0  0  0  0  0
   34.3990   20.6160   32.3760 F   0  0  0  0  0  0  0  0  0  0  0  0
   38.1760   26.5550   35.1660 O   0  0  0  0  0  0  0  0  0  0  0  0
   41.0240   27.1490   32.9080 N   0  0  0  0  0  0  0  0  0  0  0  0
   40.3970   26.8360   34.0490 C   0  0  0  0  0  0  0  0  0  0  0  0
   39.0130   26.8430   34.0950 C   0  0  0  0  0  0  0  0  0  0  0  0
   38.3110   27.1760   32.9470 C   0  0  0  0  0  0  0  0  0  0  0  0
   37.0610   27.2430   32.7680 O   0  0  0  0  0  0  0  0  0  0  0  0
   38.9830   27.4840   31.8190 N   0  0  0  0  0  0  0  0  0  0  0  0
   40.3460   27.4720   31.7940 C   0  0  0  0  0  0  0  0  0  0  0  0
   41.0220   27.7520   30.7630 O   0  0  0  0  0  0  0  0  0  0  0  0
   42.0630   27.1090   32.9930 H   0  0  0  0  0  0  0  0  0  0  0  0
   40.8570   26.5700   34.9750 H   0  0  0  0  0  0  0  0  0  0  0  0
   38.3660   27.8420   30.5830 C   0  0  0  0  0  0  0  0  0  0  0  0
   39.1780   28.2560   29.5200 C   0  0  0  0  0  0  0  0  0  0  0  0
   40.2560   28.3710   29.4300 H   0  0  0  0  0  0  0  0  0  0  0  0
   38.2760   28.5240   28.4840 C   0  0  0  0  0  0  0  0  0  0  0  0
   38.5280   28.8760   27.4740 H   0  0  0  0  0  0  0  0  0  0  0  0
   37.0140   28.2810   28.9180 N   0  0  0  0  0  0  0  0  0  0  0  0
   36.1660   28.4100   28.3240 H   0  0  0  0  0  0  0  0  0  0  0  0
   37.0790   27.8670   30.1940 N   0  0  0  0  0  0  0  0  0  0  0  0
  1  7  1  0  0  0  0
  2  8  1  0  0  0  0
  2  1  2  0  0  0  0
  3  2  1  0  0  0  0
  4  3  2  0  0  0  0
  4  5  1  0  0  0  0
  5  6  2  0  0  0  0
  6  1  1  0  0  0  0
  9  3  1  0  0  0  0
 10 15  1  0  0  0  0
 10  9  2  0  0  0  0
 11 10  1  0  0  0  0
 12 11  2  0  0  0  0
 12 13  1  0  0  0  0
 13 14  2  0  0  0  0
 14  9  1  0  0  0  0
 16 11  1  0  0  0  0
 17 13  1  0  0  0  0
 17 19  1  0  0  0  0
 18 17  1  0  0  0  0
 20 17  1  0  0  0  0
 21  5  1  0  0  0  0
 22 30  1  0  0  0  0
 22 23  1  0  0  0  0
 23 24  2  0  0  0  0
 23 31  1  0  0  0  0
 24 21  1  0  0  0  0
 25 24  1  0  0  0  0
 26 25  2  0  0  0  0
 27 25  1  0  0  0  0
 28 27  1  0  0  0  0
 28 22  1  0  0  0  0
 29 28  2  0  0  0  0
 32 27  1  0  0  0  0
 33 32  1  0  0  0  0
 34 33  1  0  0  0  0
 35 37  1  0  0  0  0
 35 33  2  0  0  0  0
 36 35  1  0  0  0  0
 37 39  1  0  0  0  0
 38 37  1  0  0  0  0
 39 32  2  0  0  0  0
M  END
>  <minimizedAffinity>
-6.50563335

$$$$
