
 OpenBabel03272510113D

 34 37  0  0  0  0  0  0  0  0999 V2000
   33.4440   28.3980   48.9840 C   0  0  0  0  0  0  0  0  0  0  0  0
   33.7800   28.8700   50.2030 C   0  0  0  0  0  0  0  0  0  0  0  0
   35.0170   29.3850   50.5340 C   0  0  0  0  0  0  0  0  0  0  0  0
   36.0000   29.4390   49.5860 C   0  0  0  0  0  0  0  0  0  0  0  0
   35.6480   28.9480   48.3220 C   0  0  0  0  0  0  0  0  0  0  0  0
   34.4310   28.4570   48.0460 N   0  0  0  0  0  0  0  0  0  0  0  0
   33.0700   28.8690   51.0190 H   0  0  0  0  0  0  0  0  0  0  0  0
   35.2790   29.7590   51.5080 H   0  0  0  0  0  0  0  0  0  0  0  0
   36.3950   28.9690   47.5310 H   0  0  0  0  0  0  0  0  0  0  0  0
   31.0120   27.9520   49.4840 C   0  0  0  0  0  0  0  0  0  0  0  0
   32.1490   27.8640   48.6560 C   0  0  0  0  0  0  0  0  0  0  0  0
   31.9660   27.2090   47.4450 C   0  0  0  0  0  0  0  0  0  0  0  0
   30.7460   26.6940   47.1130 N   0  0  0  0  0  0  0  0  0  0  0  0
   29.7020   26.8140   47.9530 C   0  0  0  0  0  0  0  0  0  0  0  0
   29.8200   27.4400   49.1410 N   0  0  0  0  0  0  0  0  0  0  0  0
   31.1320   28.4580   50.4320 H   0  0  0  0  0  0  0  0  0  0  0  0
   32.8290   27.1280   46.7890 H   0  0  0  0  0  0  0  0  0  0  0  0
   28.8340   26.3430   47.5060 H   0  0  0  0  0  0  0  0  0  0  0  0
   37.2960   29.9210   49.7400 O   0  0  0  0  0  0  0  0  0  0  0  0
   37.8490   30.8300   48.8370 C   0  0  0  0  0  0  0  0  0  0  0  0
   38.2620   32.0210   49.4450 C   0  0  0  0  0  0  0  0  0  0  0  0
   38.7940   32.8450   48.4550 C   0  0  0  0  0  0  0  0  0  0  0  0
   38.6850   32.1420   47.3190 N   0  0  0  0  0  0  0  0  0  0  0  0
   38.1370   30.9730   47.5440 N   0  0  0  0  0  0  0  0  0  0  0  0
   38.2610   32.4280   50.4680 H   0  0  0  0  0  0  0  0  0  0  0  0
   39.2290   33.8330   48.4230 H   0  0  0  0  0  0  0  0  0  0  0  0
   39.0630   32.4770   45.9870 C   0  0  0  0  0  0  0  0  0  0  0  0
   38.4830   32.6010   44.7420 C   0  0  0  0  0  0  0  0  0  0  0  0
   37.4220   32.3930   44.6990 H   0  0  0  0  0  0  0  0  0  0  0  0
   39.5020   32.9750   43.8830 C   0  0  0  0  0  0  0  0  0  0  0  0
   39.2490   33.1260   42.8410 H   0  0  0  0  0  0  0  0  0  0  0  0
   40.6470   33.0700   44.5980 N   0  0  0  0  0  0  0  0  0  0  0  0
   41.5540   33.3460   44.1290 H   0  0  0  0  0  0  0  0  0  0  0  0
   40.3860   32.7730   45.8540 N   0  0  0  0  0  0  0  0  0  0  0  0
  1  2  1  0  0  0  0
  2  3  2  0  0  0  0
  2  7  1  0  0  0  0
  3  8  1  0  0  0  0
  4 19  1  0  0  0  0
  4  3  1  0  0  0  0
  5  4  2  0  0  0  0
  6  5  1  0  0  0  0
  6  1  2  0  0  0  0
  9  5  1  0  0  0  0
 10 16  1  0  0  0  0
 11  1  1  0  0  0  0
 11 10  2  0  0  0  0
 12 11  1  0  0  0  0
 13 12  2  0  0  0  0
 13 14  1  0  0  0  0
 14 15  2  0  0  0  0
 15 10  1  0  0  0  0
 17 12  1  0  0  0  0
 18 14  1  0  0  0  0
 20 21  1  0  0  0  0
 20 19  1  0  0  0  0
 21 25  1  0  0  0  0
 22 21  2  0  0  0  0
 23 24  1  0  0  0  0
 23 22  1  0  0  0  0
 24 20  2  0  0  0  0
 26 22  1  0  0  0  0
 27 23  1  0  0  0  0
 28 27  1  0  0  0  0
 29 28  1  0  0  0  0
 30 32  1  0  0  0  0
 30 28  2  0  0  0  0
 31 30  1  0  0  0  0
 32 34  1  0  0  0  0
 33 32  1  0  0  0  0
 34 27  2  0  0  0  0
M  END
>  <minimizedAffinity>
-5.97641897

>  <minimizedRMSD>
1.51828897

$$$$
