
     RDKit          3D

 30 32  0  0  0  0  0  0  0  0999 V2000
   36.8020   32.1865   50.1257 Cl  0  0  0  0  0  0  0  0  0  0  0  0
   37.5397   31.9211   48.5768 C   0  0  0  0  0  0  0  0  0  0  0  0
   36.9561   30.9122   47.8808 C   0  0  0  0  0  0  0  0  0  0  0  0
   37.4852   30.6139   46.5988 C   0  0  0  0  0  0  0  0  0  0  0  0
   38.5375   31.3084   46.0800 C   0  0  0  0  0  0  0  0  0  0  0  0
   39.1025   32.3261   46.8184 C   0  0  0  0  0  0  0  0  0  0  0  0
   40.4394   33.2311   46.1952 Cl  0  0  0  0  0  0  0  0  0  0  0  0
   38.5980   32.6138   48.0459 C   0  0  0  0  0  0  0  0  0  0  0  0
   36.0414   29.0957   49.2527 C   0  0  0  0  0  0  0  0  0  0  0  0
   35.8275   30.0348   48.2304 C   0  0  0  0  0  0  0  0  0  0  0  0
   34.5877   30.0867   47.6124 C   0  0  0  0  0  0  0  0  0  0  0  0
   33.6342   29.2161   48.0333 N   0  0  0  0  0  0  0  0  0  0  0  0
   33.8662   28.3214   49.0200 C   0  0  0  0  0  0  0  0  0  0  0  0
   35.0823   28.2556   49.6410 N   0  0  0  0  0  0  0  0  0  0  0  0
   39.1398   33.6859   48.9018 C   0  0  0  0  0  0  0  0  0  0  0  0
   39.2889   34.8796   48.6644 O   0  0  0  0  0  0  0  0  0  0  0  0
   39.6156   33.5444   50.2234 O   0  0  0  0  0  0  0  0  0  0  0  0
   37.0932   29.8309   45.9652 H   0  0  0  0  0  0  0  0  0  0  0  0
   38.9507   31.0902   45.1021 H   0  0  0  0  0  0  0  0  0  0  0  0
   37.0028   29.0406   49.7467 H   0  0  0  0  0  0  0  0  0  0  0  0
   34.4405   30.8165   46.8267 H   0  0  0  0  0  0  0  0  0  0  0  0
   33.0024   27.7136   49.2232 H   0  0  0  0  0  0  0  0  0  0  0  0
   40.1075   34.6207   50.9464 C   0  0  0  0  0  0  0  0  0  0  0  0
   39.6564   35.9114   50.7503 C   0  0  0  0  0  0  0  0  0  0  0  0
   38.9055   36.2486   50.0526 H   0  0  0  0  0  0  0  0  0  0  0  0
   40.3423   36.7288   51.6182 C   0  0  0  0  0  0  0  0  0  0  0  0
   40.3023   37.7822   51.7935 H   0  0  0  0  0  0  0  0  0  0  0  0
   41.1834   35.9495   52.3176 N   0  0  0  0  0  0  0  0  0  0  0  0
   41.8640   36.2219   53.0685 H   0  0  0  0  0  0  0  0  0  0  0  0
   41.0413   34.6776   51.9116 N   0  0  0  0  0  0  0  0  0  0  0  0
  2  1  1  0
  3 10  1  0
  3  2  2  0
  4  3  1  0
  5  4  2  0
  5  6  1  0
  6  8  2  0
  7  6  1  0
  8  2  1  0
  8 15  1  0
  9 14  2  0
 10  9  1  0
 11 12  1  0
 11 10  2  0
 12 13  2  0
 13 14  1  0
 15 17  1  0
 16 15  2  0
  4 18  1  0
  5 19  1  0
  9 20  1  0
 11 21  1  0
 13 22  1  0
 23 24  1  0
 24 25  1  0
 24 26  2  0
 26 27  1  0
 26 28  1  0
 28 29  1  0
 28 30  1  0
 30 23  2  0
 17 23  1  0
M  ISO  8  18  14  19  14  20  14  21  14  22  14  25  15  27  16  29   5
M  END
>  <DihAtoms>  (1) 
14,16,22,23

>  <DihDeg>  (1) 
90.00897034541721

$$$$
