
 OpenBabel03272510103D

 27 29  0  0  0  0  0  0  0  0999 V2000
   35.6150   29.8580   48.5980 C   0  0  0  0  0  0  0  0  0  0  0  0
   34.6330   29.9980   47.6690 C   0  0  0  0  0  0  0  0  0  0  0  0
   33.5640   29.1380   47.5280 C   0  0  0  0  0  0  0  0  0  0  0  0
   33.4430   28.0610   48.3530 C   0  0  0  0  0  0  0  0  0  0  0  0
   34.4520   27.9170   49.3080 C   0  0  0  0  0  0  0  0  0  0  0  0
   35.4790   28.7820   49.4110 N   0  0  0  0  0  0  0  0  0  0  0  0
   34.6650   30.8370   46.9760 H   0  0  0  0  0  0  0  0  0  0  0  0
   32.7760   29.2460   46.7870 H   0  0  0  0  0  0  0  0  0  0  0  0
   34.4420   27.0820   50.0170 H   0  0  0  0  0  0  0  0  0  0  0  0
   37.3160   31.4520   47.6600 C   0  0  0  0  0  0  0  0  0  0  0  0
   36.7310   30.7580   48.7430 C   0  0  0  0  0  0  0  0  0  0  0  0
   37.2780   30.9730   49.9890 C   0  0  0  0  0  0  0  0  0  0  0  0
   38.3350   31.8250   50.1280 N   0  0  0  0  0  0  0  0  0  0  0  0
   38.8560   32.4650   49.0530 C   0  0  0  0  0  0  0  0  0  0  0  0
   38.3550   32.2850   47.8200 N   0  0  0  0  0  0  0  0  0  0  0  0
   36.8850   31.2840   46.6770 H   0  0  0  0  0  0  0  0  0  0  0  0
   36.8520   30.4550   50.8490 H   0  0  0  0  0  0  0  0  0  0  0  0
   39.6970   33.1190   49.2810 H   0  0  0  0  0  0  0  0  0  0  0  0
   32.4430   27.0920   48.3630 O   0  0  0  0  0  0  0  0  0  0  0  0
   32.3820   26.0780   47.4170 C   0  0  0  0  0  0  0  0  0  0  0  0
   33.2090   26.3070   46.3110 C   0  0  0  0  0  0  0  0  0  0  0  0
   33.8980   27.0830   45.9930 H   0  0  0  0  0  0  0  0  0  0  0  0
   33.0610   25.2310   45.4440 C   0  0  0  0  0  0  0  0  0  0  0  0
   33.4810   24.9650   44.4890 H   0  0  0  0  0  0  0  0  0  0  0  0
   32.1720   24.4060   46.0350 N   0  0  0  0  0  0  0  0  0  0  0  0
   31.7300   23.4880   45.8110 H   0  0  0  0  0  0  0  0  0  0  0  0
   31.7800   24.9080   47.1900 N   0  0  0  0  0  0  0  0  0  0  0  0
  1 11  1  0  0  0  0
  1  6  1  0  0  0  0
  2  1  2  0  0  0  0
  3  2  1  0  0  0  0
  3  4  2  0  0  0  0
  4 19  1  0  0  0  0
  4  5  1  0  0  0  0
  5  6  2  0  0  0  0
  5  9  1  0  0  0  0
  7  2  1  0  0  0  0
  8  3  1  0  0  0  0
 10 15  2  0  0  0  0
 10 11  1  0  0  0  0
 11 12  2  0  0  0  0
 12 13  1  0  0  0  0
 12 17  1  0  0  0  0
 14 18  1  0  0  0  0
 14 13  2  0  0  0  0
 15 14  1  0  0  0  0
 16 10  1  0  0  0  0
 20 19  1  0  0  0  0
 21 20  1  0  0  0  0
 22 21  1  0  0  0  0
 23 25  1  0  0  0  0
 23 21  2  0  0  0  0
 24 23  1  0  0  0  0
 25 27  1  0  0  0  0
 26 25  1  0  0  0  0
 27 20  2  0  0  0  0
M  END
>  <minimizedAffinity>
-4.12049675

>  <minimizedRMSD>
8.82342052

$$$$
