
 OpenBabel03272510113D

 34 37  0  0  0  0  0  0  0  0999 V2000
   33.5750   28.4140   48.9330 C   0  0  0  0  0  0  0  0  0  0  0  0
   33.8490   28.8640   50.1760 C   0  0  0  0  0  0  0  0  0  0  0  0
   35.0540   29.4120   50.5670 C   0  0  0  0  0  0  0  0  0  0  0  0
   36.0690   29.5250   49.6580 C   0  0  0  0  0  0  0  0  0  0  0  0
   35.7820   29.0560   48.3700 C   0  0  0  0  0  0  0  0  0  0  0  0
   34.5950   28.5320   48.0350 N   0  0  0  0  0  0  0  0  0  0  0  0
   33.1100   28.8180   50.9640 H   0  0  0  0  0  0  0  0  0  0  0  0
   35.2670   29.7700   51.5590 H   0  0  0  0  0  0  0  0  0  0  0  0
   36.5570   29.1240   47.6090 H   0  0  0  0  0  0  0  0  0  0  0  0
   31.1430   27.8780   49.3260 C   0  0  0  0  0  0  0  0  0  0  0  0
   32.3130   27.8450   48.5420 C   0  0  0  0  0  0  0  0  0  0  0  0
   32.2010   27.2110   47.3120 C   0  0  0  0  0  0  0  0  0  0  0  0
   31.0120   26.6640   46.9210 N   0  0  0  0  0  0  0  0  0  0  0  0
   29.9330   26.7310   47.7210 C   0  0  0  0  0  0  0  0  0  0  0  0
   29.9820   27.3350   48.9250 N   0  0  0  0  0  0  0  0  0  0  0  0
   31.2070   28.3670   50.2880 H   0  0  0  0  0  0  0  0  0  0  0  0
   33.0910   27.1720   46.6900 H   0  0  0  0  0  0  0  0  0  0  0  0
   29.0990   26.2420   47.2300 H   0  0  0  0  0  0  0  0  0  0  0  0
   37.3410   30.0470   49.8740 O   0  0  0  0  0  0  0  0  0  0  0  0
   37.9260   30.9390   48.9750 C   0  0  0  0  0  0  0  0  0  0  0  0
   38.1700   32.1990   49.5360 C   0  0  0  0  0  0  0  0  0  0  0  0
   38.7510   32.9990   48.5540 C   0  0  0  0  0  0  0  0  0  0  0  0
   38.8340   32.2170   47.4690 N   0  0  0  0  0  0  0  0  0  0  0  0
   38.3550   31.0220   47.7160 N   0  0  0  0  0  0  0  0  0  0  0  0
   38.0150   32.6700   50.5190 H   0  0  0  0  0  0  0  0  0  0  0  0
   39.1100   34.0160   48.4980 H   0  0  0  0  0  0  0  0  0  0  0  0
   39.3410   32.4960   46.1670 C   0  0  0  0  0  0  0  0  0  0  0  0
   40.5580   32.6810   45.5430 C   0  0  0  0  0  0  0  0  0  0  0  0
   41.4260   32.6020   46.1830 H   0  0  0  0  0  0  0  0  0  0  0  0
   40.2690   32.9260   44.2120 C   0  0  0  0  0  0  0  0  0  0  0  0
   41.1030   33.0990   43.5420 H   0  0  0  0  0  0  0  0  0  0  0  0
   38.9260   32.8860   44.0540 N   0  0  0  0  0  0  0  0  0  0  0  0
   38.4900   33.0490   43.1050 H   0  0  0  0  0  0  0  0  0  0  0  0
   38.3700   32.6310   45.2200 N   0  0  0  0  0  0  0  0  0  0  0  0
  1  2  1  0  0  0  0
  2  3  2  0  0  0  0
  2  7  1  0  0  0  0
  3  8  1  0  0  0  0
  4 19  1  0  0  0  0
  4  3  1  0  0  0  0
  5  4  2  0  0  0  0
  6  5  1  0  0  0  0
  6  1  2  0  0  0  0
  9  5  1  0  0  0  0
 10 16  1  0  0  0  0
 11  1  1  0  0  0  0
 11 10  2  0  0  0  0
 12 11  1  0  0  0  0
 13 12  2  0  0  0  0
 13 14  1  0  0  0  0
 14 15  2  0  0  0  0
 15 10  1  0  0  0  0
 17 12  1  0  0  0  0
 18 14  1  0  0  0  0
 20 21  1  0  0  0  0
 20 19  1  0  0  0  0
 21 25  1  0  0  0  0
 22 21  2  0  0  0  0
 23 24  1  0  0  0  0
 23 22  1  0  0  0  0
 24 20  2  0  0  0  0
 26 22  1  0  0  0  0
 27 23  1  0  0  0  0
 28 27  1  0  0  0  0
 28 29  1  0  0  0  0
 30 28  2  0  0  0  0
 31 30  1  0  0  0  0
 32 30  1  0  0  0  0
 32 34  1  0  0  0  0
 33 32  1  0  0  0  0
 34 27  2  0  0  0  0
M  END
>  <minimizedAffinity>
-6.18197727

>  <minimizedRMSD>
1.3634547

$$$$
