
 OpenBabel03272504013D

 30 32  0  0  0  0  0  0  0  0999 V2000
   38.3470   26.9200   35.5320 C   0  0  0  0  0  0  0  0  0  0  0  0
   39.2090   27.0710   36.2630 H   0  0  0  0  0  0  0  0  0  0  0  0
   37.7410   27.8300   35.7150 H   0  0  0  0  0  0  0  0  0  0  0  0
   38.8040   27.1140   34.1410 C   0  0  0  0  0  0  0  0  0  0  0  0
   40.1560   26.9520   33.8220 C   0  0  0  0  0  0  0  0  0  0  0  0
   40.3060   27.2040   32.4870 C   0  0  0  0  0  0  0  0  0  0  0  0
   39.0960   27.5060   32.0120 N   0  0  0  0  0  0  0  0  0  0  0  0
   38.2280   27.4480   32.9950 N   0  0  0  0  0  0  0  0  0  0  0  0
   41.0460   26.6810   34.4080 H   0  0  0  0  0  0  0  0  0  0  0  0
   41.1170   27.2140   31.7830 H   0  0  0  0  0  0  0  0  0  0  0  0
   38.4940   27.8670   30.7570 C   0  0  0  0  0  0  0  0  0  0  0  0
   38.9160   28.3180   29.5240 C   0  0  0  0  0  0  0  0  0  0  0  0
   39.9770   28.4620   29.3940 H   0  0  0  0  0  0  0  0  0  0  0  0
   37.7510   28.4550   28.7820 C   0  0  0  0  0  0  0  0  0  0  0  0
   37.8530   28.8100   27.7450 H   0  0  0  0  0  0  0  0  0  0  0  0
   36.6910   28.1030   29.5340 N   0  0  0  0  0  0  0  0  0  0  0  0
   35.7130   28.1360   29.1590 H   0  0  0  0  0  0  0  0  0  0  0  0
   37.1360   27.7420   30.7430 N   0  0  0  0  0  0  0  0  0  0  0  0
   37.7150   25.6150   35.7920 C   0  0  0  0  0  0  0  0  0  0  0  0
   37.4060   25.1300   34.8140 H   0  0  0  0  0  0  0  0  0  0  0  0
   36.7100   25.8080   36.2790 H   0  0  0  0  0  0  0  0  0  0  0  0
   38.4220   24.6170   36.5480 C   0  0  0  0  0  0  0  0  0  0  0  0
   38.0470   24.3280   37.8330 C   0  0  0  0  0  0  0  0  0  0  0  0
   38.7280   23.3480   38.5800 C   0  0  0  0  0  0  0  0  0  0  0  0
   39.7690   22.7250   37.9270 N   0  0  0  0  0  0  0  0  0  0  0  0
   40.1140   23.0330   36.6570 C   0  0  0  0  0  0  0  0  0  0  0  0
   39.4320   23.9800   35.9830 N   0  0  0  0  0  0  0  0  0  0  0  0
   37.2670   24.7290   38.4590 H   0  0  0  0  0  0  0  0  0  0  0  0
   38.5300   23.0320   39.5920 H   0  0  0  0  0  0  0  0  0  0  0  0
   40.9420   22.5050   36.2040 H   0  0  0  0  0  0  0  0  0  0  0  0
  1  3  1  0  0  0  0
  1 19  1  0  0  0  0
  1  2  1  0  0  0  0
  4  1  1  0  0  0  0
  5  4  1  0  0  0  0
  5  9  1  0  0  0  0
  6  5  2  0  0  0  0
  7  6  1  0  0  0  0
  7  8  1  0  0  0  0
  8  4  2  0  0  0  0
 10  6  1  0  0  0  0
 11  7  1  0  0  0  0
 12 11  1  0  0  0  0
 13 12  1  0  0  0  0
 14 12  2  0  0  0  0
 14 16  1  0  0  0  0
 15 14  1  0  0  0  0
 16 18  1  0  0  0  0
 17 16  1  0  0  0  0
 18 11  2  0  0  0  0
 19 21  1  0  0  0  0
 19 22  1  0  0  0  0
 20 19  1  0  0  0  0
 22 23  1  0  0  0  0
 23 28  1  0  0  0  0
 23 24  2  0  0  0  0
 24 29  1  0  0  0  0
 25 24  1  0  0  0  0
 26 25  2  0  0  0  0
 27 22  2  0  0  0  0
 27 26  1  0  0  0  0
 30 26  1  0  0  0  0
M  END
>  <minimizedAffinity>
-5.0322504

$$$$

 OpenBabel03272504013D

 30 32  0  0  0  0  0  0  0  0999 V2000
   37.6950   25.8210   35.9480 C   0  0  0  0  0  0  0  0  0  0  0  0
   37.1940   25.4770   34.9830 H   0  0  0  0  0  0  0  0  0  0  0  0
   36.8180   25.9760   36.6090 H   0  0  0  0  0  0  0  0  0  0  0  0
   38.3930   24.6960   36.6020 C   0  0  0  0  0  0  0  0  0  0  0  0
   38.0060   24.2830   37.8800 C   0  0  0  0  0  0  0  0  0  0  0  0
   38.8180   23.2470   38.2520 C   0  0  0  0  0  0  0  0  0  0  0  0
   39.6630   23.0370   37.2410 N   0  0  0  0  0  0  0  0  0  0  0  0
   39.4000   23.8950   36.2830 N   0  0  0  0  0  0  0  0  0  0  0  0
   37.2280   24.6180   38.5830 H   0  0  0  0  0  0  0  0  0  0  0  0
   38.9230   22.6100   39.1100 H   0  0  0  0  0  0  0  0  0  0  0  0
   40.7520   22.1560   36.9180 C   0  0  0  0  0  0  0  0  0  0  0  0
   41.5950   21.2980   37.5910 C   0  0  0  0  0  0  0  0  0  0  0  0
   41.4540   21.2120   38.6580 H   0  0  0  0  0  0  0  0  0  0  0  0
   42.4220   20.7720   36.6090 C   0  0  0  0  0  0  0  0  0  0  0  0
   43.1870   20.0480   36.9280 H   0  0  0  0  0  0  0  0  0  0  0  0
   42.0890   21.2910   35.4120 N   0  0  0  0  0  0  0  0  0  0  0  0
   42.5950   21.0230   34.5340 H   0  0  0  0  0  0  0  0  0  0  0  0
   41.0700   22.1390   35.5910 N   0  0  0  0  0  0  0  0  0  0  0  0
   38.5490   26.9870   35.6610 C   0  0  0  0  0  0  0  0  0  0  0  0
   39.2720   27.1600   36.5170 H   0  0  0  0  0  0  0  0  0  0  0  0
   37.8990   27.9140   35.7200 H   0  0  0  0  0  0  0  0  0  0  0  0
   39.3190   27.0270   34.4480 C   0  0  0  0  0  0  0  0  0  0  0  0
   40.6850   26.9520   34.4930 C   0  0  0  0  0  0  0  0  0  0  0  0
   41.4490   26.9850   33.3100 C   0  0  0  0  0  0  0  0  0  0  0  0
   40.7250   27.0930   32.1430 N   0  0  0  0  0  0  0  0  0  0  0  0
   39.3750   27.1650   32.1330 C   0  0  0  0  0  0  0  0  0  0  0  0
   38.6890   27.1300   33.2920 N   0  0  0  0  0  0  0  0  0  0  0  0
   41.3720   26.8670   35.3190 H   0  0  0  0  0  0  0  0  0  0  0  0
   42.5210   26.9350   33.2140 H   0  0  0  0  0  0  0  0  0  0  0  0
   38.8690   27.2480   31.1800 H   0  0  0  0  0  0  0  0  0  0  0  0
  1  4  1  0  0  0  0
  1  3  1  0  0  0  0
  2  1  1  0  0  0  0
  4  5  1  0  0  0  0
  5  6  2  0  0  0  0
  5  9  1  0  0  0  0
  6 10  1  0  0  0  0
  7  6  1  0  0  0  0
  8  4  2  0  0  0  0
  8  7  1  0  0  0  0
 11  7  1  0  0  0  0
 11 12  1  0  0  0  0
 12 13  1  0  0  0  0
 14 15  1  0  0  0  0
 14 12  2  0  0  0  0
 16 18  1  0  0  0  0
 16 14  1  0  0  0  0
 17 16  1  0  0  0  0
 18 11  2  0  0  0  0
 19 21  1  0  0  0  0
 19  1  1  0  0  0  0
 19 20  1  0  0  0  0
 22 23  1  0  0  0  0
 22 19  1  0  0  0  0
 23 28  1  0  0  0  0
 24 23  2  0  0  0  0
 25 24  1  0  0  0  0
 26 25  2  0  0  0  0
 26 27  1  0  0  0  0
 27 22  2  0  0  0  0
 29 24  1  0  0  0  0
 30 26  1  0  0  0  0
M  END
>  <minimizedAffinity>
-4.84071445

$$$$

 OpenBabel03272504013D

 30 32  0  0  0  0  0  0  0  0999 V2000
   39.6820   26.5820   32.7570 C   0  0  0  0  0  0  0  0  0  0  0  0
   40.5260   27.3490   32.7570 H   0  0  0  0  0  0  0  0  0  0  0  0
   40.2410   25.6400   32.5830 H   0  0  0  0  0  0  0  0  0  0  0  0
   39.1510   26.3930   34.1210 C   0  0  0  0  0  0  0  0  0  0  0  0
   38.8130   27.5040   34.8990 C   0  0  0  0  0  0  0  0  0  0  0  0
   38.3680   27.0510   36.1100 C   0  0  0  0  0  0  0  0  0  0  0  0
   38.4310   25.7190   36.0710 N   0  0  0  0  0  0  0  0  0  0  0  0
   38.8910   25.3500   34.8980 N   0  0  0  0  0  0  0  0  0  0  0  0
   38.8410   28.5900   34.7230 H   0  0  0  0  0  0  0  0  0  0  0  0
   38.0060   27.4910   37.0200 H   0  0  0  0  0  0  0  0  0  0  0  0
   38.1420   24.6040   36.9320 C   0  0  0  0  0  0  0  0  0  0  0  0
   37.9130   24.3950   38.2750 C   0  0  0  0  0  0  0  0  0  0  0  0
   37.9430   25.2620   38.9160 H   0  0  0  0  0  0  0  0  0  0  0  0
   37.6980   23.0290   38.3880 C   0  0  0  0  0  0  0  0  0  0  0  0
   37.4920   22.6320   39.3930 H   0  0  0  0  0  0  0  0  0  0  0  0
   37.7950   22.4540   37.1740 N   0  0  0  0  0  0  0  0  0  0  0  0
   37.6660   21.4220   37.0390 H   0  0  0  0  0  0  0  0  0  0  0  0
   38.0660   23.4090   36.2770 N   0  0  0  0  0  0  0  0  0  0  0  0
   38.6740   26.9730   31.7560 C   0  0  0  0  0  0  0  0  0  0  0  0
   39.1790   27.2220   30.7720 H   0  0  0  0  0  0  0  0  0  0  0  0
   38.2570   27.9820   32.0620 H   0  0  0  0  0  0  0  0  0  0  0  0
   37.5840   26.0850   31.4550 C   0  0  0  0  0  0  0  0  0  0  0  0
   36.2990   26.5540   31.4190 C   0  0  0  0  0  0  0  0  0  0  0  0
   35.2250   25.6940   31.1180 C   0  0  0  0  0  0  0  0  0  0  0  0
   35.5700   24.3830   30.8700 N   0  0  0  0  0  0  0  0  0  0  0  0
   36.8500   23.9520   30.9130 C   0  0  0  0  0  0  0  0  0  0  0  0
   37.8440   24.8140   31.2060 N   0  0  0  0  0  0  0  0  0  0  0  0
   35.8890   27.5360   31.5890 H   0  0  0  0  0  0  0  0  0  0  0  0
   34.1770   25.9400   31.0600 H   0  0  0  0  0  0  0  0  0  0  0  0
   37.0510   22.9090   30.7080 H   0  0  0  0  0  0  0  0  0  0  0  0
  1  4  1  0  0  0  0
  2  1  1  0  0  0  0
  3  1  1  0  0  0  0
  4  8  2  0  0  0  0
  4  5  1  0  0  0  0
  5  6  2  0  0  0  0
  6 10  1  0  0  0  0
  7  6  1  0  0  0  0
  7 11  1  0  0  0  0
  8  7  1  0  0  0  0
  9  5  1  0  0  0  0
 11 12  1  0  0  0  0
 12 14  2  0  0  0  0
 12 13  1  0  0  0  0
 14 15  1  0  0  0  0
 16 14  1  0  0  0  0
 17 16  1  0  0  0  0
 18 11  2  0  0  0  0
 18 16  1  0  0  0  0
 19 21  1  0  0  0  0
 19  1  1  0  0  0  0
 20 19  1  0  0  0  0
 22 19  1  0  0  0  0
 23 22  1  0  0  0  0
 23 28  1  0  0  0  0
 24 23  2  0  0  0  0
 25 26  2  0  0  0  0
 25 24  1  0  0  0  0
 26 27  1  0  0  0  0
 27 22  2  0  0  0  0
 29 24  1  0  0  0  0
 30 26  1  0  0  0  0
M  END
>  <minimizedAffinity>
-4.82592678

$$$$

 OpenBabel03272504013D

 30 32  0  0  0  0  0  0  0  0999 V2000
   37.6210   25.9230   35.6710 C   0  0  0  0  0  0  0  0  0  0  0  0
   36.5000   25.7270   35.6000 H   0  0  0  0  0  0  0  0  0  0  0  0
   37.6560   26.7310   36.4300 H   0  0  0  0  0  0  0  0  0  0  0  0
   38.3020   24.8080   36.3570 C   0  0  0  0  0  0  0  0  0  0  0  0
   37.8700   24.3990   37.6230 C   0  0  0  0  0  0  0  0  0  0  0  0
   38.6750   23.3720   38.0310 C   0  0  0  0  0  0  0  0  0  0  0  0
   39.5600   23.1630   37.0550 N   0  0  0  0  0  0  0  0  0  0  0  0
   39.3270   24.0130   36.0810 N   0  0  0  0  0  0  0  0  0  0  0  0
   37.0640   24.7320   38.2930 H   0  0  0  0  0  0  0  0  0  0  0  0
   38.7520   22.7410   38.8960 H   0  0  0  0  0  0  0  0  0  0  0  0
   40.6670   22.2890   36.7790 C   0  0  0  0  0  0  0  0  0  0  0  0
   41.4900   21.4410   37.4890 C   0  0  0  0  0  0  0  0  0  0  0  0
   41.3100   21.3610   38.5500 H   0  0  0  0  0  0  0  0  0  0  0  0
   42.3580   20.9160   36.5420 C   0  0  0  0  0  0  0  0  0  0  0  0
   43.1160   20.2000   36.8950 H   0  0  0  0  0  0  0  0  0  0  0  0
   42.0670   21.4250   35.3300 N   0  0  0  0  0  0  0  0  0  0  0  0
   42.6080   21.1560   34.4730 H   0  0  0  0  0  0  0  0  0  0  0  0
   41.0350   22.2660   35.4650 N   0  0  0  0  0  0  0  0  0  0  0  0
   38.1440   26.2260   34.3270 C   0  0  0  0  0  0  0  0  0  0  0  0
   38.9690   25.4960   34.0570 H   0  0  0  0  0  0  0  0  0  0  0  0
   38.7160   27.2030   34.3910 H   0  0  0  0  0  0  0  0  0  0  0  0
   37.2470   26.2770   33.2050 C   0  0  0  0  0  0  0  0  0  0  0  0
   36.7390   27.4740   32.7790 C   0  0  0  0  0  0  0  0  0  0  0  0
   35.8640   27.5360   31.6770 C   0  0  0  0  0  0  0  0  0  0  0  0
   35.5740   26.3260   31.0850 N   0  0  0  0  0  0  0  0  0  0  0  0
   36.0930   25.1600   31.5300 C   0  0  0  0  0  0  0  0  0  0  0  0
   36.9260   25.1530   32.5900 N   0  0  0  0  0  0  0  0  0  0  0  0
   36.8750   28.4810   33.1400 H   0  0  0  0  0  0  0  0  0  0  0  0
   35.4010   28.4100   31.2490 H   0  0  0  0  0  0  0  0  0  0  0  0
   35.8240   24.2460   31.0180 H   0  0  0  0  0  0  0  0  0  0  0  0
  1  4  1  0  0  0  0
  1  3  1  0  0  0  0
  2  1  1  0  0  0  0
  4  5  1  0  0  0  0
  5  6  2  0  0  0  0
  5  9  1  0  0  0  0
  6 10  1  0  0  0  0
  7  6  1  0  0  0  0
  8  4  2  0  0  0  0
  8  7  1  0  0  0  0
 11  7  1  0  0  0  0
 11 12  1  0  0  0  0
 12 13  1  0  0  0  0
 14 15  1  0  0  0  0
 14 12  2  0  0  0  0
 16 18  1  0  0  0  0
 16 14  1  0  0  0  0
 17 16  1  0  0  0  0
 18 11  2  0  0  0  0
 19 21  1  0  0  0  0
 19  1  1  0  0  0  0
 20 19  1  0  0  0  0
 22 19  1  0  0  0  0
 23 28  1  0  0  0  0
 23 22  1  0  0  0  0
 24 23  2  0  0  0  0
 25 26  2  0  0  0  0
 25 24  1  0  0  0  0
 26 27  1  0  0  0  0
 27 22  2  0  0  0  0
 29 24  1  0  0  0  0
 30 26  1  0  0  0  0
M  END
>  <minimizedAffinity>
-4.78567553

$$$$

 OpenBabel03272504013D

 30 32  0  0  0  0  0  0  0  0999 V2000
   36.2630   28.9470   32.3420 C   0  0  0  0  0  0  0  0  0  0  0  0
   35.9660   28.9750   31.2410 H   0  0  0  0  0  0  0  0  0  0  0  0
   37.0490   29.7290   32.3770 H   0  0  0  0  0  0  0  0  0  0  0  0
   35.1970   29.5270   33.1830 C   0  0  0  0  0  0  0  0  0  0  0  0
   33.8560   29.2500   32.9000 C   0  0  0  0  0  0  0  0  0  0  0  0
   33.0870   29.9180   33.8120 C   0  0  0  0  0  0  0  0  0  0  0  0
   33.9240   30.5740   34.6170 N   0  0  0  0  0  0  0  0  0  0  0  0
   35.1570   30.3340   34.2340 N   0  0  0  0  0  0  0  0  0  0  0  0
   33.3530   28.6390   32.1360 H   0  0  0  0  0  0  0  0  0  0  0  0
   32.0380   30.0280   34.0130 H   0  0  0  0  0  0  0  0  0  0  0  0
   33.8550   31.4470   35.7570 C   0  0  0  0  0  0  0  0  0  0  0  0
   32.8990   32.2160   36.3880 C   0  0  0  0  0  0  0  0  0  0  0  0
   31.9070   32.2060   35.9640 H   0  0  0  0  0  0  0  0  0  0  0  0
   33.5660   32.8050   37.4520 C   0  0  0  0  0  0  0  0  0  0  0  0
   32.9840   33.4730   38.1050 H   0  0  0  0  0  0  0  0  0  0  0  0
   34.8530   32.4070   37.4560 N   0  0  0  0  0  0  0  0  0  0  0  0
   35.5320   32.7400   38.1820 H   0  0  0  0  0  0  0  0  0  0  0  0
   35.0390   31.5780   36.4230 N   0  0  0  0  0  0  0  0  0  0  0  0
   36.6490   27.5730   32.7040 C   0  0  0  0  0  0  0  0  0  0  0  0
   36.8340   26.9610   31.7670 H   0  0  0  0  0  0  0  0  0  0  0  0
   35.7340   27.0590   33.1350 H   0  0  0  0  0  0  0  0  0  0  0  0
   37.7690   27.3510   33.5760 C   0  0  0  0  0  0  0  0  0  0  0  0
   37.6060   27.3800   34.9350 C   0  0  0  0  0  0  0  0  0  0  0  0
   38.6950   27.1580   35.7990 C   0  0  0  0  0  0  0  0  0  0  0  0
   39.9010   26.9160   35.1770 N   0  0  0  0  0  0  0  0  0  0  0  0
   40.0300   26.8930   33.8320 C   0  0  0  0  0  0  0  0  0  0  0  0
   38.9560   27.1120   33.0470 N   0  0  0  0  0  0  0  0  0  0  0  0
   36.7370   27.5550   35.5490 H   0  0  0  0  0  0  0  0  0  0  0  0
   38.6950   27.1560   36.8760 H   0  0  0  0  0  0  0  0  0  0  0  0
   41.0060   26.6960   33.4100 H   0  0  0  0  0  0  0  0  0  0  0  0
  1  3  1  0  0  0  0
  1 19  1  0  0  0  0
  1  4  1  0  0  0  0
  2  1  1  0  0  0  0
  4  8  2  0  0  0  0
  5  4  1  0  0  0  0
  5  6  2  0  0  0  0
  6 10  1  0  0  0  0
  6  7  1  0  0  0  0
  7 11  1  0  0  0  0
  8  7  1  0  0  0  0
  9  5  1  0  0  0  0
 11 12  1  0  0  0  0
 11 18  2  0  0  0  0
 12 14  2  0  0  0  0
 13 12  1  0  0  0  0
 14 16  1  0  0  0  0
 14 15  1  0  0  0  0
 16 17  1  0  0  0  0
 18 16  1  0  0  0  0
 19 21  1  0  0  0  0
 19 22  1  0  0  0  0
 20 19  1  0  0  0  0
 22 23  1  0  0  0  0
 23 28  1  0  0  0  0
 23 24  2  0  0  0  0
 24 29  1  0  0  0  0
 25 24  1  0  0  0  0
 26 25  2  0  0  0  0
 27 22  2  0  0  0  0
 27 26  1  0  0  0  0
 30 26  1  0  0  0  0
M  END
>  <minimizedAffinity>
-4.75074911

$$$$

 OpenBabel03272504013D

 30 32  0  0  0  0  0  0  0  0999 V2000
   35.3500   25.0200   31.1170 C   0  0  0  0  0  0  0  0  0  0  0  0
   34.8450   24.9800   30.0950 H   0  0  0  0  0  0  0  0  0  0  0  0
   34.4720   25.0390   31.7950 H   0  0  0  0  0  0  0  0  0  0  0  0
   35.9750   23.7220   31.4400 C   0  0  0  0  0  0  0  0  0  0  0  0
   37.3330   23.6640   31.7660 C   0  0  0  0  0  0  0  0  0  0  0  0
   37.6540   22.3550   32.0010 C   0  0  0  0  0  0  0  0  0  0  0  0
   36.5380   21.6470   31.8260 N   0  0  0  0  0  0  0  0  0  0  0  0
   35.5630   22.4630   31.4970 N   0  0  0  0  0  0  0  0  0  0  0  0
   38.1240   24.4230   31.8590 H   0  0  0  0  0  0  0  0  0  0  0  0
   38.5370   21.8080   32.2740 H   0  0  0  0  0  0  0  0  0  0  0  0
   36.1160   20.2740   31.8950 C   0  0  0  0  0  0  0  0  0  0  0  0
   36.7110   19.0310   31.9200 C   0  0  0  0  0  0  0  0  0  0  0  0
   37.7890   19.0050   31.8810 H   0  0  0  0  0  0  0  0  0  0  0  0
   35.6550   18.1350   31.9940 C   0  0  0  0  0  0  0  0  0  0  0  0
   35.9040   17.0630   32.0260 H   0  0  0  0  0  0  0  0  0  0  0  0
   34.4900   18.8090   32.0120 N   0  0  0  0  0  0  0  0  0  0  0  0
   33.5660   18.3160   32.0660 H   0  0  0  0  0  0  0  0  0  0  0  0
   34.7610   20.1180   31.9520 N   0  0  0  0  0  0  0  0  0  0  0  0
   36.2700   26.1700   31.1580 C   0  0  0  0  0  0  0  0  0  0  0  0
   36.2280   26.7360   30.1770 H   0  0  0  0  0  0  0  0  0  0  0  0
   37.3290   25.7650   31.1440 H   0  0  0  0  0  0  0  0  0  0  0  0
   36.1510   27.1430   32.2090 C   0  0  0  0  0  0  0  0  0  0  0  0
   36.8570   26.9970   33.3730 C   0  0  0  0  0  0  0  0  0  0  0  0
   36.7530   27.9480   34.4060 C   0  0  0  0  0  0  0  0  0  0  0  0
   35.9060   29.0050   34.1510 N   0  0  0  0  0  0  0  0  0  0  0  0
   35.2230   29.1210   32.9910 C   0  0  0  0  0  0  0  0  0  0  0  0
   35.3560   28.1840   32.0320 N   0  0  0  0  0  0  0  0  0  0  0  0
   37.5430   26.2340   33.7030 H   0  0  0  0  0  0  0  0  0  0  0  0
   37.2530   27.9440   35.3600 H   0  0  0  0  0  0  0  0  0  0  0  0
   34.5750   29.9770   32.8570 H   0  0  0  0  0  0  0  0  0  0  0  0
  1 19  1  0  0  0  0
  1  4  1  0  0  0  0
  1  3  1  0  0  0  0
  2  1  1  0  0  0  0
  4  8  2  0  0  0  0
  4  5  1  0  0  0  0
  5  9  1  0  0  0  0
  5  6  2  0  0  0  0
  6 10  1  0  0  0  0
  7 11  1  0  0  0  0
  7  6  1  0  0  0  0
  8  7  1  0  0  0  0
 11 12  1  0  0  0  0
 11 18  2  0  0  0  0
 12 14  2  0  0  0  0
 13 12  1  0  0  0  0
 14 16  1  0  0  0  0
 14 15  1  0  0  0  0
 16 17  1  0  0  0  0
 18 16  1  0  0  0  0
 19 22  1  0  0  0  0
 20 19  1  0  0  0  0
 21 19  1  0  0  0  0
 22 23  1  0  0  0  0
 23 28  1  0  0  0  0
 23 24  2  0  0  0  0
 24 29  1  0  0  0  0
 25 24  1  0  0  0  0
 26 25  2  0  0  0  0
 27 22  2  0  0  0  0
 27 26  1  0  0  0  0
 30 26  1  0  0  0  0
M  END
>  <minimizedAffinity>
-4.70674658

$$$$

 OpenBabel03272504013D

 30 32  0  0  0  0  0  0  0  0999 V2000
   38.1520   25.0200   31.6660 C   0  0  0  0  0  0  0  0  0  0  0  0
   38.3860   26.0130   31.1570 H   0  0  0  0  0  0  0  0  0  0  0  0
   39.1430   24.5230   31.6450 H   0  0  0  0  0  0  0  0  0  0  0  0
   37.9240   25.2170   33.1120 C   0  0  0  0  0  0  0  0  0  0  0  0
   37.3320   26.3970   33.5700 C   0  0  0  0  0  0  0  0  0  0  0  0
   37.2550   26.3280   34.9340 C   0  0  0  0  0  0  0  0  0  0  0  0
   37.7760   25.1530   35.2900 N   0  0  0  0  0  0  0  0  0  0  0  0
   38.1630   24.5150   34.2100 N   0  0  0  0  0  0  0  0  0  0  0  0
   36.9500   27.2990   33.0680 H   0  0  0  0  0  0  0  0  0  0  0  0
   36.8960   26.9580   35.7260 H   0  0  0  0  0  0  0  0  0  0  0  0
   38.0260   24.4110   36.4960 C   0  0  0  0  0  0  0  0  0  0  0  0
   38.0820   24.6670   37.8500 C   0  0  0  0  0  0  0  0  0  0  0  0
   37.8960   25.6820   38.1630 H   0  0  0  0  0  0  0  0  0  0  0  0
   38.3810   23.4420   38.4280 C   0  0  0  0  0  0  0  0  0  0  0  0
   38.4750   23.4110   39.5250 H   0  0  0  0  0  0  0  0  0  0  0  0
   38.4980   22.5050   37.4690 N   0  0  0  0  0  0  0  0  0  0  0  0
   38.7240   21.5060   37.6960 H   0  0  0  0  0  0  0  0  0  0  0  0
   38.2830   23.0880   36.2840 N   0  0  0  0  0  0  0  0  0  0  0  0
   37.0420   24.3620   30.9560 C   0  0  0  0  0  0  0  0  0  0  0  0
   37.1950   24.4410   29.8350 H   0  0  0  0  0  0  0  0  0  0  0  0
   36.1130   24.9940   31.1050 H   0  0  0  0  0  0  0  0  0  0  0  0
   36.7270   22.9880   31.2380 C   0  0  0  0  0  0  0  0  0  0  0  0
   37.6200   21.9960   30.9350 C   0  0  0  0  0  0  0  0  0  0  0  0
   37.3240   20.6480   31.2140 C   0  0  0  0  0  0  0  0  0  0  0  0
   36.0980   20.4220   31.8000 N   0  0  0  0  0  0  0  0  0  0  0  0
   35.2380   21.4240   32.0880 C   0  0  0  0  0  0  0  0  0  0  0  0
   35.5670   22.6990   31.8010 N   0  0  0  0  0  0  0  0  0  0  0  0
   38.5980   22.0260   30.4820 H   0  0  0  0  0  0  0  0  0  0  0  0
   37.9390   19.7830   31.0240 H   0  0  0  0  0  0  0  0  0  0  0  0
   34.2910   21.1760   32.5490 H   0  0  0  0  0  0  0  0  0  0  0  0
  1  4  1  0  0  0  0
  2  1  1  0  0  0  0
  3  1  1  0  0  0  0
  4  5  1  0  0  0  0
  4  8  2  0  0  0  0
  5  6  2  0  0  0  0
  6  7  1  0  0  0  0
  6 10  1  0  0  0  0
  7 11  1  0  0  0  0
  8  7  1  0  0  0  0
  9  5  1  0  0  0  0
 11 12  1  0  0  0  0
 12 13  1  0  0  0  0
 12 14  2  0  0  0  0
 14 15  1  0  0  0  0
 16 17  1  0  0  0  0
 16 14  1  0  0  0  0
 18 11  2  0  0  0  0
 18 16  1  0  0  0  0
 19 21  1  0  0  0  0
 19 22  1  0  0  0  0
 19  1  1  0  0  0  0
 20 19  1  0  0  0  0
 22 27  1  0  0  0  0
 23 24  1  0  0  0  0
 23 22  2  0  0  0  0
 24 25  2  0  0  0  0
 25 26  1  0  0  0  0
 26 30  1  0  0  0  0
 27 26  2  0  0  0  0
 28 23  1  0  0  0  0
 29 24  1  0  0  0  0
M  END
>  <minimizedAffinity>
-4.67578936

$$$$

 OpenBabel03272504013D

 30 32  0  0  0  0  0  0  0  0999 V2000
   37.9760   24.4630   36.9430 C   0  0  0  0  0  0  0  0  0  0  0  0
   38.8010   24.6760   37.7010 H   0  0  0  0  0  0  0  0  0  0  0  0
   37.0670   24.6500   37.5490 H   0  0  0  0  0  0  0  0  0  0  0  0
   37.9110   25.5350   35.9290 C   0  0  0  0  0  0  0  0  0  0  0  0
   38.3560   26.8220   36.2450 C   0  0  0  0  0  0  0  0  0  0  0  0
   38.1700   27.6140   35.1460 C   0  0  0  0  0  0  0  0  0  0  0  0
   37.6350   26.8410   34.2000 N   0  0  0  0  0  0  0  0  0  0  0  0
   37.4910   25.6260   34.6750 N   0  0  0  0  0  0  0  0  0  0  0  0
   38.7930   27.2730   37.1490 H   0  0  0  0  0  0  0  0  0  0  0  0
   38.3440   28.6420   34.8900 H   0  0  0  0  0  0  0  0  0  0  0  0
   37.1850   26.9650   32.8400 C   0  0  0  0  0  0  0  0  0  0  0  0
   36.8580   27.9830   31.9700 C   0  0  0  0  0  0  0  0  0  0  0  0
   36.9400   28.9910   32.3450 H   0  0  0  0  0  0  0  0  0  0  0  0
   36.4990   27.3410   30.7930 C   0  0  0  0  0  0  0  0  0  0  0  0
   36.1960   27.9730   29.9460 H   0  0  0  0  0  0  0  0  0  0  0  0
   36.6080   26.0080   30.9550 N   0  0  0  0  0  0  0  0  0  0  0  0
   36.3820   25.3380   30.1810 H   0  0  0  0  0  0  0  0  0  0  0  0
   37.0260   25.7690   32.2030 N   0  0  0  0  0  0  0  0  0  0  0  0
   38.1640   23.1100   36.3910 C   0  0  0  0  0  0  0  0  0  0  0  0
   37.6470   23.0250   35.3850 H   0  0  0  0  0  0  0  0  0  0  0  0
   37.5540   22.3920   37.0230 H   0  0  0  0  0  0  0  0  0  0  0  0
   39.4910   22.5830   36.2260 C   0  0  0  0  0  0  0  0  0  0  0  0
   40.2590   22.2850   37.3190 C   0  0  0  0  0  0  0  0  0  0  0  0
   41.5570   21.7620   37.1680 C   0  0  0  0  0  0  0  0  0  0  0  0
   41.9730   21.5820   35.8660 N   0  0  0  0  0  0  0  0  0  0  0  0
   41.1900   21.8860   34.8080 C   0  0  0  0  0  0  0  0  0  0  0  0
   39.9540   22.3850   35.0040 N   0  0  0  0  0  0  0  0  0  0  0  0
   40.0660   22.3730   38.3760 H   0  0  0  0  0  0  0  0  0  0  0  0
   42.2540   21.4900   37.9430 H   0  0  0  0  0  0  0  0  0  0  0  0
   41.5800   21.7190   33.8130 H   0  0  0  0  0  0  0  0  0  0  0  0
  1  3  1  0  0  0  0
  1  2  1  0  0  0  0
  4  5  1  0  0  0  0
  4  1  1  0  0  0  0
  5  9  1  0  0  0  0
  6  5  2  0  0  0  0
  7  8  1  0  0  0  0
  7  6  1  0  0  0  0
  8  4  2  0  0  0  0
 10  6  1  0  0  0  0
 11  7  1  0  0  0  0
 12 13  1  0  0  0  0
 12 11  1  0  0  0  0
 14 16  1  0  0  0  0
 14 12  2  0  0  0  0
 15 14  1  0  0  0  0
 16 18  1  0  0  0  0
 17 16  1  0  0  0  0
 18 11  2  0  0  0  0
 19  1  1  0  0  0  0
 19 21  1  0  0  0  0
 20 19  1  0  0  0  0
 22 19  1  0  0  0  0
 22 23  1  0  0  0  0
 23 28  1  0  0  0  0
 24 23  2  0  0  0  0
 24 29  1  0  0  0  0
 25 24  1  0  0  0  0
 26 27  1  0  0  0  0
 26 25  2  0  0  0  0
 27 22  2  0  0  0  0
 30 26  1  0  0  0  0
M  END
>  <minimizedAffinity>
-4.62418795

$$$$

 OpenBabel03272504013D

 30 32  0  0  0  0  0  0  0  0999 V2000
   36.1190   26.5060   31.6800 C   0  0  0  0  0  0  0  0  0  0  0  0
   35.4990   26.9360   30.8250 H   0  0  0  0  0  0  0  0  0  0  0  0
   35.3500   26.3820   32.4690 H   0  0  0  0  0  0  0  0  0  0  0  0
   36.5080   25.1110   31.3890 C   0  0  0  0  0  0  0  0  0  0  0  0
   37.7050   24.8450   30.7190 C   0  0  0  0  0  0  0  0  0  0  0  0
   37.8110   23.4900   30.5660 C   0  0  0  0  0  0  0  0  0  0  0  0
   36.7230   22.9530   31.1220 N   0  0  0  0  0  0  0  0  0  0  0  0
   35.9710   23.9170   31.6000 N   0  0  0  0  0  0  0  0  0  0  0  0
   38.5110   25.4820   30.3240 H   0  0  0  0  0  0  0  0  0  0  0  0
   38.5180   22.8090   30.1320 H   0  0  0  0  0  0  0  0  0  0  0  0
   36.1620   21.6480   31.3380 C   0  0  0  0  0  0  0  0  0  0  0  0
   36.3490   20.3710   30.8530 C   0  0  0  0  0  0  0  0  0  0  0  0
   37.1130   20.2420   30.1020 H   0  0  0  0  0  0  0  0  0  0  0  0
   35.4260   19.5940   31.5370 C   0  0  0  0  0  0  0  0  0  0  0  0
   35.3990   18.5190   31.3040 H   0  0  0  0  0  0  0  0  0  0  0  0
   34.7240   20.3680   32.3870 N   0  0  0  0  0  0  0  0  0  0  0  0
   33.9720   19.9730   33.0010 H   0  0  0  0  0  0  0  0  0  0  0  0
   35.1660   21.6250   32.2720 N   0  0  0  0  0  0  0  0  0  0  0  0
   37.2480   27.4090   31.9610 C   0  0  0  0  0  0  0  0  0  0  0  0
   36.9200   28.4890   31.8450 H   0  0  0  0  0  0  0  0  0  0  0  0
   37.9930   27.3050   31.1130 H   0  0  0  0  0  0  0  0  0  0  0  0
   37.9440   27.3150   33.2150 C   0  0  0  0  0  0  0  0  0  0  0  0
   37.2730   27.4900   34.3950 C   0  0  0  0  0  0  0  0  0  0  0  0
   37.9440   27.3930   35.6290 C   0  0  0  0  0  0  0  0  0  0  0  0
   39.2910   27.1150   35.5470 N   0  0  0  0  0  0  0  0  0  0  0  0
   39.9250   26.9470   34.3660 C   0  0  0  0  0  0  0  0  0  0  0  0
   39.2380   27.0500   33.2110 N   0  0  0  0  0  0  0  0  0  0  0  0
   36.2380   27.7090   34.6050 H   0  0  0  0  0  0  0  0  0  0  0  0
   37.5300   27.5100   36.6170 H   0  0  0  0  0  0  0  0  0  0  0  0
   40.9850   26.7300   34.3740 H   0  0  0  0  0  0  0  0  0  0  0  0
  1 19  1  0  0  0  0
  1  3  1  0  0  0  0
  2  1  1  0  0  0  0
  4  8  2  0  0  0  0
  4  1  1  0  0  0  0
  5  4  1  0  0  0  0
  6  5  2  0  0  0  0
  6  7  1  0  0  0  0
  7 11  1  0  0  0  0
  7  8  1  0  0  0  0
  9  5  1  0  0  0  0
 10  6  1  0  0  0  0
 11 18  2  0  0  0  0
 12 11  1  0  0  0  0
 12 14  2  0  0  0  0
 13 12  1  0  0  0  0
 14 16  1  0  0  0  0
 15 14  1  0  0  0  0
 16 17  1  0  0  0  0
 18 16  1  0  0  0  0
 19 22  1  0  0  0  0
 20 19  1  0  0  0  0
 21 19  1  0  0  0  0
 22 23  1  0  0  0  0
 23 28  1  0  0  0  0
 23 24  2  0  0  0  0
 24 29  1  0  0  0  0
 25 24  1  0  0  0  0
 26 30  1  0  0  0  0
 26 25  2  0  0  0  0
 27 22  2  0  0  0  0
 27 26  1  0  0  0  0
M  END
>  <minimizedAffinity>
-4.61062384

$$$$
