
 OpenBabel03272505023D

 28 30  0  0  0  0  0  0  0  0999 V2000
   38.2050   30.4220   46.9730 Cl  0  0  0  0  0  0  0  0  0  0  0  0
   38.6600   31.9060   47.7930 C   0  0  0  0  0  0  0  0  0  0  0  0
   38.2090   32.1200   49.0670 C   0  0  0  0  0  0  0  0  0  0  0  0
   38.6090   33.3040   49.6450 C   0  0  0  0  0  0  0  0  0  0  0  0
   39.4170   34.1920   48.9440 C   0  0  0  0  0  0  0  0  0  0  0  0
   39.8410   33.9280   47.6690 C   0  0  0  0  0  0  0  0  0  0  0  0
   39.4480   32.7400   47.0690 C   0  0  0  0  0  0  0  0  0  0  0  0
   38.3200   33.5920   50.6480 H   0  0  0  0  0  0  0  0  0  0  0  0
   39.7280   35.1260   49.4120 H   0  0  0  0  0  0  0  0  0  0  0  0
   40.4720   34.6630   47.1760 H   0  0  0  0  0  0  0  0  0  0  0  0
   37.8620   30.4720   50.9050 C   0  0  0  0  0  0  0  0  0  0  0  0
   37.3590   31.1820   49.8020 C   0  0  0  0  0  0  0  0  0  0  0  0
   36.0440   30.9670   49.4390 C   0  0  0  0  0  0  0  0  0  0  0  0
   35.3120   30.0860   50.1610 N   0  0  0  0  0  0  0  0  0  0  0  0
   35.8090   29.4130   51.2160 C   0  0  0  0  0  0  0  0  0  0  0  0
   37.0790   29.6080   51.5830 N   0  0  0  0  0  0  0  0  0  0  0  0
   38.8990   30.6240   51.2150 H   0  0  0  0  0  0  0  0  0  0  0  0
   35.6150   31.4850   48.6060 H   0  0  0  0  0  0  0  0  0  0  0  0
   35.2480   28.7090   51.8070 H   0  0  0  0  0  0  0  0  0  0  0  0
   39.8990   32.5200   45.7870 O   0  0  0  0  0  0  0  0  0  0  0  0
   39.1860   32.6460   44.6290 C   0  0  0  0  0  0  0  0  0  0  0  0
   37.8960   32.4860   44.1850 C   0  0  0  0  0  0  0  0  0  0  0  0
   37.1520   32.1680   44.9010 H   0  0  0  0  0  0  0  0  0  0  0  0
   37.8050   32.7810   42.8450 C   0  0  0  0  0  0  0  0  0  0  0  0
   36.8990   32.7330   42.2620 H   0  0  0  0  0  0  0  0  0  0  0  0
   39.0520   33.1130   42.5110 N   0  0  0  0  0  0  0  0  0  0  0  0
   39.3220   33.3980   41.5230 H   0  0  0  0  0  0  0  0  0  0  0  0
   39.8920   33.0450   43.5310 N   0  0  0  0  0  0  0  0  0  0  0  0
  1  2  1  0  0  0  0
  2  3  1  0  0  0  0
  3  4  2  0  0  0  0
  3 12  1  0  0  0  0
  4  8  1  0  0  0  0
  5  9  1  0  0  0  0
  5  4  1  0  0  0  0
  6  5  2  0  0  0  0
  7  6  1  0  0  0  0
  7  2  2  0  0  0  0
 10  6  1  0  0  0  0
 11 17  1  0  0  0  0
 11 16  1  0  0  0  0
 12 11  2  0  0  0  0
 13 12  1  0  0  0  0
 13 14  2  0  0  0  0
 14 15  1  0  0  0  0
 15 16  2  0  0  0  0
 15 19  1  0  0  0  0
 18 13  1  0  0  0  0
 20  7  1  0  0  0  0
 21 20  1  0  0  0  0
 22 21  1  0  0  0  0
 22 23  1  0  0  0  0
 24 22  2  0  0  0  0
 25 24  1  0  0  0  0
 26 24  1  0  0  0  0
 26 28  1  0  0  0  0
 27 26  1  0  0  0  0
 28 21  2  0  0  0  0
M  END
>  <minimizedAffinity>
-6.07059145

>  <minimizedRMSD>
0.322796345

$$$$
