
 OpenBabel03262521063D

 41 43  0  0  1  0  0  0  0  0999 V2000
   37.5850   30.9640   44.5230 C   0  0  2  0  0  0  0  0  0  0  0  0
   39.0500   30.8010   44.4030 C   0  0  0  0  0  0  0  0  0  0  0  0
   39.7220   30.6090   45.7450 C   0  0  0  0  0  0  0  0  0  0  0  0
   39.4200   31.7100   46.7160 C   0  0  0  0  0  0  0  0  0  0  0  0
   38.0000   32.2010   46.6520 C   0  0  0  0  0  0  0  0  0  0  0  0
   37.1010   31.2150   45.9150 C   0  0  2  0  0  0  0  0  0  0  0  0
   37.2610   31.8580   43.9080 H   0  0  0  0  0  0  0  0  0  0  0  0
   39.4710   30.0180   43.8010 H   0  0  0  0  0  0  0  0  0  0  0  0
   39.5320   31.7580   43.9990 H   0  0  0  0  0  0  0  0  0  0  0  0
   40.8140   30.6130   45.5460 H   0  0  0  0  0  0  0  0  0  0  0  0
   39.4810   29.6330   46.2040 H   0  0  0  0  0  0  0  0  0  0  0  0
   40.0860   32.5770   46.4970 H   0  0  0  0  0  0  0  0  0  0  0  0
   39.6800   31.3710   47.7310 H   0  0  0  0  0  0  0  0  0  0  0  0
   37.6730   32.3960   47.6650 H   0  0  0  0  0  0  0  0  0  0  0  0
   37.9430   33.1530   46.0810 H   0  0  0  0  0  0  0  0  0  0  0  0
   36.1120   31.7500   45.8190 H   0  0  0  0  0  0  0  0  0  0  0  0
   36.8200   29.8330   43.9800 C   0  0  0  0  0  0  0  0  0  0  0  0
   37.5780   28.8960   43.2400 C   0  0  0  0  0  0  0  0  0  0  0  0
   36.8830   27.8000   42.7340 C   0  0  0  0  0  0  0  0  0  0  0  0
   35.5460   27.6830   42.9670 N   0  0  0  0  0  0  0  0  0  0  0  0
   34.8580   28.6100   43.6840 C   0  0  0  0  0  0  0  0  0  0  0  0
   35.5090   29.6400   44.1600 N   0  0  0  0  0  0  0  0  0  0  0  0
   38.5860   28.7400   42.9050 H   0  0  0  0  0  0  0  0  0  0  0  0
   37.1930   26.9630   42.1570 H   0  0  0  0  0  0  0  0  0  0  0  0
   33.7980   28.5380   43.8810 H   0  0  0  0  0  0  0  0  0  0  0  0
   36.9060   30.1350   46.7730 N   0  0  0  0  0  0  0  0  0  0  0  0
   37.2800   29.2220   46.5000 H   0  0  0  0  0  0  0  0  0  0  0  0
   35.4220   30.0480   47.5950 S   0  0  0  0  0  0  0  0  0  0  0  0
   34.4120   30.7950   46.7350 O   0  0  0  0  0  0  0  0  0  0  0  0
   33.6580   31.2550   47.1670 H   0  0  0  0  0  0  0  0  0  0  0  0
   34.9350   28.6430   47.7830 O   0  0  0  0  0  0  0  0  0  0  0  0
   35.4740   27.9170   48.1880 H   0  0  0  0  0  0  0  0  0  0  0  0
   35.4410   30.8250   49.0710 O   0  0  0  0  0  0  0  0  0  0  0  0
   36.3090   30.4460   50.0930 C   0  0  0  0  0  0  0  0  0  0  0  0
   36.3110   29.7390   51.2600 C   0  0  0  0  0  0  0  0  0  0  0  0
   35.3500   29.3030   51.5390 H   0  0  0  0  0  0  0  0  0  0  0  0
   37.5880   29.7630   51.8030 C   0  0  0  0  0  0  0  0  0  0  0  0
   37.7880   29.2620   52.7210 H   0  0  0  0  0  0  0  0  0  0  0  0
   38.3130   30.4870   50.9410 N   0  0  0  0  0  0  0  0  0  0  0  0
   39.3390   30.6760   51.0980 H   0  0  0  0  0  0  0  0  0  0  0  0
   37.5810   30.9040   49.9180 N   0  0  0  0  0  0  0  0  0  0  0  0
  1  7  1  6  0  0  0
  1  6  1  0  0  0  0
  2  1  1  0  0  0  0
  2  3  1  0  0  0  0
  3 11  1  0  0  0  0
  3  4  1  0  0  0  0
  4 13  1  0  0  0  0
  5  4  1  0  0  0  0
  5 14  1  0  0  0  0
  6 16  1  6  0  0  0
  6  5  1  0  0  0  0
  6 26  1  0  0  0  0
  8  2  1  0  0  0  0
  9  2  1  0  0  0  0
 10  3  1  0  0  0  0
 12  4  1  0  0  0  0
 15  5  1  0  0  0  0
 17 22  1  0  0  0  0
 17  1  1  0  0  0  0
 18 17  2  0  0  0  0
 19 20  2  0  0  0  0
 19 18  1  0  0  0  0
 20 21  1  0  0  0  0
 21 25  1  0  0  0  0
 21 22  2  0  0  0  0
 23 18  1  0  0  0  0
 24 19  1  0  0  0  0
 26 28  1  0  0  0  0
 27 26  1  0  0  0  0
 28 31  1  0  0  0  0
 28 33  1  0  0  0  0
 29 30  1  0  0  0  0
 29 28  1  0  0  0  0
 31 32  1  0  0  0  0
 33 34  1  0  0  0  0
 34 35  1  0  0  0  0
 35 36  1  0  0  0  0
 35 37  2  0  0  0  0
 37 38  1  0  0  0  0
 39 40  1  0  0  0  0
 39 37  1  0  0  0  0
 41 34  2  0  0  0  0
 41 39  1  0  0  0  0
M  END
>  <minimizedAffinity>
-4.77016544

>  <minimizedRMSD>
4.19133425

$$$$
