
 OpenBabel03272507523D

 31 33  0  0  0  0  0  0  0  0999 V2000
   32.6160   31.5710   43.8080 N   0  0  0  0  0  0  0  0  0  0  0  0
   32.2750   32.8290   43.5540 C   0  0  0  0  0  0  0  0  0  0  0  0
   33.1960   33.6980   42.9710 C   0  0  0  0  0  0  0  0  0  0  0  0
   34.4120   33.1450   42.7050 C   0  0  0  0  0  0  0  0  0  0  0  0
   35.2570   33.9290   42.1740 O   0  0  0  0  0  0  0  0  0  0  0  0
   34.7950   31.8960   42.9400 N   0  0  0  0  0  0  0  0  0  0  0  0
   33.8640   31.0890   43.5100 C   0  0  0  0  0  0  0  0  0  0  0  0
   34.2080   29.8840   43.7460 O   0  0  0  0  0  0  0  0  0  0  0  0
   31.2780   33.1820   43.8030 H   0  0  0  0  0  0  0  0  0  0  0  0
   32.9220   34.7120   42.7670 H   0  0  0  0  0  0  0  0  0  0  0  0
   36.1000   31.4140   42.6230 C   0  0  0  0  0  0  0  0  0  0  0  0
   37.3510   31.4290   43.2410 C   0  0  0  0  0  0  0  0  0  0  0  0
   37.4240   31.9110   44.2070 H   0  0  0  0  0  0  0  0  0  0  0  0
   38.1960   30.7730   42.3680 C   0  0  0  0  0  0  0  0  0  0  0  0
   39.2470   30.6600   42.6420 H   0  0  0  0  0  0  0  0  0  0  0  0
   37.5130   30.3770   41.2790 N   0  0  0  0  0  0  0  0  0  0  0  0
   37.9400   29.8580   40.4760 H   0  0  0  0  0  0  0  0  0  0  0  0
   36.2630   30.7690   41.4490 N   0  0  0  0  0  0  0  0  0  0  0  0
   31.9110   30.3280   45.7720 C   0  0  0  0  0  0  0  0  0  0  0  0
   31.7180   30.6260   44.4090 C   0  0  0  0  0  0  0  0  0  0  0  0
   30.6790   29.9960   43.7130 C   0  0  0  0  0  0  0  0  0  0  0  0
   29.9030   29.1170   44.4010 N   0  0  0  0  0  0  0  0  0  0  0  0
   30.0860   28.8370   45.6820 C   0  0  0  0  0  0  0  0  0  0  0  0
   31.0800   29.4380   46.3590 N   0  0  0  0  0  0  0  0  0  0  0  0
   30.5610   30.2480   42.6730 H   0  0  0  0  0  0  0  0  0  0  0  0
   29.4570   28.1340   46.2130 H   0  0  0  0  0  0  0  0  0  0  0  0
   34.0640   30.3720   47.2350 C   0  0  0  0  0  0  0  0  0  0  0  0
   34.3800   29.1650   47.1330 O   0  0  0  0  0  0  0  0  0  0  0  0
   32.9170   30.9170   46.5680 N   0  0  0  0  0  0  0  0  0  0  0  0
   34.7170   30.9600   47.8570 H   0  0  0  0  0  0  0  0  0  0  0  0
   32.8660   31.9640   46.7380 H   0  0  0  0  0  0  0  0  0  0  0  0
  1 20  1  0  0  0  0
  2  9  1  0  0  0  0
  2  1  1  0  0  0  0
  3  2  2  0  0  0  0
  4  6  1  0  0  0  0
  4  3  1  0  0  0  0
  5  4  2  0  0  0  0
  6  7  1  0  0  0  0
  7  8  2  0  0  0  0
  7  1  1  0  0  0  0
 10  3  1  0  0  0  0
 11  6  1  0  0  0  0
 11 12  1  0  0  0  0
 12 13  1  0  0  0  0
 14 15  1  0  0  0  0
 14 12  2  0  0  0  0
 16 18  1  0  0  0  0
 16 14  1  0  0  0  0
 17 16  1  0  0  0  0
 18 11  2  0  0  0  0
 19 24  1  0  0  0  0
 19 29  1  0  0  0  0
 20 19  2  0  0  0  0
 21 22  2  0  0  0  0
 21 20  1  0  0  0  0
 22 23  1  0  0  0  0
 23 26  1  0  0  0  0
 23 24  2  0  0  0  0
 25 21  1  0  0  0  0
 27 30  1  0  0  0  0
 28 27  2  0  0  0  0
 29 31  1  0  0  0  0
 29 27  1  0  0  0  0
M  END
>  <minimizedAffinity>
-3.5827291

>  <minimizedRMSD>
6.22630072

$$$$
