
 OpenBabel03272505023D

 28 30  0  0  0  0  0  0  0  0999 V2000
   38.2930   30.3490   46.9960 Cl  0  0  0  0  0  0  0  0  0  0  0  0
   38.7070   31.8660   47.7760 C   0  0  0  0  0  0  0  0  0  0  0  0
   38.2270   32.1150   49.0330 C   0  0  0  0  0  0  0  0  0  0  0  0
   38.5970   33.3240   49.5790 C   0  0  0  0  0  0  0  0  0  0  0  0
   39.4050   34.2010   48.8660 C   0  0  0  0  0  0  0  0  0  0  0  0
   39.8590   33.9020   47.6090 C   0  0  0  0  0  0  0  0  0  0  0  0
   39.4980   32.6890   47.0410 C   0  0  0  0  0  0  0  0  0  0  0  0
   38.2820   33.6400   50.5660 H   0  0  0  0  0  0  0  0  0  0  0  0
   39.6920   35.1550   49.3080 H   0  0  0  0  0  0  0  0  0  0  0  0
   40.4890   34.6310   47.1040 H   0  0  0  0  0  0  0  0  0  0  0  0
   37.8780   30.4960   50.8960 C   0  0  0  0  0  0  0  0  0  0  0  0
   37.3760   31.1890   49.7810 C   0  0  0  0  0  0  0  0  0  0  0  0
   36.0610   30.9670   49.4190 C   0  0  0  0  0  0  0  0  0  0  0  0
   35.3290   30.0980   50.1540 N   0  0  0  0  0  0  0  0  0  0  0  0
   35.8240   29.4410   51.2200 C   0  0  0  0  0  0  0  0  0  0  0  0
   37.0940   29.6430   51.5860 N   0  0  0  0  0  0  0  0  0  0  0  0
   38.9140   30.6530   51.2040 H   0  0  0  0  0  0  0  0  0  0  0  0
   35.6340   31.4710   48.5770 H   0  0  0  0  0  0  0  0  0  0  0  0
   35.2630   28.7460   51.8210 H   0  0  0  0  0  0  0  0  0  0  0  0
   39.9790   32.4340   45.7760 O   0  0  0  0  0  0  0  0  0  0  0  0
   39.3280   32.6300   44.5920 C   0  0  0  0  0  0  0  0  0  0  0  0
   39.6290   32.8350   43.2660 C   0  0  0  0  0  0  0  0  0  0  0  0
   40.6710   32.8630   42.9840 H   0  0  0  0  0  0  0  0  0  0  0  0
   38.4780   32.9680   42.5250 C   0  0  0  0  0  0  0  0  0  0  0  0
   38.4470   33.1350   41.4600 H   0  0  0  0  0  0  0  0  0  0  0  0
   37.5060   32.8400   43.4260 N   0  0  0  0  0  0  0  0  0  0  0  0
   36.4770   32.8950   43.1670 H   0  0  0  0  0  0  0  0  0  0  0  0
   37.9650   32.6410   44.6510 N   0  0  0  0  0  0  0  0  0  0  0  0
  1  2  1  0  0  0  0
  2  3  1  0  0  0  0
  3  4  2  0  0  0  0
  3 12  1  0  0  0  0
  4  8  1  0  0  0  0
  5  9  1  0  0  0  0
  5  4  1  0  0  0  0
  6  5  2  0  0  0  0
  7  6  1  0  0  0  0
  7  2  2  0  0  0  0
 10  6  1  0  0  0  0
 11 17  1  0  0  0  0
 11 16  1  0  0  0  0
 12 11  2  0  0  0  0
 13 12  1  0  0  0  0
 13 14  2  0  0  0  0
 14 15  1  0  0  0  0
 15 16  2  0  0  0  0
 15 19  1  0  0  0  0
 18 13  1  0  0  0  0
 20  7  1  0  0  0  0
 21 28  2  0  0  0  0
 21 20  1  0  0  0  0
 22 21  1  0  0  0  0
 23 22  1  0  0  0  0
 24 22  2  0  0  0  0
 24 26  1  0  0  0  0
 25 24  1  0  0  0  0
 26 28  1  0  0  0  0
 27 26  1  0  0  0  0
M  END
>  <minimizedAffinity>
-6.19255543

>  <minimizedRMSD>
0.42014429

$$$$
