
 OpenBabel03272503123D

 45 49  0  0  0  0  0  0  0  0999 V2000
   39.2650   31.8880   44.9450 C   0  0  0  0  0  0  0  0  0  0  0  0
   38.1750   32.5410   45.0600 O   0  0  0  0  0  0  0  0  0  0  0  0
   39.9480   31.6280   46.1500 N   0  0  0  0  0  0  0  0  0  0  0  0
   40.8350   31.0940   46.0890 H   0  0  0  0  0  0  0  0  0  0  0  0
   39.1270   32.1600   42.5540 C   0  0  0  0  0  0  0  0  0  0  0  0
   39.6940   31.4820   43.6130 C   0  0  0  0  0  0  0  0  0  0  0  0
   40.6130   30.4780   43.4600 C   0  0  0  0  0  0  0  0  0  0  0  0
   41.0050   30.1170   42.1790 C   0  0  0  0  0  0  0  0  0  0  0  0
   41.8620   29.2030   41.7240 N   0  0  0  0  0  0  0  0  0  0  0  0
   41.8630   29.2750   40.3990 C   0  0  0  0  0  0  0  0  0  0  0  0
   41.0020   30.2410   40.0020 N   0  0  0  0  0  0  0  0  0  0  0  0
   40.4390   30.7960   41.1110 C   0  0  0  0  0  0  0  0  0  0  0  0
   39.5130   31.8050   41.2540 C   0  0  0  0  0  0  0  0  0  0  0  0
   38.4050   32.9430   42.7360 H   0  0  0  0  0  0  0  0  0  0  0  0
   41.0210   29.9840   44.3370 H   0  0  0  0  0  0  0  0  0  0  0  0
   42.4100   28.5660   42.3370 H   0  0  0  0  0  0  0  0  0  0  0  0
   42.4720   28.6460   39.7390 H   0  0  0  0  0  0  0  0  0  0  0  0
   38.9580   32.4670   40.1890 O   0  0  0  0  0  0  0  0  0  0  0  0
   37.6500   32.7800   39.9890 C   0  0  0  0  0  0  0  0  0  0  0  0
   37.4890   34.1390   39.6850 C   0  0  0  0  0  0  0  0  0  0  0  0
   38.1240   35.0330   39.5620 H   0  0  0  0  0  0  0  0  0  0  0  0
   36.1420   34.3890   39.4950 C   0  0  0  0  0  0  0  0  0  0  0  0
   35.5590   35.2680   39.2490 H   0  0  0  0  0  0  0  0  0  0  0  0
   35.5680   33.1770   39.6920 N   0  0  0  0  0  0  0  0  0  0  0  0
   34.5330   32.9580   39.6330 H   0  0  0  0  0  0  0  0  0  0  0  0
   36.4270   32.2220   39.9810 N   0  0  0  0  0  0  0  0  0  0  0  0
   38.1120   30.1430   47.4930 F   0  0  0  0  0  0  0  0  0  0  0  0
   38.3700   31.3850   47.9830 C   0  0  0  0  0  0  0  0  0  0  0  0
   37.7200   31.8300   49.0960 C   0  0  0  0  0  0  0  0  0  0  0  0
   38.0300   33.0900   49.5330 C   0  0  0  0  0  0  0  0  0  0  0  0
   38.9520   33.9000   48.9020 C   0  0  0  0  0  0  0  0  0  0  0  0
   39.6000   33.4250   47.7720 C   0  0  0  0  0  0  0  0  0  0  0  0
   39.3020   32.1520   47.3110 C   0  0  0  0  0  0  0  0  0  0  0  0
   37.5080   33.4460   50.4250 H   0  0  0  0  0  0  0  0  0  0  0  0
   39.1260   34.8810   49.3270 H   0  0  0  0  0  0  0  0  0  0  0  0
   40.3200   34.0570   47.2790 H   0  0  0  0  0  0  0  0  0  0  0  0
   36.0880   29.3650   51.4560 C   0  0  0  0  0  0  0  0  0  0  0  0
   37.0550   30.2190   50.8700 C   0  0  0  0  0  0  0  0  0  0  0  0
   36.7510   30.9380   49.7310 C   0  0  0  0  0  0  0  0  0  0  0  0
   35.4870   30.7900   49.2000 N   0  0  0  0  0  0  0  0  0  0  0  0
   34.5830   29.9790   49.7640 C   0  0  0  0  0  0  0  0  0  0  0  0
   34.8690   29.2810   50.8640 N   0  0  0  0  0  0  0  0  0  0  0  0
   36.4670   28.8750   52.3310 H   0  0  0  0  0  0  0  0  0  0  0  0
   38.0520   30.3640   51.2520 H   0  0  0  0  0  0  0  0  0  0  0  0
   33.5880   29.8570   49.3530 H   0  0  0  0  0  0  0  0  0  0  0  0
  1  2  2  0  0  0  0
  1  3  1  0  0  0  0
  3 33  1  0  0  0  0
  4  3  1  0  0  0  0
  5 14  1  0  0  0  0
  5  6  1  0  0  0  0
  6  1  1  0  0  0  0
  7  6  2  0  0  0  0
  7 15  1  0  0  0  0
  8  7  1  0  0  0  0
  9  8  1  0  0  0  0
  9 16  1  0  0  0  0
 10  9  1  0  0  0  0
 11 10  2  0  0  0  0
 11 12  1  0  0  0  0
 12 13  1  0  0  0  0
 12  8  2  0  0  0  0
 13  5  2  0  0  0  0
 17 10  1  0  0  0  0
 18 13  1  0  0  0  0
 19 18  1  0  0  0  0
 20 19  1  0  0  0  0
 21 20  1  0  0  0  0
 22 20  2  0  0  0  0
 22 24  1  0  0  0  0
 23 22  1  0  0  0  0
 24 26  1  0  0  0  0
 25 24  1  0  0  0  0
 26 19  2  0  0  0  0
 27 28  1  0  0  0  0
 28 29  1  0  0  0  0
 29 30  2  0  0  0  0
 29 39  1  0  0  0  0
 30 34  1  0  0  0  0
 31 35  1  0  0  0  0
 31 30  1  0  0  0  0
 32 31  2  0  0  0  0
 33 32  1  0  0  0  0
 33 28  2  0  0  0  0
 36 32  1  0  0  0  0
 37 43  1  0  0  0  0
 38 44  1  0  0  0  0
 38 37  1  0  0  0  0
 39 38  2  0  0  0  0
 40 39  1  0  0  0  0
 40 41  2  0  0  0  0
 41 42  1  0  0  0  0
 42 37  2  0  0  0  0
 45 41  1  0  0  0  0
M  END
>  <minimizedAffinity>
-7.26440096

>  <minimizedRMSD>
0.807657123

$$$$
