
 OpenBabel03272502593D

 33 35  0  0  1  0  0  0  0  0999 V2000
   35.8660   29.6280   48.7890 N   0  0  0  0  0  0  0  0  0  0  0  0
   36.6200   28.8640   49.7370 C   0  0  0  0  0  0  0  0  0  0  0  0
   37.1210   29.5350   50.9410 C   0  0  0  0  0  0  0  0  0  0  0  0
   37.3560   30.9930   50.8730 C   0  0  0  0  0  0  0  0  0  0  0  0
   36.6070   31.7020   49.7710 C   0  0  0  0  0  0  0  0  0  0  0  0
   36.6100   30.8310   48.5230 C   0  0  1  0  0  0  0  0  0  0  0  0
   35.9720   27.9810   50.0070 H   0  0  0  0  0  0  0  0  0  0  0  0
   37.4770   28.4140   49.1710 H   0  0  0  0  0  0  0  0  0  0  0  0
   38.0750   29.0450   51.2560 H   0  0  0  0  0  0  0  0  0  0  0  0
   36.4000   29.3110   51.7770 H   0  0  0  0  0  0  0  0  0  0  0  0
   37.0410   31.4750   51.8330 H   0  0  0  0  0  0  0  0  0  0  0  0
   38.4420   31.2460   50.7600 H   0  0  0  0  0  0  0  0  0  0  0  0
   35.5630   31.9350   50.0010 H   0  0  0  0  0  0  0  0  0  0  0  0
   37.1660   32.6410   49.5130 H   0  0  0  0  0  0  0  0  0  0  0  0
   36.2160   31.4280   47.6760 H   0  0  0  0  0  0  0  0  0  0  0  0
   34.6090   29.2680   48.2130 C   0  0  0  0  0  0  0  0  0  0  0  0
   34.0820   29.8270   47.0500 C   0  0  0  0  0  0  0  0  0  0  0  0
   32.8470   29.3780   46.6080 C   0  0  0  0  0  0  0  0  0  0  0  0
   32.2200   28.4090   47.3420 N   0  0  0  0  0  0  0  0  0  0  0  0
   32.7600   27.8990   48.4530 C   0  0  0  0  0  0  0  0  0  0  0  0
   33.9620   28.3230   48.9000 N   0  0  0  0  0  0  0  0  0  0  0  0
   34.6560   30.5730   46.5620 H   0  0  0  0  0  0  0  0  0  0  0  0
   32.4620   29.8260   45.7060 H   0  0  0  0  0  0  0  0  0  0  0  0
   32.2060   27.1340   48.9820 H   0  0  0  0  0  0  0  0  0  0  0  0
   37.9630   30.5820   48.2690 O   0  0  0  0  0  0  0  0  0  0  0  0
   38.7040   31.2720   47.3180 C   0  0  0  0  0  0  0  0  0  0  0  0
   39.1300   32.6030   47.2700 C   0  0  0  0  0  0  0  0  0  0  0  0
   38.9040   33.3160   48.0500 H   0  0  0  0  0  0  0  0  0  0  0  0
   39.8470   32.8180   46.1090 C   0  0  0  0  0  0  0  0  0  0  0  0
   40.2580   33.7750   45.8870 H   0  0  0  0  0  0  0  0  0  0  0  0
   39.8420   31.6100   45.4780 N   0  0  0  0  0  0  0  0  0  0  0  0
   40.3380   31.5370   44.5580 H   0  0  0  0  0  0  0  0  0  0  0  0
   39.1740   30.7130   46.1870 N   0  0  0  0  0  0  0  0  0  0  0  0
  1  2  1  0  0  0  0
  2  7  1  0  0  0  0
  2  3  1  0  0  0  0
  3  9  1  0  0  0  0
  3 10  1  0  0  0  0
  4  3  1  0  0  0  0
  4 11  1  0  0  0  0
  5 13  1  0  0  0  0
  5  4  1  0  0  0  0
  6 15  1  6  0  0  0
  6  1  1  0  0  0  0
  6  5  1  0  0  0  0
  8  2  1  0  0  0  0
 12  4  1  0  0  0  0
 14  5  1  0  0  0  0
 16  1  1  0  0  0  0
 16 21  1  0  0  0  0
 17 16  2  0  0  0  0
 18 17  1  0  0  0  0
 18 19  2  0  0  0  0
 19 20  1  0  0  0  0
 20 21  2  0  0  0  0
 20 24  1  0  0  0  0
 22 17  1  0  0  0  0
 23 18  1  0  0  0  0
 25  6  1  0  0  0  0
 26 25  1  0  0  0  0
 27 26  1  0  0  0  0
 27 28  1  0  0  0  0
 29 27  2  0  0  0  0
 30 29  1  0  0  0  0
 31 29  1  0  0  0  0
 31 33  1  0  0  0  0
 32 31  1  0  0  0  0
 33 26  2  0  0  0  0
M  END
>  <minimizedAffinity>
-5.43859434

>  <minimizedRMSD>
0.623151243

$$$$
