REMARK  Name = 
REMARK  6 active torsions:
REMARK  status: ('A' for Active; 'I' for Inactive)
REMARK    1  A    between atoms: C_1  and  C_3
REMARK    2  A    between atoms: C_1  and  C_11
REMARK    3  A    between atoms: C_2  and  C_8
REMARK    4  A    between atoms: C_11  and  C_14
REMARK    5  A    between atoms: C_18  and  O_19
REMARK    6  A    between atoms: O_19  and  C_34
REMARK                            x       y       z     vdW  Elec       q    Type
REMARK                         _______ _______ _______ _____ _____    ______ ____
ROOT
ATOM      1  C   UNL     1      38.067  30.903  46.754  0.00  0.00    +0.000 C 
ATOM      2  H   UNL     1      39.006  30.503  46.300  0.00  0.00    +0.000 HD
ATOM      3  H   UNL     1      37.606  31.487  45.901  0.00  0.00    +0.000 HD
ENDROOT
BRANCH   1   6
ATOM      4  F   UNL     1      39.590  33.114  46.057  0.00  0.00    +0.000 F 
ATOM      5  C   UNL     1      39.163  32.925  47.339  0.00  0.00    +0.000 A 
ATOM      6  C   UNL     1      38.403  31.834  47.778  0.00  0.00    +0.000 A 
ATOM      7  C   UNL     1      38.102  31.818  49.098  0.00  0.00    +0.000 A 
ATOM      8  C   UNL     1      38.485  32.782  49.975  0.00  0.00    +0.000 A 
ATOM      9  C   UNL     1      39.234  33.856  49.530  0.00  0.00    +0.000 A 
ATOM     10  C   UNL     1      39.578  33.919  48.184  0.00  0.00    +0.000 A 
ATOM     11  H   UNL     1      37.613  31.043  49.608  0.00  0.00    +0.000 HD
ATOM     12  H   UNL     1      38.267  32.823  51.053  0.00  0.00    +0.000 HD
ATOM     13  H   UNL     1      39.563  34.661  50.211  0.00  0.00    +0.000 HD
BRANCH  10  14
ATOM     14  O   UNL     1      40.348  35.025  47.810  0.00  0.00    +0.000 OA
BRANCH  14  15
ATOM     15  C   UNL     1      39.900  35.937  46.863  0.00  0.00    +0.000 A 
ATOM     16  C   UNL     1      38.837  36.819  46.666  0.00  0.00    +0.000 A 
ATOM     17  H   UNL     1      38.116  36.832  47.470  0.00  0.00    +0.000 HD
ATOM     18  C   UNL     1      39.067  37.418  45.444  0.00  0.00    +0.000 A 
ATOM     19  H   UNL     1      38.344  38.143  45.110  0.00  0.00    +0.000 HD
ATOM     20  N   UNL     1      40.201  36.925  44.935  0.00  0.00    +0.000 N 
ATOM     21  H   UNL     1      40.574  37.247  43.994  0.00  0.00    +0.000 HD
ATOM     22  N   UNL     1      40.709  36.040  45.773  0.00  0.00    +0.000 NA
ENDBRANCH  14  15
ENDBRANCH  10  14
ENDBRANCH   1   6
BRANCH   1  23
ATOM     23  C   UNL     1      37.100  29.835  47.089  0.00  0.00    +0.000 C 
ATOM     24  H   UNL     1      37.469  28.896  46.567  0.00  0.00    +0.000 HD
ATOM     25  H   UNL     1      37.164  29.558  48.161  0.00  0.00    +0.000 HD
BRANCH  23  27
ATOM     26  C   UNL     1      34.704  30.005  47.590  0.00  0.00    +0.000 A 
ATOM     27  C   UNL     1      35.740  30.026  46.698  0.00  0.00    +0.000 A 
ATOM     28  C   UNL     1      35.333  30.180  45.414  0.00  0.00    +0.000 A 
ATOM     29  N   UNL     1      34.055  30.299  45.045  0.00  0.00    +0.000 NA
ATOM     30  C   UNL     1      33.059  30.275  45.908  0.00  0.00    +0.000 A 
ATOM     31  N   UNL     1      33.368  30.128  47.196  0.00  0.00    +0.000 NA
ATOM     32  H   UNL     1      36.051  30.218  44.579  0.00  0.00    +0.000 HD
ATOM     33  H   UNL     1      31.989  30.356  45.771  0.00  0.00    +0.000 HD
BRANCH  26  34
ATOM     34  C   UNL     1      34.964  30.006  49.098  0.00  0.00    +0.000 C 
ATOM     35  C   UNL     1      34.007  29.648  50.034  0.00  0.00    +0.000 C 
ATOM     36  C   UNL     1      34.866  28.485  49.553  0.00  0.00    +0.000 C 
ATOM     37  H   UNL     1      35.876  30.414  49.446  0.00  0.00    +0.000 HD
ATOM     38  H   UNL     1      32.922  29.609  49.709  0.00  0.00    +0.000 HD
ATOM     39  H   UNL     1      34.070  29.859  51.100  0.00  0.00    +0.000 HD
ATOM     40  H   UNL     1      34.376  27.785  48.892  0.00  0.00    +0.000 HD
ATOM     41  H   UNL     1      35.704  28.166  50.199  0.00  0.00    +0.000 HD
ENDBRANCH  26  34
ENDBRANCH  23  27
ENDBRANCH   1  23
TORSDOF 6
