
 OpenBabel03272500003D

 28 30  0  0  0  0  0  0  0  0999 V2000
   38.5150   32.5120   47.5880 C   0  0  0  0  0  0  0  0  0  0  0  0
   38.9050   31.8760   46.3940 C   0  0  0  0  0  0  0  0  0  0  0  0
   38.3210   30.6580   46.0970 C   0  0  0  0  0  0  0  0  0  0  0  0
   37.3990   30.1230   46.9630 N   0  0  0  0  0  0  0  0  0  0  0  0
   37.0560   30.7760   48.1050 C   0  0  0  0  0  0  0  0  0  0  0  0
   37.6130   31.9740   48.4210 N   0  0  0  0  0  0  0  0  0  0  0  0
   38.9300   33.4610   47.8780 H   0  0  0  0  0  0  0  0  0  0  0  0
   38.6150   30.1720   45.1910 H   0  0  0  0  0  0  0  0  0  0  0  0
   38.1900   30.2790   50.9720 Br  0  0  0  0  0  0  0  0  0  0  0  0
   36.4270   29.9440   50.3440 C   0  0  0  0  0  0  0  0  0  0  0  0
   36.0790   30.2220   49.0340 C   0  0  0  0  0  0  0  0  0  0  0  0
   34.7800   29.9490   48.6650 C   0  0  0  0  0  0  0  0  0  0  0  0
   33.8150   29.4250   49.4990 C   0  0  0  0  0  0  0  0  0  0  0  0
   34.2220   29.1660   50.8090 C   0  0  0  0  0  0  0  0  0  0  0  0
   35.5340   29.4310   51.2200 C   0  0  0  0  0  0  0  0  0  0  0  0
   34.5140   30.1710   47.6240 H   0  0  0  0  0  0  0  0  0  0  0  0
   32.8070   29.2290   49.1610 H   0  0  0  0  0  0  0  0  0  0  0  0
   33.5030   28.7520   51.5120 H   0  0  0  0  0  0  0  0  0  0  0  0
   35.7570   29.1980   52.2500 H   0  0  0  0  0  0  0  0  0  0  0  0
   39.8290   32.4600   45.5720 O   0  0  0  0  0  0  0  0  0  0  0  0
   39.7970   32.3940   44.2020 C   0  0  0  0  0  0  0  0  0  0  0  0
   40.4170   31.2520   43.6820 C   0  0  0  0  0  0  0  0  0  0  0  0
   40.9290   30.3850   44.0810 H   0  0  0  0  0  0  0  0  0  0  0  0
   40.3200   31.3000   42.2870 C   0  0  0  0  0  0  0  0  0  0  0  0
   40.6630   30.6230   41.5150 H   0  0  0  0  0  0  0  0  0  0  0  0
   39.6530   32.4500   42.0150 N   0  0  0  0  0  0  0  0  0  0  0  0
   39.3660   32.8760   41.1060 H   0  0  0  0  0  0  0  0  0  0  0  0
   39.3500   33.0870   43.1350 N   0  0  0  0  0  0  0  0  0  0  0  0
  1  7  1  0  0  0  0
  1  6  1  0  0  0  0
  2  1  2  0  0  0  0
  3  2  1  0  0  0  0
  3  4  2  0  0  0  0
  4  5  1  0  0  0  0
  5  6  2  0  0  0  0
  5 11  1  0  0  0  0
  8  3  1  0  0  0  0
 10  9  1  0  0  0  0
 10 15  1  0  0  0  0
 11 10  2  0  0  0  0
 12 11  1  0  0  0  0
 12 13  2  0  0  0  0
 13 14  1  0  0  0  0
 14 15  2  0  0  0  0
 14 18  1  0  0  0  0
 15 19  1  0  0  0  0
 16 12  1  0  0  0  0
 17 13  1  0  0  0  0
 20  2  1  0  0  0  0
 21 20  1  0  0  0  0
 22 23  1  0  0  0  0
 22 21  1  0  0  0  0
 24 22  2  0  0  0  0
 25 24  1  0  0  0  0
 26 24  1  0  0  0  0
 26 28  1  0  0  0  0
 27 26  1  0  0  0  0
 28 21  2  0  0  0  0
M  END
>  <minimizedAffinity>
-4.82519341

>  <minimizedRMSD>
3.42336488

$$$$
