
 OpenBabel03272508163D

 30 32  0  0  0  0  0  0  0  0999 V2000
   35.2430   30.5810   47.6370 Cl  0  0  0  0  0  0  0  0  0  0  0  0
   35.4110   29.9110   46.0430 C   0  0  0  0  0  0  0  0  0  0  0  0
   34.4120   29.0480   45.7270 C   0  0  0  0  0  0  0  0  0  0  0  0
   34.4550   28.4450   44.4440 C   0  0  0  0  0  0  0  0  0  0  0  0
   35.4560   28.7160   43.5580 C   0  0  0  0  0  0  0  0  0  0  0  0
   36.4510   29.5990   43.9180 C   0  0  0  0  0  0  0  0  0  0  0  0
   37.7390   29.9700   42.8230 Cl  0  0  0  0  0  0  0  0  0  0  0  0
   36.4130   30.1780   45.1460 C   0  0  0  0  0  0  0  0  0  0  0  0
   33.7090   27.7450   44.0940 H   0  0  0  0  0  0  0  0  0  0  0  0
   35.5000   28.2620   42.5750 H   0  0  0  0  0  0  0  0  0  0  0  0
   33.4790   27.6830   47.5390 C   0  0  0  0  0  0  0  0  0  0  0  0
   33.2450   28.6060   46.5060 C   0  0  0  0  0  0  0  0  0  0  0  0
   31.9500   29.0450   46.2760 C   0  0  0  0  0  0  0  0  0  0  0  0
   30.9650   28.5530   47.0710 N   0  0  0  0  0  0  0  0  0  0  0  0
   31.2170   27.6640   48.0590 C   0  0  0  0  0  0  0  0  0  0  0  0
   32.4870   27.2210   48.3000 N   0  0  0  0  0  0  0  0  0  0  0  0
   34.4830   27.3290   47.7330 H   0  0  0  0  0  0  0  0  0  0  0  0
   31.7880   29.7560   45.4770 H   0  0  0  0  0  0  0  0  0  0  0  0
   30.3230   27.3840   48.5860 H   0  0  0  0  0  0  0  0  0  0  0  0
   37.4350   31.1340   45.6120 C   0  0  0  0  0  0  0  0  0  0  0  0
   37.5850   32.3200   45.3350 O   0  0  0  0  0  0  0  0  0  0  0  0
   38.4910   30.8620   46.5070 O   0  0  0  0  0  0  0  0  0  0  0  0
   38.4570   31.2770   47.8310 C   0  0  0  0  0  0  0  0  0  0  0  0
   38.6840   32.5890   48.1990 C   0  0  0  0  0  0  0  0  0  0  0  0
   38.9040   33.4270   47.5550 H   0  0  0  0  0  0  0  0  0  0  0  0
   38.5770   32.6610   49.5690 C   0  0  0  0  0  0  0  0  0  0  0  0
   38.6780   33.4750   50.2540 H   0  0  0  0  0  0  0  0  0  0  0  0
   38.2970   31.4250   50.0110 N   0  0  0  0  0  0  0  0  0  0  0  0
   38.1450   31.0950   50.9960 H   0  0  0  0  0  0  0  0  0  0  0  0
   38.2240   30.5900   48.9620 N   0  0  0  0  0  0  0  0  0  0  0  0
  2  1  1  0  0  0  0
  3  2  1  0  0  0  0
  3 12  1  0  0  0  0
  4  3  2  0  0  0  0
  5  6  2  0  0  0  0
  5  4  1  0  0  0  0
  6  8  1  0  0  0  0
  7  6  1  0  0  0  0
  8 20  1  0  0  0  0
  8  2  2  0  0  0  0
  9  4  1  0  0  0  0
 10  5  1  0  0  0  0
 11 17  1  0  0  0  0
 11 16  1  0  0  0  0
 12 11  2  0  0  0  0
 13 12  1  0  0  0  0
 13 14  2  0  0  0  0
 14 15  1  0  0  0  0
 15 16  2  0  0  0  0
 15 19  1  0  0  0  0
 18 13  1  0  0  0  0
 20 22  1  0  0  0  0
 21 20  2  0  0  0  0
 22 23  1  0  0  0  0
 23 24  1  0  0  0  0
 23 30  2  0  0  0  0
 24 26  2  0  0  0  0
 25 24  1  0  0  0  0
 26 28  1  0  0  0  0
 26 27  1  0  0  0  0
 28 29  1  0  0  0  0
 30 28  1  0  0  0  0
M  END
>  <minimizedAffinity>
-4.58756876

>  <minimizedRMSD>
4.35872459

$$$$
