
 OpenBabel03262523593D

 28 30  0  0  0  0  0  0  0  0999 V2000
   38.5140   32.5130   47.5880 C   0  0  0  0  0  0  0  0  0  0  0  0
   38.9050   31.8760   46.3940 C   0  0  0  0  0  0  0  0  0  0  0  0
   38.3230   30.6570   46.0970 C   0  0  0  0  0  0  0  0  0  0  0  0
   37.4010   30.1210   46.9640 N   0  0  0  0  0  0  0  0  0  0  0  0
   37.0560   30.7760   48.1050 C   0  0  0  0  0  0  0  0  0  0  0  0
   37.6120   31.9740   48.4200 N   0  0  0  0  0  0  0  0  0  0  0  0
   38.9280   33.4620   47.8770 H   0  0  0  0  0  0  0  0  0  0  0  0
   38.6180   30.1700   45.1920 H   0  0  0  0  0  0  0  0  0  0  0  0
   38.1910   30.2790   50.9720 Br  0  0  0  0  0  0  0  0  0  0  0  0
   36.4270   29.9440   50.3440 C   0  0  0  0  0  0  0  0  0  0  0  0
   36.0790   30.2210   49.0340 C   0  0  0  0  0  0  0  0  0  0  0  0
   34.7810   29.9480   48.6650 C   0  0  0  0  0  0  0  0  0  0  0  0
   33.8160   29.4240   49.4990 C   0  0  0  0  0  0  0  0  0  0  0  0
   34.2220   29.1650   50.8090 C   0  0  0  0  0  0  0  0  0  0  0  0
   35.5340   29.4300   51.2200 C   0  0  0  0  0  0  0  0  0  0  0  0
   34.5150   30.1700   47.6240 H   0  0  0  0  0  0  0  0  0  0  0  0
   32.8080   29.2280   49.1600 H   0  0  0  0  0  0  0  0  0  0  0  0
   33.5030   28.7520   51.5120 H   0  0  0  0  0  0  0  0  0  0  0  0
   35.7570   29.1980   52.2500 H   0  0  0  0  0  0  0  0  0  0  0  0
   39.8290   32.4600   45.5720 O   0  0  0  0  0  0  0  0  0  0  0  0
   39.7970   32.3940   44.2020 C   0  0  0  0  0  0  0  0  0  0  0  0
   40.4170   31.2520   43.6820 C   0  0  0  0  0  0  0  0  0  0  0  0
   40.9300   30.3850   44.0810 H   0  0  0  0  0  0  0  0  0  0  0  0
   40.3200   31.3000   42.2870 C   0  0  0  0  0  0  0  0  0  0  0  0
   40.6630   30.6240   41.5140 H   0  0  0  0  0  0  0  0  0  0  0  0
   39.6530   32.4510   42.0150 N   0  0  0  0  0  0  0  0  0  0  0  0
   39.3660   32.8750   41.1060 H   0  0  0  0  0  0  0  0  0  0  0  0
   39.3490   33.0860   43.1350 N   0  0  0  0  0  0  0  0  0  0  0  0
  1  7  1  0  0  0  0
  1  6  1  0  0  0  0
  2  1  2  0  0  0  0
  3  2  1  0  0  0  0
  3  4  2  0  0  0  0
  4  5  1  0  0  0  0
  5  6  2  0  0  0  0
  5 11  1  0  0  0  0
  8  3  1  0  0  0  0
 10  9  1  0  0  0  0
 10 15  1  0  0  0  0
 11 10  2  0  0  0  0
 12 11  1  0  0  0  0
 12 13  2  0  0  0  0
 13 14  1  0  0  0  0
 14 15  2  0  0  0  0
 14 18  1  0  0  0  0
 15 19  1  0  0  0  0
 16 12  1  0  0  0  0
 17 13  1  0  0  0  0
 20  2  1  0  0  0  0
 21 20  1  0  0  0  0
 22 23  1  0  0  0  0
 22 21  1  0  0  0  0
 24 22  2  0  0  0  0
 25 24  1  0  0  0  0
 26 24  1  0  0  0  0
 26 28  1  0  0  0  0
 27 26  1  0  0  0  0
 28 21  2  0  0  0  0
M  END
>  <minimizedAffinity>
-4.82380104

>  <minimizedRMSD>
3.43979812

$$$$
