
 OpenBabel03272505023D

 28 30  0  0  0  0  0  0  0  0999 V2000
   38.4970   30.3340   46.9340 Cl  0  0  0  0  0  0  0  0  0  0  0  0
   38.8320   31.8740   47.7070 C   0  0  0  0  0  0  0  0  0  0  0  0
   38.2410   32.1510   48.9100 C   0  0  0  0  0  0  0  0  0  0  0  0
   38.5540   33.3760   49.4540 C   0  0  0  0  0  0  0  0  0  0  0  0
   39.4180   34.2410   48.7930 C   0  0  0  0  0  0  0  0  0  0  0  0
   39.9830   33.9130   47.5900 C   0  0  0  0  0  0  0  0  0  0  0  0
   39.6800   32.6830   47.0240 C   0  0  0  0  0  0  0  0  0  0  0  0
   38.1520   33.7150   50.4010 H   0  0  0  0  0  0  0  0  0  0  0  0
   39.6590   35.2090   49.2330 H   0  0  0  0  0  0  0  0  0  0  0  0
   40.6510   34.6340   47.1230 H   0  0  0  0  0  0  0  0  0  0  0  0
   37.7550   30.5350   50.7440 C   0  0  0  0  0  0  0  0  0  0  0  0
   37.3310   31.2370   49.6040 C   0  0  0  0  0  0  0  0  0  0  0  0
   36.0370   31.0390   49.1640 C   0  0  0  0  0  0  0  0  0  0  0  0
   35.2490   30.1800   49.8530 N   0  0  0  0  0  0  0  0  0  0  0  0
   35.6690   29.5140   50.9440 C   0  0  0  0  0  0  0  0  0  0  0  0
   36.9180   29.6930   51.3850 N   0  0  0  0  0  0  0  0  0  0  0  0
   38.7740   30.6740   51.1140 H   0  0  0  0  0  0  0  0  0  0  0  0
   35.6690   31.5520   48.3000 H   0  0  0  0  0  0  0  0  0  0  0  0
   35.0620   28.8270   51.5090 H   0  0  0  0  0  0  0  0  0  0  0  0
   40.2730   32.3990   45.8140 O   0  0  0  0  0  0  0  0  0  0  0  0
   39.7740   32.6620   44.5700 C   0  0  0  0  0  0  0  0  0  0  0  0
   39.7700   33.6820   43.6500 C   0  0  0  0  0  0  0  0  0  0  0  0
   40.2970   34.5910   43.9030 H   0  0  0  0  0  0  0  0  0  0  0  0
   39.0580   33.3200   42.5300 C   0  0  0  0  0  0  0  0  0  0  0  0
   38.9070   33.9470   41.6650 H   0  0  0  0  0  0  0  0  0  0  0  0
   38.6480   32.0830   42.8040 N   0  0  0  0  0  0  0  0  0  0  0  0
   38.0620   31.5130   42.1250 H   0  0  0  0  0  0  0  0  0  0  0  0
   39.0480   31.6600   43.9920 N   0  0  0  0  0  0  0  0  0  0  0  0
  1  2  1  0  0  0  0
  2  3  1  0  0  0  0
  3  4  2  0  0  0  0
  3 12  1  0  0  0  0
  4  8  1  0  0  0  0
  5  9  1  0  0  0  0
  5  4  1  0  0  0  0
  6  5  2  0  0  0  0
  7  6  1  0  0  0  0
  7  2  2  0  0  0  0
 10  6  1  0  0  0  0
 11 17  1  0  0  0  0
 11 16  1  0  0  0  0
 12 11  2  0  0  0  0
 13 12  1  0  0  0  0
 13 14  2  0  0  0  0
 14 15  1  0  0  0  0
 15 16  2  0  0  0  0
 15 19  1  0  0  0  0
 18 13  1  0  0  0  0
 20  7  1  0  0  0  0
 21 20  1  0  0  0  0
 22 23  1  0  0  0  0
 22 21  1  0  0  0  0
 24 26  1  0  0  0  0
 24 22  2  0  0  0  0
 25 24  1  0  0  0  0
 26 28  1  0  0  0  0
 27 26  1  0  0  0  0
 28 21  2  0  0  0  0
M  END
>  <minimizedAffinity>
-5.58208227

>  <minimizedRMSD>
0.425980151

$$$$
