
 OpenBabel03272500003D

 28 30  0  0  0  0  0  0  0  0999 V2000
   35.7590   30.6800   48.9810 C   0  0  0  0  0  0  0  0  0  0  0  0
   36.8910   30.7880   48.1490 C   0  0  0  0  0  0  0  0  0  0  0  0
   36.7270   30.5020   46.8060 C   0  0  0  0  0  0  0  0  0  0  0  0
   35.4890   30.1290   46.3410 N   0  0  0  0  0  0  0  0  0  0  0  0
   34.4270   30.0390   47.1850 C   0  0  0  0  0  0  0  0  0  0  0  0
   34.5600   30.3150   48.5090 N   0  0  0  0  0  0  0  0  0  0  0  0
   35.8180   30.8880   50.0350 H   0  0  0  0  0  0  0  0  0  0  0  0
   37.5840   30.5830   46.1710 H   0  0  0  0  0  0  0  0  0  0  0  0
   33.7050   27.0630   47.7980 Br  0  0  0  0  0  0  0  0  0  0  0  0
   32.6400   28.3590   46.9010 C   0  0  0  0  0  0  0  0  0  0  0  0
   33.1070   29.6460   46.7080 C   0  0  0  0  0  0  0  0  0  0  0  0
   32.2700   30.5190   46.0490 C   0  0  0  0  0  0  0  0  0  0  0  0
   31.0140   30.2030   45.5760 C   0  0  0  0  0  0  0  0  0  0  0  0
   30.5930   28.8910   45.8000 C   0  0  0  0  0  0  0  0  0  0  0  0
   31.4180   27.9760   46.4660 C   0  0  0  0  0  0  0  0  0  0  0  0
   32.6490   31.5370   45.9000 H   0  0  0  0  0  0  0  0  0  0  0  0
   30.3930   30.9260   45.0640 H   0  0  0  0  0  0  0  0  0  0  0  0
   29.6110   28.5850   45.4490 H   0  0  0  0  0  0  0  0  0  0  0  0
   31.0100   26.9850   46.5940 H   0  0  0  0  0  0  0  0  0  0  0  0
   38.0980   31.1640   48.6720 O   0  0  0  0  0  0  0  0  0  0  0  0
   38.7530   32.3240   48.3480 C   0  0  0  0  0  0  0  0  0  0  0  0
   38.8410   33.2320   49.4090 C   0  0  0  0  0  0  0  0  0  0  0  0
   38.5230   33.2650   50.4440 H   0  0  0  0  0  0  0  0  0  0  0  0
   39.5250   34.3660   48.9580 C   0  0  0  0  0  0  0  0  0  0  0  0
   39.8030   35.2890   49.4530 H   0  0  0  0  0  0  0  0  0  0  0  0
   39.8230   34.1100   47.6580 N   0  0  0  0  0  0  0  0  0  0  0  0
   40.3240   34.6830   46.9470 H   0  0  0  0  0  0  0  0  0  0  0  0
   39.3700   32.9180   47.3060 N   0  0  0  0  0  0  0  0  0  0  0  0
  1  7  1  0  0  0  0
  2 20  1  0  0  0  0
  2  1  2  0  0  0  0
  3  2  1  0  0  0  0
  4  3  2  0  0  0  0
  4  5  1  0  0  0  0
  5  6  2  0  0  0  0
  6  1  1  0  0  0  0
  8  3  1  0  0  0  0
 10  9  1  0  0  0  0
 11 10  1  0  0  0  0
 11  5  1  0  0  0  0
 12 11  2  0  0  0  0
 13 14  2  0  0  0  0
 13 12  1  0  0  0  0
 14 15  1  0  0  0  0
 15 19  1  0  0  0  0
 15 10  2  0  0  0  0
 16 12  1  0  0  0  0
 17 13  1  0  0  0  0
 18 14  1  0  0  0  0
 21 20  1  0  0  0  0
 21 22  1  0  0  0  0
 22 23  1  0  0  0  0
 24 22  2  0  0  0  0
 24 25  1  0  0  0  0
 26 24  1  0  0  0  0
 27 26  1  0  0  0  0
 28 26  1  0  0  0  0
 28 21  2  0  0  0  0
M  END
>  <minimizedAffinity>
-5.11977959

>  <minimizedRMSD>
3.7284236

$$$$
