REMARK  Name = 
REMARK  5 active torsions:
REMARK  status: ('A' for Active; 'I' for Inactive)
REMARK    1  A    between atoms: C_3  and  C_10
REMARK    2  A    between atoms: C_7  and  N_16
REMARK    3  A    between atoms: C_14  and  C_18
REMARK    4  A    between atoms: C_25  and  O_26
REMARK    5  A    between atoms: O_26  and  C_38
REMARK                            x       y       z     vdW  Elec       q    Type
REMARK                         _______ _______ _______ _____ _____    ______ ____
ROOT
ATOM      1  C   UNL     1      39.282  31.894  44.942  0.00  0.00    +0.000 C 
ATOM      2  O   UNL     1      38.191  32.547  45.053  0.00  0.00    +0.000 OA
ATOM      3  N   UNL     1      39.960  31.634  46.150  0.00  0.00    +0.000 N 
ATOM      4  H   UNL     1      40.847  31.101  46.093  0.00  0.00    +0.000 HD
ENDROOT
BRANCH   1   6
ATOM      5  C   UNL     1      39.185  32.193  42.553  0.00  0.00    +0.000 A 
ATOM      6  C   UNL     1      39.717  31.489  43.612  0.00  0.00    +0.000 A 
ATOM      7  C   UNL     1      40.610  30.461  43.461  0.00  0.00    +0.000 A 
ATOM      8  C   UNL     1      41.009  30.101  42.182  0.00  0.00    +0.000 A 
ATOM      9  N   UNL     1      41.845  29.167  41.730  0.00  0.00    +0.000 N 
ATOM     10  C   UNL     1      41.867  29.252  40.406  0.00  0.00    +0.000 A 
ATOM     11  N   UNL     1      41.039  30.246  40.007  0.00  0.00    +0.000 NA
ATOM     12  C   UNL     1      40.477  30.806  41.114  0.00  0.00    +0.000 A 
ATOM     13  C   UNL     1      39.578  31.840  41.254  0.00  0.00    +0.000 A 
ATOM     14  H   UNL     1      38.483  32.995  42.733  0.00  0.00    +0.000 HD
ATOM     15  H   UNL     1      40.991  29.947  44.339  0.00  0.00    +0.000 HD
ATOM     16  H   UNL     1      42.367  28.509  42.344  0.00  0.00    +0.000 HD
ATOM     17  H   UNL     1      42.466  28.612  39.747  0.00  0.00    +0.000 HD
BRANCH  13  18
ATOM     18  O   UNL     1      39.057  32.528  40.189  0.00  0.00    +0.000 OA
BRANCH  18  19
ATOM     19  C   UNL     1      38.168  33.557  40.213  0.00  0.00    +0.000 A 
ATOM     20  C   UNL     1      37.798  33.883  41.525  0.00  0.00    +0.000 A 
ATOM     21  H   UNL     1      38.022  33.541  42.551  0.00  0.00    +0.000 HD
ATOM     22  C   UNL     1      36.897  34.931  41.478  0.00  0.00    +0.000 A 
ATOM     23  H   UNL     1      36.354  35.501  42.222  0.00  0.00    +0.000 HD
ATOM     24  N   UNL     1      36.773  35.180  40.152  0.00  0.00    +0.000 N 
ATOM     25  H   UNL     1      36.162  35.923  39.709  0.00  0.00    +0.000 HD
ATOM     26  N   UNL     1      37.505  34.391  39.392  0.00  0.00    +0.000 NA
ENDBRANCH  18  19
ENDBRANCH  13  18
ENDBRANCH   1   6
BRANCH   3  33
ATOM     27  F   UNL     1      38.120  30.146  47.486  0.00  0.00    +0.000 F 
ATOM     28  C   UNL     1      38.374  31.389  47.977  0.00  0.00    +0.000 A 
ATOM     29  C   UNL     1      37.719  31.833  49.087  0.00  0.00    +0.000 A 
ATOM     30  C   UNL     1      38.025  33.094  49.525  0.00  0.00    +0.000 A 
ATOM     31  C   UNL     1      38.948  33.905  48.898  0.00  0.00    +0.000 A 
ATOM     32  C   UNL     1      39.602  33.431  47.771  0.00  0.00    +0.000 A 
ATOM     33  C   UNL     1      39.308  32.157  47.309  0.00  0.00    +0.000 A 
ATOM     34  H   UNL     1      37.499  33.449  50.415  0.00  0.00    +0.000 HD
ATOM     35  H   UNL     1      39.119  34.886  49.323  0.00  0.00    +0.000 HD
ATOM     36  H   UNL     1      40.323  34.064  47.280  0.00  0.00    +0.000 HD
BRANCH  29  39
ATOM     37  C   UNL     1      36.082  29.365  51.440  0.00  0.00    +0.000 A 
ATOM     38  C   UNL     1      37.050  30.220  50.858  0.00  0.00    +0.000 A 
ATOM     39  C   UNL     1      36.749  30.939  49.718  0.00  0.00    +0.000 A 
ATOM     40  N   UNL     1      35.487  30.790  49.183  0.00  0.00    +0.000 NA
ATOM     41  C   UNL     1      34.582  29.978  49.743  0.00  0.00    +0.000 A 
ATOM     42  N   UNL     1      34.865  29.280  50.844  0.00  0.00    +0.000 NA
ATOM     43  H   UNL     1      36.458  28.875  52.316  0.00  0.00    +0.000 HD
ATOM     44  H   UNL     1      38.045  30.366  51.243  0.00  0.00    +0.000 HD
ATOM     45  H   UNL     1      33.588  29.855  49.328  0.00  0.00    +0.000 HD
ENDBRANCH  29  39
ENDBRANCH   3  33
TORSDOF 5
