
 OpenBabel03272505023D

 28 30  0  0  0  0  0  0  0  0999 V2000
   38.6360   30.4270   46.8340 Cl  0  0  0  0  0  0  0  0  0  0  0  0
   38.9370   31.9550   47.6440 C   0  0  0  0  0  0  0  0  0  0  0  0
   38.3310   32.1960   48.8470 C   0  0  0  0  0  0  0  0  0  0  0  0
   38.6170   33.4140   49.4210 C   0  0  0  0  0  0  0  0  0  0  0  0
   39.4720   34.3080   48.7860 C   0  0  0  0  0  0  0  0  0  0  0  0
   40.0530   34.0170   47.5820 C   0  0  0  0  0  0  0  0  0  0  0  0
   39.7770   32.7940   46.9870 C   0  0  0  0  0  0  0  0  0  0  0  0
   38.2000   33.7250   50.3710 H   0  0  0  0  0  0  0  0  0  0  0  0
   39.6920   35.2700   49.2500 H   0  0  0  0  0  0  0  0  0  0  0  0
   40.7130   34.7590   47.1380 H   0  0  0  0  0  0  0  0  0  0  0  0
   37.8670   30.5090   50.6220 C   0  0  0  0  0  0  0  0  0  0  0  0
   37.4310   31.2510   49.5120 C   0  0  0  0  0  0  0  0  0  0  0  0
   36.1350   31.0620   49.0740 C   0  0  0  0  0  0  0  0  0  0  0  0
   35.3560   30.1730   49.7350 N   0  0  0  0  0  0  0  0  0  0  0  0
   35.7880   29.4690   50.7980 C   0  0  0  0  0  0  0  0  0  0  0  0
   37.0390   29.6390   51.2360 N   0  0  0  0  0  0  0  0  0  0  0  0
   38.8880   30.6400   50.9900 H   0  0  0  0  0  0  0  0  0  0  0  0
   35.7570   31.6050   48.2320 H   0  0  0  0  0  0  0  0  0  0  0  0
   35.1890   28.7570   51.3400 H   0  0  0  0  0  0  0  0  0  0  0  0
   40.3860   32.5480   45.7760 O   0  0  0  0  0  0  0  0  0  0  0  0
   39.7760   32.3890   44.5640 C   0  0  0  0  0  0  0  0  0  0  0  0
   40.0260   31.7960   43.3490 C   0  0  0  0  0  0  0  0  0  0  0  0
   40.9640   31.2740   43.2270 H   0  0  0  0  0  0  0  0  0  0  0  0
   38.9720   31.9960   42.4890 C   0  0  0  0  0  0  0  0  0  0  0  0
   38.9250   31.6290   41.4750 H   0  0  0  0  0  0  0  0  0  0  0  0
   38.1090   32.7090   43.2090 N   0  0  0  0  0  0  0  0  0  0  0  0
   37.1730   33.0330   42.8220 H   0  0  0  0  0  0  0  0  0  0  0  0
   38.5440   32.9610   44.4320 N   0  0  0  0  0  0  0  0  0  0  0  0
  1  2  1  0  0  0  0
  2  3  1  0  0  0  0
  3  4  2  0  0  0  0
  3 12  1  0  0  0  0
  4  8  1  0  0  0  0
  5  9  1  0  0  0  0
  5  4  1  0  0  0  0
  6  5  2  0  0  0  0
  7  6  1  0  0  0  0
  7  2  2  0  0  0  0
 10  6  1  0  0  0  0
 11 17  1  0  0  0  0
 11 16  1  0  0  0  0
 12 11  2  0  0  0  0
 13 12  1  0  0  0  0
 13 14  2  0  0  0  0
 14 15  1  0  0  0  0
 15 16  2  0  0  0  0
 15 19  1  0  0  0  0
 18 13  1  0  0  0  0
 20  7  1  0  0  0  0
 21 20  1  0  0  0  0
 22 21  1  0  0  0  0
 23 22  1  0  0  0  0
 24 26  1  0  0  0  0
 24 22  2  0  0  0  0
 25 24  1  0  0  0  0
 26 28  1  0  0  0  0
 27 26  1  0  0  0  0
 28 21  2  0  0  0  0
M  END
>  <minimizedAffinity>
-5.90759468

>  <minimizedRMSD>
0.314434677

$$$$
