REMARK  Name = 
REMARK  3 active torsions:
REMARK  status: ('A' for Active; 'I' for Inactive)
REMARK    1  A    between atoms: C_1  and  C_8
REMARK    2  A    between atoms: C_4  and  O_13
REMARK    3  A    between atoms: O_13  and  C_20
REMARK                            x       y       z     vdW  Elec       q    Type
REMARK                         _______ _______ _______ _____ _____    ______ ____
ROOT
ATOM      1  C   UNL     1      37.557  31.667  48.941  0.00  0.00    +0.000 A 
ATOM      2  C   UNL     1      38.189  32.731  49.502  0.00  0.00    +0.000 A 
ATOM      3  C   UNL     1      39.068  33.558  48.834  0.00  0.00    +0.000 A 
ATOM      4  C   UNL     1      39.352  33.331  47.521  0.00  0.00    +0.000 A 
ATOM      5  C   UNL     1      38.703  32.238  46.944  0.00  0.00    +0.000 A 
ATOM      6  N   UNL     1      37.851  31.455  47.634  0.00  0.00    +0.000 NA
ATOM      7  H   UNL     1      38.009  32.972  50.548  0.00  0.00    +0.000 HD
ATOM      8  H   UNL     1      39.575  34.410  49.278  0.00  0.00    +0.000 HD
ATOM      9  H   UNL     1      38.867  31.975  45.893  0.00  0.00    +0.000 HD
ENDROOT
BRANCH   1  11
ATOM     10  C   UNL     1      36.948  30.173  50.867  0.00  0.00    +0.000 A 
ATOM     11  C   UNL     1      36.640  30.804  49.641  0.00  0.00    +0.000 A 
ATOM     12  C   UNL     1      35.390  30.562  49.113  0.00  0.00    +0.000 A 
ATOM     13  N   UNL     1      34.520  29.745  49.775  0.00  0.00    +0.000 NA
ATOM     14  C   UNL     1      34.870  29.166  50.949  0.00  0.00    +0.000 A 
ATOM     15  N   UNL     1      36.077  29.373  51.501  0.00  0.00    +0.000 NA
ATOM     16  H   UNL     1      37.932  30.363  51.285  0.00  0.00    +0.000 HD
ATOM     17  H   UNL     1      35.117  31.033  48.168  0.00  0.00    +0.000 HD
ATOM     18  H   UNL     1      34.099  28.534  51.388  0.00  0.00    +0.000 HD
ENDBRANCH   1  11
BRANCH   4  19
ATOM     19  O   UNL     1      40.205  34.051  46.688  0.00  0.00    +0.000 OA
BRANCH  19  20
ATOM     20  C   UNL     1      40.913  35.160  47.130  0.00  0.00    +0.000 A 
ATOM     21  C   UNL     1      40.441  35.665  48.347  0.00  0.00    +0.000 A 
ATOM     22  H   UNL     1      39.653  35.413  49.049  0.00  0.00    +0.000 HD
ATOM     23  C   UNL     1      41.225  36.763  48.680  0.00  0.00    +0.000 A 
ATOM     24  H   UNL     1      41.244  37.458  49.502  0.00  0.00    +0.000 HD
ATOM     25  N   UNL     1      42.124  36.886  47.681  0.00  0.00    +0.000 N 
ATOM     26  H   UNL     1      42.914  37.527  47.452  0.00  0.00    +0.000 HD
ATOM     27  N   UNL     1      41.935  35.944  46.778  0.00  0.00    +0.000 NA
ENDBRANCH  19  20
ENDBRANCH   4  19
TORSDOF 3
