
 OpenBabel03272506083D

 43 46  0  0  0  0  0  0  0  0999 V2000
   34.1810   28.0060   48.9660 C   0  0  0  0  0  0  0  0  0  0  0  0
   34.3770   26.9570   49.2740 H   0  0  0  0  0  0  0  0  0  0  0  0
   34.9900   28.2740   48.2550 H   0  0  0  0  0  0  0  0  0  0  0  0
   32.8450   28.0950   48.2720 C   0  0  0  0  0  0  0  0  0  0  0  0
   32.7780   28.6200   46.9240 C   0  0  0  0  0  0  0  0  0  0  0  0
   31.0480   28.5070   46.6030 S   0  0  0  0  0  0  0  0  0  0  0  0
   30.6190   27.7820   48.2800 C   0  0  0  0  0  0  0  0  0  0  0  0
   31.7040   27.7370   48.7730 N   0  0  0  0  0  0  0  0  0  0  0  0
   29.3510   27.3740   48.8630 N   0  0  0  0  0  0  0  0  0  0  0  0
   28.3640   26.9020   47.9370 C   0  0  0  0  0  0  0  0  0  0  0  0
   26.9720   26.8860   48.4820 C   0  0  0  0  0  0  0  0  0  0  0  0
   26.8570   27.5120   49.8020 N   0  0  0  0  0  0  0  0  0  0  0  0
   27.8460   26.8500   50.6340 C   0  0  0  0  0  0  0  0  0  0  0  0
   29.1750   27.4670   50.2840 C   0  0  0  0  0  0  0  0  0  0  0  0
   33.5930   28.9610   46.3500 H   0  0  0  0  0  0  0  0  0  0  0  0
   28.3830   27.5770   47.0550 H   0  0  0  0  0  0  0  0  0  0  0  0
   28.6360   25.9000   47.5240 H   0  0  0  0  0  0  0  0  0  0  0  0
   26.2160   27.2960   47.7970 H   0  0  0  0  0  0  0  0  0  0  0  0
   26.6850   25.8220   48.6580 H   0  0  0  0  0  0  0  0  0  0  0  0
   27.1580   28.5070   49.6700 H   0  0  0  0  0  0  0  0  0  0  0  0
   27.9240   25.7620   50.4380 H   0  0  0  0  0  0  0  0  0  0  0  0
   27.6020   27.1020   51.6890 H   0  0  0  0  0  0  0  0  0  0  0  0
   29.1200   28.5450   50.5370 H   0  0  0  0  0  0  0  0  0  0  0  0
   29.9660   27.0280   50.8910 H   0  0  0  0  0  0  0  0  0  0  0  0
   34.2350   28.8800   50.1510 C   0  0  0  0  0  0  0  0  0  0  0  0
   34.0800   28.3040   51.1010 H   0  0  0  0  0  0  0  0  0  0  0  0
   33.4640   29.6780   50.1130 H   0  0  0  0  0  0  0  0  0  0  0  0
   37.4740   30.1430   51.4550 C   0  0  0  0  0  0  0  0  0  0  0  0
   38.0530   30.7500   50.3450 C   0  0  0  0  0  0  0  0  0  0  0  0
   37.3210   30.7180   49.1590 C   0  0  0  0  0  0  0  0  0  0  0  0
   36.1090   30.1090   49.1500 N   0  0  0  0  0  0  0  0  0  0  0  0
   35.6000   29.5370   50.2600 C   0  0  0  0  0  0  0  0  0  0  0  0
   36.2710   29.5530   51.3950 N   0  0  0  0  0  0  0  0  0  0  0  0
   38.0260   30.1540   52.3970 H   0  0  0  0  0  0  0  0  0  0  0  0
   39.0200   31.2330   50.3630 H   0  0  0  0  0  0  0  0  0  0  0  0
   37.8060   31.3140   47.9200 C   0  0  0  0  0  0  0  0  0  0  0  0
   38.9270   32.1340   47.8560 C   0  0  0  0  0  0  0  0  0  0  0  0
   39.5520   32.4130   48.7010 H   0  0  0  0  0  0  0  0  0  0  0  0
   39.1230   32.5390   46.5350 C   0  0  0  0  0  0  0  0  0  0  0  0
   39.9460   33.1890   46.2470 H   0  0  0  0  0  0  0  0  0  0  0  0
   38.1130   31.9520   45.8390 N   0  0  0  0  0  0  0  0  0  0  0  0
   38.0500   32.1110   44.8230 H   0  0  0  0  0  0  0  0  0  0  0  0
   37.3730   31.2560   46.6570 N   0  0  0  0  0  0  0  0  0  0  0  0
  1  2  1  0  0  0  0
  1 25  1  0  0  0  0
  3  1  1  0  0  0  0
  4  8  1  0  0  0  0
  4  1  1  0  0  0  0
  5  4  2  0  0  0  0
  6  5  1  0  0  0  0
  6  7  1  0  0  0  0
  7  8  2  0  0  0  0
  7  9  1  0  0  0  0
  9 14  1  0  0  0  0
 10 11  1  0  0  0  0
 10  9  1  0  0  0  0
 11 19  1  0  0  0  0
 11 12  1  0  0  0  0
 12 13  1  0  0  0  0
 13 22  1  0  0  0  0
 14 23  1  0  0  0  0
 14 13  1  0  0  0  0
 14 24  1  0  0  0  0
 15  5  1  0  0  0  0
 16 10  1  0  0  0  0
 17 10  1  0  0  0  0
 18 11  1  0  0  0  0
 20 12  1  0  0  0  0
 21 13  1  0  0  0  0
 25 32  1  0  0  0  0
 25 26  1  0  0  0  0
 27 25  1  0  0  0  0
 28 34  1  0  0  0  0
 29 35  1  0  0  0  0
 29 28  2  0  0  0  0
 30 29  1  0  0  0  0
 31 30  2  0  0  0  0
 31 32  1  0  0  0  0
 32 33  2  0  0  0  0
 33 28  1  0  0  0  0
 36 30  1  0  0  0  0
 37 36  1  0  0  0  0
 37 38  1  0  0  0  0
 39 37  2  0  0  0  0
 40 39  1  0  0  0  0
 41 39  1  0  0  0  0
 41 43  1  0  0  0  0
 42 41  1  0  0  0  0
 43 36  2  0  0  0  0
M  END
>  <minimizedAffinity>
-7.02872038

>  <minimizedRMSD>
1.80136776

$$$$
