
 OpenBabel03272508313D

 31 33  0  0  1  0  0  0  0  0999 V2000
   38.4340   23.5520   34.6000 N   0  0  0  0  0  0  0  0  0  0  0  0
   37.7320   22.4760   33.8720 C   0  0  0  0  0  0  0  0  0  0  0  0
   37.8750   22.5870   32.3980 C   0  0  0  0  0  0  0  0  0  0  0  0
   39.0080   23.4000   32.0510 N   0  0  0  0  0  0  0  0  0  0  0  0
   38.6670   24.7520   32.4800 C   0  0  0  0  0  0  0  0  0  0  0  0
   38.9460   24.7390   33.9610 C   0  0  1  0  0  0  0  0  0  0  0  0
   36.6620   22.6030   34.1480 H   0  0  0  0  0  0  0  0  0  0  0  0
   38.0440   21.5150   34.2950 H   0  0  0  0  0  0  0  0  0  0  0  0
   38.0250   21.5910   31.9170 H   0  0  0  0  0  0  0  0  0  0  0  0
   36.9920   23.0500   31.8890 H   0  0  0  0  0  0  0  0  0  0  0  0
   39.1990   23.3190   31.0390 H   0  0  0  0  0  0  0  0  0  0  0  0
   39.3250   25.5050   32.0010 H   0  0  0  0  0  0  0  0  0  0  0  0
   37.5940   24.9840   32.3540 H   0  0  0  0  0  0  0  0  0  0  0  0
   40.0690   24.6330   34.0350 H   0  0  0  0  0  0  0  0  0  0  0  0
   37.5790   23.6990   36.8990 C   0  0  0  0  0  0  0  0  0  0  0  0
   38.6150   23.4140   35.9960 C   0  0  0  0  0  0  0  0  0  0  0  0
   39.8220   22.9920   36.5290 C   0  0  0  0  0  0  0  0  0  0  0  0
   39.9560   22.8710   37.8860 N   0  0  0  0  0  0  0  0  0  0  0  0
   38.9240   23.1610   38.7130 C   0  0  0  0  0  0  0  0  0  0  0  0
   37.7190   23.5780   38.2390 N   0  0  0  0  0  0  0  0  0  0  0  0
   36.6300   24.0280   36.5450 H   0  0  0  0  0  0  0  0  0  0  0  0
   40.6610   22.7550   35.9040 H   0  0  0  0  0  0  0  0  0  0  0  0
   39.1100   23.0400   39.7650 H   0  0  0  0  0  0  0  0  0  0  0  0
   38.5720   25.9980   34.6320 C   0  0  0  0  0  0  0  0  0  0  0  0
   37.3570   26.6730   34.5120 C   0  0  0  0  0  0  0  0  0  0  0  0
   36.4990   26.4170   33.9330 H   0  0  0  0  0  0  0  0  0  0  0  0
   37.4200   27.8080   35.3070 C   0  0  0  0  0  0  0  0  0  0  0  0
   36.7220   28.6070   35.5150 H   0  0  0  0  0  0  0  0  0  0  0  0
   38.6420   27.7740   35.8640 N   0  0  0  0  0  0  0  0  0  0  0  0
   39.1290   28.4260   36.5330 H   0  0  0  0  0  0  0  0  0  0  0  0
   39.3480   26.7210   35.4870 N   0  0  0  0  0  0  0  0  0  0  0  0
  1 16  1  0  0  0  0
  2  7  1  0  0  0  0
  2  8  1  0  0  0  0
  2  1  1  0  0  0  0
  3  2  1  0  0  0  0
  4  3  1  0  0  0  0
  4  5  1  0  0  0  0
  5  6  1  0  0  0  0
  6 14  1  1  0  0  0
  6  1  1  0  0  0  0
  6 24  1  0  0  0  0
  9  3  1  0  0  0  0
 10  3  1  0  0  0  0
 11  4  1  0  0  0  0
 12  5  1  0  0  0  0
 13  5  1  0  0  0  0
 15 20  1  0  0  0  0
 16 17  1  0  0  0  0
 16 15  2  0  0  0  0
 17 18  2  0  0  0  0
 18 19  1  0  0  0  0
 19 23  1  0  0  0  0
 20 19  2  0  0  0  0
 21 15  1  0  0  0  0
 22 17  1  0  0  0  0
 24 31  2  0  0  0  0
 25 24  1  0  0  0  0
 25 27  2  0  0  0  0
 26 25  1  0  0  0  0
 27 28  1  0  0  0  0
 27 29  1  0  0  0  0
 29 30  1  0  0  0  0
 31 29  1  0  0  0  0
M  END
>  <minimizedAffinity>
-4.52006149

$$$$

 OpenBabel03272508313D

 31 33  0  0  1  0  0  0  0  0999 V2000
   39.5290   23.9090   35.5760 N   0  0  0  0  0  0  0  0  0  0  0  0
   40.5150   23.1620   36.3820 C   0  0  0  0  0  0  0  0  0  0  0  0
   39.9700   22.7120   37.6880 C   0  0  0  0  0  0  0  0  0  0  0  0
   38.5340   22.6900   37.6660 N   0  0  0  0  0  0  0  0  0  0  0  0
   38.1210   24.0850   37.5700 C   0  0  0  0  0  0  0  0  0  0  0  0
   38.2830   24.4060   36.1050 C   0  0  1  0  0  0  0  0  0  0  0  0
   41.3400   23.8860   36.5580 H   0  0  0  0  0  0  0  0  0  0  0  0
   40.9360   22.3660   35.7590 H   0  0  0  0  0  0  0  0  0  0  0  0
   40.3100   21.6810   37.9500 H   0  0  0  0  0  0  0  0  0  0  0  0
   40.2590   23.3640   38.5500 H   0  0  0  0  0  0  0  0  0  0  0  0
   38.1790   22.2070   38.5080 H   0  0  0  0  0  0  0  0  0  0  0  0
   37.0550   24.2110   37.8440 H   0  0  0  0  0  0  0  0  0  0  0  0
   38.7870   24.7690   38.1270 H   0  0  0  0  0  0  0  0  0  0  0  0
   37.4930   23.7830   35.5910 H   0  0  0  0  0  0  0  0  0  0  0  0
   40.8390   25.0340   33.8280 C   0  0  0  0  0  0  0  0  0  0  0  0
   39.8190   24.1510   34.2130 C   0  0  0  0  0  0  0  0  0  0  0  0
   39.1060   23.5260   33.2010 C   0  0  0  0  0  0  0  0  0  0  0  0
   39.4180   23.7870   31.8940 N   0  0  0  0  0  0  0  0  0  0  0  0
   40.4130   24.6490   31.5780 C   0  0  0  0  0  0  0  0  0  0  0  0
   41.1420   25.2870   32.5340 N   0  0  0  0  0  0  0  0  0  0  0  0
   41.4180   25.5420   34.5620 H   0  0  0  0  0  0  0  0  0  0  0  0
   38.3120   22.8370   33.4150 H   0  0  0  0  0  0  0  0  0  0  0  0
   40.5960   24.8000   30.5290 H   0  0  0  0  0  0  0  0  0  0  0  0
   38.0120   25.8200   35.7880 C   0  0  0  0  0  0  0  0  0  0  0  0
   37.1500   26.2990   34.8010 C   0  0  0  0  0  0  0  0  0  0  0  0
   36.5450   25.7520   34.1120 H   0  0  0  0  0  0  0  0  0  0  0  0
   37.1870   27.6850   34.8370 C   0  0  0  0  0  0  0  0  0  0  0  0
   36.6900   28.4550   34.2650 H   0  0  0  0  0  0  0  0  0  0  0  0
   38.0510   27.9820   35.8220 N   0  0  0  0  0  0  0  0  0  0  0  0
   38.3910   28.9020   36.2060 H   0  0  0  0  0  0  0  0  0  0  0  0
   38.5550   26.9070   36.4040 N   0  0  0  0  0  0  0  0  0  0  0  0
  1  6  1  0  0  0  0
  1  2  1  0  0  0  0
  2  7  1  0  0  0  0
  2  3  1  0  0  0  0
  3  9  1  0  0  0  0
  3 10  1  0  0  0  0
  4  3  1  0  0  0  0
  4 11  1  0  0  0  0
  5  4  1  0  0  0  0
  5 12  1  0  0  0  0
  5 13  1  0  0  0  0
  6 14  1  6  0  0  0
  6  5  1  0  0  0  0
  8  2  1  0  0  0  0
 15 16  1  0  0  0  0
 15 21  1  0  0  0  0
 16  1  1  0  0  0  0
 17 22  1  0  0  0  0
 17 16  2  0  0  0  0
 18 17  1  0  0  0  0
 19 18  2  0  0  0  0
 19 20  1  0  0  0  0
 20 15  2  0  0  0  0
 23 19  1  0  0  0  0
 24  6  1  0  0  0  0
 24 31  2  0  0  0  0
 25 27  2  0  0  0  0
 25 24  1  0  0  0  0
 26 25  1  0  0  0  0
 27 29  1  0  0  0  0
 28 27  1  0  0  0  0
 29 30  1  0  0  0  0
 29 31  1  0  0  0  0
M  END
>  <minimizedAffinity>
-4.33831882

$$$$

 OpenBabel03272508313D

 31 33  0  0  1  0  0  0  0  0999 V2000
   40.1900   24.8080   34.9810 N   0  0  0  0  0  0  0  0  0  0  0  0
   41.5540   25.3560   34.8450 C   0  0  0  0  0  0  0  0  0  0  0  0
   42.5900   24.2980   34.7210 C   0  0  0  0  0  0  0  0  0  0  0  0
   42.0080   23.0540   34.3000 N   0  0  0  0  0  0  0  0  0  0  0  0
   41.1780   22.6120   35.4150 C   0  0  0  0  0  0  0  0  0  0  0  0
   39.9150   23.4210   35.2640 C   0  0  1  0  0  0  0  0  0  0  0  0
   41.7230   25.9270   35.7830 H   0  0  0  0  0  0  0  0  0  0  0  0
   41.5490   26.0930   34.0350 H   0  0  0  0  0  0  0  0  0  0  0  0
   43.3730   24.5660   33.9710 H   0  0  0  0  0  0  0  0  0  0  0  0
   43.1340   24.0810   35.6750 H   0  0  0  0  0  0  0  0  0  0  0  0
   42.7560   22.3880   34.0470 H   0  0  0  0  0  0  0  0  0  0  0  0
   40.9240   21.5370   35.3270 H   0  0  0  0  0  0  0  0  0  0  0  0
   41.6100   22.8670   36.3990 H   0  0  0  0  0  0  0  0  0  0  0  0
   39.4430   23.0310   34.3140 H   0  0  0  0  0  0  0  0  0  0  0  0
   38.9330   26.8080   35.6570 C   0  0  0  0  0  0  0  0  0  0  0  0
   39.0930   25.6880   34.8280 C   0  0  0  0  0  0  0  0  0  0  0  0
   38.1310   25.4790   33.8520 C   0  0  0  0  0  0  0  0  0  0  0  0
   37.0850   26.3540   33.7360 N   0  0  0  0  0  0  0  0  0  0  0  0
   36.9780   27.4210   34.5640 C   0  0  0  0  0  0  0  0  0  0  0  0
   37.8960   27.6690   35.5370 N   0  0  0  0  0  0  0  0  0  0  0  0
   39.6410   27.0170   36.4240 H   0  0  0  0  0  0  0  0  0  0  0  0
   38.1840   24.6450   33.1790 H   0  0  0  0  0  0  0  0  0  0  0  0
   36.1280   28.0600   34.4080 H   0  0  0  0  0  0  0  0  0  0  0  0
   38.9540   23.2050   36.3610 C   0  0  0  0  0  0  0  0  0  0  0  0
   39.1630   23.4770   37.7130 C   0  0  0  0  0  0  0  0  0  0  0  0
   40.0270   23.8770   38.1940 H   0  0  0  0  0  0  0  0  0  0  0  0
   38.0100   23.1290   38.4020 C   0  0  0  0  0  0  0  0  0  0  0  0
   37.7290   23.1680   39.4450 H   0  0  0  0  0  0  0  0  0  0  0  0
   37.1680   22.6720   37.4600 N   0  0  0  0  0  0  0  0  0  0  0  0
   36.1850   22.3000   37.5150 H   0  0  0  0  0  0  0  0  0  0  0  0
   37.6930   22.7030   36.2450 N   0  0  0  0  0  0  0  0  0  0  0  0
  1  6  1  0  0  0  0
  2  1  1  0  0  0  0
  2  7  1  0  0  0  0
  3  2  1  0  0  0  0
  3 10  1  0  0  0  0
  4  3  1  0  0  0  0
  4  5  1  0  0  0  0
  5 13  1  0  0  0  0
  6 14  1  6  0  0  0
  6  5  1  0  0  0  0
  6 24  1  0  0  0  0
  8  2  1  0  0  0  0
  9  3  1  0  0  0  0
 11  4  1  0  0  0  0
 12  5  1  0  0  0  0
 15 21  1  0  0  0  0
 16  1  1  0  0  0  0
 16 15  2  0  0  0  0
 17 16  1  0  0  0  0
 18 17  2  0  0  0  0
 18 19  1  0  0  0  0
 19 20  2  0  0  0  0
 20 15  1  0  0  0  0
 22 17  1  0  0  0  0
 23 19  1  0  0  0  0
 24 25  1  0  0  0  0
 25 26  1  0  0  0  0
 25 27  2  0  0  0  0
 27 28  1  0  0  0  0
 29 30  1  0  0  0  0
 29 27  1  0  0  0  0
 31 24  2  0  0  0  0
 31 29  1  0  0  0  0
M  END
>  <minimizedAffinity>
-4.28583241

$$$$

 OpenBabel03272508313D

 31 33  0  0  1  0  0  0  0  0999 V2000
   38.8780   23.2280   34.0980 N   0  0  0  0  0  0  0  0  0  0  0  0
   39.1210   22.3970   32.9010 C   0  0  0  0  0  0  0  0  0  0  0  0
   38.0850   21.3500   32.7060 C   0  0  0  0  0  0  0  0  0  0  0  0
   36.8820   21.6780   33.4190 N   0  0  0  0  0  0  0  0  0  0  0  0
   37.2250   21.5800   34.8330 C   0  0  0  0  0  0  0  0  0  0  0  0
   37.9240   22.8840   35.1220 C   0  0  1  0  0  0  0  0  0  0  0  0
   40.1020   21.9110   33.0920 H   0  0  0  0  0  0  0  0  0  0  0  0
   39.2720   23.0620   32.0450 H   0  0  0  0  0  0  0  0  0  0  0  0
   37.8080   21.2320   31.6310 H   0  0  0  0  0  0  0  0  0  0  0  0
   38.3920   20.3350   33.0620 H   0  0  0  0  0  0  0  0  0  0  0  0
   36.1210   21.0420   33.1290 H   0  0  0  0  0  0  0  0  0  0  0  0
   36.3160   21.5170   35.4650 H   0  0  0  0  0  0  0  0  0  0  0  0
   37.9470   20.7710   35.0440 H   0  0  0  0  0  0  0  0  0  0  0  0
   37.1140   23.6660   35.0230 H   0  0  0  0  0  0  0  0  0  0  0  0
   38.9880   25.6770   34.2560 C   0  0  0  0  0  0  0  0  0  0  0  0
   39.6180   24.4230   34.2480 C   0  0  0  0  0  0  0  0  0  0  0  0
   40.9970   24.4060   34.3920 C   0  0  0  0  0  0  0  0  0  0  0  0
   41.6760   25.5850   34.5350 N   0  0  0  0  0  0  0  0  0  0  0  0
   41.0180   26.7690   34.5360 C   0  0  0  0  0  0  0  0  0  0  0  0
   39.6670   26.8400   34.3980 N   0  0  0  0  0  0  0  0  0  0  0  0
   37.9310   25.7510   34.1480 H   0  0  0  0  0  0  0  0  0  0  0  0
   41.5500   23.4870   34.3960 H   0  0  0  0  0  0  0  0  0  0  0  0
   41.6240   27.6490   34.6530 H   0  0  0  0  0  0  0  0  0  0  0  0
   38.4550   22.9640   36.4960 C   0  0  0  0  0  0  0  0  0  0  0  0
   37.9330   23.7200   37.5450 C   0  0  0  0  0  0  0  0  0  0  0  0
   37.0800   24.3610   37.5540 H   0  0  0  0  0  0  0  0  0  0  0  0
   38.7310   23.5110   38.6610 C   0  0  0  0  0  0  0  0  0  0  0  0
   38.7010   23.8860   39.6740 H   0  0  0  0  0  0  0  0  0  0  0  0
   39.6830   22.6570   38.2500 N   0  0  0  0  0  0  0  0  0  0  0  0
   40.5000   22.2200   38.7500 H   0  0  0  0  0  0  0  0  0  0  0  0
   39.5500   22.3140   36.9790 N   0  0  0  0  0  0  0  0  0  0  0  0
  1 16  1  0  0  0  0
  1  6  1  0  0  0  0
  2  7  1  0  0  0  0
  2  1  1  0  0  0  0
  3  2  1  0  0  0  0
  3 10  1  0  0  0  0
  3  4  1  0  0  0  0
  4  5  1  0  0  0  0
  5 13  1  0  0  0  0
  5  6  1  0  0  0  0
  5 12  1  0  0  0  0
  6 14  1  6  0  0  0
  6 24  1  0  0  0  0
  8  2  1  0  0  0  0
  9  3  1  0  0  0  0
 11  4  1  0  0  0  0
 15 20  1  0  0  0  0
 16 15  2  0  0  0  0
 16 17  1  0  0  0  0
 17 22  1  0  0  0  0
 17 18  2  0  0  0  0
 18 19  1  0  0  0  0
 19 23  1  0  0  0  0
 20 19  2  0  0  0  0
 21 15  1  0  0  0  0
 24 31  2  0  0  0  0
 24 25  1  0  0  0  0
 25 26  1  0  0  0  0
 25 27  2  0  0  0  0
 27 28  1  0  0  0  0
 29 27  1  0  0  0  0
 29 30  1  0  0  0  0
 31 29  1  0  0  0  0
M  END
>  <minimizedAffinity>
-4.27170992

$$$$

 OpenBabel03272508313D

 31 33  0  0  1  0  0  0  0  0999 V2000
   39.1490   24.1630   34.0830 N   0  0  0  0  0  0  0  0  0  0  0  0
   40.1580   24.1480   33.0040 C   0  0  0  0  0  0  0  0  0  0  0  0
   40.3530   22.7970   32.4170 C   0  0  0  0  0  0  0  0  0  0  0  0
   39.2250   21.9500   32.6900 N   0  0  0  0  0  0  0  0  0  0  0  0
   39.2480   21.7190   34.1310 C   0  0  0  0  0  0  0  0  0  0  0  0
   38.6310   22.9700   34.7030 C   0  0  1  0  0  0  0  0  0  0  0  0
   41.1000   24.4740   33.4950 H   0  0  0  0  0  0  0  0  0  0  0  0
   39.9020   24.9310   32.2830 H   0  0  0  0  0  0  0  0  0  0  0  0
   40.4720   22.8370   31.3080 H   0  0  0  0  0  0  0  0  0  0  0  0
   41.2510   22.2570   32.8080 H   0  0  0  0  0  0  0  0  0  0  0  0
   39.2940   21.0860   32.1290 H   0  0  0  0  0  0  0  0  0  0  0  0
   38.6170   20.8520   34.4100 H   0  0  0  0  0  0  0  0  0  0  0  0
   40.2730   21.6480   34.5370 H   0  0  0  0  0  0  0  0  0  0  0  0
   37.5520   22.9290   34.3700 H   0  0  0  0  0  0  0  0  0  0  0  0
   37.3880   25.8740   34.1810 C   0  0  0  0  0  0  0  0  0  0  0  0
   38.6660   25.4140   34.5330 C   0  0  0  0  0  0  0  0  0  0  0  0
   39.4360   26.2370   35.3410 C   0  0  0  0  0  0  0  0  0  0  0  0
   38.9310   27.4400   35.7560 N   0  0  0  0  0  0  0  0  0  0  0  0
   37.6900   27.8360   35.3860 C   0  0  0  0  0  0  0  0  0  0  0  0
   36.8960   27.0650   34.5950 N   0  0  0  0  0  0  0  0  0  0  0  0
   36.7540   25.2840   33.5620 H   0  0  0  0  0  0  0  0  0  0  0  0
   40.4220   25.9550   35.6540 H   0  0  0  0  0  0  0  0  0  0  0  0
   37.3680   28.7930   35.7530 H   0  0  0  0  0  0  0  0  0  0  0  0
   38.6420   22.9990   36.1770 C   0  0  0  0  0  0  0  0  0  0  0  0
   37.5770   23.3480   37.0080 C   0  0  0  0  0  0  0  0  0  0  0  0
   36.5880   23.6480   36.7450 H   0  0  0  0  0  0  0  0  0  0  0  0
   38.0090   23.2430   38.3230 C   0  0  0  0  0  0  0  0  0  0  0  0
   37.5300   23.4130   39.2760 H   0  0  0  0  0  0  0  0  0  0  0  0
   39.2890   22.8440   38.2350 N   0  0  0  0  0  0  0  0  0  0  0  0
   40.0140   22.6370   38.9700 H   0  0  0  0  0  0  0  0  0  0  0  0
   39.6940   22.6910   36.9850 N   0  0  0  0  0  0  0  0  0  0  0  0
  1 16  1  0  0  0  0
  1  6  1  0  0  0  0
  2  7  1  0  0  0  0
  2  1  1  0  0  0  0
  3  4  1  0  0  0  0
  3 10  1  0  0  0  0
  3  2  1  0  0  0  0
  4  5  1  0  0  0  0
  5 12  1  0  0  0  0
  5 13  1  0  0  0  0
  5  6  1  0  0  0  0
  6 14  1  6  0  0  0
  6 24  1  0  0  0  0
  8  2  1  0  0  0  0
  9  3  1  0  0  0  0
 11  4  1  0  0  0  0
 15 16  2  0  0  0  0
 15 20  1  0  0  0  0
 16 17  1  0  0  0  0
 17 22  1  0  0  0  0
 17 18  2  0  0  0  0
 19 23  1  0  0  0  0
 19 18  1  0  0  0  0
 20 19  2  0  0  0  0
 21 15  1  0  0  0  0
 24 31  2  0  0  0  0
 24 25  1  0  0  0  0
 25 27  2  0  0  0  0
 26 25  1  0  0  0  0
 27 28  1  0  0  0  0
 29 27  1  0  0  0  0
 29 30  1  0  0  0  0
 31 29  1  0  0  0  0
M  END
>  <minimizedAffinity>
-4.24324608

$$$$

 OpenBabel03272508313D

 31 33  0  0  1  0  0  0  0  0999 V2000
   38.4370   23.0590   34.3150 N   0  0  0  0  0  0  0  0  0  0  0  0
   37.4170   22.0500   33.9670 C   0  0  0  0  0  0  0  0  0  0  0  0
   36.8020   22.2870   32.6360 C   0  0  0  0  0  0  0  0  0  0  0  0
   37.6390   23.1260   31.8240 N   0  0  0  0  0  0  0  0  0  0  0  0
   37.6210   24.4360   32.4650 C   0  0  0  0  0  0  0  0  0  0  0  0
   38.6090   24.2960   33.5950 C   0  0  1  0  0  0  0  0  0  0  0  0
   36.6400   22.1530   34.7550 H   0  0  0  0  0  0  0  0  0  0  0  0
   37.8570   21.0560   34.1010 H   0  0  0  0  0  0  0  0  0  0  0  0
   36.6450   21.3360   32.0730 H   0  0  0  0  0  0  0  0  0  0  0  0
   35.8040   22.7920   32.6800 H   0  0  0  0  0  0  0  0  0  0  0  0
   37.2900   23.1320   30.8520 H   0  0  0  0  0  0  0  0  0  0  0  0
   37.9800   25.2270   31.7760 H   0  0  0  0  0  0  0  0  0  0  0  0
   36.6430   24.6790   32.9170 H   0  0  0  0  0  0  0  0  0  0  0  0
   39.6090   24.1840   33.0820 H   0  0  0  0  0  0  0  0  0  0  0  0
   40.6160   22.3800   35.2260 C   0  0  0  0  0  0  0  0  0  0  0  0
   39.2910   22.8020   35.4130 C   0  0  0  0  0  0  0  0  0  0  0  0
   38.8530   22.9550   36.7190 C   0  0  0  0  0  0  0  0  0  0  0  0
   39.7110   22.6960   37.7540 N   0  0  0  0  0  0  0  0  0  0  0  0
   40.9820   22.2900   37.5170 C   0  0  0  0  0  0  0  0  0  0  0  0
   41.4580   22.1250   36.2530 N   0  0  0  0  0  0  0  0  0  0  0  0
   41.0060   22.2440   34.2440 H   0  0  0  0  0  0  0  0  0  0  0  0
   37.8550   23.2750   36.9450 H   0  0  0  0  0  0  0  0  0  0  0  0
   41.5910   22.1070   38.3830 H   0  0  0  0  0  0  0  0  0  0  0  0
   38.6800   25.4930   34.4540 C   0  0  0  0  0  0  0  0  0  0  0  0
   37.6120   26.1130   35.1030 C   0  0  0  0  0  0  0  0  0  0  0  0
   36.5780   25.8500   35.1010 H   0  0  0  0  0  0  0  0  0  0  0  0
   38.1130   27.2010   35.8030 C   0  0  0  0  0  0  0  0  0  0  0  0
   37.6560   27.9510   36.4340 H   0  0  0  0  0  0  0  0  0  0  0  0
   39.4330   27.1950   35.5560 N   0  0  0  0  0  0  0  0  0  0  0  0
   40.2120   27.8280   35.8740 H   0  0  0  0  0  0  0  0  0  0  0  0
   39.8020   26.2010   34.7640 N   0  0  0  0  0  0  0  0  0  0  0  0
  1 16  1  0  0  0  0
  2  8  1  0  0  0  0
  2  1  1  0  0  0  0
  2  7  1  0  0  0  0
  3 10  1  0  0  0  0
  3  2  1  0  0  0  0
  4  5  1  0  0  0  0
  4  3  1  0  0  0  0
  5 13  1  0  0  0  0
  5  6  1  0  0  0  0
  6 14  1  6  0  0  0
  6  1  1  0  0  0  0
  6 24  1  0  0  0  0
  9  3  1  0  0  0  0
 11  4  1  0  0  0  0
 12  5  1  0  0  0  0
 15 16  2  0  0  0  0
 15 20  1  0  0  0  0
 16 17  1  0  0  0  0
 17 22  1  0  0  0  0
 17 18  2  0  0  0  0
 19 18  1  0  0  0  0
 19 23  1  0  0  0  0
 20 19  2  0  0  0  0
 21 15  1  0  0  0  0
 24 31  2  0  0  0  0
 24 25  1  0  0  0  0
 25 27  2  0  0  0  0
 26 25  1  0  0  0  0
 27 28  1  0  0  0  0
 29 27  1  0  0  0  0
 29 30  1  0  0  0  0
 31 29  1  0  0  0  0
M  END
>  <minimizedAffinity>
-4.15296698

$$$$

 OpenBabel03272508313D

 31 33  0  0  1  0  0  0  0  0999 V2000
   38.2980   24.8720   34.3600 N   0  0  0  0  0  0  0  0  0  0  0  0
   37.3850   25.7350   33.5820 C   0  0  0  0  0  0  0  0  0  0  0  0
   37.3810   27.1430   34.0540 C   0  0  0  0  0  0  0  0  0  0  0  0
   38.5670   27.4350   34.8110 N   0  0  0  0  0  0  0  0  0  0  0  0
   38.4540   26.6490   36.0340 C   0  0  0  0  0  0  0  0  0  0  0  0
   38.8890   25.2690   35.6130 C   0  0  1  0  0  0  0  0  0  0  0  0
   36.3780   25.2920   33.7390 H   0  0  0  0  0  0  0  0  0  0  0  0
   37.6130   25.6050   32.5180 H   0  0  0  0  0  0  0  0  0  0  0  0
   37.3460   27.8680   33.2050 H   0  0  0  0  0  0  0  0  0  0  0  0
   36.5170   27.3980   34.7170 H   0  0  0  0  0  0  0  0  0  0  0  0
   38.6340   28.4530   34.9740 H   0  0  0  0  0  0  0  0  0  0  0  0
   39.1500   27.0170   36.8150 H   0  0  0  0  0  0  0  0  0  0  0  0
   37.4140   26.5660   36.3960 H   0  0  0  0  0  0  0  0  0  0  0  0
   39.9890   25.3780   35.3800 H   0  0  0  0  0  0  0  0  0  0  0  0
   39.9010   23.2750   33.4020 C   0  0  0  0  0  0  0  0  0  0  0  0
   38.6090   23.5900   33.8500 C   0  0  0  0  0  0  0  0  0  0  0  0
   37.6500   22.5920   33.7710 C   0  0  0  0  0  0  0  0  0  0  0  0
   37.9920   21.3650   33.2710 N   0  0  0  0  0  0  0  0  0  0  0  0
   39.2550   21.1140   32.8520 C   0  0  0  0  0  0  0  0  0  0  0  0
   40.2320   22.0590   32.9090 N   0  0  0  0  0  0  0  0  0  0  0  0
   40.6770   24.0030   33.4380 H   0  0  0  0  0  0  0  0  0  0  0  0
   36.6400   22.7560   34.0940 H   0  0  0  0  0  0  0  0  0  0  0  0
   39.4420   20.1260   32.4730 H   0  0  0  0  0  0  0  0  0  0  0  0
   38.7580   24.2670   36.6880 C   0  0  0  0  0  0  0  0  0  0  0  0
   37.6620   24.0950   37.5330 C   0  0  0  0  0  0  0  0  0  0  0  0
   36.7430   24.6350   37.5620 H   0  0  0  0  0  0  0  0  0  0  0  0
   37.9490   23.0470   38.3960 C   0  0  0  0  0  0  0  0  0  0  0  0
   37.4000   22.5780   39.2000 H   0  0  0  0  0  0  0  0  0  0  0  0
   39.1790   22.6380   38.0460 N   0  0  0  0  0  0  0  0  0  0  0  0
   39.8010   21.8750   38.4220 H   0  0  0  0  0  0  0  0  0  0  0  0
   39.6860   23.3350   37.0430 N   0  0  0  0  0  0  0  0  0  0  0  0
  1  6  1  0  0  0  0
  2  7  1  0  0  0  0
  2  3  1  0  0  0  0
  2  1  1  0  0  0  0
  3 10  1  0  0  0  0
  3  4  1  0  0  0  0
  4 11  1  0  0  0  0
  4  5  1  0  0  0  0
  5 13  1  0  0  0  0
  5 12  1  0  0  0  0
  6 14  1  6  0  0  0
  6  5  1  0  0  0  0
  6 24  1  0  0  0  0
  8  2  1  0  0  0  0
  9  3  1  0  0  0  0
 15 21  1  0  0  0  0
 15 16  1  0  0  0  0
 16  1  1  0  0  0  0
 17 16  2  0  0  0  0
 17 22  1  0  0  0  0
 18 17  1  0  0  0  0
 19 20  1  0  0  0  0
 19 18  2  0  0  0  0
 20 15  2  0  0  0  0
 23 19  1  0  0  0  0
 24 31  2  0  0  0  0
 24 25  1  0  0  0  0
 25 26  1  0  0  0  0
 25 27  2  0  0  0  0
 27 28  1  0  0  0  0
 29 27  1  0  0  0  0
 29 30  1  0  0  0  0
 31 29  1  0  0  0  0
M  END
>  <minimizedAffinity>
-4.14990902

$$$$

 OpenBabel03272508313D

 31 33  0  0  1  0  0  0  0  0999 V2000
   37.0200   24.7850   32.0610 N   0  0  0  0  0  0  0  0  0  0  0  0
   35.7350   24.2820   31.5350 C   0  0  0  0  0  0  0  0  0  0  0  0
   34.9450   25.3320   30.8420 C   0  0  0  0  0  0  0  0  0  0  0  0
   35.7850   26.4270   30.4410 N   0  0  0  0  0  0  0  0  0  0  0  0
   36.2170   27.0640   31.6800 C   0  0  0  0  0  0  0  0  0  0  0  0
   37.3440   26.1860   32.1600 C   0  0  1  0  0  0  0  0  0  0  0  0
   35.1790   23.9380   32.4340 H   0  0  0  0  0  0  0  0  0  0  0  0
   35.9340   23.3860   30.9380 H   0  0  0  0  0  0  0  0  0  0  0  0
   34.4510   24.9430   29.9200 H   0  0  0  0  0  0  0  0  0  0  0  0
   34.1320   25.7770   31.4680 H   0  0  0  0  0  0  0  0  0  0  0  0
   35.2620   27.0540   29.8090 H   0  0  0  0  0  0  0  0  0  0  0  0
   36.6150   28.0820   31.4920 H   0  0  0  0  0  0  0  0  0  0  0  0
   35.4380   27.0510   32.4630 H   0  0  0  0  0  0  0  0  0  0  0  0
   38.1640   26.3370   31.3980 H   0  0  0  0  0  0  0  0  0  0  0  0
   37.7560   23.0180   33.6020 C   0  0  0  0  0  0  0  0  0  0  0  0
   37.9840   23.8440   32.4920 C   0  0  0  0  0  0  0  0  0  0  0  0
   39.1960   23.7000   31.8340 C   0  0  0  0  0  0  0  0  0  0  0  0
   40.1030   22.7780   32.2820 N   0  0  0  0  0  0  0  0  0  0  0  0
   39.8310   22.0060   33.3610 C   0  0  0  0  0  0  0  0  0  0  0  0
   38.6570   22.1090   34.0410 N   0  0  0  0  0  0  0  0  0  0  0  0
   36.8430   23.0860   34.1470 H   0  0  0  0  0  0  0  0  0  0  0  0
   39.4450   24.2950   30.9760 H   0  0  0  0  0  0  0  0  0  0  0  0
   40.5950   21.3070   33.6490 H   0  0  0  0  0  0  0  0  0  0  0  0
   37.8760   26.5930   33.4740 C   0  0  0  0  0  0  0  0  0  0  0  0
   37.1460   26.7580   34.6510 C   0  0  0  0  0  0  0  0  0  0  0  0
   36.1000   26.6250   34.8190 H   0  0  0  0  0  0  0  0  0  0  0  0
   38.0260   27.1460   35.6500 C   0  0  0  0  0  0  0  0  0  0  0  0
   37.9030   27.3800   36.6970 H   0  0  0  0  0  0  0  0  0  0  0  0
   39.2270   27.2000   35.0500 N   0  0  0  0  0  0  0  0  0  0  0  0
   40.1850   27.4470   35.4120 H   0  0  0  0  0  0  0  0  0  0  0  0
   39.1750   26.8800   33.7670 N   0  0  0  0  0  0  0  0  0  0  0  0
  1  6  1  0  0  0  0
  1 16  1  0  0  0  0
  2  1  1  0  0  0  0
  2  7  1  0  0  0  0
  3 10  1  0  0  0  0
  3  2  1  0  0  0  0
  4  3  1  0  0  0  0
  4  5  1  0  0  0  0
  5  6  1  0  0  0  0
  5 13  1  0  0  0  0
  6 14  1  6  0  0  0
  6 24  1  0  0  0  0
  8  2  1  0  0  0  0
  9  3  1  0  0  0  0
 11  4  1  0  0  0  0
 12  5  1  0  0  0  0
 15 20  1  0  0  0  0
 15 21  1  0  0  0  0
 16 15  2  0  0  0  0
 17 18  2  0  0  0  0
 17 16  1  0  0  0  0
 18 19  1  0  0  0  0
 19 23  1  0  0  0  0
 19 20  2  0  0  0  0
 22 17  1  0  0  0  0
 24 31  2  0  0  0  0
 24 25  1  0  0  0  0
 25 26  1  0  0  0  0
 25 27  2  0  0  0  0
 27 28  1  0  0  0  0
 29 30  1  0  0  0  0
 29 27  1  0  0  0  0
 31 29  1  0  0  0  0
M  END
>  <minimizedAffinity>
-4.06131458

$$$$

 OpenBabel03272508313D

 31 33  0  0  1  0  0  0  0  0999 V2000
   40.2720   24.9070   34.6920 N   0  0  0  0  0  0  0  0  0  0  0  0
   41.4410   24.3200   34.0060 C   0  0  0  0  0  0  0  0  0  0  0  0
   42.5380   25.2990   33.7960 C   0  0  0  0  0  0  0  0  0  0  0  0
   42.4100   26.4140   34.6920 N   0  0  0  0  0  0  0  0  0  0  0  0
   41.2110   27.1260   34.2650 C   0  0  0  0  0  0  0  0  0  0  0  0
   40.0860   26.3250   34.8700 C   0  0  1  0  0  0  0  0  0  0  0  0
   41.0500   23.9880   33.0190 H   0  0  0  0  0  0  0  0  0  0  0  0
   41.7310   23.4090   34.5410 H   0  0  0  0  0  0  0  0  0  0  0  0
   43.5420   24.8460   33.9760 H   0  0  0  0  0  0  0  0  0  0  0  0
   42.5700   25.7300   32.7640 H   0  0  0  0  0  0  0  0  0  0  0  0
   43.2690   26.9880   34.6600 H   0  0  0  0  0  0  0  0  0  0  0  0
   41.1800   28.1520   34.6830 H   0  0  0  0  0  0  0  0  0  0  0  0
   41.0680   27.1080   33.1700 H   0  0  0  0  0  0  0  0  0  0  0  0
   40.1940   26.4820   35.9840 H   0  0  0  0  0  0  0  0  0  0  0  0
   38.8980   24.0700   36.5490 C   0  0  0  0  0  0  0  0  0  0  0  0
   39.2820   24.0340   35.2000 C   0  0  0  0  0  0  0  0  0  0  0  0
   38.6510   23.1060   34.3860 C   0  0  0  0  0  0  0  0  0  0  0  0
   37.6980   22.2790   34.9170 N   0  0  0  0  0  0  0  0  0  0  0  0
   37.3650   22.3560   36.2280 C   0  0  0  0  0  0  0  0  0  0  0  0
   37.9550   23.2500   37.0670 N   0  0  0  0  0  0  0  0  0  0  0  0
   39.3490   24.7620   37.2210 H   0  0  0  0  0  0  0  0  0  0  0  0
   38.8890   23.0170   33.3440 H   0  0  0  0  0  0  0  0  0  0  0  0
   36.6080   21.6720   36.5660 H   0  0  0  0  0  0  0  0  0  0  0  0
   38.7500   26.8150   34.4800 C   0  0  0  0  0  0  0  0  0  0  0  0
   37.8260   27.4530   35.3060 C   0  0  0  0  0  0  0  0  0  0  0  0
   37.9060   27.7000   36.3410 H   0  0  0  0  0  0  0  0  0  0  0  0
   36.7040   27.7460   34.5450 C   0  0  0  0  0  0  0  0  0  0  0  0
   35.7620   28.2280   34.7680 H   0  0  0  0  0  0  0  0  0  0  0  0
   36.9880   27.2840   33.3170 N   0  0  0  0  0  0  0  0  0  0  0  0
   36.4370   27.2840   32.4190 H   0  0  0  0  0  0  0  0  0  0  0  0
   38.1870   26.7280   33.2430 N   0  0  0  0  0  0  0  0  0  0  0  0
  1  6  1  0  0  0  0
  1 16  1  0  0  0  0
  2  8  1  0  0  0  0
  2  1  1  0  0  0  0
  3  9  1  0  0  0  0
  3  2  1  0  0  0  0
  3  4  1  0  0  0  0
  5 12  1  0  0  0  0
  5  4  1  0  0  0  0
  5  6  1  0  0  0  0
  6 14  1  1  0  0  0
  7  2  1  0  0  0  0
 10  3  1  0  0  0  0
 11  4  1  0  0  0  0
 13  5  1  0  0  0  0
 15 20  1  0  0  0  0
 15 21  1  0  0  0  0
 16 15  2  0  0  0  0
 17 18  2  0  0  0  0
 17 16  1  0  0  0  0
 18 19  1  0  0  0  0
 19 23  1  0  0  0  0
 19 20  2  0  0  0  0
 22 17  1  0  0  0  0
 24  6  1  0  0  0  0
 24 25  1  0  0  0  0
 25 26  1  0  0  0  0
 27 28  1  0  0  0  0
 27 25  2  0  0  0  0
 29 27  1  0  0  0  0
 30 29  1  0  0  0  0
 31 29  1  0  0  0  0
 31 24  2  0  0  0  0
M  END
>  <minimizedAffinity>
-4.03698826

$$$$
