
 OpenBabel03272510253D

 44 48  0  0  1  0  0  0  0  0999 V2000
   36.1870   30.2430   47.0230 C   0  0  0  0  0  0  0  0  0  0  0  0
   37.0420   30.7670   47.9900 C   0  0  0  0  0  0  0  0  0  0  0  0
   38.0460   31.6540   47.6440 C   0  0  0  0  0  0  0  0  0  0  0  0
   38.1580   31.9900   46.3000 C   0  0  0  0  0  0  0  0  0  0  0  0
   39.0620   32.8340   45.7240 N   0  0  0  0  0  0  0  0  0  0  0  0
   38.7780   32.8380   44.4050 C   0  0  0  0  0  0  0  0  0  0  0  0
   37.7590   32.0490   44.1500 N   0  0  0  0  0  0  0  0  0  0  0  0
   37.3290   31.4890   45.3090 C   0  0  0  0  0  0  0  0  0  0  0  0
   36.3200   30.5940   45.6850 C   0  0  0  0  0  0  0  0  0  0  0  0
   35.3890   29.5460   47.2540 H   0  0  0  0  0  0  0  0  0  0  0  0
   38.7050   32.0560   48.3990 H   0  0  0  0  0  0  0  0  0  0  0  0
   39.8210   33.3660   46.2190 H   0  0  0  0  0  0  0  0  0  0  0  0
   35.6800   30.2130   44.9010 H   0  0  0  0  0  0  0  0  0  0  0  0
   37.4120   30.0700   51.6610 C   0  0  0  0  0  0  0  0  0  0  0  0
   37.7260   30.5360   50.3860 C   0  0  0  0  0  0  0  0  0  0  0  0
   36.8220   30.3310   49.3500 C   0  0  0  0  0  0  0  0  0  0  0  0
   35.6670   29.6760   49.6530 N   0  0  0  0  0  0  0  0  0  0  0  0
   35.3670   29.2290   50.8810 C   0  0  0  0  0  0  0  0  0  0  0  0
   36.2270   29.4240   51.8680 N   0  0  0  0  0  0  0  0  0  0  0  0
   38.1720   30.2720   52.4070 H   0  0  0  0  0  0  0  0  0  0  0  0
   38.6380   31.0440   50.1790 H   0  0  0  0  0  0  0  0  0  0  0  0
   34.4350   28.7160   51.0600 H   0  0  0  0  0  0  0  0  0  0  0  0
   39.5210   33.6100   43.5020 O   0  0  0  0  0  0  0  0  0  0  0  0
   39.8020   31.7230   42.2470 N   0  0  0  0  0  0  0  0  0  0  0  0
   39.5130   33.1690   42.1510 C   0  0  1  0  0  0  0  0  0  0  0  0
   38.2090   33.3430   41.5210 C   0  0  0  0  0  0  0  0  0  0  0  0
   38.2840   32.8670   40.1990 O   0  0  0  0  0  0  0  0  0  0  0  0
   38.7030   31.5790   40.0670 C   0  0  0  0  0  0  0  0  0  0  0  0
   39.9350   31.2690   40.8810 C   0  0  2  0  0  0  0  0  0  0  0  0
   40.7530   31.6730   42.6760 H   0  0  0  0  0  0  0  0  0  0  0  0
   40.2890   33.6630   41.5410 H   0  0  0  0  0  0  0  0  0  0  0  0
   38.0560   34.4570   41.3750 H   0  0  0  0  0  0  0  0  0  0  0  0
   37.2950   32.9610   41.8820 H   0  0  0  0  0  0  0  0  0  0  0  0
   37.9050   30.8720   40.4340 H   0  0  0  0  0  0  0  0  0  0  0  0
   38.9540   31.3950   39.0240 H   0  0  0  0  0  0  0  0  0  0  0  0
   40.8610   31.6530   40.3980 H   0  0  0  0  0  0  0  0  0  0  0  0
   39.9990   29.7650   40.9510 C   0  0  0  0  0  0  0  0  0  0  0  0
   40.7680   28.9410   41.7660 C   0  0  0  0  0  0  0  0  0  0  0  0
   41.4450   29.4270   42.4790 H   0  0  0  0  0  0  0  0  0  0  0  0
   40.4570   27.6230   41.4420 C   0  0  0  0  0  0  0  0  0  0  0  0
   40.9610   26.8230   41.9750 H   0  0  0  0  0  0  0  0  0  0  0  0
   39.5370   27.6610   40.4700 N   0  0  0  0  0  0  0  0  0  0  0  0
   39.1420   26.7870   40.0560 H   0  0  0  0  0  0  0  0  0  0  0  0
   39.2620   28.9310   40.1770 N   0  0  0  0  0  0  0  0  0  0  0  0
  1 10  1  0  0  0  0
  1  2  1  0  0  0  0
  2 16  1  0  0  0  0
  3  2  2  0  0  0  0
  3 11  1  0  0  0  0
  4  3  1  0  0  0  0
  5 12  1  0  0  0  0
  5  4  1  0  0  0  0
  6  5  1  0  0  0  0
  7  6  2  0  0  0  0
  7  8  1  0  0  0  0
  8  9  1  0  0  0  0
  8  4  2  0  0  0  0
  9  1  2  0  0  0  0
 13  9  1  0  0  0  0
 14 19  1  0  0  0  0
 14 20  1  0  0  0  0
 15 14  2  0  0  0  0
 16 17  2  0  0  0  0
 16 15  1  0  0  0  0
 17 18  1  0  0  0  0
 18 22  1  0  0  0  0
 18 19  2  0  0  0  0
 21 15  1  0  0  0  0
 23  6  1  0  0  0  0
 24 30  1  0  0  0  0
 25 31  1  6  0  0  0
 25 24  1  0  0  0  0
 25 23  1  0  0  0  0
 26 33  1  0  0  0  0
 26 25  1  0  0  0  0
 27 26  1  0  0  0  0
 28 27  1  0  0  0  0
 28 34  1  0  0  0  0
 28 29  1  0  0  0  0
 29 36  1  6  0  0  0
 29 37  1  0  0  0  0
 29 24  1  0  0  0  0
 32 26  1  0  0  0  0
 35 28  1  0  0  0  0
 37 38  1  0  0  0  0
 38 39  1  0  0  0  0
 40 38  2  0  0  0  0
 40 41  1  0  0  0  0
 42 40  1  0  0  0  0
 43 42  1  0  0  0  0
 44 42  1  0  0  0  0
 44 37  2  0  0  0  0
M  END
>  <minimizedAffinity>
-5.9053154

>  <minimizedRMSD>
0.587168097

$$$$
