
 OpenBabel03272510253D

 44 48  0  0  1  0  0  0  0  0999 V2000
   35.7790   30.1210   46.9750 C   0  0  0  0  0  0  0  0  0  0  0  0
   36.8200   30.5730   47.7830 C   0  0  0  0  0  0  0  0  0  0  0  0
   37.8670   31.3040   47.2480 C   0  0  0  0  0  0  0  0  0  0  0  0
   37.8280   31.5610   45.8840 C   0  0  0  0  0  0  0  0  0  0  0  0
   38.7380   32.2520   45.1380 N   0  0  0  0  0  0  0  0  0  0  0  0
   38.2720   32.2330   43.8730 C   0  0  0  0  0  0  0  0  0  0  0  0
   37.1380   31.5740   43.8080 N   0  0  0  0  0  0  0  0  0  0  0  0
   36.8110   31.1280   45.0480 C   0  0  0  0  0  0  0  0  0  0  0  0
   35.7630   30.3910   45.6120 C   0  0  0  0  0  0  0  0  0  0  0  0
   34.9420   29.5460   47.3550 H   0  0  0  0  0  0  0  0  0  0  0  0
   38.6710   31.6500   47.8810 H   0  0  0  0  0  0  0  0  0  0  0  0
   39.6190   32.7020   45.4920 H   0  0  0  0  0  0  0  0  0  0  0  0
   34.9760   30.0620   44.9470 H   0  0  0  0  0  0  0  0  0  0  0  0
   37.5630   30.1420   51.4390 C   0  0  0  0  0  0  0  0  0  0  0  0
   37.7410   30.5200   50.1090 C   0  0  0  0  0  0  0  0  0  0  0  0
   36.7440   30.2310   49.1850 C   0  0  0  0  0  0  0  0  0  0  0  0
   35.6370   29.5860   49.6460 N   0  0  0  0  0  0  0  0  0  0  0  0
   35.4680   29.2230   50.9260 C   0  0  0  0  0  0  0  0  0  0  0  0
   36.4170   29.4970   51.8060 N   0  0  0  0  0  0  0  0  0  0  0  0
   38.3880   30.4050   52.0890 H   0  0  0  0  0  0  0  0  0  0  0  0
   38.6190   31.0240   49.7780 H   0  0  0  0  0  0  0  0  0  0  0  0
   34.5680   28.7130   51.2320 H   0  0  0  0  0  0  0  0  0  0  0  0
   38.9690   32.8590   42.8310 O   0  0  0  0  0  0  0  0  0  0  0  0
   39.4520   30.6510   42.5110 N   0  0  0  0  0  0  0  0  0  0  0  0
   39.7150   32.0030   41.9760 C   0  0  1  0  0  0  0  0  0  0  0  0
   39.2480   32.0570   40.5950 C   0  0  0  0  0  0  0  0  0  0  0  0
   40.0250   31.1710   39.8260 O   0  0  0  0  0  0  0  0  0  0  0  0
   40.0460   29.8840   40.2660 C   0  0  0  0  0  0  0  0  0  0  0  0
   40.3050   29.7670   41.7470 C   0  0  2  0  0  0  0  0  0  0  0  0
   39.8340   30.6740   43.4830 H   0  0  0  0  0  0  0  0  0  0  0  0
   40.7980   32.2120   42.0110 H   0  0  0  0  0  0  0  0  0  0  0  0
   39.5460   33.0700   40.1830 H   0  0  0  0  0  0  0  0  0  0  0  0
   38.2600   31.8830   40.2720 H   0  0  0  0  0  0  0  0  0  0  0  0
   39.0450   29.3960   40.0880 H   0  0  0  0  0  0  0  0  0  0  0  0
   40.8480   29.3510   39.7580 H   0  0  0  0  0  0  0  0  0  0  0  0
   41.3810   29.9030   41.9950 H   0  0  0  0  0  0  0  0  0  0  0  0
   39.8830   28.3680   42.1180 C   0  0  0  0  0  0  0  0  0  0  0  0
   39.1650   27.9120   43.2170 C   0  0  0  0  0  0  0  0  0  0  0  0
   38.8380   28.6600   43.9510 H   0  0  0  0  0  0  0  0  0  0  0  0
   39.0400   26.5320   43.0940 C   0  0  0  0  0  0  0  0  0  0  0  0
   38.5040   25.9860   43.8660 H   0  0  0  0  0  0  0  0  0  0  0  0
   39.6610   26.1780   41.9630 N   0  0  0  0  0  0  0  0  0  0  0  0
   39.7030   25.1820   41.6490 H   0  0  0  0  0  0  0  0  0  0  0  0
   40.1630   27.2650   41.3790 N   0  0  0  0  0  0  0  0  0  0  0  0
  1 10  1  0  0  0  0
  1  2  1  0  0  0  0
  2 16  1  0  0  0  0
  3  2  2  0  0  0  0
  3 11  1  0  0  0  0
  4  3  1  0  0  0  0
  5 12  1  0  0  0  0
  5  4  1  0  0  0  0
  6  5  1  0  0  0  0
  7  6  2  0  0  0  0
  7  8  1  0  0  0  0
  8  9  1  0  0  0  0
  8  4  2  0  0  0  0
  9  1  2  0  0  0  0
 13  9  1  0  0  0  0
 14 19  1  0  0  0  0
 14 20  1  0  0  0  0
 15 14  2  0  0  0  0
 16 17  2  0  0  0  0
 16 15  1  0  0  0  0
 17 18  1  0  0  0  0
 18 22  1  0  0  0  0
 18 19  2  0  0  0  0
 21 15  1  0  0  0  0
 23  6  1  0  0  0  0
 24 30  1  0  0  0  0
 25 31  1  1  0  0  0
 25 24  1  0  0  0  0
 25 23  1  0  0  0  0
 26 25  1  0  0  0  0
 27 28  1  0  0  0  0
 27 26  1  0  0  0  0
 28 29  1  0  0  0  0
 29 36  1  1  0  0  0
 29 37  1  0  0  0  0
 29 24  1  0  0  0  0
 32 26  1  0  0  0  0
 33 26  1  0  0  0  0
 34 28  1  0  0  0  0
 35 28  1  0  0  0  0
 37 38  1  0  0  0  0
 38 39  1  0  0  0  0
 40 38  2  0  0  0  0
 40 41  1  0  0  0  0
 42 40  1  0  0  0  0
 43 42  1  0  0  0  0
 44 42  1  0  0  0  0
 44 37  2  0  0  0  0
M  END
>  <minimizedAffinity>
-6.12783909

>  <minimizedRMSD>
1.73555064

$$$$
