
 OpenBabel03272510263D

 44 48  0  0  1  0  0  0  0  0999 V2000
   35.9520   30.1690   46.9800 C   0  0  0  0  0  0  0  0  0  0  0  0
   36.9060   30.7010   47.8440 C   0  0  0  0  0  0  0  0  0  0  0  0
   37.8940   31.5500   47.3750 C   0  0  0  0  0  0  0  0  0  0  0  0
   37.8860   31.8390   46.0160 C   0  0  0  0  0  0  0  0  0  0  0  0
   38.7510   32.6400   45.3290 N   0  0  0  0  0  0  0  0  0  0  0  0
   38.3440   32.6090   44.0430 C   0  0  0  0  0  0  0  0  0  0  0  0
   37.2870   31.8400   43.9120 N   0  0  0  0  0  0  0  0  0  0  0  0
   36.9550   31.3290   45.1250 C   0  0  0  0  0  0  0  0  0  0  0  0
   35.9660   30.4740   45.6240 C   0  0  0  0  0  0  0  0  0  0  0  0
   35.1640   29.5020   47.3080 H   0  0  0  0  0  0  0  0  0  0  0  0
   38.6300   31.9580   48.0510 H   0  0  0  0  0  0  0  0  0  0  0  0
   39.5660   33.1670   45.7320 H   0  0  0  0  0  0  0  0  0  0  0  0
   35.2460   30.0850   44.9170 H   0  0  0  0  0  0  0  0  0  0  0  0
   37.5870   30.1510   51.4960 C   0  0  0  0  0  0  0  0  0  0  0  0
   37.7880   30.5730   50.1830 C   0  0  0  0  0  0  0  0  0  0  0  0
   36.8060   30.3140   49.2330 C   0  0  0  0  0  0  0  0  0  0  0  0
   35.6910   29.6550   49.6540 N   0  0  0  0  0  0  0  0  0  0  0  0
   35.5010   29.2510   50.9180 C   0  0  0  0  0  0  0  0  0  0  0  0
   36.4340   29.4960   51.8230 N   0  0  0  0  0  0  0  0  0  0  0  0
   38.4020   30.3930   52.1690 H   0  0  0  0  0  0  0  0  0  0  0  0
   38.6710   31.0860   49.8820 H   0  0  0  0  0  0  0  0  0  0  0  0
   34.5950   28.7330   51.1920 H   0  0  0  0  0  0  0  0  0  0  0  0
   39.0160   33.3320   43.0490 O   0  0  0  0  0  0  0  0  0  0  0  0
   39.3260   31.1720   42.3780 N   0  0  0  0  0  0  0  0  0  0  0  0
   39.5040   32.5750   41.9490 C   0  0  1  0  0  0  0  0  0  0  0  0
   38.7240   32.7950   40.7370 C   0  0  0  0  0  0  0  0  0  0  0  0
   39.2610   31.9970   39.7090 O   0  0  0  0  0  0  0  0  0  0  0  0
   39.3390   30.6670   39.9850 C   0  0  0  0  0  0  0  0  0  0  0  0
   39.9380   30.3750   41.3380 C   0  0  2  0  0  0  0  0  0  0  0  0
   39.9290   31.0770   43.2250 H   0  0  0  0  0  0  0  0  0  0  0  0
   40.5710   32.7670   41.7450 H   0  0  0  0  0  0  0  0  0  0  0  0
   38.9530   33.8460   40.3800 H   0  0  0  0  0  0  0  0  0  0  0  0
   37.6810   32.6690   40.6440 H   0  0  0  0  0  0  0  0  0  0  0  0
   38.3060   30.2130   40.0000 H   0  0  0  0  0  0  0  0  0  0  0  0
   39.9760   30.1900   39.2430 H   0  0  0  0  0  0  0  0  0  0  0  0
   41.0470   30.4710   41.3320 H   0  0  0  0  0  0  0  0  0  0  0  0
   39.5650   28.9470   41.6410 C   0  0  0  0  0  0  0  0  0  0  0  0
   40.2740   27.9620   42.3190 C   0  0  0  0  0  0  0  0  0  0  0  0
   41.2650   28.2320   42.7070 H   0  0  0  0  0  0  0  0  0  0  0  0
   39.4910   26.8110   42.3300 C   0  0  0  0  0  0  0  0  0  0  0  0
   39.8770   25.9230   42.8190 H   0  0  0  0  0  0  0  0  0  0  0  0
   38.3550   27.1000   41.6820 N   0  0  0  0  0  0  0  0  0  0  0  0
   37.6000   26.3900   41.5570 H   0  0  0  0  0  0  0  0  0  0  0  0
   38.3950   28.3680   41.2720 N   0  0  0  0  0  0  0  0  0  0  0  0
  1 10  1  0  0  0  0
  1  2  1  0  0  0  0
  2 16  1  0  0  0  0
  3  2  2  0  0  0  0
  3 11  1  0  0  0  0
  4  3  1  0  0  0  0
  5 12  1  0  0  0  0
  5  4  1  0  0  0  0
  6  5  1  0  0  0  0
  7  6  2  0  0  0  0
  7  8  1  0  0  0  0
  8  9  1  0  0  0  0
  8  4  2  0  0  0  0
  9  1  2  0  0  0  0
 13  9  1  0  0  0  0
 14 19  1  0  0  0  0
 14 20  1  0  0  0  0
 15 14  2  0  0  0  0
 16 17  2  0  0  0  0
 16 15  1  0  0  0  0
 17 18  1  0  0  0  0
 18 22  1  0  0  0  0
 18 19  2  0  0  0  0
 21 15  1  0  0  0  0
 23  6  1  0  0  0  0
 24 30  1  0  0  0  0
 25 31  1  6  0  0  0
 25 24  1  0  0  0  0
 25 23  1  0  0  0  0
 26 25  1  0  0  0  0
 27 28  1  0  0  0  0
 27 26  1  0  0  0  0
 28 34  1  0  0  0  0
 28 29  1  0  0  0  0
 29 36  1  6  0  0  0
 29 37  1  0  0  0  0
 29 24  1  0  0  0  0
 32 26  1  0  0  0  0
 33 26  1  0  0  0  0
 35 28  1  0  0  0  0
 37 38  1  0  0  0  0
 38 40  2  0  0  0  0
 38 39  1  0  0  0  0
 40 41  1  0  0  0  0
 42 40  1  0  0  0  0
 43 42  1  0  0  0  0
 44 37  2  0  0  0  0
 44 42  1  0  0  0  0
M  END
>  <minimizedAffinity>
-5.7935257

>  <minimizedRMSD>
1.20030499

$$$$
