
 OpenBabel03272504293D

 41 44  0  0  0  0  0  0  0  0999 V2000
   38.1160   25.7030   33.5820 C   0  0  0  0  0  0  0  0  0  0  0  0
   38.0480   26.8800   34.2400 C   0  0  0  0  0  0  0  0  0  0  0  0
   39.0050   27.2490   35.1010 C   0  0  0  0  0  0  0  0  0  0  0  0
   40.0600   26.4180   35.3100 N   0  0  0  0  0  0  0  0  0  0  0  0
   40.1170   25.2620   34.6570 C   0  0  0  0  0  0  0  0  0  0  0  0
   39.1610   24.8870   33.7940 N   0  0  0  0  0  0  0  0  0  0  0  0
   37.2100   27.5450   34.0760 H   0  0  0  0  0  0  0  0  0  0  0  0
   38.9440   28.2000   35.6300 H   0  0  0  0  0  0  0  0  0  0  0  0
   41.2320   23.4590   35.8990 C   0  0  0  0  0  0  0  0  0  0  0  0
   41.2910   24.4680   34.9360 C   0  0  0  0  0  0  0  0  0  0  0  0
   42.4290   24.7920   34.2240 C   0  0  0  0  0  0  0  0  0  0  0  0
   43.5910   24.0890   34.4660 C   0  0  0  0  0  0  0  0  0  0  0  0
   43.6270   23.0780   35.3990 C   0  0  0  0  0  0  0  0  0  0  0  0
   42.4610   22.8320   36.0460 C   0  0  0  0  0  0  0  0  0  0  0  0
   42.4340   25.5790   33.4860 H   0  0  0  0  0  0  0  0  0  0  0  0
   44.4790   24.3580   33.8950 H   0  0  0  0  0  0  0  0  0  0  0  0
   44.5190   22.5150   35.6070 H   0  0  0  0  0  0  0  0  0  0  0  0
   42.4920   22.0230   36.7930 H   0  0  0  0  0  0  0  0  0  0  0  0
   39.8730   23.0280   36.7610 S   0  0  0  0  0  0  0  0  0  0  0  0
   40.6190   22.3040   37.9320 O   0  0  0  0  0  0  0  0  0  0  0  0
   39.1410   21.9900   35.9480 O   0  0  0  0  0  0  0  0  0  0  0  0
   38.6880   23.3400   37.7840 C   0  0  0  0  0  0  0  0  0  0  0  0
   37.3460   22.9360   37.6180 F   0  0  0  0  0  0  0  0  0  0  0  0
   38.2690   24.7450   37.6410 F   0  0  0  0  0  0  0  0  0  0  0  0
   38.9410   23.6470   39.1510 F   0  0  0  0  0  0  0  0  0  0  0  0
   35.4490   25.6950   31.0630 C   0  0  0  0  0  0  0  0  0  0  0  0
   35.1970   24.3200   30.8840 C   0  0  0  0  0  0  0  0  0  0  0  0
   35.9590   23.4260   31.6460 C   0  0  0  0  0  0  0  0  0  0  0  0
   36.8800   23.9430   32.4950 N   0  0  0  0  0  0  0  0  0  0  0  0
   37.0960   25.2820   32.6390 C   0  0  0  0  0  0  0  0  0  0  0  0
   36.3740   26.1420   31.9190 N   0  0  0  0  0  0  0  0  0  0  0  0
   34.8500   26.3860   30.4660 H   0  0  0  0  0  0  0  0  0  0  0  0
   34.4670   23.9250   30.2120 H   0  0  0  0  0  0  0  0  0  0  0  0
   35.8040   21.9800   31.5630 C   0  0  0  0  0  0  0  0  0  0  0  0
   34.9070   21.2400   32.3090 C   0  0  0  0  0  0  0  0  0  0  0  0
   34.1850   21.5390   33.0530 H   0  0  0  0  0  0  0  0  0  0  0  0
   35.0330   19.9090   31.9700 C   0  0  0  0  0  0  0  0  0  0  0  0
   34.5730   18.9750   32.2640 H   0  0  0  0  0  0  0  0  0  0  0  0
   36.0090   19.8670   31.0230 N   0  0  0  0  0  0  0  0  0  0  0  0
   36.4920   19.1480   30.4390 H   0  0  0  0  0  0  0  0  0  0  0  0
   36.4460   21.0950   30.7990 N   0  0  0  0  0  0  0  0  0  0  0  0
  1  6  2  0  0  0  0
  1  2  1  0  0  0  0
  2  3  2  0  0  0  0
  3  4  1  0  0  0  0
  3  8  1  0  0  0  0
  5 10  1  0  0  0  0
  5  4  2  0  0  0  0
  6  5  1  0  0  0  0
  7  2  1  0  0  0  0
  9 14  1  0  0  0  0
  9 19  1  0  0  0  0
 10  9  2  0  0  0  0
 11 12  2  0  0  0  0
 11 10  1  0  0  0  0
 12 13  1  0  0  0  0
 13 17  1  0  0  0  0
 13 14  2  0  0  0  0
 14 18  1  0  0  0  0
 15 11  1  0  0  0  0
 16 12  1  0  0  0  0
 19 22  1  0  0  0  0
 19 20  2  0  0  0  0
 21 19  2  0  0  0  0
 22 25  1  0  0  0  0
 23 22  1  0  0  0  0
 24 22  1  0  0  0  0
 26 31  1  0  0  0  0
 27 26  2  0  0  0  0
 27 28  1  0  0  0  0
 28 29  2  0  0  0  0
 29 30  1  0  0  0  0
 30  1  1  0  0  0  0
 31 30  2  0  0  0  0
 32 26  1  0  0  0  0
 33 27  1  0  0  0  0
 34 28  1  0  0  0  0
 34 35  1  0  0  0  0
 35 36  1  0  0  0  0
 37 38  1  0  0  0  0
 37 35  2  0  0  0  0
 39 37  1  0  0  0  0
 40 39  1  0  0  0  0
 41 39  1  0  0  0  0
 41 34  2  0  0  0  0
M  END
>  <minimizedAffinity>
-6.97621441

$$$$

 OpenBabel03272504293D

 41 44  0  0  0  0  0  0  0  0999 V2000
   36.2940   28.1130   33.1950 C   0  0  0  0  0  0  0  0  0  0  0  0
   36.0360   28.6130   31.9670 C   0  0  0  0  0  0  0  0  0  0  0  0
   35.3490   29.7520   31.8130 C   0  0  0  0  0  0  0  0  0  0  0  0
   34.9090   30.4110   32.9180 N   0  0  0  0  0  0  0  0  0  0  0  0
   35.1690   29.9100   34.1210 C   0  0  0  0  0  0  0  0  0  0  0  0
   35.8560   28.7690   34.2810 N   0  0  0  0  0  0  0  0  0  0  0  0
   36.3850   28.0920   31.0860 H   0  0  0  0  0  0  0  0  0  0  0  0
   35.1430   30.1510   30.8200 H   0  0  0  0  0  0  0  0  0  0  0  0
   33.3510   30.5590   35.6400 C   0  0  0  0  0  0  0  0  0  0  0  0
   34.6750   30.7020   35.2240 C   0  0  0  0  0  0  0  0  0  0  0  0
   35.5720   31.5880   35.7880 C   0  0  0  0  0  0  0  0  0  0  0  0
   35.1530   32.3930   36.8270 C   0  0  0  0  0  0  0  0  0  0  0  0
   33.8640   32.3210   37.3020 C   0  0  0  0  0  0  0  0  0  0  0  0
   33.0570   31.4220   36.6870 C   0  0  0  0  0  0  0  0  0  0  0  0
   36.5890   31.6680   35.4370 H   0  0  0  0  0  0  0  0  0  0  0  0
   35.8730   33.0860   37.2590 H   0  0  0  0  0  0  0  0  0  0  0  0
   33.5110   32.9370   38.1100 H   0  0  0  0  0  0  0  0  0  0  0  0
   32.0260   31.3660   37.0700 H   0  0  0  0  0  0  0  0  0  0  0  0
   32.2490   29.4870   34.9990 S   0  0  0  0  0  0  0  0  0  0  0  0
   30.9730   30.3560   35.2590 O   0  0  0  0  0  0  0  0  0  0  0  0
   32.2060   28.2910   35.9150 O   0  0  0  0  0  0  0  0  0  0  0  0
   31.4740   28.8170   33.7740 C   0  0  0  0  0  0  0  0  0  0  0  0
   30.9890   27.4920   33.7480 F   0  0  0  0  0  0  0  0  0  0  0  0
   32.4340   28.4720   32.7110 F   0  0  0  0  0  0  0  0  0  0  0  0
   30.8050   29.6030   32.7920 F   0  0  0  0  0  0  0  0  0  0  0  0
   38.3030   25.0960   32.6290 C   0  0  0  0  0  0  0  0  0  0  0  0
   38.4310   24.5620   33.9280 C   0  0  0  0  0  0  0  0  0  0  0  0
   37.8130   25.2630   34.9710 C   0  0  0  0  0  0  0  0  0  0  0  0
   37.1420   26.3980   34.6600 N   0  0  0  0  0  0  0  0  0  0  0  0
   37.0410   26.8840   33.3890 C   0  0  0  0  0  0  0  0  0  0  0  0
   37.6250   26.2240   32.3880 N   0  0  0  0  0  0  0  0  0  0  0  0
   38.7880   24.5440   31.8210 H   0  0  0  0  0  0  0  0  0  0  0  0
   38.9630   23.6660   34.1590 H   0  0  0  0  0  0  0  0  0  0  0  0
   37.8640   24.8260   36.3590 C   0  0  0  0  0  0  0  0  0  0  0  0
   37.7250   23.5170   36.7770 C   0  0  0  0  0  0  0  0  0  0  0  0
   37.5620   22.6060   36.2220 H   0  0  0  0  0  0  0  0  0  0  0  0
   37.8270   23.4730   38.1530 C   0  0  0  0  0  0  0  0  0  0  0  0
   37.7870   22.7120   38.9210 H   0  0  0  0  0  0  0  0  0  0  0  0
   38.0260   24.7610   38.5430 N   0  0  0  0  0  0  0  0  0  0  0  0
   38.1660   25.2880   39.4340 H   0  0  0  0  0  0  0  0  0  0  0  0
   38.0450   25.5370   37.4720 N   0  0  0  0  0  0  0  0  0  0  0  0
  1 30  1  0  0  0  0
  1  6  1  0  0  0  0
  2  1  2  0  0  0  0
  3  2  1  0  0  0  0
  3  4  2  0  0  0  0
  4  5  1  0  0  0  0
  5  6  2  0  0  0  0
  5 10  1  0  0  0  0
  7  2  1  0  0  0  0
  8  3  1  0  0  0  0
  9 14  1  0  0  0  0
 10  9  2  0  0  0  0
 10 11  1  0  0  0  0
 11 12  2  0  0  0  0
 12 16  1  0  0  0  0
 12 13  1  0  0  0  0
 13 17  1  0  0  0  0
 14 18  1  0  0  0  0
 14 13  2  0  0  0  0
 15 11  1  0  0  0  0
 19 20  2  0  0  0  0
 19  9  1  0  0  0  0
 19 21  2  0  0  0  0
 22 19  1  0  0  0  0
 23 22  1  0  0  0  0
 24 22  1  0  0  0  0
 25 22  1  0  0  0  0
 26 27  1  0  0  0  0
 27 33  1  0  0  0  0
 27 28  2  0  0  0  0
 28 34  1  0  0  0  0
 29 28  1  0  0  0  0
 30 29  2  0  0  0  0
 31 26  2  0  0  0  0
 31 30  1  0  0  0  0
 32 26  1  0  0  0  0
 34 35  1  0  0  0  0
 34 41  2  0  0  0  0
 35 37  2  0  0  0  0
 36 35  1  0  0  0  0
 37 39  1  0  0  0  0
 37 38  1  0  0  0  0
 39 40  1  0  0  0  0
 41 39  1  0  0  0  0
M  END
>  <minimizedAffinity>
-6.7618866

$$$$

 OpenBabel03272504293D

 41 44  0  0  0  0  0  0  0  0999 V2000
   37.8620   25.6630   32.4660 C   0  0  0  0  0  0  0  0  0  0  0  0
   36.7600   24.9250   32.2140 C   0  0  0  0  0  0  0  0  0  0  0  0
   35.7780   25.3920   31.4330 C   0  0  0  0  0  0  0  0  0  0  0  0
   35.9000   26.6320   30.8890 N   0  0  0  0  0  0  0  0  0  0  0  0
   36.9890   27.3490   31.1440 C   0  0  0  0  0  0  0  0  0  0  0  0
   37.9760   26.8860   31.9260 N   0  0  0  0  0  0  0  0  0  0  0  0
   36.6580   23.9380   32.6440 H   0  0  0  0  0  0  0  0  0  0  0  0
   34.8890   24.7920   31.2330 H   0  0  0  0  0  0  0  0  0  0  0  0
   36.4870   29.7540   31.1430 C   0  0  0  0  0  0  0  0  0  0  0  0
   37.0260   28.6410   30.4970 C   0  0  0  0  0  0  0  0  0  0  0  0
   37.5890   28.6750   29.2360 C   0  0  0  0  0  0  0  0  0  0  0  0
   37.6290   29.8730   28.5550 C   0  0  0  0  0  0  0  0  0  0  0  0
   37.1200   31.0230   29.1130 C   0  0  0  0  0  0  0  0  0  0  0  0
   36.5890   30.8910   30.3540 C   0  0  0  0  0  0  0  0  0  0  0  0
   37.9970   27.7910   28.7710 H   0  0  0  0  0  0  0  0  0  0  0  0
   38.0760   29.8820   27.5620 H   0  0  0  0  0  0  0  0  0  0  0  0
   37.1370   31.9700   28.6040 H   0  0  0  0  0  0  0  0  0  0  0  0
   36.1820   31.8130   30.7990 H   0  0  0  0  0  0  0  0  0  0  0  0
   35.8210   29.7540   32.6700 S   0  0  0  0  0  0  0  0  0  0  0  0
   34.3630   29.3850   32.2350 O   0  0  0  0  0  0  0  0  0  0  0  0
   35.8270   31.1800   33.1580 O   0  0  0  0  0  0  0  0  0  0  0  0
   35.5130   29.0710   34.0800 C   0  0  0  0  0  0  0  0  0  0  0  0
   34.3070   29.2050   34.8010 F   0  0  0  0  0  0  0  0  0  0  0  0
   36.2170   29.8020   35.1480 F   0  0  0  0  0  0  0  0  0  0  0  0
   36.2220   27.9180   34.5230 F   0  0  0  0  0  0  0  0  0  0  0  0
   41.1750   24.7230   33.7320 C   0  0  0  0  0  0  0  0  0  0  0  0
   40.8840   24.2240   35.0170 C   0  0  0  0  0  0  0  0  0  0  0  0
   39.5410   24.2230   35.4140 C   0  0  0  0  0  0  0  0  0  0  0  0
   38.6230   24.7010   34.5400 N   0  0  0  0  0  0  0  0  0  0  0  0
   38.9440   25.1780   33.3030 C   0  0  0  0  0  0  0  0  0  0  0  0
   40.2200   25.1820   32.9150 N   0  0  0  0  0  0  0  0  0  0  0  0
   42.2250   24.7200   33.4290 H   0  0  0  0  0  0  0  0  0  0  0  0
   41.6180   23.8490   35.6970 H   0  0  0  0  0  0  0  0  0  0  0  0
   39.0990   23.7370   36.7130 C   0  0  0  0  0  0  0  0  0  0  0  0
   37.9170   24.1000   37.3300 C   0  0  0  0  0  0  0  0  0  0  0  0
   37.1270   24.7660   37.0160 H   0  0  0  0  0  0  0  0  0  0  0  0
   37.8250   23.4490   38.5420 C   0  0  0  0  0  0  0  0  0  0  0  0
   37.1180   23.4050   39.3610 H   0  0  0  0  0  0  0  0  0  0  0  0
   38.9570   22.7010   38.6390 N   0  0  0  0  0  0  0  0  0  0  0  0
   39.3920   22.0370   39.3180 H   0  0  0  0  0  0  0  0  0  0  0  0
   39.6890   22.8850   37.5530 N   0  0  0  0  0  0  0  0  0  0  0  0
  1 30  1  0  0  0  0
  2  1  1  0  0  0  0
  2  7  1  0  0  0  0
  3  2  2  0  0  0  0
  4  5  2  0  0  0  0
  4  3  1  0  0  0  0
  5  6  1  0  0  0  0
  6  1  2  0  0  0  0
  8  3  1  0  0  0  0
  9 19  1  0  0  0  0
 10  9  1  0  0  0  0
 10  5  1  0  0  0  0
 11 10  2  0  0  0  0
 12 13  2  0  0  0  0
 12 11  1  0  0  0  0
 13 14  1  0  0  0  0
 14 18  1  0  0  0  0
 14  9  2  0  0  0  0
 15 11  1  0  0  0  0
 16 12  1  0  0  0  0
 17 13  1  0  0  0  0
 19 21  2  0  0  0  0
 19 22  1  0  0  0  0
 20 19  2  0  0  0  0
 22 25  1  0  0  0  0
 22 23  1  0  0  0  0
 22 24  1  0  0  0  0
 26 27  1  0  0  0  0
 27 28  2  0  0  0  0
 27 33  1  0  0  0  0
 28 34  1  0  0  0  0
 29 28  1  0  0  0  0
 30 29  2  0  0  0  0
 31 30  1  0  0  0  0
 31 26  2  0  0  0  0
 32 26  1  0  0  0  0
 34 35  1  0  0  0  0
 34 41  2  0  0  0  0
 35 37  2  0  0  0  0
 36 35  1  0  0  0  0
 37 39  1  0  0  0  0
 37 38  1  0  0  0  0
 39 40  1  0  0  0  0
 41 39  1  0  0  0  0
M  END
>  <minimizedAffinity>
-6.7328949

$$$$

 OpenBabel03272504293D

 41 44  0  0  0  0  0  0  0  0999 V2000
   37.4900   27.1980   34.0760 C   0  0  0  0  0  0  0  0  0  0  0  0
   38.5040   27.5050   34.9130 C   0  0  0  0  0  0  0  0  0  0  0  0
   39.4700   26.6190   35.1850 C   0  0  0  0  0  0  0  0  0  0  0  0
   39.4210   25.3900   34.6050 N   0  0  0  0  0  0  0  0  0  0  0  0
   38.4190   25.0990   33.7830 C   0  0  0  0  0  0  0  0  0  0  0  0
   37.4480   25.9830   33.5060 N   0  0  0  0  0  0  0  0  0  0  0  0
   38.5470   28.4810   35.3760 H   0  0  0  0  0  0  0  0  0  0  0  0
   40.2860   26.8720   35.8620 H   0  0  0  0  0  0  0  0  0  0  0  0
   38.2770   22.6580   34.0140 C   0  0  0  0  0  0  0  0  0  0  0  0
   38.4770   23.7760   33.2040 C   0  0  0  0  0  0  0  0  0  0  0  0
   38.7610   23.7140   31.8540 C   0  0  0  0  0  0  0  0  0  0  0  0
   38.8590   22.4780   31.2490 C   0  0  0  0  0  0  0  0  0  0  0  0
   38.6780   21.3200   31.9690 C   0  0  0  0  0  0  0  0  0  0  0  0
   38.4020   21.4820   33.2870 C   0  0  0  0  0  0  0  0  0  0  0  0
   38.9090   24.6030   31.2620 H   0  0  0  0  0  0  0  0  0  0  0  0
   39.0830   22.4480   30.1830 H   0  0  0  0  0  0  0  0  0  0  0  0
   38.7490   20.3440   31.5220 H   0  0  0  0  0  0  0  0  0  0  0  0
   38.2580   20.5530   33.8610 H   0  0  0  0  0  0  0  0  0  0  0  0
   37.9130   22.6960   35.6390 S   0  0  0  0  0  0  0  0  0  0  0  0
   39.2940   22.1650   36.1500 O   0  0  0  0  0  0  0  0  0  0  0  0
   36.8720   21.6340   35.8870 O   0  0  0  0  0  0  0  0  0  0  0  0
   37.7500   23.4530   37.0350 C   0  0  0  0  0  0  0  0  0  0  0  0
   37.5260   24.8380   37.1850 F   0  0  0  0  0  0  0  0  0  0  0  0
   39.0700   23.6110   37.6690 F   0  0  0  0  0  0  0  0  0  0  0  0
   37.3630   22.7630   38.2200 F   0  0  0  0  0  0  0  0  0  0  0  0
   34.8370   29.0520   32.3490 C   0  0  0  0  0  0  0  0  0  0  0  0
   34.4440   30.0010   33.3140 C   0  0  0  0  0  0  0  0  0  0  0  0
   35.1140   29.9760   34.5440 C   0  0  0  0  0  0  0  0  0  0  0  0
   36.0840   29.0460   34.7180 N   0  0  0  0  0  0  0  0  0  0  0  0
   36.4350   28.1420   33.7580 C   0  0  0  0  0  0  0  0  0  0  0  0
   35.8050   28.1580   32.5830 N   0  0  0  0  0  0  0  0  0  0  0  0
   34.3110   29.0780   31.3920 H   0  0  0  0  0  0  0  0  0  0  0  0
   33.6780   30.7290   33.1640 H   0  0  0  0  0  0  0  0  0  0  0  0
   34.8110   30.8970   35.6300 C   0  0  0  0  0  0  0  0  0  0  0  0
   33.5450   31.1420   36.1250 C   0  0  0  0  0  0  0  0  0  0  0  0
   32.5820   30.7420   35.8450 H   0  0  0  0  0  0  0  0  0  0  0  0
   33.6330   32.0650   37.1460 C   0  0  0  0  0  0  0  0  0  0  0  0
   32.9470   32.5610   37.8210 H   0  0  0  0  0  0  0  0  0  0  0  0
   34.9560   32.3650   37.2500 N   0  0  0  0  0  0  0  0  0  0  0  0
   35.5690   32.9790   37.8330 H   0  0  0  0  0  0  0  0  0  0  0  0
   35.6280   31.6660   36.3510 N   0  0  0  0  0  0  0  0  0  0  0  0
  1  2  1  0  0  0  0
  2  3  2  0  0  0  0
  2  7  1  0  0  0  0
  3  8  1  0  0  0  0
  4  3  1  0  0  0  0
  5  4  2  0  0  0  0
  6  5  1  0  0  0  0
  6  1  2  0  0  0  0
  9 19  1  0  0  0  0
 10  5  1  0  0  0  0
 10  9  2  0  0  0  0
 11 10  1  0  0  0  0
 12 11  2  0  0  0  0
 12 13  1  0  0  0  0
 13 14  2  0  0  0  0
 14 18  1  0  0  0  0
 14  9  1  0  0  0  0
 15 11  1  0  0  0  0
 16 12  1  0  0  0  0
 17 13  1  0  0  0  0
 19 21  2  0  0  0  0
 19 20  2  0  0  0  0
 19 22  1  0  0  0  0
 22 23  1  0  0  0  0
 22 24  1  0  0  0  0
 22 25  1  0  0  0  0
 26 31  2  0  0  0  0
 26 27  1  0  0  0  0
 27 28  2  0  0  0  0
 28 29  1  0  0  0  0
 28 34  1  0  0  0  0
 30  1  1  0  0  0  0
 30 29  2  0  0  0  0
 31 30  1  0  0  0  0
 32 26  1  0  0  0  0
 33 27  1  0  0  0  0
 34 35  1  0  0  0  0
 34 41  2  0  0  0  0
 35 37  2  0  0  0  0
 36 35  1  0  0  0  0
 37 39  1  0  0  0  0
 37 38  1  0  0  0  0
 39 40  1  0  0  0  0
 41 39  1  0  0  0  0
M  END
>  <minimizedAffinity>
-6.52912235

$$$$

 OpenBabel03272504293D

 41 44  0  0  0  0  0  0  0  0999 V2000
   36.2460   28.3460   33.1900 C   0  0  0  0  0  0  0  0  0  0  0  0
   35.9260   28.8330   31.9710 C   0  0  0  0  0  0  0  0  0  0  0  0
   35.1690   29.9290   31.8400 C   0  0  0  0  0  0  0  0  0  0  0  0
   34.7180   30.5570   32.9580 N   0  0  0  0  0  0  0  0  0  0  0  0
   35.0390   30.0690   34.1520 C   0  0  0  0  0  0  0  0  0  0  0  0
   35.7970   28.9710   34.2890 N   0  0  0  0  0  0  0  0  0  0  0  0
   36.2830   28.3370   31.0790 H   0  0  0  0  0  0  0  0  0  0  0  0
   34.9130   30.3170   30.8540 H   0  0  0  0  0  0  0  0  0  0  0  0
   33.2180   30.6170   35.7070 C   0  0  0  0  0  0  0  0  0  0  0  0
   34.5260   30.8270   35.2710 C   0  0  0  0  0  0  0  0  0  0  0  0
   35.3900   31.7490   35.8290 C   0  0  0  0  0  0  0  0  0  0  0  0
   34.9500   32.5240   36.8820 C   0  0  0  0  0  0  0  0  0  0  0  0
   33.6740   32.3870   37.3780 C   0  0  0  0  0  0  0  0  0  0  0  0
   32.9010   31.4560   36.7670 C   0  0  0  0  0  0  0  0  0  0  0  0
   36.3960   31.8810   35.4630 H   0  0  0  0  0  0  0  0  0  0  0  0
   35.6450   33.2460   37.3090 H   0  0  0  0  0  0  0  0  0  0  0  0
   33.3060   32.9780   38.1970 H   0  0  0  0  0  0  0  0  0  0  0  0
   31.8800   31.3480   37.1660 H   0  0  0  0  0  0  0  0  0  0  0  0
   32.1570   29.5000   35.0740 S   0  0  0  0  0  0  0  0  0  0  0  0
   30.8440   30.2960   35.3830 O   0  0  0  0  0  0  0  0  0  0  0  0
   32.2010   28.2870   35.9670 O   0  0  0  0  0  0  0  0  0  0  0  0
   31.3860   28.8130   33.8560 C   0  0  0  0  0  0  0  0  0  0  0  0
   30.9270   27.4780   33.8370 F   0  0  0  0  0  0  0  0  0  0  0  0
   32.3450   28.4840   32.7870 F   0  0  0  0  0  0  0  0  0  0  0  0
   30.6950   29.5820   32.8780 F   0  0  0  0  0  0  0  0  0  0  0  0
   38.9000   26.0320   34.2180 C   0  0  0  0  0  0  0  0  0  0  0  0
   38.5240   24.8300   33.5860 C   0  0  0  0  0  0  0  0  0  0  0  0
   37.3560   24.8520   32.8130 C   0  0  0  0  0  0  0  0  0  0  0  0
   36.6740   26.0200   32.7310 N   0  0  0  0  0  0  0  0  0  0  0  0
   37.0700   27.1640   33.3600 C   0  0  0  0  0  0  0  0  0  0  0  0
   38.1810   27.1540   34.0970 N   0  0  0  0  0  0  0  0  0  0  0  0
   39.8120   26.0070   34.8190 H   0  0  0  0  0  0  0  0  0  0  0  0
   39.0720   23.9160   33.6580 H   0  0  0  0  0  0  0  0  0  0  0  0
   36.8520   23.6840   32.1050 C   0  0  0  0  0  0  0  0  0  0  0  0
   37.5950   22.5550   31.8190 C   0  0  0  0  0  0  0  0  0  0  0  0
   38.6230   22.3070   32.0350 H   0  0  0  0  0  0  0  0  0  0  0  0
   36.7990   21.6540   31.1420 C   0  0  0  0  0  0  0  0  0  0  0  0
   36.9150   20.6650   30.7180 H   0  0  0  0  0  0  0  0  0  0  0  0
   35.5850   22.2560   31.0310 N   0  0  0  0  0  0  0  0  0  0  0  0
   34.6450   22.0380   30.6270 H   0  0  0  0  0  0  0  0  0  0  0  0
   35.6390   23.4470   31.6040 N   0  0  0  0  0  0  0  0  0  0  0  0
  1 30  1  0  0  0  0
  1  6  1  0  0  0  0
  2  1  2  0  0  0  0
  3  2  1  0  0  0  0
  3  4  2  0  0  0  0
  4  5  1  0  0  0  0
  5  6  2  0  0  0  0
  5 10  1  0  0  0  0
  7  2  1  0  0  0  0
  8  3  1  0  0  0  0
  9 14  1  0  0  0  0
 10  9  2  0  0  0  0
 10 11  1  0  0  0  0
 11 12  2  0  0  0  0
 12 16  1  0  0  0  0
 12 13  1  0  0  0  0
 13 17  1  0  0  0  0
 14 18  1  0  0  0  0
 14 13  2  0  0  0  0
 15 11  1  0  0  0  0
 19 20  2  0  0  0  0
 19  9  1  0  0  0  0
 19 21  2  0  0  0  0
 22 19  1  0  0  0  0
 23 22  1  0  0  0  0
 24 22  1  0  0  0  0
 25 22  1  0  0  0  0
 26 32  1  0  0  0  0
 27 33  1  0  0  0  0
 27 26  2  0  0  0  0
 28 27  1  0  0  0  0
 29 28  2  0  0  0  0
 29 30  1  0  0  0  0
 30 31  2  0  0  0  0
 31 26  1  0  0  0  0
 34 28  1  0  0  0  0
 35 36  1  0  0  0  0
 35 34  1  0  0  0  0
 37 35  2  0  0  0  0
 38 37  1  0  0  0  0
 39 37  1  0  0  0  0
 39 41  1  0  0  0  0
 40 39  1  0  0  0  0
 41 34  2  0  0  0  0
M  END
>  <minimizedAffinity>
-6.49572515

$$$$

 OpenBabel03272504293D

 41 44  0  0  0  0  0  0  0  0999 V2000
   35.1170   29.3280   32.3270 C   0  0  0  0  0  0  0  0  0  0  0  0
   35.8490   29.5730   31.2190 C   0  0  0  0  0  0  0  0  0  0  0  0
   37.0570   29.0200   31.0510 C   0  0  0  0  0  0  0  0  0  0  0  0
   37.5470   28.1990   32.0170 N   0  0  0  0  0  0  0  0  0  0  0  0
   36.8180   27.9660   33.1030 C   0  0  0  0  0  0  0  0  0  0  0  0
   35.6080   28.5170   33.2770 N   0  0  0  0  0  0  0  0  0  0  0  0
   35.4630   30.2250   30.4470 H   0  0  0  0  0  0  0  0  0  0  0  0
   37.6440   29.2220   30.1540 H   0  0  0  0  0  0  0  0  0  0  0  0
   37.5580   25.7100   33.7350 C   0  0  0  0  0  0  0  0  0  0  0  0
   37.4240   27.0620   34.0540 C   0  0  0  0  0  0  0  0  0  0  0  0
   37.8170   27.6170   35.2560 C   0  0  0  0  0  0  0  0  0  0  0  0
   38.3770   26.8000   36.2170 C   0  0  0  0  0  0  0  0  0  0  0  0
   38.5470   25.4540   35.9910 C   0  0  0  0  0  0  0  0  0  0  0  0
   38.1320   25.0020   34.7820 C   0  0  0  0  0  0  0  0  0  0  0  0
   37.6980   28.6680   35.4640 H   0  0  0  0  0  0  0  0  0  0  0  0
   38.6810   27.2550   37.1590 H   0  0  0  0  0  0  0  0  0  0  0  0
   38.9800   24.7950   36.7230 H   0  0  0  0  0  0  0  0  0  0  0  0
   38.2690   23.9240   34.6040 H   0  0  0  0  0  0  0  0  0  0  0  0
   37.1160   25.0110   32.2900 S   0  0  0  0  0  0  0  0  0  0  0  0
   37.0580   23.5350   32.8070 O   0  0  0  0  0  0  0  0  0  0  0  0
   38.2890   25.1440   31.3530 O   0  0  0  0  0  0  0  0  0  0  0  0
   36.0350   24.6070   31.1860 C   0  0  0  0  0  0  0  0  0  0  0  0
   35.2800   25.5180   30.4170 F   0  0  0  0  0  0  0  0  0  0  0  0
   34.7970   24.1580   31.8460 F   0  0  0  0  0  0  0  0  0  0  0  0
   36.0540   23.3310   30.5520 F   0  0  0  0  0  0  0  0  0  0  0  0
   32.0300   31.2670   31.9140 C   0  0  0  0  0  0  0  0  0  0  0  0
   31.2910   30.9200   33.0630 C   0  0  0  0  0  0  0  0  0  0  0  0
   31.8850   30.0200   33.9570 C   0  0  0  0  0  0  0  0  0  0  0  0
   33.1190   29.5500   33.6560 N   0  0  0  0  0  0  0  0  0  0  0  0
   33.8030   29.9090   32.5310 C   0  0  0  0  0  0  0  0  0  0  0  0
   33.2470   30.7650   31.6730 N   0  0  0  0  0  0  0  0  0  0  0  0
   31.5610   31.9690   31.2210 H   0  0  0  0  0  0  0  0  0  0  0  0
   30.3190   31.2990   33.2890 H   0  0  0  0  0  0  0  0  0  0  0  0
   31.2360   29.5760   35.1830 C   0  0  0  0  0  0  0  0  0  0  0  0
   30.5780   28.3700   35.3320 C   0  0  0  0  0  0  0  0  0  0  0  0
   30.4130   27.5600   34.6390 H   0  0  0  0  0  0  0  0  0  0  0  0
   30.0880   28.2840   36.6190 C   0  0  0  0  0  0  0  0  0  0  0  0
   29.5250   27.5660   37.2010 H   0  0  0  0  0  0  0  0  0  0  0  0
   30.4590   29.4440   37.2270 N   0  0  0  0  0  0  0  0  0  0  0  0
   30.3600   29.8940   38.1640 H   0  0  0  0  0  0  0  0  0  0  0  0
   31.1320   30.1860   36.3640 N   0  0  0  0  0  0  0  0  0  0  0  0
  1 30  1  0  0  0  0
  1  6  1  0  0  0  0
  2  1  2  0  0  0  0
  3  2  1  0  0  0  0
  3  4  2  0  0  0  0
  4  5  1  0  0  0  0
  5  6  2  0  0  0  0
  5 10  1  0  0  0  0
  7  2  1  0  0  0  0
  8  3  1  0  0  0  0
  9 10  2  0  0  0  0
  9 14  1  0  0  0  0
 10 11  1  0  0  0  0
 11 15  1  0  0  0  0
 11 12  2  0  0  0  0
 12 16  1  0  0  0  0
 13 12  1  0  0  0  0
 13 17  1  0  0  0  0
 14 13  2  0  0  0  0
 18 14  1  0  0  0  0
 19 20  2  0  0  0  0
 19  9  1  0  0  0  0
 21 19  2  0  0  0  0
 22 24  1  0  0  0  0
 22 19  1  0  0  0  0
 23 22  1  0  0  0  0
 25 22  1  0  0  0  0
 26 27  1  0  0  0  0
 27 33  1  0  0  0  0
 27 28  2  0  0  0  0
 28 34  1  0  0  0  0
 29 28  1  0  0  0  0
 30 29  2  0  0  0  0
 31 26  2  0  0  0  0
 31 30  1  0  0  0  0
 32 26  1  0  0  0  0
 34 35  1  0  0  0  0
 34 41  2  0  0  0  0
 35 37  2  0  0  0  0
 36 35  1  0  0  0  0
 37 38  1  0  0  0  0
 37 39  1  0  0  0  0
 39 40  1  0  0  0  0
 41 39  1  0  0  0  0
M  END
>  <minimizedAffinity>
-6.47369814

$$$$

 OpenBabel03272504293D

 41 44  0  0  0  0  0  0  0  0999 V2000
   35.9560   28.4870   32.6650 C   0  0  0  0  0  0  0  0  0  0  0  0
   35.6900   29.1710   31.5310 C   0  0  0  0  0  0  0  0  0  0  0  0
   35.0640   30.3540   31.5660 C   0  0  0  0  0  0  0  0  0  0  0  0
   34.6930   30.8680   32.7680 N   0  0  0  0  0  0  0  0  0  0  0  0
   34.9600   30.1870   33.8770 C   0  0  0  0  0  0  0  0  0  0  0  0
   35.5870   29.0020   33.8480 N   0  0  0  0  0  0  0  0  0  0  0  0
   35.9840   28.7650   30.5720 H   0  0  0  0  0  0  0  0  0  0  0  0
   34.8510   30.9010   30.6480 H   0  0  0  0  0  0  0  0  0  0  0  0
   33.2730   30.5830   35.6190 C   0  0  0  0  0  0  0  0  0  0  0  0
   34.5430   30.8360   35.1000 C   0  0  0  0  0  0  0  0  0  0  0  0
   35.4520   31.7060   35.6690 C   0  0  0  0  0  0  0  0  0  0  0  0
   35.1030   32.3780   36.8210 C   0  0  0  0  0  0  0  0  0  0  0  0
   33.8710   32.1920   37.4030 C   0  0  0  0  0  0  0  0  0  0  0  0
   33.0460   31.3190   36.7740 C   0  0  0  0  0  0  0  0  0  0  0  0
   36.4270   31.8730   35.2360 H   0  0  0  0  0  0  0  0  0  0  0  0
   35.8330   33.0600   37.2560 H   0  0  0  0  0  0  0  0  0  0  0  0
   33.5720   32.7040   38.3010 H   0  0  0  0  0  0  0  0  0  0  0  0
   32.0600   31.1720   37.2420 H   0  0  0  0  0  0  0  0  0  0  0  0
   32.1590   29.5260   34.9720 S   0  0  0  0  0  0  0  0  0  0  0  0
   30.9050   30.4440   35.1560 O   0  0  0  0  0  0  0  0  0  0  0  0
   32.0440   28.3630   35.9240 O   0  0  0  0  0  0  0  0  0  0  0  0
   31.4070   28.8410   33.7410 C   0  0  0  0  0  0  0  0  0  0  0  0
   31.0370   27.4810   33.6720 F   0  0  0  0  0  0  0  0  0  0  0  0
   32.3600   28.6240   32.6390 F   0  0  0  0  0  0  0  0  0  0  0  0
   30.6430   29.6040   32.8130 F   0  0  0  0  0  0  0  0  0  0  0  0
   36.7870   24.9520   32.1430 C   0  0  0  0  0  0  0  0  0  0  0  0
   38.0720   24.8500   32.7130 C   0  0  0  0  0  0  0  0  0  0  0  0
   38.6200   26.0130   33.2690 C   0  0  0  0  0  0  0  0  0  0  0  0
   37.8810   27.1470   33.2180 N   0  0  0  0  0  0  0  0  0  0  0  0
   36.6390   27.2070   32.6550 C   0  0  0  0  0  0  0  0  0  0  0  0
   36.1080   26.1050   32.1240 N   0  0  0  0  0  0  0  0  0  0  0  0
   36.3670   24.0410   31.7120 H   0  0  0  0  0  0  0  0  0  0  0  0
   38.6440   23.9490   32.7480 H   0  0  0  0  0  0  0  0  0  0  0  0
   39.9360   26.0510   33.8900 C   0  0  0  0  0  0  0  0  0  0  0  0
   40.6530   24.9370   34.2850 C   0  0  0  0  0  0  0  0  0  0  0  0
   40.4200   23.8850   34.2260 H   0  0  0  0  0  0  0  0  0  0  0  0
   41.8520   25.3460   34.8310 C   0  0  0  0  0  0  0  0  0  0  0  0
   42.7210   24.8710   35.2670 H   0  0  0  0  0  0  0  0  0  0  0  0
   41.8380   26.7050   34.7590 N   0  0  0  0  0  0  0  0  0  0  0  0
   42.4640   27.5010   35.0150 H   0  0  0  0  0  0  0  0  0  0  0  0
   40.7040   27.0950   34.2020 N   0  0  0  0  0  0  0  0  0  0  0  0
  1  6  1  0  0  0  0
  2  3  1  0  0  0  0
  2  1  2  0  0  0  0
  3  4  2  0  0  0  0
  4  5  1  0  0  0  0
  5 10  1  0  0  0  0
  6  5  2  0  0  0  0
  7  2  1  0  0  0  0
  8  3  1  0  0  0  0
  9 14  1  0  0  0  0
 10  9  2  0  0  0  0
 10 11  1  0  0  0  0
 11 12  2  0  0  0  0
 12 16  1  0  0  0  0
 12 13  1  0  0  0  0
 13 17  1  0  0  0  0
 14 18  1  0  0  0  0
 14 13  2  0  0  0  0
 15 11  1  0  0  0  0
 19 20  2  0  0  0  0
 19  9  1  0  0  0  0
 19 21  2  0  0  0  0
 22 19  1  0  0  0  0
 23 22  1  0  0  0  0
 24 22  1  0  0  0  0
 25 22  1  0  0  0  0
 26 27  1  0  0  0  0
 27 33  1  0  0  0  0
 27 28  2  0  0  0  0
 28 34  1  0  0  0  0
 29 28  1  0  0  0  0
 30  1  1  0  0  0  0
 30 29  2  0  0  0  0
 31 26  2  0  0  0  0
 31 30  1  0  0  0  0
 32 26  1  0  0  0  0
 34 41  2  0  0  0  0
 34 35  1  0  0  0  0
 35 37  2  0  0  0  0
 36 35  1  0  0  0  0
 37 38  1  0  0  0  0
 39 37  1  0  0  0  0
 39 40  1  0  0  0  0
 41 39  1  0  0  0  0
M  END
>  <minimizedAffinity>
-6.45541

$$$$

 OpenBabel03272504293D

 41 44  0  0  0  0  0  0  0  0999 V2000
   35.9990   28.9230   32.5450 C   0  0  0  0  0  0  0  0  0  0  0  0
   35.6440   29.6520   31.4640 C   0  0  0  0  0  0  0  0  0  0  0  0
   34.6470   30.5420   31.5260 C   0  0  0  0  0  0  0  0  0  0  0  0
   33.9850   30.7100   32.7020 N   0  0  0  0  0  0  0  0  0  0  0  0
   34.3420   29.9880   33.7580 C   0  0  0  0  0  0  0  0  0  0  0  0
   35.3410   29.0940   33.7010 N   0  0  0  0  0  0  0  0  0  0  0  0
   36.1690   29.5220   30.5270 H   0  0  0  0  0  0  0  0  0  0  0  0
   34.3640   31.1270   30.6510 H   0  0  0  0  0  0  0  0  0  0  0  0
   34.0030   31.2810   35.8200 C   0  0  0  0  0  0  0  0  0  0  0  0
   33.5880   30.2630   34.9600 C   0  0  0  0  0  0  0  0  0  0  0  0
   32.4910   29.4560   35.1890 C   0  0  0  0  0  0  0  0  0  0  0  0
   31.7460   29.6500   36.3340 C   0  0  0  0  0  0  0  0  0  0  0  0
   32.0820   30.6290   37.2390 C   0  0  0  0  0  0  0  0  0  0  0  0
   33.1730   31.3710   36.9290 C   0  0  0  0  0  0  0  0  0  0  0  0
   32.2020   28.6790   34.4980 H   0  0  0  0  0  0  0  0  0  0  0  0
   30.8850   29.0040   36.4980 H   0  0  0  0  0  0  0  0  0  0  0  0
   31.5200   30.8020   38.1400 H   0  0  0  0  0  0  0  0  0  0  0  0
   33.4400   32.1550   37.6560 H   0  0  0  0  0  0  0  0  0  0  0  0
   35.3070   32.2860   35.5660 S   0  0  0  0  0  0  0  0  0  0  0  0
   36.4100   31.2800   36.0360 O   0  0  0  0  0  0  0  0  0  0  0  0
   35.2140   33.4000   36.5770 O   0  0  0  0  0  0  0  0  0  0  0  0
   36.4070   32.9680   34.6310 C   0  0  0  0  0  0  0  0  0  0  0  0
   37.5310   33.6860   35.0920 F   0  0  0  0  0  0  0  0  0  0  0  0
   35.8650   34.2120   34.0570 F   0  0  0  0  0  0  0  0  0  0  0  0
   36.6150   32.5440   33.2870 F   0  0  0  0  0  0  0  0  0  0  0  0
   38.9590   27.0010   31.5440 C   0  0  0  0  0  0  0  0  0  0  0  0
   39.0800   26.0570   32.5830 C   0  0  0  0  0  0  0  0  0  0  0  0
   38.1270   26.1090   33.6080 C   0  0  0  0  0  0  0  0  0  0  0  0
   37.1640   27.0580   33.5290 N   0  0  0  0  0  0  0  0  0  0  0  0
   37.0810   27.9560   32.5060 C   0  0  0  0  0  0  0  0  0  0  0  0
   37.9820   27.9150   31.5240 N   0  0  0  0  0  0  0  0  0  0  0  0
   39.7060   26.9540   30.7470 H   0  0  0  0  0  0  0  0  0  0  0  0
   39.8450   25.3130   32.6330 H   0  0  0  0  0  0  0  0  0  0  0  0
   38.1320   25.1950   34.7420 C   0  0  0  0  0  0  0  0  0  0  0  0
   38.1080   25.5850   36.0670 C   0  0  0  0  0  0  0  0  0  0  0  0
   38.0810   26.5640   36.5200 H   0  0  0  0  0  0  0  0  0  0  0  0
   38.1210   24.4600   36.8660 C   0  0  0  0  0  0  0  0  0  0  0  0
   38.1120   24.2470   37.9270 H   0  0  0  0  0  0  0  0  0  0  0  0
   38.1540   23.4060   36.0060 N   0  0  0  0  0  0  0  0  0  0  0  0
   38.1750   22.3630   36.0590 H   0  0  0  0  0  0  0  0  0  0  0  0
   38.1600   23.8620   34.7650 N   0  0  0  0  0  0  0  0  0  0  0  0
  1  6  1  0  0  0  0
  2  3  1  0  0  0  0
  2  1  2  0  0  0  0
  3  4  2  0  0  0  0
  4  5  1  0  0  0  0
  5 10  1  0  0  0  0
  6  5  2  0  0  0  0
  7  2  1  0  0  0  0
  8  3  1  0  0  0  0
  9 14  1  0  0  0  0
 10 11  1  0  0  0  0
 10  9  2  0  0  0  0
 11 12  2  0  0  0  0
 12 16  1  0  0  0  0
 12 13  1  0  0  0  0
 13 17  1  0  0  0  0
 14 13  2  0  0  0  0
 14 18  1  0  0  0  0
 15 11  1  0  0  0  0
 19  9  1  0  0  0  0
 19 20  2  0  0  0  0
 19 21  2  0  0  0  0
 22 23  1  0  0  0  0
 22 19  1  0  0  0  0
 24 22  1  0  0  0  0
 25 22  1  0  0  0  0
 26 27  1  0  0  0  0
 27 33  1  0  0  0  0
 27 28  2  0  0  0  0
 28 34  1  0  0  0  0
 29 28  1  0  0  0  0
 30  1  1  0  0  0  0
 30 29  2  0  0  0  0
 31 26  2  0  0  0  0
 31 30  1  0  0  0  0
 32 26  1  0  0  0  0
 34 41  2  0  0  0  0
 34 35  1  0  0  0  0
 35 36  1  0  0  0  0
 35 37  2  0  0  0  0
 37 38  1  0  0  0  0
 39 40  1  0  0  0  0
 39 37  1  0  0  0  0
 41 39  1  0  0  0  0
M  END
>  <minimizedAffinity>
-6.27705431

$$$$

 OpenBabel03272504293D

 41 44  0  0  0  0  0  0  0  0999 V2000
   35.6670   28.9170   31.8720 C   0  0  0  0  0  0  0  0  0  0  0  0
   36.7390   29.4090   31.2140 C   0  0  0  0  0  0  0  0  0  0  0  0
   37.7330   28.6070   30.8140 C   0  0  0  0  0  0  0  0  0  0  0  0
   37.6540   27.2760   31.0780 N   0  0  0  0  0  0  0  0  0  0  0  0
   36.5940   26.8030   31.7250 C   0  0  0  0  0  0  0  0  0  0  0  0
   35.5960   27.6020   32.1290 N   0  0  0  0  0  0  0  0  0  0  0  0
   36.8060   30.4670   31.0020 H   0  0  0  0  0  0  0  0  0  0  0  0
   38.5970   29.0090   30.2840 H   0  0  0  0  0  0  0  0  0  0  0  0
   37.3590   24.8280   32.9700 C   0  0  0  0  0  0  0  0  0  0  0  0
   36.6020   25.3730   31.9330 C   0  0  0  0  0  0  0  0  0  0  0  0
   35.8550   24.6250   31.0440 C   0  0  0  0  0  0  0  0  0  0  0  0
   35.8440   23.2510   31.1720 C   0  0  0  0  0  0  0  0  0  0  0  0
   36.5620   22.6260   32.1650 C   0  0  0  0  0  0  0  0  0  0  0  0
   37.2640   23.4430   32.9880 C   0  0  0  0  0  0  0  0  0  0  0  0
   35.2810   25.0850   30.2550 H   0  0  0  0  0  0  0  0  0  0  0  0
   35.2490   22.6770   30.4630 H   0  0  0  0  0  0  0  0  0  0  0  0
   36.5720   21.5580   32.2860 H   0  0  0  0  0  0  0  0  0  0  0  0
   37.8380   22.9400   33.7830 H   0  0  0  0  0  0  0  0  0  0  0  0
   38.2550   25.7000   34.0720 S   0  0  0  0  0  0  0  0  0  0  0  0
   39.4100   24.6560   34.2380 O   0  0  0  0  0  0  0  0  0  0  0  0
   37.4630   25.7440   35.3540 O   0  0  0  0  0  0  0  0  0  0  0  0
   39.3050   26.8390   34.4560 C   0  0  0  0  0  0  0  0  0  0  0  0
   40.0750   27.5780   33.5320 F   0  0  0  0  0  0  0  0  0  0  0  0
   40.5390   26.2220   34.9710 F   0  0  0  0  0  0  0  0  0  0  0  0
   39.2370   27.5310   35.6990 F   0  0  0  0  0  0  0  0  0  0  0  0
   33.0530   31.4880   32.0180 C   0  0  0  0  0  0  0  0  0  0  0  0
   32.4870   31.2810   33.2920 C   0  0  0  0  0  0  0  0  0  0  0  0
   33.0290   30.2520   34.0730 C   0  0  0  0  0  0  0  0  0  0  0  0
   34.0510   29.5330   33.5510 N   0  0  0  0  0  0  0  0  0  0  0  0
   34.5730   29.7640   32.3110 C   0  0  0  0  0  0  0  0  0  0  0  0
   34.0650   30.7410   31.5600 N   0  0  0  0  0  0  0  0  0  0  0  0
   32.6260   32.2920   31.4150 H   0  0  0  0  0  0  0  0  0  0  0  0
   31.6810   31.8550   33.6920 H   0  0  0  0  0  0  0  0  0  0  0  0
   32.5410   29.9280   35.4060 C   0  0  0  0  0  0  0  0  0  0  0  0
   31.9380   28.7350   35.7560 C   0  0  0  0  0  0  0  0  0  0  0  0
   31.7130   27.8550   35.1730 H   0  0  0  0  0  0  0  0  0  0  0  0
   31.6060   28.7760   37.0940 C   0  0  0  0  0  0  0  0  0  0  0  0
   31.1350   28.1140   37.8090 H   0  0  0  0  0  0  0  0  0  0  0  0
   32.0150   29.9970   37.5320 N   0  0  0  0  0  0  0  0  0  0  0  0
   32.0160   30.5410   38.4240 H   0  0  0  0  0  0  0  0  0  0  0  0
   32.5620   30.6560   36.5230 N   0  0  0  0  0  0  0  0  0  0  0  0
  1  6  1  0  0  0  0
  1 30  1  0  0  0  0
  2  1  2  0  0  0  0
  3  4  2  0  0  0  0
  3  2  1  0  0  0  0
  4  5  1  0  0  0  0
  5 10  1  0  0  0  0
  5  6  2  0  0  0  0
  7  2  1  0  0  0  0
  8  3  1  0  0  0  0
  9 14  1  0  0  0  0
  9 19  1  0  0  0  0
 10  9  2  0  0  0  0
 11 12  2  0  0  0  0
 11 10  1  0  0  0  0
 12 13  1  0  0  0  0
 13 17  1  0  0  0  0
 13 14  2  0  0  0  0
 14 18  1  0  0  0  0
 15 11  1  0  0  0  0
 16 12  1  0  0  0  0
 19 20  2  0  0  0  0
 19 22  1  0  0  0  0
 19 21  2  0  0  0  0
 22 24  1  0  0  0  0
 22 25  1  0  0  0  0
 23 22  1  0  0  0  0
 26 27  1  0  0  0  0
 27 33  1  0  0  0  0
 27 28  2  0  0  0  0
 28 34  1  0  0  0  0
 29 28  1  0  0  0  0
 30 29  2  0  0  0  0
 31 26  2  0  0  0  0
 31 30  1  0  0  0  0
 32 26  1  0  0  0  0
 34 35  1  0  0  0  0
 34 41  2  0  0  0  0
 35 37  2  0  0  0  0
 36 35  1  0  0  0  0
 37 39  1  0  0  0  0
 37 38  1  0  0  0  0
 39 40  1  0  0  0  0
 41 39  1  0  0  0  0
M  END
>  <minimizedAffinity>
-6.27572918

$$$$
