
 OpenBabel03272503323D

 40 43  0  0  1  0  0  0  0  0999 V2000
   34.6640   29.2970   48.0440 C   0  0  0  0  0  0  0  0  0  0  0  0
   34.4050   30.0790   46.9080 C   0  0  0  0  0  0  0  0  0  0  0  0
   33.1910   29.8620   46.2510 C   0  0  0  0  0  0  0  0  0  0  0  0
   32.3460   28.8990   46.7660 N   0  0  0  0  0  0  0  0  0  0  0  0
   32.6370   28.1820   47.8480 C   0  0  0  0  0  0  0  0  0  0  0  0
   33.7970   28.3830   48.4850 N   0  0  0  0  0  0  0  0  0  0  0  0
   35.0770   30.8340   46.5120 H   0  0  0  0  0  0  0  0  0  0  0  0
   32.9040   30.4160   45.3670 H   0  0  0  0  0  0  0  0  0  0  0  0
   35.9100   29.5200   48.7210 N   0  0  0  0  0  0  0  0  0  0  0  0
   37.0460   30.2360   48.2300 C   0  0  0  0  0  0  0  0  0  0  0  0
   37.6920   30.7530   49.5130 C   0  0  2  0  0  0  0  0  0  0  0  0
   36.7520   30.3640   50.6460 C   0  0  0  0  0  0  0  0  0  0  0  0
   36.2580   29.0530   50.0560 C   0  0  0  0  0  0  0  0  0  0  0  0
   37.7630   29.6170   47.6550 H   0  0  0  0  0  0  0  0  0  0  0  0
   36.6980   31.1140   47.6670 H   0  0  0  0  0  0  0  0  0  0  0  0
   38.6570   30.2750   49.7210 H   0  0  0  0  0  0  0  0  0  0  0  0
   35.8980   31.0490   50.7510 H   0  0  0  0  0  0  0  0  0  0  0  0
   37.2900   30.2350   51.5960 H   0  0  0  0  0  0  0  0  0  0  0  0
   35.3560   28.7090   50.6030 H   0  0  0  0  0  0  0  0  0  0  0  0
   37.0620   28.2990   50.0420 H   0  0  0  0  0  0  0  0  0  0  0  0
   37.9310   32.2430   49.4660 C   0  0  0  0  0  0  0  0  0  0  0  0
   36.8270   32.8440   50.0370 F   0  0  0  0  0  0  0  0  0  0  0  0
   37.9360   32.6120   48.1350 F   0  0  0  0  0  0  0  0  0  0  0  0
   39.0950   32.6190   50.0790 F   0  0  0  0  0  0  0  0  0  0  0  0
   31.5020   26.9550   48.4600 S   0  0  0  0  0  0  0  0  0  0  0  0
   30.0450   27.4750   49.1090 C   0  0  0  0  0  0  0  0  0  0  0  0
   29.3160   27.4360   50.2610 C   0  0  0  0  0  0  0  0  0  0  0  0
   28.0900   28.0000   50.4460 C   0  0  0  0  0  0  0  0  0  0  0  0
   27.5950   28.6930   49.2260 C   0  0  0  0  0  0  0  0  0  0  0  0
   28.9110   28.4620   47.9860 S   0  0  0  0  0  0  0  0  0  0  0  0
   29.8300   26.8930   51.0390 H   0  0  0  0  0  0  0  0  0  0  0  0
   27.5160   27.9780   51.3270 H   0  0  0  0  0  0  0  0  0  0  0  0
   26.3250   29.3650   49.1720 C   0  0  0  0  0  0  0  0  0  0  0  0
   25.9380   30.6220   48.7900 C   0  0  0  0  0  0  0  0  0  0  0  0
   26.7180   31.2840   48.4480 H   0  0  0  0  0  0  0  0  0  0  0  0
   24.5700   30.6550   48.9730 C   0  0  0  0  0  0  0  0  0  0  0  0
   24.0350   31.5730   48.7290 H   0  0  0  0  0  0  0  0  0  0  0  0
   24.1730   29.4590   49.4450 N   0  0  0  0  0  0  0  0  0  0  0  0
   23.1510   29.2900   49.6490 H   0  0  0  0  0  0  0  0  0  0  0  0
   25.2410   28.6720   49.5670 N   0  0  0  0  0  0  0  0  0  0  0  0
  1  6  1  0  0  0  0
  1  9  1  0  0  0  0
  2  1  2  0  0  0  0
  3  4  2  0  0  0  0
  3  2  1  0  0  0  0
  4  5  1  0  0  0  0
  5 25  1  0  0  0  0
  5  6  2  0  0  0  0
  7  2  1  0  0  0  0
  8  3  1  0  0  0  0
  9 13  1  0  0  0  0
 10  9  1  0  0  0  0
 10 11  1  0  0  0  0
 11 16  1  1  0  0  0
 11 12  1  0  0  0  0
 12 17  1  0  0  0  0
 12 18  1  0  0  0  0
 13 19  1  0  0  0  0
 13 12  1  0  0  0  0
 14 10  1  0  0  0  0
 15 10  1  0  0  0  0
 20 13  1  0  0  0  0
 21 11  1  0  0  0  0
 21 22  1  0  0  0  0
 21 24  1  0  0  0  0
 23 21  1  0  0  0  0
 25 26  1  0  0  0  0
 26 27  2  0  0  0  0
 27 28  1  0  0  0  0
 27 31  1  0  0  0  0
 28 32  1  0  0  0  0
 29 28  2  0  0  0  0
 30 26  1  0  0  0  0
 30 29  1  0  0  0  0
 33 29  1  0  0  0  0
 33 40  2  0  0  0  0
 34 36  2  0  0  0  0
 34 33  1  0  0  0  0
 35 34  1  0  0  0  0
 36 38  1  0  0  0  0
 37 36  1  0  0  0  0
 38 40  1  0  0  0  0
 38 39  1  0  0  0  0
M  END
>  <minimizedAffinity>
-7.80553198

>  <minimizedRMSD>
0.733444035

$$$$
