
 OpenBabel03272504263D

 41 44  0  0  0  0  0  0  0  0999 V2000
   35.5820   29.6300   48.4540 C   0  0  0  0  0  0  0  0  0  0  0  0
   35.3650   28.7230   49.4310 C   0  0  0  0  0  0  0  0  0  0  0  0
   34.5170   27.7020   49.2530 C   0  0  0  0  0  0  0  0  0  0  0  0
   33.8680   27.5840   48.0640 N   0  0  0  0  0  0  0  0  0  0  0  0
   34.0900   28.4820   47.1100 C   0  0  0  0  0  0  0  0  0  0  0  0
   34.9370   29.5070   47.2840 N   0  0  0  0  0  0  0  0  0  0  0  0
   35.8800   28.8130   50.3780 H   0  0  0  0  0  0  0  0  0  0  0  0
   34.3460   26.9730   50.0450 H   0  0  0  0  0  0  0  0  0  0  0  0
   31.9950   27.9920   45.9240 C   0  0  0  0  0  0  0  0  0  0  0  0
   33.3660   28.2480   45.8810 C   0  0  0  0  0  0  0  0  0  0  0  0
   34.1130   28.2720   44.7200 C   0  0  0  0  0  0  0  0  0  0  0  0
   33.4850   28.0270   43.5160 C   0  0  0  0  0  0  0  0  0  0  0  0
   32.1360   27.7640   43.4620 C   0  0  0  0  0  0  0  0  0  0  0  0
   31.4870   27.7630   44.6520 C   0  0  0  0  0  0  0  0  0  0  0  0
   35.1730   28.4750   44.7290 H   0  0  0  0  0  0  0  0  0  0  0  0
   34.0900   28.0500   42.6110 H   0  0  0  0  0  0  0  0  0  0  0  0
   31.6220   27.5700   42.5380 H   0  0  0  0  0  0  0  0  0  0  0  0
   30.4070   27.5520   44.6060 H   0  0  0  0  0  0  0  0  0  0  0  0
   31.0590   27.9770   47.3010 S   0  0  0  0  0  0  0  0  0  0  0  0
   30.2770   26.6590   46.9790 O   0  0  0  0  0  0  0  0  0  0  0  0
   30.1010   29.1360   47.2020 O   0  0  0  0  0  0  0  0  0  0  0  0
   30.8260   27.6690   48.8510 C   0  0  0  0  0  0  0  0  0  0  0  0
   30.3620   26.4430   49.3730 F   0  0  0  0  0  0  0  0  0  0  0  0
   29.5820   28.3170   49.3020 F   0  0  0  0  0  0  0  0  0  0  0  0
   31.4820   28.4180   49.8690 F   0  0  0  0  0  0  0  0  0  0  0  0
   37.3240   32.5850   49.7570 C   0  0  0  0  0  0  0  0  0  0  0  0
   38.3240   32.8050   48.7890 C   0  0  0  0  0  0  0  0  0  0  0  0
   38.3680   31.9220   47.7030 C   0  0  0  0  0  0  0  0  0  0  0  0
   37.4530   30.9240   47.6610 N   0  0  0  0  0  0  0  0  0  0  0  0
   36.5000   30.7420   48.6200 C   0  0  0  0  0  0  0  0  0  0  0  0
   36.4480   31.5780   49.6570 N   0  0  0  0  0  0  0  0  0  0  0  0
   37.2950   33.2780   50.6010 H   0  0  0  0  0  0  0  0  0  0  0  0
   39.0390   33.5970   48.8330 H   0  0  0  0  0  0  0  0  0  0  0  0
   39.3480   32.0320   46.6310 C   0  0  0  0  0  0  0  0  0  0  0  0
   39.8330   30.9690   45.8950 C   0  0  0  0  0  0  0  0  0  0  0  0
   39.6150   29.9120   45.9430 H   0  0  0  0  0  0  0  0  0  0  0  0
   40.7400   31.4410   44.9690 C   0  0  0  0  0  0  0  0  0  0  0  0
   41.3660   31.0180   44.1940 H   0  0  0  0  0  0  0  0  0  0  0  0
   40.7890   32.7860   45.1630 N   0  0  0  0  0  0  0  0  0  0  0  0
   41.2870   33.6110   44.7580 H   0  0  0  0  0  0  0  0  0  0  0  0
   39.9620   33.1110   46.1430 N   0  0  0  0  0  0  0  0  0  0  0  0
  1 30  1  0  0  0  0
  1  2  1  0  0  0  0
  2  7  1  0  0  0  0
  3  2  2  0  0  0  0
  3  8  1  0  0  0  0
  4  3  1  0  0  0  0
  5  6  1  0  0  0  0
  5  4  2  0  0  0  0
  6  1  2  0  0  0  0
  9 19  1  0  0  0  0
 10  9  1  0  0  0  0
 10  5  1  0  0  0  0
 11 15  1  0  0  0  0
 11 10  2  0  0  0  0
 12 11  1  0  0  0  0
 13 12  2  0  0  0  0
 13 14  1  0  0  0  0
 14  9  2  0  0  0  0
 16 12  1  0  0  0  0
 17 13  1  0  0  0  0
 18 14  1  0  0  0  0
 19 22  1  0  0  0  0
 20 19  2  0  0  0  0
 21 19  2  0  0  0  0
 22 24  1  0  0  0  0
 22 23  1  0  0  0  0
 22 25  1  0  0  0  0
 26 32  1  0  0  0  0
 27 33  1  0  0  0  0
 27 26  2  0  0  0  0
 28 27  1  0  0  0  0
 29 28  2  0  0  0  0
 29 30  1  0  0  0  0
 30 31  2  0  0  0  0
 31 26  1  0  0  0  0
 34 28  1  0  0  0  0
 35 36  1  0  0  0  0
 35 34  1  0  0  0  0
 37 39  1  0  0  0  0
 37 35  2  0  0  0  0
 38 37  1  0  0  0  0
 39 41  1  0  0  0  0
 40 39  1  0  0  0  0
 41 34  2  0  0  0  0
M  END
>  <minimizedAffinity>
-6.53665113

>  <minimizedRMSD>
0.398517579

$$$$
