REMARK  Name = 
REMARK  4 active torsions:
REMARK  status: ('A' for Active; 'I' for Inactive)
REMARK    1  A    between atoms: C_2  and  C_12
REMARK    2  A    between atoms: C_6  and  O_16
REMARK    3  A    between atoms: O_16  and  C_18
REMARK    4  A    between atoms: C_22  and  C_37
REMARK                            x       y       z     vdW  Elec       q    Type
REMARK                         _______ _______ _______ _____ _____    ______ ____
ROOT
ATOM      1  C   UNL     1      36.245  30.188  46.865  0.00  0.00    +0.000 A 
ATOM      2  C   UNL     1      37.086  30.765  47.814  0.00  0.00    +0.000 A 
ATOM      3  C   UNL     1      38.064  31.670  47.438  0.00  0.00    +0.000 A 
ATOM      4  C   UNL     1      38.163  31.969  46.085  0.00  0.00    +0.000 A 
ATOM      5  N   UNL     1      39.041  32.821  45.481  0.00  0.00    +0.000 N 
ATOM      6  C   UNL     1      38.754  32.778  44.164  0.00  0.00    +0.000 A 
ATOM      7  N   UNL     1      37.757  31.953  43.935  0.00  0.00    +0.000 NA
ATOM      8  C   UNL     1      37.346  31.415  45.112  0.00  0.00    +0.000 A 
ATOM      9  C   UNL     1      36.364  30.503  45.517  0.00  0.00    +0.000 A 
ATOM     10  H   UNL     1      35.468  29.476  47.119  0.00  0.00    +0.000 HD
ATOM     11  H   UNL     1      38.712  32.113  48.179  0.00  0.00    +0.000 HD
ATOM     12  H   UNL     1      39.785  33.389  45.958  0.00  0.00    +0.000 HD
ATOM     13  H   UNL     1      35.734  30.081  44.747  0.00  0.00    +0.000 HD
ENDROOT
BRANCH   2  16
ATOM     14  C   UNL     1      37.476  30.203  51.506  0.00  0.00    +0.000 A 
ATOM     15  C   UNL     1      37.773  30.642  50.217  0.00  0.00    +0.000 A 
ATOM     16  C   UNL     1      36.882  30.363  49.187  0.00  0.00    +0.000 A 
ATOM     17  N   UNL     1      35.757  29.667  49.509  0.00  0.00    +0.000 NA
ATOM     18  C   UNL     1      35.474  29.246  50.750  0.00  0.00    +0.000 A 
ATOM     19  N   UNL     1      36.321  29.511  51.731  0.00  0.00    +0.000 NA
ATOM     20  H   UNL     1      38.224  30.463  52.246  0.00  0.00    +0.000 HD
ATOM     21  H   UNL     1      38.662  31.184  49.995  0.00  0.00    +0.000 HD
ATOM     22  H   UNL     1      34.565  28.698  50.944  0.00  0.00    +0.000 HD
ENDBRANCH   2  16
BRANCH   6  23
ATOM     23  O   UNL     1      39.472  33.544  43.236  0.00  0.00    +0.000 OA
BRANCH  23  25
ATOM     24  N   UNL     1      39.549  31.843  41.715  0.00  0.00    +0.000 NA
ATOM     25  C   UNL     1      39.208  33.273  41.866  0.00  0.00    +0.000 C 
ATOM     26  C   UNL     1      37.801  33.455  41.528  0.00  0.00    +0.000 C 
ATOM     27  O   UNL     1      37.626  33.150  40.165  0.00  0.00    +0.000 OA
ATOM     28  C   UNL     1      38.045  31.911  39.788  0.00  0.00    +0.000 C 
ATOM     29  C   UNL     1      39.421  31.568  40.301  0.00  0.00    +0.000 C 
ATOM     30  H   UNL     1      40.567  31.790  41.942  0.00  0.00    +0.000 HD
ATOM     31  H   UNL     1      39.835  33.877  41.188  0.00  0.00    +0.000 HD
ATOM     32  H   UNL     1      37.593  34.569  41.561  0.00  0.00    +0.000 HD
ATOM     33  H   UNL     1      36.987  32.985  42.005  0.00  0.00    +0.000 HD
ATOM     34  H   UNL     1      37.354  31.124  40.206  0.00  0.00    +0.000 HD
ATOM     35  H   UNL     1      38.089  31.870  38.701  0.00  0.00    +0.000 HD
ATOM     36  H   UNL     1      40.223  32.056  39.703  0.00  0.00    +0.000 HD
BRANCH  29  37
ATOM     37  C   UNL     1      39.538  30.072  40.161  0.00  0.00    +0.000 A 
ATOM     38  C   UNL     1      40.439  29.188  40.744  0.00  0.00    +0.000 A 
ATOM     39  H   UNL     1      41.197  29.610  41.415  0.00  0.00    +0.000 HD
ATOM     40  C   UNL     1      40.123  27.909  40.293  0.00  0.00    +0.000 A 
ATOM     41  H   UNL     1      40.721  27.072  40.640  0.00  0.00    +0.000 HD
ATOM     42  N   UNL     1      39.073  28.027  39.472  0.00  0.00    +0.000 N 
ATOM     43  H   UNL     1      38.648  27.196  39.003  0.00  0.00    +0.000 HD
ATOM     44  N   UNL     1      38.722  29.310  39.391  0.00  0.00    +0.000 NA
ENDBRANCH  29  37
ENDBRANCH  23  25
ENDBRANCH   6  23
TORSDOF 4
