
 OpenBabel03272510253D

 44 48  0  0  1  0  0  0  0  0999 V2000
   35.8210   30.1200   46.9980 C   0  0  0  0  0  0  0  0  0  0  0  0
   36.8520   30.5680   47.8210 C   0  0  0  0  0  0  0  0  0  0  0  0
   37.9060   31.3010   47.3020 C   0  0  0  0  0  0  0  0  0  0  0  0
   37.8840   31.5630   45.9380 C   0  0  0  0  0  0  0  0  0  0  0  0
   38.8030   32.2570   45.2060 N   0  0  0  0  0  0  0  0  0  0  0  0
   38.3540   32.2430   43.9350 C   0  0  0  0  0  0  0  0  0  0  0  0
   37.2200   31.5840   43.8530 N   0  0  0  0  0  0  0  0  0  0  0  0
   36.8770   31.1330   45.0870 C   0  0  0  0  0  0  0  0  0  0  0  0
   35.8220   30.3940   45.6360 C   0  0  0  0  0  0  0  0  0  0  0  0
   34.9800   29.5440   47.3650 H   0  0  0  0  0  0  0  0  0  0  0  0
   38.7010   31.6450   47.9460 H   0  0  0  0  0  0  0  0  0  0  0  0
   39.6800   32.7050   45.5730 H   0  0  0  0  0  0  0  0  0  0  0  0
   35.0440   30.0680   44.9600 H   0  0  0  0  0  0  0  0  0  0  0  0
   37.5510   30.1170   51.4820 C   0  0  0  0  0  0  0  0  0  0  0  0
   37.7470   30.5000   50.1560 C   0  0  0  0  0  0  0  0  0  0  0  0
   36.7580   30.2220   49.2200 C   0  0  0  0  0  0  0  0  0  0  0  0
   35.6420   29.5820   49.6670 N   0  0  0  0  0  0  0  0  0  0  0  0
   35.4560   29.2150   50.9430 C   0  0  0  0  0  0  0  0  0  0  0  0
   36.3970   29.4800   51.8340 N   0  0  0  0  0  0  0  0  0  0  0  0
   38.3720   30.3730   52.1430 H   0  0  0  0  0  0  0  0  0  0  0  0
   38.6320   30.9990   49.8370 H   0  0  0  0  0  0  0  0  0  0  0  0
   34.5490   28.7110   51.2370 H   0  0  0  0  0  0  0  0  0  0  0  0
   39.0640   32.8730   42.9040 O   0  0  0  0  0  0  0  0  0  0  0  0
   39.4990   30.6610   42.5430 N   0  0  0  0  0  0  0  0  0  0  0  0
   39.7480   32.0130   42.0020 C   0  0  1  0  0  0  0  0  0  0  0  0
   39.2030   32.0830   40.6510 C   0  0  0  0  0  0  0  0  0  0  0  0
   39.9220   31.1930   39.8320 O   0  0  0  0  0  0  0  0  0  0  0  0
   39.9520   29.9020   40.2620 C   0  0  0  0  0  0  0  0  0  0  0  0
   40.2940   29.7710   41.7250 C   0  0  2  0  0  0  0  0  0  0  0  0
   39.9360   30.6720   43.4910 H   0  0  0  0  0  0  0  0  0  0  0  0
   40.8340   32.2080   41.9760 H   0  0  0  0  0  0  0  0  0  0  0  0
   39.4900   33.0950   40.2290 H   0  0  0  0  0  0  0  0  0  0  0  0
   38.1950   31.9240   40.3840 H   0  0  0  0  0  0  0  0  0  0  0  0
   38.9360   29.4290   40.1390 H   0  0  0  0  0  0  0  0  0  0  0  0
   40.7160   29.3630   39.7050 H   0  0  0  0  0  0  0  0  0  0  0  0
   41.3850   29.8920   41.9110 H   0  0  0  0  0  0  0  0  0  0  0  0
   39.8760   28.3750   42.1100 C   0  0  0  0  0  0  0  0  0  0  0  0
   39.1590   27.9290   43.2150 C   0  0  0  0  0  0  0  0  0  0  0  0
   38.8310   28.6840   43.9400 H   0  0  0  0  0  0  0  0  0  0  0  0
   39.0380   26.5470   43.1060 C   0  0  0  0  0  0  0  0  0  0  0  0
   38.5030   26.0080   43.8830 H   0  0  0  0  0  0  0  0  0  0  0  0
   39.6590   26.1830   41.9780 N   0  0  0  0  0  0  0  0  0  0  0  0
   39.7040   25.1830   41.6750 H   0  0  0  0  0  0  0  0  0  0  0  0
   40.1580   27.2650   41.3830 N   0  0  0  0  0  0  0  0  0  0  0  0
  1 10  1  0  0  0  0
  1  2  1  0  0  0  0
  2 16  1  0  0  0  0
  3  2  2  0  0  0  0
  3 11  1  0  0  0  0
  4  3  1  0  0  0  0
  5 12  1  0  0  0  0
  5  4  1  0  0  0  0
  6  5  1  0  0  0  0
  7  6  2  0  0  0  0
  7  8  1  0  0  0  0
  8  9  1  0  0  0  0
  8  4  2  0  0  0  0
  9  1  2  0  0  0  0
 13  9  1  0  0  0  0
 14 19  1  0  0  0  0
 14 20  1  0  0  0  0
 15 14  2  0  0  0  0
 16 17  2  0  0  0  0
 16 15  1  0  0  0  0
 17 18  1  0  0  0  0
 18 22  1  0  0  0  0
 18 19  2  0  0  0  0
 21 15  1  0  0  0  0
 23  6  1  0  0  0  0
 24 30  1  0  0  0  0
 25 31  1  6  0  0  0
 25 24  1  0  0  0  0
 25 23  1  0  0  0  0
 26 25  1  0  0  0  0
 27 28  1  0  0  0  0
 27 26  1  0  0  0  0
 28 29  1  0  0  0  0
 29 36  1  1  0  0  0
 29 37  1  0  0  0  0
 29 24  1  0  0  0  0
 32 26  1  0  0  0  0
 33 26  1  0  0  0  0
 34 28  1  0  0  0  0
 35 28  1  0  0  0  0
 37 38  1  0  0  0  0
 38 39  1  0  0  0  0
 40 38  2  0  0  0  0
 40 41  1  0  0  0  0
 42 40  1  0  0  0  0
 43 42  1  0  0  0  0
 44 42  1  0  0  0  0
 44 37  2  0  0  0  0
M  END
>  <minimizedAffinity>
-6.13788319

>  <minimizedRMSD>
1.70747983

$$$$
