
 OpenBabel03272509523D

 42 45  0  0  0  0  0  0  0  0999 V2000
   34.2790   29.0300   47.7860 C   0  0  0  0  0  0  0  0  0  0  0  0
   34.9850   29.5380   47.1150 H   0  0  0  0  0  0  0  0  0  0  0  0
   33.5800   29.7970   48.2260 H   0  0  0  0  0  0  0  0  0  0  0  0
   33.4270   28.0130   47.1000 C   0  0  0  0  0  0  0  0  0  0  0  0
   33.8110   26.9790   47.2000 H   0  0  0  0  0  0  0  0  0  0  0  0
   33.4340   28.2500   46.0080 H   0  0  0  0  0  0  0  0  0  0  0  0
   31.9980   28.0750   47.5060 C   0  0  0  0  0  0  0  0  0  0  0  0
   31.6240   27.3680   48.6390 C   0  0  0  0  0  0  0  0  0  0  0  0
   30.3410   27.3520   49.1050 C   0  0  0  0  0  0  0  0  0  0  0  0
   29.4230   28.0390   48.4520 N   0  0  0  0  0  0  0  0  0  0  0  0
   29.7800   28.7440   47.3270 C   0  0  0  0  0  0  0  0  0  0  0  0
   31.0480   28.7710   46.8510 N   0  0  0  0  0  0  0  0  0  0  0  0
   32.3790   26.7970   49.1850 H   0  0  0  0  0  0  0  0  0  0  0  0
   30.0360   26.8020   49.9910 H   0  0  0  0  0  0  0  0  0  0  0  0
   28.7860   29.5130   46.5840 C   0  0  0  0  0  0  0  0  0  0  0  0
   29.0520   29.8690   45.2580 C   0  0  0  0  0  0  0  0  0  0  0  0
   29.9040   29.6880   44.5980 H   0  0  0  0  0  0  0  0  0  0  0  0
   27.9430   30.5880   44.8000 C   0  0  0  0  0  0  0  0  0  0  0  0
   27.7080   31.0530   43.8550 H   0  0  0  0  0  0  0  0  0  0  0  0
   27.0730   30.6430   45.8280 N   0  0  0  0  0  0  0  0  0  0  0  0
   26.1200   31.1150   45.8300 H   0  0  0  0  0  0  0  0  0  0  0  0
   27.5690   30.0020   46.8960 N   0  0  0  0  0  0  0  0  0  0  0  0
   34.9880   28.4400   48.8780 O   0  0  0  0  0  0  0  0  0  0  0  0
   37.1600   30.0020   51.2940 C   0  0  0  0  0  0  0  0  0  0  0  0
   37.9800   30.7880   50.4260 C   0  0  0  0  0  0  0  0  0  0  0  0
   37.7150   30.7150   49.0650 C   0  0  0  0  0  0  0  0  0  0  0  0
   36.6940   29.8980   48.6780 N   0  0  0  0  0  0  0  0  0  0  0  0
   35.9440   29.1750   49.5170 C   0  0  0  0  0  0  0  0  0  0  0  0
   36.1820   29.2310   50.8350 N   0  0  0  0  0  0  0  0  0  0  0  0
   37.4300   30.1150   52.3350 H   0  0  0  0  0  0  0  0  0  0  0  0
   38.7720   31.4190   50.7520 H   0  0  0  0  0  0  0  0  0  0  0  0
   38.7950   33.3980   49.1840 F   0  0  0  0  0  0  0  0  0  0  0  0
   38.9480   32.6840   48.0830 C   0  0  0  0  0  0  0  0  0  0  0  0
   38.4360   31.4340   48.0480 C   0  0  0  0  0  0  0  0  0  0  0  0
   38.6530   30.7670   46.8390 C   0  0  0  0  0  0  0  0  0  0  0  0
   39.3300   31.3400   45.7820 C   0  0  0  0  0  0  0  0  0  0  0  0
   39.8310   32.6150   45.8660 C   0  0  0  0  0  0  0  0  0  0  0  0
   39.6290   33.2860   47.0430 C   0  0  0  0  0  0  0  0  0  0  0  0
   38.2930   29.7480   46.6740 H   0  0  0  0  0  0  0  0  0  0  0  0
   39.4770   30.7890   44.8610 H   0  0  0  0  0  0  0  0  0  0  0  0
   40.3560   33.0580   45.0440 H   0  0  0  0  0  0  0  0  0  0  0  0
   40.0150   34.2890   47.1300 H   0  0  0  0  0  0  0  0  0  0  0  0
  1  3  1  0  0  0  0
  1 23  1  0  0  0  0
  2  1  1  0  0  0  0
  4  5  1  0  0  0  0
  4  7  1  0  0  0  0
  4  1  1  0  0  0  0
  6  4  1  0  0  0  0
  7  8  1  0  0  0  0
  8  9  2  0  0  0  0
  8 13  1  0  0  0  0
  9 14  1  0  0  0  0
 10  9  1  0  0  0  0
 11 10  2  0  0  0  0
 12 11  1  0  0  0  0
 12  7  2  0  0  0  0
 15 22  2  0  0  0  0
 15 11  1  0  0  0  0
 16 15  1  0  0  0  0
 17 16  1  0  0  0  0
 18 16  2  0  0  0  0
 18 20  1  0  0  0  0
 19 18  1  0  0  0  0
 20 21  1  0  0  0  0
 20 22  1  0  0  0  0
 23 28  1  0  0  0  0
 24 30  1  0  0  0  0
 25 31  1  0  0  0  0
 25 24  2  0  0  0  0
 26 25  1  0  0  0  0
 27 26  2  0  0  0  0
 27 28  1  0  0  0  0
 28 29  2  0  0  0  0
 29 24  1  0  0  0  0
 33 32  1  0  0  0  0
 34 33  1  0  0  0  0
 34 26  1  0  0  0  0
 35 34  2  0  0  0  0
 36 37  2  0  0  0  0
 36 35  1  0  0  0  0
 37 38  1  0  0  0  0
 38 42  1  0  0  0  0
 38 33  2  0  0  0  0
 39 35  1  0  0  0  0
 40 36  1  0  0  0  0
 41 37  1  0  0  0  0
M  END
>  <minimizedAffinity>
-6.57163143

>  <minimizedRMSD>
0.851665735

$$$$
