
 OpenBabel03272503183D

 34 37  0  0  0  0  0  0  0  0999 V2000
   37.1290   30.9170   47.3490 C   0  0  0  0  0  0  0  0  0  0  0  0
   38.0590   31.8690   47.3880 C   0  0  0  0  0  0  0  0  0  0  0  0
   38.5600   32.3700   46.2400 C   0  0  0  0  0  0  0  0  0  0  0  0
   38.0640   31.8520   45.0610 C   0  0  0  0  0  0  0  0  0  0  0  0
   36.8550   30.6200   45.6470 S   0  0  0  0  0  0  0  0  0  0  0  0
   38.4070   32.2360   48.3630 H   0  0  0  0  0  0  0  0  0  0  0  0
   39.3120   33.1370   46.1140 H   0  0  0  0  0  0  0  0  0  0  0  0
   40.7830   30.9030   44.0540 Cl  0  0  0  0  0  0  0  0  0  0  0  0
   39.5360   31.7180   43.1490 C   0  0  0  0  0  0  0  0  0  0  0  0
   38.3370   32.1160   43.6660 C   0  0  0  0  0  0  0  0  0  0  0  0
   37.3530   32.7470   42.9950 C   0  0  0  0  0  0  0  0  0  0  0  0
   37.5460   33.0360   41.6410 C   0  0  0  0  0  0  0  0  0  0  0  0
   38.7220   32.6670   41.0520 C   0  0  0  0  0  0  0  0  0  0  0  0
   39.0460   32.9910   39.3590 Cl  0  0  0  0  0  0  0  0  0  0  0  0
   39.7040   32.0180   41.7920 C   0  0  0  0  0  0  0  0  0  0  0  0
   36.4040   33.0570   43.4210 H   0  0  0  0  0  0  0  0  0  0  0  0
   36.7760   33.5420   41.0710 H   0  0  0  0  0  0  0  0  0  0  0  0
   40.6450   31.7290   41.3030 H   0  0  0  0  0  0  0  0  0  0  0  0
   36.1090   29.6010   50.7250 C   0  0  0  0  0  0  0  0  0  0  0  0
   36.8550   30.3120   49.7610 C   0  0  0  0  0  0  0  0  0  0  0  0
   36.4320   30.2180   48.4350 C   0  0  0  0  0  0  0  0  0  0  0  0
   35.3480   29.4660   48.1280 N   0  0  0  0  0  0  0  0  0  0  0  0
   34.6610   28.8000   49.0710 C   0  0  0  0  0  0  0  0  0  0  0  0
   35.0460   28.8730   50.3620 N   0  0  0  0  0  0  0  0  0  0  0  0
   36.4230   29.6620   51.7690 H   0  0  0  0  0  0  0  0  0  0  0  0
   37.7180   30.9100   50.0130 H   0  0  0  0  0  0  0  0  0  0  0  0
   33.4910   27.9860   48.7560 C   0  0  0  0  0  0  0  0  0  0  0  0
   33.7300   26.9320   47.8730 C   0  0  0  0  0  0  0  0  0  0  0  0
   34.5880   26.5440   47.3390 H   0  0  0  0  0  0  0  0  0  0  0  0
   32.5280   26.2720   47.6860 C   0  0  0  0  0  0  0  0  0  0  0  0
   32.2310   25.3980   47.0880 H   0  0  0  0  0  0  0  0  0  0  0  0
   31.6260   26.9400   48.4490 N   0  0  0  0  0  0  0  0  0  0  0  0
   30.6130   26.7140   48.5500 H   0  0  0  0  0  0  0  0  0  0  0  0
   32.1860   27.9670   49.0950 N   0  0  0  0  0  0  0  0  0  0  0  0
  1  2  2  0  0  0  0
  1 21  1  0  0  0  0
  2  6  1  0  0  0  0
  3  2  1  0  0  0  0
  4  5  1  0  0  0  0
  4  3  2  0  0  0  0
  5  1  1  0  0  0  0
  7  3  1  0  0  0  0
  9 10  1  0  0  0  0
  9  8  1  0  0  0  0
 10  4  1  0  0  0  0
 11 16  1  0  0  0  0
 11 10  2  0  0  0  0
 12 11  1  0  0  0  0
 13 12  2  0  0  0  0
 13 15  1  0  0  0  0
 14 13  1  0  0  0  0
 15  9  2  0  0  0  0
 17 12  1  0  0  0  0
 18 15  1  0  0  0  0
 19 25  1  0  0  0  0
 20 26  1  0  0  0  0
 20 19  2  0  0  0  0
 21 20  1  0  0  0  0
 22 21  2  0  0  0  0
 22 23  1  0  0  0  0
 23 24  2  0  0  0  0
 24 19  1  0  0  0  0
 27 23  1  0  0  0  0
 27 34  2  0  0  0  0
 28 27  1  0  0  0  0
 29 28  1  0  0  0  0
 30 28  2  0  0  0  0
 30 32  1  0  0  0  0
 31 30  1  0  0  0  0
 32 33  1  0  0  0  0
 32 34  1  0  0  0  0
M  END
>  <minimizedAffinity>
-5.86674547

>  <minimizedRMSD>
1.55703318

$$$$
