
 OpenBabel03272509523D

 42 45  0  0  0  0  0  0  0  0999 V2000
   34.4660   28.3130   48.1990 C   0  0  0  0  0  0  0  0  0  0  0  0
   35.4970   28.0410   47.9360 H   0  0  0  0  0  0  0  0  0  0  0  0
   34.1100   29.1150   47.4930 H   0  0  0  0  0  0  0  0  0  0  0  0
   33.4990   27.1790   48.0870 C   0  0  0  0  0  0  0  0  0  0  0  0
   33.5530   26.4700   48.9360 H   0  0  0  0  0  0  0  0  0  0  0  0
   33.7680   26.5980   47.1710 H   0  0  0  0  0  0  0  0  0  0  0  0
   32.0970   27.6240   47.8720 C   0  0  0  0  0  0  0  0  0  0  0  0
   31.1150   27.0460   48.6640 C   0  0  0  0  0  0  0  0  0  0  0  0
   29.7950   27.3770   48.5540 C   0  0  0  0  0  0  0  0  0  0  0  0
   29.4420   28.2820   47.6610 N   0  0  0  0  0  0  0  0  0  0  0  0
   30.4050   28.8610   46.8700 C   0  0  0  0  0  0  0  0  0  0  0  0
   31.7190   28.5460   46.9660 N   0  0  0  0  0  0  0  0  0  0  0  0
   31.4010   26.2970   49.4060 H   0  0  0  0  0  0  0  0  0  0  0  0
   29.0170   26.9320   49.1680 H   0  0  0  0  0  0  0  0  0  0  0  0
   30.0440   29.8660   45.8740 C   0  0  0  0  0  0  0  0  0  0  0  0
   31.0580   30.5910   45.2380 C   0  0  0  0  0  0  0  0  0  0  0  0
   32.1470   30.5750   45.3250 H   0  0  0  0  0  0  0  0  0  0  0  0
   30.4310   31.4680   44.3470 C   0  0  0  0  0  0  0  0  0  0  0  0
   30.8060   32.2070   43.6570 H   0  0  0  0  0  0  0  0  0  0  0  0
   29.1050   31.2530   44.4670 N   0  0  0  0  0  0  0  0  0  0  0  0
   28.3300   31.7480   43.9350 H   0  0  0  0  0  0  0  0  0  0  0  0
   28.8670   30.2980   45.3770 N   0  0  0  0  0  0  0  0  0  0  0  0
   34.4340   28.8740   49.5140 O   0  0  0  0  0  0  0  0  0  0  0  0
   37.1410   29.9460   51.6380 C   0  0  0  0  0  0  0  0  0  0  0  0
   37.9610   30.6210   50.6810 C   0  0  0  0  0  0  0  0  0  0  0  0
   37.5100   30.6520   49.3680 C   0  0  0  0  0  0  0  0  0  0  0  0
   36.3210   30.0340   49.1100 N   0  0  0  0  0  0  0  0  0  0  0  0
   35.5780   29.4110   50.0300 C   0  0  0  0  0  0  0  0  0  0  0  0
   35.9950   29.3690   51.3020 N   0  0  0  0  0  0  0  0  0  0  0  0
   37.5630   29.9670   52.6330 H   0  0  0  0  0  0  0  0  0  0  0  0
   38.8860   31.0960   50.9070 H   0  0  0  0  0  0  0  0  0  0  0  0
   38.7700   33.2570   49.3060 F   0  0  0  0  0  0  0  0  0  0  0  0
   38.7960   32.4960   48.2260 C   0  0  0  0  0  0  0  0  0  0  0  0
   38.2010   31.2840   48.2760 C   0  0  0  0  0  0  0  0  0  0  0  0
   38.2860   30.5620   47.0820 C   0  0  0  0  0  0  0  0  0  0  0  0
   38.9210   31.0500   45.9590 C   0  0  0  0  0  0  0  0  0  0  0  0
   39.5110   32.2900   45.9570 C   0  0  0  0  0  0  0  0  0  0  0  0
   39.4380   33.0130   47.1180 C   0  0  0  0  0  0  0  0  0  0  0  0
   37.8490   29.5650   46.9820 H   0  0  0  0  0  0  0  0  0  0  0  0
   38.9640   30.4590   45.0530 H   0  0  0  0  0  0  0  0  0  0  0  0
   40.0030   32.6680   45.0840 H   0  0  0  0  0  0  0  0  0  0  0  0
   39.8950   33.9900   47.1380 H   0  0  0  0  0  0  0  0  0  0  0  0
  1 23  1  0  0  0  0
  2  1  1  0  0  0  0
  3  1  1  0  0  0  0
  4  1  1  0  0  0  0
  4  5  1  0  0  0  0
  6  4  1  0  0  0  0
  7  4  1  0  0  0  0
  7  8  1  0  0  0  0
  8 13  1  0  0  0  0
  9  8  2  0  0  0  0
  9 14  1  0  0  0  0
 10  9  1  0  0  0  0
 11 12  1  0  0  0  0
 11 10  2  0  0  0  0
 12  7  2  0  0  0  0
 15 11  1  0  0  0  0
 16 17  1  0  0  0  0
 16 15  1  0  0  0  0
 18 20  1  0  0  0  0
 18 16  2  0  0  0  0
 19 18  1  0  0  0  0
 20 22  1  0  0  0  0
 21 20  1  0  0  0  0
 22 15  2  0  0  0  0
 23 28  1  0  0  0  0
 24 30  1  0  0  0  0
 25 31  1  0  0  0  0
 25 24  2  0  0  0  0
 26 25  1  0  0  0  0
 27 26  2  0  0  0  0
 27 28  1  0  0  0  0
 28 29  2  0  0  0  0
 29 24  1  0  0  0  0
 33 34  1  0  0  0  0
 33 32  1  0  0  0  0
 34 26  1  0  0  0  0
 35 34  2  0  0  0  0
 36 35  1  0  0  0  0
 37 36  2  0  0  0  0
 37 38  1  0  0  0  0
 38 42  1  0  0  0  0
 38 33  2  0  0  0  0
 39 35  1  0  0  0  0
 40 36  1  0  0  0  0
 41 37  1  0  0  0  0
M  END
>  <minimizedAffinity>
-6.45275307

>  <minimizedRMSD>
0.659529924

$$$$
