
 OpenBabel03272509523D

 42 45  0  0  0  0  0  0  0  0999 V2000
   34.2550   28.7720   48.0800 C   0  0  0  0  0  0  0  0  0  0  0  0
   35.0880   29.0720   47.4290 H   0  0  0  0  0  0  0  0  0  0  0  0
   33.5820   29.6620   48.2420 H   0  0  0  0  0  0  0  0  0  0  0  0
   33.4050   27.6870   47.5050 C   0  0  0  0  0  0  0  0  0  0  0  0
   33.7180   26.6710   47.8160 H   0  0  0  0  0  0  0  0  0  0  0  0
   33.5160   27.7270   46.3930 H   0  0  0  0  0  0  0  0  0  0  0  0
   31.9530   27.8820   47.7610 C   0  0  0  0  0  0  0  0  0  0  0  0
   31.4070   27.2420   48.8640 C   0  0  0  0  0  0  0  0  0  0  0  0
   30.0880   27.3490   49.1960 C   0  0  0  0  0  0  0  0  0  0  0  0
   29.3030   28.0900   48.4380 N   0  0  0  0  0  0  0  0  0  0  0  0
   29.8310   28.7290   47.3410 C   0  0  0  0  0  0  0  0  0  0  0  0
   31.1380   28.6350   46.9970 N   0  0  0  0  0  0  0  0  0  0  0  0
   32.0520   26.6270   49.4970 H   0  0  0  0  0  0  0  0  0  0  0  0
   29.6490   26.8530   50.0580 H   0  0  0  0  0  0  0  0  0  0  0  0
   28.9870   29.5560   46.4830 C   0  0  0  0  0  0  0  0  0  0  0  0
   29.5340   30.1160   45.3240 C   0  0  0  0  0  0  0  0  0  0  0  0
   30.5310   30.0720   44.8780 H   0  0  0  0  0  0  0  0  0  0  0  0
   28.5140   30.8470   44.7060 C   0  0  0  0  0  0  0  0  0  0  0  0
   28.4750   31.4370   43.8040 H   0  0  0  0  0  0  0  0  0  0  0  0
   27.4210   30.7110   45.4840 N   0  0  0  0  0  0  0  0  0  0  0  0
   26.4620   31.1350   45.3130 H   0  0  0  0  0  0  0  0  0  0  0  0
   27.6970   29.9410   46.5470 N   0  0  0  0  0  0  0  0  0  0  0  0
   34.7570   28.3920   49.3640 O   0  0  0  0  0  0  0  0  0  0  0  0
   37.1050   29.9800   51.5910 C   0  0  0  0  0  0  0  0  0  0  0  0
   37.8940   30.7090   50.6490 C   0  0  0  0  0  0  0  0  0  0  0  0
   37.5500   30.5940   49.3080 C   0  0  0  0  0  0  0  0  0  0  0  0
   36.4860   29.7920   49.0120 N   0  0  0  0  0  0  0  0  0  0  0  0
   35.7680   29.1230   49.9190 C   0  0  0  0  0  0  0  0  0  0  0  0
   36.0830   29.2200   51.2180 N   0  0  0  0  0  0  0  0  0  0  0  0
   37.4380   30.1230   52.6100 H   0  0  0  0  0  0  0  0  0  0  0  0
   38.7210   31.3280   50.9040 H   0  0  0  0  0  0  0  0  0  0  0  0
   38.7720   33.2170   49.2870 F   0  0  0  0  0  0  0  0  0  0  0  0
   38.8060   32.4750   48.1940 C   0  0  0  0  0  0  0  0  0  0  0  0
   38.2290   31.2530   48.2250 C   0  0  0  0  0  0  0  0  0  0  0  0
   38.3210   30.5520   47.0190 C   0  0  0  0  0  0  0  0  0  0  0  0
   38.9470   31.0680   45.9030 C   0  0  0  0  0  0  0  0  0  0  0  0
   39.5190   32.3160   45.9200 C   0  0  0  0  0  0  0  0  0  0  0  0
   39.4380   33.0190   47.0930 C   0  0  0  0  0  0  0  0  0  0  0  0
   37.8990   29.5510   46.9040 H   0  0  0  0  0  0  0  0  0  0  0  0
   38.9970   30.4930   44.9870 H   0  0  0  0  0  0  0  0  0  0  0  0
   40.0030   32.7150   45.0520 H   0  0  0  0  0  0  0  0  0  0  0  0
   39.8820   34.0020   47.1280 H   0  0  0  0  0  0  0  0  0  0  0  0
  1  3  1  0  0  0  0
  1 23  1  0  0  0  0
  2  1  1  0  0  0  0
  4  7  1  0  0  0  0
  4  5  1  0  0  0  0
  4  1  1  0  0  0  0
  6  4  1  0  0  0  0
  7  8  1  0  0  0  0
  8  9  2  0  0  0  0
  8 13  1  0  0  0  0
  9 14  1  0  0  0  0
 10  9  1  0  0  0  0
 11 10  2  0  0  0  0
 12 11  1  0  0  0  0
 12  7  2  0  0  0  0
 15 22  2  0  0  0  0
 15 11  1  0  0  0  0
 16 15  1  0  0  0  0
 17 16  1  0  0  0  0
 18 16  2  0  0  0  0
 18 20  1  0  0  0  0
 19 18  1  0  0  0  0
 20 22  1  0  0  0  0
 21 20  1  0  0  0  0
 23 28  1  0  0  0  0
 24 30  1  0  0  0  0
 25 31  1  0  0  0  0
 25 24  2  0  0  0  0
 26 25  1  0  0  0  0
 27 26  2  0  0  0  0
 27 28  1  0  0  0  0
 28 29  2  0  0  0  0
 29 24  1  0  0  0  0
 33 34  1  0  0  0  0
 33 32  1  0  0  0  0
 34 26  1  0  0  0  0
 35 34  2  0  0  0  0
 36 37  2  0  0  0  0
 36 35  1  0  0  0  0
 37 38  1  0  0  0  0
 38 42  1  0  0  0  0
 38 33  2  0  0  0  0
 39 35  1  0  0  0  0
 40 36  1  0  0  0  0
 41 37  1  0  0  0  0
M  END
>  <minimizedAffinity>
-6.50934124

>  <minimizedRMSD>
0.71782881

$$$$
