
 OpenBabel03262521003D

 34 36  0  0  1  0  0  0  0  0999 V2000
   38.4160   24.3650   36.4110 N   0  0  0  0  0  0  0  0  0  0  0  0
   39.4550   23.6220   35.8020 C   0  0  1  0  0  0  0  0  0  0  0  0
   40.4550   23.1860   36.8420 C   0  0  0  0  0  0  0  0  0  0  0  0
   39.7330   22.3790   37.8280 N   0  0  0  0  0  0  0  0  0  0  0  0
   38.8470   23.3140   38.5310 C   0  0  0  0  0  0  0  0  0  0  0  0
   37.7820   23.7220   37.5170 C   0  0  2  0  0  0  0  0  0  0  0  0
   37.8540   24.9880   35.8370 H   0  0  0  0  0  0  0  0  0  0  0  0
   39.9310   24.2470   35.0180 H   0  0  0  0  0  0  0  0  0  0  0  0
   41.1700   22.4930   36.3530 H   0  0  0  0  0  0  0  0  0  0  0  0
   40.9670   24.0500   37.3010 H   0  0  0  0  0  0  0  0  0  0  0  0
   40.4760   22.0310   38.5010 H   0  0  0  0  0  0  0  0  0  0  0  0
   39.3660   24.2360   38.8480 H   0  0  0  0  0  0  0  0  0  0  0  0
   38.3370   22.8240   39.3820 H   0  0  0  0  0  0  0  0  0  0  0  0
   37.0590   24.4410   37.9700 H   0  0  0  0  0  0  0  0  0  0  0  0
   37.0280   22.5350   37.1630 N   0  0  0  0  0  0  0  0  0  0  0  0
   36.2220   22.3560   37.7900 H   0  0  0  0  0  0  0  0  0  0  0  0
   37.6380   21.6720   37.2710 H   0  0  0  0  0  0  0  0  0  0  0  0
   38.8280   22.0640   35.0370 S   0  0  0  0  0  0  0  0  0  0  0  0
   35.9010   21.9470   32.2300 C   0  0  0  0  0  0  0  0  0  0  0  0
   36.7660   21.5550   33.2530 C   0  0  0  0  0  0  0  0  0  0  0  0
   37.6800   22.4500   33.7410 C   0  0  0  0  0  0  0  0  0  0  0  0
   37.6950   23.7040   33.1860 N   0  0  0  0  0  0  0  0  0  0  0  0
   36.8590   24.0430   32.2160 C   0  0  0  0  0  0  0  0  0  0  0  0
   35.9590   23.1740   31.7300 N   0  0  0  0  0  0  0  0  0  0  0  0
   35.1700   21.2520   31.8320 H   0  0  0  0  0  0  0  0  0  0  0  0
   36.7120   20.5680   33.6490 H   0  0  0  0  0  0  0  0  0  0  0  0
   36.9200   25.4100   31.6560 C   0  0  0  0  0  0  0  0  0  0  0  0
   37.7440   26.4970   31.6900 C   0  0  0  0  0  0  0  0  0  0  0  0
   38.6270   26.3900   32.2810 H   0  0  0  0  0  0  0  0  0  0  0  0
   37.1520   27.4650   30.9000 C   0  0  0  0  0  0  0  0  0  0  0  0
   37.6590   28.4300   30.7900 H   0  0  0  0  0  0  0  0  0  0  0  0
   36.0030   26.9630   30.4100 N   0  0  0  0  0  0  0  0  0  0  0  0
   35.3910   27.5320   29.7820 H   0  0  0  0  0  0  0  0  0  0  0  0
   35.8530   25.7160   30.8620 N   0  0  0  0  0  0  0  0  0  0  0  0
  1  6  1  0  0  0  0
  2  8  1  6  0  0  0
  2  1  1  0  0  0  0
  2  3  1  0  0  0  0
  3 10  1  0  0  0  0
  3  4  1  0  0  0  0
  4 11  1  0  0  0  0
  4  5  1  0  0  0  0
  5 12  1  0  0  0  0
  5 13  1  0  0  0  0
  6 14  1  1  0  0  0
  6  5  1  0  0  0  0
  7  1  1  0  0  0  0
  9  3  1  0  0  0  0
 15 17  1  0  0  0  0
 15  6  1  0  0  0  0
 15 16  1  0  0  0  0
 18  2  1  0  0  0  0
 19 20  1  0  0  0  0
 20 26  1  0  0  0  0
 20 21  2  0  0  0  0
 21 18  1  0  0  0  0
 22 21  1  0  0  0  0
 23 22  2  0  0  0  0
 24 23  1  0  0  0  0
 24 19  2  0  0  0  0
 25 19  1  0  0  0  0
 27 28  1  0  0  0  0
 27 23  1  0  0  0  0
 28 29  1  0  0  0  0
 30 28  2  0  0  0  0
 31 30  1  0  0  0  0
 32 34  1  0  0  0  0
 32 30  1  0  0  0  0
 33 32  1  0  0  0  0
 34 27  2  0  0  0  0
M  END
>  <minimizedAffinity>
-5.26850653

$$$$

 OpenBabel03262521003D

 34 36  0  0  1  0  0  0  0  0999 V2000
   38.4280   27.1540   32.0250 N   0  0  0  0  0  0  0  0  0  0  0  0
   37.1410   26.7190   32.4200 C   0  0  1  0  0  0  0  0  0  0  0  0
   36.0840   27.5570   31.7470 C   0  0  0  0  0  0  0  0  0  0  0  0
   36.2720   27.4170   30.3010 N   0  0  0  0  0  0  0  0  0  0  0  0
   37.5370   28.0970   29.9990 C   0  0  0  0  0  0  0  0  0  0  0  0
   38.6330   27.2310   30.6140 C   0  0  2  0  0  0  0  0  0  0  0  0
   39.2270   26.9240   32.6100 H   0  0  0  0  0  0  0  0  0  0  0  0
   37.0650   26.7800   33.5240 H   0  0  0  0  0  0  0  0  0  0  0  0
   35.0980   27.0990   31.9670 H   0  0  0  0  0  0  0  0  0  0  0  0
   36.1310   28.6110   32.0750 H   0  0  0  0  0  0  0  0  0  0  0  0
   35.4720   27.9580   29.8620 H   0  0  0  0  0  0  0  0  0  0  0  0
   37.6070   29.0940   30.4690 H   0  0  0  0  0  0  0  0  0  0  0  0
   37.7160   28.1500   28.9080 H   0  0  0  0  0  0  0  0  0  0  0  0
   39.6390   27.6790   30.4320 H   0  0  0  0  0  0  0  0  0  0  0  0
   38.6170   25.9480   29.9380 N   0  0  0  0  0  0  0  0  0  0  0  0
   39.2090   25.9210   29.0880 H   0  0  0  0  0  0  0  0  0  0  0  0
   37.6380   25.7390   29.5810 H   0  0  0  0  0  0  0  0  0  0  0  0
   36.8080   24.9840   31.8830 S   0  0  0  0  0  0  0  0  0  0  0  0
   39.2270   21.9960   33.1810 C   0  0  0  0  0  0  0  0  0  0  0  0
   38.5030   22.8350   32.3310 C   0  0  0  0  0  0  0  0  0  0  0  0
   37.7660   23.8570   32.8640 C   0  0  0  0  0  0  0  0  0  0  0  0
   37.7790   24.0030   34.2270 N   0  0  0  0  0  0  0  0  0  0  0  0
   38.4780   23.1890   35.0040 C   0  0  0  0  0  0  0  0  0  0  0  0
   39.2040   22.1830   34.4940 N   0  0  0  0  0  0  0  0  0  0  0  0
   39.8170   21.1810   32.7770 H   0  0  0  0  0  0  0  0  0  0  0  0
   38.5270   22.6780   31.2780 H   0  0  0  0  0  0  0  0  0  0  0  0
   38.4550   23.3930   36.4690 C   0  0  0  0  0  0  0  0  0  0  0  0
   37.7740   24.1320   37.3910 C   0  0  0  0  0  0  0  0  0  0  0  0
   37.0160   24.7760   37.0010 H   0  0  0  0  0  0  0  0  0  0  0  0
   38.3020   23.8040   38.6260 C   0  0  0  0  0  0  0  0  0  0  0  0
   37.8890   24.2930   39.5160 H   0  0  0  0  0  0  0  0  0  0  0  0
   39.2730   22.8920   38.4400 N   0  0  0  0  0  0  0  0  0  0  0  0
   39.8090   22.5020   39.2480 H   0  0  0  0  0  0  0  0  0  0  0  0
   39.3740   22.6350   37.1330 N   0  0  0  0  0  0  0  0  0  0  0  0
  1  2  1  0  0  0  0
  1  7  1  0  0  0  0
  2  8  1  1  0  0  0
  3  9  1  0  0  0  0
  3 10  1  0  0  0  0
  3  2  1  0  0  0  0
  4  3  1  0  0  0  0
  5  4  1  0  0  0  0
  5 12  1  0  0  0  0
  5  6  1  0  0  0  0
  6 14  1  6  0  0  0
  6  1  1  0  0  0  0
 11  4  1  0  0  0  0
 13  5  1  0  0  0  0
 15  6  1  0  0  0  0
 16 15  1  0  0  0  0
 17 15  1  0  0  0  0
 18  2  1  0  0  0  0
 18 21  1  0  0  0  0
 19 24  1  0  0  0  0
 20 21  1  0  0  0  0
 20 19  2  0  0  0  0
 21 22  2  0  0  0  0
 22 23  1  0  0  0  0
 23 27  1  0  0  0  0
 24 23  2  0  0  0  0
 25 19  1  0  0  0  0
 26 20  1  0  0  0  0
 27 34  2  0  0  0  0
 27 28  1  0  0  0  0
 28 30  2  0  0  0  0
 29 28  1  0  0  0  0
 30 31  1  0  0  0  0
 32 30  1  0  0  0  0
 32 33  1  0  0  0  0
 34 32  1  0  0  0  0
M  END
>  <minimizedAffinity>
-5.06283045

$$$$

 OpenBabel03262521003D

 34 36  0  0  1  0  0  0  0  0999 V2000
   37.8090   26.1730   32.1130 N   0  0  0  0  0  0  0  0  0  0  0  0
   36.3950   26.1630   32.0820 C   0  0  1  0  0  0  0  0  0  0  0  0
   35.8840   27.4230   31.4290 C   0  0  0  0  0  0  0  0  0  0  0  0
   36.4450   27.4700   30.0770 N   0  0  0  0  0  0  0  0  0  0  0  0
   37.8840   27.6970   30.2530 C   0  0  0  0  0  0  0  0  0  0  0  0
   38.4390   26.4080   30.8530 C   0  0  2  0  0  0  0  0  0  0  0  0
   38.2920   25.5800   32.7830 H   0  0  0  0  0  0  0  0  0  0  0  0
   36.0150   26.0610   33.1190 H   0  0  0  0  0  0  0  0  0  0  0  0
   34.7880   27.3140   31.2970 H   0  0  0  0  0  0  0  0  0  0  0  0
   36.1400   28.3200   32.0210 H   0  0  0  0  0  0  0  0  0  0  0  0
   36.0090   28.3250   29.6250 H   0  0  0  0  0  0  0  0  0  0  0  0
   38.1020   28.5110   30.9680 H   0  0  0  0  0  0  0  0  0  0  0  0
   38.3870   27.8660   29.2820 H   0  0  0  0  0  0  0  0  0  0  0  0
   39.5380   26.4940   31.0240 H   0  0  0  0  0  0  0  0  0  0  0  0
   38.2470   25.3480   29.8830 N   0  0  0  0  0  0  0  0  0  0  0  0
   39.0300   25.2560   29.2100 H   0  0  0  0  0  0  0  0  0  0  0  0
   37.4030   25.5630   29.2740 H   0  0  0  0  0  0  0  0  0  0  0  0
   35.7400   24.7770   31.0550 S   0  0  0  0  0  0  0  0  0  0  0  0
   36.1010   20.8490   32.0080 C   0  0  0  0  0  0  0  0  0  0  0  0
   35.6790   22.0220   31.3800 C   0  0  0  0  0  0  0  0  0  0  0  0
   36.2010   23.2230   31.7790 C   0  0  0  0  0  0  0  0  0  0  0  0
   37.1250   23.2060   32.7920 N   0  0  0  0  0  0  0  0  0  0  0  0
   37.5040   22.0740   33.3650 C   0  0  0  0  0  0  0  0  0  0  0  0
   36.9990   20.8900   32.9830 N   0  0  0  0  0  0  0  0  0  0  0  0
   35.6990   19.8880   31.7050 H   0  0  0  0  0  0  0  0  0  0  0  0
   34.9580   21.9800   30.5980 H   0  0  0  0  0  0  0  0  0  0  0  0
   38.5040   22.1140   34.4530 C   0  0  0  0  0  0  0  0  0  0  0  0
   39.8570   22.2160   34.5990 C   0  0  0  0  0  0  0  0  0  0  0  0
   40.4170   22.2930   33.6920 H   0  0  0  0  0  0  0  0  0  0  0  0
   40.1100   22.1880   35.9580 C   0  0  0  0  0  0  0  0  0  0  0  0
   41.1500   22.2590   36.2970 H   0  0  0  0  0  0  0  0  0  0  0  0
   38.9340   22.0730   36.6020 N   0  0  0  0  0  0  0  0  0  0  0  0
   38.8930   22.0330   37.6450 H   0  0  0  0  0  0  0  0  0  0  0  0
   37.9530   22.0270   35.6980 N   0  0  0  0  0  0  0  0  0  0  0  0
  1  7  1  0  0  0  0
  2  1  1  0  0  0  0
  2  8  1  1  0  0  0
  3 10  1  0  0  0  0
  3  2  1  0  0  0  0
  4  5  1  0  0  0  0
  4  3  1  0  0  0  0
  5  6  1  0  0  0  0
  5 12  1  0  0  0  0
  6 14  1  1  0  0  0
  6  1  1  0  0  0  0
  9  3  1  0  0  0  0
 11  4  1  0  0  0  0
 13  5  1  0  0  0  0
 15  6  1  0  0  0  0
 16 15  1  0  0  0  0
 17 15  1  0  0  0  0
 18 21  1  0  0  0  0
 18  2  1  0  0  0  0
 19 24  1  0  0  0  0
 20 21  1  0  0  0  0
 20 19  2  0  0  0  0
 21 22  2  0  0  0  0
 22 23  1  0  0  0  0
 23 27  1  0  0  0  0
 24 23  2  0  0  0  0
 25 19  1  0  0  0  0
 26 20  1  0  0  0  0
 27 28  1  0  0  0  0
 27 34  2  0  0  0  0
 28 30  2  0  0  0  0
 29 28  1  0  0  0  0
 30 31  1  0  0  0  0
 30 32  1  0  0  0  0
 32 33  1  0  0  0  0
 34 32  1  0  0  0  0
M  END
>  <minimizedAffinity>
-4.93885756

$$$$

 OpenBabel03262521003D

 34 36  0  0  1  0  0  0  0  0999 V2000
   36.6330   20.7790   33.3940 N   0  0  0  0  0  0  0  0  0  0  0  0
   37.8050   20.9860   32.6290 C   0  0  1  0  0  0  0  0  0  0  0  0
   37.8430   20.0200   31.4720 C   0  0  0  0  0  0  0  0  0  0  0  0
   36.6380   20.2520   30.6730 N   0  0  0  0  0  0  0  0  0  0  0  0
   35.5180   19.7960   31.5030 C   0  0  0  0  0  0  0  0  0  0  0  0
   35.4150   20.7970   32.6500 C   0  0  2  0  0  0  0  0  0  0  0  0
   36.6080   21.1070   34.3560 H   0  0  0  0  0  0  0  0  0  0  0  0
   38.6890   20.8650   33.2880 H   0  0  0  0  0  0  0  0  0  0  0  0
   38.6950   20.3060   30.8220 H   0  0  0  0  0  0  0  0  0  0  0  0
   37.9220   18.9740   31.8180 H   0  0  0  0  0  0  0  0  0  0  0  0
   36.7340   19.6100   29.8330 H   0  0  0  0  0  0  0  0  0  0  0  0
   35.6980   18.8020   31.9520 H   0  0  0  0  0  0  0  0  0  0  0  0
   34.5640   19.8190   30.9430 H   0  0  0  0  0  0  0  0  0  0  0  0
   34.5810   20.5230   33.3400 H   0  0  0  0  0  0  0  0  0  0  0  0
   35.0820   22.0890   32.0820 N   0  0  0  0  0  0  0  0  0  0  0  0
   34.0630   22.2470   31.9830 H   0  0  0  0  0  0  0  0  0  0  0  0
   35.4550   22.1560   31.0890 H   0  0  0  0  0  0  0  0  0  0  0  0
   37.8400   22.6670   31.8690 S   0  0  0  0  0  0  0  0  0  0  0  0
   37.5320   26.1250   33.9690 C   0  0  0  0  0  0  0  0  0  0  0  0
   37.5300   25.2220   32.9050 C   0  0  0  0  0  0  0  0  0  0  0  0
   37.8130   23.9040   33.1410 C   0  0  0  0  0  0  0  0  0  0  0  0
   38.0870   23.5380   34.4340 N   0  0  0  0  0  0  0  0  0  0  0  0
   38.0800   24.4220   35.4210 C   0  0  0  0  0  0  0  0  0  0  0  0
   37.8040   25.7170   35.2010 N   0  0  0  0  0  0  0  0  0  0  0  0
   37.3100   27.1730   33.8000 H   0  0  0  0  0  0  0  0  0  0  0  0
   37.3100   25.5580   31.9180 H   0  0  0  0  0  0  0  0  0  0  0  0
   38.3830   23.9710   36.7960 C   0  0  0  0  0  0  0  0  0  0  0  0
   38.0090   24.2600   38.0760 C   0  0  0  0  0  0  0  0  0  0  0  0
   37.2820   25.0350   38.1820 H   0  0  0  0  0  0  0  0  0  0  0  0
   38.7270   23.4120   38.8970 C   0  0  0  0  0  0  0  0  0  0  0  0
   38.5730   23.4790   39.9800 H   0  0  0  0  0  0  0  0  0  0  0  0
   39.5080   22.6370   38.1220 N   0  0  0  0  0  0  0  0  0  0  0  0
   40.1400   21.9180   38.5410 H   0  0  0  0  0  0  0  0  0  0  0  0
   39.3070   22.9690   36.8440 N   0  0  0  0  0  0  0  0  0  0  0  0
  1  7  1  0  0  0  0
  2  8  1  1  0  0  0
  2  1  1  0  0  0  0
  3 10  1  0  0  0  0
  3  2  1  0  0  0  0
  4  3  1  0  0  0  0
  4  5  1  0  0  0  0
  5 12  1  0  0  0  0
  5  6  1  0  0  0  0
  6 14  1  1  0  0  0
  6  1  1  0  0  0  0
  9  3  1  0  0  0  0
 11  4  1  0  0  0  0
 13  5  1  0  0  0  0
 15  6  1  0  0  0  0
 16 15  1  0  0  0  0
 17 15  1  0  0  0  0
 18  2  1  0  0  0  0
 18 21  1  0  0  0  0
 19 24  1  0  0  0  0
 20 21  1  0  0  0  0
 20 19  2  0  0  0  0
 21 22  2  0  0  0  0
 22 23  1  0  0  0  0
 23 27  1  0  0  0  0
 24 23  2  0  0  0  0
 25 19  1  0  0  0  0
 26 20  1  0  0  0  0
 27 34  2  0  0  0  0
 27 28  1  0  0  0  0
 28 29  1  0  0  0  0
 28 30  2  0  0  0  0
 30 31  1  0  0  0  0
 32 33  1  0  0  0  0
 32 30  1  0  0  0  0
 34 32  1  0  0  0  0
M  END
>  <minimizedAffinity>
-4.91120863

$$$$

 OpenBabel03262521003D

 34 36  0  0  1  0  0  0  0  0999 V2000
   37.2520   26.8540   30.3490 N   0  0  0  0  0  0  0  0  0  0  0  0
   38.3670   26.4740   31.1320 C   0  0  1  0  0  0  0  0  0  0  0  0
   38.3720   27.2420   32.4290 C   0  0  0  0  0  0  0  0  0  0  0  0
   37.1140   26.9440   33.1170 N   0  0  0  0  0  0  0  0  0  0  0  0
   36.0640   27.5780   32.3120 C   0  0  0  0  0  0  0  0  0  0  0  0
   35.9910   26.7760   31.0150 C   0  0  2  0  0  0  0  0  0  0  0  0
   37.2720   26.6830   29.3470 H   0  0  0  0  0  0  0  0  0  0  0  0
   39.2930   26.6550   30.5490 H   0  0  0  0  0  0  0  0  0  0  0  0
   39.1720   26.8180   33.0700 H   0  0  0  0  0  0  0  0  0  0  0  0
   38.5110   28.3250   32.2600 H   0  0  0  0  0  0  0  0  0  0  0  0
   37.1830   27.4410   34.0520 H   0  0  0  0  0  0  0  0  0  0  0  0
   36.3070   28.6200   32.0370 H   0  0  0  0  0  0  0  0  0  0  0  0
   35.0780   27.5110   32.8090 H   0  0  0  0  0  0  0  0  0  0  0  0
   35.2110   27.1940   30.3350 H   0  0  0  0  0  0  0  0  0  0  0  0
   35.5760   25.4270   31.3500 N   0  0  0  0  0  0  0  0  0  0  0  0
   34.5480   25.3040   31.3690 H   0  0  0  0  0  0  0  0  0  0  0  0
   35.8860   25.1880   32.3390 H   0  0  0  0  0  0  0  0  0  0  0  0
   38.2920   24.6940   31.6150 S   0  0  0  0  0  0  0  0  0  0  0  0
   41.5170   24.1000   34.0050 C   0  0  0  0  0  0  0  0  0  0  0  0
   40.7410   24.3400   32.8700 C   0  0  0  0  0  0  0  0  0  0  0  0
   39.3790   24.3970   32.9860 C   0  0  0  0  0  0  0  0  0  0  0  0
   38.8430   24.2110   34.2350 N   0  0  0  0  0  0  0  0  0  0  0  0
   39.6090   23.9860   35.2920 C   0  0  0  0  0  0  0  0  0  0  0  0
   40.9460   23.9280   35.1890 N   0  0  0  0  0  0  0  0  0  0  0  0
   42.5980   24.0530   33.9310 H   0  0  0  0  0  0  0  0  0  0  0  0
   41.2080   24.4780   31.9220 H   0  0  0  0  0  0  0  0  0  0  0  0
   38.9770   23.7930   36.6140 C   0  0  0  0  0  0  0  0  0  0  0  0
   37.9230   24.2820   37.3280 C   0  0  0  0  0  0  0  0  0  0  0  0
   37.3400   25.0320   36.8390 H   0  0  0  0  0  0  0  0  0  0  0  0
   37.9270   23.6200   38.5420 C   0  0  0  0  0  0  0  0  0  0  0  0
   37.1500   23.8670   39.2740 H   0  0  0  0  0  0  0  0  0  0  0  0
   38.9600   22.7580   38.5470 N   0  0  0  0  0  0  0  0  0  0  0  0
   39.1510   22.1490   39.3740 H   0  0  0  0  0  0  0  0  0  0  0  0
   39.6050   22.8550   37.3810 N   0  0  0  0  0  0  0  0  0  0  0  0
  1  6  1  0  0  0  0
  1  2  1  0  0  0  0
  2  8  1  6  0  0  0
  2 18  1  0  0  0  0
  2  3  1  0  0  0  0
  3  9  1  0  0  0  0
  3  4  1  0  0  0  0
  4 11  1  0  0  0  0
  5 13  1  0  0  0  0
  5  4  1  0  0  0  0
  6 14  1  6  0  0  0
  6 15  1  0  0  0  0
  6  5  1  0  0  0  0
  7  1  1  0  0  0  0
 10  3  1  0  0  0  0
 12  5  1  0  0  0  0
 15 16  1  0  0  0  0
 15 17  1  0  0  0  0
 18 21  1  0  0  0  0
 19 24  1  0  0  0  0
 20 21  1  0  0  0  0
 20 19  2  0  0  0  0
 21 22  2  0  0  0  0
 22 23  1  0  0  0  0
 23 27  1  0  0  0  0
 24 23  2  0  0  0  0
 25 19  1  0  0  0  0
 26 20  1  0  0  0  0
 27 28  1  0  0  0  0
 27 34  2  0  0  0  0
 28 30  2  0  0  0  0
 29 28  1  0  0  0  0
 30 32  1  0  0  0  0
 30 31  1  0  0  0  0
 32 33  1  0  0  0  0
 34 32  1  0  0  0  0
M  END
>  <minimizedAffinity>
-4.84079027

$$$$

 OpenBabel03262521003D

 34 36  0  0  1  0  0  0  0  0999 V2000
   36.7110   20.9330   33.1120 N   0  0  0  0  0  0  0  0  0  0  0  0
   37.1700   21.8120   32.1040 C   0  0  1  0  0  0  0  0  0  0  0  0
   37.8080   21.0260   30.9860 C   0  0  0  0  0  0  0  0  0  0  0  0
   36.7930   20.1060   30.4670 N   0  0  0  0  0  0  0  0  0  0  0  0
   36.5680   19.1240   31.5330 C   0  0  0  0  0  0  0  0  0  0  0  0
   35.8610   19.8800   32.6550 C   0  0  2  0  0  0  0  0  0  0  0  0
   36.5560   21.2960   34.0490 H   0  0  0  0  0  0  0  0  0  0  0  0
   37.8850   22.5310   32.5540 H   0  0  0  0  0  0  0  0  0  0  0  0
   38.0250   21.7320   30.1590 H   0  0  0  0  0  0  0  0  0  0  0  0
   38.7170   20.4990   31.3270 H   0  0  0  0  0  0  0  0  0  0  0  0
   37.2510   19.6250   29.6400 H   0  0  0  0  0  0  0  0  0  0  0  0
   37.5090   18.7250   31.9520 H   0  0  0  0  0  0  0  0  0  0  0  0
   35.8980   18.3100   31.1970 H   0  0  0  0  0  0  0  0  0  0  0  0
   35.6510   19.2030   33.5170 H   0  0  0  0  0  0  0  0  0  0  0  0
   34.5780   20.3270   32.1490 N   0  0  0  0  0  0  0  0  0  0  0  0
   33.8200   19.6310   32.2740 H   0  0  0  0  0  0  0  0  0  0  0  0
   34.6320   20.4680   31.0970 H   0  0  0  0  0  0  0  0  0  0  0  0
   35.7830   22.7440   31.3210 S   0  0  0  0  0  0  0  0  0  0  0  0
   35.5720   26.7940   31.1900 C   0  0  0  0  0  0  0  0  0  0  0  0
   35.3550   25.4500   30.8830 C   0  0  0  0  0  0  0  0  0  0  0  0
   35.9820   24.4820   31.6190 C   0  0  0  0  0  0  0  0  0  0  0  0
   36.8030   24.8950   32.6370 N   0  0  0  0  0  0  0  0  0  0  0  0
   36.9860   26.1800   32.9020 C   0  0  0  0  0  0  0  0  0  0  0  0
   36.3770   27.1380   32.1860 N   0  0  0  0  0  0  0  0  0  0  0  0
   35.0830   27.5750   30.6170 H   0  0  0  0  0  0  0  0  0  0  0  0
   34.7070   25.1830   30.0810 H   0  0  0  0  0  0  0  0  0  0  0  0
   37.8830   26.5680   34.0110 C   0  0  0  0  0  0  0  0  0  0  0  0
   39.1740   26.3650   34.4060 C   0  0  0  0  0  0  0  0  0  0  0  0
   39.7640   25.7510   33.7620 H   0  0  0  0  0  0  0  0  0  0  0  0
   39.3360   27.0580   35.5910 C   0  0  0  0  0  0  0  0  0  0  0  0
   40.3150   27.0280   36.0830 H   0  0  0  0  0  0  0  0  0  0  0  0
   38.1700   27.6580   35.8920 N   0  0  0  0  0  0  0  0  0  0  0  0
   38.0690   28.2400   36.7540 H   0  0  0  0  0  0  0  0  0  0  0  0
   37.2810   27.3670   34.9390 N   0  0  0  0  0  0  0  0  0  0  0  0
  1  7  1  0  0  0  0
  2  8  1  1  0  0  0
  2  1  1  0  0  0  0
  3 10  1  0  0  0  0
  3  2  1  0  0  0  0
  4  3  1  0  0  0  0
  4  5  1  0  0  0  0
  5 12  1  0  0  0  0
  5  6  1  0  0  0  0
  6  1  1  0  0  0  0
  6 14  1  1  0  0  0
  9  3  1  0  0  0  0
 11  4  1  0  0  0  0
 13  5  1  0  0  0  0
 15 16  1  0  0  0  0
 15  6  1  0  0  0  0
 17 15  1  0  0  0  0
 18 21  1  0  0  0  0
 18  2  1  0  0  0  0
 19 24  1  0  0  0  0
 20 19  2  0  0  0  0
 20 21  1  0  0  0  0
 21 22  2  0  0  0  0
 22 23  1  0  0  0  0
 23 27  1  0  0  0  0
 24 23  2  0  0  0  0
 25 19  1  0  0  0  0
 26 20  1  0  0  0  0
 27 28  1  0  0  0  0
 27 34  2  0  0  0  0
 28 30  2  0  0  0  0
 29 28  1  0  0  0  0
 30 32  1  0  0  0  0
 30 31  1  0  0  0  0
 32 33  1  0  0  0  0
 34 32  1  0  0  0  0
M  END
>  <minimizedAffinity>
-4.77088642

$$$$

 OpenBabel03262521003D

 34 36  0  0  1  0  0  0  0  0999 V2000
   38.6460   27.1890   32.8080 N   0  0  0  0  0  0  0  0  0  0  0  0
   38.8060   26.6340   34.0990 C   0  0  1  0  0  0  0  0  0  0  0  0
   38.0410   27.4510   35.1090 C   0  0  0  0  0  0  0  0  0  0  0  0
   36.6350   27.4450   34.6980 N   0  0  0  0  0  0  0  0  0  0  0  0
   36.5800   28.2340   33.4620 C   0  0  0  0  0  0  0  0  0  0  0  0
   37.2930   27.3980   32.4030 C   0  0  2  0  0  0  0  0  0  0  0  0
   39.3290   26.9670   32.0880 H   0  0  0  0  0  0  0  0  0  0  0  0
   39.8870   26.5980   34.3420 H   0  0  0  0  0  0  0  0  0  0  0  0
   38.0730   26.9080   36.0760 H   0  0  0  0  0  0  0  0  0  0  0  0
   38.4470   28.4740   35.1970 H   0  0  0  0  0  0  0  0  0  0  0  0
   36.1180   27.9640   35.4660 H   0  0  0  0  0  0  0  0  0  0  0  0
   37.1260   29.1910   33.5440 H   0  0  0  0  0  0  0  0  0  0  0  0
   35.5370   28.3900   33.1290 H   0  0  0  0  0  0  0  0  0  0  0  0
   37.3010   27.9280   31.4210 H   0  0  0  0  0  0  0  0  0  0  0  0
   36.5320   26.1780   32.2150 N   0  0  0  0  0  0  0  0  0  0  0  0
   35.7830   26.2630   31.5030 H   0  0  0  0  0  0  0  0  0  0  0  0
   36.0140   25.9310   33.1100 H   0  0  0  0  0  0  0  0  0  0  0  0
   38.1010   24.9320   34.2070 S   0  0  0  0  0  0  0  0  0  0  0  0
   38.5070   23.7310   38.0610 C   0  0  0  0  0  0  0  0  0  0  0  0
   38.0260   24.3840   36.9250 C   0  0  0  0  0  0  0  0  0  0  0  0
   38.6250   24.1590   35.7150 C   0  0  0  0  0  0  0  0  0  0  0  0
   39.6830   23.2860   35.6870 N   0  0  0  0  0  0  0  0  0  0  0  0
   40.1130   22.6830   36.7840 C   0  0  0  0  0  0  0  0  0  0  0  0
   39.5350   22.8960   37.9760 N   0  0  0  0  0  0  0  0  0  0  0  0
   38.0450   23.8970   39.0280 H   0  0  0  0  0  0  0  0  0  0  0  0
   37.2010   25.0520   37.0020 H   0  0  0  0  0  0  0  0  0  0  0  0
   41.2590   21.7520   36.6940 C   0  0  0  0  0  0  0  0  0  0  0  0
   42.1630   21.3250   35.7660 C   0  0  0  0  0  0  0  0  0  0  0  0
   42.0670   21.7550   34.7940 H   0  0  0  0  0  0  0  0  0  0  0  0
   42.9790   20.4090   36.4040 C   0  0  0  0  0  0  0  0  0  0  0  0
   43.7850   19.9390   35.8290 H   0  0  0  0  0  0  0  0  0  0  0  0
   42.5680   20.2960   37.6800 N   0  0  0  0  0  0  0  0  0  0  0  0
   43.0500   19.6520   38.3470 H   0  0  0  0  0  0  0  0  0  0  0  0
   41.5240   21.1070   37.8670 N   0  0  0  0  0  0  0  0  0  0  0  0
  1  2  1  0  0  0  0
  2 18  1  0  0  0  0
  2  8  1  1  0  0  0
  2  3  1  0  0  0  0
  3 10  1  0  0  0  0
  3  9  1  0  0  0  0
  4  3  1  0  0  0  0
  4 11  1  0  0  0  0
  5 12  1  0  0  0  0
  5  4  1  0  0  0  0
  6 14  1  6  0  0  0
  6  1  1  0  0  0  0
  6  5  1  0  0  0  0
  7  1  1  0  0  0  0
 13  5  1  0  0  0  0
 15  6  1  0  0  0  0
 15 17  1  0  0  0  0
 16 15  1  0  0  0  0
 18 21  1  0  0  0  0
 19 25  1  0  0  0  0
 20 26  1  0  0  0  0
 20 19  2  0  0  0  0
 21 20  1  0  0  0  0
 22 21  2  0  0  0  0
 22 23  1  0  0  0  0
 23 24  2  0  0  0  0
 24 19  1  0  0  0  0
 27 23  1  0  0  0  0
 27 34  2  0  0  0  0
 28 30  2  0  0  0  0
 28 27  1  0  0  0  0
 29 28  1  0  0  0  0
 30 32  1  0  0  0  0
 31 30  1  0  0  0  0
 32 34  1  0  0  0  0
 32 33  1  0  0  0  0
M  END
>  <minimizedAffinity>
-4.74963713

$$$$

 OpenBabel03262521003D

 34 36  0  0  1  0  0  0  0  0999 V2000
   38.4270   27.2340   31.6790 N   0  0  0  0  0  0  0  0  0  0  0  0
   37.0470   26.9810   31.8560 C   0  0  1  0  0  0  0  0  0  0  0  0
   36.2350   28.0150   31.1170 C   0  0  0  0  0  0  0  0  0  0  0  0
   36.6130   27.9370   29.7040 N   0  0  0  0  0  0  0  0  0  0  0  0
   37.9940   28.4280   29.6370 C   0  0  0  0  0  0  0  0  0  0  0  0
   38.8480   27.3650   30.3210 C   0  0  2  0  0  0  0  0  0  0  0  0
   39.0890   26.8460   32.3460 H   0  0  0  0  0  0  0  0  0  0  0  0
   36.8180   26.9840   32.9410 H   0  0  0  0  0  0  0  0  0  0  0  0
   35.1710   27.7030   31.1620 H   0  0  0  0  0  0  0  0  0  0  0  0
   36.3860   29.0250   31.5370 H   0  0  0  0  0  0  0  0  0  0  0  0
   35.9740   28.6220   29.2070 H   0  0  0  0  0  0  0  0  0  0  0  0
   38.1380   29.3710   30.1940 H   0  0  0  0  0  0  0  0  0  0  0  0
   38.3380   28.5200   28.5890 H   0  0  0  0  0  0  0  0  0  0  0  0
   39.9250   27.6610   30.3170 H   0  0  0  0  0  0  0  0  0  0  0  0
   38.7460   26.1450   29.5440 N   0  0  0  0  0  0  0  0  0  0  0  0
   39.4470   26.0790   28.7840 H   0  0  0  0  0  0  0  0  0  0  0  0
   37.8100   26.1140   29.0400 H   0  0  0  0  0  0  0  0  0  0  0  0
   36.5480   25.3570   31.1350 S   0  0  0  0  0  0  0  0  0  0  0  0
   38.0970   23.1200   34.1450 C   0  0  0  0  0  0  0  0  0  0  0  0
   37.8180   24.2100   33.3180 C   0  0  0  0  0  0  0  0  0  0  0  0
   36.9750   24.0460   32.2520 C   0  0  0  0  0  0  0  0  0  0  0  0
   36.4440   22.7980   32.0530 N   0  0  0  0  0  0  0  0  0  0  0  0
   36.7300   21.7850   32.8570 C   0  0  0  0  0  0  0  0  0  0  0  0
   37.5550   21.9340   33.9050 N   0  0  0  0  0  0  0  0  0  0  0  0
   38.7620   23.2310   34.9950 H   0  0  0  0  0  0  0  0  0  0  0  0
   38.2570   25.1590   33.5180 H   0  0  0  0  0  0  0  0  0  0  0  0
   36.1280   20.4610   32.5940 C   0  0  0  0  0  0  0  0  0  0  0  0
   35.5250   19.4530   33.2870 C   0  0  0  0  0  0  0  0  0  0  0  0
   35.4280   19.6070   34.3390 H   0  0  0  0  0  0  0  0  0  0  0  0
   35.2010   18.4780   32.3620 C   0  0  0  0  0  0  0  0  0  0  0  0
   34.6990   17.5690   32.7150 H   0  0  0  0  0  0  0  0  0  0  0  0
   35.6020   18.8990   31.1480 N   0  0  0  0  0  0  0  0  0  0  0  0
   35.4540   18.3120   30.2970 H   0  0  0  0  0  0  0  0  0  0  0  0
   36.1670   20.1030   31.2780 N   0  0  0  0  0  0  0  0  0  0  0  0
  1  2  1  0  0  0  0
  1  7  1  0  0  0  0
  2  8  1  1  0  0  0
  3  9  1  0  0  0  0
  3 10  1  0  0  0  0
  3  2  1  0  0  0  0
  4  3  1  0  0  0  0
  5  4  1  0  0  0  0
  5 12  1  0  0  0  0
  5  6  1  0  0  0  0
  6 14  1  6  0  0  0
  6  1  1  0  0  0  0
 11  4  1  0  0  0  0
 13  5  1  0  0  0  0
 15  6  1  0  0  0  0
 16 15  1  0  0  0  0
 17 15  1  0  0  0  0
 18  2  1  0  0  0  0
 18 21  1  0  0  0  0
 19 25  1  0  0  0  0
 20 26  1  0  0  0  0
 20 19  2  0  0  0  0
 21 20  1  0  0  0  0
 22 21  2  0  0  0  0
 22 23  1  0  0  0  0
 23 24  2  0  0  0  0
 24 19  1  0  0  0  0
 27 23  1  0  0  0  0
 27 28  1  0  0  0  0
 28 29  1  0  0  0  0
 30 31  1  0  0  0  0
 30 28  2  0  0  0  0
 32 34  1  0  0  0  0
 32 30  1  0  0  0  0
 33 32  1  0  0  0  0
 34 27  2  0  0  0  0
M  END
>  <minimizedAffinity>
-4.74845457

$$$$

 OpenBabel03262521003D

 34 36  0  0  1  0  0  0  0  0999 V2000
   35.3450   27.7780   31.2950 N   0  0  0  0  0  0  0  0  0  0  0  0
   36.5200   26.9920   31.2950 C   0  0  1  0  0  0  0  0  0  0  0  0
   37.5230   27.5630   30.3250 C   0  0  0  0  0  0  0  0  0  0  0  0
   37.8030   28.9370   30.7490 N   0  0  0  0  0  0  0  0  0  0  0  0
   36.5690   29.6890   30.4950 C   0  0  0  0  0  0  0  0  0  0  0  0
   35.5520   29.1750   31.5110 C   0  0  2  0  0  0  0  0  0  0  0  0
   34.4770   27.3690   31.6320 H   0  0  0  0  0  0  0  0  0  0  0  0
   36.2530   25.9480   31.0330 H   0  0  0  0  0  0  0  0  0  0  0  0
   38.4750   27.0080   30.4570 H   0  0  0  0  0  0  0  0  0  0  0  0
   37.1580   27.5120   29.2840 H   0  0  0  0  0  0  0  0  0  0  0  0
   38.5620   29.2820   30.0920 H   0  0  0  0  0  0  0  0  0  0  0  0
   36.1520   29.4970   29.4900 H   0  0  0  0  0  0  0  0  0  0  0  0
   36.7110   30.7710   30.6740 H   0  0  0  0  0  0  0  0  0  0  0  0
   34.5730   29.6950   31.3870 H   0  0  0  0  0  0  0  0  0  0  0  0
   36.0400   29.5070   32.8350 N   0  0  0  0  0  0  0  0  0  0  0  0
   35.7450   30.4450   33.1610 H   0  0  0  0  0  0  0  0  0  0  0  0
   37.1020   29.5560   32.8280 H   0  0  0  0  0  0  0  0  0  0  0  0
   37.3590   27.0100   32.9390 S   0  0  0  0  0  0  0  0  0  0  0  0
   37.9300   22.9980   33.1360 C   0  0  0  0  0  0  0  0  0  0  0  0
   37.6720   24.2720   32.6260 C   0  0  0  0  0  0  0  0  0  0  0  0
   37.6740   25.3470   33.4720 C   0  0  0  0  0  0  0  0  0  0  0  0
   37.9330   25.1090   34.7980 N   0  0  0  0  0  0  0  0  0  0  0  0
   38.1740   23.8870   35.2480 C   0  0  0  0  0  0  0  0  0  0  0  0
   38.1760   22.8240   34.4280 N   0  0  0  0  0  0  0  0  0  0  0  0
   37.9340   22.1340   32.4810 H   0  0  0  0  0  0  0  0  0  0  0  0
   37.4770   24.4020   31.5880 H   0  0  0  0  0  0  0  0  0  0  0  0
   38.4480   23.6890   36.6870 C   0  0  0  0  0  0  0  0  0  0  0  0
   38.0140   24.1670   37.8890 C   0  0  0  0  0  0  0  0  0  0  0  0
   37.2480   24.9090   37.8430 H   0  0  0  0  0  0  0  0  0  0  0  0
   38.7410   23.5060   38.8610 C   0  0  0  0  0  0  0  0  0  0  0  0
   38.5450   23.7450   39.9130 H   0  0  0  0  0  0  0  0  0  0  0  0
   39.5860   22.6560   38.2500 N   0  0  0  0  0  0  0  0  0  0  0  0
   40.2360   22.0510   38.8020 H   0  0  0  0  0  0  0  0  0  0  0  0
   39.4160   22.7590   36.9290 N   0  0  0  0  0  0  0  0  0  0  0  0
  1  6  1  0  0  0  0
  1  7  1  0  0  0  0
  2  8  1  6  0  0  0
  2  1  1  0  0  0  0
  2 18  1  0  0  0  0
  3  9  1  0  0  0  0
  3  4  1  0  0  0  0
  3  2  1  0  0  0  0
  5 13  1  0  0  0  0
  5  4  1  0  0  0  0
  5  6  1  0  0  0  0
  6 14  1  6  0  0  0
  6 15  1  0  0  0  0
 10  3  1  0  0  0  0
 11  4  1  0  0  0  0
 12  5  1  0  0  0  0
 15 16  1  0  0  0  0
 17 15  1  0  0  0  0
 18 21  1  0  0  0  0
 19 24  1  0  0  0  0
 20 19  2  0  0  0  0
 20 21  1  0  0  0  0
 21 22  2  0  0  0  0
 22 23  1  0  0  0  0
 23 27  1  0  0  0  0
 24 23  2  0  0  0  0
 25 19  1  0  0  0  0
 26 20  1  0  0  0  0
 27 34  2  0  0  0  0
 27 28  1  0  0  0  0
 28 30  2  0  0  0  0
 29 28  1  0  0  0  0
 30 31  1  0  0  0  0
 32 33  1  0  0  0  0
 32 30  1  0  0  0  0
 34 32  1  0  0  0  0
M  END
>  <minimizedAffinity>
-4.69189501

$$$$
