
 OpenBabel03272504513D

 41 44  0  0  1  0  0  0  0  0999 V2000
   36.9980   21.7610   31.4890 N   0  0  0  0  0  0  0  0  0  0  0  0
   37.9560   21.2740   30.5310 C   0  0  0  0  0  0  0  0  0  0  0  0
   37.9850   19.7860   30.4060 C   0  0  0  0  0  0  0  0  0  0  0  0
   36.6220   19.1760   30.6520 C   0  0  0  0  0  0  0  0  0  0  0  0
   36.2670   19.4790   32.0760 C   0  0  0  0  0  0  0  0  0  0  0  0
   36.1950   20.9510   32.3460 C   0  0  1  0  0  0  0  0  0  0  0  0
   38.9730   21.5870   30.8870 H   0  0  0  0  0  0  0  0  0  0  0  0
   37.8060   21.7890   29.5670 H   0  0  0  0  0  0  0  0  0  0  0  0
   38.7180   19.2700   31.0400 H   0  0  0  0  0  0  0  0  0  0  0  0
   38.2540   19.5340   29.3440 H   0  0  0  0  0  0  0  0  0  0  0  0
   36.6890   18.1040   30.4590 H   0  0  0  0  0  0  0  0  0  0  0  0
   35.8850   19.6460   29.9440 H   0  0  0  0  0  0  0  0  0  0  0  0
   35.3120   19.0170   32.4020 H   0  0  0  0  0  0  0  0  0  0  0  0
   37.0980   19.0660   32.6960 H   0  0  0  0  0  0  0  0  0  0  0  0
   35.1380   21.2690   32.2110 H   0  0  0  0  0  0  0  0  0  0  0  0
   35.6410   23.7900   31.3020 C   0  0  0  0  0  0  0  0  0  0  0  0
   36.8570   23.1750   31.5740 C   0  0  0  0  0  0  0  0  0  0  0  0
   37.9280   24.0000   31.9350 C   0  0  0  0  0  0  0  0  0  0  0  0
   37.7160   25.3460   31.9990 N   0  0  0  0  0  0  0  0  0  0  0  0
   36.5430   25.9090   31.7340 C   0  0  0  0  0  0  0  0  0  0  0  0
   35.5020   25.1210   31.3840 N   0  0  0  0  0  0  0  0  0  0  0  0
   34.7680   23.2200   31.0160 H   0  0  0  0  0  0  0  0  0  0  0  0
   38.8980   23.5810   32.1610 H   0  0  0  0  0  0  0  0  0  0  0  0
   36.3490   27.3400   31.8160 C   0  0  0  0  0  0  0  0  0  0  0  0
   36.1540   27.9710   33.0040 C   0  0  0  0  0  0  0  0  0  0  0  0
   35.9690   29.3290   33.1200 C   0  0  0  0  0  0  0  0  0  0  0  0
   35.9920   30.0200   31.9260 C   0  0  0  0  0  0  0  0  0  0  0  0
   36.1900   29.4210   30.6560 C   0  0  0  0  0  0  0  0  0  0  0  0
   36.3650   28.0640   30.6650 N   0  0  0  0  0  0  0  0  0  0  0  0
   36.1500   27.3590   33.8930 H   0  0  0  0  0  0  0  0  0  0  0  0
   35.8140   29.8520   34.0380 H   0  0  0  0  0  0  0  0  0  0  0  0
   35.8530   31.0990   31.9160 H   0  0  0  0  0  0  0  0  0  0  0  0
   36.1990   30.0060   29.7660 H   0  0  0  0  0  0  0  0  0  0  0  0
   36.4990   21.1990   33.7980 C   0  0  0  0  0  0  0  0  0  0  0  0
   35.5240   20.6570   34.6410 C   0  0  0  0  0  0  0  0  0  0  0  0
   34.5990   20.1020   34.5400 H   0  0  0  0  0  0  0  0  0  0  0  0
   35.8870   20.9380   35.9500 C   0  0  0  0  0  0  0  0  0  0  0  0
   35.5570   20.7900   36.9690 H   0  0  0  0  0  0  0  0  0  0  0  0
   37.0550   21.6310   35.8630 N   0  0  0  0  0  0  0  0  0  0  0  0
   37.7530   22.0770   36.5040 H   0  0  0  0  0  0  0  0  0  0  0  0
   37.4200   21.7870   34.6090 N   0  0  0  0  0  0  0  0  0  0  0  0
  1 17  1  0  0  0  0
  1  6  1  0  0  0  0
  2  7  1  0  0  0  0
  2  1  1  0  0  0  0
  3  2  1  0  0  0  0
  3  4  1  0  0  0  0
  3  9  1  0  0  0  0
  4  5  1  0  0  0  0
  5  6  1  0  0  0  0
  5 13  1  0  0  0  0
  5 14  1  0  0  0  0
  6 15  1  6  0  0  0
  6 34  1  0  0  0  0
  8  2  1  0  0  0  0
 10  3  1  0  0  0  0
 11  4  1  0  0  0  0
 12  4  1  0  0  0  0
 16 21  2  0  0  0  0
 16 17  1  0  0  0  0
 17 18  2  0  0  0  0
 18 19  1  0  0  0  0
 18 23  1  0  0  0  0
 20 24  1  0  0  0  0
 20 19  2  0  0  0  0
 21 20  1  0  0  0  0
 22 16  1  0  0  0  0
 24 25  1  0  0  0  0
 25 26  2  0  0  0  0
 25 30  1  0  0  0  0
 26 31  1  0  0  0  0
 27 26  1  0  0  0  0
 28 29  1  0  0  0  0
 28 27  2  0  0  0  0
 29 24  2  0  0  0  0
 32 27  1  0  0  0  0
 33 28  1  0  0  0  0
 34 41  2  0  0  0  0
 34 35  1  0  0  0  0
 35 37  2  0  0  0  0
 36 35  1  0  0  0  0
 37 38  1  0  0  0  0
 39 37  1  0  0  0  0
 39 40  1  0  0  0  0
 41 39  1  0  0  0  0
M  END
>  <minimizedAffinity>
-5.52627516

$$$$

 OpenBabel03272504513D

 41 44  0  0  1  0  0  0  0  0999 V2000
   36.1200   27.9780   31.8930 N   0  0  0  0  0  0  0  0  0  0  0  0
   35.9150   28.5520   33.1970 C   0  0  0  0  0  0  0  0  0  0  0  0
   35.8020   30.0420   33.1920 C   0  0  0  0  0  0  0  0  0  0  0  0
   35.1730   30.5520   31.9140 C   0  0  0  0  0  0  0  0  0  0  0  0
   36.1080   30.1890   30.8000 C   0  0  0  0  0  0  0  0  0  0  0  0
   36.3110   28.7090   30.6830 C   0  0  1  0  0  0  0  0  0  0  0  0
   36.8140   28.2990   33.8190 H   0  0  0  0  0  0  0  0  0  0  0  0
   35.0620   28.0520   33.6880 H   0  0  0  0  0  0  0  0  0  0  0  0
   36.7370   30.5900   33.3630 H   0  0  0  0  0  0  0  0  0  0  0  0
   35.1060   30.3370   34.0230 H   0  0  0  0  0  0  0  0  0  0  0  0
   35.0360   31.6300   32.0080 H   0  0  0  0  0  0  0  0  0  0  0  0
   34.1740   30.0510   31.7800 H   0  0  0  0  0  0  0  0  0  0  0  0
   35.7890   30.5780   29.8100 H   0  0  0  0  0  0  0  0  0  0  0  0
   37.0940   30.6420   31.0660 H   0  0  0  0  0  0  0  0  0  0  0  0
   35.5780   28.3240   29.9410 H   0  0  0  0  0  0  0  0  0  0  0  0
   35.2530   25.8710   30.9980 C   0  0  0  0  0  0  0  0  0  0  0  0
   36.1330   26.5560   31.8270 C   0  0  0  0  0  0  0  0  0  0  0  0
   37.0260   25.7930   32.5870 C   0  0  0  0  0  0  0  0  0  0  0  0
   36.9810   24.4340   32.4680 N   0  0  0  0  0  0  0  0  0  0  0  0
   36.1300   23.8040   31.6680 C   0  0  0  0  0  0  0  0  0  0  0  0
   35.2630   24.5310   30.9300 N   0  0  0  0  0  0  0  0  0  0  0  0
   34.5320   26.3890   30.3820 H   0  0  0  0  0  0  0  0  0  0  0  0
   37.7360   26.2670   33.2480 H   0  0  0  0  0  0  0  0  0  0  0  0
   36.1110   22.3610   31.5610 C   0  0  0  0  0  0  0  0  0  0  0  0
   35.1180   21.6130   32.1110 C   0  0  0  0  0  0  0  0  0  0  0  0
   35.0670   20.2410   32.0280 C   0  0  0  0  0  0  0  0  0  0  0  0
   36.1130   19.6650   31.3360 C   0  0  0  0  0  0  0  0  0  0  0  0
   37.1760   20.3880   30.7410 C   0  0  0  0  0  0  0  0  0  0  0  0
   37.1200   21.7470   30.8880 N   0  0  0  0  0  0  0  0  0  0  0  0
   34.3360   22.1410   32.6360 H   0  0  0  0  0  0  0  0  0  0  0  0
   34.3010   19.6280   32.4490 H   0  0  0  0  0  0  0  0  0  0  0  0
   36.1590   18.5840   31.2180 H   0  0  0  0  0  0  0  0  0  0  0  0
   37.9580   19.8890   30.2180 H   0  0  0  0  0  0  0  0  0  0  0  0
   37.6620   28.4470   30.0760 C   0  0  0  0  0  0  0  0  0  0  0  0
   37.6960   28.7540   28.7130 C   0  0  0  0  0  0  0  0  0  0  0  0
   37.0140   29.1330   27.9610 H   0  0  0  0  0  0  0  0  0  0  0  0
   38.9720   28.4770   28.2440 C   0  0  0  0  0  0  0  0  0  0  0  0
   39.5660   28.5070   27.3410 H   0  0  0  0  0  0  0  0  0  0  0  0
   39.6630   28.0170   29.3230 N   0  0  0  0  0  0  0  0  0  0  0  0
   40.6270   27.6740   29.5500 H   0  0  0  0  0  0  0  0  0  0  0  0
   38.9050   27.9960   30.3970 N   0  0  0  0  0  0  0  0  0  0  0  0
  1  2  1  0  0  0  0
  2  8  1  0  0  0  0
  2  7  1  0  0  0  0
  3  2  1  0  0  0  0
  3  9  1  0  0  0  0
  3 10  1  0  0  0  0
  4 11  1  0  0  0  0
  4  3  1  0  0  0  0
  5 14  1  0  0  0  0
  5  4  1  0  0  0  0
  6 15  1  6  0  0  0
  6  5  1  0  0  0  0
  6  1  1  0  0  0  0
 12  4  1  0  0  0  0
 13  5  1  0  0  0  0
 16 17  1  0  0  0  0
 17  1  1  0  0  0  0
 17 18  2  0  0  0  0
 18 23  1  0  0  0  0
 19 18  1  0  0  0  0
 20 19  2  0  0  0  0
 21 16  2  0  0  0  0
 21 20  1  0  0  0  0
 22 16  1  0  0  0  0
 24 20  1  0  0  0  0
 24 25  1  0  0  0  0
 25 30  1  0  0  0  0
 26 25  2  0  0  0  0
 26 31  1  0  0  0  0
 27 26  1  0  0  0  0
 28 29  1  0  0  0  0
 28 27  2  0  0  0  0
 29 24  2  0  0  0  0
 32 27  1  0  0  0  0
 33 28  1  0  0  0  0
 34 41  2  0  0  0  0
 34  6  1  0  0  0  0
 35 34  1  0  0  0  0
 36 35  1  0  0  0  0
 37 35  2  0  0  0  0
 37 39  1  0  0  0  0
 38 37  1  0  0  0  0
 39 40  1  0  0  0  0
 39 41  1  0  0  0  0
M  END
>  <minimizedAffinity>
-5.44871283

$$$$

 OpenBabel03272504513D

 41 44  0  0  1  0  0  0  0  0999 V2000
   41.1950   23.9140   35.2860 N   0  0  0  0  0  0  0  0  0  0  0  0
   42.5030   24.3870   35.6560 C   0  0  0  0  0  0  0  0  0  0  0  0
   43.3260   23.3790   36.3900 C   0  0  0  0  0  0  0  0  0  0  0  0
   43.0110   21.9670   35.9460 C   0  0  0  0  0  0  0  0  0  0  0  0
   41.5830   21.7080   36.3200 C   0  0  0  0  0  0  0  0  0  0  0  0
   40.6350   22.6520   35.6440 C   0  0  1  0  0  0  0  0  0  0  0  0
   42.3600   25.2550   36.3530 H   0  0  0  0  0  0  0  0  0  0  0  0
   43.0100   24.7990   34.7670 H   0  0  0  0  0  0  0  0  0  0  0  0
   43.2650   23.4220   37.4850 H   0  0  0  0  0  0  0  0  0  0  0  0
   44.4040   23.5570   36.1270 H   0  0  0  0  0  0  0  0  0  0  0  0
   43.7020   21.2900   36.4490 H   0  0  0  0  0  0  0  0  0  0  0  0
   43.1540   21.9010   34.8320 H   0  0  0  0  0  0  0  0  0  0  0  0
   41.2510   20.6700   36.1100 H   0  0  0  0  0  0  0  0  0  0  0  0
   41.5130   21.8940   37.4190 H   0  0  0  0  0  0  0  0  0  0  0  0
   40.2820   22.1660   34.7090 H   0  0  0  0  0  0  0  0  0  0  0  0
   40.2100   26.1190   34.8820 C   0  0  0  0  0  0  0  0  0  0  0  0
   40.4080   24.7990   34.4960 C   0  0  0  0  0  0  0  0  0  0  0  0
   39.8070   24.3810   33.3030 C   0  0  0  0  0  0  0  0  0  0  0  0
   39.0700   25.2880   32.5980 N   0  0  0  0  0  0  0  0  0  0  0  0
   38.8960   26.5440   32.9900 C   0  0  0  0  0  0  0  0  0  0  0  0
   39.4730   26.9570   34.1400 N   0  0  0  0  0  0  0  0  0  0  0  0
   40.6410   26.5150   35.7910 H   0  0  0  0  0  0  0  0  0  0  0  0
   39.9260   23.3690   32.9480 H   0  0  0  0  0  0  0  0  0  0  0  0
   38.1130   27.4820   32.2150 C   0  0  0  0  0  0  0  0  0  0  0  0
   38.4760   27.8550   30.9590 C   0  0  0  0  0  0  0  0  0  0  0  0
   37.7560   28.7420   30.1940 C   0  0  0  0  0  0  0  0  0  0  0  0
   36.6200   29.2390   30.7990 C   0  0  0  0  0  0  0  0  0  0  0  0
   36.1890   28.8900   32.1040 C   0  0  0  0  0  0  0  0  0  0  0  0
   36.9840   27.9990   32.7690 N   0  0  0  0  0  0  0  0  0  0  0  0
   39.3790   27.4210   30.5560 H   0  0  0  0  0  0  0  0  0  0  0  0
   38.0150   29.0540   29.2060 H   0  0  0  0  0  0  0  0  0  0  0  0
   35.9850   29.9480   30.2710 H   0  0  0  0  0  0  0  0  0  0  0  0
   35.3000   29.3060   32.5210 H   0  0  0  0  0  0  0  0  0  0  0  0
   39.4050   22.8060   36.4970 C   0  0  0  0  0  0  0  0  0  0  0  0
   39.7190   23.1070   37.8260 C   0  0  0  0  0  0  0  0  0  0  0  0
   40.6110   23.2630   38.4210 H   0  0  0  0  0  0  0  0  0  0  0  0
   38.5290   23.2250   38.5300 C   0  0  0  0  0  0  0  0  0  0  0  0
   38.1520   23.4300   39.5210 H   0  0  0  0  0  0  0  0  0  0  0  0
   37.5450   22.9960   37.6200 N   0  0  0  0  0  0  0  0  0  0  0  0
   36.4980   22.9580   37.5870 H   0  0  0  0  0  0  0  0  0  0  0  0
   38.0470   22.7500   36.4290 N   0  0  0  0  0  0  0  0  0  0  0  0
  1  6  1  0  0  0  0
  1  2  1  0  0  0  0
  2  7  1  0  0  0  0
  2  3  1  0  0  0  0
  3  9  1  0  0  0  0
  4  5  1  0  0  0  0
  4  3  1  0  0  0  0
  4 11  1  0  0  0  0
  5 14  1  0  0  0  0
  6 15  1  6  0  0  0
  6  5  1  0  0  0  0
  6 34  1  0  0  0  0
  8  2  1  0  0  0  0
 10  3  1  0  0  0  0
 12  4  1  0  0  0  0
 13  5  1  0  0  0  0
 16 22  1  0  0  0  0
 17 16  1  0  0  0  0
 17  1  1  0  0  0  0
 18 17  2  0  0  0  0
 19 20  2  0  0  0  0
 19 18  1  0  0  0  0
 20 21  1  0  0  0  0
 21 16  2  0  0  0  0
 23 18  1  0  0  0  0
 24 29  1  0  0  0  0
 24 20  1  0  0  0  0
 25 24  2  0  0  0  0
 26 27  2  0  0  0  0
 26 25  1  0  0  0  0
 27 28  1  0  0  0  0
 28 33  1  0  0  0  0
 28 29  2  0  0  0  0
 30 25  1  0  0  0  0
 31 26  1  0  0  0  0
 32 27  1  0  0  0  0
 34 35  1  0  0  0  0
 35 36  1  0  0  0  0
 35 37  2  0  0  0  0
 37 38  1  0  0  0  0
 39 37  1  0  0  0  0
 40 39  1  0  0  0  0
 41 34  2  0  0  0  0
 41 39  1  0  0  0  0
M  END
>  <minimizedAffinity>
-5.39742184

$$$$

 OpenBabel03272504513D

 41 44  0  0  1  0  0  0  0  0999 V2000
   37.1810   21.7720   32.9350 N   0  0  0  0  0  0  0  0  0  0  0  0
   36.3080   21.0630   33.8340 C   0  0  0  0  0  0  0  0  0  0  0  0
   35.1510   20.4000   33.1590 C   0  0  0  0  0  0  0  0  0  0  0  0
   35.5040   19.9460   31.7600 C   0  0  0  0  0  0  0  0  0  0  0  0
   35.8100   21.1830   30.9710 C   0  0  0  0  0  0  0  0  0  0  0  0
   36.9650   21.9510   31.5370 C   0  0  1  0  0  0  0  0  0  0  0  0
   35.8770   21.8170   34.5450 H   0  0  0  0  0  0  0  0  0  0  0  0
   36.9030   20.3720   34.4560 H   0  0  0  0  0  0  0  0  0  0  0  0
   34.2270   20.9910   33.1120 H   0  0  0  0  0  0  0  0  0  0  0  0
   34.9020   19.4700   33.7370 H   0  0  0  0  0  0  0  0  0  0  0  0
   34.6540   19.3950   31.3560 H   0  0  0  0  0  0  0  0  0  0  0  0
   36.4030   19.2730   31.8170 H   0  0  0  0  0  0  0  0  0  0  0  0
   36.0130   20.9850   29.8980 H   0  0  0  0  0  0  0  0  0  0  0  0
   34.9040   21.8320   31.0520 H   0  0  0  0  0  0  0  0  0  0  0  0
   37.8850   21.6150   31.0110 H   0  0  0  0  0  0  0  0  0  0  0  0
   39.6180   21.9060   33.1260 C   0  0  0  0  0  0  0  0  0  0  0  0
   38.3540   22.3350   33.5120 C   0  0  0  0  0  0  0  0  0  0  0  0
   38.2850   23.3400   34.4830 C   0  0  0  0  0  0  0  0  0  0  0  0
   39.4530   23.8340   34.9880 N   0  0  0  0  0  0  0  0  0  0  0  0
   40.6490   23.4050   34.6010 C   0  0  0  0  0  0  0  0  0  0  0  0
   40.7260   22.4360   33.6630 N   0  0  0  0  0  0  0  0  0  0  0  0
   39.7520   21.1330   32.3820 H   0  0  0  0  0  0  0  0  0  0  0  0
   37.3320   23.7180   34.8230 H   0  0  0  0  0  0  0  0  0  0  0  0
   41.8690   23.9540   35.1520 C   0  0  0  0  0  0  0  0  0  0  0  0
   42.5500   23.3300   36.1500 C   0  0  0  0  0  0  0  0  0  0  0  0
   43.7130   23.8210   36.6960 C   0  0  0  0  0  0  0  0  0  0  0  0
   44.1490   25.0130   36.1530 C   0  0  0  0  0  0  0  0  0  0  0  0
   43.4850   25.7110   35.1130 C   0  0  0  0  0  0  0  0  0  0  0  0
   42.3390   25.1260   34.6490 N   0  0  0  0  0  0  0  0  0  0  0  0
   42.1430   22.4010   36.5190 H   0  0  0  0  0  0  0  0  0  0  0  0
   44.2700   23.3550   37.4790 H   0  0  0  0  0  0  0  0  0  0  0  0
   45.0600   25.4800   36.5210 H   0  0  0  0  0  0  0  0  0  0  0  0
   43.8690   26.6290   34.7330 H   0  0  0  0  0  0  0  0  0  0  0  0
   36.8120   23.4030   31.1750 C   0  0  0  0  0  0  0  0  0  0  0  0
   35.5150   23.8700   31.4050 C   0  0  0  0  0  0  0  0  0  0  0  0
   34.5760   23.4750   31.7770 H   0  0  0  0  0  0  0  0  0  0  0  0
   35.4710   25.2080   31.0410 C   0  0  0  0  0  0  0  0  0  0  0  0
   34.7940   26.0490   30.9930 H   0  0  0  0  0  0  0  0  0  0  0  0
   36.7260   25.5080   30.6070 N   0  0  0  0  0  0  0  0  0  0  0  0
   37.2510   26.3320   30.2310 H   0  0  0  0  0  0  0  0  0  0  0  0
   37.5160   24.4590   30.6830 N   0  0  0  0  0  0  0  0  0  0  0  0
  1 17  1  0  0  0  0
  1  2  1  0  0  0  0
  2  8  1  0  0  0  0
  2  7  1  0  0  0  0
  3 10  1  0  0  0  0
  3  2  1  0  0  0  0
  4 12  1  0  0  0  0
  4  3  1  0  0  0  0
  5 14  1  0  0  0  0
  5  6  1  0  0  0  0
  5  4  1  0  0  0  0
  6 15  1  6  0  0  0
  6  1  1  0  0  0  0
  9  3  1  0  0  0  0
 11  4  1  0  0  0  0
 13  5  1  0  0  0  0
 16 17  2  0  0  0  0
 16 21  1  0  0  0  0
 17 18  1  0  0  0  0
 18 23  1  0  0  0  0
 18 19  2  0  0  0  0
 20 19  1  0  0  0  0
 20 24  1  0  0  0  0
 21 20  2  0  0  0  0
 22 16  1  0  0  0  0
 24 25  1  0  0  0  0
 25 30  1  0  0  0  0
 25 26  2  0  0  0  0
 26 31  1  0  0  0  0
 27 32  1  0  0  0  0
 27 26  1  0  0  0  0
 28 27  2  0  0  0  0
 29 28  1  0  0  0  0
 29 24  2  0  0  0  0
 33 28  1  0  0  0  0
 34 35  1  0  0  0  0
 34  6  1  0  0  0  0
 35 36  1  0  0  0  0
 37 35  2  0  0  0  0
 38 37  1  0  0  0  0
 39 41  1  0  0  0  0
 39 37  1  0  0  0  0
 40 39  1  0  0  0  0
 41 34  2  0  0  0  0
M  END
>  <minimizedAffinity>
-5.39064598

$$$$

 OpenBabel03272504513D

 41 44  0  0  1  0  0  0  0  0999 V2000
   36.5780   28.7470   32.4630 N   0  0  0  0  0  0  0  0  0  0  0  0
   36.8890   28.4260   31.0950 C   0  0  0  0  0  0  0  0  0  0  0  0
   36.5330   29.5040   30.1230 C   0  0  0  0  0  0  0  0  0  0  0  0
   36.6640   30.8790   30.7400 C   0  0  0  0  0  0  0  0  0  0  0  0
   35.6580   30.9520   31.8480 C   0  0  0  0  0  0  0  0  0  0  0  0
   35.9000   29.9200   32.9080 C   0  0  1  0  0  0  0  0  0  0  0  0
   36.2790   27.5270   30.8150 H   0  0  0  0  0  0  0  0  0  0  0  0
   37.9430   28.1060   31.0220 H   0  0  0  0  0  0  0  0  0  0  0  0
   35.5400   29.4210   29.6640 H   0  0  0  0  0  0  0  0  0  0  0  0
   37.2750   29.4670   29.2800 H   0  0  0  0  0  0  0  0  0  0  0  0
   36.4790   31.6210   29.9610 H   0  0  0  0  0  0  0  0  0  0  0  0
   37.7100   30.9970   31.1370 H   0  0  0  0  0  0  0  0  0  0  0  0
   35.6050   31.9480   32.3340 H   0  0  0  0  0  0  0  0  0  0  0  0
   34.6690   30.7250   31.3810 H   0  0  0  0  0  0  0  0  0  0  0  0
   36.5250   30.3880   33.6990 H   0  0  0  0  0  0  0  0  0  0  0  0
   37.0740   26.4450   33.1320 C   0  0  0  0  0  0  0  0  0  0  0  0
   36.9900   27.7970   33.4400 C   0  0  0  0  0  0  0  0  0  0  0  0
   37.3300   28.1830   34.7410 C   0  0  0  0  0  0  0  0  0  0  0  0
   37.7200   27.2160   35.6220 N   0  0  0  0  0  0  0  0  0  0  0  0
   37.7910   25.9290   35.3020 C   0  0  0  0  0  0  0  0  0  0  0  0
   37.4650   25.5470   34.0480 N   0  0  0  0  0  0  0  0  0  0  0  0
   36.8270   26.0700   32.1490 H   0  0  0  0  0  0  0  0  0  0  0  0
   37.2880   29.2190   35.0410 H   0  0  0  0  0  0  0  0  0  0  0  0
   38.2130   24.9290   36.2580 C   0  0  0  0  0  0  0  0  0  0  0  0
   37.7820   24.9410   37.5480 C   0  0  0  0  0  0  0  0  0  0  0  0
   38.1610   24.0070   38.4830 C   0  0  0  0  0  0  0  0  0  0  0  0
   39.0260   23.0390   38.0150 C   0  0  0  0  0  0  0  0  0  0  0  0
   39.5110   22.9720   36.6850 C   0  0  0  0  0  0  0  0  0  0  0  0
   39.0650   23.9540   35.8440 N   0  0  0  0  0  0  0  0  0  0  0  0
   37.1060   25.7320   37.8350 H   0  0  0  0  0  0  0  0  0  0  0  0
   37.8400   23.9900   39.5010 H   0  0  0  0  0  0  0  0  0  0  0  0
   39.3830   22.2560   38.6820 H   0  0  0  0  0  0  0  0  0  0  0  0
   40.1790   22.1990   36.3800 H   0  0  0  0  0  0  0  0  0  0  0  0
   34.5940   29.5920   33.5790 C   0  0  0  0  0  0  0  0  0  0  0  0
   33.5670   29.3710   32.6570 C   0  0  0  0  0  0  0  0  0  0  0  0
   33.4460   29.3690   31.5800 H   0  0  0  0  0  0  0  0  0  0  0  0
   32.4110   29.0820   33.3670 C   0  0  0  0  0  0  0  0  0  0  0  0
   31.3680   28.8390   33.2190 H   0  0  0  0  0  0  0  0  0  0  0  0
   32.7670   29.1350   34.6790 N   0  0  0  0  0  0  0  0  0  0  0  0
   32.3220   29.0070   35.6190 H   0  0  0  0  0  0  0  0  0  0  0  0
   34.0410   29.4330   34.8120 N   0  0  0  0  0  0  0  0  0  0  0  0
  1  6  1  0  0  0  0
  1 17  1  0  0  0  0
  2  1  1  0  0  0  0
  3  4  1  0  0  0  0
  3  2  1  0  0  0  0
  4 12  1  0  0  0  0
  4  5  1  0  0  0  0
  5 13  1  0  0  0  0
  5  6  1  0  0  0  0
  6 34  1  0  0  0  0
  6 15  1  1  0  0  0
  7  2  1  0  0  0  0
  8  2  1  0  0  0  0
  9  3  1  0  0  0  0
 10  3  1  0  0  0  0
 11  4  1  0  0  0  0
 14  5  1  0  0  0  0
 16 17  2  0  0  0  0
 16 21  1  0  0  0  0
 17 18  1  0  0  0  0
 18 23  1  0  0  0  0
 18 19  2  0  0  0  0
 20 19  1  0  0  0  0
 20 24  1  0  0  0  0
 21 20  2  0  0  0  0
 22 16  1  0  0  0  0
 24 25  1  0  0  0  0
 25 30  1  0  0  0  0
 25 26  2  0  0  0  0
 26 31  1  0  0  0  0
 27 26  1  0  0  0  0
 27 32  1  0  0  0  0
 28 27  2  0  0  0  0
 29 24  2  0  0  0  0
 29 28  1  0  0  0  0
 33 28  1  0  0  0  0
 34 41  2  0  0  0  0
 35 37  2  0  0  0  0
 35 34  1  0  0  0  0
 36 35  1  0  0  0  0
 37 39  1  0  0  0  0
 38 37  1  0  0  0  0
 39 41  1  0  0  0  0
 39 40  1  0  0  0  0
M  END
>  <minimizedAffinity>
-5.2952652

$$$$

 OpenBabel03272504513D

 41 44  0  0  1  0  0  0  0  0999 V2000
   40.0460   24.6280   34.9000 N   0  0  0  0  0  0  0  0  0  0  0  0
   41.4070   25.0960   34.8900 C   0  0  0  0  0  0  0  0  0  0  0  0
   42.4220   24.0110   35.0450 C   0  0  0  0  0  0  0  0  0  0  0  0
   41.9500   22.7110   34.4310 C   0  0  0  0  0  0  0  0  0  0  0  0
   40.7420   22.2820   35.2070 C   0  0  0  0  0  0  0  0  0  0  0  0
   39.6310   23.2840   35.1340 C   0  0  1  0  0  0  0  0  0  0  0  0
   41.5310   25.7810   35.7710 H   0  0  0  0  0  0  0  0  0  0  0  0
   41.5740   25.7240   33.9980 H   0  0  0  0  0  0  0  0  0  0  0  0
   42.7520   23.8120   36.0730 H   0  0  0  0  0  0  0  0  0  0  0  0
   43.3400   24.3130   34.4730 H   0  0  0  0  0  0  0  0  0  0  0  0
   42.7650   21.9880   34.4960 H   0  0  0  0  0  0  0  0  0  0  0  0
   41.6910   22.8960   33.3530 H   0  0  0  0  0  0  0  0  0  0  0  0
   40.3440   21.2940   34.8960 H   0  0  0  0  0  0  0  0  0  0  0  0
   41.0670   22.2200   36.2740 H   0  0  0  0  0  0  0  0  0  0  0  0
   38.9640   22.9890   34.2950 H   0  0  0  0  0  0  0  0  0  0  0  0
   38.9270   26.7320   35.4620 C   0  0  0  0  0  0  0  0  0  0  0  0
   39.0430   25.6080   34.6530 C   0  0  0  0  0  0  0  0  0  0  0  0
   38.1410   25.4850   33.5900 C   0  0  0  0  0  0  0  0  0  0  0  0
   37.2100   26.4670   33.4140 N   0  0  0  0  0  0  0  0  0  0  0  0
   37.1200   27.5310   34.2030 C   0  0  0  0  0  0  0  0  0  0  0  0
   37.9870   27.6590   35.2310 N   0  0  0  0  0  0  0  0  0  0  0  0
   39.5860   26.8970   36.3030 H   0  0  0  0  0  0  0  0  0  0  0  0
   38.1820   24.6360   32.9240 H   0  0  0  0  0  0  0  0  0  0  0  0
   36.1240   28.5580   33.9860 C   0  0  0  0  0  0  0  0  0  0  0  0
   35.9370   29.5750   34.8690 C   0  0  0  0  0  0  0  0  0  0  0  0
   35.0020   30.5680   34.6950 C   0  0  0  0  0  0  0  0  0  0  0  0
   34.2510   30.4590   33.5420 C   0  0  0  0  0  0  0  0  0  0  0  0
   34.3980   29.4250   32.5840 C   0  0  0  0  0  0  0  0  0  0  0  0
   35.3600   28.4940   32.8640 N   0  0  0  0  0  0  0  0  0  0  0  0
   36.5660   29.5880   35.7470 H   0  0  0  0  0  0  0  0  0  0  0  0
   34.8320   31.3780   35.3690 H   0  0  0  0  0  0  0  0  0  0  0  0
   33.4850   31.1990   33.3180 H   0  0  0  0  0  0  0  0  0  0  0  0
   33.7890   29.3920   31.7100 H   0  0  0  0  0  0  0  0  0  0  0  0
   38.7830   23.1670   36.3710 C   0  0  0  0  0  0  0  0  0  0  0  0
   39.5380   23.2880   37.5410 C   0  0  0  0  0  0  0  0  0  0  0  0
   40.5760   23.4450   37.8110 H   0  0  0  0  0  0  0  0  0  0  0  0
   38.6750   23.1630   38.6210 C   0  0  0  0  0  0  0  0  0  0  0  0
   38.6690   23.1680   39.7020 H   0  0  0  0  0  0  0  0  0  0  0  0
   37.4410   22.9730   38.0800 N   0  0  0  0  0  0  0  0  0  0  0  0
   36.4560   22.8270   38.4040 H   0  0  0  0  0  0  0  0  0  0  0  0
   37.4950   22.9740   36.7660 N   0  0  0  0  0  0  0  0  0  0  0  0
  1  6  1  0  0  0  0
  2  1  1  0  0  0  0
  2  3  1  0  0  0  0
  2  7  1  0  0  0  0
  3  9  1  0  0  0  0
  4 11  1  0  0  0  0
  4  3  1  0  0  0  0
  4  5  1  0  0  0  0
  5 14  1  0  0  0  0
  6 15  1  6  0  0  0
  6  5  1  0  0  0  0
  6 34  1  0  0  0  0
  8  2  1  0  0  0  0
 10  3  1  0  0  0  0
 12  4  1  0  0  0  0
 13  5  1  0  0  0  0
 16 22  1  0  0  0  0
 17  1  1  0  0  0  0
 17 16  2  0  0  0  0
 18 17  1  0  0  0  0
 19 18  2  0  0  0  0
 19 20  1  0  0  0  0
 20 21  2  0  0  0  0
 21 16  1  0  0  0  0
 23 18  1  0  0  0  0
 24 20  1  0  0  0  0
 24 25  1  0  0  0  0
 25 30  1  0  0  0  0
 26 25  2  0  0  0  0
 26 31  1  0  0  0  0
 27 26  1  0  0  0  0
 28 29  1  0  0  0  0
 28 27  2  0  0  0  0
 29 24  2  0  0  0  0
 32 27  1  0  0  0  0
 33 28  1  0  0  0  0
 34 41  2  0  0  0  0
 34 35  1  0  0  0  0
 35 36  1  0  0  0  0
 35 37  2  0  0  0  0
 37 38  1  0  0  0  0
 39 40  1  0  0  0  0
 39 37  1  0  0  0  0
 41 39  1  0  0  0  0
M  END
>  <minimizedAffinity>
-5.28184223

$$$$

 OpenBabel03272504513D

 41 44  0  0  1  0  0  0  0  0999 V2000
   38.7480   22.8050   35.7590 N   0  0  0  0  0  0  0  0  0  0  0  0
   39.8120   22.2660   36.5640 C   0  0  0  0  0  0  0  0  0  0  0  0
   39.9320   22.8980   37.9120 C   0  0  0  0  0  0  0  0  0  0  0  0
   38.5880   23.3450   38.4430 C   0  0  0  0  0  0  0  0  0  0  0  0
   38.0900   24.4090   37.5130 C   0  0  0  0  0  0  0  0  0  0  0  0
   37.9160   23.9080   36.1120 C   0  0  1  0  0  0  0  0  0  0  0  0
   40.7750   22.4700   36.0260 H   0  0  0  0  0  0  0  0  0  0  0  0
   39.7220   21.1660   36.6060 H   0  0  0  0  0  0  0  0  0  0  0  0
   40.6320   23.7410   37.9810 H   0  0  0  0  0  0  0  0  0  0  0  0
   40.3080   22.1180   38.6270 H   0  0  0  0  0  0  0  0  0  0  0  0
   38.7280   23.7140   39.4600 H   0  0  0  0  0  0  0  0  0  0  0  0
   37.8930   22.4600   38.4520 H   0  0  0  0  0  0  0  0  0  0  0  0
   37.1360   24.8730   37.8400 H   0  0  0  0  0  0  0  0  0  0  0  0
   38.8840   25.1950   37.4910 H   0  0  0  0  0  0  0  0  0  0  0  0
   36.8600   23.5790   35.9990 H   0  0  0  0  0  0  0  0  0  0  0  0
   39.5650   21.9780   33.6050 C   0  0  0  0  0  0  0  0  0  0  0  0
   38.5250   22.1680   34.5060 C   0  0  0  0  0  0  0  0  0  0  0  0
   37.2580   21.7060   34.1310 C   0  0  0  0  0  0  0  0  0  0  0  0
   37.1220   21.1020   32.9150 N   0  0  0  0  0  0  0  0  0  0  0  0
   38.1340   20.9330   32.0720 C   0  0  0  0  0  0  0  0  0  0  0  0
   39.3610   21.3750   32.4240 N   0  0  0  0  0  0  0  0  0  0  0  0
   40.5710   22.3080   33.8210 H   0  0  0  0  0  0  0  0  0  0  0  0
   36.4100   21.8220   34.7890 H   0  0  0  0  0  0  0  0  0  0  0  0
   37.9570   20.2830   30.7920 C   0  0  0  0  0  0  0  0  0  0  0  0
   36.8560   19.5370   30.5110 C   0  0  0  0  0  0  0  0  0  0  0  0
   36.6540   18.9060   29.3050 C   0  0  0  0  0  0  0  0  0  0  0  0
   37.6650   19.0850   28.3830 C   0  0  0  0  0  0  0  0  0  0  0  0
   38.8360   19.8500   28.6150 C   0  0  0  0  0  0  0  0  0  0  0  0
   38.9260   20.4310   29.8500 N   0  0  0  0  0  0  0  0  0  0  0  0
   36.1100   19.4460   31.2870 H   0  0  0  0  0  0  0  0  0  0  0  0
   35.8010   18.3150   29.0560 H   0  0  0  0  0  0  0  0  0  0  0  0
   37.5950   18.6240   27.4000 H   0  0  0  0  0  0  0  0  0  0  0  0
   39.5840   19.9540   27.8640 H   0  0  0  0  0  0  0  0  0  0  0  0
   38.0750   25.0580   35.1560 C   0  0  0  0  0  0  0  0  0  0  0  0
   39.0350   25.9770   35.5920 C   0  0  0  0  0  0  0  0  0  0  0  0
   39.7060   26.0930   36.4350 H   0  0  0  0  0  0  0  0  0  0  0  0
   39.1060   26.9960   34.6530 C   0  0  0  0  0  0  0  0  0  0  0  0
   39.6250   27.9220   34.4510 H   0  0  0  0  0  0  0  0  0  0  0  0
   38.2010   26.6700   33.6920 N   0  0  0  0  0  0  0  0  0  0  0  0
   37.8450   27.0550   32.7850 H   0  0  0  0  0  0  0  0  0  0  0  0
   37.5940   25.5390   33.9770 N   0  0  0  0  0  0  0  0  0  0  0  0
  1  6  1  0  0  0  0
  1  2  1  0  0  0  0
  2  8  1  0  0  0  0
  2  3  1  0  0  0  0
  3  9  1  0  0  0  0
  3  4  1  0  0  0  0
  3 10  1  0  0  0  0
  4 12  1  0  0  0  0
  4 11  1  0  0  0  0
  5 13  1  0  0  0  0
  5  4  1  0  0  0  0
  6 15  1  6  0  0  0
  6  5  1  0  0  0  0
  7  2  1  0  0  0  0
 14  5  1  0  0  0  0
 16 22  1  0  0  0  0
 16 17  1  0  0  0  0
 17  1  1  0  0  0  0
 18 17  2  0  0  0  0
 18 23  1  0  0  0  0
 19 18  1  0  0  0  0
 20 21  1  0  0  0  0
 20 19  2  0  0  0  0
 21 16  2  0  0  0  0
 24 20  1  0  0  0  0
 25 24  1  0  0  0  0
 25 30  1  0  0  0  0
 26 25  2  0  0  0  0
 27 28  2  0  0  0  0
 27 26  1  0  0  0  0
 28 29  1  0  0  0  0
 29 24  2  0  0  0  0
 31 26  1  0  0  0  0
 32 27  1  0  0  0  0
 33 28  1  0  0  0  0
 34 35  1  0  0  0  0
 34  6  1  0  0  0  0
 35 36  1  0  0  0  0
 37 35  2  0  0  0  0
 38 37  1  0  0  0  0
 39 41  1  0  0  0  0
 39 37  1  0  0  0  0
 40 39  1  0  0  0  0
 41 34  2  0  0  0  0
M  END
>  <minimizedAffinity>
-5.25307894

$$$$

 OpenBabel03272504513D

 41 44  0  0  1  0  0  0  0  0999 V2000
   38.6740   24.1830   35.7660 N   0  0  0  0  0  0  0  0  0  0  0  0
   38.2360   24.4820   37.1040 C   0  0  0  0  0  0  0  0  0  0  0  0
   38.6600   23.4710   38.1200 C   0  0  0  0  0  0  0  0  0  0  0  0
   39.9910   22.8450   37.7650 C   0  0  0  0  0  0  0  0  0  0  0  0
   39.7880   22.1010   36.4800 C   0  0  0  0  0  0  0  0  0  0  0  0
   39.3620   23.0020   35.3600 C   0  0  1  0  0  0  0  0  0  0  0  0
   37.1140   24.4790   37.0970 H   0  0  0  0  0  0  0  0  0  0  0  0
   38.5300   25.5120   37.3670 H   0  0  0  0  0  0  0  0  0  0  0  0
   37.9390   22.6680   38.3210 H   0  0  0  0  0  0  0  0  0  0  0  0
   38.8150   24.0070   39.0950 H   0  0  0  0  0  0  0  0  0  0  0  0
   40.2870   22.1870   38.5840 H   0  0  0  0  0  0  0  0  0  0  0  0
   40.7510   23.6640   37.6410 H   0  0  0  0  0  0  0  0  0  0  0  0
   40.6820   21.5330   36.1510 H   0  0  0  0  0  0  0  0  0  0  0  0
   38.9520   21.3840   36.6680 H   0  0  0  0  0  0  0  0  0  0  0  0
   40.2770   23.3190   34.8140 H   0  0  0  0  0  0  0  0  0  0  0  0
   39.2400   25.3710   33.7010 C   0  0  0  0  0  0  0  0  0  0  0  0
   38.3850   25.1660   34.7770 C   0  0  0  0  0  0  0  0  0  0  0  0
   37.2340   25.9590   34.8430 C   0  0  0  0  0  0  0  0  0  0  0  0
   37.0230   26.8770   33.8560 N   0  0  0  0  0  0  0  0  0  0  0  0
   37.8570   27.0530   32.8380 C   0  0  0  0  0  0  0  0  0  0  0  0
   38.9710   26.2920   32.7650 N   0  0  0  0  0  0  0  0  0  0  0  0
   40.1490   24.7980   33.5810 H   0  0  0  0  0  0  0  0  0  0  0  0
   36.5290   25.8450   35.6530 H   0  0  0  0  0  0  0  0  0  0  0  0
   37.6010   28.0320   31.8050 C   0  0  0  0  0  0  0  0  0  0  0  0
   38.3500   28.0930   30.6720 C   0  0  0  0  0  0  0  0  0  0  0  0
   38.1350   29.0080   29.6680 C   0  0  0  0  0  0  0  0  0  0  0  0
   37.0870   29.8780   29.8940 C   0  0  0  0  0  0  0  0  0  0  0  0
   36.2700   29.8650   31.0520 C   0  0  0  0  0  0  0  0  0  0  0  0
   36.5780   28.9110   31.9810 N   0  0  0  0  0  0  0  0  0  0  0  0
   39.1520   27.3760   30.5710 H   0  0  0  0  0  0  0  0  0  0  0  0
   38.7060   29.0800   28.7680 H   0  0  0  0  0  0  0  0  0  0  0  0
   36.8400   30.6390   29.1560 H   0  0  0  0  0  0  0  0  0  0  0  0
   35.4730   30.5630   31.1720 H   0  0  0  0  0  0  0  0  0  0  0  0
   38.5650   22.2030   34.3650 C   0  0  0  0  0  0  0  0  0  0  0  0
   39.3720   21.6470   33.3680 C   0  0  0  0  0  0  0  0  0  0  0  0
   40.4240   21.6290   33.1090 H   0  0  0  0  0  0  0  0  0  0  0  0
   38.5530   20.9370   32.5020 C   0  0  0  0  0  0  0  0  0  0  0  0
   38.5920   20.3350   31.6050 H   0  0  0  0  0  0  0  0  0  0  0  0
   37.2930   21.0820   32.9930 N   0  0  0  0  0  0  0  0  0  0  0  0
   36.3180   20.7770   32.7590 H   0  0  0  0  0  0  0  0  0  0  0  0
   37.2900   21.8200   34.0820 N   0  0  0  0  0  0  0  0  0  0  0  0
  1  2  1  0  0  0  0
  2  8  1  0  0  0  0
  2  3  1  0  0  0  0
  3  9  1  0  0  0  0
  3 10  1  0  0  0  0
  4  3  1  0  0  0  0
  4 11  1  0  0  0  0
  5 14  1  0  0  0  0
  5  4  1  0  0  0  0
  6 15  1  6  0  0  0
  6  1  1  0  0  0  0
  6  5  1  0  0  0  0
  7  2  1  0  0  0  0
 12  4  1  0  0  0  0
 13  5  1  0  0  0  0
 16 17  1  0  0  0  0
 17 18  2  0  0  0  0
 17  1  1  0  0  0  0
 18 23  1  0  0  0  0
 19 18  1  0  0  0  0
 20 19  2  0  0  0  0
 21 20  1  0  0  0  0
 21 16  2  0  0  0  0
 22 16  1  0  0  0  0
 24 29  1  0  0  0  0
 24 20  1  0  0  0  0
 25 24  2  0  0  0  0
 26 27  2  0  0  0  0
 26 25  1  0  0  0  0
 27 28  1  0  0  0  0
 28 33  1  0  0  0  0
 28 29  2  0  0  0  0
 30 25  1  0  0  0  0
 31 26  1  0  0  0  0
 32 27  1  0  0  0  0
 34  6  1  0  0  0  0
 35 34  1  0  0  0  0
 36 35  1  0  0  0  0
 37 39  1  0  0  0  0
 37 35  2  0  0  0  0
 38 37  1  0  0  0  0
 39 41  1  0  0  0  0
 40 39  1  0  0  0  0
 41 34  2  0  0  0  0
M  END
>  <minimizedAffinity>
-5.24373388

$$$$

 OpenBabel03272504513D

 41 44  0  0  1  0  0  0  0  0999 V2000
   38.4060   24.3550   35.5900 N   0  0  0  0  0  0  0  0  0  0  0  0
   38.1570   24.7460   36.9530 C   0  0  0  0  0  0  0  0  0  0  0  0
   38.5290   23.7060   37.9590 C   0  0  0  0  0  0  0  0  0  0  0  0
   39.7090   22.8780   37.4990 C   0  0  0  0  0  0  0  0  0  0  0  0
   39.2660   22.1450   36.2690 C   0  0  0  0  0  0  0  0  0  0  0  0
   38.8650   23.0740   35.1630 C   0  0  1  0  0  0  0  0  0  0  0  0
   37.0520   24.9130   37.0560 H   0  0  0  0  0  0  0  0  0  0  0  0
   38.6260   25.7260   37.1460 H   0  0  0  0  0  0  0  0  0  0  0  0
   37.7220   23.0260   38.2610 H   0  0  0  0  0  0  0  0  0  0  0  0
   38.8620   24.2340   38.8930 H   0  0  0  0  0  0  0  0  0  0  0  0
   39.9870   22.2020   38.3080 H   0  0  0  0  0  0  0  0  0  0  0  0
   40.5660   23.5700   37.2690 H   0  0  0  0  0  0  0  0  0  0  0  0
   40.0280   21.4410   35.8750 H   0  0  0  0  0  0  0  0  0  0  0  0
   38.3580   21.5670   36.5650 H   0  0  0  0  0  0  0  0  0  0  0  0
   39.7560   23.2370   34.5180 H   0  0  0  0  0  0  0  0  0  0  0  0
   38.9940   25.4670   33.4900 C   0  0  0  0  0  0  0  0  0  0  0  0
   38.1650   25.3480   34.5990 C   0  0  0  0  0  0  0  0  0  0  0  0
   37.0890   26.2370   34.6950 C   0  0  0  0  0  0  0  0  0  0  0  0
   36.9200   27.1590   33.7030 N   0  0  0  0  0  0  0  0  0  0  0  0
   37.7270   27.2520   32.6540 C   0  0  0  0  0  0  0  0  0  0  0  0
   38.7690   26.3970   32.5510 N   0  0  0  0  0  0  0  0  0  0  0  0
   39.8460   24.8170   33.3450 H   0  0  0  0  0  0  0  0  0  0  0  0
   36.4080   26.1930   35.5320 H   0  0  0  0  0  0  0  0  0  0  0  0
   37.5170   28.2370   31.6160 C   0  0  0  0  0  0  0  0  0  0  0  0
   36.5240   29.1630   31.6950 C   0  0  0  0  0  0  0  0  0  0  0  0
   36.2960   30.1150   30.7290 C   0  0  0  0  0  0  0  0  0  0  0  0
   37.1590   30.0660   29.6540 C   0  0  0  0  0  0  0  0  0  0  0  0
   38.2120   29.1270   29.5130 C   0  0  0  0  0  0  0  0  0  0  0  0
   38.3430   28.2300   30.5360 N   0  0  0  0  0  0  0  0  0  0  0  0
   35.8920   29.1350   32.5700 H   0  0  0  0  0  0  0  0  0  0  0  0
   35.5250   30.8530   30.7630 H   0  0  0  0  0  0  0  0  0  0  0  0
   37.0560   30.7790   28.8380 H   0  0  0  0  0  0  0  0  0  0  0  0
   38.8490   29.1370   28.6580 H   0  0  0  0  0  0  0  0  0  0  0  0
   37.8610   22.3830   34.2830 C   0  0  0  0  0  0  0  0  0  0  0  0
   36.9750   21.5890   35.0160 C   0  0  0  0  0  0  0  0  0  0  0  0
   36.8060   21.3280   36.0550 H   0  0  0  0  0  0  0  0  0  0  0  0
   36.0950   20.9940   34.1230 C   0  0  0  0  0  0  0  0  0  0  0  0
   35.2490   20.3220   34.0920 H   0  0  0  0  0  0  0  0  0  0  0  0
   36.4690   21.4400   32.8930 N   0  0  0  0  0  0  0  0  0  0  0  0
   36.1750   21.3270   31.8940 H   0  0  0  0  0  0  0  0  0  0  0  0
   37.5000   22.2520   32.9770 N   0  0  0  0  0  0  0  0  0  0  0  0
  1  2  1  0  0  0  0
  2  7  1  0  0  0  0
  2  8  1  0  0  0  0
  2  3  1  0  0  0  0
  3  9  1  0  0  0  0
  3 10  1  0  0  0  0
  4  3  1  0  0  0  0
  4 11  1  0  0  0  0
  5 14  1  0  0  0  0
  5  4  1  0  0  0  0
  6 15  1  6  0  0  0
  6  1  1  0  0  0  0
  6  5  1  0  0  0  0
 12  4  1  0  0  0  0
 13  5  1  0  0  0  0
 16 17  1  0  0  0  0
 17 18  2  0  0  0  0
 17  1  1  0  0  0  0
 18 23  1  0  0  0  0
 19 18  1  0  0  0  0
 20 19  2  0  0  0  0
 21 20  1  0  0  0  0
 21 16  2  0  0  0  0
 22 16  1  0  0  0  0
 24 25  1  0  0  0  0
 24 20  1  0  0  0  0
 25 30  1  0  0  0  0
 26 31  1  0  0  0  0
 26 25  2  0  0  0  0
 27 26  1  0  0  0  0
 28 27  2  0  0  0  0
 28 29  1  0  0  0  0
 29 24  2  0  0  0  0
 32 27  1  0  0  0  0
 33 28  1  0  0  0  0
 34 35  1  0  0  0  0
 34  6  1  0  0  0  0
 35 36  1  0  0  0  0
 37 35  2  0  0  0  0
 38 37  1  0  0  0  0
 39 41  1  0  0  0  0
 39 37  1  0  0  0  0
 40 39  1  0  0  0  0
 41 34  2  0  0  0  0
M  END
>  <minimizedAffinity>
-5.20493603

$$$$
