
 OpenBabel03272509523D

 42 45  0  0  0  0  0  0  0  0999 V2000
   34.1810   28.8960   47.8130 C   0  0  0  0  0  0  0  0  0  0  0  0
   34.8330   29.4320   47.1100 H   0  0  0  0  0  0  0  0  0  0  0  0
   33.4740   29.6340   48.2880 H   0  0  0  0  0  0  0  0  0  0  0  0
   33.3370   27.8460   47.1660 C   0  0  0  0  0  0  0  0  0  0  0  0
   33.7430   26.8230   47.2820 H   0  0  0  0  0  0  0  0  0  0  0  0
   33.3200   28.0580   46.0680 H   0  0  0  0  0  0  0  0  0  0  0  0
   31.9150   27.8900   47.5960 C   0  0  0  0  0  0  0  0  0  0  0  0
   31.5450   27.0860   48.6640 C   0  0  0  0  0  0  0  0  0  0  0  0
   30.2680   27.0450   49.1440 C   0  0  0  0  0  0  0  0  0  0  0  0
   29.3520   27.8010   48.5700 N   0  0  0  0  0  0  0  0  0  0  0  0
   29.7050   28.6020   47.5100 C   0  0  0  0  0  0  0  0  0  0  0  0
   30.9670   28.6550   47.0210 N   0  0  0  0  0  0  0  0  0  0  0  0
   32.2990   26.4580   49.1450 H   0  0  0  0  0  0  0  0  0  0  0  0
   29.9660   26.4200   49.9800 H   0  0  0  0  0  0  0  0  0  0  0  0
   28.7120   29.4480   46.8540 C   0  0  0  0  0  0  0  0  0  0  0  0
   28.9630   29.9150   45.5590 C   0  0  0  0  0  0  0  0  0  0  0  0
   29.8000   29.7780   44.8710 H   0  0  0  0  0  0  0  0  0  0  0  0
   27.8600   30.6890   45.1870 C   0  0  0  0  0  0  0  0  0  0  0  0
   27.6170   31.2400   44.2910 H   0  0  0  0  0  0  0  0  0  0  0  0
   27.0070   30.6690   46.2310 N   0  0  0  0  0  0  0  0  0  0  0  0
   26.0640   31.1550   46.2920 H   0  0  0  0  0  0  0  0  0  0  0  0
   27.5100   29.9280   47.2300 N   0  0  0  0  0  0  0  0  0  0  0  0
   34.9640   28.3330   48.8680 O   0  0  0  0  0  0  0  0  0  0  0  0
   37.0460   30.0580   51.2520 C   0  0  0  0  0  0  0  0  0  0  0  0
   37.8750   30.8120   50.3650 C   0  0  0  0  0  0  0  0  0  0  0  0
   37.6480   30.6630   49.0030 C   0  0  0  0  0  0  0  0  0  0  0  0
   36.6500   29.8080   48.6340 N   0  0  0  0  0  0  0  0  0  0  0  0
   35.8910   29.1180   49.4910 C   0  0  0  0  0  0  0  0  0  0  0  0
   36.0940   29.2470   50.8090 N   0  0  0  0  0  0  0  0  0  0  0  0
   37.2870   30.2310   52.2920 H   0  0  0  0  0  0  0  0  0  0  0  0
   38.6480   31.4730   50.6770 H   0  0  0  0  0  0  0  0  0  0  0  0
   38.7820   33.3260   49.0530 F   0  0  0  0  0  0  0  0  0  0  0  0
   38.9200   32.5800   47.9700 C   0  0  0  0  0  0  0  0  0  0  0  0
   38.3830   31.3400   47.9680 C   0  0  0  0  0  0  0  0  0  0  0  0
   38.5860   30.6370   46.7760 C   0  0  0  0  0  0  0  0  0  0  0  0
   39.2750   31.1680   45.7060 C   0  0  0  0  0  0  0  0  0  0  0  0
   39.8020   32.4350   45.7560 C   0  0  0  0  0  0  0  0  0  0  0  0
   39.6130   33.1400   46.9150 C   0  0  0  0  0  0  0  0  0  0  0  0
   38.2060   29.6220   46.6380 H   0  0  0  0  0  0  0  0  0  0  0  0
   39.4100   30.5910   44.8000 H   0  0  0  0  0  0  0  0  0  0  0  0
   40.3350   32.8460   44.9230 H   0  0  0  0  0  0  0  0  0  0  0  0
   40.0200   34.1380   46.9760 H   0  0  0  0  0  0  0  0  0  0  0  0
  1  3  1  0  0  0  0
  1 23  1  0  0  0  0
  2  1  1  0  0  0  0
  4  5  1  0  0  0  0
  4  7  1  0  0  0  0
  4  1  1  0  0  0  0
  6  4  1  0  0  0  0
  7  8  1  0  0  0  0
  8  9  2  0  0  0  0
  8 13  1  0  0  0  0
  9 14  1  0  0  0  0
 10  9  1  0  0  0  0
 11 10  2  0  0  0  0
 12 11  1  0  0  0  0
 12  7  2  0  0  0  0
 15 22  2  0  0  0  0
 15 11  1  0  0  0  0
 16 15  1  0  0  0  0
 17 16  1  0  0  0  0
 18 16  2  0  0  0  0
 18 20  1  0  0  0  0
 19 18  1  0  0  0  0
 20 21  1  0  0  0  0
 20 22  1  0  0  0  0
 23 28  1  0  0  0  0
 24 30  1  0  0  0  0
 25 31  1  0  0  0  0
 25 24  2  0  0  0  0
 26 25  1  0  0  0  0
 27 26  2  0  0  0  0
 27 28  1  0  0  0  0
 28 29  2  0  0  0  0
 29 24  1  0  0  0  0
 33 32  1  0  0  0  0
 34 33  1  0  0  0  0
 34 26  1  0  0  0  0
 35 34  2  0  0  0  0
 36 37  2  0  0  0  0
 36 35  1  0  0  0  0
 37 38  1  0  0  0  0
 38 42  1  0  0  0  0
 38 33  2  0  0  0  0
 39 35  1  0  0  0  0
 40 36  1  0  0  0  0
 41 37  1  0  0  0  0
M  END
>  <minimizedAffinity>
-6.58638239

>  <minimizedRMSD>
1.05400705

$$$$
