
 OpenBabel03272509523D

 42 45  0  0  0  0  0  0  0  0999 V2000
   34.1980   28.9580   47.8450 C   0  0  0  0  0  0  0  0  0  0  0  0
   34.9250   29.4310   47.1700 H   0  0  0  0  0  0  0  0  0  0  0  0
   33.5290   29.7570   48.2750 H   0  0  0  0  0  0  0  0  0  0  0  0
   33.3070   27.9680   47.1680 C   0  0  0  0  0  0  0  0  0  0  0  0
   33.6560   26.9220   47.2680 H   0  0  0  0  0  0  0  0  0  0  0  0
   33.3140   28.2020   46.0750 H   0  0  0  0  0  0  0  0  0  0  0  0
   31.8840   28.0810   47.5830 C   0  0  0  0  0  0  0  0  0  0  0  0
   31.5120   27.4580   48.7660 C   0  0  0  0  0  0  0  0  0  0  0  0
   30.2350   27.4940   49.2440 C   0  0  0  0  0  0  0  0  0  0  0  0
   29.3190   28.1490   48.5550 N   0  0  0  0  0  0  0  0  0  0  0  0
   29.6750   28.7710   47.3820 C   0  0  0  0  0  0  0  0  0  0  0  0
   30.9370   28.7460   46.8920 N   0  0  0  0  0  0  0  0  0  0  0  0
   32.2650   26.9140   49.3410 H   0  0  0  0  0  0  0  0  0  0  0  0
   29.9310   27.0100   50.1690 H   0  0  0  0  0  0  0  0  0  0  0  0
   28.6830   29.5030   46.5980 C   0  0  0  0  0  0  0  0  0  0  0  0
   29.0840   30.1450   45.4220 C   0  0  0  0  0  0  0  0  0  0  0  0
   30.0490   30.2300   44.9150 H   0  0  0  0  0  0  0  0  0  0  0  0
   27.9460   30.7560   44.8860 C   0  0  0  0  0  0  0  0  0  0  0  0
   27.7790   31.3520   44.0010 H   0  0  0  0  0  0  0  0  0  0  0  0
   26.9290   30.4750   45.7250 N   0  0  0  0  0  0  0  0  0  0  0  0
   25.9180   30.7840   45.6240 H   0  0  0  0  0  0  0  0  0  0  0  0
   27.3630   29.7270   46.7500 N   0  0  0  0  0  0  0  0  0  0  0  0
   34.8820   28.3520   48.9440 O   0  0  0  0  0  0  0  0  0  0  0  0
   36.9770   29.8740   51.4510 C   0  0  0  0  0  0  0  0  0  0  0  0
   37.8040   30.6950   50.6250 C   0  0  0  0  0  0  0  0  0  0  0  0
   37.5700   30.6580   49.2560 C   0  0  0  0  0  0  0  0  0  0  0  0
   36.5700   29.8380   48.8240 N   0  0  0  0  0  0  0  0  0  0  0  0
   35.8130   29.0810   49.6250 C   0  0  0  0  0  0  0  0  0  0  0  0
   36.0210   29.1030   50.9480 N   0  0  0  0  0  0  0  0  0  0  0  0
   37.2220   29.9600   52.5010 H   0  0  0  0  0  0  0  0  0  0  0  0
   38.5800   31.3270   50.9860 H   0  0  0  0  0  0  0  0  0  0  0  0
   38.7220   33.3010   49.5210 F   0  0  0  0  0  0  0  0  0  0  0  0
   38.8480   32.6480   48.3790 C   0  0  0  0  0  0  0  0  0  0  0  0
   38.3030   31.4150   48.2770 C   0  0  0  0  0  0  0  0  0  0  0  0
   38.4940   30.8140   47.0290 C   0  0  0  0  0  0  0  0  0  0  0  0
   39.1780   31.4300   46.0010 C   0  0  0  0  0  0  0  0  0  0  0  0
   39.7140   32.6840   46.1540 C   0  0  0  0  0  0  0  0  0  0  0  0
   39.5370   33.2910   47.3700 C   0  0  0  0  0  0  0  0  0  0  0  0
   38.1060   29.8160   46.8080 H   0  0  0  0  0  0  0  0  0  0  0  0
   39.3040   30.9300   45.0490 H   0  0  0  0  0  0  0  0  0  0  0  0
   40.2440   33.1610   45.3550 H   0  0  0  0  0  0  0  0  0  0  0  0
   39.9510   34.2770   47.5110 H   0  0  0  0  0  0  0  0  0  0  0  0
  1  3  1  0  0  0  0
  1 23  1  0  0  0  0
  2  1  1  0  0  0  0
  4  5  1  0  0  0  0
  4  7  1  0  0  0  0
  4  1  1  0  0  0  0
  6  4  1  0  0  0  0
  7  8  1  0  0  0  0
  8  9  2  0  0  0  0
  8 13  1  0  0  0  0
  9 14  1  0  0  0  0
 10  9  1  0  0  0  0
 11 10  2  0  0  0  0
 12 11  1  0  0  0  0
 12  7  2  0  0  0  0
 15 22  2  0  0  0  0
 15 11  1  0  0  0  0
 16 15  1  0  0  0  0
 17 16  1  0  0  0  0
 18 16  2  0  0  0  0
 18 20  1  0  0  0  0
 19 18  1  0  0  0  0
 20 22  1  0  0  0  0
 21 20  1  0  0  0  0
 23 28  1  0  0  0  0
 24 30  1  0  0  0  0
 25 31  1  0  0  0  0
 25 24  2  0  0  0  0
 26 25  1  0  0  0  0
 27 26  2  0  0  0  0
 27 28  1  0  0  0  0
 28 29  2  0  0  0  0
 29 24  1  0  0  0  0
 33 32  1  0  0  0  0
 34 33  1  0  0  0  0
 34 26  1  0  0  0  0
 35 34  2  0  0  0  0
 36 37  2  0  0  0  0
 36 35  1  0  0  0  0
 37 38  1  0  0  0  0
 38 42  1  0  0  0  0
 38 33  2  0  0  0  0
 39 35  1  0  0  0  0
 40 36  1  0  0  0  0
 41 37  1  0  0  0  0
M  END
>  <minimizedAffinity>
-6.57358789

>  <minimizedRMSD>
0.908078969

$$$$
