
 OpenBabel03272500163D

 30 32  0  0  0  0  0  0  0  0999 V2000
   36.0590   28.5140   34.2840 Cl  0  0  0  0  0  0  0  0  0  0  0  0
   37.1340   28.0380   32.9730 C   0  0  0  0  0  0  0  0  0  0  0  0
   38.0010   26.9760   33.1400 C   0  0  0  0  0  0  0  0  0  0  0  0
   38.8580   26.5850   32.1150 C   0  0  0  0  0  0  0  0  0  0  0  0
   38.8240   27.2880   30.9210 C   0  0  0  0  0  0  0  0  0  0  0  0
   37.9680   28.3490   30.7370 C   0  0  0  0  0  0  0  0  0  0  0  0
   37.9510   29.2160   29.2140 Cl  0  0  0  0  0  0  0  0  0  0  0  0
   37.1140   28.7290   31.7750 C   0  0  0  0  0  0  0  0  0  0  0  0
   39.5460   25.7660   32.2020 H   0  0  0  0  0  0  0  0  0  0  0  0
   39.4940   26.9780   30.1280 H   0  0  0  0  0  0  0  0  0  0  0  0
   38.2630   26.1610   36.7170 C   0  0  0  0  0  0  0  0  0  0  0  0
   38.1240   24.7530   36.6980 C   0  0  0  0  0  0  0  0  0  0  0  0
   37.9450   24.1220   35.4610 C   0  0  0  0  0  0  0  0  0  0  0  0
   37.9140   24.8990   34.3450 N   0  0  0  0  0  0  0  0  0  0  0  0
   38.0470   26.2280   34.3900 C   0  0  0  0  0  0  0  0  0  0  0  0
   38.2200   26.8630   35.5540 N   0  0  0  0  0  0  0  0  0  0  0  0
   38.4040   26.6810   37.6680 H   0  0  0  0  0  0  0  0  0  0  0  0
   37.8410   23.0560   35.4520 H   0  0  0  0  0  0  0  0  0  0  0  0
   38.1780   24.0230   37.9990 C   0  0  0  0  0  0  0  0  0  0  0  0
   39.4580   23.4550   38.1700 F   0  0  0  0  0  0  0  0  0  0  0  0
   37.9890   24.9190   39.0100 F   0  0  0  0  0  0  0  0  0  0  0  0
   37.2670   22.9990   38.0690 F   0  0  0  0  0  0  0  0  0  0  0  0
   36.1890   29.8460   31.6280 C   0  0  0  0  0  0  0  0  0  0  0  0
   36.3150   31.1980   31.8750 C   0  0  0  0  0  0  0  0  0  0  0  0
   37.2390   31.6340   32.2580 H   0  0  0  0  0  0  0  0  0  0  0  0
   35.1370   31.8530   31.5700 C   0  0  0  0  0  0  0  0  0  0  0  0
   34.9630   32.8980   31.6690 H   0  0  0  0  0  0  0  0  0  0  0  0
   34.3160   30.8610   31.1390 N   0  0  0  0  0  0  0  0  0  0  0  0
   33.3330   31.1320   30.8430 H   0  0  0  0  0  0  0  0  0  0  0  0
   34.9170   29.6750   31.1660 N   0  0  0  0  0  0  0  0  0  0  0  0
  2  3  1  0  0  0  0
  2  1  1  0  0  0  0
  3 15  1  0  0  0  0
  4  9  1  0  0  0  0
  4  3  2  0  0  0  0
  5  4  1  0  0  0  0
  6  5  2  0  0  0  0
  6  8  1  0  0  0  0
  7  6  1  0  0  0  0
  8  2  2  0  0  0  0
 10  5  1  0  0  0  0
 11 17  1  0  0  0  0
 12 11  1  0  0  0  0
 12 19  1  0  0  0  0
 13 12  2  0  0  0  0
 14 15  2  0  0  0  0
 14 13  1  0  0  0  0
 15 16  1  0  0  0  0
 16 11  2  0  0  0  0
 18 13  1  0  0  0  0
 19 22  1  0  0  0  0
 19 20  1  0  0  0  0
 19 21  1  0  0  0  0
 23  8  1  0  0  0  0
 23 24  1  0  0  0  0
 24 25  1  0  0  0  0
 26 27  1  0  0  0  0
 26 24  2  0  0  0  0
 28 30  1  0  0  0  0
 28 26  1  0  0  0  0
 29 28  1  0  0  0  0
 30 23  2  0  0  0  0
M  END
>  <minimizedAffinity>
-5.53765917

$$$$

 OpenBabel03272500163D

 30 32  0  0  0  0  0  0  0  0999 V2000
   38.9340   26.7140   31.5650 Cl  0  0  0  0  0  0  0  0  0  0  0  0
   37.6710   27.7950   32.1480 C   0  0  0  0  0  0  0  0  0  0  0  0
   37.1380   27.6180   33.4090 C   0  0  0  0  0  0  0  0  0  0  0  0
   36.1400   28.4620   33.8870 C   0  0  0  0  0  0  0  0  0  0  0  0
   35.6900   29.4850   33.0680 C   0  0  0  0  0  0  0  0  0  0  0  0
   36.2090   29.6750   31.8080 C   0  0  0  0  0  0  0  0  0  0  0  0
   35.6170   30.9790   30.7970 Cl  0  0  0  0  0  0  0  0  0  0  0  0
   37.2100   28.8200   31.3420 C   0  0  0  0  0  0  0  0  0  0  0  0
   35.6990   28.3610   34.8610 H   0  0  0  0  0  0  0  0  0  0  0  0
   34.9130   30.1380   33.4470 H   0  0  0  0  0  0  0  0  0  0  0  0
   38.0760   24.2880   34.6610 C   0  0  0  0  0  0  0  0  0  0  0  0
   38.4840   24.5870   35.9820 C   0  0  0  0  0  0  0  0  0  0  0  0
   38.4270   25.9200   36.4070 C   0  0  0  0  0  0  0  0  0  0  0  0
   37.9810   26.8550   35.5250 N   0  0  0  0  0  0  0  0  0  0  0  0
   37.6020   26.5470   34.2820 C   0  0  0  0  0  0  0  0  0  0  0  0
   37.6430   25.2840   33.8430 N   0  0  0  0  0  0  0  0  0  0  0  0
   38.1090   23.2570   34.3010 H   0  0  0  0  0  0  0  0  0  0  0  0
   38.7370   26.1400   37.4090 H   0  0  0  0  0  0  0  0  0  0  0  0
   38.9520   23.4630   36.8450 C   0  0  0  0  0  0  0  0  0  0  0  0
   38.4530   22.2420   36.3430 F   0  0  0  0  0  0  0  0  0  0  0  0
   40.3130   23.4040   36.7850 F   0  0  0  0  0  0  0  0  0  0  0  0
   38.5180   23.5750   38.1420 F   0  0  0  0  0  0  0  0  0  0  0  0
   37.7910   28.9820   30.0150 C   0  0  0  0  0  0  0  0  0  0  0  0
   38.8790   29.6970   29.5550 C   0  0  0  0  0  0  0  0  0  0  0  0
   39.5010   30.2960   30.2210 H   0  0  0  0  0  0  0  0  0  0  0  0
   39.0220   29.5260   28.1920 C   0  0  0  0  0  0  0  0  0  0  0  0
   39.7800   29.9660   27.5870 H   0  0  0  0  0  0  0  0  0  0  0  0
   38.0000   28.6980   27.8580 N   0  0  0  0  0  0  0  0  0  0  0  0
   37.9060   28.4200   26.8380 H   0  0  0  0  0  0  0  0  0  0  0  0
   37.2650   28.3670   28.9160 N   0  0  0  0  0  0  0  0  0  0  0  0
  1  2  1  0  0  0  0
  2  3  1  0  0  0  0
  3  4  2  0  0  0  0
  3 15  1  0  0  0  0
  4  9  1  0  0  0  0
  5 10  1  0  0  0  0
  5  4  1  0  0  0  0
  6  5  2  0  0  0  0
  7  6  1  0  0  0  0
  8  6  1  0  0  0  0
  8  2  2  0  0  0  0
 11 12  1  0  0  0  0
 12 13  2  0  0  0  0
 12 19  1  0  0  0  0
 13 18  1  0  0  0  0
 14 13  1  0  0  0  0
 15 14  2  0  0  0  0
 16 15  1  0  0  0  0
 16 11  2  0  0  0  0
 17 11  1  0  0  0  0
 19 22  1  0  0  0  0
 20 19  1  0  0  0  0
 21 19  1  0  0  0  0
 23  8  1  0  0  0  0
 24 23  1  0  0  0  0
 24 25  1  0  0  0  0
 26 24  2  0  0  0  0
 27 26  1  0  0  0  0
 28 26  1  0  0  0  0
 28 30  1  0  0  0  0
 29 28  1  0  0  0  0
 30 23  2  0  0  0  0
M  END
>  <minimizedAffinity>
-5.42772198

$$$$

 OpenBabel03272500163D

 30 32  0  0  0  0  0  0  0  0999 V2000
   37.9730   26.3050   32.2290 Cl  0  0  0  0  0  0  0  0  0  0  0  0
   39.6430   26.8420   32.3880 C   0  0  0  0  0  0  0  0  0  0  0  0
   40.3480   26.5730   33.5440 C   0  0  0  0  0  0  0  0  0  0  0  0
   41.6690   26.9890   33.6880 C   0  0  0  0  0  0  0  0  0  0  0  0
   42.2610   27.6830   32.6440 C   0  0  0  0  0  0  0  0  0  0  0  0
   41.5730   27.9600   31.4860 C   0  0  0  0  0  0  0  0  0  0  0  0
   42.3520   28.8390   30.1850 Cl  0  0  0  0  0  0  0  0  0  0  0  0
   40.2490   27.5360   31.3560 C   0  0  0  0  0  0  0  0  0  0  0  0
   42.2540   26.8010   34.5680 H   0  0  0  0  0  0  0  0  0  0  0  0
   43.2890   28.0030   32.7630 H   0  0  0  0  0  0  0  0  0  0  0  0
   38.3180   25.7750   36.5060 C   0  0  0  0  0  0  0  0  0  0  0  0
   38.6320   24.4100   36.7050 C   0  0  0  0  0  0  0  0  0  0  0  0
   39.5310   23.8010   35.8210 C   0  0  0  0  0  0  0  0  0  0  0  0
   40.0530   24.5570   34.8170 N   0  0  0  0  0  0  0  0  0  0  0  0
   39.7380   25.8450   34.6490 C   0  0  0  0  0  0  0  0  0  0  0  0
   38.8840   26.4580   35.4760 N   0  0  0  0  0  0  0  0  0  0  0  0
   37.6200   26.2770   37.1800 H   0  0  0  0  0  0  0  0  0  0  0  0
   39.7670   22.7680   35.9770 H   0  0  0  0  0  0  0  0  0  0  0  0
   37.9880   23.6990   37.8480 C   0  0  0  0  0  0  0  0  0  0  0  0
   38.9510   22.9200   38.5250 F   0  0  0  0  0  0  0  0  0  0  0  0
   37.5200   24.6280   38.7310 F   0  0  0  0  0  0  0  0  0  0  0  0
   36.9880   22.8500   37.4480 F   0  0  0  0  0  0  0  0  0  0  0  0
   39.4790   27.8060   30.1480 C   0  0  0  0  0  0  0  0  0  0  0  0
   38.6280   28.8340   29.7960 C   0  0  0  0  0  0  0  0  0  0  0  0
   38.4100   29.6630   30.4710 H   0  0  0  0  0  0  0  0  0  0  0  0
   38.1360   28.6330   28.5200 C   0  0  0  0  0  0  0  0  0  0  0  0
   37.4610   29.2760   28.0070 H   0  0  0  0  0  0  0  0  0  0  0  0
   38.7130   27.4690   28.1290 N   0  0  0  0  0  0  0  0  0  0  0  0
   38.4780   27.1060   27.1590 H   0  0  0  0  0  0  0  0  0  0  0  0
   39.5050   26.9670   29.0720 N   0  0  0  0  0  0  0  0  0  0  0  0
  1  2  1  0  0  0  0
  2  3  1  0  0  0  0
  3  4  2  0  0  0  0
  3 15  1  0  0  0  0
  4  9  1  0  0  0  0
  5 10  1  0  0  0  0
  5  4  1  0  0  0  0
  6  5  2  0  0  0  0
  7  6  1  0  0  0  0
  8  6  1  0  0  0  0
  8  2  2  0  0  0  0
 11 12  1  0  0  0  0
 11 17  1  0  0  0  0
 12 19  1  0  0  0  0
 13 18  1  0  0  0  0
 13 12  2  0  0  0  0
 14 13  1  0  0  0  0
 15 14  2  0  0  0  0
 15 16  1  0  0  0  0
 16 11  2  0  0  0  0
 19 20  1  0  0  0  0
 19 21  1  0  0  0  0
 22 19  1  0  0  0  0
 23  8  1  0  0  0  0
 24 23  1  0  0  0  0
 24 25  1  0  0  0  0
 26 24  2  0  0  0  0
 27 26  1  0  0  0  0
 28 26  1  0  0  0  0
 28 30  1  0  0  0  0
 29 28  1  0  0  0  0
 30 23  2  0  0  0  0
M  END
>  <minimizedAffinity>
-5.36940813

$$$$

 OpenBabel03272500163D

 30 32  0  0  0  0  0  0  0  0999 V2000
   37.3480   27.4290   33.3600 Cl  0  0  0  0  0  0  0  0  0  0  0  0
   38.3480   26.3640   32.3760 C   0  0  0  0  0  0  0  0  0  0  0  0
   38.9130   25.2350   32.9360 C   0  0  0  0  0  0  0  0  0  0  0  0
   39.7070   24.3810   32.1740 C   0  0  0  0  0  0  0  0  0  0  0  0
   39.9190   24.6890   30.8400 C   0  0  0  0  0  0  0  0  0  0  0  0
   39.3630   25.8090   30.2660 C   0  0  0  0  0  0  0  0  0  0  0  0
   39.6510   26.1700   28.5750 Cl  0  0  0  0  0  0  0  0  0  0  0  0
   38.5700   26.6570   31.0430 C   0  0  0  0  0  0  0  0  0  0  0  0
   40.1650   23.4940   32.5680 H   0  0  0  0  0  0  0  0  0  0  0  0
   40.5360   24.0200   30.2540 H   0  0  0  0  0  0  0  0  0  0  0  0
   38.5200   25.5330   36.5810 C   0  0  0  0  0  0  0  0  0  0  0  0
   38.2900   24.1870   36.9520 C   0  0  0  0  0  0  0  0  0  0  0  0
   38.2760   23.2150   35.9440 C   0  0  0  0  0  0  0  0  0  0  0  0
   38.4850   23.6200   34.6620 N   0  0  0  0  0  0  0  0  0  0  0  0
   38.7000   24.8980   34.3370 C   0  0  0  0  0  0  0  0  0  0  0  0
   38.7200   25.8520   35.2750 N   0  0  0  0  0  0  0  0  0  0  0  0
   38.5370   26.3130   37.3460 H   0  0  0  0  0  0  0  0  0  0  0  0
   38.1020   22.1980   36.2300 H   0  0  0  0  0  0  0  0  0  0  0  0
   38.0760   23.8830   38.3970 C   0  0  0  0  0  0  0  0  0  0  0  0
   39.2950   23.4760   38.9810 F   0  0  0  0  0  0  0  0  0  0  0  0
   37.6810   25.0240   39.0290 F   0  0  0  0  0  0  0  0  0  0  0  0
   37.1730   22.8690   38.5960 F   0  0  0  0  0  0  0  0  0  0  0  0
   37.9600   27.8550   30.4800 C   0  0  0  0  0  0  0  0  0  0  0  0
   38.4830   29.0740   30.0970 C   0  0  0  0  0  0  0  0  0  0  0  0
   39.5460   29.3030   30.1860 H   0  0  0  0  0  0  0  0  0  0  0  0
   37.4820   29.8940   29.6130 C   0  0  0  0  0  0  0  0  0  0  0  0
   37.6110   30.8870   29.2520 H   0  0  0  0  0  0  0  0  0  0  0  0
   36.3610   29.1360   29.7190 N   0  0  0  0  0  0  0  0  0  0  0  0
   35.4440   29.5670   29.4000 H   0  0  0  0  0  0  0  0  0  0  0  0
   36.6220   27.9350   30.2260 N   0  0  0  0  0  0  0  0  0  0  0  0
  2  3  1  0  0  0  0
  2  1  1  0  0  0  0
  3 15  1  0  0  0  0
  4  9  1  0  0  0  0
  4  3  2  0  0  0  0
  5  4  1  0  0  0  0
  6  5  2  0  0  0  0
  6  8  1  0  0  0  0
  7  6  1  0  0  0  0
  8  2  2  0  0  0  0
 10  5  1  0  0  0  0
 11 12  1  0  0  0  0
 11 17  1  0  0  0  0
 12 19  1  0  0  0  0
 13 18  1  0  0  0  0
 13 12  2  0  0  0  0
 14 13  1  0  0  0  0
 15 14  2  0  0  0  0
 15 16  1  0  0  0  0
 16 11  2  0  0  0  0
 19 22  1  0  0  0  0
 19 20  1  0  0  0  0
 19 21  1  0  0  0  0
 23  8  1  0  0  0  0
 24 25  1  0  0  0  0
 24 23  1  0  0  0  0
 26 28  1  0  0  0  0
 26 24  2  0  0  0  0
 27 26  1  0  0  0  0
 28 30  1  0  0  0  0
 29 28  1  0  0  0  0
 30 23  2  0  0  0  0
M  END
>  <minimizedAffinity>
-5.34642839

$$$$

 OpenBabel03272500163D

 30 32  0  0  0  0  0  0  0  0999 V2000
   35.5540   28.5100   34.6570 Cl  0  0  0  0  0  0  0  0  0  0  0  0
   35.7830   29.7660   33.4440 C   0  0  0  0  0  0  0  0  0  0  0  0
   36.2500   29.4350   32.1870 C   0  0  0  0  0  0  0  0  0  0  0  0
   36.4370   30.4140   31.2150 C   0  0  0  0  0  0  0  0  0  0  0  0
   36.1450   31.7300   31.5350 C   0  0  0  0  0  0  0  0  0  0  0  0
   35.6780   32.0770   32.7820 C   0  0  0  0  0  0  0  0  0  0  0  0
   35.3170   33.7510   33.1550 Cl  0  0  0  0  0  0  0  0  0  0  0  0
   35.4960   31.0840   33.7480 C   0  0  0  0  0  0  0  0  0  0  0  0
   36.7990   30.2010   30.2270 H   0  0  0  0  0  0  0  0  0  0  0  0
   36.2920   32.4850   30.7740 H   0  0  0  0  0  0  0  0  0  0  0  0
   38.1090   26.3240   31.5570 C   0  0  0  0  0  0  0  0  0  0  0  0
   37.0710   25.4490   31.1600 C   0  0  0  0  0  0  0  0  0  0  0  0
   35.7630   25.9480   31.1200 C   0  0  0  0  0  0  0  0  0  0  0  0
   35.5640   27.2500   31.4640 N   0  0  0  0  0  0  0  0  0  0  0  0
   36.5630   28.0560   31.8360 C   0  0  0  0  0  0  0  0  0  0  0  0
   37.8230   27.6120   31.8860 N   0  0  0  0  0  0  0  0  0  0  0  0
   39.1400   25.9630   31.5970 H   0  0  0  0  0  0  0  0  0  0  0  0
   34.9800   25.2820   30.8190 H   0  0  0  0  0  0  0  0  0  0  0  0
   37.4300   24.0440   30.8080 C   0  0  0  0  0  0  0  0  0  0  0  0
   38.1940   23.4750   31.8500 F   0  0  0  0  0  0  0  0  0  0  0  0
   36.2830   23.3160   30.6970 F   0  0  0  0  0  0  0  0  0  0  0  0
   38.1820   23.9610   29.6630 F   0  0  0  0  0  0  0  0  0  0  0  0
   35.0030   31.4030   35.0820 C   0  0  0  0  0  0  0  0  0  0  0  0
   33.7330   31.4480   35.6210 C   0  0  0  0  0  0  0  0  0  0  0  0
   32.8450   31.2210   35.0290 H   0  0  0  0  0  0  0  0  0  0  0  0
   33.7900   31.8080   36.9530 C   0  0  0  0  0  0  0  0  0  0  0  0
   32.9540   31.9170   37.6040 H   0  0  0  0  0  0  0  0  0  0  0  0
   35.1160   31.9750   37.1890 N   0  0  0  0  0  0  0  0  0  0  0  0
   35.4090   32.2600   38.1690 H   0  0  0  0  0  0  0  0  0  0  0  0
   35.8450   31.7410   36.1010 N   0  0  0  0  0  0  0  0  0  0  0  0
  2  8  1  0  0  0  0
  2  1  1  0  0  0  0
  3  2  2  0  0  0  0
  4  5  2  0  0  0  0
  4  3  1  0  0  0  0
  5  6  1  0  0  0  0
  6  7  1  0  0  0  0
  6  8  2  0  0  0  0
  8 23  1  0  0  0  0
  9  4  1  0  0  0  0
 10  5  1  0  0  0  0
 11 17  1  0  0  0  0
 11 16  1  0  0  0  0
 12 11  2  0  0  0  0
 13 12  1  0  0  0  0
 13 14  2  0  0  0  0
 14 15  1  0  0  0  0
 15 16  2  0  0  0  0
 15  3  1  0  0  0  0
 18 13  1  0  0  0  0
 19 12  1  0  0  0  0
 19 20  1  0  0  0  0
 21 19  1  0  0  0  0
 22 19  1  0  0  0  0
 23 24  1  0  0  0  0
 23 30  2  0  0  0  0
 24 26  2  0  0  0  0
 25 24  1  0  0  0  0
 26 28  1  0  0  0  0
 26 27  1  0  0  0  0
 28 29  1  0  0  0  0
 30 28  1  0  0  0  0
M  END
>  <minimizedAffinity>
-5.26958799

$$$$

 OpenBabel03272500163D

 30 32  0  0  0  0  0  0  0  0999 V2000
   38.8490   26.1700   33.8310 Cl  0  0  0  0  0  0  0  0  0  0  0  0
   37.7320   25.0610   33.0410 C   0  0  0  0  0  0  0  0  0  0  0  0
   37.8260   23.7030   33.2730 C   0  0  0  0  0  0  0  0  0  0  0  0
   36.9530   22.8110   32.6580 C   0  0  0  0  0  0  0  0  0  0  0  0
   35.9840   23.3160   31.8050 C   0  0  0  0  0  0  0  0  0  0  0  0
   35.8750   24.6650   31.5620 C   0  0  0  0  0  0  0  0  0  0  0  0
   34.6390   25.2710   30.4780 Cl  0  0  0  0  0  0  0  0  0  0  0  0
   36.7600   25.5480   32.1870 C   0  0  0  0  0  0  0  0  0  0  0  0
   36.9910   21.7490   32.8100 H   0  0  0  0  0  0  0  0  0  0  0  0
   35.3080   22.6150   31.3300 H   0  0  0  0  0  0  0  0  0  0  0  0
   40.9860   22.3050   34.5360 C   0  0  0  0  0  0  0  0  0  0  0  0
   40.6930   22.1400   35.9100 C   0  0  0  0  0  0  0  0  0  0  0  0
   39.4220   22.5110   36.3660 C   0  0  0  0  0  0  0  0  0  0  0  0
   38.5390   23.0110   35.4610 N   0  0  0  0  0  0  0  0  0  0  0  0
   38.8400   23.1580   34.1670 C   0  0  0  0  0  0  0  0  0  0  0  0
   40.0440   22.8130   33.6980 N   0  0  0  0  0  0  0  0  0  0  0  0
   41.9700   22.0230   34.1520 H   0  0  0  0  0  0  0  0  0  0  0  0
   39.2060   22.3840   37.4080 H   0  0  0  0  0  0  0  0  0  0  0  0
   41.7570   21.5780   36.7940 C   0  0  0  0  0  0  0  0  0  0  0  0
   42.8180   22.5020   36.9040 F   0  0  0  0  0  0  0  0  0  0  0  0
   41.2380   21.4020   38.0430 F   0  0  0  0  0  0  0  0  0  0  0  0
   42.2860   20.4090   36.3090 F   0  0  0  0  0  0  0  0  0  0  0  0
   36.6840   26.9870   31.9610 C   0  0  0  0  0  0  0  0  0  0  0  0
   36.0220   28.0000   32.6250 C   0  0  0  0  0  0  0  0  0  0  0  0
   35.4040   27.8100   33.5030 H   0  0  0  0  0  0  0  0  0  0  0  0
   36.2700   29.2140   32.0140 C   0  0  0  0  0  0  0  0  0  0  0  0
   35.8820   30.1560   32.3230 H   0  0  0  0  0  0  0  0  0  0  0  0
   37.0890   28.8970   30.9790 N   0  0  0  0  0  0  0  0  0  0  0  0
   37.4190   29.6890   30.3530 H   0  0  0  0  0  0  0  0  0  0  0  0
   37.3440   27.5920   30.9320 N   0  0  0  0  0  0  0  0  0  0  0  0
  2  3  1  0  0  0  0
  2  1  1  0  0  0  0
  3 15  1  0  0  0  0
  4  9  1  0  0  0  0
  4  3  2  0  0  0  0
  5  4  1  0  0  0  0
  6  5  2  0  0  0  0
  6  8  1  0  0  0  0
  7  6  1  0  0  0  0
  8  2  2  0  0  0  0
 10  5  1  0  0  0  0
 11 12  1  0  0  0  0
 12 13  2  0  0  0  0
 12 19  1  0  0  0  0
 13 18  1  0  0  0  0
 14 13  1  0  0  0  0
 15 14  2  0  0  0  0
 16 15  1  0  0  0  0
 16 11  2  0  0  0  0
 17 11  1  0  0  0  0
 19 20  1  0  0  0  0
 19 21  1  0  0  0  0
 22 19  1  0  0  0  0
 23  8  1  0  0  0  0
 23 24  1  0  0  0  0
 24 25  1  0  0  0  0
 26 27  1  0  0  0  0
 26 24  2  0  0  0  0
 28 26  1  0  0  0  0
 29 28  1  0  0  0  0
 30 28  1  0  0  0  0
 30 23  2  0  0  0  0
M  END
>  <minimizedAffinity>
-5.22891617

$$$$

 OpenBabel03272500163D

 30 32  0  0  0  0  0  0  0  0999 V2000
   36.7050   27.6900   34.2970 Cl  0  0  0  0  0  0  0  0  0  0  0  0
   36.5930   28.5780   32.7800 C   0  0  0  0  0  0  0  0  0  0  0  0
   35.7820   29.6920   32.6890 C   0  0  0  0  0  0  0  0  0  0  0  0
   35.6810   30.4070   31.4990 C   0  0  0  0  0  0  0  0  0  0  0  0
   36.4120   29.9750   30.4040 C   0  0  0  0  0  0  0  0  0  0  0  0
   37.2240   28.8670   30.4760 C   0  0  0  0  0  0  0  0  0  0  0  0
   38.1350   28.3470   29.0720 Cl  0  0  0  0  0  0  0  0  0  0  0  0
   37.3150   28.1600   31.6770 C   0  0  0  0  0  0  0  0  0  0  0  0
   35.0640   31.2770   31.3850 H   0  0  0  0  0  0  0  0  0  0  0  0
   36.3280   30.5360   29.4810 H   0  0  0  0  0  0  0  0  0  0  0  0
   33.0630   30.1140   35.1310 C   0  0  0  0  0  0  0  0  0  0  0  0
   33.6130   31.0830   36.0030 C   0  0  0  0  0  0  0  0  0  0  0  0
   34.9000   31.5650   35.7310 C   0  0  0  0  0  0  0  0  0  0  0  0
   35.5500   31.0740   34.6410 N   0  0  0  0  0  0  0  0  0  0  0  0
   35.0080   30.1580   33.8330 C   0  0  0  0  0  0  0  0  0  0  0  0
   33.7810   29.6760   34.0630 N   0  0  0  0  0  0  0  0  0  0  0  0
   32.0610   29.7210   35.3180 H   0  0  0  0  0  0  0  0  0  0  0  0
   35.3120   32.2990   36.3940 H   0  0  0  0  0  0  0  0  0  0  0  0
   32.7900   31.5350   37.1620 C   0  0  0  0  0  0  0  0  0  0  0  0
   31.5360   31.9910   36.7030 F   0  0  0  0  0  0  0  0  0  0  0  0
   32.5620   30.4660   37.9780 F   0  0  0  0  0  0  0  0  0  0  0  0
   33.3690   32.5700   37.8520 F   0  0  0  0  0  0  0  0  0  0  0  0
   38.1630   26.9800   31.8030 C   0  0  0  0  0  0  0  0  0  0  0  0
   39.4810   26.8150   32.1780 C   0  0  0  0  0  0  0  0  0  0  0  0
   40.1130   27.6590   32.4560 H   0  0  0  0  0  0  0  0  0  0  0  0
   39.8270   25.4790   32.1370 C   0  0  0  0  0  0  0  0  0  0  0  0
   40.7820   25.0770   32.3790 H   0  0  0  0  0  0  0  0  0  0  0  0
   38.6890   24.8600   31.7320 N   0  0  0  0  0  0  0  0  0  0  0  0
   38.7150   23.8040   31.6260 H   0  0  0  0  0  0  0  0  0  0  0  0
   37.7000   25.7260   31.5300 N   0  0  0  0  0  0  0  0  0  0  0  0
  2  1  1  0  0  0  0
  3  2  1  0  0  0  0
  3 15  1  0  0  0  0
  4  3  2  0  0  0  0
  5  6  2  0  0  0  0
  5  4  1  0  0  0  0
  6  8  1  0  0  0  0
  7  6  1  0  0  0  0
  8 23  1  0  0  0  0
  8  2  2  0  0  0  0
  9  4  1  0  0  0  0
 10  5  1  0  0  0  0
 11 17  1  0  0  0  0
 11 12  1  0  0  0  0
 12 19  1  0  0  0  0
 13 12  2  0  0  0  0
 13 18  1  0  0  0  0
 14 13  1  0  0  0  0
 15 16  1  0  0  0  0
 15 14  2  0  0  0  0
 16 11  2  0  0  0  0
 19 22  1  0  0  0  0
 19 21  1  0  0  0  0
 20 19  1  0  0  0  0
 23 24  1  0  0  0  0
 24 25  1  0  0  0  0
 26 24  2  0  0  0  0
 26 27  1  0  0  0  0
 28 26  1  0  0  0  0
 29 28  1  0  0  0  0
 30 28  1  0  0  0  0
 30 23  2  0  0  0  0
M  END
>  <minimizedAffinity>
-5.22516394

$$$$

 OpenBabel03272500163D

 30 32  0  0  0  0  0  0  0  0999 V2000
   40.4730   26.0670   32.5620 Cl  0  0  0  0  0  0  0  0  0  0  0  0
   38.9670   26.8880   32.1600 C   0  0  0  0  0  0  0  0  0  0  0  0
   37.8960   26.8310   33.0290 C   0  0  0  0  0  0  0  0  0  0  0  0
   36.6980   27.4730   32.7290 C   0  0  0  0  0  0  0  0  0  0  0  0
   36.6030   28.1720   31.5360 C   0  0  0  0  0  0  0  0  0  0  0  0
   37.6600   28.2390   30.6590 C   0  0  0  0  0  0  0  0  0  0  0  0
   37.5070   29.1310   29.1580 Cl  0  0  0  0  0  0  0  0  0  0  0  0
   38.8560   27.5890   30.9740 C   0  0  0  0  0  0  0  0  0  0  0  0
   35.8410   27.4550   33.3750 H   0  0  0  0  0  0  0  0  0  0  0  0
   35.6680   28.6690   31.3100 H   0  0  0  0  0  0  0  0  0  0  0  0
   38.0190   24.0860   35.4750 C   0  0  0  0  0  0  0  0  0  0  0  0
   38.1470   24.7960   36.6910 C   0  0  0  0  0  0  0  0  0  0  0  0
   38.1870   26.1940   36.6410 C   0  0  0  0  0  0  0  0  0  0  0  0
   38.1010   26.7940   35.4230 N   0  0  0  0  0  0  0  0  0  0  0  0
   37.9810   26.0990   34.2870 C   0  0  0  0  0  0  0  0  0  0  0  0
   37.9390   24.7630   34.2990 N   0  0  0  0  0  0  0  0  0  0  0  0
   37.9850   22.9930   35.4830 H   0  0  0  0  0  0  0  0  0  0  0  0
   38.2840   26.7280   37.5650 H   0  0  0  0  0  0  0  0  0  0  0  0
   38.2310   24.0120   37.9580 C   0  0  0  0  0  0  0  0  0  0  0  0
   39.4850   23.3690   38.0350 F   0  0  0  0  0  0  0  0  0  0  0  0
   38.1490   24.8750   39.0110 F   0  0  0  0  0  0  0  0  0  0  0  0
   37.2700   23.0360   38.0430 F   0  0  0  0  0  0  0  0  0  0  0  0
   40.0030   27.6320   30.0760 C   0  0  0  0  0  0  0  0  0  0  0  0
   41.0730   28.4980   29.9720 C   0  0  0  0  0  0  0  0  0  0  0  0
   41.1910   29.3560   30.6350 H   0  0  0  0  0  0  0  0  0  0  0  0
   41.9090   28.1060   28.9440 C   0  0  0  0  0  0  0  0  0  0  0  0
   42.8050   28.5980   28.6500 H   0  0  0  0  0  0  0  0  0  0  0  0
   41.3110   26.9940   28.4450 N   0  0  0  0  0  0  0  0  0  0  0  0
   41.7840   26.5070   27.6280 H   0  0  0  0  0  0  0  0  0  0  0  0
   40.1900   26.7000   29.0970 N   0  0  0  0  0  0  0  0  0  0  0  0
  2  1  1  0  0  0  0
  2  3  1  0  0  0  0
  3 15  1  0  0  0  0
  4  3  2  0  0  0  0
  4  9  1  0  0  0  0
  5  4  1  0  0  0  0
  6  8  1  0  0  0  0
  6  5  2  0  0  0  0
  7  6  1  0  0  0  0
  8  2  2  0  0  0  0
 10  5  1  0  0  0  0
 11 17  1  0  0  0  0
 11 12  1  0  0  0  0
 12 19  1  0  0  0  0
 13 12  2  0  0  0  0
 13 18  1  0  0  0  0
 14 13  1  0  0  0  0
 15 16  1  0  0  0  0
 15 14  2  0  0  0  0
 16 11  2  0  0  0  0
 19 20  1  0  0  0  0
 19 22  1  0  0  0  0
 19 21  1  0  0  0  0
 23  8  1  0  0  0  0
 24 23  1  0  0  0  0
 24 25  1  0  0  0  0
 26 24  2  0  0  0  0
 27 26  1  0  0  0  0
 28 26  1  0  0  0  0
 28 30  1  0  0  0  0
 29 28  1  0  0  0  0
 30 23  2  0  0  0  0
M  END
>  <minimizedAffinity>
-5.20135212

$$$$

 OpenBabel03272500163D

 30 32  0  0  0  0  0  0  0  0999 V2000
   36.8520   27.3780   34.6190 Cl  0  0  0  0  0  0  0  0  0  0  0  0
   37.5020   27.1460   32.9990 C   0  0  0  0  0  0  0  0  0  0  0  0
   38.4500   26.1680   32.7680 C   0  0  0  0  0  0  0  0  0  0  0  0
   38.9750   25.9700   31.4950 C   0  0  0  0  0  0  0  0  0  0  0  0
   38.5270   26.7760   30.4600 C   0  0  0  0  0  0  0  0  0  0  0  0
   37.5840   27.7550   30.6720 C   0  0  0  0  0  0  0  0  0  0  0  0
   37.0390   28.7580   29.3430 Cl  0  0  0  0  0  0  0  0  0  0  0  0
   37.0660   27.9430   31.9560 C   0  0  0  0  0  0  0  0  0  0  0  0
   39.7120   25.2220   31.2710 H   0  0  0  0  0  0  0  0  0  0  0  0
   38.9400   26.6150   29.4720 H   0  0  0  0  0  0  0  0  0  0  0  0
   38.6160   23.5330   35.3290 C   0  0  0  0  0  0  0  0  0  0  0  0
   39.9050   23.7470   35.8730 C   0  0  0  0  0  0  0  0  0  0  0  0
   40.6800   24.7880   35.3480 C   0  0  0  0  0  0  0  0  0  0  0  0
   40.1510   25.5360   34.3420 N   0  0  0  0  0  0  0  0  0  0  0  0
   38.9310   25.3130   33.8460 C   0  0  0  0  0  0  0  0  0  0  0  0
   38.1630   24.3280   34.3240 N   0  0  0  0  0  0  0  0  0  0  0  0
   37.9880   22.7280   35.7200 H   0  0  0  0  0  0  0  0  0  0  0  0
   41.6550   24.9470   35.7630 H   0  0  0  0  0  0  0  0  0  0  0  0
   40.3610   22.8510   36.9750 C   0  0  0  0  0  0  0  0  0  0  0  0
   40.0970   21.5080   36.6340 F   0  0  0  0  0  0  0  0  0  0  0  0
   41.7120   22.9800   37.1100 F   0  0  0  0  0  0  0  0  0  0  0  0
   39.7200   23.1020   38.1620 F   0  0  0  0  0  0  0  0  0  0  0  0
   36.0650   28.9670   32.2300 C   0  0  0  0  0  0  0  0  0  0  0  0
   36.1590   30.3270   32.4440 C   0  0  0  0  0  0  0  0  0  0  0  0
   37.1150   30.8510   32.4310 H   0  0  0  0  0  0  0  0  0  0  0  0
   34.9050   30.8650   32.6630 C   0  0  0  0  0  0  0  0  0  0  0  0
   34.6930   31.8900   32.8540 H   0  0  0  0  0  0  0  0  0  0  0  0
   34.0730   29.7960   32.5740 N   0  0  0  0  0  0  0  0  0  0  0  0
   33.0340   29.9700   32.7100 H   0  0  0  0  0  0  0  0  0  0  0  0
   34.7360   28.6720   32.3190 N   0  0  0  0  0  0  0  0  0  0  0  0
  2  1  1  0  0  0  0
  3  2  1  0  0  0  0
  3 15  1  0  0  0  0
  4  3  2  0  0  0  0
  5  6  2  0  0  0  0
  5  4  1  0  0  0  0
  6  8  1  0  0  0  0
  7  6  1  0  0  0  0
  8 23  1  0  0  0  0
  8  2  2  0  0  0  0
  9  4  1  0  0  0  0
 10  5  1  0  0  0  0
 11 17  1  0  0  0  0
 11 12  1  0  0  0  0
 12 19  1  0  0  0  0
 13 18  1  0  0  0  0
 13 12  2  0  0  0  0
 14 13  1  0  0  0  0
 15 16  1  0  0  0  0
 15 14  2  0  0  0  0
 16 11  2  0  0  0  0
 19 21  1  0  0  0  0
 19 22  1  0  0  0  0
 20 19  1  0  0  0  0
 23 30  2  0  0  0  0
 23 24  1  0  0  0  0
 24 26  2  0  0  0  0
 25 24  1  0  0  0  0
 26 27  1  0  0  0  0
 28 26  1  0  0  0  0
 28 29  1  0  0  0  0
 30 28  1  0  0  0  0
M  END
>  <minimizedAffinity>
-5.02997255

$$$$
