
 OpenBabel03272509253D

 23 24  0  0  0  0  0  0  0  0999 V2000
   38.0100   26.0690   35.6170 C   0  0  0  0  0  0  0  0  0  0  0  0
   38.9720   26.6070   35.7250 H   0  0  0  0  0  0  0  0  0  0  0  0
   37.3700   26.1220   36.5100 H   0  0  0  0  0  0  0  0  0  0  0  0
   36.1100   28.4000   33.3180 C   0  0  0  0  0  0  0  0  0  0  0  0
   36.7610   27.9500   34.4890 C   0  0  0  0  0  0  0  0  0  0  0  0
   37.3010   26.6760   34.4650 C   0  0  0  0  0  0  0  0  0  0  0  0
   37.1770   25.9340   33.3210 N   0  0  0  0  0  0  0  0  0  0  0  0
   36.5500   26.3930   32.2210 C   0  0  0  0  0  0  0  0  0  0  0  0
   36.0130   27.6370   32.2210 N   0  0  0  0  0  0  0  0  0  0  0  0
   35.7060   29.4130   33.4030 H   0  0  0  0  0  0  0  0  0  0  0  0
   36.8460   28.5430   35.3680 H   0  0  0  0  0  0  0  0  0  0  0  0
   36.4610   25.7930   31.3260 H   0  0  0  0  0  0  0  0  0  0  0  0
   38.3840   24.6270   35.3030 C   0  0  0  0  0  0  0  0  0  0  0  0
   37.5610   24.0820   34.8200 H   0  0  0  0  0  0  0  0  0  0  0  0
   39.3400   24.6050   34.7550 H   0  0  0  0  0  0  0  0  0  0  0  0
   38.6280   23.9740   36.6400 C   0  0  0  0  0  0  0  0  0  0  0  0
   38.0020   24.2520   37.8480 C   0  0  0  0  0  0  0  0  0  0  0  0
   37.2280   25.0020   37.9970 H   0  0  0  0  0  0  0  0  0  0  0  0
   38.5480   23.4070   38.7930 C   0  0  0  0  0  0  0  0  0  0  0  0
   38.2990   23.3450   39.8470 H   0  0  0  0  0  0  0  0  0  0  0  0
   39.4770   22.6390   38.1730 N   0  0  0  0  0  0  0  0  0  0  0  0
   40.1020   21.8780   38.5710 H   0  0  0  0  0  0  0  0  0  0  0  0
   39.5140   22.9910   36.8780 N   0  0  0  0  0  0  0  0  0  0  0  0
  1  2  1  0  0  0  0
  1  3  1  0  0  0  0
  4 10  1  0  0  0  0
  4  5  1  0  0  0  0
  5 11  1  0  0  0  0
  6  5  2  0  0  0  0
  6  1  1  0  0  0  0
  7  6  1  0  0  0  0
  8  9  1  0  0  0  0
  8  7  2  0  0  0  0
  9  4  2  0  0  0  0
 12  8  1  0  0  0  0
 13  1  1  0  0  0  0
 13 16  1  0  0  0  0
 14 13  1  0  0  0  0
 15 13  1  0  0  0  0
 16 23  2  0  0  0  0
 16 17  1  0  0  0  0
 17 18  1  0  0  0  0
 17 19  2  0  0  0  0
 19 20  1  0  0  0  0
 21 22  1  0  0  0  0
 21 19  1  0  0  0  0
 23 21  1  0  0  0  0
M  END
>  <minimizedAffinity>
-4.21005392

$$$$

 OpenBabel03272509253D

 23 24  0  0  0  0  0  0  0  0999 V2000
   38.4550   26.3930   36.1710 C   0  0  0  0  0  0  0  0  0  0  0  0
   39.2420   26.2400   36.9350 H   0  0  0  0  0  0  0  0  0  0  0  0
   37.7550   27.2050   36.4140 H   0  0  0  0  0  0  0  0  0  0  0  0
   41.0400   27.0970   33.4970 C   0  0  0  0  0  0  0  0  0  0  0  0
   40.5200   26.7970   34.7760 C   0  0  0  0  0  0  0  0  0  0  0  0
   39.1430   26.6990   34.8950 C   0  0  0  0  0  0  0  0  0  0  0  0
   38.3750   26.8950   33.7780 N   0  0  0  0  0  0  0  0  0  0  0  0
   38.9030   27.1790   32.5730 C   0  0  0  0  0  0  0  0  0  0  0  0
   40.2480   27.2800   32.4320 N   0  0  0  0  0  0  0  0  0  0  0  0
   42.1310   27.1600   33.4720 H   0  0  0  0  0  0  0  0  0  0  0  0
   41.1340   26.6480   35.6310 H   0  0  0  0  0  0  0  0  0  0  0  0
   38.2810   27.3320   31.7010 H   0  0  0  0  0  0  0  0  0  0  0  0
   37.7260   25.0610   36.0680 C   0  0  0  0  0  0  0  0  0  0  0  0
   36.7190   25.1050   36.5060 H   0  0  0  0  0  0  0  0  0  0  0  0
   37.7630   24.6990   35.0280 H   0  0  0  0  0  0  0  0  0  0  0  0
   38.5320   24.0950   36.8990 C   0  0  0  0  0  0  0  0  0  0  0  0
   39.6760   23.4030   36.5250 C   0  0  0  0  0  0  0  0  0  0  0  0
   40.1600   23.4660   35.5530 H   0  0  0  0  0  0  0  0  0  0  0  0
   40.0630   22.6400   37.6090 C   0  0  0  0  0  0  0  0  0  0  0  0
   40.9160   21.9730   37.6770 H   0  0  0  0  0  0  0  0  0  0  0  0
   39.1770   22.8660   38.6100 N   0  0  0  0  0  0  0  0  0  0  0  0
   39.1460   22.4600   39.5910 H   0  0  0  0  0  0  0  0  0  0  0  0
   38.2620   23.7430   38.1690 N   0  0  0  0  0  0  0  0  0  0  0  0
  1  3  1  0  0  0  0
  1  2  1  0  0  0  0
  4  5  1  0  0  0  0
  5  6  2  0  0  0  0
  5 11  1  0  0  0  0
  6  1  1  0  0  0  0
  7  6  1  0  0  0  0
  8  7  2  0  0  0  0
  9  8  1  0  0  0  0
  9  4  2  0  0  0  0
 10  4  1  0  0  0  0
 12  8  1  0  0  0  0
 13  1  1  0  0  0  0
 13 14  1  0  0  0  0
 13 16  1  0  0  0  0
 15 13  1  0  0  0  0
 16 23  2  0  0  0  0
 17 16  1  0  0  0  0
 17 19  2  0  0  0  0
 18 17  1  0  0  0  0
 19 20  1  0  0  0  0
 19 21  1  0  0  0  0
 21 22  1  0  0  0  0
 23 21  1  0  0  0  0
M  END
>  <minimizedAffinity>
-4.09552813

$$$$

 OpenBabel03272509253D

 23 24  0  0  0  0  0  0  0  0999 V2000
   37.0920   21.5970   34.9960 C   0  0  0  0  0  0  0  0  0  0  0  0
   36.2750   22.0530   35.5890 H   0  0  0  0  0  0  0  0  0  0  0  0
   37.4520   20.6410   35.4010 H   0  0  0  0  0  0  0  0  0  0  0  0
   36.4690   21.7440   31.2650 C   0  0  0  0  0  0  0  0  0  0  0  0
   37.0670   22.0390   32.5110 C   0  0  0  0  0  0  0  0  0  0  0  0
   36.5670   21.3870   33.6260 C   0  0  0  0  0  0  0  0  0  0  0  0
   35.5340   20.5030   33.4590 N   0  0  0  0  0  0  0  0  0  0  0  0
   34.9870   20.2440   32.2560 C   0  0  0  0  0  0  0  0  0  0  0  0
   35.4590   20.8700   31.1510 N   0  0  0  0  0  0  0  0  0  0  0  0
   36.9080   22.2910   30.4270 H   0  0  0  0  0  0  0  0  0  0  0  0
   37.8680   22.7300   32.6190 H   0  0  0  0  0  0  0  0  0  0  0  0
   34.1720   19.5430   32.1430 H   0  0  0  0  0  0  0  0  0  0  0  0
   38.2070   22.6340   34.9780 C   0  0  0  0  0  0  0  0  0  0  0  0
   39.0940   22.2790   34.4350 H   0  0  0  0  0  0  0  0  0  0  0  0
   37.8070   23.6000   34.6300 H   0  0  0  0  0  0  0  0  0  0  0  0
   38.6090   22.8180   36.4190 C   0  0  0  0  0  0  0  0  0  0  0  0
   37.9140   23.4890   37.4160 C   0  0  0  0  0  0  0  0  0  0  0  0
   36.9570   23.9890   37.2880 H   0  0  0  0  0  0  0  0  0  0  0  0
   38.6660   23.3970   38.5700 C   0  0  0  0  0  0  0  0  0  0  0  0
   38.4310   23.8050   39.5470 H   0  0  0  0  0  0  0  0  0  0  0  0
   39.7850   22.6880   38.2780 N   0  0  0  0  0  0  0  0  0  0  0  0
   40.5960   22.4130   38.9070 H   0  0  0  0  0  0  0  0  0  0  0  0
   39.7370   22.3460   36.9810 N   0  0  0  0  0  0  0  0  0  0  0  0
  1  3  1  0  0  0  0
  1  2  1  0  0  0  0
  4  5  1  0  0  0  0
  5 11  1  0  0  0  0
  5  6  2  0  0  0  0
  6  1  1  0  0  0  0
  7  6  1  0  0  0  0
  8  7  2  0  0  0  0
  9  4  2  0  0  0  0
  9  8  1  0  0  0  0
 10  4  1  0  0  0  0
 12  8  1  0  0  0  0
 13  1  1  0  0  0  0
 13 16  1  0  0  0  0
 14 13  1  0  0  0  0
 15 13  1  0  0  0  0
 16 23  2  0  0  0  0
 16 17  1  0  0  0  0
 17 19  2  0  0  0  0
 18 17  1  0  0  0  0
 19 20  1  0  0  0  0
 21 19  1  0  0  0  0
 21 22  1  0  0  0  0
 23 21  1  0  0  0  0
M  END
>  <minimizedAffinity>
-3.92792392

$$$$

 OpenBabel03272509253D

 23 24  0  0  0  0  0  0  0  0999 V2000
   38.6090   22.2550   34.2120 C   0  0  0  0  0  0  0  0  0  0  0  0
   38.7570   21.5190   35.0260 H   0  0  0  0  0  0  0  0  0  0  0  0
   39.4710   22.3470   33.5360 H   0  0  0  0  0  0  0  0  0  0  0  0
   35.3230   20.7160   33.1360 C   0  0  0  0  0  0  0  0  0  0  0  0
   36.3950   21.0640   33.9880 C   0  0  0  0  0  0  0  0  0  0  0  0
   37.4210   21.8170   33.4420 C   0  0  0  0  0  0  0  0  0  0  0  0
   37.3380   22.1770   32.1230 N   0  0  0  0  0  0  0  0  0  0  0  0
   36.3010   21.8280   31.3380 C   0  0  0  0  0  0  0  0  0  0  0  0
   35.2860   21.0910   31.8500 N   0  0  0  0  0  0  0  0  0  0  0  0
   34.5480   20.1210   33.6270 H   0  0  0  0  0  0  0  0  0  0  0  0
   36.4400   20.7740   35.0100 H   0  0  0  0  0  0  0  0  0  0  0  0
   36.2530   22.1200   30.2980 H   0  0  0  0  0  0  0  0  0  0  0  0
   38.3240   23.5780   34.9100 C   0  0  0  0  0  0  0  0  0  0  0  0
   38.9830   24.3830   34.5580 H   0  0  0  0  0  0  0  0  0  0  0  0
   37.2460   23.8020   34.8490 H   0  0  0  0  0  0  0  0  0  0  0  0
   38.6430   23.3430   36.3650 C   0  0  0  0  0  0  0  0  0  0  0  0
   38.0270   23.9100   37.4720 C   0  0  0  0  0  0  0  0  0  0  0  0
   37.2050   24.6220   37.4380 H   0  0  0  0  0  0  0  0  0  0  0  0
   38.6530   23.4000   38.5920 C   0  0  0  0  0  0  0  0  0  0  0  0
   38.4320   23.6210   39.6310 H   0  0  0  0  0  0  0  0  0  0  0  0
   39.6200   22.5480   38.1730 N   0  0  0  0  0  0  0  0  0  0  0  0
   40.3060   21.9700   38.7410 H   0  0  0  0  0  0  0  0  0  0  0  0
   39.6030   22.5240   36.8300 N   0  0  0  0  0  0  0  0  0  0  0  0
  1 13  1  0  0  0  0
  1  2  1  0  0  0  0
  3  1  1  0  0  0  0
  4 10  1  0  0  0  0
  4  5  1  0  0  0  0
  5 11  1  0  0  0  0
  6  5  2  0  0  0  0
  6  1  1  0  0  0  0
  7  6  1  0  0  0  0
  8  9  1  0  0  0  0
  8  7  2  0  0  0  0
  9  4  2  0  0  0  0
 12  8  1  0  0  0  0
 13 16  1  0  0  0  0
 14 13  1  0  0  0  0
 15 13  1  0  0  0  0
 16 23  2  0  0  0  0
 16 17  1  0  0  0  0
 17 19  2  0  0  0  0
 18 17  1  0  0  0  0
 19 20  1  0  0  0  0
 21 19  1  0  0  0  0
 21 22  1  0  0  0  0
 23 21  1  0  0  0  0
M  END
>  <minimizedAffinity>
-3.91840363

$$$$

 OpenBabel03272509253D

 23 24  0  0  0  0  0  0  0  0999 V2000
   38.2470   24.4490   34.4920 C   0  0  0  0  0  0  0  0  0  0  0  0
   37.7040   23.4850   34.4380 H   0  0  0  0  0  0  0  0  0  0  0  0
   39.3040   24.3790   34.1960 H   0  0  0  0  0  0  0  0  0  0  0  0
   36.4470   26.0570   31.5770 C   0  0  0  0  0  0  0  0  0  0  0  0
   37.1020   25.0530   32.3260 C   0  0  0  0  0  0  0  0  0  0  0  0
   37.5440   25.3940   33.5930 C   0  0  0  0  0  0  0  0  0  0  0  0
   37.3220   26.6690   34.0430 N   0  0  0  0  0  0  0  0  0  0  0  0
   36.6930   27.6010   33.3030 C   0  0  0  0  0  0  0  0  0  0  0  0
   36.2520   27.2910   32.0590 N   0  0  0  0  0  0  0  0  0  0  0  0
   36.1240   25.7240   30.5860 H   0  0  0  0  0  0  0  0  0  0  0  0
   37.2640   24.0690   31.9580 H   0  0  0  0  0  0  0  0  0  0  0  0
   36.5270   28.6030   33.6740 H   0  0  0  0  0  0  0  0  0  0  0  0
   38.1180   24.9060   35.9390 C   0  0  0  0  0  0  0  0  0  0  0  0
   38.5840   25.8870   36.1070 H   0  0  0  0  0  0  0  0  0  0  0  0
   37.0660   24.8320   36.2570 H   0  0  0  0  0  0  0  0  0  0  0  0
   38.8940   23.8990   36.7500 C   0  0  0  0  0  0  0  0  0  0  0  0
   40.0560   23.2310   36.3880 C   0  0  0  0  0  0  0  0  0  0  0  0
   40.5790   23.3470   35.4420 H   0  0  0  0  0  0  0  0  0  0  0  0
   40.4010   22.4120   37.4450 C   0  0  0  0  0  0  0  0  0  0  0  0
   41.2540   21.7450   37.5130 H   0  0  0  0  0  0  0  0  0  0  0  0
   39.4730   22.5810   38.4190 N   0  0  0  0  0  0  0  0  0  0  0  0
   39.4030   22.1240   39.3750 H   0  0  0  0  0  0  0  0  0  0  0  0
   38.5730   23.4790   37.9870 N   0  0  0  0  0  0  0  0  0  0  0  0
  1 13  1  0  0  0  0
  2  1  1  0  0  0  0
  3  1  1  0  0  0  0
  4  9  2  0  0  0  0
  4  5  1  0  0  0  0
  5  6  2  0  0  0  0
  6  7  1  0  0  0  0
  6  1  1  0  0  0  0
  8 12  1  0  0  0  0
  8  7  2  0  0  0  0
  9  8  1  0  0  0  0
 10  4  1  0  0  0  0
 11  5  1  0  0  0  0
 13 14  1  0  0  0  0
 13 15  1  0  0  0  0
 13 16  1  0  0  0  0
 16 23  2  0  0  0  0
 17 16  1  0  0  0  0
 17 19  2  0  0  0  0
 18 17  1  0  0  0  0
 19 20  1  0  0  0  0
 19 21  1  0  0  0  0
 21 22  1  0  0  0  0
 23 21  1  0  0  0  0
M  END
>  <minimizedAffinity>
-3.82404518

$$$$

 OpenBabel03272509253D

 23 24  0  0  0  0  0  0  0  0999 V2000
   38.7730   23.5400   34.0330 C   0  0  0  0  0  0  0  0  0  0  0  0
   39.5720   23.0780   33.4210 H   0  0  0  0  0  0  0  0  0  0  0  0
   39.1280   24.3490   34.6870 H   0  0  0  0  0  0  0  0  0  0  0  0
   36.4450   25.7840   32.0660 C   0  0  0  0  0  0  0  0  0  0  0  0
   37.4310   25.4170   33.0090 C   0  0  0  0  0  0  0  0  0  0  0  0
   37.7600   24.0740   33.0910 C   0  0  0  0  0  0  0  0  0  0  0  0
   37.1200   23.1910   32.2630 N   0  0  0  0  0  0  0  0  0  0  0  0
   36.1850   23.5750   31.3750 C   0  0  0  0  0  0  0  0  0  0  0  0
   35.8450   24.8840   31.2760 N   0  0  0  0  0  0  0  0  0  0  0  0
   36.2310   26.8570   32.0510 H   0  0  0  0  0  0  0  0  0  0  0  0
   37.9160   26.1190   33.6430 H   0  0  0  0  0  0  0  0  0  0  0  0
   35.6890   22.8640   30.7290 H   0  0  0  0  0  0  0  0  0  0  0  0
   38.1790   22.4020   34.8510 C   0  0  0  0  0  0  0  0  0  0  0  0
   37.0810   22.4180   34.8480 H   0  0  0  0  0  0  0  0  0  0  0  0
   38.6300   21.4470   34.5360 H   0  0  0  0  0  0  0  0  0  0  0  0
   38.6250   22.6510   36.2700 C   0  0  0  0  0  0  0  0  0  0  0  0
   37.9820   23.4070   37.2410 C   0  0  0  0  0  0  0  0  0  0  0  0
   37.0430   23.9370   37.1060 H   0  0  0  0  0  0  0  0  0  0  0  0
   38.7590   23.3490   38.3820 C   0  0  0  0  0  0  0  0  0  0  0  0
   38.5640   23.8220   39.3390 H   0  0  0  0  0  0  0  0  0  0  0  0
   39.8400   22.5790   38.1070 N   0  0  0  0  0  0  0  0  0  0  0  0
   40.6550   22.3070   38.7320 H   0  0  0  0  0  0  0  0  0  0  0  0
   39.7460   22.1660   36.8330 N   0  0  0  0  0  0  0  0  0  0  0  0
  1  3  1  0  0  0  0
  1 13  1  0  0  0  0
  2  1  1  0  0  0  0
  4  5  1  0  0  0  0
  5  6  2  0  0  0  0
  5 11  1  0  0  0  0
  6  1  1  0  0  0  0
  7  6  1  0  0  0  0
  8  7  2  0  0  0  0
  9  8  1  0  0  0  0
  9  4  2  0  0  0  0
 10  4  1  0  0  0  0
 12  8  1  0  0  0  0
 13 16  1  0  0  0  0
 14 13  1  0  0  0  0
 15 13  1  0  0  0  0
 16 23  2  0  0  0  0
 16 17  1  0  0  0  0
 17 19  2  0  0  0  0
 18 17  1  0  0  0  0
 19 20  1  0  0  0  0
 21 19  1  0  0  0  0
 21 22  1  0  0  0  0
 23 21  1  0  0  0  0
M  END
>  <minimizedAffinity>
-3.8227663

$$$$

 OpenBabel03272509253D

 23 24  0  0  0  0  0  0  0  0999 V2000
   38.3260   25.1930   33.4790 C   0  0  0  0  0  0  0  0  0  0  0  0
   37.5520   25.9840   33.4410 H   0  0  0  0  0  0  0  0  0  0  0  0
   39.3520   25.5730   33.3690 H   0  0  0  0  0  0  0  0  0  0  0  0
   37.9160   24.4200   37.1620 C   0  0  0  0  0  0  0  0  0  0  0  0
   38.0350   25.1960   35.9870 C   0  0  0  0  0  0  0  0  0  0  0  0
   38.1870   24.5150   34.7900 C   0  0  0  0  0  0  0  0  0  0  0  0
   38.2120   23.1460   34.8140 N   0  0  0  0  0  0  0  0  0  0  0  0
   38.0960   22.4370   35.9530 C   0  0  0  0  0  0  0  0  0  0  0  0
   37.9460   23.0810   37.1360 N   0  0  0  0  0  0  0  0  0  0  0  0
   37.7990   25.0170   38.0710 H   0  0  0  0  0  0  0  0  0  0  0  0
   38.0130   26.2590   35.9900 H   0  0  0  0  0  0  0  0  0  0  0  0
   38.1180   21.3560   35.9530 H   0  0  0  0  0  0  0  0  0  0  0  0
   37.9790   24.2310   32.3520 C   0  0  0  0  0  0  0  0  0  0  0  0
   38.7990   24.1300   31.6270 H   0  0  0  0  0  0  0  0  0  0  0  0
   37.6150   23.2810   32.7750 H   0  0  0  0  0  0  0  0  0  0  0  0
   36.8180   24.8630   31.6260 C   0  0  0  0  0  0  0  0  0  0  0  0
   35.5520   24.3300   31.4240 C   0  0  0  0  0  0  0  0  0  0  0  0
   35.2170   23.3550   31.7720 H   0  0  0  0  0  0  0  0  0  0  0  0
   34.8270   25.2630   30.7110 C   0  0  0  0  0  0  0  0  0  0  0  0
   33.7970   25.1850   30.3760 H   0  0  0  0  0  0  0  0  0  0  0  0
   35.6320   26.3310   30.4890 N   0  0  0  0  0  0  0  0  0  0  0  0
   35.4280   27.2390   29.9770 H   0  0  0  0  0  0  0  0  0  0  0  0
   36.8270   26.0760   31.0460 N   0  0  0  0  0  0  0  0  0  0  0  0
  1  6  1  0  0  0  0
  2  1  1  0  0  0  0
  3  1  1  0  0  0  0
  4 10  1  0  0  0  0
  5 11  1  0  0  0  0
  5  4  2  0  0  0  0
  6  7  2  0  0  0  0
  6  5  1  0  0  0  0
  7  8  1  0  0  0  0
  8  9  2  0  0  0  0
  9  4  1  0  0  0  0
 12  8  1  0  0  0  0
 13 15  1  0  0  0  0
 13  1  1  0  0  0  0
 14 13  1  0  0  0  0
 16 13  1  0  0  0  0
 17 16  1  0  0  0  0
 17 18  1  0  0  0  0
 19 17  2  0  0  0  0
 20 19  1  0  0  0  0
 21 19  1  0  0  0  0
 21 23  1  0  0  0  0
 22 21  1  0  0  0  0
 23 16  2  0  0  0  0
M  END
>  <minimizedAffinity>
-3.67479992

$$$$

 OpenBabel03272509253D

 23 24  0  0  0  0  0  0  0  0999 V2000
   38.4100   26.6500   35.9890 C   0  0  0  0  0  0  0  0  0  0  0  0
   37.4260   27.1330   36.1430 H   0  0  0  0  0  0  0  0  0  0  0  0
   39.1790   26.9730   36.7060 H   0  0  0  0  0  0  0  0  0  0  0  0
   37.7020   23.1650   37.2850 C   0  0  0  0  0  0  0  0  0  0  0  0
   37.8710   24.5670   37.3100 C   0  0  0  0  0  0  0  0  0  0  0  0
   38.1990   25.1880   36.1160 C   0  0  0  0  0  0  0  0  0  0  0  0
   38.3370   24.4160   34.9930 N   0  0  0  0  0  0  0  0  0  0  0  0
   38.1680   23.0810   35.0050 C   0  0  0  0  0  0  0  0  0  0  0  0
   37.8470   22.4500   36.1610 N   0  0  0  0  0  0  0  0  0  0  0  0
   37.4450   22.7360   38.2580 H   0  0  0  0  0  0  0  0  0  0  0  0
   37.7590   25.1480   38.1940 H   0  0  0  0  0  0  0  0  0  0  0  0
   38.2820   22.4860   34.1080 H   0  0  0  0  0  0  0  0  0  0  0  0
   38.8160   27.0000   34.5640 C   0  0  0  0  0  0  0  0  0  0  0  0
   39.6220   27.7450   34.5340 H   0  0  0  0  0  0  0  0  0  0  0  0
   39.0190   26.0750   34.0010 H   0  0  0  0  0  0  0  0  0  0  0  0
   37.5970   27.6350   33.9430 C   0  0  0  0  0  0  0  0  0  0  0  0
   37.2750   27.7140   32.5950 C   0  0  0  0  0  0  0  0  0  0  0  0
   37.8760   27.3170   31.7800 H   0  0  0  0  0  0  0  0  0  0  0  0
   36.0700   28.3820   32.5040 C   0  0  0  0  0  0  0  0  0  0  0  0
   35.5150   28.6240   31.6030 H   0  0  0  0  0  0  0  0  0  0  0  0
   35.6750   28.6960   33.7620 N   0  0  0  0  0  0  0  0  0  0  0  0
   34.8040   29.2080   34.0910 H   0  0  0  0  0  0  0  0  0  0  0  0
   36.6030   28.2400   34.6180 N   0  0  0  0  0  0  0  0  0  0  0  0
  1  6  1  0  0  0  0
  1  2  1  0  0  0  0
  1  3  1  0  0  0  0
  4  5  1  0  0  0  0
  4 10  1  0  0  0  0
  5 11  1  0  0  0  0
  6  5  2  0  0  0  0
  7  8  2  0  0  0  0
  7  6  1  0  0  0  0
  8  9  1  0  0  0  0
  9  4  2  0  0  0  0
 12  8  1  0  0  0  0
 13  1  1  0  0  0  0
 14 13  1  0  0  0  0
 15 13  1  0  0  0  0
 16 13  1  0  0  0  0
 16 23  2  0  0  0  0
 17 16  1  0  0  0  0
 18 17  1  0  0  0  0
 19 17  2  0  0  0  0
 19 21  1  0  0  0  0
 20 19  1  0  0  0  0
 21 22  1  0  0  0  0
 21 23  1  0  0  0  0
M  END
>  <minimizedAffinity>
-3.61029148

$$$$

 OpenBabel03272509253D

 23 24  0  0  0  0  0  0  0  0999 V2000
   38.9320   26.5430   35.3930 C   0  0  0  0  0  0  0  0  0  0  0  0
   39.5130   25.7460   34.8900 H   0  0  0  0  0  0  0  0  0  0  0  0
   39.5490   27.3710   35.7690 H   0  0  0  0  0  0  0  0  0  0  0  0
   36.1220   28.4000   33.6660 C   0  0  0  0  0  0  0  0  0  0  0  0
   36.9840   27.9960   34.7100 C   0  0  0  0  0  0  0  0  0  0  0  0
   37.9590   27.0620   34.4030 C   0  0  0  0  0  0  0  0  0  0  0  0
   38.0320   26.5900   33.1190 N   0  0  0  0  0  0  0  0  0  0  0  0
   37.1940   26.9980   32.1470 C   0  0  0  0  0  0  0  0  0  0  0  0
   36.2310   27.9100   32.4240 N   0  0  0  0  0  0  0  0  0  0  0  0
   35.3750   29.1370   33.9740 H   0  0  0  0  0  0  0  0  0  0  0  0
   36.9100   28.3740   35.7010 H   0  0  0  0  0  0  0  0  0  0  0  0
   37.2660   26.6140   31.1380 H   0  0  0  0  0  0  0  0  0  0  0  0
   38.1990   25.8510   36.5350 C   0  0  0  0  0  0  0  0  0  0  0  0
   38.6470   26.0770   37.5120 H   0  0  0  0  0  0  0  0  0  0  0  0
   37.1200   26.0580   36.4600 H   0  0  0  0  0  0  0  0  0  0  0  0
   38.3810   24.3730   36.2920 C   0  0  0  0  0  0  0  0  0  0  0  0
   39.3650   23.7520   35.5360 C   0  0  0  0  0  0  0  0  0  0  0  0
   40.1610   24.2610   34.9990 H   0  0  0  0  0  0  0  0  0  0  0  0
   39.1310   22.3930   35.6010 C   0  0  0  0  0  0  0  0  0  0  0  0
   39.7020   21.6000   35.1300 H   0  0  0  0  0  0  0  0  0  0  0  0
   38.0360   22.1990   36.3770 N   0  0  0  0  0  0  0  0  0  0  0  0
   37.5550   21.2940   36.6560 H   0  0  0  0  0  0  0  0  0  0  0  0
   37.5960   23.3990   36.7860 N   0  0  0  0  0  0  0  0  0  0  0  0
  1  3  1  0  0  0  0
  1 13  1  0  0  0  0
  2  1  1  0  0  0  0
  4 10  1  0  0  0  0
  4  5  1  0  0  0  0
  5 11  1  0  0  0  0
  6  5  2  0  0  0  0
  6  1  1  0  0  0  0
  7  6  1  0  0  0  0
  8  9  1  0  0  0  0
  8  7  2  0  0  0  0
  9  4  2  0  0  0  0
 12  8  1  0  0  0  0
 13 14  1  0  0  0  0
 15 13  1  0  0  0  0
 16 13  1  0  0  0  0
 16 23  2  0  0  0  0
 17 19  2  0  0  0  0
 17 16  1  0  0  0  0
 18 17  1  0  0  0  0
 19 21  1  0  0  0  0
 20 19  1  0  0  0  0
 21 22  1  0  0  0  0
 21 23  1  0  0  0  0
M  END
>  <minimizedAffinity>
-3.5977397

$$$$
