
 OpenBabel03272508013D

 20 21  0  0  0  0  0  0  0  0999 V2000
   37.9800   24.9340   34.8700 C   0  0  0  0  0  0  0  0  0  0  0  0
   37.8630   24.9070   36.2860 C   0  0  0  0  0  0  0  0  0  0  0  0
   38.4010   23.8090   36.9590 C   0  0  0  0  0  0  0  0  0  0  0  0
   39.0050   22.8330   36.2260 N   0  0  0  0  0  0  0  0  0  0  0  0
   39.1000   22.8890   34.8810 C   0  0  0  0  0  0  0  0  0  0  0  0
   38.5810   23.9460   34.2220 N   0  0  0  0  0  0  0  0  0  0  0  0
   37.3730   25.7100   36.8150 H   0  0  0  0  0  0  0  0  0  0  0  0
   39.5890   22.0900   34.3190 H   0  0  0  0  0  0  0  0  0  0  0  0
   37.4170   26.0810   34.1680 C   0  0  0  0  0  0  0  0  0  0  0  0
   37.0630   27.2950   34.6930 C   0  0  0  0  0  0  0  0  0  0  0  0
   37.1470   27.5980   35.7420 H   0  0  0  0  0  0  0  0  0  0  0  0
   36.5590   28.1290   33.6860 C   0  0  0  0  0  0  0  0  0  0  0  0
   36.2100   29.1430   33.8430 H   0  0  0  0  0  0  0  0  0  0  0  0
   36.6370   27.3590   32.5640 N   0  0  0  0  0  0  0  0  0  0  0  0
   36.3050   27.7940   31.6720 H   0  0  0  0  0  0  0  0  0  0  0  0
   37.1350   26.1740   32.8560 N   0  0  0  0  0  0  0  0  0  0  0  0
   38.2890   23.7600   38.4410 C   0  0  0  0  0  0  0  0  0  0  0  0
   39.5320   23.3850   38.9050 F   0  0  0  0  0  0  0  0  0  0  0  0
   37.9740   24.9930   38.9880 F   0  0  0  0  0  0  0  0  0  0  0  0
   37.3700   22.8160   38.8640 F   0  0  0  0  0  0  0  0  0  0  0  0
  1  2  1  0  0  0  0
  2  7  1  0  0  0  0
  2  3  2  0  0  0  0
  3 17  1  0  0  0  0
  4  3  1  0  0  0  0
  5  4  2  0  0  0  0
  6  1  2  0  0  0  0
  6  5  1  0  0  0  0
  8  5  1  0  0  0  0
  9 10  1  0  0  0  0
  9  1  1  0  0  0  0
 10 11  1  0  0  0  0
 12 13  1  0  0  0  0
 12 10  2  0  0  0  0
 14 16  1  0  0  0  0
 14 12  1  0  0  0  0
 15 14  1  0  0  0  0
 16  9  2  0  0  0  0
 17 20  1  0  0  0  0
 17 18  1  0  0  0  0
 17 19  1  0  0  0  0
M  END
>  <minimizedAffinity>
-4.81753063

$$$$

 OpenBabel03272508013D

 20 21  0  0  0  0  0  0  0  0999 V2000
   38.0260   22.7700   35.0500 C   0  0  0  0  0  0  0  0  0  0  0  0
   37.1630   21.6860   34.7340 C   0  0  0  0  0  0  0  0  0  0  0  0
   36.7000   21.5880   33.4200 C   0  0  0  0  0  0  0  0  0  0  0  0
   37.1010   22.5310   32.5220 N   0  0  0  0  0  0  0  0  0  0  0  0
   37.9210   23.5490   32.8540 C   0  0  0  0  0  0  0  0  0  0  0  0
   38.3730   23.6510   34.1220 N   0  0  0  0  0  0  0  0  0  0  0  0
   36.8790   20.9680   35.4870 H   0  0  0  0  0  0  0  0  0  0  0  0
   38.2250   24.2910   32.1130 H   0  0  0  0  0  0  0  0  0  0  0  0
   38.5080   22.8710   36.4220 C   0  0  0  0  0  0  0  0  0  0  0  0
   37.9180   23.5180   37.4740 C   0  0  0  0  0  0  0  0  0  0  0  0
   36.9740   24.0730   37.4470 H   0  0  0  0  0  0  0  0  0  0  0  0
   38.6990   23.3800   38.6270 C   0  0  0  0  0  0  0  0  0  0  0  0
   38.4500   23.8000   39.5950 H   0  0  0  0  0  0  0  0  0  0  0  0
   39.7580   22.6290   38.2090 N   0  0  0  0  0  0  0  0  0  0  0  0
   40.4850   22.4000   38.9270 H   0  0  0  0  0  0  0  0  0  0  0  0
   39.6360   22.3410   36.9280 N   0  0  0  0  0  0  0  0  0  0  0  0
   35.7960   20.4630   33.0670 C   0  0  0  0  0  0  0  0  0  0  0  0
   35.4650   19.8520   34.2580 F   0  0  0  0  0  0  0  0  0  0  0  0
   34.6280   20.8940   32.4580 F   0  0  0  0  0  0  0  0  0  0  0  0
   36.4190   19.5250   32.2620 F   0  0  0  0  0  0  0  0  0  0  0  0
  1  9  1  0  0  0  0
  2  1  1  0  0  0  0
  2  7  1  0  0  0  0
  3  2  2  0  0  0  0
  4  5  2  0  0  0  0
  4  3  1  0  0  0  0
  5  6  1  0  0  0  0
  6  1  2  0  0  0  0
  8  5  1  0  0  0  0
  9 16  2  0  0  0  0
  9 10  1  0  0  0  0
 10 12  2  0  0  0  0
 11 10  1  0  0  0  0
 12 13  1  0  0  0  0
 14 12  1  0  0  0  0
 14 15  1  0  0  0  0
 16 14  1  0  0  0  0
 17  3  1  0  0  0  0
 17 18  1  0  0  0  0
 19 17  1  0  0  0  0
 20 17  1  0  0  0  0
M  END
>  <minimizedAffinity>
-4.73222733

$$$$

 OpenBabel03272508013D

 20 21  0  0  0  0  0  0  0  0999 V2000
   38.1560   24.0840   35.2070 C   0  0  0  0  0  0  0  0  0  0  0  0
   37.8940   25.4640   34.9930 C   0  0  0  0  0  0  0  0  0  0  0  0
   37.5220   25.8610   33.7070 C   0  0  0  0  0  0  0  0  0  0  0  0
   37.4310   24.9080   32.7380 N   0  0  0  0  0  0  0  0  0  0  0  0
   37.6850   23.6040   32.9750 C   0  0  0  0  0  0  0  0  0  0  0  0
   38.0460   23.2130   34.2150 N   0  0  0  0  0  0  0  0  0  0  0  0
   37.9830   26.1750   35.7990 H   0  0  0  0  0  0  0  0  0  0  0  0
   37.6050   22.8610   32.1780 H   0  0  0  0  0  0  0  0  0  0  0  0
   38.5440   23.6720   36.5510 C   0  0  0  0  0  0  0  0  0  0  0  0
   38.0560   24.1340   37.7450 C   0  0  0  0  0  0  0  0  0  0  0  0
   37.2850   24.9000   37.8770 H   0  0  0  0  0  0  0  0  0  0  0  0
   38.6900   23.4830   38.8100 C   0  0  0  0  0  0  0  0  0  0  0  0
   38.4820   23.6690   39.8580 H   0  0  0  0  0  0  0  0  0  0  0  0
   39.5570   22.6300   38.1950 N   0  0  0  0  0  0  0  0  0  0  0  0
   40.1480   22.0300   38.8160 H   0  0  0  0  0  0  0  0  0  0  0  0
   39.4630   22.7490   36.8850 N   0  0  0  0  0  0  0  0  0  0  0  0
   37.2450   27.3000   33.4590 C   0  0  0  0  0  0  0  0  0  0  0  0
   38.2870   27.7610   32.6830 F   0  0  0  0  0  0  0  0  0  0  0  0
   36.0630   27.4980   32.7640 F   0  0  0  0  0  0  0  0  0  0  0  0
   37.2230   28.0370   34.6310 F   0  0  0  0  0  0  0  0  0  0  0  0
  1  9  1  0  0  0  0
  2  1  1  0  0  0  0
  2  7  1  0  0  0  0
  3  2  2  0  0  0  0
  4  5  2  0  0  0  0
  4  3  1  0  0  0  0
  5  6  1  0  0  0  0
  6  1  2  0  0  0  0
  8  5  1  0  0  0  0
  9 16  2  0  0  0  0
  9 10  1  0  0  0  0
 10 11  1  0  0  0  0
 10 12  2  0  0  0  0
 12 13  1  0  0  0  0
 14 12  1  0  0  0  0
 14 15  1  0  0  0  0
 16 14  1  0  0  0  0
 17  3  1  0  0  0  0
 17 20  1  0  0  0  0
 18 17  1  0  0  0  0
 19 17  1  0  0  0  0
M  END
>  <minimizedAffinity>
-4.61959648

$$$$

 OpenBabel03272508013D

 20 21  0  0  0  0  0  0  0  0999 V2000
   38.0750   22.3010   34.7260 C   0  0  0  0  0  0  0  0  0  0  0  0
   37.7400   22.5800   36.0780 C   0  0  0  0  0  0  0  0  0  0  0  0
   38.6420   23.3410   36.8250 C   0  0  0  0  0  0  0  0  0  0  0  0
   39.7830   23.7700   36.2180 N   0  0  0  0  0  0  0  0  0  0  0  0
   40.0710   23.4880   34.9300 C   0  0  0  0  0  0  0  0  0  0  0  0
   39.2050   22.7530   34.2020 N   0  0  0  0  0  0  0  0  0  0  0  0
   36.8210   22.2130   36.5070 H   0  0  0  0  0  0  0  0  0  0  0  0
   40.9950   23.8460   34.4690 H   0  0  0  0  0  0  0  0  0  0  0  0
   37.1310   21.5070   33.9470 C   0  0  0  0  0  0  0  0  0  0  0  0
   35.9990   20.8760   34.3900 C   0  0  0  0  0  0  0  0  0  0  0  0
   35.6210   20.8700   35.4180 H   0  0  0  0  0  0  0  0  0  0  0  0
   35.3670   20.2170   33.3290 C   0  0  0  0  0  0  0  0  0  0  0  0
   34.4500   19.6440   33.4180 H   0  0  0  0  0  0  0  0  0  0  0  0
   36.1670   20.4890   32.2600 N   0  0  0  0  0  0  0  0  0  0  0  0
   35.8760   20.0850   31.3390 H   0  0  0  0  0  0  0  0  0  0  0  0
   37.1870   21.2370   32.6310 N   0  0  0  0  0  0  0  0  0  0  0  0
   38.3130   23.6430   38.2430 C   0  0  0  0  0  0  0  0  0  0  0  0
   39.4610   23.3900   38.9630 F   0  0  0  0  0  0  0  0  0  0  0  0
   37.9640   24.9700   38.4330 F   0  0  0  0  0  0  0  0  0  0  0  0
   37.3100   22.8250   38.7320 F   0  0  0  0  0  0  0  0  0  0  0  0
  1  2  1  0  0  0  0
  2  7  1  0  0  0  0
  2  3  2  0  0  0  0
  3 17  1  0  0  0  0
  4  3  1  0  0  0  0
  5  4  2  0  0  0  0
  6  1  2  0  0  0  0
  6  5  1  0  0  0  0
  8  5  1  0  0  0  0
  9 10  1  0  0  0  0
  9  1  1  0  0  0  0
 10 11  1  0  0  0  0
 12 13  1  0  0  0  0
 12 10  2  0  0  0  0
 14 16  1  0  0  0  0
 14 12  1  0  0  0  0
 15 14  1  0  0  0  0
 16  9  2  0  0  0  0
 17 19  1  0  0  0  0
 17 20  1  0  0  0  0
 17 18  1  0  0  0  0
M  END
>  <minimizedAffinity>
-4.50093794

$$$$

 OpenBabel03272508013D

 20 21  0  0  0  0  0  0  0  0999 V2000
   38.1450   23.3530   34.7410 C   0  0  0  0  0  0  0  0  0  0  0  0
   38.1930   23.0510   36.1280 C   0  0  0  0  0  0  0  0  0  0  0  0
   38.1950   24.1210   37.0250 C   0  0  0  0  0  0  0  0  0  0  0  0
   38.1510   25.3850   36.5210 N   0  0  0  0  0  0  0  0  0  0  0  0
   38.1060   25.6390   35.1970 C   0  0  0  0  0  0  0  0  0  0  0  0
   38.1040   24.6100   34.3240 N   0  0  0  0  0  0  0  0  0  0  0  0
   38.2270   22.0280   36.4700 H   0  0  0  0  0  0  0  0  0  0  0  0
   38.0710   26.6650   34.8220 H   0  0  0  0  0  0  0  0  0  0  0  0
   38.1430   22.2340   33.8060 C   0  0  0  0  0  0  0  0  0  0  0  0
   37.0610   21.6310   33.2210 C   0  0  0  0  0  0  0  0  0  0  0  0
   36.0100   21.9000   33.3700 H   0  0  0  0  0  0  0  0  0  0  0  0
   37.4820   20.5900   32.3840 C   0  0  0  0  0  0  0  0  0  0  0  0
   36.8180   19.9580   31.8060 H   0  0  0  0  0  0  0  0  0  0  0  0
   38.8400   20.6130   32.5020 N   0  0  0  0  0  0  0  0  0  0  0  0
   39.3720   19.9030   31.9470 H   0  0  0  0  0  0  0  0  0  0  0  0
   39.2110   21.5700   33.3290 N   0  0  0  0  0  0  0  0  0  0  0  0
   38.2450   23.8280   38.4820 C   0  0  0  0  0  0  0  0  0  0  0  0
   37.9400   25.0110   39.1190 F   0  0  0  0  0  0  0  0  0  0  0  0
   37.3140   22.8750   38.8610 F   0  0  0  0  0  0  0  0  0  0  0  0
   39.5070   23.4320   38.8910 F   0  0  0  0  0  0  0  0  0  0  0  0
  1  2  1  0  0  0  0
  2  7  1  0  0  0  0
  2  3  2  0  0  0  0
  3 17  1  0  0  0  0
  4  3  1  0  0  0  0
  5  4  2  0  0  0  0
  6  1  2  0  0  0  0
  6  5  1  0  0  0  0
  8  5  1  0  0  0  0
  9  1  1  0  0  0  0
 10 11  1  0  0  0  0
 10  9  1  0  0  0  0
 12 14  1  0  0  0  0
 12 10  2  0  0  0  0
 13 12  1  0  0  0  0
 14 16  1  0  0  0  0
 15 14  1  0  0  0  0
 16  9  2  0  0  0  0
 17 19  1  0  0  0  0
 17 20  1  0  0  0  0
 17 18  1  0  0  0  0
M  END
>  <minimizedAffinity>
-4.46593094

$$$$

 OpenBabel03272508013D

 20 21  0  0  0  0  0  0  0  0999 V2000
   38.3740   24.4530   36.1800 C   0  0  0  0  0  0  0  0  0  0  0  0
   39.5830   23.7220   36.0290 C   0  0  0  0  0  0  0  0  0  0  0  0
   40.0330   22.9810   37.1230 C   0  0  0  0  0  0  0  0  0  0  0  0
   39.2920   23.0000   38.2650 N   0  0  0  0  0  0  0  0  0  0  0  0
   38.1470   23.7050   38.3760 C   0  0  0  0  0  0  0  0  0  0  0  0
   37.7050   24.4240   37.3230 N   0  0  0  0  0  0  0  0  0  0  0  0
   40.1300   23.7450   35.0990 H   0  0  0  0  0  0  0  0  0  0  0  0
   37.5730   23.7020   39.3060 H   0  0  0  0  0  0  0  0  0  0  0  0
   37.9060   25.2270   35.0360 C   0  0  0  0  0  0  0  0  0  0  0  0
   37.4410   26.5150   35.0280 C   0  0  0  0  0  0  0  0  0  0  0  0
   37.3460   27.1760   35.8960 H   0  0  0  0  0  0  0  0  0  0  0  0
   37.0880   26.8930   33.7260 C   0  0  0  0  0  0  0  0  0  0  0  0
   36.6940   27.8650   33.4520 H   0  0  0  0  0  0  0  0  0  0  0  0
   37.3670   25.7840   32.9830 N   0  0  0  0  0  0  0  0  0  0  0  0
   37.1750   25.8450   31.9570 H   0  0  0  0  0  0  0  0  0  0  0  0
   37.8400   24.8250   33.7550 N   0  0  0  0  0  0  0  0  0  0  0  0
   41.2970   22.2100   36.9880 C   0  0  0  0  0  0  0  0  0  0  0  0
   41.2080   21.5420   35.7850 F   0  0  0  0  0  0  0  0  0  0  0  0
   42.4140   23.0280   36.9510 F   0  0  0  0  0  0  0  0  0  0  0  0
   41.4440   21.2680   37.9920 F   0  0  0  0  0  0  0  0  0  0  0  0
  1  6  1  0  0  0  0
  2  1  2  0  0  0  0
  2  3  1  0  0  0  0
  3  4  2  0  0  0  0
  4  5  1  0  0  0  0
  5  8  1  0  0  0  0
  6  5  2  0  0  0  0
  7  2  1  0  0  0  0
  9  1  1  0  0  0  0
 10  9  1  0  0  0  0
 10 11  1  0  0  0  0
 12 10  2  0  0  0  0
 13 12  1  0  0  0  0
 14 12  1  0  0  0  0
 14 16  1  0  0  0  0
 15 14  1  0  0  0  0
 16  9  2  0  0  0  0
 17  3  1  0  0  0  0
 17 20  1  0  0  0  0
 18 17  1  0  0  0  0
 19 17  1  0  0  0  0
M  END
>  <minimizedAffinity>
-4.38870192

$$$$

 OpenBabel03272508013D

 20 21  0  0  0  0  0  0  0  0999 V2000
   38.3980   24.6870   35.6190 C   0  0  0  0  0  0  0  0  0  0  0  0
   38.1420   24.2110   34.3050 C   0  0  0  0  0  0  0  0  0  0  0  0
   37.5010   25.0760   33.4160 C   0  0  0  0  0  0  0  0  0  0  0  0
   37.1620   26.3190   33.8560 N   0  0  0  0  0  0  0  0  0  0  0  0
   37.4200   26.7410   35.1110 C   0  0  0  0  0  0  0  0  0  0  0  0
   38.0380   25.9110   35.9770 N   0  0  0  0  0  0  0  0  0  0  0  0
   38.4330   23.2140   34.0120 H   0  0  0  0  0  0  0  0  0  0  0  0
   37.1350   27.7450   35.4360 H   0  0  0  0  0  0  0  0  0  0  0  0
   39.0660   23.7820   36.5470 C   0  0  0  0  0  0  0  0  0  0  0  0
   40.2550   23.1250   36.3680 C   0  0  0  0  0  0  0  0  0  0  0  0
   40.8980   23.1770   35.4840 H   0  0  0  0  0  0  0  0  0  0  0  0
   40.5520   22.3500   37.4960 C   0  0  0  0  0  0  0  0  0  0  0  0
   41.4380   21.7350   37.6050 H   0  0  0  0  0  0  0  0  0  0  0  0
   39.5000   22.5820   38.3310 N   0  0  0  0  0  0  0  0  0  0  0  0
   39.5160   22.0910   39.2550 H   0  0  0  0  0  0  0  0  0  0  0  0
   38.6450   23.4130   37.7700 N   0  0  0  0  0  0  0  0  0  0  0  0
   37.2230   24.5980   32.0360 C   0  0  0  0  0  0  0  0  0  0  0  0
   38.1360   23.5960   31.7880 F   0  0  0  0  0  0  0  0  0  0  0  0
   35.9490   24.0690   31.9070 F   0  0  0  0  0  0  0  0  0  0  0  0
   37.4090   25.5930   31.0910 F   0  0  0  0  0  0  0  0  0  0  0  0
  1  6  1  0  0  0  0
  1  9  1  0  0  0  0
  2  1  2  0  0  0  0
  3  4  2  0  0  0  0
  3  2  1  0  0  0  0
  4  5  1  0  0  0  0
  5  8  1  0  0  0  0
  5  6  2  0  0  0  0
  7  2  1  0  0  0  0
  9 16  2  0  0  0  0
 10  9  1  0  0  0  0
 10 12  2  0  0  0  0
 11 10  1  0  0  0  0
 12 13  1  0  0  0  0
 12 14  1  0  0  0  0
 14 15  1  0  0  0  0
 16 14  1  0  0  0  0
 17  3  1  0  0  0  0
 18 17  1  0  0  0  0
 19 17  1  0  0  0  0
 20 17  1  0  0  0  0
M  END
>  <minimizedAffinity>
-4.34030724

$$$$

 OpenBabel03272508013D

 20 21  0  0  0  0  0  0  0  0999 V2000
   37.8590   25.7530   33.9810 C   0  0  0  0  0  0  0  0  0  0  0  0
   37.8630   24.7980   35.0340 C   0  0  0  0  0  0  0  0  0  0  0  0
   38.1140   25.2610   36.3270 C   0  0  0  0  0  0  0  0  0  0  0  0
   38.3390   26.5920   36.5040 N   0  0  0  0  0  0  0  0  0  0  0  0
   38.3280   27.4730   35.4830 C   0  0  0  0  0  0  0  0  0  0  0  0
   38.0860   27.0340   34.2300 N   0  0  0  0  0  0  0  0  0  0  0  0
   37.6790   23.7540   34.8330 H   0  0  0  0  0  0  0  0  0  0  0  0
   38.5120   28.5370   35.6550 H   0  0  0  0  0  0  0  0  0  0  0  0
   37.5970   25.2680   32.6320 C   0  0  0  0  0  0  0  0  0  0  0  0
   37.1100   24.0430   32.2590 C   0  0  0  0  0  0  0  0  0  0  0  0
   36.8380   23.2220   32.9310 H   0  0  0  0  0  0  0  0  0  0  0  0
   37.0010   23.9690   30.8660 C   0  0  0  0  0  0  0  0  0  0  0  0
   36.6400   23.1040   30.3200 H   0  0  0  0  0  0  0  0  0  0  0  0
   37.4380   25.1900   30.4440 N   0  0  0  0  0  0  0  0  0  0  0  0
   37.4420   25.3580   29.4110 H   0  0  0  0  0  0  0  0  0  0  0  0
   37.7810   25.9340   31.4780 N   0  0  0  0  0  0  0  0  0  0  0  0
   38.1240   24.2800   37.4430 C   0  0  0  0  0  0  0  0  0  0  0  0
   39.3330   23.6220   37.3620 F   0  0  0  0  0  0  0  0  0  0  0  0
   38.0430   24.8900   38.6850 F   0  0  0  0  0  0  0  0  0  0  0  0
   37.1140   23.3400   37.3220 F   0  0  0  0  0  0  0  0  0  0  0  0
  1  6  2  0  0  0  0
  1  2  1  0  0  0  0
  2  3  2  0  0  0  0
  3  4  1  0  0  0  0
  3 17  1  0  0  0  0
  5  8  1  0  0  0  0
  5  4  2  0  0  0  0
  6  5  1  0  0  0  0
  7  2  1  0  0  0  0
  9  1  1  0  0  0  0
 10  9  1  0  0  0  0
 10 11  1  0  0  0  0
 12 10  2  0  0  0  0
 13 12  1  0  0  0  0
 14 12  1  0  0  0  0
 14 16  1  0  0  0  0
 15 14  1  0  0  0  0
 16  9  2  0  0  0  0
 17 19  1  0  0  0  0
 18 17  1  0  0  0  0
 20 17  1  0  0  0  0
M  END
>  <minimizedAffinity>
-4.29453611

$$$$

 OpenBabel03272508013D

 20 21  0  0  0  0  0  0  0  0999 V2000
   38.5960   23.8690   34.5240 C   0  0  0  0  0  0  0  0  0  0  0  0
   38.0920   24.0370   35.8420 C   0  0  0  0  0  0  0  0  0  0  0  0
   38.9130   23.6540   36.9040 C   0  0  0  0  0  0  0  0  0  0  0  0
   40.1440   23.1460   36.6180 N   0  0  0  0  0  0  0  0  0  0  0  0
   40.5940   22.9990   35.3550 C   0  0  0  0  0  0  0  0  0  0  0  0
   39.8060   23.3660   34.3220 N   0  0  0  0  0  0  0  0  0  0  0  0
   37.1070   24.4460   36.0080 H   0  0  0  0  0  0  0  0  0  0  0  0
   41.5860   22.5870   35.1550 H   0  0  0  0  0  0  0  0  0  0  0  0
   37.7370   24.2690   33.4160 C   0  0  0  0  0  0  0  0  0  0  0  0
   37.4390   25.5400   33.0020 C   0  0  0  0  0  0  0  0  0  0  0  0
   37.8060   26.4700   33.4480 H   0  0  0  0  0  0  0  0  0  0  0  0
   36.5760   25.4990   31.9010 C   0  0  0  0  0  0  0  0  0  0  0  0
   36.1910   26.3730   31.3860 H   0  0  0  0  0  0  0  0  0  0  0  0
   36.3860   24.1660   31.6900 N   0  0  0  0  0  0  0  0  0  0  0  0
   35.7590   23.8990   30.8960 H   0  0  0  0  0  0  0  0  0  0  0  0
   37.0650   23.4630   32.5760 N   0  0  0  0  0  0  0  0  0  0  0  0
   38.4050   23.8210   38.2910 C   0  0  0  0  0  0  0  0  0  0  0  0
   37.3480   22.9450   38.4170 F   0  0  0  0  0  0  0  0  0  0  0  0
   39.3570   23.4970   39.2450 F   0  0  0  0  0  0  0  0  0  0  0  0
   37.9330   25.1010   38.5240 F   0  0  0  0  0  0  0  0  0  0  0  0
  1  2  1  0  0  0  0
  2  7  1  0  0  0  0
  2  3  2  0  0  0  0
  3 17  1  0  0  0  0
  4  3  1  0  0  0  0
  5  4  2  0  0  0  0
  6  1  2  0  0  0  0
  6  5  1  0  0  0  0
  8  5  1  0  0  0  0
  9  1  1  0  0  0  0
 10  9  1  0  0  0  0
 10 11  1  0  0  0  0
 12 10  2  0  0  0  0
 13 12  1  0  0  0  0
 14 12  1  0  0  0  0
 14 16  1  0  0  0  0
 15 14  1  0  0  0  0
 16  9  2  0  0  0  0
 17 18  1  0  0  0  0
 17 20  1  0  0  0  0
 17 19  1  0  0  0  0
M  END
>  <minimizedAffinity>
-4.20838737

$$$$
