
 OpenBabel03272505573D

 43 46  0  0  1  0  0  0  0  0999 V2000
   35.1390   30.2360   50.1230 C   0  0  2  0  0  0  0  0  0  0  0  0
   36.0740   31.1750   49.4590 C   0  0  0  0  0  0  0  0  0  0  0  0
   37.5420   30.7130   49.5380 C   0  0  2  0  0  0  0  0  0  0  0  0
   38.0150   30.4610   50.9000 C   0  0  0  0  0  0  0  0  0  0  0  0
   36.9640   29.8240   51.8050 C   0  0  0  0  0  0  0  0  0  0  0  0
   35.8380   29.2280   51.0050 C   0  0  0  0  0  0  0  0  0  0  0  0
   34.4480   30.7930   50.8250 H   0  0  0  0  0  0  0  0  0  0  0  0
   35.9660   31.4540   48.4400 H   0  0  0  0  0  0  0  0  0  0  0  0
   36.0920   32.1500   50.0490 H   0  0  0  0  0  0  0  0  0  0  0  0
   37.6480   29.8440   48.8740 H   0  0  0  0  0  0  0  0  0  0  0  0
   38.2960   31.4020   51.4040 H   0  0  0  0  0  0  0  0  0  0  0  0
   38.9330   29.8380   50.8560 H   0  0  0  0  0  0  0  0  0  0  0  0
   36.5970   30.5060   52.5840 H   0  0  0  0  0  0  0  0  0  0  0  0
   37.4640   28.9880   52.3330 H   0  0  0  0  0  0  0  0  0  0  0  0
   36.1940   28.3650   50.4150 H   0  0  0  0  0  0  0  0  0  0  0  0
   35.0970   28.8330   51.7240 H   0  0  0  0  0  0  0  0  0  0  0  0
   38.0330   30.4480   46.6530 Cl  0  0  0  0  0  0  0  0  0  0  0  0
   38.6090   31.8250   47.5760 C   0  0  0  0  0  0  0  0  0  0  0  0
   38.2980   31.8470   48.9310 C   0  0  0  0  0  0  0  0  0  0  0  0
   38.7860   32.9620   49.5710 C   0  0  0  0  0  0  0  0  0  0  0  0
   39.5060   33.9460   48.9340 C   0  0  0  0  0  0  0  0  0  0  0  0
   39.7770   33.8510   47.5780 C   0  0  0  0  0  0  0  0  0  0  0  0
   39.3030   32.7390   46.8810 C   0  0  0  0  0  0  0  0  0  0  0  0
   38.5830   33.0620   50.6280 H   0  0  0  0  0  0  0  0  0  0  0  0
   39.8470   34.7860   49.5330 H   0  0  0  0  0  0  0  0  0  0  0  0
   40.3430   34.6760   47.1980 H   0  0  0  0  0  0  0  0  0  0  0  0
   39.6530   32.7570   45.4740 C   0  0  0  0  0  0  0  0  0  0  0  0
   39.8770   31.7740   44.5410 C   0  0  0  0  0  0  0  0  0  0  0  0
   39.8250   30.7140   44.7150 H   0  0  0  0  0  0  0  0  0  0  0  0
   40.1910   32.2540   43.3000 C   0  0  0  0  0  0  0  0  0  0  0  0
   40.4120   31.7090   42.3940 H   0  0  0  0  0  0  0  0  0  0  0  0
   40.1530   33.5810   43.4960 N   0  0  0  0  0  0  0  0  0  0  0  0
   40.3390   34.3390   42.7780 H   0  0  0  0  0  0  0  0  0  0  0  0
   39.8450   33.8700   44.7440 N   0  0  0  0  0  0  0  0  0  0  0  0
   34.3030   29.4860   49.1730 C   0  0  0  0  0  0  0  0  0  0  0  0
   34.3620   29.9310   47.8510 C   0  0  0  0  0  0  0  0  0  0  0  0
   33.5950   29.2390   46.9030 C   0  0  0  0  0  0  0  0  0  0  0  0
   32.8260   28.1610   47.3140 N   0  0  0  0  0  0  0  0  0  0  0  0
   32.7990   27.7650   48.6090 C   0  0  0  0  0  0  0  0  0  0  0  0
   33.5380   28.4390   49.4920 N   0  0  0  0  0  0  0  0  0  0  0  0
   34.8300   30.6950   47.2580 H   0  0  0  0  0  0  0  0  0  0  0  0
   33.4560   29.3570   45.8570 H   0  0  0  0  0  0  0  0  0  0  0  0
   32.2100   26.9340   48.9460 H   0  0  0  0  0  0  0  0  0  0  0  0
  1  7  1  1  0  0  0
  1  6  1  0  0  0  0
  2  3  1  0  0  0  0
  2  9  1  0  0  0  0
  2  1  1  0  0  0  0
  3 10  1  6  0  0  0
  3  4  1  0  0  0  0
  4 11  1  0  0  0  0
  4  5  1  0  0  0  0
  5 14  1  0  0  0  0
  5 13  1  0  0  0  0
  6 16  1  0  0  0  0
  6  5  1  0  0  0  0
  8  2  1  0  0  0  0
 12  4  1  0  0  0  0
 15  6  1  0  0  0  0
 17 18  1  0  0  0  0
 18 19  1  0  0  0  0
 19  3  1  0  0  0  0
 19 20  2  0  0  0  0
 20 24  1  0  0  0  0
 21 25  1  0  0  0  0
 21 20  1  0  0  0  0
 22 21  2  0  0  0  0
 23 18  2  0  0  0  0
 23 22  1  0  0  0  0
 26 22  1  0  0  0  0
 27 23  1  0  0  0  0
 28 29  1  0  0  0  0
 28 27  1  0  0  0  0
 30 32  1  0  0  0  0
 30 28  2  0  0  0  0
 31 30  1  0  0  0  0
 32 34  1  0  0  0  0
 33 32  1  0  0  0  0
 34 27  2  0  0  0  0
 35 40  1  0  0  0  0
 35  1  1  0  0  0  0
 36 35  2  0  0  0  0
 37 38  2  0  0  0  0
 37 36  1  0  0  0  0
 38 39  1  0  0  0  0
 39 43  1  0  0  0  0
 39 40  2  0  0  0  0
 41 36  1  0  0  0  0
 42 37  1  0  0  0  0
M  END
>  <minimizedAffinity>
-7.48707056

>  <minimizedRMSD>
0.46620965

$$$$
