
 OpenBabel03272507083D

 26 28  0  0  0  0  0  0  0  0999 V2000
   35.7430   29.3880   48.9080 C   0  0  0  0  0  0  0  0  0  0  0  0
   35.1710   30.1840   47.9510 C   0  0  0  0  0  0  0  0  0  0  0  0
   33.9650   29.5680   47.5840 C   0  0  0  0  0  0  0  0  0  0  0  0
   33.8830   28.4120   48.3600 C   0  0  0  0  0  0  0  0  0  0  0  0
   34.9590   28.3590   49.1220 O   0  0  0  0  0  0  0  0  0  0  0  0
   35.4780   31.1180   47.4860 H   0  0  0  0  0  0  0  0  0  0  0  0
   33.2280   29.8830   46.8610 H   0  0  0  0  0  0  0  0  0  0  0  0
   32.7620   27.4790   48.2790 C   0  0  0  0  0  0  0  0  0  0  0  0
   31.4630   27.6550   48.7230 C   0  0  0  0  0  0  0  0  0  0  0  0
   31.0750   28.5550   49.2200 H   0  0  0  0  0  0  0  0  0  0  0  0
   30.7600   26.5260   48.4380 C   0  0  0  0  0  0  0  0  0  0  0  0
   29.7270   26.2830   48.6280 H   0  0  0  0  0  0  0  0  0  0  0  0
   31.6010   25.6550   47.8240 N   0  0  0  0  0  0  0  0  0  0  0  0
   31.4690   24.6720   47.4410 H   0  0  0  0  0  0  0  0  0  0  0  0
   32.7870   26.2420   47.7400 N   0  0  0  0  0  0  0  0  0  0  0  0
   37.0070   29.7290   49.5130 C   0  0  0  0  0  0  0  0  0  0  0  0
   37.4300   29.0400   50.4790 O   0  0  0  0  0  0  0  0  0  0  0  0
   37.7370   30.8650   48.9720 C   0  0  0  0  0  0  0  0  0  0  0  0
   37.7500   32.0290   49.7410 C   0  0  0  0  0  0  0  0  0  0  0  0
   38.4470   33.1240   49.2300 C   0  0  0  0  0  0  0  0  0  0  0  0
   39.0700   32.9980   48.0210 N   0  0  0  0  0  0  0  0  0  0  0  0
   39.0320   31.8550   47.3110 C   0  0  0  0  0  0  0  0  0  0  0  0
   38.3670   30.8020   47.7930 N   0  0  0  0  0  0  0  0  0  0  0  0
   37.2680   32.1650   50.7040 H   0  0  0  0  0  0  0  0  0  0  0  0
   38.5100   34.0660   49.7590 H   0  0  0  0  0  0  0  0  0  0  0  0
   39.5340   31.7880   46.3570 H   0  0  0  0  0  0  0  0  0  0  0  0
  1  5  1  0  0  0  0
  1 16  1  0  0  0  0
  2  1  2  0  0  0  0
  3  2  1  0  0  0  0
  3  4  2  0  0  0  0
  4  5  1  0  0  0  0
  6  2  1  0  0  0  0
  7  3  1  0  0  0  0
  8  4  1  0  0  0  0
  8  9  1  0  0  0  0
  9 10  1  0  0  0  0
 11 12  1  0  0  0  0
 11  9  2  0  0  0  0
 13 11  1  0  0  0  0
 14 13  1  0  0  0  0
 15 13  1  0  0  0  0
 15  8  2  0  0  0  0
 16 17  2  0  0  0  0
 18 16  1  0  0  0  0
 18 19  1  0  0  0  0
 19 24  1  0  0  0  0
 20 19  2  0  0  0  0
 20 25  1  0  0  0  0
 21 20  1  0  0  0  0
 22 23  1  0  0  0  0
 22 21  2  0  0  0  0
 23 18  2  0  0  0  0
 26 22  1  0  0  0  0
M  END
>  <minimizedAffinity>
-5.32017517

>  <minimizedRMSD>
1.48060632

$$$$
