
 OpenBabel03272509493D

 32 34  0  0  0  0  0  0  0  0999 V2000
   35.0860   28.3190   49.4370 O   0  0  0  0  0  0  0  0  0  0  0  0
   37.3910   30.1900   51.4970 C   0  0  0  0  0  0  0  0  0  0  0  0
   38.0710   30.9290   50.5160 C   0  0  0  0  0  0  0  0  0  0  0  0
   37.6940   30.7390   49.1890 C   0  0  0  0  0  0  0  0  0  0  0  0
   36.6870   29.8470   48.9360 N   0  0  0  0  0  0  0  0  0  0  0  0
   36.0640   29.1610   49.9070 C   0  0  0  0  0  0  0  0  0  0  0  0
   36.4200   29.3330   51.2060 N   0  0  0  0  0  0  0  0  0  0  0  0
   37.6480   30.3010   52.5540 H   0  0  0  0  0  0  0  0  0  0  0  0
   38.8580   31.6170   50.7980 H   0  0  0  0  0  0  0  0  0  0  0  0
   38.3480   31.4630   48.1340 C   0  0  0  0  0  0  0  0  0  0  0  0
   38.7050   31.0300   46.8940 C   0  0  0  0  0  0  0  0  0  0  0  0
   38.5460   30.0310   46.4890 H   0  0  0  0  0  0  0  0  0  0  0  0
   39.3120   32.0460   46.1920 C   0  0  0  0  0  0  0  0  0  0  0  0
   39.7190   32.0840   45.2060 H   0  0  0  0  0  0  0  0  0  0  0  0
   39.2960   33.0880   47.0720 N   0  0  0  0  0  0  0  0  0  0  0  0
   39.6580   34.0710   46.9570 H   0  0  0  0  0  0  0  0  0  0  0  0
   38.7190   32.7310   48.2280 N   0  0  0  0  0  0  0  0  0  0  0  0
   34.4660   28.6520   48.1980 C   0  0  0  0  0  0  0  0  0  0  0  0
   35.3150   28.7480   47.4770 H   0  0  0  0  0  0  0  0  0  0  0  0
   33.8720   29.5830   48.2550 H   0  0  0  0  0  0  0  0  0  0  0  0
   33.5920   27.5400   47.7210 C   0  0  0  0  0  0  0  0  0  0  0  0
   33.7400   26.6600   48.3700 H   0  0  0  0  0  0  0  0  0  0  0  0
   33.8560   27.2060   46.6790 H   0  0  0  0  0  0  0  0  0  0  0  0
   32.1520   27.9070   47.6860 C   0  0  0  0  0  0  0  0  0  0  0  0
   31.3850   27.4860   48.7490 C   0  0  0  0  0  0  0  0  0  0  0  0
   30.0310   27.7690   48.8240 C   0  0  0  0  0  0  0  0  0  0  0  0
   29.4580   28.4640   47.8420 N   0  0  0  0  0  0  0  0  0  0  0  0
   30.2150   28.8720   46.8060 C   0  0  0  0  0  0  0  0  0  0  0  0
   31.5220   28.6080   46.7170 N   0  0  0  0  0  0  0  0  0  0  0  0
   31.7870   26.9160   49.5840 H   0  0  0  0  0  0  0  0  0  0  0  0
   29.4060   27.4570   49.6360 H   0  0  0  0  0  0  0  0  0  0  0  0
   29.7680   29.4400   45.9950 H   0  0  0  0  0  0  0  0  0  0  0  0
  1  6  1  0  0  0  0
  2  8  1  0  0  0  0
  3  9  1  0  0  0  0
  3  2  2  0  0  0  0
  4  3  1  0  0  0  0
  5  4  2  0  0  0  0
  5  6  1  0  0  0  0
  6  7  2  0  0  0  0
  7  2  1  0  0  0  0
 10 17  2  0  0  0  0
 10  4  1  0  0  0  0
 11 10  1  0  0  0  0
 12 11  1  0  0  0  0
 13 11  2  0  0  0  0
 13 15  1  0  0  0  0
 14 13  1  0  0  0  0
 15 17  1  0  0  0  0
 16 15  1  0  0  0  0
 18 20  1  0  0  0  0
 18  1  1  0  0  0  0
 19 18  1  0  0  0  0
 21 18  1  0  0  0  0
 21 22  1  0  0  0  0
 23 21  1  0  0  0  0
 24 21  1  0  0  0  0
 24 25  1  0  0  0  0
 25 26  2  0  0  0  0
 25 30  1  0  0  0  0
 26 31  1  0  0  0  0
 27 26  1  0  0  0  0
 28 27  2  0  0  0  0
 29 28  1  0  0  0  0
 29 24  2  0  0  0  0
 32 28  1  0  0  0  0
M  END
>  <minimizedAffinity>
-5.69367647

>  <minimizedRMSD>
0.968737364

$$$$
