
 OpenBabel03272508393D

 31 33  0  0  1  0  0  0  0  0999 V2000
   37.7790   25.6770   33.7600 N   0  0  0  0  0  0  0  0  0  0  0  0
   38.1610   24.5950   34.6400 C   0  0  0  0  0  0  0  0  0  0  0  0
   38.1050   24.9460   36.0990 C   0  0  2  0  0  0  0  0  0  0  0  0
   38.5000   26.2590   36.4300 N   0  0  0  0  0  0  0  0  0  0  0  0
   37.9030   27.2390   35.5260 C   0  0  0  0  0  0  0  0  0  0  0  0
   38.4380   26.8740   34.1580 C   0  0  0  0  0  0  0  0  0  0  0  0
   37.5390   23.6990   34.4440 H   0  0  0  0  0  0  0  0  0  0  0  0
   39.2470   24.4080   34.4140 H   0  0  0  0  0  0  0  0  0  0  0  0
   37.0220   24.8460   36.3930 H   0  0  0  0  0  0  0  0  0  0  0  0
   39.5290   26.3510   36.3470 H   0  0  0  0  0  0  0  0  0  0  0  0
   36.8110   27.0540   35.5760 H   0  0  0  0  0  0  0  0  0  0  0  0
   38.1390   28.2720   35.8360 H   0  0  0  0  0  0  0  0  0  0  0  0
   38.1590   27.7250   33.4790 H   0  0  0  0  0  0  0  0  0  0  0  0
   39.5300   26.7730   34.1730 H   0  0  0  0  0  0  0  0  0  0  0  0
   36.8790   25.5380   32.6710 C   0  0  0  0  0  0  0  0  0  0  0  0
   36.5240   24.3140   32.1130 C   0  0  0  0  0  0  0  0  0  0  0  0
   35.6360   24.2720   31.0490 C   0  0  0  0  0  0  0  0  0  0  0  0
   35.1400   25.4640   30.5900 N   0  0  0  0  0  0  0  0  0  0  0  0
   35.4960   26.6430   31.1460 C   0  0  0  0  0  0  0  0  0  0  0  0
   36.3570   26.6840   32.1750 N   0  0  0  0  0  0  0  0  0  0  0  0
   36.9430   23.4230   32.5140 H   0  0  0  0  0  0  0  0  0  0  0  0
   35.3280   23.3510   30.5800 H   0  0  0  0  0  0  0  0  0  0  0  0
   35.0730   27.5530   30.7410 H   0  0  0  0  0  0  0  0  0  0  0  0
   38.8560   23.9450   36.8740 C   0  0  0  0  0  0  0  0  0  0  0  0
   39.9940   23.2420   36.4620 C   0  0  0  0  0  0  0  0  0  0  0  0
   40.4190   23.4080   35.4800 H   0  0  0  0  0  0  0  0  0  0  0  0
   40.3330   22.4200   37.5300 C   0  0  0  0  0  0  0  0  0  0  0  0
   41.2140   21.7870   37.3840 H   0  0  0  0  0  0  0  0  0  0  0  0
   39.4510   22.6210   38.5170 N   0  0  0  0  0  0  0  0  0  0  0  0
   39.5500   22.0820   39.4050 H   0  0  0  0  0  0  0  0  0  0  0  0
   38.5700   23.5280   38.1270 N   0  0  0  0  0  0  0  0  0  0  0  0
  1  6  1  0  0  0  0
  1  2  1  0  0  0  0
  2  3  1  0  0  0  0
  3  9  1  1  0  0  0
  3  4  1  0  0  0  0
  3 24  1  0  0  0  0
  5 11  1  0  0  0  0
  5 12  1  0  0  0  0
  5  4  1  0  0  0  0
  6 14  1  0  0  0  0
  6  5  1  0  0  0  0
  7  2  1  0  0  0  0
  8  2  1  0  0  0  0
 10  4  1  0  0  0  0
 13  6  1  0  0  0  0
 15  1  1  0  0  0  0
 16 21  1  0  0  0  0
 16 15  2  0  0  0  0
 17 16  1  0  0  0  0
 18 17  2  0  0  0  0
 18 19  1  0  0  0  0
 19 20  2  0  0  0  0
 20 15  1  0  0  0  0
 22 17  1  0  0  0  0
 23 19  1  0  0  0  0
 24 31  2  0  0  0  0
 25 24  1  0  0  0  0
 25 27  2  0  0  0  0
 26 25  1  0  0  0  0
 27 29  1  0  0  0  0
 28 27  1  0  0  0  0
 29 30  1  0  0  0  0
 31 29  1  0  0  0  0
M  END
>  <minimizedAffinity>
-5.09374952

$$$$

 OpenBabel03272508393D

 31 33  0  0  1  0  0  0  0  0999 V2000
   37.8000   25.7540   33.7810 N   0  0  0  0  0  0  0  0  0  0  0  0
   38.1640   24.6580   34.6510 C   0  0  0  0  0  0  0  0  0  0  0  0
   38.1100   24.9950   36.1140 C   0  0  2  0  0  0  0  0  0  0  0  0
   38.5240   26.2990   36.4580 N   0  0  0  0  0  0  0  0  0  0  0  0
   37.9430   27.2960   35.5630 C   0  0  0  0  0  0  0  0  0  0  0  0
   38.4760   26.9370   34.1930 C   0  0  0  0  0  0  0  0  0  0  0  0
   37.5300   23.7730   34.4440 H   0  0  0  0  0  0  0  0  0  0  0  0
   39.2480   24.4570   34.4250 H   0  0  0  0  0  0  0  0  0  0  0  0
   37.0250   24.9080   36.4040 H   0  0  0  0  0  0  0  0  0  0  0  0
   39.5540   26.3760   36.3790 H   0  0  0  0  0  0  0  0  0  0  0  0
   36.8480   27.1260   35.6090 H   0  0  0  0  0  0  0  0  0  0  0  0
   38.1930   28.3230   35.8840 H   0  0  0  0  0  0  0  0  0  0  0  0
   38.2110   27.7990   33.5210 H   0  0  0  0  0  0  0  0  0  0  0  0
   39.5660   26.8210   34.2090 H   0  0  0  0  0  0  0  0  0  0  0  0
   36.9000   25.6390   32.6880 C   0  0  0  0  0  0  0  0  0  0  0  0
   36.3490   26.7300   32.0250 C   0  0  0  0  0  0  0  0  0  0  0  0
   35.4770   26.5240   30.9660 C   0  0  0  0  0  0  0  0  0  0  0  0
   35.1970   25.2290   30.6180 N   0  0  0  0  0  0  0  0  0  0  0  0
   35.7440   24.1830   31.2750 C   0  0  0  0  0  0  0  0  0  0  0  0
   36.5860   24.3820   32.3010 N   0  0  0  0  0  0  0  0  0  0  0  0
   36.6050   27.7110   32.3410 H   0  0  0  0  0  0  0  0  0  0  0  0
   35.0220   27.3340   30.4170 H   0  0  0  0  0  0  0  0  0  0  0  0
   35.4850   23.1810   30.9570 H   0  0  0  0  0  0  0  0  0  0  0  0
   38.8440   23.9750   36.8790 C   0  0  0  0  0  0  0  0  0  0  0  0
   39.9750   23.2620   36.4650 C   0  0  0  0  0  0  0  0  0  0  0  0
   40.4060   23.4330   35.4860 H   0  0  0  0  0  0  0  0  0  0  0  0
   40.2990   22.4230   37.5240 C   0  0  0  0  0  0  0  0  0  0  0  0
   41.1720   21.7810   37.3740 H   0  0  0  0  0  0  0  0  0  0  0  0
   39.4150   22.6250   38.5100 N   0  0  0  0  0  0  0  0  0  0  0  0
   39.5030   22.0750   39.3920 H   0  0  0  0  0  0  0  0  0  0  0  0
   38.5480   23.5480   38.1260 N   0  0  0  0  0  0  0  0  0  0  0  0
  1  6  1  0  0  0  0
  1  2  1  0  0  0  0
  2  3  1  0  0  0  0
  3  9  1  1  0  0  0
  3  4  1  0  0  0  0
  3 24  1  0  0  0  0
  5 11  1  0  0  0  0
  5 12  1  0  0  0  0
  5  4  1  0  0  0  0
  6 14  1  0  0  0  0
  6  5  1  0  0  0  0
  7  2  1  0  0  0  0
  8  2  1  0  0  0  0
 10  4  1  0  0  0  0
 13  6  1  0  0  0  0
 15  1  1  0  0  0  0
 16 21  1  0  0  0  0
 16 15  2  0  0  0  0
 17 16  1  0  0  0  0
 18 17  2  0  0  0  0
 18 19  1  0  0  0  0
 19 20  2  0  0  0  0
 20 15  1  0  0  0  0
 22 17  1  0  0  0  0
 23 19  1  0  0  0  0
 24 31  2  0  0  0  0
 25 24  1  0  0  0  0
 25 27  2  0  0  0  0
 26 25  1  0  0  0  0
 27 29  1  0  0  0  0
 28 27  1  0  0  0  0
 29 30  1  0  0  0  0
 31 29  1  0  0  0  0
M  END
>  <minimizedAffinity>
-5.03247499

$$$$

 OpenBabel03272508393D

 31 33  0  0  1  0  0  0  0  0999 V2000
   39.0380   24.3360   34.5190 N   0  0  0  0  0  0  0  0  0  0  0  0
   37.8320   24.7030   33.8100 C   0  0  0  0  0  0  0  0  0  0  0  0
   37.7000   24.0620   32.4580 C   0  0  2  0  0  0  0  0  0  0  0  0
   38.8970   23.9170   31.7270 N   0  0  0  0  0  0  0  0  0  0  0  0
   39.9740   23.3950   32.5660 C   0  0  0  0  0  0  0  0  0  0  0  0
   40.1570   24.4390   33.6470 C   0  0  0  0  0  0  0  0  0  0  0  0
   36.9380   24.4770   34.4240 H   0  0  0  0  0  0  0  0  0  0  0  0
   37.9370   25.8060   33.6140 H   0  0  0  0  0  0  0  0  0  0  0  0
   37.3080   23.0230   32.6540 H   0  0  0  0  0  0  0  0  0  0  0  0
   39.2070   24.8380   31.3680 H   0  0  0  0  0  0  0  0  0  0  0  0
   39.5750   22.4560   33.0000 H   0  0  0  0  0  0  0  0  0  0  0  0
   40.8860   23.1970   31.9770 H   0  0  0  0  0  0  0  0  0  0  0  0
   41.1060   24.1650   34.1850 H   0  0  0  0  0  0  0  0  0  0  0  0
   40.2690   25.4410   33.2150 H   0  0  0  0  0  0  0  0  0  0  0  0
   39.0700   23.9350   35.8810 C   0  0  0  0  0  0  0  0  0  0  0  0
   40.0530   23.1120   36.4200 C   0  0  0  0  0  0  0  0  0  0  0  0
   40.0050   22.7710   37.7640 C   0  0  0  0  0  0  0  0  0  0  0  0
   38.9720   23.2730   38.5090 N   0  0  0  0  0  0  0  0  0  0  0  0
   38.0270   24.0720   37.9670 C   0  0  0  0  0  0  0  0  0  0  0  0
   38.0710   24.4010   36.6660 N   0  0  0  0  0  0  0  0  0  0  0  0
   40.8300   22.7550   35.7910 H   0  0  0  0  0  0  0  0  0  0  0  0
   40.7420   22.1370   38.2330 H   0  0  0  0  0  0  0  0  0  0  0  0
   37.2320   24.4380   38.6040 H   0  0  0  0  0  0  0  0  0  0  0  0
   36.6730   24.7700   31.6780 C   0  0  0  0  0  0  0  0  0  0  0  0
   35.3590   24.3510   31.4380 C   0  0  0  0  0  0  0  0  0  0  0  0
   34.9970   23.4140   31.8410 H   0  0  0  0  0  0  0  0  0  0  0  0
   34.7840   25.3480   30.6580 C   0  0  0  0  0  0  0  0  0  0  0  0
   33.7410   25.1860   30.3700 H   0  0  0  0  0  0  0  0  0  0  0  0
   35.7000   26.3020   30.4480 N   0  0  0  0  0  0  0  0  0  0  0  0
   35.4420   27.1360   29.8760 H   0  0  0  0  0  0  0  0  0  0  0  0
   36.8250   25.9590   31.0540 N   0  0  0  0  0  0  0  0  0  0  0  0
  1 15  1  0  0  0  0
  2  7  1  0  0  0  0
  2  1  1  0  0  0  0
  3  9  1  1  0  0  0
  3  2  1  0  0  0  0
  4  3  1  0  0  0  0
  4  5  1  0  0  0  0
  5 11  1  0  0  0  0
  5  6  1  0  0  0  0
  6 13  1  0  0  0  0
  6  1  1  0  0  0  0
  8  2  1  0  0  0  0
 10  4  1  0  0  0  0
 12  5  1  0  0  0  0
 14  6  1  0  0  0  0
 15 16  2  0  0  0  0
 15 20  1  0  0  0  0
 16 17  1  0  0  0  0
 17 22  1  0  0  0  0
 17 18  2  0  0  0  0
 19 18  1  0  0  0  0
 19 23  1  0  0  0  0
 20 19  2  0  0  0  0
 21 16  1  0  0  0  0
 24  3  1  0  0  0  0
 25 24  1  0  0  0  0
 25 26  1  0  0  0  0
 27 25  2  0  0  0  0
 28 27  1  0  0  0  0
 29 27  1  0  0  0  0
 29 31  1  0  0  0  0
 30 29  1  0  0  0  0
 31 24  2  0  0  0  0
M  END
>  <minimizedAffinity>
-4.67893887

$$$$

 OpenBabel03272508393D

 31 33  0  0  1  0  0  0  0  0999 V2000
   37.5710   25.1860   33.3880 N   0  0  0  0  0  0  0  0  0  0  0  0
   37.7610   24.9570   34.8030 C   0  0  0  0  0  0  0  0  0  0  0  0
   39.1030   24.3810   35.1540 C   0  0  2  0  0  0  0  0  0  0  0  0
   39.6250   23.4420   34.2400 N   0  0  0  0  0  0  0  0  0  0  0  0
   39.4810   23.9020   32.8620 C   0  0  0  0  0  0  0  0  0  0  0  0
   37.9880   24.0390   32.6570 C   0  0  0  0  0  0  0  0  0  0  0  0
   37.5920   25.8930   35.3720 H   0  0  0  0  0  0  0  0  0  0  0  0
   37.0100   24.1640   35.0710 H   0  0  0  0  0  0  0  0  0  0  0  0
   39.8140   25.2550   35.1660 H   0  0  0  0  0  0  0  0  0  0  0  0
   39.1100   22.5460   34.3200 H   0  0  0  0  0  0  0  0  0  0  0  0
   39.9670   24.8990   32.8350 H   0  0  0  0  0  0  0  0  0  0  0  0
   39.9680   23.2120   32.1510 H   0  0  0  0  0  0  0  0  0  0  0  0
   37.8390   24.1960   31.5540 H   0  0  0  0  0  0  0  0  0  0  0  0
   37.4610   23.1260   32.9610 H   0  0  0  0  0  0  0  0  0  0  0  0
   37.0460   26.3860   32.8380 C   0  0  0  0  0  0  0  0  0  0  0  0
   36.8050   27.5350   33.5830 C   0  0  0  0  0  0  0  0  0  0  0  0
   36.2900   28.6630   32.9630 C   0  0  0  0  0  0  0  0  0  0  0  0
   36.0410   28.5890   31.6180 N   0  0  0  0  0  0  0  0  0  0  0  0
   36.2840   27.4640   30.9110 C   0  0  0  0  0  0  0  0  0  0  0  0
   36.7800   26.3710   31.5120 N   0  0  0  0  0  0  0  0  0  0  0  0
   37.0190   27.5310   34.6240 H   0  0  0  0  0  0  0  0  0  0  0  0
   36.0840   29.5810   33.4930 H   0  0  0  0  0  0  0  0  0  0  0  0
   36.0660   27.4630   29.8510 H   0  0  0  0  0  0  0  0  0  0  0  0
   39.0620   23.8390   36.5210 C   0  0  0  0  0  0  0  0  0  0  0  0
   38.1620   24.1830   37.5360 C   0  0  0  0  0  0  0  0  0  0  0  0
   37.3880   24.9210   37.3610 H   0  0  0  0  0  0  0  0  0  0  0  0
   38.5220   23.4110   38.6340 C   0  0  0  0  0  0  0  0  0  0  0  0
   37.9160   23.5510   39.5350 H   0  0  0  0  0  0  0  0  0  0  0  0
   39.5720   22.6530   38.2930 N   0  0  0  0  0  0  0  0  0  0  0  0
   39.9810   22.0040   39.0000 H   0  0  0  0  0  0  0  0  0  0  0  0
   39.8940   22.9080   37.0350 N   0  0  0  0  0  0  0  0  0  0  0  0
  1  2  1  0  0  0  0
  2  8  1  0  0  0  0
  2  3  1  0  0  0  0
  2  7  1  0  0  0  0
  3  9  1  1  0  0  0
  3 24  1  0  0  0  0
  4 10  1  0  0  0  0
  4  3  1  0  0  0  0
  5  4  1  0  0  0  0
  6  5  1  0  0  0  0
  6 14  1  0  0  0  0
  6  1  1  0  0  0  0
 11  5  1  0  0  0  0
 12  5  1  0  0  0  0
 13  6  1  0  0  0  0
 15  1  1  0  0  0  0
 15 16  1  0  0  0  0
 16 21  1  0  0  0  0
 17 22  1  0  0  0  0
 17 16  2  0  0  0  0
 18 17  1  0  0  0  0
 19 20  1  0  0  0  0
 19 18  2  0  0  0  0
 20 15  2  0  0  0  0
 23 19  1  0  0  0  0
 24 31  2  0  0  0  0
 24 25  1  0  0  0  0
 25 27  2  0  0  0  0
 26 25  1  0  0  0  0
 27 28  1  0  0  0  0
 29 27  1  0  0  0  0
 29 30  1  0  0  0  0
 31 29  1  0  0  0  0
M  END
>  <minimizedAffinity>
-4.64360952

$$$$

 OpenBabel03272508393D

 31 33  0  0  1  0  0  0  0  0999 V2000
   38.5070   23.9890   34.4620 N   0  0  0  0  0  0  0  0  0  0  0  0
   38.0690   25.2050   33.8130 C   0  0  0  0  0  0  0  0  0  0  0  0
   37.0470   24.9870   32.7340 C   0  0  2  0  0  0  0  0  0  0  0  0
   37.2180   23.8270   31.9520 N   0  0  0  0  0  0  0  0  0  0  0  0
   37.5100   22.6620   32.7830 C   0  0  0  0  0  0  0  0  0  0  0  0
   38.8090   23.0040   33.4800 C   0  0  0  0  0  0  0  0  0  0  0  0
   37.6800   25.9240   34.5620 H   0  0  0  0  0  0  0  0  0  0  0  0
   38.9830   25.5990   33.2910 H   0  0  0  0  0  0  0  0  0  0  0  0
   36.0610   24.8790   33.2700 H   0  0  0  0  0  0  0  0  0  0  0  0
   38.0180   23.9510   31.3050 H   0  0  0  0  0  0  0  0  0  0  0  0
   36.6800   22.6110   33.5160 H   0  0  0  0  0  0  0  0  0  0  0  0
   37.5570   21.7370   32.1820 H   0  0  0  0  0  0  0  0  0  0  0  0
   39.1600   22.0540   33.9670 H   0  0  0  0  0  0  0  0  0  0  0  0
   39.5680   23.3380   32.7620 H   0  0  0  0  0  0  0  0  0  0  0  0
   38.6090   23.8290   35.8690 C   0  0  0  0  0  0  0  0  0  0  0  0
   37.7610   24.4490   36.7800 C   0  0  0  0  0  0  0  0  0  0  0  0
   37.9350   24.2360   38.1400 C   0  0  0  0  0  0  0  0  0  0  0  0
   38.9540   23.4060   38.5260 N   0  0  0  0  0  0  0  0  0  0  0  0
   39.7670   22.8120   37.6260 C   0  0  0  0  0  0  0  0  0  0  0  0
   39.6000   23.0200   36.3090 N   0  0  0  0  0  0  0  0  0  0  0  0
   36.9880   25.0820   36.4190 H   0  0  0  0  0  0  0  0  0  0  0  0
   37.3050   24.6910   38.8890 H   0  0  0  0  0  0  0  0  0  0  0  0
   40.5570   22.1670   37.9890 H   0  0  0  0  0  0  0  0  0  0  0  0
   36.9520   26.1940   31.8980 C   0  0  0  0  0  0  0  0  0  0  0  0
   37.6840   27.3790   32.0430 C   0  0  0  0  0  0  0  0  0  0  0  0
   38.4140   27.4820   32.8360 H   0  0  0  0  0  0  0  0  0  0  0  0
   37.2450   28.2170   31.0250 C   0  0  0  0  0  0  0  0  0  0  0  0
   37.7160   29.2040   30.9840 H   0  0  0  0  0  0  0  0  0  0  0  0
   36.3100   27.5710   30.3170 N   0  0  0  0  0  0  0  0  0  0  0  0
   35.8640   28.0520   29.5060 H   0  0  0  0  0  0  0  0  0  0  0  0
   36.1350   26.3670   30.8370 N   0  0  0  0  0  0  0  0  0  0  0  0
  1 15  1  0  0  0  0
  2  1  1  0  0  0  0
  2  7  1  0  0  0  0
  3  9  1  1  0  0  0
  3  2  1  0  0  0  0
  4  3  1  0  0  0  0
  4  5  1  0  0  0  0
  5  6  1  0  0  0  0
  5 11  1  0  0  0  0
  6 13  1  0  0  0  0
  6  1  1  0  0  0  0
  8  2  1  0  0  0  0
 10  4  1  0  0  0  0
 12  5  1  0  0  0  0
 14  6  1  0  0  0  0
 15 20  2  0  0  0  0
 15 16  1  0  0  0  0
 16 17  2  0  0  0  0
 17 18  1  0  0  0  0
 17 22  1  0  0  0  0
 19 23  1  0  0  0  0
 19 18  2  0  0  0  0
 20 19  1  0  0  0  0
 21 16  1  0  0  0  0
 24 25  1  0  0  0  0
 24  3  1  0  0  0  0
 25 26  1  0  0  0  0
 27 25  2  0  0  0  0
 28 27  1  0  0  0  0
 29 31  1  0  0  0  0
 29 27  1  0  0  0  0
 30 29  1  0  0  0  0
 31 24  2  0  0  0  0
M  END
>  <minimizedAffinity>
-4.60396719

$$$$

 OpenBabel03272508393D

 31 33  0  0  1  0  0  0  0  0999 V2000
   38.4380   24.8760   35.8500 N   0  0  0  0  0  0  0  0  0  0  0  0
   39.5910   24.0330   35.6210 C   0  0  0  0  0  0  0  0  0  0  0  0
   39.4470   22.6400   36.1630 C   0  0  2  0  0  0  0  0  0  0  0  0
   38.7600   22.5270   37.3900 N   0  0  0  0  0  0  0  0  0  0  0  0
   37.5400   23.3300   37.3930 C   0  0  0  0  0  0  0  0  0  0  0  0
   38.0180   24.7540   37.2050 C   0  0  0  0  0  0  0  0  0  0  0  0
   39.8320   23.9940   34.5400 H   0  0  0  0  0  0  0  0  0  0  0  0
   40.4190   24.5080   36.2170 H   0  0  0  0  0  0  0  0  0  0  0  0
   38.8430   22.0780   35.3960 H   0  0  0  0  0  0  0  0  0  0  0  0
   39.3570   22.8720   38.1640 H   0  0  0  0  0  0  0  0  0  0  0  0
   36.9680   22.9940   36.5040 H   0  0  0  0  0  0  0  0  0  0  0  0
   36.9550   23.1740   38.3160 H   0  0  0  0  0  0  0  0  0  0  0  0
   37.1260   25.4090   37.4030 H   0  0  0  0  0  0  0  0  0  0  0  0
   38.8100   25.0030   37.9200 H   0  0  0  0  0  0  0  0  0  0  0  0
   37.8360   25.6900   34.8550 C   0  0  0  0  0  0  0  0  0  0  0  0
   37.7010   25.3100   33.5250 C   0  0  0  0  0  0  0  0  0  0  0  0
   37.0980   26.1710   32.6200 C   0  0  0  0  0  0  0  0  0  0  0  0
   36.6550   27.3790   33.0910 N   0  0  0  0  0  0  0  0  0  0  0  0
   36.7950   27.7290   34.3880 C   0  0  0  0  0  0  0  0  0  0  0  0
   37.3800   26.8960   35.2640 N   0  0  0  0  0  0  0  0  0  0  0  0
   38.0650   24.3600   33.2190 H   0  0  0  0  0  0  0  0  0  0  0  0
   36.9680   25.9260   31.5770 H   0  0  0  0  0  0  0  0  0  0  0  0
   36.4270   28.6970   34.7050 H   0  0  0  0  0  0  0  0  0  0  0  0
   40.7710   21.9990   36.2240 C   0  0  0  0  0  0  0  0  0  0  0  0
   41.4150   21.5040   37.3630 C   0  0  0  0  0  0  0  0  0  0  0  0
   40.9440   21.5690   38.3360 H   0  0  0  0  0  0  0  0  0  0  0  0
   42.6300   20.9980   36.9160 C   0  0  0  0  0  0  0  0  0  0  0  0
   43.2770   20.5630   37.6840 H   0  0  0  0  0  0  0  0  0  0  0  0
   42.7040   21.1800   35.5920 N   0  0  0  0  0  0  0  0  0  0  0  0
   43.5540   20.8580   35.0810 H   0  0  0  0  0  0  0  0  0  0  0  0
   41.5970   21.7760   35.1790 N   0  0  0  0  0  0  0  0  0  0  0  0
  1  6  1  0  0  0  0
  2  1  1  0  0  0  0
  2  3  1  0  0  0  0
  2  8  1  0  0  0  0
  3  9  1  6  0  0  0
  3 24  1  0  0  0  0
  3  4  1  0  0  0  0
  4  5  1  0  0  0  0
  4 10  1  0  0  0  0
  5 12  1  0  0  0  0
  6  5  1  0  0  0  0
  6 13  1  0  0  0  0
  6 14  1  0  0  0  0
  7  2  1  0  0  0  0
 11  5  1  0  0  0  0
 15 20  1  0  0  0  0
 15  1  1  0  0  0  0
 16 15  2  0  0  0  0
 17 18  2  0  0  0  0
 17 16  1  0  0  0  0
 18 19  1  0  0  0  0
 19 23  1  0  0  0  0
 19 20  2  0  0  0  0
 21 16  1  0  0  0  0
 22 17  1  0  0  0  0
 24 25  1  0  0  0  0
 25 26  1  0  0  0  0
 27 25  2  0  0  0  0
 27 28  1  0  0  0  0
 29 27  1  0  0  0  0
 30 29  1  0  0  0  0
 31 29  1  0  0  0  0
 31 24  2  0  0  0  0
M  END
>  <minimizedAffinity>
-4.54353952

$$$$

 OpenBabel03272508393D

 31 33  0  0  1  0  0  0  0  0999 V2000
   37.4050   25.6080   32.4560 N   0  0  0  0  0  0  0  0  0  0  0  0
   37.4790   26.9550   31.9350 C   0  0  0  0  0  0  0  0  0  0  0  0
   36.2660   27.3770   31.1570 C   0  0  2  0  0  0  0  0  0  0  0  0
   35.6680   26.3760   30.3630 N   0  0  0  0  0  0  0  0  0  0  0  0
   35.5360   25.1210   31.0970 C   0  0  0  0  0  0  0  0  0  0  0  0
   36.9570   24.7240   31.4350 C   0  0  0  0  0  0  0  0  0  0  0  0
   37.6710   27.6760   32.7550 H   0  0  0  0  0  0  0  0  0  0  0  0
   38.3240   26.9310   31.1930 H   0  0  0  0  0  0  0  0  0  0  0  0
   35.5030   27.6820   31.9280 H   0  0  0  0  0  0  0  0  0  0  0  0
   36.2570   26.1860   29.5310 H   0  0  0  0  0  0  0  0  0  0  0  0
   34.9780   25.3800   32.0190 H   0  0  0  0  0  0  0  0  0  0  0  0
   34.9890   24.3630   30.5090 H   0  0  0  0  0  0  0  0  0  0  0  0
   36.9010   23.6690   31.8200 H   0  0  0  0  0  0  0  0  0  0  0  0
   37.5970   24.7440   30.5440 H   0  0  0  0  0  0  0  0  0  0  0  0
   37.7330   25.2500   33.7910 C   0  0  0  0  0  0  0  0  0  0  0  0
   37.7030   26.1410   34.8580 C   0  0  0  0  0  0  0  0  0  0  0  0
   38.0400   25.7040   36.1300 C   0  0  0  0  0  0  0  0  0  0  0  0
   38.3920   24.3880   36.2760 N   0  0  0  0  0  0  0  0  0  0  0  0
   38.4130   23.5380   35.2270 C   0  0  0  0  0  0  0  0  0  0  0  0
   38.0890   23.9610   33.9950 N   0  0  0  0  0  0  0  0  0  0  0  0
   37.4220   27.1500   34.6810 H   0  0  0  0  0  0  0  0  0  0  0  0
   38.0340   26.3530   36.9930 H   0  0  0  0  0  0  0  0  0  0  0  0
   38.7000   22.5090   35.4020 H   0  0  0  0  0  0  0  0  0  0  0  0
   36.5840   28.5770   30.3660 C   0  0  0  0  0  0  0  0  0  0  0  0
   37.4920   28.6700   29.3050 C   0  0  0  0  0  0  0  0  0  0  0  0
   38.0520   27.8020   28.9810 H   0  0  0  0  0  0  0  0  0  0  0  0
   37.4420   29.9940   28.8850 C   0  0  0  0  0  0  0  0  0  0  0  0
   38.0990   30.2540   28.0490 H   0  0  0  0  0  0  0  0  0  0  0  0
   36.5590   30.6490   29.6500 N   0  0  0  0  0  0  0  0  0  0  0  0
   36.3910   31.6640   29.4770 H   0  0  0  0  0  0  0  0  0  0  0  0
   36.0480   29.8060   30.5320 N   0  0  0  0  0  0  0  0  0  0  0  0
  1 15  1  0  0  0  0
  2  1  1  0  0  0  0
  2  7  1  0  0  0  0
  3  9  1  1  0  0  0
  3  2  1  0  0  0  0
  4  5  1  0  0  0  0
  4  3  1  0  0  0  0
  5  6  1  0  0  0  0
  5 11  1  0  0  0  0
  6 13  1  0  0  0  0
  6  1  1  0  0  0  0
  8  2  1  0  0  0  0
 10  4  1  0  0  0  0
 12  5  1  0  0  0  0
 14  6  1  0  0  0  0
 15 20  2  0  0  0  0
 15 16  1  0  0  0  0
 16 17  2  0  0  0  0
 17 18  1  0  0  0  0
 17 22  1  0  0  0  0
 19 23  1  0  0  0  0
 19 18  2  0  0  0  0
 20 19  1  0  0  0  0
 21 16  1  0  0  0  0
 24 31  2  0  0  0  0
 24  3  1  0  0  0  0
 25 24  1  0  0  0  0
 26 25  1  0  0  0  0
 27 25  2  0  0  0  0
 27 29  1  0  0  0  0
 28 27  1  0  0  0  0
 29 31  1  0  0  0  0
 30 29  1  0  0  0  0
M  END
>  <minimizedAffinity>
-4.5431633

$$$$

 OpenBabel03272508393D

 31 33  0  0  1  0  0  0  0  0999 V2000
   38.7530   24.6790   35.5270 N   0  0  0  0  0  0  0  0  0  0  0  0
   38.1140   24.5040   34.2420 C   0  0  0  0  0  0  0  0  0  0  0  0
   37.9760   25.7730   33.4500 C   0  0  2  0  0  0  0  0  0  0  0  0
   37.6870   26.9330   34.1960 N   0  0  0  0  0  0  0  0  0  0  0  0
   38.5290   27.0260   35.3860 C   0  0  0  0  0  0  0  0  0  0  0  0
   38.1810   25.7960   36.1980 C   0  0  0  0  0  0  0  0  0  0  0  0
   38.6520   23.7420   33.6430 H   0  0  0  0  0  0  0  0  0  0  0  0
   37.0640   24.1800   34.4830 H   0  0  0  0  0  0  0  0  0  0  0  0
   38.9800   25.9360   32.9650 H   0  0  0  0  0  0  0  0  0  0  0  0
   36.7020   26.9120   34.5180 H   0  0  0  0  0  0  0  0  0  0  0  0
   39.5710   26.9590   35.0120 H   0  0  0  0  0  0  0  0  0  0  0  0
   38.3670   27.9760   35.9240 H   0  0  0  0  0  0  0  0  0  0  0  0
   38.6610   25.9430   37.2040 H   0  0  0  0  0  0  0  0  0  0  0  0
   37.0970   25.7030   36.3310 H   0  0  0  0  0  0  0  0  0  0  0  0
   39.7940   23.8480   36.0200 C   0  0  0  0  0  0  0  0  0  0  0  0
   39.6320   22.9460   37.0650 C   0  0  0  0  0  0  0  0  0  0  0  0
   40.7050   22.1730   37.4810 C   0  0  0  0  0  0  0  0  0  0  0  0
   41.8980   22.3390   36.8280 N   0  0  0  0  0  0  0  0  0  0  0  0
   42.0350   23.2210   35.8140 C   0  0  0  0  0  0  0  0  0  0  0  0
   40.9960   23.9710   35.4120 N   0  0  0  0  0  0  0  0  0  0  0  0
   38.6810   22.8620   37.5320 H   0  0  0  0  0  0  0  0  0  0  0  0
   40.6340   21.4580   38.2870 H   0  0  0  0  0  0  0  0  0  0  0  0
   43.0020   23.3110   35.3350 H   0  0  0  0  0  0  0  0  0  0  0  0
   37.0020   25.5700   32.3660 C   0  0  0  0  0  0  0  0  0  0  0  0
   36.3940   24.3650   31.9940 C   0  0  0  0  0  0  0  0  0  0  0  0
   36.6210   23.4470   32.5210 H   0  0  0  0  0  0  0  0  0  0  0  0
   35.5590   24.6800   30.9280 C   0  0  0  0  0  0  0  0  0  0  0  0
   34.9940   23.8450   30.5020 H   0  0  0  0  0  0  0  0  0  0  0  0
   35.6640   25.9920   30.6800 N   0  0  0  0  0  0  0  0  0  0  0  0
   35.1050   26.4090   29.9050 H   0  0  0  0  0  0  0  0  0  0  0  0
   36.5230   26.5220   31.5360 N   0  0  0  0  0  0  0  0  0  0  0  0
  1 15  1  0  0  0  0
  1  6  1  0  0  0  0
  2  8  1  0  0  0  0
  2  1  1  0  0  0  0
  3  9  1  6  0  0  0
  3  4  1  0  0  0  0
  3  2  1  0  0  0  0
  4 10  1  0  0  0  0
  4  5  1  0  0  0  0
  5 12  1  0  0  0  0
  5  6  1  0  0  0  0
  6 14  1  0  0  0  0
  6 13  1  0  0  0  0
  7  2  1  0  0  0  0
 11  5  1  0  0  0  0
 15 16  1  0  0  0  0
 16 17  2  0  0  0  0
 16 21  1  0  0  0  0
 17 22  1  0  0  0  0
 18 17  1  0  0  0  0
 19 18  2  0  0  0  0
 20 19  1  0  0  0  0
 20 15  2  0  0  0  0
 23 19  1  0  0  0  0
 24  3  1  0  0  0  0
 25 24  1  0  0  0  0
 25 26  1  0  0  0  0
 27 25  2  0  0  0  0
 28 27  1  0  0  0  0
 29 27  1  0  0  0  0
 29 31  1  0  0  0  0
 30 29  1  0  0  0  0
 31 24  2  0  0  0  0
M  END
>  <minimizedAffinity>
-4.5359292

$$$$

 OpenBabel03272508393D

 31 33  0  0  1  0  0  0  0  0999 V2000
   36.0160   28.9260   32.9320 N   0  0  0  0  0  0  0  0  0  0  0  0
   35.6070   29.4020   34.2350 C   0  0  0  0  0  0  0  0  0  0  0  0
   34.4450   30.3520   34.2010 C   0  0  2  0  0  0  0  0  0  0  0  0
   34.4180   31.2500   33.1140 N   0  0  0  0  0  0  0  0  0  0  0  0
   34.7090   30.5710   31.8540 C   0  0  0  0  0  0  0  0  0  0  0  0
   36.1090   30.0230   32.0290 C   0  0  0  0  0  0  0  0  0  0  0  0
   35.3770   28.5480   34.9030 H   0  0  0  0  0  0  0  0  0  0  0  0
   36.4810   30.0030   34.6100 H   0  0  0  0  0  0  0  0  0  0  0  0
   33.5270   29.7040   34.1130 H   0  0  0  0  0  0  0  0  0  0  0  0
   35.1390   31.9830   33.2420 H   0  0  0  0  0  0  0  0  0  0  0  0
   33.9750   29.7420   31.7930 H   0  0  0  0  0  0  0  0  0  0  0  0
   34.6020   31.2520   30.9920 H   0  0  0  0  0  0  0  0  0  0  0  0
   36.4350   29.6720   31.0120 H   0  0  0  0  0  0  0  0  0  0  0  0
   36.7990   30.8010   32.3750 H   0  0  0  0  0  0  0  0  0  0  0  0
   36.2780   27.5640   32.6260 C   0  0  0  0  0  0  0  0  0  0  0  0
   37.1270   26.7550   33.3740 C   0  0  0  0  0  0  0  0  0  0  0  0
   37.3240   25.4340   33.0020 C   0  0  0  0  0  0  0  0  0  0  0  0
   36.6580   24.9810   31.8940 N   0  0  0  0  0  0  0  0  0  0  0  0
   35.8370   25.7820   31.1810 C   0  0  0  0  0  0  0  0  0  0  0  0
   35.6470   27.0620   31.5400 N   0  0  0  0  0  0  0  0  0  0  0  0
   37.6160   27.1650   34.2240 H   0  0  0  0  0  0  0  0  0  0  0  0
   37.9710   24.7630   33.5460 H   0  0  0  0  0  0  0  0  0  0  0  0
   35.3380   25.3700   30.3140 H   0  0  0  0  0  0  0  0  0  0  0  0
   34.3510   31.0590   35.4880 C   0  0  0  0  0  0  0  0  0  0  0  0
   33.1850   31.3590   36.2010 C   0  0  0  0  0  0  0  0  0  0  0  0
   32.2150   31.0690   35.8190 H   0  0  0  0  0  0  0  0  0  0  0  0
   33.6070   32.0270   37.3450 C   0  0  0  0  0  0  0  0  0  0  0  0
   32.8160   32.3440   38.0310 H   0  0  0  0  0  0  0  0  0  0  0  0
   34.9430   32.1180   37.3140 N   0  0  0  0  0  0  0  0  0  0  0  0
   35.4380   32.5940   38.0990 H   0  0  0  0  0  0  0  0  0  0  0  0
   35.3870   31.5420   36.2090 N   0  0  0  0  0  0  0  0  0  0  0  0
  1  2  1  0  0  0  0
  2  8  1  0  0  0  0
  2  7  1  0  0  0  0
  3  9  1  6  0  0  0
  3  2  1  0  0  0  0
  3 24  1  0  0  0  0
  4 10  1  0  0  0  0
  4  3  1  0  0  0  0
  5  6  1  0  0  0  0
  5  4  1  0  0  0  0
  6 14  1  0  0  0  0
  6  1  1  0  0  0  0
 11  5  1  0  0  0  0
 12  5  1  0  0  0  0
 13  6  1  0  0  0  0
 15  1  1  0  0  0  0
 15 16  1  0  0  0  0
 16 21  1  0  0  0  0
 17 16  2  0  0  0  0
 17 22  1  0  0  0  0
 18 17  1  0  0  0  0
 19 20  1  0  0  0  0
 19 18  2  0  0  0  0
 20 15  2  0  0  0  0
 23 19  1  0  0  0  0
 24 25  1  0  0  0  0
 24 31  2  0  0  0  0
 25 27  2  0  0  0  0
 26 25  1  0  0  0  0
 27 28  1  0  0  0  0
 29 27  1  0  0  0  0
 29 30  1  0  0  0  0
 31 29  1  0  0  0  0
M  END
>  <minimizedAffinity>
-4.52070284

$$$$
