
 OpenBabel03272509393D

 29 31  0  0  1  0  0  0  0  0999 V2000
   38.2420   24.8470   34.2730 C   0  0  0  0  0  0  0  0  0  0  0  0
   37.9500   25.9190   33.3980 C   0  0  0  0  0  0  0  0  0  0  0  0
   37.8070   27.2340   33.8190 C   0  0  0  0  0  0  0  0  0  0  0  0
   37.9590   27.5040   35.1700 C   0  0  0  0  0  0  0  0  0  0  0  0
   38.2410   26.4490   36.0050 C   0  0  0  0  0  0  0  0  0  0  0  0
   38.3850   25.1300   35.5920 C   0  0  0  0  0  0  0  0  0  0  0  0
   37.8360   25.7030   32.3510 H   0  0  0  0  0  0  0  0  0  0  0  0
   37.5860   27.9730   33.0760 H   0  0  0  0  0  0  0  0  0  0  0  0
   37.8390   28.5410   35.4430 H   0  0  0  0  0  0  0  0  0  0  0  0
   38.3300   26.8200   37.0290 H   0  0  0  0  0  0  0  0  0  0  0  0
   38.6520   24.1930   36.6580 C   0  0  0  0  0  0  0  0  0  0  0  0
   37.9520   24.1640   37.8450 C   0  0  0  0  0  0  0  0  0  0  0  0
   37.1110   24.7790   38.1870 H   0  0  0  0  0  0  0  0  0  0  0  0
   38.3710   23.2220   38.7440 C   0  0  0  0  0  0  0  0  0  0  0  0
   38.0530   22.9450   39.7310 H   0  0  0  0  0  0  0  0  0  0  0  0
   39.3750   22.6390   38.0900 N   0  0  0  0  0  0  0  0  0  0  0  0
   40.0340   21.8450   38.3480 H   0  0  0  0  0  0  0  0  0  0  0  0
   39.4810   23.2170   36.9480 N   0  0  0  0  0  0  0  0  0  0  0  0
   38.3890   23.5340   33.6770 C   0  0  1  0  0  3  0  0  0  0  0  0
   39.6030   23.2080   33.3930 O   0  0  0  0  0  1  0  0  0  0  0  0
   35.6390   22.0160   31.8500 C   0  0  0  0  0  0  0  0  0  0  0  0
   35.2450   20.9480   32.6370 C   0  0  0  0  0  0  0  0  0  0  0  0
   35.9280   20.7650   33.8140 C   0  0  0  0  0  0  0  0  0  0  0  0
   36.9560   21.6000   34.1980 N   0  0  0  0  0  0  0  0  0  0  0  0
   37.2990   22.6180   33.3990 C   0  0  0  0  0  0  0  0  0  0  0  0
   36.6320   22.7920   32.2590 N   0  0  0  0  0  0  0  0  0  0  0  0
   35.0920   22.1480   30.9280 H   0  0  0  0  0  0  0  0  0  0  0  0
   34.4560   20.2380   32.4280 H   0  0  0  0  0  0  0  0  0  0  0  0
   35.7570   19.9790   34.5560 H   0  0  0  0  0  0  0  0  0  0  0  0
  1  6  1  0  0  0  0
  2  3  1  0  0  0  0
  2  1  2  0  0  0  0
  3  4  2  0  0  0  0
  4  9  1  0  0  0  0
  4  5  1  0  0  0  0
  5 10  1  0  0  0  0
  6  5  2  0  0  0  0
  6 11  1  0  0  0  0
  7  2  1  0  0  0  0
  8  3  1  0  0  0  0
 11 18  2  0  0  0  0
 11 12  1  0  0  0  0
 12 13  1  0  0  0  0
 12 14  2  0  0  0  0
 14 15  1  0  0  0  0
 16 17  1  0  0  0  0
 16 14  1  0  0  0  0
 18 16  1  0  0  0  0
 19 20  1  1  0  0  0
 19  1  1  0  0  0  0
 21 26  2  0  0  0  0
 21 22  1  0  0  0  0
 22 23  2  0  0  0  0
 23 24  1  0  0  0  0
 23 29  1  0  0  0  0
 25 19  1  0  0  0  0
 25 24  2  0  0  0  0
 26 25  1  0  0  0  0
 27 21  1  0  0  0  0
 28 22  1  0  0  0  0
M  END
>  <minimizedAffinity>
-5.47040749

$$$$

 OpenBabel03272509393D

 29 31  0  0  1  0  0  0  0  0999 V2000
   36.7690   28.2130   32.8390 C   0  0  0  0  0  0  0  0  0  0  0  0
   36.2430   28.4700   34.1260 C   0  0  0  0  0  0  0  0  0  0  0  0
   35.4920   29.5950   34.4370 C   0  0  0  0  0  0  0  0  0  0  0  0
   35.2480   30.5130   33.4260 C   0  0  0  0  0  0  0  0  0  0  0  0
   35.7700   30.2460   32.1820 C   0  0  0  0  0  0  0  0  0  0  0  0
   36.5230   29.1230   31.8640 C   0  0  0  0  0  0  0  0  0  0  0  0
   36.4330   27.7530   34.9050 H   0  0  0  0  0  0  0  0  0  0  0  0
   35.1390   29.6960   35.4420 H   0  0  0  0  0  0  0  0  0  0  0  0
   34.6600   31.3680   33.7210 H   0  0  0  0  0  0  0  0  0  0  0  0
   35.4940   31.0560   31.5010 H   0  0  0  0  0  0  0  0  0  0  0  0
   36.9850   29.0780   30.4960 C   0  0  0  0  0  0  0  0  0  0  0  0
   37.3970   30.1880   29.7910 C   0  0  0  0  0  0  0  0  0  0  0  0
   37.4710   31.2380   30.1000 H   0  0  0  0  0  0  0  0  0  0  0  0
   37.7730   29.9490   28.4970 C   0  0  0  0  0  0  0  0  0  0  0  0
   38.1320   30.5720   27.7010 H   0  0  0  0  0  0  0  0  0  0  0  0
   37.5870   28.6340   28.3920 N   0  0  0  0  0  0  0  0  0  0  0  0
   37.7310   27.9510   27.5900 H   0  0  0  0  0  0  0  0  0  0  0  0
   37.1520   28.2110   29.5240 N   0  0  0  0  0  0  0  0  0  0  0  0
   37.5090   26.9790   32.6660 C   0  0  1  0  0  3  0  0  0  0  0  0
   38.7790   27.0830   32.8610 O   0  0  0  0  0  1  0  0  0  0  0  0
   35.1850   24.6440   31.1320 C   0  0  0  0  0  0  0  0  0  0  0  0
   35.6920   23.3940   31.4410 C   0  0  0  0  0  0  0  0  0  0  0  0
   36.8370   23.3630   32.1990 C   0  0  0  0  0  0  0  0  0  0  0  0
   37.4550   24.5170   32.6330 N   0  0  0  0  0  0  0  0  0  0  0  0
   36.9240   25.7010   32.3040 C   0  0  0  0  0  0  0  0  0  0  0  0
   35.8130   25.7250   31.5700 N   0  0  0  0  0  0  0  0  0  0  0  0
   34.2830   24.6530   30.5360 H   0  0  0  0  0  0  0  0  0  0  0  0
   35.2850   22.4340   31.1520 H   0  0  0  0  0  0  0  0  0  0  0  0
   37.3760   22.4730   32.5360 H   0  0  0  0  0  0  0  0  0  0  0  0
  1  2  1  0  0  0  0
  2  3  2  0  0  0  0
  2  7  1  0  0  0  0
  3  8  1  0  0  0  0
  4  9  1  0  0  0  0
  4  3  1  0  0  0  0
  5  4  2  0  0  0  0
  6  5  1  0  0  0  0
  6  1  2  0  0  0  0
 10  5  1  0  0  0  0
 11  6  1  0  0  0  0
 12 13  1  0  0  0  0
 12 11  1  0  0  0  0
 14 12  2  0  0  0  0
 15 14  1  0  0  0  0
 16 14  1  0  0  0  0
 16 18  1  0  0  0  0
 17 16  1  0  0  0  0
 18 11  2  0  0  0  0
 19  1  1  0  0  0  0
 19 20  1  1  0  0  0
 21 22  2  0  0  0  0
 21 26  1  0  0  0  0
 22 23  1  0  0  0  0
 23 29  1  0  0  0  0
 23 24  2  0  0  0  0
 25 24  1  0  0  0  0
 25 19  1  0  0  0  0
 26 25  2  0  0  0  0
 27 21  1  0  0  0  0
 28 22  1  0  0  0  0
M  END
>  <minimizedAffinity>
-5.00269032

$$$$

 OpenBabel03272509393D

 29 31  0  0  1  0  0  0  0  0999 V2000
   38.1700   24.6940   34.0190 C   0  0  0  0  0  0  0  0  0  0  0  0
   37.5680   25.8800   33.5390 C   0  0  0  0  0  0  0  0  0  0  0  0
   37.4720   27.0470   34.2850 C   0  0  0  0  0  0  0  0  0  0  0  0
   37.9970   27.0430   35.5680 C   0  0  0  0  0  0  0  0  0  0  0  0
   38.5780   25.8800   36.0170 C   0  0  0  0  0  0  0  0  0  0  0  0
   38.6760   24.7080   35.2780 C   0  0  0  0  0  0  0  0  0  0  0  0
   37.1650   25.8770   32.5420 H   0  0  0  0  0  0  0  0  0  0  0  0
   36.9970   27.8910   33.8290 H   0  0  0  0  0  0  0  0  0  0  0  0
   37.8970   27.9740   36.1040 H   0  0  0  0  0  0  0  0  0  0  0  0
   38.9400   26.0350   37.0370 H   0  0  0  0  0  0  0  0  0  0  0  0
   39.3040   23.6100   35.9750 C   0  0  0  0  0  0  0  0  0  0  0  0
   40.6570   23.3540   35.9390 C   0  0  0  0  0  0  0  0  0  0  0  0
   41.4680   23.8930   35.4340 H   0  0  0  0  0  0  0  0  0  0  0  0
   41.0590   22.2500   36.6400 C   0  0  0  0  0  0  0  0  0  0  0  0
   42.0110   21.7860   36.8110 H   0  0  0  0  0  0  0  0  0  0  0  0
   39.9080   21.8000   37.1350 N   0  0  0  0  0  0  0  0  0  0  0  0
   39.6690   20.9670   37.7510 H   0  0  0  0  0  0  0  0  0  0  0  0
   38.9780   22.5890   36.7340 N   0  0  0  0  0  0  0  0  0  0  0  0
   38.2190   23.5670   33.1090 C   0  0  2  0  0  3  0  0  0  0  0  0
   39.3220   23.4550   32.4520 O   0  0  0  0  0  1  0  0  0  0  0  0
   35.9890   20.7950   33.8510 C   0  0  0  0  0  0  0  0  0  0  0  0
   35.1190   20.7500   32.7760 C   0  0  0  0  0  0  0  0  0  0  0  0
   35.3180   21.6770   31.7820 C   0  0  0  0  0  0  0  0  0  0  0  0
   36.3330   22.6080   31.8480 N   0  0  0  0  0  0  0  0  0  0  0  0
   37.1460   22.6100   32.9110 C   0  0  0  0  0  0  0  0  0  0  0  0
   36.9490   21.7070   33.8710 N   0  0  0  0  0  0  0  0  0  0  0  0
   35.8210   20.0590   34.6240 H   0  0  0  0  0  0  0  0  0  0  0  0
   34.2960   20.0630   32.6290 H   0  0  0  0  0  0  0  0  0  0  0  0
   34.7330   21.7910   30.8660 H   0  0  0  0  0  0  0  0  0  0  0  0
  1  6  1  0  0  0  0
  2  1  2  0  0  0  0
  2  3  1  0  0  0  0
  3  4  2  0  0  0  0
  4  5  1  0  0  0  0
  4  9  1  0  0  0  0
  5 10  1  0  0  0  0
  6 11  1  0  0  0  0
  6  5  2  0  0  0  0
  7  2  1  0  0  0  0
  8  3  1  0  0  0  0
 11 18  2  0  0  0  0
 12 11  1  0  0  0  0
 12 14  2  0  0  0  0
 13 12  1  0  0  0  0
 14 15  1  0  0  0  0
 14 16  1  0  0  0  0
 16 17  1  0  0  0  0
 18 16  1  0  0  0  0
 19 20  1  6  0  0  0
 19  1  1  0  0  0  0
 21 26  1  0  0  0  0
 21 27  1  0  0  0  0
 22 21  2  0  0  0  0
 23 24  2  0  0  0  0
 23 22  1  0  0  0  0
 24 25  1  0  0  0  0
 25 19  1  0  0  0  0
 25 26  2  0  0  0  0
 28 22  1  0  0  0  0
 29 23  1  0  0  0  0
M  END
>  <minimizedAffinity>
-4.91211748

$$$$

 OpenBabel03272509393D

 29 31  0  0  1  0  0  0  0  0999 V2000
   35.1400   30.3420   34.8670 C   0  0  0  0  0  0  0  0  0  0  0  0
   35.9600   31.1980   35.6370 C   0  0  0  0  0  0  0  0  0  0  0  0
   35.4620   32.1350   36.5320 C   0  0  0  0  0  0  0  0  0  0  0  0
   34.0850   32.2310   36.6740 C   0  0  0  0  0  0  0  0  0  0  0  0
   33.3060   31.3900   35.9150 C   0  0  0  0  0  0  0  0  0  0  0  0
   33.7960   30.4510   35.0170 C   0  0  0  0  0  0  0  0  0  0  0  0
   37.0260   31.1170   35.5240 H   0  0  0  0  0  0  0  0  0  0  0  0
   36.1670   32.7360   37.0670 H   0  0  0  0  0  0  0  0  0  0  0  0
   33.7520   32.9730   37.3820 H   0  0  0  0  0  0  0  0  0  0  0  0
   32.2530   31.5860   36.1380 H   0  0  0  0  0  0  0  0  0  0  0  0
   32.7790   29.7030   34.3150 C   0  0  0  0  0  0  0  0  0  0  0  0
   31.8110   28.9510   34.9450 C   0  0  0  0  0  0  0  0  0  0  0  0
   31.6180   28.7940   36.0130 H   0  0  0  0  0  0  0  0  0  0  0  0
   30.9520   28.2910   34.1090 C   0  0  0  0  0  0  0  0  0  0  0  0
   30.1140   27.6410   34.2690 H   0  0  0  0  0  0  0  0  0  0  0  0
   31.4040   28.6470   32.9070 N   0  0  0  0  0  0  0  0  0  0  0  0
   31.0860   28.4070   31.9220 H   0  0  0  0  0  0  0  0  0  0  0  0
   32.4100   29.4240   33.0860 N   0  0  0  0  0  0  0  0  0  0  0  0
   35.8110   29.3960   33.9980 C   0  0  2  0  0  3  0  0  0  0  0  0
   36.1480   28.2900   34.5660 O   0  0  0  0  0  1  0  0  0  0  0  0
   36.2840   31.2360   30.8990 C   0  0  0  0  0  0  0  0  0  0  0  0
   36.6990   30.2820   29.9870 C   0  0  0  0  0  0  0  0  0  0  0  0
   36.8000   28.9910   30.4470 C   0  0  0  0  0  0  0  0  0  0  0  0
   36.5040   28.6580   31.7520 N   0  0  0  0  0  0  0  0  0  0  0  0
   36.1080   29.6200   32.5950 C   0  0  0  0  0  0  0  0  0  0  0  0
   36.0100   30.8690   32.1420 N   0  0  0  0  0  0  0  0  0  0  0  0
   36.2080   32.2460   30.5230 H   0  0  0  0  0  0  0  0  0  0  0  0
   36.9540   30.4380   28.9470 H   0  0  0  0  0  0  0  0  0  0  0  0
   37.1110   28.1130   29.8740 H   0  0  0  0  0  0  0  0  0  0  0  0
  1  6  2  0  0  0  0
  1  2  1  0  0  0  0
  2  3  2  0  0  0  0
  3  4  1  0  0  0  0
  3  8  1  0  0  0  0
  4  9  1  0  0  0  0
  5 10  1  0  0  0  0
  5  4  2  0  0  0  0
  6  5  1  0  0  0  0
  7  2  1  0  0  0  0
 11 12  1  0  0  0  0
 11  6  1  0  0  0  0
 12 13  1  0  0  0  0
 14 15  1  0  0  0  0
 14 12  2  0  0  0  0
 16 18  1  0  0  0  0
 16 14  1  0  0  0  0
 17 16  1  0  0  0  0
 18 11  2  0  0  0  0
 19 20  1  1  0  0  0
 19  1  1  0  0  0  0
 21 26  1  0  0  0  0
 22 23  1  0  0  0  0
 22 21  2  0  0  0  0
 23 24  2  0  0  0  0
 24 25  1  0  0  0  0
 25 19  1  0  0  0  0
 26 25  2  0  0  0  0
 27 21  1  0  0  0  0
 28 22  1  0  0  0  0
 29 23  1  0  0  0  0
M  END
>  <minimizedAffinity>
-4.89064121

$$$$

 OpenBabel03272509393D

 29 31  0  0  1  0  0  0  0  0999 V2000
   39.7160   26.8840   34.0150 C   0  0  0  0  0  0  0  0  0  0  0  0
   41.1060   26.9830   34.2550 C   0  0  0  0  0  0  0  0  0  0  0  0
   42.0350   27.2810   33.2670 C   0  0  0  0  0  0  0  0  0  0  0  0
   41.5670   27.4920   31.9780 C   0  0  0  0  0  0  0  0  0  0  0  0
   40.2130   27.3900   31.7660 C   0  0  0  0  0  0  0  0  0  0  0  0
   39.2780   27.0910   32.7480 C   0  0  0  0  0  0  0  0  0  0  0  0
   41.4610   26.8200   35.2560 H   0  0  0  0  0  0  0  0  0  0  0  0
   43.0650   27.3330   33.5520 H   0  0  0  0  0  0  0  0  0  0  0  0
   42.3300   27.7210   31.2500 H   0  0  0  0  0  0  0  0  0  0  0  0
   40.0050   27.5810   30.7090 H   0  0  0  0  0  0  0  0  0  0  0  0
   37.9150   27.0110   32.2760 C   0  0  0  0  0  0  0  0  0  0  0  0
   37.0620   28.0920   32.2150 C   0  0  0  0  0  0  0  0  0  0  0  0
   37.2320   29.1450   32.4720 H   0  0  0  0  0  0  0  0  0  0  0  0
   35.8000   27.8130   31.7650 C   0  0  0  0  0  0  0  0  0  0  0  0
   34.9220   28.4060   31.6040 H   0  0  0  0  0  0  0  0  0  0  0  0
   35.8700   26.5020   31.5360 N   0  0  0  0  0  0  0  0  0  0  0  0
   35.1590   25.7980   31.1780 H   0  0  0  0  0  0  0  0  0  0  0  0
   37.0590   26.1180   31.8360 N   0  0  0  0  0  0  0  0  0  0  0  0
   38.8720   26.5930   35.1570 C   0  0  1  0  0  3  0  0  0  0  0  0
   38.4520   27.6330   35.7920 O   0  0  0  0  0  1  0  0  0  0  0  0
   37.6990   23.9870   37.4020 C   0  0  0  0  0  0  0  0  0  0  0  0
   37.6620   22.8450   36.6210 C   0  0  0  0  0  0  0  0  0  0  0  0
   38.0620   22.9790   35.3140 C   0  0  0  0  0  0  0  0  0  0  0  0
   38.4800   24.1880   34.8000 N   0  0  0  0  0  0  0  0  0  0  0  0
   38.4940   25.2630   35.5970 C   0  0  0  0  0  0  0  0  0  0  0  0
   38.1070   25.1270   36.8650 N   0  0  0  0  0  0  0  0  0  0  0  0
   37.3830   23.8660   38.4280 H   0  0  0  0  0  0  0  0  0  0  0  0
   37.3530   21.8540   36.9260 H   0  0  0  0  0  0  0  0  0  0  0  0
   38.0980   22.1910   34.5560 H   0  0  0  0  0  0  0  0  0  0  0  0
  1  2  1  0  0  0  0
  1 19  1  0  0  0  0
  2  7  1  0  0  0  0
  3  8  1  0  0  0  0
  3  2  2  0  0  0  0
  4  3  1  0  0  0  0
  5  4  2  0  0  0  0
  5  6  1  0  0  0  0
  6  1  2  0  0  0  0
  9  4  1  0  0  0  0
 10  5  1  0  0  0  0
 11  6  1  0  0  0  0
 12 11  1  0  0  0  0
 12 13  1  0  0  0  0
 14 12  2  0  0  0  0
 15 14  1  0  0  0  0
 16 14  1  0  0  0  0
 16 18  1  0  0  0  0
 17 16  1  0  0  0  0
 18 11  2  0  0  0  0
 19 25  1  0  0  0  0
 19 20  1  6  0  0  0
 21 27  1  0  0  0  0
 22 28  1  0  0  0  0
 22 21  2  0  0  0  0
 23 22  1  0  0  0  0
 24 23  2  0  0  0  0
 24 25  1  0  0  0  0
 25 26  2  0  0  0  0
 26 21  1  0  0  0  0
 29 23  1  0  0  0  0
M  END
>  <minimizedAffinity>
-4.8896637

$$$$

 OpenBabel03272509393D

 29 31  0  0  1  0  0  0  0  0999 V2000
   38.9310   26.1930   33.9890 C   0  0  0  0  0  0  0  0  0  0  0  0
   40.0950   26.9590   34.2230 C   0  0  0  0  0  0  0  0  0  0  0  0
   40.9390   27.3990   33.2130 C   0  0  0  0  0  0  0  0  0  0  0  0
   40.6170   27.0650   31.9060 C   0  0  0  0  0  0  0  0  0  0  0  0
   39.4810   26.3190   31.6990 C   0  0  0  0  0  0  0  0  0  0  0  0
   38.6320   25.8740   32.7050 C   0  0  0  0  0  0  0  0  0  0  0  0
   40.3380   27.2160   35.2390 H   0  0  0  0  0  0  0  0  0  0  0  0
   41.7960   27.9730   33.4950 H   0  0  0  0  0  0  0  0  0  0  0  0
   41.3040   27.4320   31.1600 H   0  0  0  0  0  0  0  0  0  0  0  0
   39.3650   26.1400   30.6270 H   0  0  0  0  0  0  0  0  0  0  0  0
   37.5170   25.0820   32.2420 C   0  0  0  0  0  0  0  0  0  0  0  0
   36.4300   25.6050   31.5760 C   0  0  0  0  0  0  0  0  0  0  0  0
   36.2150   26.6370   31.2700 H   0  0  0  0  0  0  0  0  0  0  0  0
   35.4600   24.7000   31.2430 C   0  0  0  0  0  0  0  0  0  0  0  0
   34.5170   24.7750   30.7380 H   0  0  0  0  0  0  0  0  0  0  0  0
   35.9640   23.5630   31.7210 N   0  0  0  0  0  0  0  0  0  0  0  0
   35.6030   22.5630   31.7230 H   0  0  0  0  0  0  0  0  0  0  0  0
   37.0970   23.8370   32.2600 N   0  0  0  0  0  0  0  0  0  0  0  0
   38.1360   25.8340   35.1470 C   0  0  2  0  0  3  0  0  0  0  0  0
   37.0330   26.4900   35.2650 O   0  0  0  0  0  1  0  0  0  0  0  0
   39.9670   23.0590   36.6160 C   0  0  0  0  0  0  0  0  0  0  0  0
   39.4040   22.8960   37.8700 C   0  0  0  0  0  0  0  0  0  0  0  0
   38.3750   23.7430   38.2000 C   0  0  0  0  0  0  0  0  0  0  0  0
   37.9200   24.7100   37.3280 N   0  0  0  0  0  0  0  0  0  0  0  0
   38.5000   24.8280   36.1280 C   0  0  0  0  0  0  0  0  0  0  0  0
   39.4970   24.0020   35.8130 N   0  0  0  0  0  0  0  0  0  0  0  0
   40.7750   22.3850   36.3710 H   0  0  0  0  0  0  0  0  0  0  0  0
   39.6860   22.1720   38.6230 H   0  0  0  0  0  0  0  0  0  0  0  0
   37.8150   23.7600   39.1390 H   0  0  0  0  0  0  0  0  0  0  0  0
  1  2  1  0  0  0  0
  1 19  1  0  0  0  0
  2  7  1  0  0  0  0
  3  8  1  0  0  0  0
  3  2  2  0  0  0  0
  4  3  1  0  0  0  0
  5  4  2  0  0  0  0
  5  6  1  0  0  0  0
  6  1  2  0  0  0  0
  9  4  1  0  0  0  0
 10  5  1  0  0  0  0
 11 18  2  0  0  0  0
 11  6  1  0  0  0  0
 12 11  1  0  0  0  0
 13 12  1  0  0  0  0
 14 12  2  0  0  0  0
 14 16  1  0  0  0  0
 15 14  1  0  0  0  0
 16 17  1  0  0  0  0
 16 18  1  0  0  0  0
 19 20  1  1  0  0  0
 19 25  1  0  0  0  0
 21 22  1  0  0  0  0
 22 23  2  0  0  0  0
 22 28  1  0  0  0  0
 23 29  1  0  0  0  0
 24 23  1  0  0  0  0
 25 24  2  0  0  0  0
 26 25  1  0  0  0  0
 26 21  2  0  0  0  0
 27 21  1  0  0  0  0
M  END
>  <minimizedAffinity>
-4.88425064

$$$$

 OpenBabel03272509393D

 29 31  0  0  1  0  0  0  0  0999 V2000
   36.5040   28.4940   32.3980 C   0  0  0  0  0  0  0  0  0  0  0  0
   35.8070   29.5350   31.7430 C   0  0  0  0  0  0  0  0  0  0  0  0
   35.0840   30.5130   32.4120 C   0  0  0  0  0  0  0  0  0  0  0  0
   35.0500   30.4620   33.7980 C   0  0  0  0  0  0  0  0  0  0  0  0
   35.7340   29.4410   34.4160 C   0  0  0  0  0  0  0  0  0  0  0  0
   36.4570   28.4580   33.7530 C   0  0  0  0  0  0  0  0  0  0  0  0
   35.8400   29.5710   30.6690 H   0  0  0  0  0  0  0  0  0  0  0  0
   34.5920   31.2580   31.8230 H   0  0  0  0  0  0  0  0  0  0  0  0
   34.4760   31.2450   34.2680 H   0  0  0  0  0  0  0  0  0  0  0  0
   35.6100   29.5370   35.4980 H   0  0  0  0  0  0  0  0  0  0  0  0
   37.0670   27.4750   34.6190 C   0  0  0  0  0  0  0  0  0  0  0  0
   38.0030   27.7800   35.5830 C   0  0  0  0  0  0  0  0  0  0  0  0
   38.4270   28.7480   35.8780 H   0  0  0  0  0  0  0  0  0  0  0  0
   38.4860   26.7090   36.2840 C   0  0  0  0  0  0  0  0  0  0  0  0
   39.2020   26.6030   37.0760 H   0  0  0  0  0  0  0  0  0  0  0  0
   37.8220   25.6940   35.7340 N   0  0  0  0  0  0  0  0  0  0  0  0
   37.8310   24.6470   35.9190 H   0  0  0  0  0  0  0  0  0  0  0  0
   37.0560   26.1780   34.8240 N   0  0  0  0  0  0  0  0  0  0  0  0
   37.2360   27.5650   31.5600 C   0  0  1  0  0  3  0  0  0  0  0  0
   38.2890   28.0590   31.0040 O   0  0  0  0  0  1  0  0  0  0  0  0
   37.6730   24.0170   30.9040 C   0  0  0  0  0  0  0  0  0  0  0  0
   36.3920   23.4960   30.9390 C   0  0  0  0  0  0  0  0  0  0  0  0
   35.3710   24.3840   31.1770 C   0  0  0  0  0  0  0  0  0  0  0  0
   35.6060   25.7290   31.3710 N   0  0  0  0  0  0  0  0  0  0  0  0
   36.8640   26.1810   31.3280 C   0  0  0  0  0  0  0  0  0  0  0  0
   37.8500   25.3160   31.0960 N   0  0  0  0  0  0  0  0  0  0  0  0
   38.4650   23.3070   30.7140 H   0  0  0  0  0  0  0  0  0  0  0  0
   36.1020   22.4630   30.8000 H   0  0  0  0  0  0  0  0  0  0  0  0
   34.3030   24.1540   31.2410 H   0  0  0  0  0  0  0  0  0  0  0  0
  1  6  1  0  0  0  0
  2  1  2  0  0  0  0
  2  3  1  0  0  0  0
  3  4  2  0  0  0  0
  4  9  1  0  0  0  0
  4  5  1  0  0  0  0
  5 10  1  0  0  0  0
  6  5  2  0  0  0  0
  6 11  1  0  0  0  0
  7  2  1  0  0  0  0
  8  3  1  0  0  0  0
 11 18  2  0  0  0  0
 11 12  1  0  0  0  0
 12 13  1  0  0  0  0
 12 14  2  0  0  0  0
 14 15  1  0  0  0  0
 16 17  1  0  0  0  0
 16 14  1  0  0  0  0
 18 16  1  0  0  0  0
 19 20  1  1  0  0  0
 19  1  1  0  0  0  0
 21 22  2  0  0  0  0
 21 26  1  0  0  0  0
 22 23  1  0  0  0  0
 23 29  1  0  0  0  0
 23 24  2  0  0  0  0
 25 24  1  0  0  0  0
 25 19  1  0  0  0  0
 26 25  2  0  0  0  0
 27 21  1  0  0  0  0
 28 22  1  0  0  0  0
M  END
>  <minimizedAffinity>
-4.8754878

$$$$

 OpenBabel03272509393D

 29 31  0  0  1  0  0  0  0  0999 V2000
   38.9610   24.4820   35.8470 C   0  0  0  0  0  0  0  0  0  0  0  0
   38.0670   25.5030   36.2440 C   0  0  0  0  0  0  0  0  0  0  0  0
   38.2500   26.8440   35.9370 C   0  0  0  0  0  0  0  0  0  0  0  0
   39.3720   27.1940   35.2000 C   0  0  0  0  0  0  0  0  0  0  0  0
   40.2290   26.1870   34.8240 C   0  0  0  0  0  0  0  0  0  0  0  0
   40.0540   24.8440   35.1300 C   0  0  0  0  0  0  0  0  0  0  0  0
   37.1990   25.2240   36.8130 H   0  0  0  0  0  0  0  0  0  0  0  0
   37.5150   27.5390   36.2840 H   0  0  0  0  0  0  0  0  0  0  0  0
   39.4660   28.2480   34.9870 H   0  0  0  0  0  0  0  0  0  0  0  0
   41.0570   26.6200   34.2560 H   0  0  0  0  0  0  0  0  0  0  0  0
   41.1050   23.9770   34.6490 C   0  0  0  0  0  0  0  0  0  0  0  0
   42.2870   23.7620   35.3230 C   0  0  0  0  0  0  0  0  0  0  0  0
   42.6360   24.1560   36.2860 H   0  0  0  0  0  0  0  0  0  0  0  0
   43.1720   22.9290   34.6950 C   0  0  0  0  0  0  0  0  0  0  0  0
   44.1520   22.5670   34.9400 H   0  0  0  0  0  0  0  0  0  0  0  0
   42.5130   22.6100   33.5820 N   0  0  0  0  0  0  0  0  0  0  0  0
   42.7600   21.9900   32.7550 H   0  0  0  0  0  0  0  0  0  0  0  0
   41.3810   23.2170   33.6140 N   0  0  0  0  0  0  0  0  0  0  0  0
   38.6160   23.1250   36.2220 C   0  0  2  0  0  3  0  0  0  0  0  0
   39.2190   22.6890   37.2750 O   0  0  0  0  0  1  0  0  0  0  0  0
   35.7810   20.9060   35.7230 C   0  0  0  0  0  0  0  0  0  0  0  0
   35.7460   20.6880   34.3570 C   0  0  0  0  0  0  0  0  0  0  0  0
   36.7210   21.3020   33.6090 C   0  0  0  0  0  0  0  0  0  0  0  0
   37.6890   22.0970   34.1850 N   0  0  0  0  0  0  0  0  0  0  0  0
   37.6770   22.2770   35.5110 C   0  0  0  0  0  0  0  0  0  0  0  0
   36.7300   21.6780   36.2320 N   0  0  0  0  0  0  0  0  0  0  0  0
   35.0090   20.4160   36.2980 H   0  0  0  0  0  0  0  0  0  0  0  0
   35.0340   20.0850   33.8090 H   0  0  0  0  0  0  0  0  0  0  0  0
   36.8490   21.2440   32.5240 H   0  0  0  0  0  0  0  0  0  0  0  0
  1 19  1  0  0  0  0
  1  2  1  0  0  0  0
  2  7  1  0  0  0  0
  3  2  2  0  0  0  0
  3  8  1  0  0  0  0
  4  3  1  0  0  0  0
  5  6  1  0  0  0  0
  5  4  2  0  0  0  0
  6  1  2  0  0  0  0
  9  4  1  0  0  0  0
 10  5  1  0  0  0  0
 11  6  1  0  0  0  0
 11 12  1  0  0  0  0
 12 13  1  0  0  0  0
 14 15  1  0  0  0  0
 14 12  2  0  0  0  0
 16 18  1  0  0  0  0
 16 14  1  0  0  0  0
 17 16  1  0  0  0  0
 18 11  2  0  0  0  0
 19 20  1  6  0  0  0
 21 26  1  0  0  0  0
 21 27  1  0  0  0  0
 22 21  2  0  0  0  0
 23 24  2  0  0  0  0
 23 22  1  0  0  0  0
 24 25  1  0  0  0  0
 25 19  1  0  0  0  0
 25 26  2  0  0  0  0
 28 22  1  0  0  0  0
 29 23  1  0  0  0  0
M  END
>  <minimizedAffinity>
-4.87290335

$$$$

 OpenBabel03272509393D

 29 31  0  0  1  0  0  0  0  0999 V2000
   39.6210   25.9900   34.9120 C   0  0  0  0  0  0  0  0  0  0  0  0
   40.7310   26.7660   34.5040 C   0  0  0  0  0  0  0  0  0  0  0  0
   42.0330   26.2870   34.4790 C   0  0  0  0  0  0  0  0  0  0  0  0
   42.2510   24.9760   34.8760 C   0  0  0  0  0  0  0  0  0  0  0  0
   41.1600   24.2390   35.2700 C   0  0  0  0  0  0  0  0  0  0  0  0
   39.8540   24.7110   35.3000 C   0  0  0  0  0  0  0  0  0  0  0  0
   40.5540   27.7810   34.1960 H   0  0  0  0  0  0  0  0  0  0  0  0
   42.8030   26.9550   34.1540 H   0  0  0  0  0  0  0  0  0  0  0  0
   43.2800   24.6540   34.8370 H   0  0  0  0  0  0  0  0  0  0  0  0
   41.4930   23.2360   35.5510 H   0  0  0  0  0  0  0  0  0  0  0  0
   38.8810   23.7570   35.7780 C   0  0  0  0  0  0  0  0  0  0  0  0
   38.3800   22.7250   35.0140 C   0  0  0  0  0  0  0  0  0  0  0  0
   38.6100   22.4310   33.9820 H   0  0  0  0  0  0  0  0  0  0  0  0
   37.4450   21.9420   35.6340 C   0  0  0  0  0  0  0  0  0  0  0  0
   36.8750   21.0860   35.3290 H   0  0  0  0  0  0  0  0  0  0  0  0
   37.3600   22.5100   36.8360 N   0  0  0  0  0  0  0  0  0  0  0  0
   36.7760   22.2840   37.6950 H   0  0  0  0  0  0  0  0  0  0  0  0
   38.1730   23.5030   36.8550 N   0  0  0  0  0  0  0  0  0  0  0  0
   38.3190   26.6250   34.8560 C   0  0  2  0  0  3  0  0  0  0  0  0
   37.9700   27.2290   35.9390 O   0  0  0  0  0  1  0  0  0  0  0  0
   36.1050   27.9350   32.2890 C   0  0  0  0  0  0  0  0  0  0  0  0
   35.7960   26.8390   31.5030 C   0  0  0  0  0  0  0  0  0  0  0  0
   36.3470   25.6370   31.8760 C   0  0  0  0  0  0  0  0  0  0  0  0
   37.1680   25.5230   32.9780 N   0  0  0  0  0  0  0  0  0  0  0  0
   37.4370   26.6150   33.7040 C   0  0  0  0  0  0  0  0  0  0  0  0
   36.8980   27.7770   33.3390 N   0  0  0  0  0  0  0  0  0  0  0  0
   35.6630   28.8730   31.9850 H   0  0  0  0  0  0  0  0  0  0  0  0
   35.1660   26.8220   30.6240 H   0  0  0  0  0  0  0  0  0  0  0  0
   36.2150   24.6730   31.3770 H   0  0  0  0  0  0  0  0  0  0  0  0
  1  6  1  0  0  0  0
  2  1  2  0  0  0  0
  3  2  1  0  0  0  0
  3  4  2  0  0  0  0
  4  5  1  0  0  0  0
  5  6  2  0  0  0  0
  5 10  1  0  0  0  0
  6 11  1  0  0  0  0
  7  2  1  0  0  0  0
  8  3  1  0  0  0  0
  9  4  1  0  0  0  0
 11 18  2  0  0  0  0
 12 14  2  0  0  0  0
 12 11  1  0  0  0  0
 13 12  1  0  0  0  0
 14 16  1  0  0  0  0
 15 14  1  0  0  0  0
 16 18  1  0  0  0  0
 16 17  1  0  0  0  0
 19  1  1  0  0  0  0
 19 20  1  1  0  0  0
 21 26  1  0  0  0  0
 22 23  1  0  0  0  0
 22 21  2  0  0  0  0
 23 24  2  0  0  0  0
 24 25  1  0  0  0  0
 25 19  1  0  0  0  0
 26 25  2  0  0  0  0
 27 21  1  0  0  0  0
 28 22  1  0  0  0  0
 29 23  1  0  0  0  0
M  END
>  <minimizedAffinity>
-4.85757971

$$$$
