REMARK  Name = 
REMARK  3 active torsions:
REMARK  status: ('A' for Active; 'I' for Inactive)
REMARK    1  A    between atoms: C_3  and  C_12
REMARK    2  A    between atoms: C_5  and  C_14
REMARK    3  A    between atoms: C_18  and  C_28
REMARK                            x       y       z     vdW  Elec       q    Type
REMARK                         _______ _______ _______ _____ _____    ______ ____
ROOT
ATOM      1 BR   UNL     1      37.312  29.338  51.023  0.00  0.00    +0.000 Br
ATOM      2  C   UNL     1      35.960  29.325  49.679  0.00  0.00    +0.000 A 
ATOM      3  C   UNL     1      35.991  30.253  48.639  0.00  0.00    +0.000 A 
ATOM      4  C   UNL     1      34.990  30.192  47.702  0.00  0.00    +0.000 A 
ATOM      5  C   UNL     1      33.969  29.259  47.753  0.00  0.00    +0.000 A 
ATOM      6  C   UNL     1      33.961  28.363  48.779  0.00  0.00    +0.000 A 
ATOM      7  C   UNL     1      34.958  28.410  49.727  0.00  0.00    +0.000 A 
ATOM      8  H   UNL     1      34.958  30.884  46.872  0.00  0.00    +0.000 HD
ATOM      9  H   UNL     1      33.180  27.617  48.854  0.00  0.00    +0.000 HD
ATOM     10  H   UNL     1      34.920  27.673  50.538  0.00  0.00    +0.000 HD
ENDROOT
BRANCH   3  15
ATOM     11  C   UNL     1      37.987  33.197  49.456  0.00  0.00    +0.000 A 
ATOM     12  C   UNL     1      39.023  33.176  48.471  0.00  0.00    +0.000 A 
ATOM     13  C   UNL     1      39.010  32.152  47.551  0.00  0.00    +0.000 A 
ATOM     14  N   UNL     1      38.020  31.208  47.615  0.00  0.00    +0.000 NA
ATOM     15  C   UNL     1      37.048  31.246  48.556  0.00  0.00    +0.000 A 
ATOM     16  N   UNL     1      37.039  32.253  49.481  0.00  0.00    +0.000 NA
ATOM     17  H   UNL     1      37.970  33.992  50.196  0.00  0.00    +0.000 HD
ATOM     18  H   UNL     1      39.764  33.938  48.473  0.00  0.00    +0.000 HD
ATOM     19  H   UNL     1      39.775  32.089  46.780  0.00  0.00    +0.000 HD
ENDBRANCH   3  15
BRANCH   5  20
ATOM     20  C   UNL     1      32.903  29.190  46.759  0.00  0.00    +0.000 A 
ATOM     21  C   UNL     1      32.256  28.040  46.369  0.00  0.00    +0.000 A 
ATOM     22  C   UNL     1      31.249  28.037  45.419  0.00  0.00    +0.000 A 
ATOM     23  N   UNL     1      30.877  29.183  44.849  0.00  0.00    +0.000 NA
ATOM     24  C   UNL     1      31.491  30.314  45.213  0.00  0.00    +0.000 A 
ATOM     25  N   UNL     1      32.470  30.312  46.137  0.00  0.00    +0.000 NA
ATOM     26  H   UNL     1      32.562  27.109  46.835  0.00  0.00    +0.000 HD
ATOM     27  H   UNL     1      30.779  27.090  45.156  0.00  0.00    +0.000 HD
BRANCH  24  28
ATOM     28  C   UNL     1      31.196  31.641  44.680  0.00  0.00    +0.000 A 
ATOM     29  C   UNL     1      31.825  32.086  43.519  0.00  0.00    +0.000 A 
ATOM     30  H   UNL     1      32.542  31.579  42.907  0.00  0.00    +0.000 HD
ATOM     31  C   UNL     1      31.368  33.377  43.230  0.00  0.00    +0.000 A 
ATOM     32  H   UNL     1      31.687  33.971  42.383  0.00  0.00    +0.000 HD
ATOM     33  N   UNL     1      30.481  33.661  44.228  0.00  0.00    +0.000 N 
ATOM     34  H   UNL     1      29.972  34.569  44.278  0.00  0.00    +0.000 HD
ATOM     35  N   UNL     1      30.378  32.661  45.069  0.00  0.00    +0.000 NA
ENDBRANCH  24  28
ENDBRANCH   5  20
TORSDOF 3
