
 OpenBabel03272505403D

 44 47  0  0  0  0  0  0  0  0999 V2000
   35.5450   30.1600   46.5930 C   0  0  0  0  0  0  0  0  0  0  0  0
   34.2110   29.8080   46.7960 C   0  0  0  0  0  0  0  0  0  0  0  0
   33.4240   29.4780   45.7080 C   0  0  0  0  0  0  0  0  0  0  0  0
   33.8820   29.4740   44.4110 C   0  0  0  0  0  0  0  0  0  0  0  0
   35.2130   29.8260   44.1990 C   0  0  0  0  0  0  0  0  0  0  0  0
   35.9810   30.1530   45.3060 C   0  0  0  0  0  0  0  0  0  0  0  0
   33.8430   29.8080   47.8180 H   0  0  0  0  0  0  0  0  0  0  0  0
   32.3970   29.2130   45.9450 H   0  0  0  0  0  0  0  0  0  0  0  0
   33.2160   29.2060   43.5980 H   0  0  0  0  0  0  0  0  0  0  0  0
   35.5180   29.8090   43.1810 H   0  0  0  0  0  0  0  0  0  0  0  0
   37.3070   30.4840   44.9040 N   0  0  0  0  0  0  0  0  0  0  0  0
   38.5760   29.8340   44.7640 C   0  0  0  0  0  0  0  0  0  0  0  0
   39.5810   30.6190   45.5680 C   0  0  0  0  0  0  0  0  0  0  0  0
   39.7970   31.8750   44.8940 N   0  0  0  0  0  0  0  0  0  0  0  0
   38.7160   32.3040   44.0850 C   0  0  0  0  0  0  0  0  0  0  0  0
   37.3630   31.8720   44.5330 C   0  0  0  0  0  0  0  0  0  0  0  0
   38.5650   28.7750   45.0830 H   0  0  0  0  0  0  0  0  0  0  0  0
   38.9170   29.8280   43.7090 H   0  0  0  0  0  0  0  0  0  0  0  0
   39.6340   30.5370   46.6040 H   0  0  0  0  0  0  0  0  0  0  0  0
   40.5400   30.0740   45.2510 H   0  0  0  0  0  0  0  0  0  0  0  0
   40.3370   32.5760   45.3980 H   0  0  0  0  0  0  0  0  0  0  0  0
   38.9100   31.9980   43.0240 H   0  0  0  0  0  0  0  0  0  0  0  0
   38.7160   33.4300   44.0470 H   0  0  0  0  0  0  0  0  0  0  0  0
   36.7390   31.8900   43.5820 H   0  0  0  0  0  0  0  0  0  0  0  0
   36.8420   32.5820   45.1660 H   0  0  0  0  0  0  0  0  0  0  0  0
   37.1050   30.1310   49.8920 C   0  0  0  0  0  0  0  0  0  0  0  0
   37.9840   31.2290   49.8220 C   0  0  0  0  0  0  0  0  0  0  0  0
   38.0190   31.9590   48.6270 C   0  0  0  0  0  0  0  0  0  0  0  0
   37.2010   31.5480   47.6290 N   0  0  0  0  0  0  0  0  0  0  0  0
   36.3790   30.5100   47.7130 C   0  0  0  0  0  0  0  0  0  0  0  0
   36.3280   29.7910   48.8550 N   0  0  0  0  0  0  0  0  0  0  0  0
   38.6150   31.5180   50.6430 H   0  0  0  0  0  0  0  0  0  0  0  0
   38.9000   33.0970   48.5010 C   0  0  0  0  0  0  0  0  0  0  0  0
   39.2410   33.9670   49.4930 C   0  0  0  0  0  0  0  0  0  0  0  0
   38.9090   33.9460   50.5300 H   0  0  0  0  0  0  0  0  0  0  0  0
   40.1080   34.9440   49.0220 C   0  0  0  0  0  0  0  0  0  0  0  0
   40.5720   35.7790   49.5280 H   0  0  0  0  0  0  0  0  0  0  0  0
   40.2640   34.6210   47.7270 N   0  0  0  0  0  0  0  0  0  0  0  0
   40.8320   35.0810   46.9800 H   0  0  0  0  0  0  0  0  0  0  0  0
   39.5550   33.5440   47.4360 N   0  0  0  0  0  0  0  0  0  0  0  0
   37.0860   29.3690   51.1880 C   0  0  0  0  0  0  0  0  0  0  0  0
   35.7480   29.0320   51.4660 F   0  0  0  0  0  0  0  0  0  0  0  0
   37.8520   28.2780   51.0620 F   0  0  0  0  0  0  0  0  0  0  0  0
   37.4790   30.2120   52.1960 F   0  0  0  0  0  0  0  0  0  0  0  0
  1  2  1  0  0  0  0
  1 30  1  0  0  0  0
  2  7  1  0  0  0  0
  3  8  1  0  0  0  0
  3  2  2  0  0  0  0
  4  3  1  0  0  0  0
  5  4  2  0  0  0  0
  5  6  1  0  0  0  0
  6  1  2  0  0  0  0
  9  4  1  0  0  0  0
 10  5  1  0  0  0  0
 11  6  1  0  0  0  0
 12 11  1  0  0  0  0
 12 17  1  0  0  0  0
 12 13  1  0  0  0  0
 13 19  1  0  0  0  0
 14 21  1  0  0  0  0
 14 13  1  0  0  0  0
 15 16  1  0  0  0  0
 15 14  1  0  0  0  0
 16 11  1  0  0  0  0
 16 25  1  0  0  0  0
 18 12  1  0  0  0  0
 20 13  1  0  0  0  0
 22 15  1  0  0  0  0
 23 15  1  0  0  0  0
 24 16  1  0  0  0  0
 26 41  1  0  0  0  0
 27 26  1  0  0  0  0
 27 32  1  0  0  0  0
 28 27  2  0  0  0  0
 29 30  2  0  0  0  0
 29 28  1  0  0  0  0
 30 31  1  0  0  0  0
 31 26  2  0  0  0  0
 33 28  1  0  0  0  0
 33 34  1  0  0  0  0
 34 35  1  0  0  0  0
 36 34  2  0  0  0  0
 36 37  1  0  0  0  0
 38 36  1  0  0  0  0
 39 38  1  0  0  0  0
 40 38  1  0  0  0  0
 40 33  2  0  0  0  0
 41 42  1  0  0  0  0
 41 44  1  0  0  0  0
 43 41  1  0  0  0  0
M  END
>  <minimizedAffinity>
-6.77203512

>  <minimizedRMSD>
0.802885234

$$$$
