
 OpenBabel03262522083D

 39 42  0  0  1  0  0  0  0  0999 V2000
   38.7510   23.2580   36.1630 C   0  0  2  0  0  0  0  0  0  0  0  0
   38.1220   24.4350   36.8210 C   0  0  0  0  0  0  0  0  0  0  0  0
   37.9990   25.5220   35.8460 N   0  0  0  0  0  0  0  0  0  0  0  0
   37.5410   26.5790   34.9870 C   0  0  0  0  0  0  0  0  0  0  0  0
   36.5110   27.2610   34.8700 O   0  0  0  0  0  0  0  0  0  0  0  0
   38.7460   26.6350   34.2100 C   0  0  1  0  0  0  0  0  0  0  0  0
   39.3070   25.7330   35.3060 C   0  0  2  0  0  0  0  0  0  0  0  0
   39.7000   24.0410   34.7990 S   0  0  0  0  0  0  0  0  0  0  0  0
   38.6680   24.7920   37.6950 H   0  0  0  0  0  0  0  0  0  0  0  0
   37.0840   24.1700   37.1630 H   0  0  0  0  0  0  0  0  0  0  0  0
   39.3450   27.5680   34.2300 H   0  0  0  0  0  0  0  0  0  0  0  0
   40.0430   26.1940   35.9820 H   0  0  0  0  0  0  0  0  0  0  0  0
   37.8170   22.1940   35.6930 C   0  0  0  0  0  0  0  0  0  0  0  0
   37.2850   21.8230   36.5640 H   0  0  0  0  0  0  0  0  0  0  0  0
   37.0790   22.6750   35.0350 H   0  0  0  0  0  0  0  0  0  0  0  0
   38.3630   21.4560   35.1120 H   0  0  0  0  0  0  0  0  0  0  0  0
   39.8280   22.6940   37.1040 C   0  0  0  0  0  0  0  0  0  0  0  0
   40.0330   21.6460   36.7540 H   0  0  0  0  0  0  0  0  0  0  0  0
   40.7110   23.3400   37.0640 H   0  0  0  0  0  0  0  0  0  0  0  0
   39.2990   22.6270   38.3930 O   0  0  0  0  0  0  0  0  0  0  0  0
   39.2440   21.6790   38.7040 H   0  0  0  0  0  0  0  0  0  0  0  0
   38.7040   26.0510   32.8570 C   0  0  0  0  0  0  0  0  0  0  0  0
   39.8110   26.1610   32.2330 O   0  0  0  0  0  0  0  0  0  0  0  0
   37.5540   25.4190   32.2870 C   0  0  0  0  0  0  0  0  0  0  0  0
   36.6620   26.1960   31.5840 C   0  0  0  0  0  0  0  0  0  0  0  0
   35.5260   25.5520   31.0270 C   0  0  0  0  0  0  0  0  0  0  0  0
   35.3850   24.2110   31.2210 N   0  0  0  0  0  0  0  0  0  0  0  0
   36.2650   23.4930   31.9050 C   0  0  0  0  0  0  0  0  0  0  0  0
   37.3570   24.0890   32.4440 N   0  0  0  0  0  0  0  0  0  0  0  0
   36.7370   27.2510   31.4100 H   0  0  0  0  0  0  0  0  0  0  0  0
   34.7970   26.1280   30.4650 H   0  0  0  0  0  0  0  0  0  0  0  0
   36.1610   22.0530   32.1420 C   0  0  0  0  0  0  0  0  0  0  0  0
   35.0020   21.3340   32.3560 C   0  0  0  0  0  0  0  0  0  0  0  0
   34.0290   21.8040   32.3650 H   0  0  0  0  0  0  0  0  0  0  0  0
   35.3110   20.0020   32.5390 C   0  0  0  0  0  0  0  0  0  0  0  0
   34.5560   19.2600   32.7220 H   0  0  0  0  0  0  0  0  0  0  0  0
   36.6470   19.9360   32.4350 N   0  0  0  0  0  0  0  0  0  0  0  0
   37.1340   19.0080   32.5390 H   0  0  0  0  0  0  0  0  0  0  0  0
   37.1460   21.1480   32.2000 N   0  0  0  0  0  0  0  0  0  0  0  0
  1 13  1  6  0  0  0
  1  2  1  0  0  0  0
  1 17  1  0  0  0  0
  2 10  1  0  0  0  0
  2  9  1  0  0  0  0
  3  2  1  0  0  0  0
  4  3  1  0  0  0  0
  5  4  2  0  0  0  0
  6 11  1  1  0  0  0
  6  4  1  0  0  0  0
  6  7  1  0  0  0  0
  7  3  1  0  0  0  0
  7 12  1  1  0  0  0
  8  7  1  0  0  0  0
  8  1  1  0  0  0  0
 13 14  1  0  0  0  0
 15 13  1  0  0  0  0
 16 13  1  0  0  0  0
 17 20  1  0  0  0  0
 18 17  1  0  0  0  0
 19 17  1  0  0  0  0
 20 21  1  0  0  0  0
 22  6  1  0  0  0  0
 23 22  2  0  0  0  0
 24 29  1  0  0  0  0
 24 22  1  0  0  0  0
 25 24  2  0  0  0  0
 26 27  2  0  0  0  0
 26 25  1  0  0  0  0
 27 28  1  0  0  0  0
 28 32  1  0  0  0  0
 28 29  2  0  0  0  0
 30 25  1  0  0  0  0
 31 26  1  0  0  0  0
 32 39  2  0  0  0  0
 32 33  1  0  0  0  0
 33 34  1  0  0  0  0
 33 35  2  0  0  0  0
 35 36  1  0  0  0  0
 37 35  1  0  0  0  0
 37 38  1  0  0  0  0
 39 37  1  0  0  0  0
M  END
>  <minimizedAffinity>
-5.87641478

$$$$

 OpenBabel03262522083D

 39 42  0  0  1  0  0  0  0  0999 V2000
   41.4120   25.9290   33.2910 C   0  0  2  0  0  0  0  0  0  0  0  0
   41.2770   25.3400   34.6510 C   0  0  0  0  0  0  0  0  0  0  0  0
   39.9020   25.5240   35.1210 N   0  0  0  0  0  0  0  0  0  0  0  0
   38.5670   25.3570   35.6270 C   0  0  0  0  0  0  0  0  0  0  0  0
   37.9220   24.4530   36.1820 O   0  0  0  0  0  0  0  0  0  0  0  0
   38.1350   26.6780   35.2700 C   0  0  1  0  0  0  0  0  0  0  0  0
   39.6190   26.9230   35.0140 C   0  0  2  0  0  0  0  0  0  0  0  0
   40.0780   27.1920   33.2840 S   0  0  0  0  0  0  0  0  0  0  0  0
   41.9690   25.7620   35.3810 H   0  0  0  0  0  0  0  0  0  0  0  0
   41.4740   24.2340   34.6080 H   0  0  0  0  0  0  0  0  0  0  0  0
   37.8350   27.3720   36.0810 H   0  0  0  0  0  0  0  0  0  0  0  0
   40.1330   27.5780   35.7340 H   0  0  0  0  0  0  0  0  0  0  0  0
   41.3200   24.9710   32.1510 C   0  0  0  0  0  0  0  0  0  0  0  0
   42.1250   24.2520   32.2660 H   0  0  0  0  0  0  0  0  0  0  0  0
   40.3720   24.4250   32.2600 H   0  0  0  0  0  0  0  0  0  0  0  0
   41.2930   25.5180   31.2130 H   0  0  0  0  0  0  0  0  0  0  0  0
   42.7130   26.7470   33.2420 C   0  0  0  0  0  0  0  0  0  0  0  0
   43.5420   26.0080   33.0670 H   0  0  0  0  0  0  0  0  0  0  0  0
   42.6330   27.4970   32.4500 H   0  0  0  0  0  0  0  0  0  0  0  0
   42.9120   27.3360   34.4910 O   0  0  0  0  0  0  0  0  0  0  0  0
   43.7420   26.9820   34.9210 H   0  0  0  0  0  0  0  0  0  0  0  0
   37.2510   26.8060   34.0980 C   0  0  0  0  0  0  0  0  0  0  0  0
   37.1320   25.7180   33.4430 O   0  0  0  0  0  0  0  0  0  0  0  0
   36.5830   28.0140   33.7200 C   0  0  0  0  0  0  0  0  0  0  0  0
   36.4210   28.2790   32.3800 C   0  0  0  0  0  0  0  0  0  0  0  0
   35.7580   29.4830   32.0250 C   0  0  0  0  0  0  0  0  0  0  0  0
   35.3240   30.3010   33.0240 N   0  0  0  0  0  0  0  0  0  0  0  0
   35.4980   30.0130   34.3070 C   0  0  0  0  0  0  0  0  0  0  0  0
   36.1290   28.8680   34.6670 N   0  0  0  0  0  0  0  0  0  0  0  0
   36.7470   27.6640   31.5650 H   0  0  0  0  0  0  0  0  0  0  0  0
   35.6090   29.7320   30.9780 H   0  0  0  0  0  0  0  0  0  0  0  0
   35.0530   30.8550   35.4170 C   0  0  0  0  0  0  0  0  0  0  0  0
   33.7480   31.0960   35.7970 C   0  0  0  0  0  0  0  0  0  0  0  0
   32.9090   30.6580   35.2760 H   0  0  0  0  0  0  0  0  0  0  0  0
   33.7330   31.9400   36.8890 C   0  0  0  0  0  0  0  0  0  0  0  0
   32.8170   32.2600   37.3510 H   0  0  0  0  0  0  0  0  0  0  0  0
   35.0230   32.1950   37.1510 N   0  0  0  0  0  0  0  0  0  0  0  0
   35.2780   32.8260   37.9550 H   0  0  0  0  0  0  0  0  0  0  0  0
   35.8010   31.5530   36.2810 N   0  0  0  0  0  0  0  0  0  0  0  0
  1 13  1  6  0  0  0
  1  2  1  0  0  0  0
  2  3  1  0  0  0  0
  2  9  1  0  0  0  0
  3  4  1  0  0  0  0
  4  5  2  0  0  0  0
  6  4  1  0  0  0  0
  6 11  1  1  0  0  0
  7  3  1  0  0  0  0
  7  6  1  0  0  0  0
  7 12  1  1  0  0  0
  8  1  1  0  0  0  0
  8  7  1  0  0  0  0
 10  2  1  0  0  0  0
 13 15  1  0  0  0  0
 13 14  1  0  0  0  0
 16 13  1  0  0  0  0
 17  1  1  0  0  0  0
 17 20  1  0  0  0  0
 18 17  1  0  0  0  0
 19 17  1  0  0  0  0
 20 21  1  0  0  0  0
 22  6  1  0  0  0  0
 23 22  2  0  0  0  0
 24 22  1  0  0  0  0
 24 29  1  0  0  0  0
 25 24  2  0  0  0  0
 26 25  1  0  0  0  0
 26 27  2  0  0  0  0
 27 28  1  0  0  0  0
 28 29  2  0  0  0  0
 28 32  1  0  0  0  0
 30 25  1  0  0  0  0
 31 26  1  0  0  0  0
 32 33  1  0  0  0  0
 32 39  2  0  0  0  0
 33 35  2  0  0  0  0
 34 33  1  0  0  0  0
 35 37  1  0  0  0  0
 35 36  1  0  0  0  0
 37 38  1  0  0  0  0
 39 37  1  0  0  0  0
M  END
>  <minimizedAffinity>
-5.65182209

$$$$

 OpenBabel03262522083D

 39 42  0  0  1  0  0  0  0  0999 V2000
   41.2360   22.3340   36.2850 C   0  0  2  0  0  0  0  0  0  0  0  0
   42.0570   23.5330   35.9630 C   0  0  0  0  0  0  0  0  0  0  0  0
   41.2610   24.4580   35.1530 N   0  0  0  0  0  0  0  0  0  0  0  0
   40.5680   25.5940   34.6090 C   0  0  0  0  0  0  0  0  0  0  0  0
   40.5400   26.8160   34.8210 O   0  0  0  0  0  0  0  0  0  0  0  0
   39.8300   24.8340   33.6410 C   0  0  1  0  0  0  0  0  0  0  0  0
   40.7830   23.7080   34.0320 C   0  0  2  0  0  0  0  0  0  0  0  0
   40.0270   22.3140   34.9020 S   0  0  0  0  0  0  0  0  0  0  0  0
   42.9850   23.3000   35.4410 H   0  0  0  0  0  0  0  0  0  0  0  0
   42.3350   24.0690   36.9120 H   0  0  0  0  0  0  0  0  0  0  0  0
   40.0060   25.0380   32.5650 H   0  0  0  0  0  0  0  0  0  0  0  0
   41.5360   23.4280   33.2790 H   0  0  0  0  0  0  0  0  0  0  0  0
   40.5900   22.3250   37.6300 C   0  0  0  0  0  0  0  0  0  0  0  0
   41.3830   22.3740   38.3700 H   0  0  0  0  0  0  0  0  0  0  0  0
   40.0020   23.2510   37.7150 H   0  0  0  0  0  0  0  0  0  0  0  0
   39.9120   21.4800   37.7060 H   0  0  0  0  0  0  0  0  0  0  0  0
   42.0970   21.0810   36.0600 C   0  0  0  0  0  0  0  0  0  0  0  0
   41.5990   20.5020   35.2360 H   0  0  0  0  0  0  0  0  0  0  0  0
   43.1180   21.3890   35.8120 H   0  0  0  0  0  0  0  0  0  0  0  0
   42.0620   20.3060   37.2190 O   0  0  0  0  0  0  0  0  0  0  0  0
   41.6250   19.4240   37.0430 H   0  0  0  0  0  0  0  0  0  0  0  0
   38.4030   24.5930   33.9170 C   0  0  0  0  0  0  0  0  0  0  0  0
   38.1060   24.7190   35.1510 O   0  0  0  0  0  0  0  0  0  0  0  0
   37.4340   24.2560   32.9190 C   0  0  0  0  0  0  0  0  0  0  0  0
   36.8870   25.2710   32.1700 C   0  0  0  0  0  0  0  0  0  0  0  0
   35.9260   24.9180   31.1860 C   0  0  0  0  0  0  0  0  0  0  0  0
   35.6040   23.6030   31.0410 N   0  0  0  0  0  0  0  0  0  0  0  0
   36.1520   22.6480   31.7820 C   0  0  0  0  0  0  0  0  0  0  0  0
   37.0720   22.9650   32.7260 N   0  0  0  0  0  0  0  0  0  0  0  0
   37.1130   26.3160   32.2530 H   0  0  0  0  0  0  0  0  0  0  0  0
   35.4690   25.6890   30.5730 H   0  0  0  0  0  0  0  0  0  0  0  0
   35.8430   21.2240   31.6680 C   0  0  0  0  0  0  0  0  0  0  0  0
   35.0380   20.4840   32.5120 C   0  0  0  0  0  0  0  0  0  0  0  0
   34.5490   20.9250   33.3690 H   0  0  0  0  0  0  0  0  0  0  0  0
   34.9890   19.1760   32.0770 C   0  0  0  0  0  0  0  0  0  0  0  0
   34.4180   18.4240   32.5890 H   0  0  0  0  0  0  0  0  0  0  0  0
   35.7610   19.1440   30.9800 N   0  0  0  0  0  0  0  0  0  0  0  0
   35.8860   18.2390   30.4550 H   0  0  0  0  0  0  0  0  0  0  0  0
   36.2630   20.3540   30.7410 N   0  0  0  0  0  0  0  0  0  0  0  0
  1 17  1  6  0  0  0
  1 13  1  0  0  0  0
  2  1  1  0  0  0  0
  2 10  1  0  0  0  0
  3  2  1  0  0  0  0
  4  5  2  0  0  0  0
  4  3  1  0  0  0  0
  6 11  1  6  0  0  0
  6 22  1  0  0  0  0
  6  7  1  0  0  0  0
  6  4  1  0  0  0  0
  7 12  1  6  0  0  0
  7  8  1  0  0  0  0
  7  3  1  0  0  0  0
  8  1  1  0  0  0  0
  9  2  1  0  0  0  0
 13 16  1  0  0  0  0
 13 15  1  0  0  0  0
 13 14  1  0  0  0  0
 17 20  1  0  0  0  0
 18 17  1  0  0  0  0
 19 17  1  0  0  0  0
 21 20  1  0  0  0  0
 22 23  2  0  0  0  0
 24 22  1  0  0  0  0
 25 30  1  0  0  0  0
 25 24  2  0  0  0  0
 26 25  1  0  0  0  0
 27 26  2  0  0  0  0
 27 28  1  0  0  0  0
 28 29  2  0  0  0  0
 29 24  1  0  0  0  0
 31 26  1  0  0  0  0
 32 28  1  0  0  0  0
 32 33  1  0  0  0  0
 33 34  1  0  0  0  0
 35 33  2  0  0  0  0
 35 36  1  0  0  0  0
 37 35  1  0  0  0  0
 38 37  1  0  0  0  0
 39 37  1  0  0  0  0
 39 32  2  0  0  0  0
M  END
>  <minimizedAffinity>
-5.46216679

$$$$

 OpenBabel03262522083D

 39 42  0  0  1  0  0  0  0  0999 V2000
   36.7840   25.8690   31.5720 C   0  0  2  0  0  0  0  0  0  0  0  0
   38.0770   25.9310   30.8380 C   0  0  0  0  0  0  0  0  0  0  0  0
   39.1750   26.0190   31.8030 N   0  0  0  0  0  0  0  0  0  0  0  0
   40.3710   25.8250   32.5750 C   0  0  0  0  0  0  0  0  0  0  0  0
   41.4090   25.1520   32.4730 O   0  0  0  0  0  0  0  0  0  0  0  0
   39.9900   26.7320   33.6200 C   0  0  1  0  0  0  0  0  0  0  0  0
   38.8830   27.1340   32.6500 C   0  0  2  0  0  0  0  0  0  0  0  0
   37.2020   26.6950   33.1590 S   0  0  0  0  0  0  0  0  0  0  0  0
   38.1420   26.7640   30.1370 H   0  0  0  0  0  0  0  0  0  0  0  0
   38.2230   24.9860   30.2450 H   0  0  0  0  0  0  0  0  0  0  0  0
   40.6090   27.6360   33.7870 H   0  0  0  0  0  0  0  0  0  0  0  0
   38.9800   28.1300   32.1920 H   0  0  0  0  0  0  0  0  0  0  0  0
   36.2000   24.5080   31.7560 C   0  0  0  0  0  0  0  0  0  0  0  0
   36.0220   24.0970   30.7660 H   0  0  0  0  0  0  0  0  0  0  0  0
   36.9680   23.8860   32.2390 H   0  0  0  0  0  0  0  0  0  0  0  0
   35.3390   24.5640   32.4160 H   0  0  0  0  0  0  0  0  0  0  0  0
   35.7920   26.8260   30.8920 C   0  0  0  0  0  0  0  0  0  0  0  0
   35.0000   26.1790   30.4270 H   0  0  0  0  0  0  0  0  0  0  0  0
   35.3940   27.5190   31.6410 H   0  0  0  0  0  0  0  0  0  0  0  0
   36.4590   27.5020   29.8700 O   0  0  0  0  0  0  0  0  0  0  0  0
   36.0700   27.2690   28.9790 H   0  0  0  0  0  0  0  0  0  0  0  0
   39.5430   26.1430   34.8960 C   0  0  0  0  0  0  0  0  0  0  0  0
   39.0690   27.0070   35.7040 O   0  0  0  0  0  0  0  0  0  0  0  0
   39.6210   24.7490   35.2110 C   0  0  0  0  0  0  0  0  0  0  0  0
   40.8110   24.2520   35.6900 C   0  0  0  0  0  0  0  0  0  0  0  0
   40.8700   22.8670   35.9950 C   0  0  0  0  0  0  0  0  0  0  0  0
   39.7530   22.1140   35.7960 N   0  0  0  0  0  0  0  0  0  0  0  0
   38.6210   22.6270   35.3320 C   0  0  0  0  0  0  0  0  0  0  0  0
   38.5440   23.9470   35.0350 N   0  0  0  0  0  0  0  0  0  0  0  0
   41.7110   24.8100   35.8600 H   0  0  0  0  0  0  0  0  0  0  0  0
   41.7900   22.4340   36.3760 H   0  0  0  0  0  0  0  0  0  0  0  0
   37.3940   21.8640   35.1000 C   0  0  0  0  0  0  0  0  0  0  0  0
   36.8960   21.4550   33.8790 C   0  0  0  0  0  0  0  0  0  0  0  0
   37.4010   21.6780   32.9500 H   0  0  0  0  0  0  0  0  0  0  0  0
   35.7190   20.7590   34.0700 C   0  0  0  0  0  0  0  0  0  0  0  0
   35.1590   20.3480   33.2490 H   0  0  0  0  0  0  0  0  0  0  0  0
   35.5250   20.7590   35.3960 N   0  0  0  0  0  0  0  0  0  0  0  0
   34.6770   20.2820   35.8010 H   0  0  0  0  0  0  0  0  0  0  0  0
   36.5150   21.4120   36.0030 N   0  0  0  0  0  0  0  0  0  0  0  0
  1 17  1  6  0  0  0
  1 13  1  0  0  0  0
  1  8  1  0  0  0  0
  2  1  1  0  0  0  0
  2  3  1  0  0  0  0
  3  4  1  0  0  0  0
  3  7  1  0  0  0  0
  4  6  1  0  0  0  0
  5  4  2  0  0  0  0
  6 11  1  1  0  0  0
  6 22  1  0  0  0  0
  7 12  1  6  0  0  0
  7  8  1  0  0  0  0
  7  6  1  0  0  0  0
  9  2  1  0  0  0  0
 10  2  1  0  0  0  0
 13 15  1  0  0  0  0
 13 16  1  0  0  0  0
 14 13  1  0  0  0  0
 17 19  1  0  0  0  0
 18 17  1  0  0  0  0
 20 17  1  0  0  0  0
 21 20  1  0  0  0  0
 22 24  1  0  0  0  0
 22 23  2  0  0  0  0
 24 25  1  0  0  0  0
 25 30  1  0  0  0  0
 25 26  2  0  0  0  0
 26 31  1  0  0  0  0
 27 26  1  0  0  0  0
 28 27  2  0  0  0  0
 29 24  2  0  0  0  0
 29 28  1  0  0  0  0
 32 28  1  0  0  0  0
 32 39  2  0  0  0  0
 33 35  2  0  0  0  0
 33 32  1  0  0  0  0
 34 33  1  0  0  0  0
 35 37  1  0  0  0  0
 36 35  1  0  0  0  0
 37 38  1  0  0  0  0
 37 39  1  0  0  0  0
M  END
>  <minimizedAffinity>
-5.43166065

$$$$

 OpenBabel03262522083D

 39 42  0  0  1  0  0  0  0  0999 V2000
   35.9340   20.6210   32.7460 C   0  0  2  0  0  0  0  0  0  0  0  0
   37.2540   20.2220   32.1850 C   0  0  0  0  0  0  0  0  0  0  0  0
   37.9530   21.4160   31.7030 N   0  0  0  0  0  0  0  0  0  0  0  0
   38.8940   22.4700   31.4410 C   0  0  0  0  0  0  0  0  0  0  0  0
   40.0960   22.6800   31.6690 O   0  0  0  0  0  0  0  0  0  0  0  0
   37.9490   23.3110   30.7650 C   0  0  1  0  0  0  0  0  0  0  0  0
   37.0610   22.0710   30.7960 C   0  0  2  0  0  0  0  0  0  0  0  0
   35.5940   22.1880   31.8490 S   0  0  0  0  0  0  0  0  0  0  0  0
   37.1840   19.4920   31.3780 H   0  0  0  0  0  0  0  0  0  0  0  0
   37.8870   19.7630   32.9940 H   0  0  0  0  0  0  0  0  0  0  0  0
   38.1240   23.5480   29.6960 H   0  0  0  0  0  0  0  0  0  0  0  0
   36.8960   21.5690   29.8310 H   0  0  0  0  0  0  0  0  0  0  0  0
   35.8710   20.7690   34.2300 C   0  0  0  0  0  0  0  0  0  0  0  0
   36.1190   19.8040   34.6610 H   0  0  0  0  0  0  0  0  0  0  0  0
   36.6620   21.4750   34.5210 H   0  0  0  0  0  0  0  0  0  0  0  0
   34.9120   21.1920   34.5160 H   0  0  0  0  0  0  0  0  0  0  0  0
   34.8690   19.6430   32.2260 C   0  0  0  0  0  0  0  0  0  0  0  0
   34.6060   18.9770   33.0910 H   0  0  0  0  0  0  0  0  0  0  0  0
   34.0140   20.2140   31.8480 H   0  0  0  0  0  0  0  0  0  0  0  0
   35.4420   18.8550   31.2270 O   0  0  0  0  0  0  0  0  0  0  0  0
   35.4670   17.8950   31.5050 H   0  0  0  0  0  0  0  0  0  0  0  0
   37.4410   24.4830   31.5000 C   0  0  0  0  0  0  0  0  0  0  0  0
   36.3970   24.9890   30.9710 O   0  0  0  0  0  0  0  0  0  0  0  0
   38.0400   25.0110   32.6880 C   0  0  0  0  0  0  0  0  0  0  0  0
   38.8240   26.1370   32.5810 C   0  0  0  0  0  0  0  0  0  0  0  0
   39.4110   26.6440   33.7690 C   0  0  0  0  0  0  0  0  0  0  0  0
   39.1670   25.9920   34.9390 N   0  0  0  0  0  0  0  0  0  0  0  0
   38.4060   24.9080   35.0060 C   0  0  0  0  0  0  0  0  0  0  0  0
   37.8360   24.4070   33.8830 N   0  0  0  0  0  0  0  0  0  0  0  0
   39.0400   26.6780   31.6810 H   0  0  0  0  0  0  0  0  0  0  0  0
   40.0360   27.5310   33.7290 H   0  0  0  0  0  0  0  0  0  0  0  0
   38.1130   24.1700   36.2350 C   0  0  0  0  0  0  0  0  0  0  0  0
   38.1150   24.6750   37.5200 C   0  0  0  0  0  0  0  0  0  0  0  0
   38.3460   25.7090   37.7290 H   0  0  0  0  0  0  0  0  0  0  0  0
   37.7880   23.6730   38.4110 C   0  0  0  0  0  0  0  0  0  0  0  0
   37.7320   23.8460   39.4700 H   0  0  0  0  0  0  0  0  0  0  0  0
   37.5950   22.5820   37.6540 N   0  0  0  0  0  0  0  0  0  0  0  0
   37.3310   21.6700   38.1100 H   0  0  0  0  0  0  0  0  0  0  0  0
   37.7860   22.8790   36.3700 N   0  0  0  0  0  0  0  0  0  0  0  0
  1 17  1  6  0  0  0
  1 13  1  0  0  0  0
  2  1  1  0  0  0  0
  2 10  1  0  0  0  0
  3  2  1  0  0  0  0
  4  5  2  0  0  0  0
  4  3  1  0  0  0  0
  6 11  1  6  0  0  0
  6  7  1  0  0  0  0
  6  4  1  0  0  0  0
  6 22  1  0  0  0  0
  7 12  1  6  0  0  0
  7  3  1  0  0  0  0
  7  8  1  0  0  0  0
  8  1  1  0  0  0  0
  9  2  1  0  0  0  0
 13 16  1  0  0  0  0
 13 15  1  0  0  0  0
 13 14  1  0  0  0  0
 17 18  1  0  0  0  0
 19 17  1  0  0  0  0
 20 21  1  0  0  0  0
 20 17  1  0  0  0  0
 22 24  1  0  0  0  0
 23 22  2  0  0  0  0
 24 29  1  0  0  0  0
 25 24  2  0  0  0  0
 25 26  1  0  0  0  0
 26 27  2  0  0  0  0
 27 28  1  0  0  0  0
 28 32  1  0  0  0  0
 29 28  2  0  0  0  0
 30 25  1  0  0  0  0
 31 26  1  0  0  0  0
 32 39  2  0  0  0  0
 32 33  1  0  0  0  0
 33 34  1  0  0  0  0
 33 35  2  0  0  0  0
 35 36  1  0  0  0  0
 37 38  1  0  0  0  0
 37 35  1  0  0  0  0
 39 37  1  0  0  0  0
M  END
>  <minimizedAffinity>
-5.3018918

$$$$

 OpenBabel03262522083D

 39 42  0  0  1  0  0  0  0  0999 V2000
   36.3570   27.8570   31.4600 C   0  0  2  0  0  0  0  0  0  0  0  0
   35.9560   26.5980   30.7750 C   0  0  0  0  0  0  0  0  0  0  0  0
   36.6230   25.4650   31.4210 N   0  0  0  0  0  0  0  0  0  0  0  0
   36.9500   24.2320   32.0830 C   0  0  0  0  0  0  0  0  0  0  0  0
   36.3590   23.1770   32.3620 O   0  0  0  0  0  0  0  0  0  0  0  0
   38.3070   24.6020   32.3670 C   0  0  1  0  0  0  0  0  0  0  0  0
   38.0230   25.7610   31.4160 C   0  0  2  0  0  0  0  0  0  0  0  0
   37.9870   27.4030   32.1760 S   0  0  0  0  0  0  0  0  0  0  0  0
   36.1800   26.5910   29.7080 H   0  0  0  0  0  0  0  0  0  0  0  0
   34.8470   26.4440   30.8830 H   0  0  0  0  0  0  0  0  0  0  0  0
   39.1220   24.0080   31.9070 H   0  0  0  0  0  0  0  0  0  0  0  0
   38.5250   25.7180   30.4370 H   0  0  0  0  0  0  0  0  0  0  0  0
   35.3980   28.3850   32.4740 C   0  0  0  0  0  0  0  0  0  0  0  0
   34.4630   28.5880   31.9590 H   0  0  0  0  0  0  0  0  0  0  0  0
   35.2080   27.5770   33.1950 H   0  0  0  0  0  0  0  0  0  0  0  0
   35.8470   29.2200   33.0050 H   0  0  0  0  0  0  0  0  0  0  0  0
   36.6890   28.9090   30.3900 C   0  0  0  0  0  0  0  0  0  0  0  0
   35.7990   29.5930   30.3350 H   0  0  0  0  0  0  0  0  0  0  0  0
   37.6110   29.4270   30.6720 H   0  0  0  0  0  0  0  0  0  0  0  0
   36.8180   28.2630   29.1600 O   0  0  0  0  0  0  0  0  0  0  0  0
   36.1100   28.5700   28.5240 H   0  0  0  0  0  0  0  0  0  0  0  0
   38.6280   24.9750   33.7560 C   0  0  0  0  0  0  0  0  0  0  0  0
   37.6160   25.4000   34.4040 O   0  0  0  0  0  0  0  0  0  0  0  0
   39.9330   24.8730   34.3360 C   0  0  0  0  0  0  0  0  0  0  0  0
   40.8370   25.8810   34.0950 C   0  0  0  0  0  0  0  0  0  0  0  0
   42.1260   25.7610   34.6770 C   0  0  0  0  0  0  0  0  0  0  0  0
   42.3910   24.6620   35.4360 N   0  0  0  0  0  0  0  0  0  0  0  0
   41.4950   23.7080   35.6480 C   0  0  0  0  0  0  0  0  0  0  0  0
   40.2580   23.8040   35.1010 N   0  0  0  0  0  0  0  0  0  0  0  0
   40.6670   26.7600   33.5050 H   0  0  0  0  0  0  0  0  0  0  0  0
   42.8690   26.5350   34.5120 H   0  0  0  0  0  0  0  0  0  0  0  0
   41.7290   22.5100   36.4530 C   0  0  0  0  0  0  0  0  0  0  0  0
   42.7640   21.6070   36.3080 C   0  0  0  0  0  0  0  0  0  0  0  0
   43.5220   21.7230   35.5470 H   0  0  0  0  0  0  0  0  0  0  0  0
   42.6440   20.6100   37.2530 C   0  0  0  0  0  0  0  0  0  0  0  0
   43.3460   19.7990   37.3210 H   0  0  0  0  0  0  0  0  0  0  0  0
   41.5430   20.9220   37.9530 N   0  0  0  0  0  0  0  0  0  0  0  0
   41.2340   20.3020   38.7460 H   0  0  0  0  0  0  0  0  0  0  0  0
   41.0050   22.0440   37.4790 N   0  0  0  0  0  0  0  0  0  0  0  0
  1 17  1  6  0  0  0
  1  8  1  0  0  0  0
  1 13  1  0  0  0  0
  2 10  1  0  0  0  0
  2  3  1  0  0  0  0
  2  1  1  0  0  0  0
  3  4  1  0  0  0  0
  4  5  2  0  0  0  0
  4  6  1  0  0  0  0
  6 11  1  6  0  0  0
  6 22  1  0  0  0  0
  7 12  1  6  0  0  0
  7  3  1  0  0  0  0
  7  8  1  0  0  0  0
  7  6  1  0  0  0  0
  9  2  1  0  0  0  0
 13 16  1  0  0  0  0
 13 15  1  0  0  0  0
 14 13  1  0  0  0  0
 17 19  1  0  0  0  0
 18 17  1  0  0  0  0
 20 17  1  0  0  0  0
 21 20  1  0  0  0  0
 22 24  1  0  0  0  0
 22 23  2  0  0  0  0
 24 29  1  0  0  0  0
 25 24  2  0  0  0  0
 25 26  1  0  0  0  0
 26 27  2  0  0  0  0
 27 28  1  0  0  0  0
 28 32  1  0  0  0  0
 29 28  2  0  0  0  0
 30 25  1  0  0  0  0
 31 26  1  0  0  0  0
 32 39  2  0  0  0  0
 33 32  1  0  0  0  0
 33 35  2  0  0  0  0
 34 33  1  0  0  0  0
 35 36  1  0  0  0  0
 35 37  1  0  0  0  0
 37 38  1  0  0  0  0
 39 37  1  0  0  0  0
M  END
>  <minimizedAffinity>
-5.25691462

$$$$

 OpenBabel03262522083D

 39 42  0  0  1  0  0  0  0  0999 V2000
   38.1740   23.6420   37.0760 C   0  0  2  0  0  0  0  0  0  0  0  0
   39.4580   22.9330   36.8270 C   0  0  0  0  0  0  0  0  0  0  0  0
   40.2390   23.6840   35.8400 N   0  0  0  0  0  0  0  0  0  0  0  0
   41.2520   24.4070   35.1210 C   0  0  0  0  0  0  0  0  0  0  0  0
   42.4660   24.6240   35.2520 O   0  0  0  0  0  0  0  0  0  0  0  0
   40.3650   24.8630   34.0890 C   0  0  1  0  0  0  0  0  0  0  0  0
   39.3910   23.8610   34.7010 C   0  0  2  0  0  0  0  0  0  0  0  0
   37.9420   24.5780   35.5120 S   0  0  0  0  0  0  0  0  0  0  0  0
   39.3310   21.9060   36.4830 H   0  0  0  0  0  0  0  0  0  0  0  0
   40.0610   22.8950   37.7750 H   0  0  0  0  0  0  0  0  0  0  0  0
   40.5510   24.5280   33.0480 H   0  0  0  0  0  0  0  0  0  0  0  0
   39.1860   22.9590   34.1040 H   0  0  0  0  0  0  0  0  0  0  0  0
   38.1290   24.5080   38.2910 C   0  0  0  0  0  0  0  0  0  0  0  0
   38.3100   23.8690   39.1490 H   0  0  0  0  0  0  0  0  0  0  0  0
   38.9700   25.2120   38.2200 H   0  0  0  0  0  0  0  0  0  0  0  0
   37.2040   25.0780   38.3010 H   0  0  0  0  0  0  0  0  0  0  0  0
   37.0380   22.6060   37.0740 C   0  0  0  0  0  0  0  0  0  0  0  0
   36.9800   22.2020   38.1200 H   0  0  0  0  0  0  0  0  0  0  0  0
   36.1120   23.0920   36.7500 H   0  0  0  0  0  0  0  0  0  0  0  0
   37.3940   21.5610   36.2220 O   0  0  0  0  0  0  0  0  0  0  0  0
   37.4960   20.7070   36.7320 H   0  0  0  0  0  0  0  0  0  0  0  0
   39.9470   26.2750   34.1330 C   0  0  0  0  0  0  0  0  0  0  0  0
   40.3760   26.8890   35.1650 O   0  0  0  0  0  0  0  0  0  0  0  0
   39.1470   26.9110   33.1320 C   0  0  0  0  0  0  0  0  0  0  0  0
   39.6230   26.9480   31.8410 C   0  0  0  0  0  0  0  0  0  0  0  0
   38.8160   27.5850   30.8620 C   0  0  0  0  0  0  0  0  0  0  0  0
   37.6260   28.1190   31.2530 N   0  0  0  0  0  0  0  0  0  0  0  0
   37.1980   28.0660   32.5080 C   0  0  0  0  0  0  0  0  0  0  0  0
   37.9530   27.4620   33.4580 N   0  0  0  0  0  0  0  0  0  0  0  0
   40.5510   26.5410   31.4940 H   0  0  0  0  0  0  0  0  0  0  0  0
   39.1540   27.6370   29.8310 H   0  0  0  0  0  0  0  0  0  0  0  0
   35.9310   28.6220   32.9800 C   0  0  0  0  0  0  0  0  0  0  0  0
   35.6730   29.1350   34.2360 C   0  0  0  0  0  0  0  0  0  0  0  0
   36.4280   29.1670   35.0090 H   0  0  0  0  0  0  0  0  0  0  0  0
   34.3640   29.5650   34.3000 C   0  0  0  0  0  0  0  0  0  0  0  0
   33.9480   30.0010   35.1910 H   0  0  0  0  0  0  0  0  0  0  0  0
   33.8510   29.3060   33.0880 N   0  0  0  0  0  0  0  0  0  0  0  0
   32.8470   29.5470   32.8820 H   0  0  0  0  0  0  0  0  0  0  0  0
   34.7790   28.7500   32.3110 N   0  0  0  0  0  0  0  0  0  0  0  0
  1 17  1  1  0  0  0
  1 13  1  0  0  0  0
  2  1  1  0  0  0  0
  2 10  1  0  0  0  0
  3  2  1  0  0  0  0
  4  5  2  0  0  0  0
  4  3  1  0  0  0  0
  6 11  1  6  0  0  0
  6 22  1  0  0  0  0
  6  7  1  0  0  0  0
  6  4  1  0  0  0  0
  7 12  1  6  0  0  0
  7  8  1  0  0  0  0
  7  3  1  0  0  0  0
  8  1  1  0  0  0  0
  9  2  1  0  0  0  0
 13 16  1  0  0  0  0
 13 14  1  0  0  0  0
 15 13  1  0  0  0  0
 17 18  1  0  0  0  0
 19 17  1  0  0  0  0
 20 21  1  0  0  0  0
 20 17  1  0  0  0  0
 22 23  2  0  0  0  0
 24 29  1  0  0  0  0
 24 22  1  0  0  0  0
 25 24  2  0  0  0  0
 26 27  2  0  0  0  0
 26 25  1  0  0  0  0
 27 28  1  0  0  0  0
 28 32  1  0  0  0  0
 28 29  2  0  0  0  0
 30 25  1  0  0  0  0
 31 26  1  0  0  0  0
 32 33  1  0  0  0  0
 33 35  2  0  0  0  0
 33 34  1  0  0  0  0
 35 36  1  0  0  0  0
 37 35  1  0  0  0  0
 38 37  1  0  0  0  0
 39 32  2  0  0  0  0
 39 37  1  0  0  0  0
M  END
>  <minimizedAffinity>
-5.20620108

$$$$

 OpenBabel03262522083D

 39 42  0  0  1  0  0  0  0  0999 V2000
   36.8160   21.9640   31.8450 C   0  0  2  0  0  0  0  0  0  0  0  0
   36.4880   21.3690   33.1680 C   0  0  0  0  0  0  0  0  0  0  0  0
   37.3870   21.9240   34.1830 N   0  0  0  0  0  0  0  0  0  0  0  0
   37.9680   22.5490   35.3390 C   0  0  0  0  0  0  0  0  0  0  0  0
   37.5690   22.9320   36.4500 O   0  0  0  0  0  0  0  0  0  0  0  0
   39.2910   22.6180   34.7880 C   0  0  1  0  0  0  0  0  0  0  0  0
   38.7190   21.7020   33.7100 C   0  0  2  0  0  0  0  0  0  0  0  0
   38.5800   22.4310   32.0600 S   0  0  0  0  0  0  0  0  0  0  0  0
   36.5500   20.2800   33.1860 H   0  0  0  0  0  0  0  0  0  0  0  0
   35.4370   21.6460   33.4600 H   0  0  0  0  0  0  0  0  0  0  0  0
   40.1010   22.0500   35.2900 H   0  0  0  0  0  0  0  0  0  0  0  0
   39.0710   20.6590   33.7250 H   0  0  0  0  0  0  0  0  0  0  0  0
   35.9560   23.1020   31.4070 C   0  0  0  0  0  0  0  0  0  0  0  0
   34.9380   22.7320   31.3440 H   0  0  0  0  0  0  0  0  0  0  0  0
   35.9840   23.8570   32.2060 H   0  0  0  0  0  0  0  0  0  0  0  0
   36.3650   23.5450   30.5040 H   0  0  0  0  0  0  0  0  0  0  0  0
   36.8440   20.8380   30.7980 C   0  0  0  0  0  0  0  0  0  0  0  0
   36.5730   21.3140   29.8180 H   0  0  0  0  0  0  0  0  0  0  0  0
   37.8380   20.3800   30.7930 H   0  0  0  0  0  0  0  0  0  0  0  0
   35.8540   19.9100   31.1210 O   0  0  0  0  0  0  0  0  0  0  0  0
   35.1550   19.8740   30.4060 H   0  0  0  0  0  0  0  0  0  0  0  0
   39.7630   23.9360   34.3270 C   0  0  0  0  0  0  0  0  0  0  0  0
   40.9240   23.8920   33.8010 O   0  0  0  0  0  0  0  0  0  0  0  0
   39.0110   25.1480   34.4450 C   0  0  0  0  0  0  0  0  0  0  0  0
   38.9010   25.7310   35.6850 C   0  0  0  0  0  0  0  0  0  0  0  0
   38.1490   26.9320   35.7820 C   0  0  0  0  0  0  0  0  0  0  0  0
   37.5850   27.4330   34.6490 N   0  0  0  0  0  0  0  0  0  0  0  0
   37.7110   26.8430   33.4680 C   0  0  0  0  0  0  0  0  0  0  0  0
   38.4250   25.6960   33.3540 N   0  0  0  0  0  0  0  0  0  0  0  0
   39.3290   25.3690   36.5990 H   0  0  0  0  0  0  0  0  0  0  0  0
   38.0370   27.4250   36.7430 H   0  0  0  0  0  0  0  0  0  0  0  0
   37.1260   27.3380   32.2220 C   0  0  0  0  0  0  0  0  0  0  0  0
   36.8210   28.6510   31.9190 C   0  0  0  0  0  0  0  0  0  0  0  0
   37.0010   29.4570   32.6160 H   0  0  0  0  0  0  0  0  0  0  0  0
   36.2850   28.7190   30.6490 C   0  0  0  0  0  0  0  0  0  0  0  0
   35.9750   29.6490   30.2090 H   0  0  0  0  0  0  0  0  0  0  0  0
   36.2740   27.4530   30.2060 N   0  0  0  0  0  0  0  0  0  0  0  0
   35.9030   27.2400   29.2440 H   0  0  0  0  0  0  0  0  0  0  0  0
   36.7710   26.6400   31.1360 N   0  0  0  0  0  0  0  0  0  0  0  0
  1 17  1  6  0  0  0
  1  8  1  0  0  0  0
  1  2  1  0  0  0  0
  2  9  1  0  0  0  0
  2 10  1  0  0  0  0
  2  3  1  0  0  0  0
  3  4  1  0  0  0  0
  4  5  2  0  0  0  0
  6 11  1  1  0  0  0
  6  4  1  0  0  0  0
  7 12  1  1  0  0  0
  7  3  1  0  0  0  0
  7  6  1  0  0  0  0
  8  7  1  0  0  0  0
 13  1  1  0  0  0  0
 13 15  1  0  0  0  0
 14 13  1  0  0  0  0
 16 13  1  0  0  0  0
 17 20  1  0  0  0  0
 18 17  1  0  0  0  0
 19 17  1  0  0  0  0
 21 20  1  0  0  0  0
 22 24  1  0  0  0  0
 22  6  1  0  0  0  0
 23 22  2  0  0  0  0
 24 25  1  0  0  0  0
 25 26  2  0  0  0  0
 25 30  1  0  0  0  0
 26 31  1  0  0  0  0
 27 26  1  0  0  0  0
 28 27  2  0  0  0  0
 29 28  1  0  0  0  0
 29 24  2  0  0  0  0
 32 28  1  0  0  0  0
 33 32  1  0  0  0  0
 33 34  1  0  0  0  0
 35 33  2  0  0  0  0
 36 35  1  0  0  0  0
 37 35  1  0  0  0  0
 37 39  1  0  0  0  0
 38 37  1  0  0  0  0
 39 32  2  0  0  0  0
M  END
>  <minimizedAffinity>
-5.20080328

$$$$

 OpenBabel03262522083D

 39 42  0  0  1  0  0  0  0  0999 V2000
   36.2020   28.6410   32.6650 C   0  0  2  0  0  0  0  0  0  0  0  0
   35.1530   27.8920   31.9230 C   0  0  0  0  0  0  0  0  0  0  0  0
   35.6630   26.5630   31.5760 N   0  0  0  0  0  0  0  0  0  0  0  0
   35.8730   25.1530   31.3990 C   0  0  0  0  0  0  0  0  0  0  0  0
   35.2020   24.1190   31.5410 O   0  0  0  0  0  0  0  0  0  0  0  0
   37.2340   25.2860   30.9630 C   0  0  1  0  0  0  0  0  0  0  0  0
   36.8950   26.7710   30.8780 C   0  0  2  0  0  0  0  0  0  0  0  0
   37.7430   27.8340   32.0730 S   0  0  0  0  0  0  0  0  0  0  0  0
   34.8120   28.3970   31.0180 H   0  0  0  0  0  0  0  0  0  0  0  0
   34.2520   27.7460   32.5810 H   0  0  0  0  0  0  0  0  0  0  0  0
   37.4930   24.9610   29.9360 H   0  0  0  0  0  0  0  0  0  0  0  0
   36.8140   27.1920   29.8640 H   0  0  0  0  0  0  0  0  0  0  0  0
   36.0760   28.6440   34.1520 C   0  0  0  0  0  0  0  0  0  0  0  0
   35.1240   29.1070   34.3950 H   0  0  0  0  0  0  0  0  0  0  0  0
   36.0240   27.5940   34.4770 H   0  0  0  0  0  0  0  0  0  0  0  0
   36.9590   29.0960   34.5950 H   0  0  0  0  0  0  0  0  0  0  0  0
   36.2750   30.0680   32.0980 C   0  0  0  0  0  0  0  0  0  0  0  0
   37.3510   30.3800   32.1700 H   0  0  0  0  0  0  0  0  0  0  0  0
   35.8970   30.0630   31.0710 H   0  0  0  0  0  0  0  0  0  0  0  0
   35.5220   30.9090   32.9190 O   0  0  0  0  0  0  0  0  0  0  0  0
   36.1060   31.5920   33.3570 H   0  0  0  0  0  0  0  0  0  0  0  0
   38.2900   24.9220   31.9250 C   0  0  0  0  0  0  0  0  0  0  0  0
   39.3160   25.6750   31.8470 O   0  0  0  0  0  0  0  0  0  0  0  0
   38.1910   23.8440   32.8610 C   0  0  0  0  0  0  0  0  0  0  0  0
   38.0430   22.5660   32.3730 C   0  0  0  0  0  0  0  0  0  0  0  0
   37.9440   21.5100   33.3170 C   0  0  0  0  0  0  0  0  0  0  0  0
   38.0010   21.8200   34.6410 N   0  0  0  0  0  0  0  0  0  0  0  0
   38.1440   23.0650   35.0770 C   0  0  0  0  0  0  0  0  0  0  0  0
   38.2400   24.0870   34.1920 N   0  0  0  0  0  0  0  0  0  0  0  0
   37.9940   22.2810   31.3410 H   0  0  0  0  0  0  0  0  0  0  0  0
   37.8270   20.4860   32.9740 H   0  0  0  0  0  0  0  0  0  0  0  0
   38.2100   23.4520   36.4860 C   0  0  0  0  0  0  0  0  0  0  0  0
   39.1450   23.0350   37.4130 C   0  0  0  0  0  0  0  0  0  0  0  0
   39.9430   22.3530   37.1550 H   0  0  0  0  0  0  0  0  0  0  0  0
   38.8760   23.6170   38.6340 C   0  0  0  0  0  0  0  0  0  0  0  0
   39.4820   23.4300   39.5020 H   0  0  0  0  0  0  0  0  0  0  0  0
   37.7880   24.3740   38.4290 N   0  0  0  0  0  0  0  0  0  0  0  0
   37.3790   24.9290   39.2250 H   0  0  0  0  0  0  0  0  0  0  0  0
   37.3970   24.2750   37.1600 N   0  0  0  0  0  0  0  0  0  0  0  0
  1 17  1  6  0  0  0
  1 13  1  0  0  0  0
  2 10  1  0  0  0  0
  2  1  1  0  0  0  0
  3  2  1  0  0  0  0
  4  5  2  0  0  0  0
  4  3  1  0  0  0  0
  6 11  1  6  0  0  0
  6  4  1  0  0  0  0
  6 22  1  0  0  0  0
  7 12  1  6  0  0  0
  7  6  1  0  0  0  0
  7  3  1  0  0  0  0
  7  8  1  0  0  0  0
  8  1  1  0  0  0  0
  9  2  1  0  0  0  0
 13 14  1  0  0  0  0
 13 15  1  0  0  0  0
 13 16  1  0  0  0  0
 17 18  1  0  0  0  0
 17 20  1  0  0  0  0
 19 17  1  0  0  0  0
 20 21  1  0  0  0  0
 22 24  1  0  0  0  0
 23 22  2  0  0  0  0
 24 29  1  0  0  0  0
 25 24  2  0  0  0  0
 25 26  1  0  0  0  0
 26 27  2  0  0  0  0
 27 28  1  0  0  0  0
 28 32  1  0  0  0  0
 29 28  2  0  0  0  0
 30 25  1  0  0  0  0
 31 26  1  0  0  0  0
 32 39  2  0  0  0  0
 32 33  1  0  0  0  0
 33 35  2  0  0  0  0
 34 33  1  0  0  0  0
 35 36  1  0  0  0  0
 37 35  1  0  0  0  0
 37 38  1  0  0  0  0
 39 37  1  0  0  0  0
M  END
>  <minimizedAffinity>
-5.14484358

$$$$
