
 OpenBabel03272508153D

 27 29  0  0  0  0  0  0  0  0999 V2000
   38.1260   23.2890   33.8880 Cl  0  0  0  0  0  0  0  0  0  0  0  0
   37.2210   24.3790   32.8740 C   0  0  0  0  0  0  0  0  0  0  0  0
   36.4420   23.7500   31.9400 C   0  0  0  0  0  0  0  0  0  0  0  0
   35.6690   24.5390   31.0690 C   0  0  0  0  0  0  0  0  0  0  0  0
   35.6830   25.8960   31.1390 C   0  0  0  0  0  0  0  0  0  0  0  0
   36.4750   26.5120   32.0860 C   0  0  0  0  0  0  0  0  0  0  0  0
   36.5150   28.2500   32.2040 Cl  0  0  0  0  0  0  0  0  0  0  0  0
   37.2280   25.7500   32.9360 C   0  0  0  0  0  0  0  0  0  0  0  0
   35.0250   24.1340   30.3010 H   0  0  0  0  0  0  0  0  0  0  0  0
   35.1060   26.5380   30.4900 H   0  0  0  0  0  0  0  0  0  0  0  0
   35.1730   21.6570   32.2620 C   0  0  0  0  0  0  0  0  0  0  0  0
   36.2730   22.3110   31.6850 C   0  0  0  0  0  0  0  0  0  0  0  0
   37.1490   21.5510   30.8960 C   0  0  0  0  0  0  0  0  0  0  0  0
   36.8910   20.2290   30.7320 N   0  0  0  0  0  0  0  0  0  0  0  0
   35.8190   19.6310   31.3050 C   0  0  0  0  0  0  0  0  0  0  0  0
   34.9630   20.3520   32.0700 N   0  0  0  0  0  0  0  0  0  0  0  0
   34.5080   22.2580   32.8670 H   0  0  0  0  0  0  0  0  0  0  0  0
   37.9680   22.0920   30.4800 H   0  0  0  0  0  0  0  0  0  0  0  0
   35.6960   18.5700   31.1160 H   0  0  0  0  0  0  0  0  0  0  0  0
   38.0840   26.3410   33.9590 C   0  0  0  0  0  0  0  0  0  0  0  0
   37.5440   26.6200   35.1940 C   0  0  0  0  0  0  0  0  0  0  0  0
   36.5280   26.4740   35.5790 H   0  0  0  0  0  0  0  0  0  0  0  0
   38.5500   27.1670   35.9730 C   0  0  0  0  0  0  0  0  0  0  0  0
   38.4460   27.4940   36.9990 H   0  0  0  0  0  0  0  0  0  0  0  0
   39.6630   27.2060   35.2030 N   0  0  0  0  0  0  0  0  0  0  0  0
   40.6070   27.5610   35.4770 H   0  0  0  0  0  0  0  0  0  0  0  0
   39.3890   26.7090   33.9870 N   0  0  0  0  0  0  0  0  0  0  0  0
  2  8  1  0  0  0  0
  2  1  1  0  0  0  0
  3  2  2  0  0  0  0
  4  5  2  0  0  0  0
  4  3  1  0  0  0  0
  5  6  1  0  0  0  0
  6  7  1  0  0  0  0
  6  8  2  0  0  0  0
  8 20  1  0  0  0  0
  9  4  1  0  0  0  0
 10  5  1  0  0  0  0
 11 17  1  0  0  0  0
 12  3  1  0  0  0  0
 12 11  2  0  0  0  0
 13 12  1  0  0  0  0
 14 13  2  0  0  0  0
 14 15  1  0  0  0  0
 15 16  2  0  0  0  0
 16 11  1  0  0  0  0
 18 13  1  0  0  0  0
 19 15  1  0  0  0  0
 20 27  2  0  0  0  0
 20 21  1  0  0  0  0
 21 22  1  0  0  0  0
 21 23  2  0  0  0  0
 23 24  1  0  0  0  0
 25 26  1  0  0  0  0
 25 23  1  0  0  0  0
 27 25  1  0  0  0  0
M  END
>  <minimizedAffinity>
-5.14277935

$$$$

 OpenBabel03272508153D

 27 29  0  0  0  0  0  0  0  0999 V2000
   39.6460   25.5140   32.0370 Cl  0  0  0  0  0  0  0  0  0  0  0  0
   38.8860   26.3720   33.3470 C   0  0  0  0  0  0  0  0  0  0  0  0
   39.4820   26.1700   34.5630 C   0  0  0  0  0  0  0  0  0  0  0  0
   38.9470   26.8180   35.6900 C   0  0  0  0  0  0  0  0  0  0  0  0
   37.8610   27.6290   35.5940 C   0  0  0  0  0  0  0  0  0  0  0  0
   37.2720   27.8210   34.3610 C   0  0  0  0  0  0  0  0  0  0  0  0
   35.8790   28.8560   34.2010 Cl  0  0  0  0  0  0  0  0  0  0  0  0
   37.7890   27.1940   33.2610 C   0  0  0  0  0  0  0  0  0  0  0  0
   39.3480   26.7200   36.6900 H   0  0  0  0  0  0  0  0  0  0  0  0
   37.4180   28.1450   36.4340 H   0  0  0  0  0  0  0  0  0  0  0  0
   41.9290   25.9160   34.7810 C   0  0  0  0  0  0  0  0  0  0  0  0
   40.6520   25.3450   34.9000 C   0  0  0  0  0  0  0  0  0  0  0  0
   40.5680   24.0140   35.3350 C   0  0  0  0  0  0  0  0  0  0  0  0
   41.7180   23.3500   35.6170 N   0  0  0  0  0  0  0  0  0  0  0  0
   42.9320   23.9340   35.4900 C   0  0  0  0  0  0  0  0  0  0  0  0
   43.0310   25.2200   35.0710 N   0  0  0  0  0  0  0  0  0  0  0  0
   41.9750   26.9430   34.4440 H   0  0  0  0  0  0  0  0  0  0  0  0
   39.5780   23.6240   35.4110 H   0  0  0  0  0  0  0  0  0  0  0  0
   43.7940   23.3240   35.7390 H   0  0  0  0  0  0  0  0  0  0  0  0
   37.2130   27.3560   31.9300 C   0  0  0  0  0  0  0  0  0  0  0  0
   37.6090   28.4280   31.1640 C   0  0  0  0  0  0  0  0  0  0  0  0
   38.3190   29.2360   31.3770 H   0  0  0  0  0  0  0  0  0  0  0  0
   36.9250   28.3540   29.9610 C   0  0  0  0  0  0  0  0  0  0  0  0
   37.0140   29.0530   29.1410 H   0  0  0  0  0  0  0  0  0  0  0  0
   36.1410   27.2510   30.0260 N   0  0  0  0  0  0  0  0  0  0  0  0
   35.4930   26.8950   29.2870 H   0  0  0  0  0  0  0  0  0  0  0  0
   36.3100   26.6440   31.2100 N   0  0  0  0  0  0  0  0  0  0  0  0
  1  2  1  0  0  0  0
  2  3  1  0  0  0  0
  3 12  1  0  0  0  0
  3  4  2  0  0  0  0
  4  9  1  0  0  0  0
  5  4  1  0  0  0  0
  5 10  1  0  0  0  0
  6  5  2  0  0  0  0
  7  6  1  0  0  0  0
  8  2  2  0  0  0  0
  8  6  1  0  0  0  0
 11 12  2  0  0  0  0
 11 16  1  0  0  0  0
 12 13  1  0  0  0  0
 13 18  1  0  0  0  0
 13 14  2  0  0  0  0
 15 14  1  0  0  0  0
 15 19  1  0  0  0  0
 16 15  2  0  0  0  0
 17 11  1  0  0  0  0
 20  8  1  0  0  0  0
 21 22  1  0  0  0  0
 21 20  1  0  0  0  0
 23 25  1  0  0  0  0
 23 21  2  0  0  0  0
 24 23  1  0  0  0  0
 25 27  1  0  0  0  0
 26 25  1  0  0  0  0
 27 20  2  0  0  0  0
M  END
>  <minimizedAffinity>
-4.99254704

$$$$

 OpenBabel03272508153D

 27 29  0  0  0  0  0  0  0  0999 V2000
   36.5180   27.9060   34.9200 Cl  0  0  0  0  0  0  0  0  0  0  0  0
   36.2740   28.7560   33.4200 C   0  0  0  0  0  0  0  0  0  0  0  0
   35.5750   29.9270   33.5530 C   0  0  0  0  0  0  0  0  0  0  0  0
   35.3230   30.6920   32.4010 C   0  0  0  0  0  0  0  0  0  0  0  0
   35.7540   30.2950   31.1760 C   0  0  0  0  0  0  0  0  0  0  0  0
   36.4550   29.1120   31.0600 C   0  0  0  0  0  0  0  0  0  0  0  0
   37.0240   28.5740   29.5040 Cl  0  0  0  0  0  0  0  0  0  0  0  0
   36.7040   28.3640   32.1770 C   0  0  0  0  0  0  0  0  0  0  0  0
   34.7810   31.6280   32.4060 H   0  0  0  0  0  0  0  0  0  0  0  0
   35.5810   30.8530   30.2670 H   0  0  0  0  0  0  0  0  0  0  0  0
   33.6560   30.3580   35.0450 C   0  0  0  0  0  0  0  0  0  0  0  0
   35.0180   30.5450   34.7660 C   0  0  0  0  0  0  0  0  0  0  0  0
   35.7720   31.3150   35.6640 C   0  0  0  0  0  0  0  0  0  0  0  0
   35.1490   31.8370   36.7510 N   0  0  0  0  0  0  0  0  0  0  0  0
   33.8310   31.6350   36.9880 C   0  0  0  0  0  0  0  0  0  0  0  0
   33.0890   30.8930   36.1290 N   0  0  0  0  0  0  0  0  0  0  0  0
   33.0900   29.7620   34.3410 H   0  0  0  0  0  0  0  0  0  0  0  0
   36.8010   31.4290   35.4110 H   0  0  0  0  0  0  0  0  0  0  0  0
   33.4220   32.0920   37.8830 H   0  0  0  0  0  0  0  0  0  0  0  0
   37.4410   27.1060   32.1220 C   0  0  0  0  0  0  0  0  0  0  0  0
   38.8110   27.1340   32.2560 C   0  0  0  0  0  0  0  0  0  0  0  0
   39.4970   27.9760   32.4040 H   0  0  0  0  0  0  0  0  0  0  0  0
   39.2630   25.8270   32.1690 C   0  0  0  0  0  0  0  0  0  0  0  0
   40.2960   25.5120   32.2360 H   0  0  0  0  0  0  0  0  0  0  0  0
   38.1710   25.0470   31.9880 N   0  0  0  0  0  0  0  0  0  0  0  0
   38.1500   24.0080   31.8840 H   0  0  0  0  0  0  0  0  0  0  0  0
   37.0690   25.8120   31.9590 N   0  0  0  0  0  0  0  0  0  0  0  0
  2  3  1  0  0  0  0
  2  1  1  0  0  0  0
  3 12  1  0  0  0  0
  4  9  1  0  0  0  0
  4  3  2  0  0  0  0
  5  4  1  0  0  0  0
  6  5  2  0  0  0  0
  6  8  1  0  0  0  0
  7  6  1  0  0  0  0
  8  2  2  0  0  0  0
 10  5  1  0  0  0  0
 11 16  1  0  0  0  0
 12 11  2  0  0  0  0
 12 13  1  0  0  0  0
 13 14  2  0  0  0  0
 14 15  1  0  0  0  0
 15 19  1  0  0  0  0
 16 15  2  0  0  0  0
 17 11  1  0  0  0  0
 18 13  1  0  0  0  0
 20  8  1  0  0  0  0
 20 21  1  0  0  0  0
 21 22  1  0  0  0  0
 23 24  1  0  0  0  0
 23 21  2  0  0  0  0
 25 23  1  0  0  0  0
 26 25  1  0  0  0  0
 27 25  1  0  0  0  0
 27 20  2  0  0  0  0
M  END
>  <minimizedAffinity>
-4.72983694

$$$$

 OpenBabel03272508153D

 27 29  0  0  0  0  0  0  0  0999 V2000
   36.2200   28.5280   34.7650 Cl  0  0  0  0  0  0  0  0  0  0  0  0
   35.8700   29.6930   33.5200 C   0  0  0  0  0  0  0  0  0  0  0  0
   36.1500   29.2540   32.2530 C   0  0  0  0  0  0  0  0  0  0  0  0
   35.9030   30.1190   31.1720 C   0  0  0  0  0  0  0  0  0  0  0  0
   35.3990   31.3660   31.3620 C   0  0  0  0  0  0  0  0  0  0  0  0
   35.1240   31.7930   32.6450 C   0  0  0  0  0  0  0  0  0  0  0  0
   34.4770   33.3860   32.9240 Cl  0  0  0  0  0  0  0  0  0  0  0  0
   35.3620   30.9560   33.7000 C   0  0  0  0  0  0  0  0  0  0  0  0
   36.0910   29.8620   30.1390 H   0  0  0  0  0  0  0  0  0  0  0  0
   35.1960   32.0610   30.5600 H   0  0  0  0  0  0  0  0  0  0  0  0
   35.7920   26.9320   31.4940 C   0  0  0  0  0  0  0  0  0  0  0  0
   36.6930   27.9590   31.8160 C   0  0  0  0  0  0  0  0  0  0  0  0
   38.0650   27.6880   31.7010 C   0  0  0  0  0  0  0  0  0  0  0  0
   38.4490   26.4540   31.2880 N   0  0  0  0  0  0  0  0  0  0  0  0
   37.5500   25.4870   30.9860 C   0  0  0  0  0  0  0  0  0  0  0  0
   36.2210   25.7330   31.0920 N   0  0  0  0  0  0  0  0  0  0  0  0
   34.7380   27.1580   31.5890 H   0  0  0  0  0  0  0  0  0  0  0  0
   38.7090   28.4980   31.9560 H   0  0  0  0  0  0  0  0  0  0  0  0
   37.9530   24.5320   30.6640 H   0  0  0  0  0  0  0  0  0  0  0  0
   35.0910   31.3460   35.0800 C   0  0  0  0  0  0  0  0  0  0  0  0
   33.8170   31.1880   35.5740 C   0  0  0  0  0  0  0  0  0  0  0  0
   32.9080   30.8010   35.0990 H   0  0  0  0  0  0  0  0  0  0  0  0
   33.8250   31.6280   36.8890 C   0  0  0  0  0  0  0  0  0  0  0  0
   32.9740   31.6340   37.5560 H   0  0  0  0  0  0  0  0  0  0  0  0
   35.0880   32.0360   37.1560 N   0  0  0  0  0  0  0  0  0  0  0  0
   35.4470   32.4250   38.0570 H   0  0  0  0  0  0  0  0  0  0  0  0
   35.8570   31.8690   36.0690 N   0  0  0  0  0  0  0  0  0  0  0  0
  2  8  1  0  0  0  0
  2  1  1  0  0  0  0
  3  2  2  0  0  0  0
  4  5  2  0  0  0  0
  4  3  1  0  0  0  0
  5  6  1  0  0  0  0
  6  7  1  0  0  0  0
  6  8  2  0  0  0  0
  8 20  1  0  0  0  0
  9  4  1  0  0  0  0
 10  5  1  0  0  0  0
 11 17  1  0  0  0  0
 11 12  1  0  0  0  0
 12  3  1  0  0  0  0
 13 12  2  0  0  0  0
 13 18  1  0  0  0  0
 14 13  1  0  0  0  0
 15 16  1  0  0  0  0
 15 14  2  0  0  0  0
 16 11  2  0  0  0  0
 19 15  1  0  0  0  0
 20 21  1  0  0  0  0
 20 27  2  0  0  0  0
 21 23  2  0  0  0  0
 22 21  1  0  0  0  0
 23 25  1  0  0  0  0
 23 24  1  0  0  0  0
 25 26  1  0  0  0  0
 27 25  1  0  0  0  0
M  END
>  <minimizedAffinity>
-4.71167231

$$$$

 OpenBabel03272508153D

 27 29  0  0  0  0  0  0  0  0999 V2000
   36.5060   27.9290   34.6680 Cl  0  0  0  0  0  0  0  0  0  0  0  0
   36.3100   28.8410   33.1970 C   0  0  0  0  0  0  0  0  0  0  0  0
   35.6200   30.0130   33.3590 C   0  0  0  0  0  0  0  0  0  0  0  0
   35.4060   30.8260   32.2320 C   0  0  0  0  0  0  0  0  0  0  0  0
   35.8650   30.4730   31.0030 C   0  0  0  0  0  0  0  0  0  0  0  0
   36.5570   29.2880   30.8590 C   0  0  0  0  0  0  0  0  0  0  0  0
   37.1610   28.8050   29.2980 Cl  0  0  0  0  0  0  0  0  0  0  0  0
   36.7690   28.4930   31.9510 C   0  0  0  0  0  0  0  0  0  0  0  0
   34.8730   31.7670   32.2600 H   0  0  0  0  0  0  0  0  0  0  0  0
   35.7210   31.0680   30.1130 H   0  0  0  0  0  0  0  0  0  0  0  0
   35.8470   31.4060   35.3840 C   0  0  0  0  0  0  0  0  0  0  0  0
   35.0370   30.5890   34.5800 C   0  0  0  0  0  0  0  0  0  0  0  0
   33.7140   30.3700   34.9910 C   0  0  0  0  0  0  0  0  0  0  0  0
   33.2860   30.9560   36.1380 N   0  0  0  0  0  0  0  0  0  0  0  0
   34.0970   31.7380   36.8890 C   0  0  0  0  0  0  0  0  0  0  0  0
   35.3790   31.9590   36.5060 N   0  0  0  0  0  0  0  0  0  0  0  0
   36.8650   31.5640   35.0530 H   0  0  0  0  0  0  0  0  0  0  0  0
   33.1380   29.7440   34.3480 H   0  0  0  0  0  0  0  0  0  0  0  0
   33.6660   32.1620   37.7900 H   0  0  0  0  0  0  0  0  0  0  0  0
   37.4950   27.2300   31.8660 C   0  0  0  0  0  0  0  0  0  0  0  0
   38.8560   27.2330   32.0700 C   0  0  0  0  0  0  0  0  0  0  0  0
   39.5430   28.0570   32.2980 H   0  0  0  0  0  0  0  0  0  0  0  0
   39.2980   25.9270   31.9350 C   0  0  0  0  0  0  0  0  0  0  0  0
   40.3230   25.5950   32.0370 H   0  0  0  0  0  0  0  0  0  0  0  0
   38.2090   25.1720   31.6570 N   0  0  0  0  0  0  0  0  0  0  0  0
   38.1820   24.1400   31.4950 H   0  0  0  0  0  0  0  0  0  0  0  0
   37.1180   25.9520   31.6130 N   0  0  0  0  0  0  0  0  0  0  0  0
  2  3  1  0  0  0  0
  2  1  1  0  0  0  0
  3 12  1  0  0  0  0
  4  9  1  0  0  0  0
  4  3  2  0  0  0  0
  5  4  1  0  0  0  0
  6  5  2  0  0  0  0
  6  8  1  0  0  0  0
  7  6  1  0  0  0  0
  8  2  2  0  0  0  0
 10  5  1  0  0  0  0
 11 16  1  0  0  0  0
 12 13  1  0  0  0  0
 12 11  2  0  0  0  0
 13 14  2  0  0  0  0
 14 15  1  0  0  0  0
 15 19  1  0  0  0  0
 16 15  2  0  0  0  0
 17 11  1  0  0  0  0
 18 13  1  0  0  0  0
 20  8  1  0  0  0  0
 20 21  1  0  0  0  0
 21 22  1  0  0  0  0
 23 24  1  0  0  0  0
 23 21  2  0  0  0  0
 25 23  1  0  0  0  0
 26 25  1  0  0  0  0
 27 25  1  0  0  0  0
 27 20  2  0  0  0  0
M  END
>  <minimizedAffinity>
-4.71114635

$$$$

 OpenBabel03272508153D

 27 29  0  0  0  0  0  0  0  0999 V2000
   38.9300   26.4910   34.8260 Cl  0  0  0  0  0  0  0  0  0  0  0  0
   38.1130   25.2880   33.8680 C   0  0  0  0  0  0  0  0  0  0  0  0
   38.3980   23.9990   34.2330 C   0  0  0  0  0  0  0  0  0  0  0  0
   37.7890   22.9490   33.5230 C   0  0  0  0  0  0  0  0  0  0  0  0
   36.9350   23.1890   32.4950 C   0  0  0  0  0  0  0  0  0  0  0  0
   36.6600   24.4940   32.1390 C   0  0  0  0  0  0  0  0  0  0  0  0
   35.5680   24.8370   30.8250 Cl  0  0  0  0  0  0  0  0  0  0  0  0
   37.2480   25.5190   32.8260 C   0  0  0  0  0  0  0  0  0  0  0  0
   37.9530   21.9020   33.7380 H   0  0  0  0  0  0  0  0  0  0  0  0
   36.4480   22.4120   31.9240 H   0  0  0  0  0  0  0  0  0  0  0  0
   38.7370   23.3130   36.5810 C   0  0  0  0  0  0  0  0  0  0  0  0
   39.2820   23.5090   35.3020 C   0  0  0  0  0  0  0  0  0  0  0  0
   40.6430   23.2250   35.1190 C   0  0  0  0  0  0  0  0  0  0  0  0
   41.3600   22.7770   36.1810 N   0  0  0  0  0  0  0  0  0  0  0  0
   40.8000   22.6000   37.4010 C   0  0  0  0  0  0  0  0  0  0  0  0
   39.4860   22.8710   37.5940 N   0  0  0  0  0  0  0  0  0  0  0  0
   37.6860   23.5380   36.7050 H   0  0  0  0  0  0  0  0  0  0  0  0
   41.0110   23.3880   34.1310 H   0  0  0  0  0  0  0  0  0  0  0  0
   41.4540   22.2390   38.1880 H   0  0  0  0  0  0  0  0  0  0  0  0
   36.9980   26.9190   32.5010 C   0  0  0  0  0  0  0  0  0  0  0  0
   37.6970   27.4930   31.4640 C   0  0  0  0  0  0  0  0  0  0  0  0
   38.4550   27.0720   30.7930 H   0  0  0  0  0  0  0  0  0  0  0  0
   37.2800   28.8110   31.3620 C   0  0  0  0  0  0  0  0  0  0  0  0
   37.6420   29.5320   30.6410 H   0  0  0  0  0  0  0  0  0  0  0  0
   36.3500   29.0020   32.3270 N   0  0  0  0  0  0  0  0  0  0  0  0
   35.8270   29.8830   32.5330 H   0  0  0  0  0  0  0  0  0  0  0  0
   36.1750   27.8650   33.0180 N   0  0  0  0  0  0  0  0  0  0  0  0
  2  3  1  0  0  0  0
  2  1  1  0  0  0  0
  3 12  1  0  0  0  0
  4  9  1  0  0  0  0
  4  3  2  0  0  0  0
  5  4  1  0  0  0  0
  6  5  2  0  0  0  0
  6  8  1  0  0  0  0
  7  6  1  0  0  0  0
  8  2  2  0  0  0  0
 10  5  1  0  0  0  0
 11 17  1  0  0  0  0
 11 16  1  0  0  0  0
 12 11  2  0  0  0  0
 13 12  1  0  0  0  0
 13 14  2  0  0  0  0
 14 15  1  0  0  0  0
 15 16  2  0  0  0  0
 15 19  1  0  0  0  0
 18 13  1  0  0  0  0
 20  8  1  0  0  0  0
 20 27  2  0  0  0  0
 21 20  1  0  0  0  0
 22 21  1  0  0  0  0
 23 21  2  0  0  0  0
 23 25  1  0  0  0  0
 24 23  1  0  0  0  0
 25 26  1  0  0  0  0
 25 27  1  0  0  0  0
M  END
>  <minimizedAffinity>
-4.56169939

$$$$

 OpenBabel03272508153D

 27 29  0  0  0  0  0  0  0  0999 V2000
   35.8080   30.5900   31.7750 Cl  0  0  0  0  0  0  0  0  0  0  0  0
   36.4350   29.1730   32.5680 C   0  0  0  0  0  0  0  0  0  0  0  0
   36.1020   29.0850   33.8940 C   0  0  0  0  0  0  0  0  0  0  0  0
   36.5580   27.9770   34.6290 C   0  0  0  0  0  0  0  0  0  0  0  0
   37.3140   27.0060   34.0540 C   0  0  0  0  0  0  0  0  0  0  0  0
   37.6420   27.1110   32.7170 C   0  0  0  0  0  0  0  0  0  0  0  0
   38.6090   25.8830   31.9480 Cl  0  0  0  0  0  0  0  0  0  0  0  0
   37.2000   28.1860   31.9970 C   0  0  0  0  0  0  0  0  0  0  0  0
   36.3470   27.8210   35.6780 H   0  0  0  0  0  0  0  0  0  0  0  0
   37.6850   26.1390   34.5830 H   0  0  0  0  0  0  0  0  0  0  0  0
   35.9780   30.9260   35.5350 C   0  0  0  0  0  0  0  0  0  0  0  0
   35.3030   30.0070   34.7150 C   0  0  0  0  0  0  0  0  0  0  0  0
   33.9000   30.0240   34.7290 C   0  0  0  0  0  0  0  0  0  0  0  0
   33.2710   30.9210   35.5290 N   0  0  0  0  0  0  0  0  0  0  0  0
   33.9560   31.7930   36.3060 C   0  0  0  0  0  0  0  0  0  0  0  0
   35.3120   31.7890   36.3040 N   0  0  0  0  0  0  0  0  0  0  0  0
   37.0590   30.8990   35.5120 H   0  0  0  0  0  0  0  0  0  0  0  0
   33.4330   29.3090   34.0900 H   0  0  0  0  0  0  0  0  0  0  0  0
   33.3650   32.4720   36.9120 H   0  0  0  0  0  0  0  0  0  0  0  0
   37.5100   28.3550   30.5820 C   0  0  0  0  0  0  0  0  0  0  0  0
   38.7300   28.8850   30.2300 C   0  0  0  0  0  0  0  0  0  0  0  0
   39.5670   29.2270   30.8500 H   0  0  0  0  0  0  0  0  0  0  0  0
   38.7750   28.9400   28.8460 C   0  0  0  0  0  0  0  0  0  0  0  0
   39.6040   29.3090   28.2560 H   0  0  0  0  0  0  0  0  0  0  0  0
   37.5960   28.4480   28.3970 N   0  0  0  0  0  0  0  0  0  0  0  0
   37.2950   28.3440   27.4020 H   0  0  0  0  0  0  0  0  0  0  0  0
   36.8280   28.0930   29.4390 N   0  0  0  0  0  0  0  0  0  0  0  0
  1  2  1  0  0  0  0
  2  3  1  0  0  0  0
  3  4  2  0  0  0  0
  3 12  1  0  0  0  0
  4  9  1  0  0  0  0
  5 10  1  0  0  0  0
  5  4  1  0  0  0  0
  6  5  2  0  0  0  0
  7  6  1  0  0  0  0
  8  2  2  0  0  0  0
  8  6  1  0  0  0  0
 11 16  1  0  0  0  0
 12 13  1  0  0  0  0
 12 11  2  0  0  0  0
 13 14  2  0  0  0  0
 14 15  1  0  0  0  0
 15 19  1  0  0  0  0
 16 15  2  0  0  0  0
 17 11  1  0  0  0  0
 18 13  1  0  0  0  0
 20  8  1  0  0  0  0
 21 20  1  0  0  0  0
 21 22  1  0  0  0  0
 23 21  2  0  0  0  0
 24 23  1  0  0  0  0
 25 23  1  0  0  0  0
 25 27  1  0  0  0  0
 26 25  1  0  0  0  0
 27 20  2  0  0  0  0
M  END
>  <minimizedAffinity>
-4.53558826

$$$$

 OpenBabel03272508153D

 27 29  0  0  0  0  0  0  0  0999 V2000
   35.0350   24.8590   30.7760 Cl  0  0  0  0  0  0  0  0  0  0  0  0
   36.3900   24.7470   31.8640 C   0  0  0  0  0  0  0  0  0  0  0  0
   36.9610   25.9550   32.1650 C   0  0  0  0  0  0  0  0  0  0  0  0
   38.0640   25.9780   33.0360 C   0  0  0  0  0  0  0  0  0  0  0  0
   38.5670   24.8370   33.5760 C   0  0  0  0  0  0  0  0  0  0  0  0
   37.9810   23.6290   33.2600 C   0  0  0  0  0  0  0  0  0  0  0  0
   38.5990   22.1460   33.9340 Cl  0  0  0  0  0  0  0  0  0  0  0  0
   36.9070   23.6000   32.4140 C   0  0  0  0  0  0  0  0  0  0  0  0
   38.5800   26.8810   33.3320 H   0  0  0  0  0  0  0  0  0  0  0  0
   39.4120   24.8110   34.2480 H   0  0  0  0  0  0  0  0  0  0  0  0
   37.1210   27.7620   30.4900 C   0  0  0  0  0  0  0  0  0  0  0  0
   36.5880   27.3020   31.7040 C   0  0  0  0  0  0  0  0  0  0  0  0
   35.7270   28.1560   32.4080 C   0  0  0  0  0  0  0  0  0  0  0  0
   35.4550   29.3780   31.8840 N   0  0  0  0  0  0  0  0  0  0  0  0
   35.9890   29.7890   30.7090 C   0  0  0  0  0  0  0  0  0  0  0  0
   36.8230   28.9740   30.0160 N   0  0  0  0  0  0  0  0  0  0  0  0
   37.7840   27.0900   29.9600 H   0  0  0  0  0  0  0  0  0  0  0  0
   35.3470   27.7630   33.3230 H   0  0  0  0  0  0  0  0  0  0  0  0
   35.7130   30.7820   30.3700 H   0  0  0  0  0  0  0  0  0  0  0  0
   36.2410   22.3560   32.0420 C   0  0  0  0  0  0  0  0  0  0  0  0
   36.7700   21.6030   31.0180 C   0  0  0  0  0  0  0  0  0  0  0  0
   37.6520   21.7710   30.3890 H   0  0  0  0  0  0  0  0  0  0  0  0
   35.9630   20.4870   30.8640 C   0  0  0  0  0  0  0  0  0  0  0  0
   36.1100   19.6970   30.1400 H   0  0  0  0  0  0  0  0  0  0  0  0
   34.9770   20.5890   31.7870 N   0  0  0  0  0  0  0  0  0  0  0  0
   34.1940   19.9160   31.9490 H   0  0  0  0  0  0  0  0  0  0  0  0
   35.1390   21.7140   32.5000 N   0  0  0  0  0  0  0  0  0  0  0  0
  1  2  1  0  0  0  0
  2  3  2  0  0  0  0
  2  8  1  0  0  0  0
  3  4  1  0  0  0  0
  4  9  1  0  0  0  0
  4  5  2  0  0  0  0
  5 10  1  0  0  0  0
  6  5  1  0  0  0  0
  6  7  1  0  0  0  0
  8  6  2  0  0  0  0
 11 12  1  0  0  0  0
 12  3  1  0  0  0  0
 12 13  2  0  0  0  0
 13 18  1  0  0  0  0
 14 13  1  0  0  0  0
 15 14  2  0  0  0  0
 16 11  2  0  0  0  0
 16 15  1  0  0  0  0
 17 11  1  0  0  0  0
 19 15  1  0  0  0  0
 20  8  1  0  0  0  0
 20 27  2  0  0  0  0
 21 20  1  0  0  0  0
 22 21  1  0  0  0  0
 23 21  2  0  0  0  0
 23 25  1  0  0  0  0
 24 23  1  0  0  0  0
 25 26  1  0  0  0  0
 25 27  1  0  0  0  0
M  END
>  <minimizedAffinity>
-4.53186274

$$$$

 OpenBabel03272508153D

 27 29  0  0  0  0  0  0  0  0999 V2000
   38.9440   25.5330   34.3550 Cl  0  0  0  0  0  0  0  0  0  0  0  0
   38.2120   24.0270   33.8790 C   0  0  0  0  0  0  0  0  0  0  0  0
   38.0600   23.1340   34.9070 C   0  0  0  0  0  0  0  0  0  0  0  0
   37.4780   21.8850   34.6310 C   0  0  0  0  0  0  0  0  0  0  0  0
   37.0690   21.5530   33.3790 C   0  0  0  0  0  0  0  0  0  0  0  0
   37.2290   22.4640   32.3550 C   0  0  0  0  0  0  0  0  0  0  0  0
   36.7150   22.0720   30.7370 Cl  0  0  0  0  0  0  0  0  0  0  0  0
   37.7950   23.6810   32.6180 C   0  0  0  0  0  0  0  0  0  0  0  0
   37.3180   21.1160   35.3750 H   0  0  0  0  0  0  0  0  0  0  0  0
   36.6180   20.6050   33.1240 H   0  0  0  0  0  0  0  0  0  0  0  0
   37.5560   23.9810   37.1710 C   0  0  0  0  0  0  0  0  0  0  0  0
   38.4260   23.2760   36.3250 C   0  0  0  0  0  0  0  0  0  0  0  0
   39.5990   22.7470   36.8840 C   0  0  0  0  0  0  0  0  0  0  0  0
   39.8310   22.9420   38.2070 N   0  0  0  0  0  0  0  0  0  0  0  0
   38.9680   23.6290   38.9930 C   0  0  0  0  0  0  0  0  0  0  0  0
   37.8300   24.1460   38.4670 N   0  0  0  0  0  0  0  0  0  0  0  0
   36.6570   24.3830   36.7230 H   0  0  0  0  0  0  0  0  0  0  0  0
   40.2270   22.2200   36.2030 H   0  0  0  0  0  0  0  0  0  0  0  0
   39.2390   23.7330   40.0380 H   0  0  0  0  0  0  0  0  0  0  0  0
   37.9920   24.6880   31.5800 C   0  0  0  0  0  0  0  0  0  0  0  0
   39.1840   24.7080   30.8940 C   0  0  0  0  0  0  0  0  0  0  0  0
   40.0720   24.0700   30.9840 H   0  0  0  0  0  0  0  0  0  0  0  0
   39.1180   25.7440   29.9770 C   0  0  0  0  0  0  0  0  0  0  0  0
   39.9000   26.0230   29.2830 H   0  0  0  0  0  0  0  0  0  0  0  0
   37.9020   26.3220   30.1270 N   0  0  0  0  0  0  0  0  0  0  0  0
   37.5200   27.1340   29.5920 H   0  0  0  0  0  0  0  0  0  0  0  0
   37.2180   25.6890   31.0920 N   0  0  0  0  0  0  0  0  0  0  0  0
  2  1  1  0  0  0  0
  2  3  1  0  0  0  0
  3 12  1  0  0  0  0
  4  3  2  0  0  0  0
  4  9  1  0  0  0  0
  5  4  1  0  0  0  0
  6  8  1  0  0  0  0
  6  5  2  0  0  0  0
  7  6  1  0  0  0  0
  8  2  2  0  0  0  0
 10  5  1  0  0  0  0
 11 16  1  0  0  0  0
 12 13  1  0  0  0  0
 12 11  2  0  0  0  0
 13 14  2  0  0  0  0
 14 15  1  0  0  0  0
 15 19  1  0  0  0  0
 16 15  2  0  0  0  0
 17 11  1  0  0  0  0
 18 13  1  0  0  0  0
 20  8  1  0  0  0  0
 21 22  1  0  0  0  0
 21 20  1  0  0  0  0
 23 25  1  0  0  0  0
 23 21  2  0  0  0  0
 24 23  1  0  0  0  0
 25 27  1  0  0  0  0
 26 25  1  0  0  0  0
 27 20  2  0  0  0  0
M  END
>  <minimizedAffinity>
-4.5317955

$$$$
