
 OpenBabel03272502203D

 27 29  0  0  0  0  0  0  0  0999 V2000
   39.2110   23.9160   35.2480 C   0  0  0  0  0  0  0  0  0  0  0  0
   40.5310   23.8890   34.7520 C   0  0  0  0  0  0  0  0  0  0  0  0
   40.6950   24.1520   33.3930 C   0  0  0  0  0  0  0  0  0  0  0  0
   39.5970   24.4190   32.6150 N   0  0  0  0  0  0  0  0  0  0  0  0
   38.3520   24.4330   33.1360 C   0  0  0  0  0  0  0  0  0  0  0  0
   38.1610   24.1800   34.4600 N   0  0  0  0  0  0  0  0  0  0  0  0
   41.3850   23.6790   35.3690 H   0  0  0  0  0  0  0  0  0  0  0  0
   41.6650   24.1530   32.9250 H   0  0  0  0  0  0  0  0  0  0  0  0
   37.7660   27.4940   32.7700 Br  0  0  0  0  0  0  0  0  0  0  0  0
   36.7790   26.0190   32.0840 C   0  0  0  0  0  0  0  0  0  0  0  0
   37.1720   24.7120   32.3370 C   0  0  0  0  0  0  0  0  0  0  0  0
   36.4010   23.6870   31.8040 C   0  0  0  0  0  0  0  0  0  0  0  0
   35.2710   23.9260   31.0390 C   0  0  0  0  0  0  0  0  0  0  0  0
   34.9110   25.2330   30.8080 C   0  0  0  0  0  0  0  0  0  0  0  0
   35.6720   26.2740   31.3350 C   0  0  0  0  0  0  0  0  0  0  0  0
   36.7260   22.6810   32.0140 H   0  0  0  0  0  0  0  0  0  0  0  0
   34.6800   23.1200   30.6290 H   0  0  0  0  0  0  0  0  0  0  0  0
   34.0390   25.5130   30.2180 H   0  0  0  0  0  0  0  0  0  0  0  0
   35.3740   27.2820   31.1430 H   0  0  0  0  0  0  0  0  0  0  0  0
   38.9900   23.6450   36.6730 C   0  0  0  0  0  0  0  0  0  0  0  0
   37.9850   24.1810   37.4580 C   0  0  0  0  0  0  0  0  0  0  0  0
   37.2070   24.8730   37.1720 H   0  0  0  0  0  0  0  0  0  0  0  0
   38.2050   23.6230   38.7050 C   0  0  0  0  0  0  0  0  0  0  0  0
   37.6180   23.8000   39.5980 H   0  0  0  0  0  0  0  0  0  0  0  0
   39.2650   22.8080   38.6850 N   0  0  0  0  0  0  0  0  0  0  0  0
   39.7390   22.2180   39.3990 H   0  0  0  0  0  0  0  0  0  0  0  0
   39.7250   22.8330   37.4560 N   0  0  0  0  0  0  0  0  0  0  0  0
  1 20  1  0  0  0  0
  2  1  1  0  0  0  0
  2  7  1  0  0  0  0
  3  2  2  0  0  0  0
  4  5  2  0  0  0  0
  4  3  1  0  0  0  0
  5  6  1  0  0  0  0
  6  1  2  0  0  0  0
  8  3  1  0  0  0  0
 10 11  1  0  0  0  0
 10  9  1  0  0  0  0
 11  5  1  0  0  0  0
 12 16  1  0  0  0  0
 12 11  2  0  0  0  0
 13 12  1  0  0  0  0
 14 13  2  0  0  0  0
 14 15  1  0  0  0  0
 15 10  2  0  0  0  0
 17 13  1  0  0  0  0
 18 14  1  0  0  0  0
 19 15  1  0  0  0  0
 20 27  2  0  0  0  0
 20 21  1  0  0  0  0
 21 23  2  0  0  0  0
 22 21  1  0  0  0  0
 23 24  1  0  0  0  0
 25 23  1  0  0  0  0
 25 26  1  0  0  0  0
 27 25  1  0  0  0  0
M  END
>  <minimizedAffinity>
-5.44153738

$$$$

 OpenBabel03272502203D

 27 29  0  0  0  0  0  0  0  0999 V2000
   38.1350   23.0410   35.0940 C   0  0  0  0  0  0  0  0  0  0  0  0
   38.1790   24.2390   34.3520 C   0  0  0  0  0  0  0  0  0  0  0  0
   37.7470   24.1720   33.0280 C   0  0  0  0  0  0  0  0  0  0  0  0
   37.3090   22.9770   32.5160 N   0  0  0  0  0  0  0  0  0  0  0  0
   37.2860   21.8560   33.2670 C   0  0  0  0  0  0  0  0  0  0  0  0
   37.7020   21.8900   34.5620 N   0  0  0  0  0  0  0  0  0  0  0  0
   38.5230   25.1700   34.7610 H   0  0  0  0  0  0  0  0  0  0  0  0
   37.7440   25.0360   32.3850 H   0  0  0  0  0  0  0  0  0  0  0  0
   39.4900   20.2510   31.7140 Br  0  0  0  0  0  0  0  0  0  0  0  0
   37.6840   19.7490   32.0410 C   0  0  0  0  0  0  0  0  0  0  0  0
   36.8270   20.5780   32.7520 C   0  0  0  0  0  0  0  0  0  0  0  0
   35.5230   20.1440   32.9510 C   0  0  0  0  0  0  0  0  0  0  0  0
   35.0600   18.9300   32.4710 C   0  0  0  0  0  0  0  0  0  0  0  0
   35.9370   18.1350   31.7710 C   0  0  0  0  0  0  0  0  0  0  0  0
   37.2480   18.5530   31.5610 C   0  0  0  0  0  0  0  0  0  0  0  0
   34.8750   20.8040   33.5050 H   0  0  0  0  0  0  0  0  0  0  0  0
   34.0420   18.6040   32.6320 H   0  0  0  0  0  0  0  0  0  0  0  0
   35.6590   17.1660   31.3570 H   0  0  0  0  0  0  0  0  0  0  0  0
   37.9130   17.9190   31.0150 H   0  0  0  0  0  0  0  0  0  0  0  0
   38.5810   23.0630   36.4920 C   0  0  0  0  0  0  0  0  0  0  0  0
   37.9510   23.7130   37.5380 C   0  0  0  0  0  0  0  0  0  0  0  0
   37.0460   24.3020   37.5140 H   0  0  0  0  0  0  0  0  0  0  0  0
   38.7510   23.4340   38.6320 C   0  0  0  0  0  0  0  0  0  0  0  0
   38.5860   23.7710   39.6480 H   0  0  0  0  0  0  0  0  0  0  0  0
   39.7930   22.6720   38.2820 N   0  0  0  0  0  0  0  0  0  0  0  0
   40.5960   22.2610   38.7990 H   0  0  0  0  0  0  0  0  0  0  0  0
   39.6750   22.4580   36.9930 N   0  0  0  0  0  0  0  0  0  0  0  0
  1 20  1  0  0  0  0
  2  7  1  0  0  0  0
  2  1  2  0  0  0  0
  3  2  1  0  0  0  0
  4  3  2  0  0  0  0
  4  5  1  0  0  0  0
  5  6  2  0  0  0  0
  6  1  1  0  0  0  0
  8  3  1  0  0  0  0
  9 10  1  0  0  0  0
 10 11  1  0  0  0  0
 11 12  2  0  0  0  0
 11  5  1  0  0  0  0
 12 16  1  0  0  0  0
 13 17  1  0  0  0  0
 13 12  1  0  0  0  0
 14 13  2  0  0  0  0
 15 14  1  0  0  0  0
 15 10  2  0  0  0  0
 18 14  1  0  0  0  0
 19 15  1  0  0  0  0
 20 27  2  0  0  0  0
 20 21  1  0  0  0  0
 21 23  2  0  0  0  0
 22 21  1  0  0  0  0
 23 24  1  0  0  0  0
 25 23  1  0  0  0  0
 25 26  1  0  0  0  0
 27 25  1  0  0  0  0
M  END
>  <minimizedAffinity>
-5.30744839

$$$$

 OpenBabel03272502203D

 27 29  0  0  0  0  0  0  0  0999 V2000
   37.0250   21.7920   32.9100 C   0  0  0  0  0  0  0  0  0  0  0  0
   37.2710   22.8070   31.9610 C   0  0  0  0  0  0  0  0  0  0  0  0
   37.9270   23.9470   32.4210 C   0  0  0  0  0  0  0  0  0  0  0  0
   38.2970   24.0340   33.7380 N   0  0  0  0  0  0  0  0  0  0  0  0
   38.0400   23.0350   34.6090 C   0  0  0  0  0  0  0  0  0  0  0  0
   37.4000   21.9090   34.1900 N   0  0  0  0  0  0  0  0  0  0  0  0
   36.9770   22.7300   30.9310 H   0  0  0  0  0  0  0  0  0  0  0  0
   38.1580   24.7740   31.7700 H   0  0  0  0  0  0  0  0  0  0  0  0
   40.9960   22.1400   35.1610 Br  0  0  0  0  0  0  0  0  0  0  0  0
   39.6960   22.7350   36.4160 C   0  0  0  0  0  0  0  0  0  0  0  0
   38.4200   23.0990   36.0090 C   0  0  0  0  0  0  0  0  0  0  0  0
   37.5240   23.5230   36.9830 C   0  0  0  0  0  0  0  0  0  0  0  0
   37.8610   23.5930   38.3250 C   0  0  0  0  0  0  0  0  0  0  0  0
   39.1340   23.2250   38.6920 C   0  0  0  0  0  0  0  0  0  0  0  0
   40.0460   22.7970   37.7300 C   0  0  0  0  0  0  0  0  0  0  0  0
   36.5400   23.8000   36.6440 H   0  0  0  0  0  0  0  0  0  0  0  0
   37.1560   23.9250   39.0730 H   0  0  0  0  0  0  0  0  0  0  0  0
   39.4860   23.2490   39.7230 H   0  0  0  0  0  0  0  0  0  0  0  0
   41.0300   22.5160   38.0370 H   0  0  0  0  0  0  0  0  0  0  0  0
   36.3360   20.5730   32.4720 C   0  0  0  0  0  0  0  0  0  0  0  0
   35.5070   19.7820   33.2470 C   0  0  0  0  0  0  0  0  0  0  0  0
   35.2270   19.9160   34.2810 H   0  0  0  0  0  0  0  0  0  0  0  0
   35.1150   18.7710   32.3880 C   0  0  0  0  0  0  0  0  0  0  0  0
   34.4540   17.9460   32.6290 H   0  0  0  0  0  0  0  0  0  0  0  0
   35.6620   18.9300   31.1780 N   0  0  0  0  0  0  0  0  0  0  0  0
   35.6150   18.3980   30.2860 H   0  0  0  0  0  0  0  0  0  0  0  0
   36.3930   20.0180   31.2460 N   0  0  0  0  0  0  0  0  0  0  0  0
  1  6  1  0  0  0  0
  2  3  1  0  0  0  0
  2  1  2  0  0  0  0
  3  4  2  0  0  0  0
  4  5  1  0  0  0  0
  5 11  1  0  0  0  0
  6  5  2  0  0  0  0
  7  2  1  0  0  0  0
  8  3  1  0  0  0  0
  9 10  1  0  0  0  0
 10 15  1  0  0  0  0
 11 10  2  0  0  0  0
 11 12  1  0  0  0  0
 12 13  2  0  0  0  0
 13 14  1  0  0  0  0
 13 17  1  0  0  0  0
 14 18  1  0  0  0  0
 15 19  1  0  0  0  0
 15 14  2  0  0  0  0
 16 12  1  0  0  0  0
 20  1  1  0  0  0  0
 20 21  1  0  0  0  0
 21 22  1  0  0  0  0
 23 24  1  0  0  0  0
 23 21  2  0  0  0  0
 25 27  1  0  0  0  0
 25 23  1  0  0  0  0
 26 25  1  0  0  0  0
 27 20  2  0  0  0  0
M  END
>  <minimizedAffinity>
-5.26516438

$$$$

 OpenBabel03272502203D

 27 29  0  0  0  0  0  0  0  0999 V2000
   37.4080   25.9270   33.6030 C   0  0  0  0  0  0  0  0  0  0  0  0
   37.2420   27.2080   34.1690 C   0  0  0  0  0  0  0  0  0  0  0  0
   37.9870   27.4890   35.3130 C   0  0  0  0  0  0  0  0  0  0  0  0
   38.8280   26.5350   35.8270 N   0  0  0  0  0  0  0  0  0  0  0  0
   38.9530   25.3210   35.2490 C   0  0  0  0  0  0  0  0  0  0  0  0
   38.2380   25.0180   34.1310 N   0  0  0  0  0  0  0  0  0  0  0  0
   36.5810   27.9490   33.7590 H   0  0  0  0  0  0  0  0  0  0  0  0
   37.9270   28.4400   35.8140 H   0  0  0  0  0  0  0  0  0  0  0  0
   37.6800   23.6080   37.5490 Br  0  0  0  0  0  0  0  0  0  0  0  0
   39.4200   23.4510   36.7920 C   0  0  0  0  0  0  0  0  0  0  0  0
   39.8360   24.2930   35.7710 C   0  0  0  0  0  0  0  0  0  0  0  0
   41.1190   24.1190   35.2680 C   0  0  0  0  0  0  0  0  0  0  0  0
   41.9810   23.1460   35.7480 C   0  0  0  0  0  0  0  0  0  0  0  0
   41.5350   22.3300   36.7610 C   0  0  0  0  0  0  0  0  0  0  0  0
   40.2510   22.4890   37.2770 C   0  0  0  0  0  0  0  0  0  0  0  0
   41.4210   24.7840   34.4760 H   0  0  0  0  0  0  0  0  0  0  0  0
   42.9770   23.0200   35.3490 H   0  0  0  0  0  0  0  0  0  0  0  0
   42.1430   21.5390   37.1980 H   0  0  0  0  0  0  0  0  0  0  0  0
   39.9250   21.8430   38.0630 H   0  0  0  0  0  0  0  0  0  0  0  0
   36.6430   25.5860   32.3990 C   0  0  0  0  0  0  0  0  0  0  0  0
   36.3140   24.3110   31.9750 C   0  0  0  0  0  0  0  0  0  0  0  0
   36.5540   23.3660   32.4410 H   0  0  0  0  0  0  0  0  0  0  0  0
   35.6020   24.5210   30.8080 C   0  0  0  0  0  0  0  0  0  0  0  0
   35.1690   23.7560   30.1750 H   0  0  0  0  0  0  0  0  0  0  0  0
   35.5020   25.8270   30.5360 N   0  0  0  0  0  0  0  0  0  0  0  0
   35.0580   26.3770   29.7730 H   0  0  0  0  0  0  0  0  0  0  0  0
   36.1330   26.4520   31.5020 N   0  0  0  0  0  0  0  0  0  0  0  0
  1  6  2  0  0  0  0
  1  2  1  0  0  0  0
  2  3  2  0  0  0  0
  3  8  1  0  0  0  0
  3  4  1  0  0  0  0
  5 11  1  0  0  0  0
  5  4  2  0  0  0  0
  6  5  1  0  0  0  0
  7  2  1  0  0  0  0
 10 15  1  0  0  0  0
 10  9  1  0  0  0  0
 11 10  2  0  0  0  0
 12 13  2  0  0  0  0
 12 11  1  0  0  0  0
 13 14  1  0  0  0  0
 14 18  1  0  0  0  0
 14 15  2  0  0  0  0
 15 19  1  0  0  0  0
 16 12  1  0  0  0  0
 17 13  1  0  0  0  0
 20  1  1  0  0  0  0
 21 20  1  0  0  0  0
 21 22  1  0  0  0  0
 23 21  2  0  0  0  0
 24 23  1  0  0  0  0
 25 23  1  0  0  0  0
 25 27  1  0  0  0  0
 26 25  1  0  0  0  0
 27 20  2  0  0  0  0
M  END
>  <minimizedAffinity>
-5.17675257

$$$$

 OpenBabel03272502203D

 27 29  0  0  0  0  0  0  0  0999 V2000
   37.0090   25.9860   32.9410 C   0  0  0  0  0  0  0  0  0  0  0  0
   36.3430   26.8790   32.0750 C   0  0  0  0  0  0  0  0  0  0  0  0
   35.6370   26.3130   31.0150 C   0  0  0  0  0  0  0  0  0  0  0  0
   35.6170   24.9510   30.8630 N   0  0  0  0  0  0  0  0  0  0  0  0
   36.2700   24.1360   31.7180 C   0  0  0  0  0  0  0  0  0  0  0  0
   36.9690   24.6600   32.7620 N   0  0  0  0  0  0  0  0  0  0  0  0
   36.3650   27.9450   32.2020 H   0  0  0  0  0  0  0  0  0  0  0  0
   35.0970   26.9150   30.3030 H   0  0  0  0  0  0  0  0  0  0  0  0
   38.7720   23.0010   30.2040 Br  0  0  0  0  0  0  0  0  0  0  0  0
   37.3040   22.0350   30.9350 C   0  0  0  0  0  0  0  0  0  0  0  0
   36.2660   22.6910   31.5810 C   0  0  0  0  0  0  0  0  0  0  0  0
   35.2280   21.9190   32.0900 C   0  0  0  0  0  0  0  0  0  0  0  0
   35.2000   20.5390   31.9730 C   0  0  0  0  0  0  0  0  0  0  0  0
   36.2450   19.9240   31.3260 C   0  0  0  0  0  0  0  0  0  0  0  0
   37.2950   20.6800   30.8100 C   0  0  0  0  0  0  0  0  0  0  0  0
   34.4330   22.4500   32.5870 H   0  0  0  0  0  0  0  0  0  0  0  0
   34.3870   19.9500   32.3720 H   0  0  0  0  0  0  0  0  0  0  0  0
   36.3060   18.8450   31.1880 H   0  0  0  0  0  0  0  0  0  0  0  0
   38.0970   20.1810   30.3110 H   0  0  0  0  0  0  0  0  0  0  0  0
   37.7670   26.5370   34.0700 C   0  0  0  0  0  0  0  0  0  0  0  0
   39.1180   26.3610   34.3080 C   0  0  0  0  0  0  0  0  0  0  0  0
   39.8360   25.8040   33.7230 H   0  0  0  0  0  0  0  0  0  0  0  0
   39.3440   27.0660   35.4770 C   0  0  0  0  0  0  0  0  0  0  0  0
   40.2930   27.1690   35.9900 H   0  0  0  0  0  0  0  0  0  0  0  0
   38.2170   27.6310   35.9220 N   0  0  0  0  0  0  0  0  0  0  0  0
   37.9780   28.2240   36.7420 H   0  0  0  0  0  0  0  0  0  0  0  0
   37.2790   27.3030   35.0640 N   0  0  0  0  0  0  0  0  0  0  0  0
  1 20  1  0  0  0  0
  2  7  1  0  0  0  0
  2  1  2  0  0  0  0
  3  2  1  0  0  0  0
  4  3  2  0  0  0  0
  4  5  1  0  0  0  0
  5  6  2  0  0  0  0
  6  1  1  0  0  0  0
  8  3  1  0  0  0  0
  9 10  1  0  0  0  0
 10 11  1  0  0  0  0
 11  5  1  0  0  0  0
 11 12  2  0  0  0  0
 12 16  1  0  0  0  0
 13 12  1  0  0  0  0
 13 17  1  0  0  0  0
 14 13  2  0  0  0  0
 15 10  2  0  0  0  0
 15 14  1  0  0  0  0
 18 14  1  0  0  0  0
 19 15  1  0  0  0  0
 20 21  1  0  0  0  0
 20 27  2  0  0  0  0
 21 23  2  0  0  0  0
 22 21  1  0  0  0  0
 23 25  1  0  0  0  0
 23 24  1  0  0  0  0
 25 26  1  0  0  0  0
 27 25  1  0  0  0  0
M  END
>  <minimizedAffinity>
-5.12854242

$$$$

 OpenBabel03272502203D

 27 29  0  0  0  0  0  0  0  0999 V2000
   36.6460   28.0330   33.7970 C   0  0  0  0  0  0  0  0  0  0  0  0
   36.7340   28.3660   32.4300 C   0  0  0  0  0  0  0  0  0  0  0  0
   36.1300   29.5590   32.0370 C   0  0  0  0  0  0  0  0  0  0  0  0
   35.4940   30.3390   32.9690 N   0  0  0  0  0  0  0  0  0  0  0  0
   35.4370   29.9760   34.2690 C   0  0  0  0  0  0  0  0  0  0  0  0
   36.0170   28.8170   34.6820 N   0  0  0  0  0  0  0  0  0  0  0  0
   37.2340   27.7500   31.7060 H   0  0  0  0  0  0  0  0  0  0  0  0
   36.1450   29.8970   31.0140 H   0  0  0  0  0  0  0  0  0  0  0  0
   32.3530   29.4410   34.4850 Br  0  0  0  0  0  0  0  0  0  0  0  0
   33.4060   30.6610   35.4960 C   0  0  0  0  0  0  0  0  0  0  0  0
   34.7710   30.7810   35.2770 C   0  0  0  0  0  0  0  0  0  0  0  0
   35.4750   31.6940   36.0540 C   0  0  0  0  0  0  0  0  0  0  0  0
   34.8650   32.4740   37.0220 C   0  0  0  0  0  0  0  0  0  0  0  0
   33.5100   32.3290   37.2110 C   0  0  0  0  0  0  0  0  0  0  0  0
   32.7880   31.4190   36.4420 C   0  0  0  0  0  0  0  0  0  0  0  0
   36.5340   31.7700   35.8670 H   0  0  0  0  0  0  0  0  0  0  0  0
   35.4230   33.1810   37.6200 H   0  0  0  0  0  0  0  0  0  0  0  0
   32.9490   32.9000   37.9490 H   0  0  0  0  0  0  0  0  0  0  0  0
   31.7370   31.3220   36.6050 H   0  0  0  0  0  0  0  0  0  0  0  0
   37.2670   26.7850   34.2570 C   0  0  0  0  0  0  0  0  0  0  0  0
   37.8360   26.5670   35.4990 C   0  0  0  0  0  0  0  0  0  0  0  0
   37.9230   27.2550   36.3280 H   0  0  0  0  0  0  0  0  0  0  0  0
   38.2730   25.2560   35.4390 C   0  0  0  0  0  0  0  0  0  0  0  0
   38.7770   24.7120   36.2290 H   0  0  0  0  0  0  0  0  0  0  0  0
   37.9930   24.7110   34.2500 N   0  0  0  0  0  0  0  0  0  0  0  0
   38.1540   23.7760   33.8260 H   0  0  0  0  0  0  0  0  0  0  0  0
   37.3890   25.6440   33.5520 N   0  0  0  0  0  0  0  0  0  0  0  0
  1 20  1  0  0  0  0
  1  6  1  0  0  0  0
  2  1  2  0  0  0  0
  3  2  1  0  0  0  0
  3  4  2  0  0  0  0
  4  5  1  0  0  0  0
  5  6  2  0  0  0  0
  5 11  1  0  0  0  0
  7  2  1  0  0  0  0
  8  3  1  0  0  0  0
  9 10  1  0  0  0  0
 10 15  1  0  0  0  0
 11 10  2  0  0  0  0
 11 12  1  0  0  0  0
 12 13  2  0  0  0  0
 13 14  1  0  0  0  0
 13 17  1  0  0  0  0
 14 18  1  0  0  0  0
 15 19  1  0  0  0  0
 15 14  2  0  0  0  0
 16 12  1  0  0  0  0
 20 21  1  0  0  0  0
 21 22  1  0  0  0  0
 23 21  2  0  0  0  0
 23 24  1  0  0  0  0
 25 23  1  0  0  0  0
 26 25  1  0  0  0  0
 27 25  1  0  0  0  0
 27 20  2  0  0  0  0
M  END
>  <minimizedAffinity>
-5.0290246

$$$$

 OpenBabel03272502203D

 27 29  0  0  0  0  0  0  0  0999 V2000
   38.8430   23.6610   35.1150 C   0  0  0  0  0  0  0  0  0  0  0  0
   39.6160   24.6870   34.5320 C   0  0  0  0  0  0  0  0  0  0  0  0
   39.6800   24.7090   33.1400 C   0  0  0  0  0  0  0  0  0  0  0  0
   39.0070   23.7600   32.4140 N   0  0  0  0  0  0  0  0  0  0  0  0
   38.2780   22.7970   33.0180 C   0  0  0  0  0  0  0  0  0  0  0  0
   38.1980   22.7490   34.3760 N   0  0  0  0  0  0  0  0  0  0  0  0
   40.1410   25.4260   35.1090 H   0  0  0  0  0  0  0  0  0  0  0  0
   40.2460   25.4540   32.6060 H   0  0  0  0  0  0  0  0  0  0  0  0
   35.7340   23.8800   31.5360 Br  0  0  0  0  0  0  0  0  0  0  0  0
   36.4060   22.1000   31.5660 C   0  0  0  0  0  0  0  0  0  0  0  0
   37.5550   21.7800   32.2750 C   0  0  0  0  0  0  0  0  0  0  0  0
   37.9860   20.4590   32.2510 C   0  0  0  0  0  0  0  0  0  0  0  0
   37.3150   19.4700   31.5510 C   0  0  0  0  0  0  0  0  0  0  0  0
   36.1800   19.8240   30.8590 C   0  0  0  0  0  0  0  0  0  0  0  0
   35.7330   21.1430   30.8720 C   0  0  0  0  0  0  0  0  0  0  0  0
   38.8800   20.2340   32.8100 H   0  0  0  0  0  0  0  0  0  0  0  0
   37.6600   18.4460   31.5390 H   0  0  0  0  0  0  0  0  0  0  0  0
   35.5900   19.1120   30.2820 H   0  0  0  0  0  0  0  0  0  0  0  0
   34.8500   21.3960   30.3280 H   0  0  0  0  0  0  0  0  0  0  0  0
   38.7470   23.5980   36.5780 C   0  0  0  0  0  0  0  0  0  0  0  0
   37.9450   24.3920   37.3770 C   0  0  0  0  0  0  0  0  0  0  0  0
   37.2640   25.1750   37.0780 H   0  0  0  0  0  0  0  0  0  0  0  0
   38.2120   23.9490   38.6610 C   0  0  0  0  0  0  0  0  0  0  0  0
   37.7710   24.3290   39.5740 H   0  0  0  0  0  0  0  0  0  0  0  0
   39.1120   22.9590   38.6480 N   0  0  0  0  0  0  0  0  0  0  0  0
   39.5610   22.3790   39.3850 H   0  0  0  0  0  0  0  0  0  0  0  0
   39.4230   22.7610   37.3890 N   0  0  0  0  0  0  0  0  0  0  0  0
  1 20  1  0  0  0  0
  2  7  1  0  0  0  0
  2  1  1  0  0  0  0
  3  2  2  0  0  0  0
  4  5  2  0  0  0  0
  4  3  1  0  0  0  0
  5  6  1  0  0  0  0
  6  1  2  0  0  0  0
  8  3  1  0  0  0  0
  9 10  1  0  0  0  0
 10 11  1  0  0  0  0
 11  5  1  0  0  0  0
 12 11  2  0  0  0  0
 12 16  1  0  0  0  0
 13 12  1  0  0  0  0
 14 15  1  0  0  0  0
 14 13  2  0  0  0  0
 15 10  2  0  0  0  0
 17 13  1  0  0  0  0
 18 14  1  0  0  0  0
 19 15  1  0  0  0  0
 20 21  1  0  0  0  0
 20 27  2  0  0  0  0
 21 23  2  0  0  0  0
 22 21  1  0  0  0  0
 23 24  1  0  0  0  0
 25 23  1  0  0  0  0
 25 26  1  0  0  0  0
 27 25  1  0  0  0  0
M  END
>  <minimizedAffinity>
-5.02301598

$$$$

 OpenBabel03272502203D

 27 29  0  0  0  0  0  0  0  0999 V2000
   39.2700   24.2210   35.1320 C   0  0  0  0  0  0  0  0  0  0  0  0
   40.4880   23.8360   34.5350 C   0  0  0  0  0  0  0  0  0  0  0  0
   40.7280   24.3060   33.2450 C   0  0  0  0  0  0  0  0  0  0  0  0
   39.7970   25.1010   32.6270 N   0  0  0  0  0  0  0  0  0  0  0  0
   38.6450   25.4430   33.2410 C   0  0  0  0  0  0  0  0  0  0  0  0
   38.3810   24.9990   34.5000 N   0  0  0  0  0  0  0  0  0  0  0  0
   41.2110   23.2130   35.0260 H   0  0  0  0  0  0  0  0  0  0  0  0
   41.6310   24.0650   32.7090 H   0  0  0  0  0  0  0  0  0  0  0  0
   36.4720   23.8410   31.6410 Br  0  0  0  0  0  0  0  0  0  0  0  0
   36.6120   25.7250   31.8670 C   0  0  0  0  0  0  0  0  0  0  0  0
   37.6410   26.2840   32.6110 C   0  0  0  0  0  0  0  0  0  0  0  0
   37.6790   27.6670   32.7320 C   0  0  0  0  0  0  0  0  0  0  0  0
   36.7350   28.4920   32.1420 C   0  0  0  0  0  0  0  0  0  0  0  0
   35.7290   27.9040   31.4110 C   0  0  0  0  0  0  0  0  0  0  0  0
   35.6750   26.5180   31.2790 C   0  0  0  0  0  0  0  0  0  0  0  0
   38.4880   28.0780   33.3140 H   0  0  0  0  0  0  0  0  0  0  0  0
   36.7750   29.5670   32.2430 H   0  0  0  0  0  0  0  0  0  0  0  0
   34.9450   28.4740   30.9140 H   0  0  0  0  0  0  0  0  0  0  0  0
   34.8850   26.0830   30.7080 H   0  0  0  0  0  0  0  0  0  0  0  0
   38.9730   23.7490   36.4890 C   0  0  0  0  0  0  0  0  0  0  0  0
   37.8700   24.0950   37.2500 C   0  0  0  0  0  0  0  0  0  0  0  0
   37.0550   24.7530   36.9890 H   0  0  0  0  0  0  0  0  0  0  0  0
   38.0500   23.3990   38.4320 C   0  0  0  0  0  0  0  0  0  0  0  0
   37.3880   23.4100   39.2890 H   0  0  0  0  0  0  0  0  0  0  0  0
   39.1790   22.6810   38.3990 N   0  0  0  0  0  0  0  0  0  0  0  0
   39.6520   22.0440   39.0700 H   0  0  0  0  0  0  0  0  0  0  0  0
   39.7200   22.9030   37.2240 N   0  0  0  0  0  0  0  0  0  0  0  0
  1 20  1  0  0  0  0
  2  7  1  0  0  0  0
  2  1  1  0  0  0  0
  3  2  2  0  0  0  0
  4  5  2  0  0  0  0
  4  3  1  0  0  0  0
  5  6  1  0  0  0  0
  6  1  2  0  0  0  0
  8  3  1  0  0  0  0
  9 10  1  0  0  0  0
 10 11  1  0  0  0  0
 11 12  2  0  0  0  0
 11  5  1  0  0  0  0
 12 16  1  0  0  0  0
 13 17  1  0  0  0  0
 13 12  1  0  0  0  0
 14 13  2  0  0  0  0
 15 14  1  0  0  0  0
 15 10  2  0  0  0  0
 18 14  1  0  0  0  0
 19 15  1  0  0  0  0
 20 27  2  0  0  0  0
 20 21  1  0  0  0  0
 21 23  2  0  0  0  0
 22 21  1  0  0  0  0
 23 24  1  0  0  0  0
 25 23  1  0  0  0  0
 25 26  1  0  0  0  0
 27 25  1  0  0  0  0
M  END
>  <minimizedAffinity>
-5.01749372

$$$$

 OpenBabel03272502203D

 27 29  0  0  0  0  0  0  0  0999 V2000
   35.9730   23.5890   31.6500 C   0  0  0  0  0  0  0  0  0  0  0  0
   35.1530   24.3420   30.7840 C   0  0  0  0  0  0  0  0  0  0  0  0
   35.2370   25.7290   30.8930 C   0  0  0  0  0  0  0  0  0  0  0  0
   36.0900   26.2890   31.8100 N   0  0  0  0  0  0  0  0  0  0  0  0
   36.8550   25.5250   32.6180 C   0  0  0  0  0  0  0  0  0  0  0  0
   36.7940   24.1670   32.5360 N   0  0  0  0  0  0  0  0  0  0  0  0
   34.4890   23.8950   30.0690 H   0  0  0  0  0  0  0  0  0  0  0  0
   34.6500   26.3860   30.2730 H   0  0  0  0  0  0  0  0  0  0  0  0
   39.7120   26.1470   31.4800 Br  0  0  0  0  0  0  0  0  0  0  0  0
   39.0680   26.4190   33.2500 C   0  0  0  0  0  0  0  0  0  0  0  0
   37.7660   26.0890   33.5980 C   0  0  0  0  0  0  0  0  0  0  0  0
   37.3670   26.3160   34.9090 C   0  0  0  0  0  0  0  0  0  0  0  0
   38.2150   26.8530   35.8630 C   0  0  0  0  0  0  0  0  0  0  0  0
   39.4990   27.1680   35.4830 C   0  0  0  0  0  0  0  0  0  0  0  0
   39.9170   26.9480   34.1730 C   0  0  0  0  0  0  0  0  0  0  0  0
   36.3510   26.0520   35.1560 H   0  0  0  0  0  0  0  0  0  0  0  0
   37.8940   27.0250   36.8800 H   0  0  0  0  0  0  0  0  0  0  0  0
   40.2330   27.5940   36.1660 H   0  0  0  0  0  0  0  0  0  0  0  0
   40.9180   27.2000   33.8990 H   0  0  0  0  0  0  0  0  0  0  0  0
   35.9170   22.1240   31.5730 C   0  0  0  0  0  0  0  0  0  0  0  0
   35.0300   21.3050   32.2470 C   0  0  0  0  0  0  0  0  0  0  0  0
   34.2430   21.5880   32.9300 H   0  0  0  0  0  0  0  0  0  0  0  0
   35.3830   20.0300   31.8440 C   0  0  0  0  0  0  0  0  0  0  0  0
   34.9130   19.1050   32.1590 H   0  0  0  0  0  0  0  0  0  0  0  0
   36.4100   20.0640   30.9870 N   0  0  0  0  0  0  0  0  0  0  0  0
   36.9500   19.3390   30.4730 H   0  0  0  0  0  0  0  0  0  0  0  0
   36.7180   21.3310   30.8350 N   0  0  0  0  0  0  0  0  0  0  0  0
  1  6  1  0  0  0  0
  2  3  1  0  0  0  0
  2  1  2  0  0  0  0
  3  4  2  0  0  0  0
  4  5  1  0  0  0  0
  5 11  1  0  0  0  0
  6  5  2  0  0  0  0
  7  2  1  0  0  0  0
  8  3  1  0  0  0  0
  9 10  1  0  0  0  0
 10 11  2  0  0  0  0
 10 15  1  0  0  0  0
 11 12  1  0  0  0  0
 12 16  1  0  0  0  0
 12 13  2  0  0  0  0
 13 17  1  0  0  0  0
 14 13  1  0  0  0  0
 14 18  1  0  0  0  0
 15 14  2  0  0  0  0
 19 15  1  0  0  0  0
 20  1  1  0  0  0  0
 20 21  1  0  0  0  0
 21 22  1  0  0  0  0
 23 24  1  0  0  0  0
 23 21  2  0  0  0  0
 25 23  1  0  0  0  0
 26 25  1  0  0  0  0
 27 25  1  0  0  0  0
 27 20  2  0  0  0  0
M  END
>  <minimizedAffinity>
-4.97499704

$$$$
