
 OpenBabel03272510323D

 27 29  0  0  0  0  0  0  0  0999 V2000
   35.9450   30.2160   48.5180 C   0  0  0  0  0  0  0  0  0  0  0  0
   35.0790   30.1820   47.4550 C   0  0  0  0  0  0  0  0  0  0  0  0
   34.0430   29.2690   47.4130 C   0  0  0  0  0  0  0  0  0  0  0  0
   33.8960   28.3940   48.4560 C   0  0  0  0  0  0  0  0  0  0  0  0
   34.7610   28.4010   49.5560 C   0  0  0  0  0  0  0  0  0  0  0  0
   35.7950   29.3280   49.5780 C   0  0  0  0  0  0  0  0  0  0  0  0
   35.1690   30.8570   46.6190 H   0  0  0  0  0  0  0  0  0  0  0  0
   33.3310   29.1830   46.6210 H   0  0  0  0  0  0  0  0  0  0  0  0
   33.1180   27.6450   48.5130 H   0  0  0  0  0  0  0  0  0  0  0  0
   34.6490   27.7140   50.3810 H   0  0  0  0  0  0  0  0  0  0  0  0
   37.9210   33.1460   49.4040 C   0  0  0  0  0  0  0  0  0  0  0  0
   38.9890   33.1290   48.5130 C   0  0  0  0  0  0  0  0  0  0  0  0
   39.0280   32.0630   47.5690 C   0  0  0  0  0  0  0  0  0  0  0  0
   38.0290   31.1510   47.6070 N   0  0  0  0  0  0  0  0  0  0  0  0
   37.0090   31.2010   48.4870 C   0  0  0  0  0  0  0  0  0  0  0  0
   36.9780   32.2070   49.3740 N   0  0  0  0  0  0  0  0  0  0  0  0
   37.9470   33.9790   50.0940 H   0  0  0  0  0  0  0  0  0  0  0  0
   39.8120   33.8180   48.4270 H   0  0  0  0  0  0  0  0  0  0  0  0
   39.7830   31.9010   46.8110 H   0  0  0  0  0  0  0  0  0  0  0  0
   36.7110   29.3600   50.7130 C   0  0  0  0  0  0  0  0  0  0  0  0
   37.6760   28.3450   50.7270 C   0  0  0  0  0  0  0  0  0  0  0  0
   37.9450   27.5070   50.1050 H   0  0  0  0  0  0  0  0  0  0  0  0
   38.4490   28.5320   51.8680 C   0  0  0  0  0  0  0  0  0  0  0  0
   39.3100   27.9940   52.2950 H   0  0  0  0  0  0  0  0  0  0  0  0
   37.9440   29.6230   52.4930 N   0  0  0  0  0  0  0  0  0  0  0  0
   38.2660   30.0730   53.3870 H   0  0  0  0  0  0  0  0  0  0  0  0
   36.9090   30.1150   51.8050 N   0  0  0  0  0  0  0  0  0  0  0  0
  1  6  1  0  0  0  0
  2  1  2  0  0  0  0
  3  2  1  0  0  0  0
  3  4  2  0  0  0  0
  4  9  1  0  0  0  0
  4  5  1  0  0  0  0
  5  6  2  0  0  0  0
  5 10  1  0  0  0  0
  6 20  1  0  0  0  0
  7  2  1  0  0  0  0
  8  3  1  0  0  0  0
 11 17  1  0  0  0  0
 12 11  2  0  0  0  0
 13 14  2  0  0  0  0
 13 12  1  0  0  0  0
 14 15  1  0  0  0  0
 15  1  1  0  0  0  0
 15 16  2  0  0  0  0
 16 11  1  0  0  0  0
 18 12  1  0  0  0  0
 19 13  1  0  0  0  0
 20 21  1  0  0  0  0
 20 27  2  0  0  0  0
 21 23  2  0  0  0  0
 22 21  1  0  0  0  0
 23 24  1  0  0  0  0
 23 25  1  0  0  0  0
 25 26  1  0  0  0  0
 27 25  1  0  0  0  0
M  END
>  <minimizedAffinity>
-4.62101889

>  <minimizedRMSD>
0.327405542

$$$$
