
 OpenBabel03272510333D

 27 29  0  0  0  0  0  0  0  0999 V2000
   35.8150   29.9860   47.7950 C   0  0  0  0  0  0  0  0  0  0  0  0
   34.9400   29.9940   46.7380 C   0  0  0  0  0  0  0  0  0  0  0  0
   33.7980   29.2160   46.7580 C   0  0  0  0  0  0  0  0  0  0  0  0
   33.5550   28.4330   47.8550 C   0  0  0  0  0  0  0  0  0  0  0  0
   34.4260   28.4020   48.9500 C   0  0  0  0  0  0  0  0  0  0  0  0
   35.5680   29.1920   48.9090 C   0  0  0  0  0  0  0  0  0  0  0  0
   35.1050   30.5990   45.8610 H   0  0  0  0  0  0  0  0  0  0  0  0
   33.0730   29.1700   45.9760 H   0  0  0  0  0  0  0  0  0  0  0  0
   32.6910   27.7930   47.9620 H   0  0  0  0  0  0  0  0  0  0  0  0
   34.2390   27.7870   49.8170 H   0  0  0  0  0  0  0  0  0  0  0  0
   38.1950   32.6400   48.5500 C   0  0  0  0  0  0  0  0  0  0  0  0
   39.2010   32.4850   47.6020 C   0  0  0  0  0  0  0  0  0  0  0  0
   39.0510   31.4230   46.6640 C   0  0  0  0  0  0  0  0  0  0  0  0
   37.9480   30.6470   46.7640 N   0  0  0  0  0  0  0  0  0  0  0  0
   36.9930   30.8270   47.6990 C   0  0  0  0  0  0  0  0  0  0  0  0
   37.1400   31.8280   48.5780 N   0  0  0  0  0  0  0  0  0  0  0  0
   38.3660   33.4620   49.2320 H   0  0  0  0  0  0  0  0  0  0  0  0
   40.1000   33.0640   47.4650 H   0  0  0  0  0  0  0  0  0  0  0  0
   39.7360   31.1660   45.8680 H   0  0  0  0  0  0  0  0  0  0  0  0
   36.4930   29.1800   50.0380 C   0  0  0  0  0  0  0  0  0  0  0  0
   36.0120   29.7850   51.2060 C   0  0  0  0  0  0  0  0  0  0  0  0
   35.1080   30.2800   51.5210 H   0  0  0  0  0  0  0  0  0  0  0  0
   37.0160   29.6810   52.1630 C   0  0  0  0  0  0  0  0  0  0  0  0
   37.0980   30.0030   53.2120 H   0  0  0  0  0  0  0  0  0  0  0  0
   38.0450   29.0350   51.5620 N   0  0  0  0  0  0  0  0  0  0  0  0
   38.9790   28.7730   51.9680 H   0  0  0  0  0  0  0  0  0  0  0  0
   37.7320   28.7360   50.2980 N   0  0  0  0  0  0  0  0  0  0  0  0
  1  6  1  0  0  0  0
  2  3  1  0  0  0  0
  2  1  2  0  0  0  0
  3  4  2  0  0  0  0
  4  9  1  0  0  0  0
  4  5  1  0  0  0  0
  5 10  1  0  0  0  0
  6  5  2  0  0  0  0
  6 20  1  0  0  0  0
  7  2  1  0  0  0  0
  8  3  1  0  0  0  0
 11 16  1  0  0  0  0
 11 17  1  0  0  0  0
 12 11  2  0  0  0  0
 13 14  2  0  0  0  0
 13 12  1  0  0  0  0
 14 15  1  0  0  0  0
 15  1  1  0  0  0  0
 15 16  2  0  0  0  0
 18 12  1  0  0  0  0
 19 13  1  0  0  0  0
 20 27  2  0  0  0  0
 20 21  1  0  0  0  0
 21 22  1  0  0  0  0
 21 23  2  0  0  0  0
 23 24  1  0  0  0  0
 25 26  1  0  0  0  0
 25 23  1  0  0  0  0
 27 25  1  0  0  0  0
M  END
>  <minimizedAffinity>
-5.37771749

>  <minimizedRMSD>
1.05140495

$$$$
