
 OpenBabel03272504523D

 24 26  0  0  0  0  0  0  0  0999 V2000
   37.2440   31.3860   49.1500 C   0  0  0  0  0  0  0  0  0  0  0  0
   37.4840   32.6040   49.8100 C   0  0  0  0  0  0  0  0  0  0  0  0
   38.4280   33.4320   49.2270 C   0  0  0  0  0  0  0  0  0  0  0  0
   39.0550   33.0500   48.0870 N   0  0  0  0  0  0  0  0  0  0  0  0
   38.8010   31.8640   47.4690 C   0  0  0  0  0  0  0  0  0  0  0  0
   37.8790   31.0250   48.0160 N   0  0  0  0  0  0  0  0  0  0  0  0
   36.9290   32.8090   50.7130 H   0  0  0  0  0  0  0  0  0  0  0  0
   38.6360   34.3660   49.7040 H   0  0  0  0  0  0  0  0  0  0  0  0
   36.2050   30.4730   49.7580 C   0  0  0  0  0  0  0  0  0  0  0  0
   36.2410   29.0340   49.5230 C   0  0  0  0  0  0  0  0  0  0  0  0
   36.7850   29.5530   50.8230 C   0  0  0  0  0  0  0  0  0  0  0  0
   35.2850   31.0220   50.0770 H   0  0  0  0  0  0  0  0  0  0  0  0
   37.0010   28.5890   48.8500 H   0  0  0  0  0  0  0  0  0  0  0  0
   35.2880   28.4670   49.5410 H   0  0  0  0  0  0  0  0  0  0  0  0
   37.8790   29.5860   50.9860 H   0  0  0  0  0  0  0  0  0  0  0  0
   36.1730   29.3570   51.7370 H   0  0  0  0  0  0  0  0  0  0  0  0
   39.4720   31.4540   46.2470 C   0  0  0  0  0  0  0  0  0  0  0  0
   40.4910   32.0020   45.4890 C   0  0  0  0  0  0  0  0  0  0  0  0
   40.9620   32.9400   45.7810 H   0  0  0  0  0  0  0  0  0  0  0  0
   40.6610   31.1090   44.4400 C   0  0  0  0  0  0  0  0  0  0  0  0
   41.4250   31.3240   43.6860 H   0  0  0  0  0  0  0  0  0  0  0  0
   39.7970   30.0930   44.5660 N   0  0  0  0  0  0  0  0  0  0  0  0
   39.7520   29.3110   43.8890 H   0  0  0  0  0  0  0  0  0  0  0  0
   39.0810   30.2960   45.6500 N   0  0  0  0  0  0  0  0  0  0  0  0
  1  9  1  0  0  0  0
  1  2  1  0  0  0  0
  2  7  1  0  0  0  0
  3  8  1  0  0  0  0
  3  2  2  0  0  0  0
  4  3  1  0  0  0  0
  5  6  1  0  0  0  0
  5  4  2  0  0  0  0
  6  1  2  0  0  0  0
  9 12  1  0  0  0  0
  9 11  1  0  0  0  0
 10 14  1  0  0  0  0
 10  9  1  0  0  0  0
 10 11  1  0  0  0  0
 11 15  1  0  0  0  0
 11 16  1  0  0  0  0
 13 10  1  0  0  0  0
 17  5  1  0  0  0  0
 18 19  1  0  0  0  0
 18 17  1  0  0  0  0
 20 22  1  0  0  0  0
 20 18  2  0  0  0  0
 21 20  1  0  0  0  0
 22 24  1  0  0  0  0
 23 22  1  0  0  0  0
 24 17  2  0  0  0  0
M  END
>  <minimizedAffinity>
-5.52414656

>  <minimizedRMSD>
0.744892955

$$$$
