
 OpenBabel03272507063D

 30 33  0  0  0  0  0  0  0  0999 V2000
   39.3460   24.2450   32.7930 C   0  0  0  0  0  0  0  0  0  0  0  0
   39.4780   23.6670   34.0720 C   0  0  0  0  0  0  0  0  0  0  0  0
   38.8070   24.3160   35.1270 C   0  0  0  0  0  0  0  0  0  0  0  0
   38.0850   25.4380   34.8700 N   0  0  0  0  0  0  0  0  0  0  0  0
   37.9860   25.9560   33.6330 C   0  0  0  0  0  0  0  0  0  0  0  0
   38.6140   25.3610   32.5980 N   0  0  0  0  0  0  0  0  0  0  0  0
   39.8530   23.7630   31.9620 H   0  0  0  0  0  0  0  0  0  0  0  0
   40.0460   22.7890   34.2500 H   0  0  0  0  0  0  0  0  0  0  0  0
   36.6830   27.8580   34.4880 C   0  0  0  0  0  0  0  0  0  0  0  0
   37.2000   27.1600   33.4110 C   0  0  0  0  0  0  0  0  0  0  0  0
   36.9790   27.5880   32.1130 C   0  0  0  0  0  0  0  0  0  0  0  0
   36.2380   28.7250   31.8640 C   0  0  0  0  0  0  0  0  0  0  0  0
   35.8660   29.3690   30.7490 N   0  0  0  0  0  0  0  0  0  0  0  0
   35.1370   30.4360   31.1790 C   0  0  0  0  0  0  0  0  0  0  0  0
   35.0650   30.4450   32.5170 N   0  0  0  0  0  0  0  0  0  0  0  0
   35.7430   29.3890   32.9690 C   0  0  0  0  0  0  0  0  0  0  0  0
   35.9360   29.0010   34.2790 C   0  0  0  0  0  0  0  0  0  0  0  0
   36.8510   27.5300   35.4910 H   0  0  0  0  0  0  0  0  0  0  0  0
   37.3820   27.0420   31.2750 H   0  0  0  0  0  0  0  0  0  0  0  0
   36.1330   29.0360   29.7990 H   0  0  0  0  0  0  0  0  0  0  0  0
   34.7240   31.1150   30.4300 H   0  0  0  0  0  0  0  0  0  0  0  0
   35.5100   29.5810   35.1040 H   0  0  0  0  0  0  0  0  0  0  0  0
   38.8770   23.8030   36.4900 C   0  0  0  0  0  0  0  0  0  0  0  0
   38.0590   24.2090   37.5250 C   0  0  0  0  0  0  0  0  0  0  0  0
   37.2680   24.9620   37.4350 H   0  0  0  0  0  0  0  0  0  0  0  0
   38.3900   23.5240   38.6850 C   0  0  0  0  0  0  0  0  0  0  0  0
   37.9040   23.6470   39.6610 H   0  0  0  0  0  0  0  0  0  0  0  0
   39.4100   22.7120   38.3200 N   0  0  0  0  0  0  0  0  0  0  0  0
   39.8350   22.0860   39.0380 H   0  0  0  0  0  0  0  0  0  0  0  0
   39.6800   22.8860   37.0430 N   0  0  0  0  0  0  0  0  0  0  0  0
  1  2  1  0  0  0  0
  2  8  1  0  0  0  0
  2  3  2  0  0  0  0
  3 23  1  0  0  0  0
  4  3  1  0  0  0  0
  5  4  2  0  0  0  0
  6  1  2  0  0  0  0
  6  5  1  0  0  0  0
  7  1  1  0  0  0  0
  9 18  1  0  0  0  0
 10  5  1  0  0  0  0
 10  9  2  0  0  0  0
 11 10  1  0  0  0  0
 12 11  2  0  0  0  0
 12 16  1  0  0  0  0
 13 14  1  0  0  0  0
 13 12  1  0  0  0  0
 14 15  2  0  0  0  0
 15 16  1  0  0  0  0
 16 17  2  0  0  0  0
 17  9  1  0  0  0  0
 17 22  1  0  0  0  0
 19 11  1  0  0  0  0
 20 13  1  0  0  0  0
 21 14  1  0  0  0  0
 23 30  2  0  0  0  0
 23 24  1  0  0  0  0
 24 26  2  0  0  0  0
 25 24  1  0  0  0  0
 26 27  1  0  0  0  0
 28 26  1  0  0  0  0
 28 29  1  0  0  0  0
 30 28  1  0  0  0  0
M  END
>  <minimizedAffinity>
-5.68214178

$$$$

 OpenBabel03272507063D

 30 33  0  0  0  0  0  0  0  0999 V2000
   37.5760   22.2810   32.9010 C   0  0  0  0  0  0  0  0  0  0  0  0
   38.0080   22.0690   34.2260 C   0  0  0  0  0  0  0  0  0  0  0  0
   38.2060   23.2190   35.0140 C   0  0  0  0  0  0  0  0  0  0  0  0
   37.9790   24.4460   34.4760 N   0  0  0  0  0  0  0  0  0  0  0  0
   37.5670   24.6030   33.2060 C   0  0  0  0  0  0  0  0  0  0  0  0
   37.3660   23.5240   32.4200 N   0  0  0  0  0  0  0  0  0  0  0  0
   37.4150   21.4110   32.2720 H   0  0  0  0  0  0  0  0  0  0  0  0
   38.1800   21.1020   34.6260 H   0  0  0  0  0  0  0  0  0  0  0  0
   37.0080   26.9760   33.5330 C   0  0  0  0  0  0  0  0  0  0  0  0
   37.3370   25.9390   32.6770 C   0  0  0  0  0  0  0  0  0  0  0  0
   37.4510   26.1510   31.3140 C   0  0  0  0  0  0  0  0  0  0  0  0
   37.2400   27.4040   30.7770 C   0  0  0  0  0  0  0  0  0  0  0  0
   37.2770   27.9040   29.5330 N   0  0  0  0  0  0  0  0  0  0  0  0
   36.9710   29.2240   29.6690 C   0  0  0  0  0  0  0  0  0  0  0  0
   36.7530   29.5230   30.9570 N   0  0  0  0  0  0  0  0  0  0  0  0
   36.9140   28.4070   31.6680 C   0  0  0  0  0  0  0  0  0  0  0  0
   36.7880   28.2440   33.0330 C   0  0  0  0  0  0  0  0  0  0  0  0
   36.9190   26.8150   34.5860 H   0  0  0  0  0  0  0  0  0  0  0  0
   37.7070   25.3420   30.6480 H   0  0  0  0  0  0  0  0  0  0  0  0
   37.5040   27.3150   28.7040 H   0  0  0  0  0  0  0  0  0  0  0  0
   36.9410   29.8420   28.7690 H   0  0  0  0  0  0  0  0  0  0  0  0
   36.5270   29.0900   33.6760 H   0  0  0  0  0  0  0  0  0  0  0  0
   38.6530   23.1140   36.3980 C   0  0  0  0  0  0  0  0  0  0  0  0
   38.0240   23.7070   37.4740 C   0  0  0  0  0  0  0  0  0  0  0  0
   37.1200   24.3230   37.4040 H   0  0  0  0  0  0  0  0  0  0  0  0
   38.7050   23.4070   38.6440 C   0  0  0  0  0  0  0  0  0  0  0  0
   38.4290   23.7470   39.6510 H   0  0  0  0  0  0  0  0  0  0  0  0
   39.7400   22.6320   38.2440 N   0  0  0  0  0  0  0  0  0  0  0  0
   40.4070   22.2750   38.9630 H   0  0  0  0  0  0  0  0  0  0  0  0
   39.6950   22.4710   36.9380 N   0  0  0  0  0  0  0  0  0  0  0  0
  1  2  1  0  0  0  0
  2  8  1  0  0  0  0
  2  3  2  0  0  0  0
  3 23  1  0  0  0  0
  4  3  1  0  0  0  0
  5  4  2  0  0  0  0
  6  1  2  0  0  0  0
  6  5  1  0  0  0  0
  7  1  1  0  0  0  0
  9 18  1  0  0  0  0
 10  5  1  0  0  0  0
 10  9  2  0  0  0  0
 11 10  1  0  0  0  0
 12 11  2  0  0  0  0
 12 16  1  0  0  0  0
 13 14  1  0  0  0  0
 13 12  1  0  0  0  0
 14 15  2  0  0  0  0
 15 16  1  0  0  0  0
 16 17  2  0  0  0  0
 17  9  1  0  0  0  0
 17 22  1  0  0  0  0
 19 11  1  0  0  0  0
 20 13  1  0  0  0  0
 21 14  1  0  0  0  0
 23 30  2  0  0  0  0
 23 24  1  0  0  0  0
 24 26  2  0  0  0  0
 25 24  1  0  0  0  0
 26 27  1  0  0  0  0
 28 26  1  0  0  0  0
 28 29  1  0  0  0  0
 30 28  1  0  0  0  0
M  END
>  <minimizedAffinity>
-5.67440224

$$$$

 OpenBabel03272507063D

 30 33  0  0  0  0  0  0  0  0999 V2000
   38.0140   27.5090   35.2990 C   0  0  0  0  0  0  0  0  0  0  0  0
   37.1800   27.2580   34.1890 C   0  0  0  0  0  0  0  0  0  0  0  0
   37.3800   26.0370   33.5160 C   0  0  0  0  0  0  0  0  0  0  0  0
   38.3400   25.1810   33.9550 N   0  0  0  0  0  0  0  0  0  0  0  0
   39.1130   25.4600   35.0190 C   0  0  0  0  0  0  0  0  0  0  0  0
   38.9510   26.6200   35.6890 N   0  0  0  0  0  0  0  0  0  0  0  0
   37.8800   28.4430   35.8350 H   0  0  0  0  0  0  0  0  0  0  0  0
   36.4360   27.9410   33.8640 H   0  0  0  0  0  0  0  0  0  0  0  0
   41.4110   24.5880   34.9370 C   0  0  0  0  0  0  0  0  0  0  0  0
   40.1280   24.5090   35.4490 C   0  0  0  0  0  0  0  0  0  0  0  0
   39.7870   23.5330   36.3690 C   0  0  0  0  0  0  0  0  0  0  0  0
   40.7220   22.6150   36.7990 C   0  0  0  0  0  0  0  0  0  0  0  0
   40.6910   21.5850   37.6570 N   0  0  0  0  0  0  0  0  0  0  0  0
   41.9510   21.0700   37.6420 C   0  0  0  0  0  0  0  0  0  0  0  0
   42.7300   21.7630   36.8000 N   0  0  0  0  0  0  0  0  0  0  0  0
   41.9890   22.7310   36.2620 C   0  0  0  0  0  0  0  0  0  0  0  0
   42.3750   23.6850   35.3430 C   0  0  0  0  0  0  0  0  0  0  0  0
   41.6780   25.3390   34.2260 H   0  0  0  0  0  0  0  0  0  0  0  0
   38.7860   23.4740   36.7660 H   0  0  0  0  0  0  0  0  0  0  0  0
   39.8280   21.3190   38.1760 H   0  0  0  0  0  0  0  0  0  0  0  0
   42.1630   20.2070   38.2770 H   0  0  0  0  0  0  0  0  0  0  0  0
   43.4010   23.7140   34.9620 H   0  0  0  0  0  0  0  0  0  0  0  0
   36.5730   25.6780   32.3560 C   0  0  0  0  0  0  0  0  0  0  0  0
   36.2810   24.3850   31.9720 C   0  0  0  0  0  0  0  0  0  0  0  0
   36.6240   23.4860   32.4990 H   0  0  0  0  0  0  0  0  0  0  0  0
   35.4940   24.3970   30.8300 C   0  0  0  0  0  0  0  0  0  0  0  0
   35.1130   23.5120   30.3060 H   0  0  0  0  0  0  0  0  0  0  0  0
   35.3280   25.7110   30.5480 N   0  0  0  0  0  0  0  0  0  0  0  0
   34.7580   25.9770   29.7150 H   0  0  0  0  0  0  0  0  0  0  0  0
   35.9600   26.4410   31.4430 N   0  0  0  0  0  0  0  0  0  0  0  0
  1  6  1  0  0  0  0
  1  7  1  0  0  0  0
  2  1  2  0  0  0  0
  3  4  2  0  0  0  0
  3  2  1  0  0  0  0
  4  5  1  0  0  0  0
  5 10  1  0  0  0  0
  5  6  2  0  0  0  0
  8  2  1  0  0  0  0
  9 17  2  0  0  0  0
  9 10  1  0  0  0  0
 10 11  2  0  0  0  0
 11 19  1  0  0  0  0
 11 12  1  0  0  0  0
 12 13  1  0  0  0  0
 13 20  1  0  0  0  0
 14 13  1  0  0  0  0
 14 21  1  0  0  0  0
 15 14  2  0  0  0  0
 16 12  2  0  0  0  0
 16 15  1  0  0  0  0
 17 16  1  0  0  0  0
 18  9  1  0  0  0  0
 22 17  1  0  0  0  0
 23  3  1  0  0  0  0
 24 23  1  0  0  0  0
 24 25  1  0  0  0  0
 26 24  2  0  0  0  0
 27 26  1  0  0  0  0
 28 26  1  0  0  0  0
 28 30  1  0  0  0  0
 29 28  1  0  0  0  0
 30 23  2  0  0  0  0
M  END
>  <minimizedAffinity>
-5.60971594

$$$$

 OpenBabel03272507063D

 30 33  0  0  0  0  0  0  0  0999 V2000
   35.8920   31.3490   32.0090 C   0  0  0  0  0  0  0  0  0  0  0  0
   35.4130   31.8860   33.2210 C   0  0  0  0  0  0  0  0  0  0  0  0
   35.2740   30.9870   34.2960 C   0  0  0  0  0  0  0  0  0  0  0  0
   35.5990   29.6790   34.1200 N   0  0  0  0  0  0  0  0  0  0  0  0
   36.0530   29.2090   32.9450 C   0  0  0  0  0  0  0  0  0  0  0  0
   36.1990   30.0400   31.8930 N   0  0  0  0  0  0  0  0  0  0  0  0
   36.0080   32.0210   31.1640 H   0  0  0  0  0  0  0  0  0  0  0  0
   35.1650   32.9110   33.3360 H   0  0  0  0  0  0  0  0  0  0  0  0
   37.1780   27.1790   33.7620 C   0  0  0  0  0  0  0  0  0  0  0  0
   36.3880   27.7990   32.8090 C   0  0  0  0  0  0  0  0  0  0  0  0
   35.9070   27.0960   31.7170 C   0  0  0  0  0  0  0  0  0  0  0  0
   36.2040   25.7590   31.5550 C   0  0  0  0  0  0  0  0  0  0  0  0
   35.8930   24.8410   30.6290 N   0  0  0  0  0  0  0  0  0  0  0  0
   36.5000   23.6950   31.0440 C   0  0  0  0  0  0  0  0  0  0  0  0
   37.1630   23.9050   32.1900 N   0  0  0  0  0  0  0  0  0  0  0  0
   36.9950   25.1830   32.5290 C   0  0  0  0  0  0  0  0  0  0  0  0
   37.4980   25.8410   33.6330 C   0  0  0  0  0  0  0  0  0  0  0  0
   37.5510   27.7180   34.6050 H   0  0  0  0  0  0  0  0  0  0  0  0
   35.2920   27.5820   30.9760 H   0  0  0  0  0  0  0  0  0  0  0  0
   35.3020   25.0640   29.8010 H   0  0  0  0  0  0  0  0  0  0  0  0
   36.3820   22.7980   30.4330 H   0  0  0  0  0  0  0  0  0  0  0  0
   38.1190   25.3150   34.3650 H   0  0  0  0  0  0  0  0  0  0  0  0
   34.7870   31.4380   35.5940 C   0  0  0  0  0  0  0  0  0  0  0  0
   33.4730   31.3610   36.0100 C   0  0  0  0  0  0  0  0  0  0  0  0
   32.6520   30.9520   35.4090 H   0  0  0  0  0  0  0  0  0  0  0  0
   33.3520   31.8750   37.2930 C   0  0  0  0  0  0  0  0  0  0  0  0
   32.4220   31.9400   37.8710 H   0  0  0  0  0  0  0  0  0  0  0  0
   34.6090   32.2540   37.6250 N   0  0  0  0  0  0  0  0  0  0  0  0
   34.7730   32.6790   38.5640 H   0  0  0  0  0  0  0  0  0  0  0  0
   35.4290   31.9940   36.6290 N   0  0  0  0  0  0  0  0  0  0  0  0
  1  2  1  0  0  0  0
  2  8  1  0  0  0  0
  2  3  2  0  0  0  0
  3 23  1  0  0  0  0
  4  3  1  0  0  0  0
  5  4  2  0  0  0  0
  6  1  2  0  0  0  0
  6  5  1  0  0  0  0
  7  1  1  0  0  0  0
  9 18  1  0  0  0  0
 10  5  1  0  0  0  0
 10  9  2  0  0  0  0
 11 10  1  0  0  0  0
 12 11  2  0  0  0  0
 12 16  1  0  0  0  0
 13 14  1  0  0  0  0
 13 12  1  0  0  0  0
 14 15  2  0  0  0  0
 15 16  1  0  0  0  0
 16 17  2  0  0  0  0
 17  9  1  0  0  0  0
 17 22  1  0  0  0  0
 19 11  1  0  0  0  0
 20 13  1  0  0  0  0
 21 14  1  0  0  0  0
 23 24  1  0  0  0  0
 23 30  2  0  0  0  0
 24 26  2  0  0  0  0
 25 24  1  0  0  0  0
 26 28  1  0  0  0  0
 26 27  1  0  0  0  0
 28 29  1  0  0  0  0
 30 28  1  0  0  0  0
M  END
>  <minimizedAffinity>
-5.51348782

$$$$

 OpenBabel03272507063D

 30 33  0  0  0  0  0  0  0  0999 V2000
   35.7330   30.3820   32.0880 C   0  0  0  0  0  0  0  0  0  0  0  0
   35.2430   31.1240   33.1820 C   0  0  0  0  0  0  0  0  0  0  0  0
   35.3290   30.5100   34.4470 C   0  0  0  0  0  0  0  0  0  0  0  0
   35.8640   29.2650   34.5510 N   0  0  0  0  0  0  0  0  0  0  0  0
   36.3200   28.5930   33.4790 C   0  0  0  0  0  0  0  0  0  0  0  0
   36.2550   29.1490   32.2520 N   0  0  0  0  0  0  0  0  0  0  0  0
   35.6800   30.8340   31.1020 H   0  0  0  0  0  0  0  0  0  0  0  0
   34.8290   32.0950   33.0790 H   0  0  0  0  0  0  0  0  0  0  0  0
   37.0350   26.4320   32.5460 C   0  0  0  0  0  0  0  0  0  0  0  0
   36.8850   27.2620   33.6440 C   0  0  0  0  0  0  0  0  0  0  0  0
   37.2650   26.8440   34.9080 C   0  0  0  0  0  0  0  0  0  0  0  0
   37.8040   25.5890   35.1020 C   0  0  0  0  0  0  0  0  0  0  0  0
   38.2530   24.9240   36.1750 N   0  0  0  0  0  0  0  0  0  0  0  0
   38.6610   23.7140   35.7010 C   0  0  0  0  0  0  0  0  0  0  0  0
   38.4670   23.6410   34.3770 N   0  0  0  0  0  0  0  0  0  0  0  0
   37.9350   24.7970   33.9790 C   0  0  0  0  0  0  0  0  0  0  0  0
   37.5700   25.1680   32.7010 C   0  0  0  0  0  0  0  0  0  0  0  0
   36.7420   26.7510   31.5690 H   0  0  0  0  0  0  0  0  0  0  0  0
   37.1470   27.4930   35.7620 H   0  0  0  0  0  0  0  0  0  0  0  0
   38.2450   25.3390   37.1310 H   0  0  0  0  0  0  0  0  0  0  0  0
   39.0700   22.9930   36.4110 H   0  0  0  0  0  0  0  0  0  0  0  0
   37.7050   24.4830   31.8580 H   0  0  0  0  0  0  0  0  0  0  0  0
   34.8510   31.1890   35.6460 C   0  0  0  0  0  0  0  0  0  0  0  0
   33.5400   31.1910   36.0770 C   0  0  0  0  0  0  0  0  0  0  0  0
   32.7150   30.6820   35.5650 H   0  0  0  0  0  0  0  0  0  0  0  0
   33.4280   31.9280   37.2470 C   0  0  0  0  0  0  0  0  0  0  0  0
   32.5020   32.0990   37.8100 H   0  0  0  0  0  0  0  0  0  0  0  0
   34.6870   32.3590   37.4960 N   0  0  0  0  0  0  0  0  0  0  0  0
   34.8590   32.9450   38.3430 H   0  0  0  0  0  0  0  0  0  0  0  0
   35.5010   31.9210   36.5590 N   0  0  0  0  0  0  0  0  0  0  0  0
  1  6  2  0  0  0  0
  1  2  1  0  0  0  0
  2  3  2  0  0  0  0
  3  4  1  0  0  0  0
  3 23  1  0  0  0  0
  5 10  1  0  0  0  0
  5  4  2  0  0  0  0
  6  5  1  0  0  0  0
  7  1  1  0  0  0  0
  8  2  1  0  0  0  0
  9 17  2  0  0  0  0
  9 10  1  0  0  0  0
 10 11  2  0  0  0  0
 11 12  1  0  0  0  0
 11 19  1  0  0  0  0
 12 13  1  0  0  0  0
 13 20  1  0  0  0  0
 14 13  1  0  0  0  0
 14 21  1  0  0  0  0
 15 14  2  0  0  0  0
 16 15  1  0  0  0  0
 16 12  2  0  0  0  0
 17 16  1  0  0  0  0
 18  9  1  0  0  0  0
 22 17  1  0  0  0  0
 23 24  1  0  0  0  0
 23 30  2  0  0  0  0
 24 26  2  0  0  0  0
 25 24  1  0  0  0  0
 26 28  1  0  0  0  0
 26 27  1  0  0  0  0
 28 29  1  0  0  0  0
 30 28  1  0  0  0  0
M  END
>  <minimizedAffinity>
-5.44802952

$$$$

 OpenBabel03272507063D

 30 33  0  0  0  0  0  0  0  0999 V2000
   39.5400   24.0570   32.8100 C   0  0  0  0  0  0  0  0  0  0  0  0
   39.5700   23.5420   34.1220 C   0  0  0  0  0  0  0  0  0  0  0  0
   38.8600   24.2690   35.0980 C   0  0  0  0  0  0  0  0  0  0  0  0
   38.1980   25.4000   34.7400 N   0  0  0  0  0  0  0  0  0  0  0  0
   38.1970   25.8560   33.4750 C   0  0  0  0  0  0  0  0  0  0  0  0
   38.8660   25.1880   32.5130 N   0  0  0  0  0  0  0  0  0  0  0  0
   40.0790   23.5160   32.0390 H   0  0  0  0  0  0  0  0  0  0  0  0
   40.0920   22.6560   34.3800 H   0  0  0  0  0  0  0  0  0  0  0  0
   37.5640   27.6080   31.8690 C   0  0  0  0  0  0  0  0  0  0  0  0
   37.4730   27.0740   33.1430 C   0  0  0  0  0  0  0  0  0  0  0  0
   36.7000   27.6830   34.1160 C   0  0  0  0  0  0  0  0  0  0  0  0
   36.0000   28.8390   33.8380 C   0  0  0  0  0  0  0  0  0  0  0  0
   35.1910   29.6340   34.5520 N   0  0  0  0  0  0  0  0  0  0  0  0
   34.8150   30.6240   33.6960 C   0  0  0  0  0  0  0  0  0  0  0  0
   35.3770   30.4400   32.4930 N   0  0  0  0  0  0  0  0  0  0  0  0
   36.1200   29.3350   32.5550 C   0  0  0  0  0  0  0  0  0  0  0  0
   36.8770   28.7650   31.5520 C   0  0  0  0  0  0  0  0  0  0  0  0
   38.1590   27.1410   31.1160 H   0  0  0  0  0  0  0  0  0  0  0  0
   36.6310   27.2650   35.1090 H   0  0  0  0  0  0  0  0  0  0  0  0
   34.9630   29.4420   35.5510 H   0  0  0  0  0  0  0  0  0  0  0  0
   34.1430   31.4000   34.0680 H   0  0  0  0  0  0  0  0  0  0  0  0
   36.9230   29.2180   30.5570 H   0  0  0  0  0  0  0  0  0  0  0  0
   38.8240   23.8250   36.4870 C   0  0  0  0  0  0  0  0  0  0  0  0
   38.0010   24.3540   37.4600 C   0  0  0  0  0  0  0  0  0  0  0  0
   37.2830   25.1660   37.2940 H   0  0  0  0  0  0  0  0  0  0  0  0
   38.2190   23.7060   38.6670 C   0  0  0  0  0  0  0  0  0  0  0  0
   37.7030   23.9220   39.6110 H   0  0  0  0  0  0  0  0  0  0  0  0
   39.1790   22.7930   38.3920 N   0  0  0  0  0  0  0  0  0  0  0  0
   39.5160   22.1720   39.1600 H   0  0  0  0  0  0  0  0  0  0  0  0
   39.5190   22.8740   37.1230 N   0  0  0  0  0  0  0  0  0  0  0  0
  1  2  1  0  0  0  0
  2  8  1  0  0  0  0
  2  3  2  0  0  0  0
  3 23  1  0  0  0  0
  4  3  1  0  0  0  0
  5  4  2  0  0  0  0
  6  1  2  0  0  0  0
  6  5  1  0  0  0  0
  7  1  1  0  0  0  0
  9 10  1  0  0  0  0
 10  5  1  0  0  0  0
 10 11  2  0  0  0  0
 11 19  1  0  0  0  0
 12 11  1  0  0  0  0
 12 13  1  0  0  0  0
 13 20  1  0  0  0  0
 14 21  1  0  0  0  0
 14 13  1  0  0  0  0
 15 16  1  0  0  0  0
 15 14  2  0  0  0  0
 16 12  2  0  0  0  0
 17  9  2  0  0  0  0
 17 16  1  0  0  0  0
 18  9  1  0  0  0  0
 22 17  1  0  0  0  0
 23 30  2  0  0  0  0
 23 24  1  0  0  0  0
 24 26  2  0  0  0  0
 25 24  1  0  0  0  0
 26 27  1  0  0  0  0
 28 26  1  0  0  0  0
 28 29  1  0  0  0  0
 30 28  1  0  0  0  0
M  END
>  <minimizedAffinity>
-5.41224146

$$$$

 OpenBabel03272507063D

 30 33  0  0  0  0  0  0  0  0999 V2000
   38.2900   23.9000   38.3230 C   0  0  0  0  0  0  0  0  0  0  0  0
   39.3470   22.9980   38.0850 C   0  0  0  0  0  0  0  0  0  0  0  0
   39.8870   22.9920   36.7840 C   0  0  0  0  0  0  0  0  0  0  0  0
   39.3780   23.8310   35.8450 N   0  0  0  0  0  0  0  0  0  0  0  0
   38.3670   24.6760   36.1150 C   0  0  0  0  0  0  0  0  0  0  0  0
   37.8250   24.7110   37.3500 N   0  0  0  0  0  0  0  0  0  0  0  0
   37.8570   23.9260   39.3180 H   0  0  0  0  0  0  0  0  0  0  0  0
   39.7310   22.3520   38.8340 H   0  0  0  0  0  0  0  0  0  0  0  0
   37.5370   26.8680   35.3720 C   0  0  0  0  0  0  0  0  0  0  0  0
   37.8580   25.5550   35.0730 C   0  0  0  0  0  0  0  0  0  0  0  0
   37.6990   25.0570   33.7920 C   0  0  0  0  0  0  0  0  0  0  0  0
   37.2190   25.8610   32.7790 C   0  0  0  0  0  0  0  0  0  0  0  0
   36.9650   25.6690   31.4770 N   0  0  0  0  0  0  0  0  0  0  0  0
   36.5000   26.8660   31.0230 C   0  0  0  0  0  0  0  0  0  0  0  0
   36.4690   27.7640   32.0170 N   0  0  0  0  0  0  0  0  0  0  0  0
   36.9120   27.1630   33.1220 C   0  0  0  0  0  0  0  0  0  0  0  0
   37.0520   27.7040   34.3840 C   0  0  0  0  0  0  0  0  0  0  0  0
   37.6570   27.2560   36.3600 H   0  0  0  0  0  0  0  0  0  0  0  0
   37.9500   24.0340   33.5620 H   0  0  0  0  0  0  0  0  0  0  0  0
   37.1270   24.7530   31.0080 H   0  0  0  0  0  0  0  0  0  0  0  0
   36.2250   26.9460   29.9690 H   0  0  0  0  0  0  0  0  0  0  0  0
   36.7870   28.7480   34.5790 H   0  0  0  0  0  0  0  0  0  0  0  0
   40.9830   22.0970   36.4300 C   0  0  0  0  0  0  0  0  0  0  0  0
   41.7280   21.3700   37.3360 C   0  0  0  0  0  0  0  0  0  0  0  0
   41.5750   21.3850   38.4220 H   0  0  0  0  0  0  0  0  0  0  0  0
   42.6880   20.6240   36.6690 C   0  0  0  0  0  0  0  0  0  0  0  0
   43.4180   19.9530   37.1390 H   0  0  0  0  0  0  0  0  0  0  0  0
   42.4990   20.9220   35.3620 N   0  0  0  0  0  0  0  0  0  0  0  0
   43.1160   20.4720   34.6500 H   0  0  0  0  0  0  0  0  0  0  0  0
   41.5070   21.7780   35.2400 N   0  0  0  0  0  0  0  0  0  0  0  0
  1  7  1  0  0  0  0
  2  1  1  0  0  0  0
  2  8  1  0  0  0  0
  3  2  2  0  0  0  0
  4  5  2  0  0  0  0
  4  3  1  0  0  0  0
  5  6  1  0  0  0  0
  6  1  2  0  0  0  0
  9 18  1  0  0  0  0
 10  9  1  0  0  0  0
 10  5  1  0  0  0  0
 11 10  2  0  0  0  0
 12 16  2  0  0  0  0
 12 11  1  0  0  0  0
 13 12  1  0  0  0  0
 14 13  1  0  0  0  0
 14 15  2  0  0  0  0
 15 16  1  0  0  0  0
 16 17  1  0  0  0  0
 17 22  1  0  0  0  0
 17  9  2  0  0  0  0
 19 11  1  0  0  0  0
 20 13  1  0  0  0  0
 21 14  1  0  0  0  0
 23  3  1  0  0  0  0
 23 24  1  0  0  0  0
 24 25  1  0  0  0  0
 26 27  1  0  0  0  0
 26 24  2  0  0  0  0
 28 26  1  0  0  0  0
 29 28  1  0  0  0  0
 30 28  1  0  0  0  0
 30 23  2  0  0  0  0
M  END
>  <minimizedAffinity>
-5.38278055

$$$$

 OpenBabel03272507063D

 30 33  0  0  0  0  0  0  0  0999 V2000
   37.9030   25.3640   33.2960 C   0  0  0  0  0  0  0  0  0  0  0  0
   38.2680   25.1420   34.6400 C   0  0  0  0  0  0  0  0  0  0  0  0
   38.2700   23.8030   35.0780 C   0  0  0  0  0  0  0  0  0  0  0  0
   37.9300   22.8150   34.2090 N   0  0  0  0  0  0  0  0  0  0  0  0
   37.5890   23.0720   32.9340 C   0  0  0  0  0  0  0  0  0  0  0  0
   37.5750   24.3420   32.4790 N   0  0  0  0  0  0  0  0  0  0  0  0
   37.8940   26.3870   32.9340 H   0  0  0  0  0  0  0  0  0  0  0  0
   38.5300   25.9290   35.3020 H   0  0  0  0  0  0  0  0  0  0  0  0
   35.9970   21.3650   32.1580 C   0  0  0  0  0  0  0  0  0  0  0  0
   37.2330   21.9780   32.0430 C   0  0  0  0  0  0  0  0  0  0  0  0
   38.1460   21.5630   31.0890 C   0  0  0  0  0  0  0  0  0  0  0  0
   37.8440   20.5290   30.2280 C   0  0  0  0  0  0  0  0  0  0  0  0
   38.5040   19.9240   29.2310 N   0  0  0  0  0  0  0  0  0  0  0  0
   37.6540   18.9650   28.7700 C   0  0  0  0  0  0  0  0  0  0  0  0
   36.5080   18.9830   29.4640 N   0  0  0  0  0  0  0  0  0  0  0  0
   36.6000   19.9490   30.3790 C   0  0  0  0  0  0  0  0  0  0  0  0
   35.6580   20.3260   31.3140 C   0  0  0  0  0  0  0  0  0  0  0  0
   35.2890   21.6820   32.8930 H   0  0  0  0  0  0  0  0  0  0  0  0
   39.1090   22.0420   31.0030 H   0  0  0  0  0  0  0  0  0  0  0  0
   39.4660   20.2060   28.9480 H   0  0  0  0  0  0  0  0  0  0  0  0
   37.9860   18.3360   27.9420 H   0  0  0  0  0  0  0  0  0  0  0  0
   34.6910   19.8160   31.3720 H   0  0  0  0  0  0  0  0  0  0  0  0
   38.6310   23.4620   36.4490 C   0  0  0  0  0  0  0  0  0  0  0  0
   37.9930   23.9460   37.5730 C   0  0  0  0  0  0  0  0  0  0  0  0
   37.1450   24.6400   37.5570 H   0  0  0  0  0  0  0  0  0  0  0  0
   38.5840   23.4240   38.7140 C   0  0  0  0  0  0  0  0  0  0  0  0
   38.2810   23.6370   39.7460 H   0  0  0  0  0  0  0  0  0  0  0  0
   39.5760   22.6290   38.2470 N   0  0  0  0  0  0  0  0  0  0  0  0
   40.1730   22.1160   38.9330 H   0  0  0  0  0  0  0  0  0  0  0  0
   39.5900   22.6620   36.9310 N   0  0  0  0  0  0  0  0  0  0  0  0
  1  2  1  0  0  0  0
  2  3  2  0  0  0  0
  2  8  1  0  0  0  0
  3 23  1  0  0  0  0
  4  3  1  0  0  0  0
  5  4  2  0  0  0  0
  6  5  1  0  0  0  0
  6  1  2  0  0  0  0
  7  1  1  0  0  0  0
  9 18  1  0  0  0  0
 10  9  1  0  0  0  0
 10  5  1  0  0  0  0
 11 10  2  0  0  0  0
 12 16  2  0  0  0  0
 12 11  1  0  0  0  0
 13 12  1  0  0  0  0
 14 13  1  0  0  0  0
 14 15  2  0  0  0  0
 15 16  1  0  0  0  0
 16 17  1  0  0  0  0
 17 22  1  0  0  0  0
 17  9  2  0  0  0  0
 19 11  1  0  0  0  0
 20 13  1  0  0  0  0
 21 14  1  0  0  0  0
 23 30  2  0  0  0  0
 23 24  1  0  0  0  0
 24 26  2  0  0  0  0
 25 24  1  0  0  0  0
 26 27  1  0  0  0  0
 28 26  1  0  0  0  0
 28 29  1  0  0  0  0
 30 28  1  0  0  0  0
M  END
>  <minimizedAffinity>
-5.36860466

$$$$

 OpenBabel03272507063D

 30 33  0  0  0  0  0  0  0  0999 V2000
   36.4230   28.6470   31.7880 C   0  0  0  0  0  0  0  0  0  0  0  0
   35.8730   29.6670   32.5910 C   0  0  0  0  0  0  0  0  0  0  0  0
   35.8600   29.4350   33.9810 C   0  0  0  0  0  0  0  0  0  0  0  0
   36.3640   28.2710   34.4690 N   0  0  0  0  0  0  0  0  0  0  0  0
   36.8800   27.3240   33.6650 C   0  0  0  0  0  0  0  0  0  0  0  0
   36.9090   27.5110   32.3300 N   0  0  0  0  0  0  0  0  0  0  0  0
   36.4450   28.8020   30.7140 H   0  0  0  0  0  0  0  0  0  0  0  0
   35.4850   30.5690   32.1900 H   0  0  0  0  0  0  0  0  0  0  0  0
   37.7910   25.0540   33.4090 C   0  0  0  0  0  0  0  0  0  0  0  0
   37.4070   26.0940   34.2380 C   0  0  0  0  0  0  0  0  0  0  0  0
   37.5150   25.9860   35.6130 C   0  0  0  0  0  0  0  0  0  0  0  0
   38.0100   24.8350   36.1910 C   0  0  0  0  0  0  0  0  0  0  0  0
   38.2280   24.4460   37.4560 N   0  0  0  0  0  0  0  0  0  0  0  0
   38.7360   23.1870   37.3600 C   0  0  0  0  0  0  0  0  0  0  0  0
   38.8260   22.8150   36.0750 N   0  0  0  0  0  0  0  0  0  0  0  0
   38.3810   23.8250   35.3270 C   0  0  0  0  0  0  0  0  0  0  0  0
   38.2910   23.8860   33.9510 C   0  0  0  0  0  0  0  0  0  0  0  0
   37.7090   25.1340   32.3470 H   0  0  0  0  0  0  0  0  0  0  0  0
   37.2150   26.7980   36.2570 H   0  0  0  0  0  0  0  0  0  0  0  0
   38.0160   25.0600   38.2710 H   0  0  0  0  0  0  0  0  0  0  0  0
   38.9920   22.6620   38.2830 H   0  0  0  0  0  0  0  0  0  0  0  0
   38.6060   23.0410   33.3310 H   0  0  0  0  0  0  0  0  0  0  0  0
   35.3140   30.4240   34.9030 C   0  0  0  0  0  0  0  0  0  0  0  0
   36.0710   31.2390   35.7200 C   0  0  0  0  0  0  0  0  0  0  0  0
   37.1670   31.2310   35.7640 H   0  0  0  0  0  0  0  0  0  0  0  0
   35.2420   32.0600   36.4680 C   0  0  0  0  0  0  0  0  0  0  0  0
   35.5720   32.8080   37.2000 H   0  0  0  0  0  0  0  0  0  0  0  0
   33.9900   31.7180   36.0820 N   0  0  0  0  0  0  0  0  0  0  0  0
   33.1790   32.2110   36.5160 H   0  0  0  0  0  0  0  0  0  0  0  0
   34.0490   30.7680   35.1740 N   0  0  0  0  0  0  0  0  0  0  0  0
  1  6  2  0  0  0  0
  1  2  1  0  0  0  0
  2  3  2  0  0  0  0
  3  4  1  0  0  0  0
  3 23  1  0  0  0  0
  5 10  1  0  0  0  0
  5  4  2  0  0  0  0
  6  5  1  0  0  0  0
  7  1  1  0  0  0  0
  8  2  1  0  0  0  0
  9 17  2  0  0  0  0
  9 10  1  0  0  0  0
 10 11  2  0  0  0  0
 11 12  1  0  0  0  0
 11 19  1  0  0  0  0
 12 13  1  0  0  0  0
 13 20  1  0  0  0  0
 14 13  1  0  0  0  0
 14 21  1  0  0  0  0
 15 14  2  0  0  0  0
 16 15  1  0  0  0  0
 16 12  2  0  0  0  0
 17 16  1  0  0  0  0
 18  9  1  0  0  0  0
 22 17  1  0  0  0  0
 23 30  2  0  0  0  0
 23 24  1  0  0  0  0
 24 25  1  0  0  0  0
 24 26  2  0  0  0  0
 26 27  1  0  0  0  0
 28 26  1  0  0  0  0
 28 29  1  0  0  0  0
 30 28  1  0  0  0  0
M  END
>  <minimizedAffinity>
-5.36229897

$$$$
