
 OpenBabel03272506493D

 41 44  0  0  1  0  0  0  0  0999 V2000
   37.1650   25.7110   31.1550 C   0  0  2  0  0  0  0  0  0  0  0  0
   37.3070   24.2640   31.5270 C   0  0  1  0  0  0  0  0  0  0  0  0
   37.8440   24.2000   32.7790 O   0  0  0  0  0  0  0  0  0  0  0  0
   37.7750   25.4590   33.3690 C   0  0  0  0  0  0  0  0  0  0  0  0
   36.8040   26.2850   32.5650 C   0  0  1  0  0  0  0  0  0  0  0  0
   38.0770   26.1590   30.7810 H   0  0  0  0  0  0  0  0  0  0  0  0
   37.9310   23.6980   30.8060 H   0  0  0  0  0  0  0  0  0  0  0  0
   38.7740   25.8460   33.4720 H   0  0  0  0  0  0  0  0  0  0  0  0
   37.2700   25.2770   34.3580 H   0  0  0  0  0  0  0  0  0  0  0  0
   35.7600   26.0190   32.6960 H   0  0  0  0  0  0  0  0  0  0  0  0
   36.0640   25.8930   30.2940 O   0  0  0  0  0  0  0  0  0  0  0  0
   35.2500   25.6650   30.7690 H   0  0  0  0  0  0  0  0  0  0  0  0
   35.6240   23.5320   31.5860 S   0  0  0  0  0  0  0  0  0  0  0  0
   34.9400   19.6730   32.1530 C   0  0  0  0  0  0  0  0  0  0  0  0
   35.9610   19.0220   31.4550 C   0  0  0  0  0  0  0  0  0  0  0  0
   36.8940   19.7970   30.7870 C   0  0  0  0  0  0  0  0  0  0  0  0
   36.7720   21.1600   30.8420 N   0  0  0  0  0  0  0  0  0  0  0  0
   35.7730   21.7530   31.5260 C   0  0  0  0  0  0  0  0  0  0  0  0
   34.8420   21.0180   32.1920 N   0  0  0  0  0  0  0  0  0  0  0  0
   34.1980   19.0920   32.6840 H   0  0  0  0  0  0  0  0  0  0  0  0
   36.0310   17.9410   31.4290 H   0  0  0  0  0  0  0  0  0  0  0  0
   37.6920   19.3460   30.2390 H   0  0  0  0  0  0  0  0  0  0  0  0
   37.1560   27.6100   32.6560 O   0  0  0  0  0  0  0  0  0  0  0  0
   36.7700   28.5950   35.3920 Cl  0  0  0  0  0  0  0  0  0  0  0  0
   36.0540   29.1940   33.9120 C   0  0  0  0  0  0  0  0  0  0  0  0
   36.3260   28.6490   32.6770 C   0  0  0  0  0  0  0  0  0  0  0  0
   35.7200   29.2270   31.5560 C   0  0  0  0  0  0  0  0  0  0  0  0
   34.8810   30.3010   31.6940 C   0  0  0  0  0  0  0  0  0  0  0  0
   34.6010   30.8570   32.9310 C   0  0  0  0  0  0  0  0  0  0  0  0
   35.2070   30.2830   34.0620 C   0  0  0  0  0  0  0  0  0  0  0  0
   35.8910   28.8560   30.5600 H   0  0  0  0  0  0  0  0  0  0  0  0
   34.4310   30.7210   30.8100 H   0  0  0  0  0  0  0  0  0  0  0  0
   33.9310   31.6960   32.9180 H   0  0  0  0  0  0  0  0  0  0  0  0
   34.8390   30.9460   35.2950 C   0  0  0  0  0  0  0  0  0  0  0  0
   33.6590   31.1270   35.9670 C   0  0  0  0  0  0  0  0  0  0  0  0
   32.6920   30.7700   35.6690 H   0  0  0  0  0  0  0  0  0  0  0  0
   33.7840   31.8430   37.1320 C   0  0  0  0  0  0  0  0  0  0  0  0
   33.0570   32.1420   37.8600 H   0  0  0  0  0  0  0  0  0  0  0  0
   35.1000   32.1040   37.1580 N   0  0  0  0  0  0  0  0  0  0  0  0
   35.6750   32.6270   37.8560 H   0  0  0  0  0  0  0  0  0  0  0  0
   35.6960   31.5880   36.1050 N   0  0  0  0  0  0  0  0  0  0  0  0
  1  6  1  6  0  0  0
  1  2  1  0  0  0  0
  1  5  1  0  0  0  0
  2  7  1  6  0  0  0
  2 13  1  0  0  0  0
  2  3  1  0  0  0  0
  3  4  1  0  0  0  0
  4  8  1  0  0  0  0
  4  9  1  0  0  0  0
  5 23  1  0  0  0  0
  5 10  1  1  0  0  0
  5  4  1  0  0  0  0
 11 12  1  0  0  0  0
 11  1  1  0  0  0  0
 14 19  1  0  0  0  0
 14 20  1  0  0  0  0
 15 14  2  0  0  0  0
 16 17  2  0  0  0  0
 16 15  1  0  0  0  0
 17 18  1  0  0  0  0
 18 13  1  0  0  0  0
 18 19  2  0  0  0  0
 21 15  1  0  0  0  0
 22 16  1  0  0  0  0
 23 26  1  0  0  0  0
 25 30  1  0  0  0  0
 25 24  1  0  0  0  0
 26 25  2  0  0  0  0
 27 28  2  0  0  0  0
 27 26  1  0  0  0  0
 28 29  1  0  0  0  0
 29 30  2  0  0  0  0
 30 34  1  0  0  0  0
 31 27  1  0  0  0  0
 32 28  1  0  0  0  0
 33 29  1  0  0  0  0
 34 35  1  0  0  0  0
 34 41  2  0  0  0  0
 35 37  2  0  0  0  0
 36 35  1  0  0  0  0
 37 39  1  0  0  0  0
 37 38  1  0  0  0  0
 39 40  1  0  0  0  0
 41 39  1  0  0  0  0
M  END
>  <minimizedAffinity>
-5.81348705

$$$$

 OpenBabel03272506493D

 41 44  0  0  1  0  0  0  0  0999 V2000
   37.1940   27.9910   33.0550 C   0  0  2  0  0  0  0  0  0  0  0  0
   36.2610   28.9620   32.3940 C   0  0  1  0  0  0  0  0  0  0  0  0
   36.0610   28.5490   31.1100 O   0  0  0  0  0  0  0  0  0  0  0  0
   36.5280   27.2450   30.9730 C   0  0  0  0  0  0  0  0  0  0  0  0
   36.7060   26.6780   32.3580 C   0  0  1  0  0  0  0  0  0  0  0  0
   38.2400   28.1730   32.8400 H   0  0  0  0  0  0  0  0  0  0  0  0
   36.6430   30.0020   32.4140 H   0  0  0  0  0  0  0  0  0  0  0  0
   37.3960   27.2540   30.3370 H   0  0  0  0  0  0  0  0  0  0  0  0
   35.6610   26.6830   30.5260 H   0  0  0  0  0  0  0  0  0  0  0  0
   35.7830   26.4360   32.8750 H   0  0  0  0  0  0  0  0  0  0  0  0
   36.9190   27.9040   34.4350 O   0  0  0  0  0  0  0  0  0  0  0  0
   36.0310   27.5350   34.5580 H   0  0  0  0  0  0  0  0  0  0  0  0
   34.6530   28.8850   33.2780 S   0  0  0  0  0  0  0  0  0  0  0  0
   33.4960   31.2470   36.2380 C   0  0  0  0  0  0  0  0  0  0  0  0
   34.6610   31.8990   36.6520 C   0  0  0  0  0  0  0  0  0  0  0  0
   35.8450   31.6010   35.9980 C   0  0  0  0  0  0  0  0  0  0  0  0
   35.8170   30.6870   34.9790 N   0  0  0  0  0  0  0  0  0  0  0  0
   34.6740   30.0780   34.6070 C   0  0  0  0  0  0  0  0  0  0  0  0
   33.4960   30.3500   35.2310 N   0  0  0  0  0  0  0  0  0  0  0  0
   32.5570   31.4600   36.7310 H   0  0  0  0  0  0  0  0  0  0  0  0
   34.6520   32.6180   37.4630 H   0  0  0  0  0  0  0  0  0  0  0  0
   36.7620   32.0720   36.2790 H   0  0  0  0  0  0  0  0  0  0  0  0
   37.7070   25.7380   32.3350 O   0  0  0  0  0  0  0  0  0  0  0  0
   39.3170   25.6350   34.7850 Cl  0  0  0  0  0  0  0  0  0  0  0  0
   38.3980   24.3490   34.0370 C   0  0  0  0  0  0  0  0  0  0  0  0
   37.6670   24.5260   32.8840 C   0  0  0  0  0  0  0  0  0  0  0  0
   36.9450   23.4340   32.3890 C   0  0  0  0  0  0  0  0  0  0  0  0
   36.9720   22.2290   33.0380 C   0  0  0  0  0  0  0  0  0  0  0  0
   37.7030   22.0400   34.1990 C   0  0  0  0  0  0  0  0  0  0  0  0
   38.4310   23.1320   34.7030 C   0  0  0  0  0  0  0  0  0  0  0  0
   36.3480   23.5030   31.4950 H   0  0  0  0  0  0  0  0  0  0  0  0
   36.4050   21.4100   32.6300 H   0  0  0  0  0  0  0  0  0  0  0  0
   37.6500   21.0540   34.6220 H   0  0  0  0  0  0  0  0  0  0  0  0
   39.1550   22.8140   35.9160 C   0  0  0  0  0  0  0  0  0  0  0  0
   40.4070   22.3240   36.1800 C   0  0  0  0  0  0  0  0  0  0  0  0
   41.1560   22.0610   35.4590 H   0  0  0  0  0  0  0  0  0  0  0  0
   40.6770   22.1750   37.5190 C   0  0  0  0  0  0  0  0  0  0  0  0
   41.5500   21.8210   38.0290 H   0  0  0  0  0  0  0  0  0  0  0  0
   39.5330   22.5940   38.0810 N   0  0  0  0  0  0  0  0  0  0  0  0
   39.2560   22.6650   39.0870 H   0  0  0  0  0  0  0  0  0  0  0  0
   38.6680   22.9580   37.1590 N   0  0  0  0  0  0  0  0  0  0  0  0
  1  6  1  6  0  0  0
  1 11  1  0  0  0  0
  2  7  1  1  0  0  0
  2  1  1  0  0  0  0
  2 13  1  0  0  0  0
  3  2  1  0  0  0  0
  4  3  1  0  0  0  0
  4  5  1  0  0  0  0
  5 10  1  1  0  0  0
  5  1  1  0  0  0  0
  8  4  1  0  0  0  0
  9  4  1  0  0  0  0
 11 12  1  0  0  0  0
 13 18  1  0  0  0  0
 14 15  1  0  0  0  0
 14 20  1  0  0  0  0
 15 21  1  0  0  0  0
 16 22  1  0  0  0  0
 16 15  2  0  0  0  0
 17 16  1  0  0  0  0
 18 17  2  0  0  0  0
 18 19  1  0  0  0  0
 19 14  2  0  0  0  0
 23  5  1  0  0  0  0
 23 26  1  0  0  0  0
 25 30  1  0  0  0  0
 25 24  1  0  0  0  0
 26 25  2  0  0  0  0
 27 26  1  0  0  0  0
 27 28  2  0  0  0  0
 28 29  1  0  0  0  0
 29 33  1  0  0  0  0
 29 30  2  0  0  0  0
 30 34  1  0  0  0  0
 31 27  1  0  0  0  0
 32 28  1  0  0  0  0
 34 35  1  0  0  0  0
 34 41  2  0  0  0  0
 35 37  2  0  0  0  0
 36 35  1  0  0  0  0
 37 38  1  0  0  0  0
 37 39  1  0  0  0  0
 39 40  1  0  0  0  0
 41 39  1  0  0  0  0
M  END
>  <minimizedAffinity>
-5.7552247

$$$$

 OpenBabel03272506493D

 41 44  0  0  1  0  0  0  0  0999 V2000
   36.7570   28.6370   31.6740 C   0  0  2  0  0  0  0  0  0  0  0  0
   37.1050   27.2030   31.9460 C   0  0  1  0  0  0  0  0  0  0  0  0
   37.1310   27.0240   33.2980 O   0  0  0  0  0  0  0  0  0  0  0  0
   36.5370   28.1210   33.9150 C   0  0  0  0  0  0  0  0  0  0  0  0
   35.7650   28.8720   32.8600 C   0  0  1  0  0  0  0  0  0  0  0  0
   37.6020   29.3120   31.7420 H   0  0  0  0  0  0  0  0  0  0  0  0
   38.0720   26.9050   31.4950 H   0  0  0  0  0  0  0  0  0  0  0  0
   37.2940   28.6700   34.4460 H   0  0  0  0  0  0  0  0  0  0  0  0
   35.7600   27.6720   34.5950 H   0  0  0  0  0  0  0  0  0  0  0  0
   34.8490   28.3890   32.5340 H   0  0  0  0  0  0  0  0  0  0  0  0
   36.0520   28.7510   30.4590 O   0  0  0  0  0  0  0  0  0  0  0  0
   35.2030   28.2900   30.5420 H   0  0  0  0  0  0  0  0  0  0  0  0
   35.7600   26.1590   31.2560 S   0  0  0  0  0  0  0  0  0  0  0  0
   35.9030   22.2090   31.4870 C   0  0  0  0  0  0  0  0  0  0  0  0
   37.1810   21.8700   31.0350 C   0  0  0  0  0  0  0  0  0  0  0  0
   38.0300   22.8920   30.6450 C   0  0  0  0  0  0  0  0  0  0  0  0
   37.5780   24.1830   30.7230 N   0  0  0  0  0  0  0  0  0  0  0  0
   36.3380   24.4710   31.1640 C   0  0  0  0  0  0  0  0  0  0  0  0
   35.4820   23.4880   31.5530 N   0  0  0  0  0  0  0  0  0  0  0  0
   35.2190   21.4300   31.7970 H   0  0  0  0  0  0  0  0  0  0  0  0
   37.5110   20.8390   30.9850 H   0  0  0  0  0  0  0  0  0  0  0  0
   39.0170   22.6830   30.2920 H   0  0  0  0  0  0  0  0  0  0  0  0
   35.7170   30.2020   33.1980 O   0  0  0  0  0  0  0  0  0  0  0  0
   32.8210   29.8230   33.4770 Cl  0  0  0  0  0  0  0  0  0  0  0  0
   33.9250   30.6050   34.5860 C   0  0  0  0  0  0  0  0  0  0  0  0
   35.2760   30.7110   34.3460 C   0  0  0  0  0  0  0  0  0  0  0  0
   36.0690   31.3320   35.3170 C   0  0  0  0  0  0  0  0  0  0  0  0
   35.5090   31.8180   36.4680 C   0  0  0  0  0  0  0  0  0  0  0  0
   34.1510   31.7170   36.7200 C   0  0  0  0  0  0  0  0  0  0  0  0
   33.3470   31.0940   35.7500 C   0  0  0  0  0  0  0  0  0  0  0  0
   37.1330   31.4450   35.1970 H   0  0  0  0  0  0  0  0  0  0  0  0
   36.1490   32.2910   37.1940 H   0  0  0  0  0  0  0  0  0  0  0  0
   33.8240   32.1330   37.6550 H   0  0  0  0  0  0  0  0  0  0  0  0
   31.9490   31.0480   36.1230 C   0  0  0  0  0  0  0  0  0  0  0  0
   30.8940   31.9100   35.9790 C   0  0  0  0  0  0  0  0  0  0  0  0
   30.9150   32.8770   35.5140 H   0  0  0  0  0  0  0  0  0  0  0  0
   29.7130   31.4390   36.5010 C   0  0  0  0  0  0  0  0  0  0  0  0
   28.7340   31.8740   36.5420 H   0  0  0  0  0  0  0  0  0  0  0  0
   30.0800   30.2410   36.9790 N   0  0  0  0  0  0  0  0  0  0  0  0
   29.5220   29.5050   37.4710 H   0  0  0  0  0  0  0  0  0  0  0  0
   31.3580   30.0240   36.7600 N   0  0  0  0  0  0  0  0  0  0  0  0
  1  6  1  1  0  0  0
  1  2  1  0  0  0  0
  1  5  1  0  0  0  0
  2  7  1  6  0  0  0
  2  3  1  0  0  0  0
  3  4  1  0  0  0  0
  4  8  1  0  0  0  0
  4  9  1  0  0  0  0
  5 10  1  6  0  0  0
  5 23  1  0  0  0  0
  5  4  1  0  0  0  0
 11 12  1  0  0  0  0
 11  1  1  0  0  0  0
 13  2  1  0  0  0  0
 14 19  1  0  0  0  0
 14 20  1  0  0  0  0
 15 14  2  0  0  0  0
 16 17  2  0  0  0  0
 16 15  1  0  0  0  0
 17 18  1  0  0  0  0
 18 13  1  0  0  0  0
 18 19  2  0  0  0  0
 21 15  1  0  0  0  0
 22 16  1  0  0  0  0
 23 26  1  0  0  0  0
 24 25  1  0  0  0  0
 25 30  1  0  0  0  0
 26 25  2  0  0  0  0
 26 27  1  0  0  0  0
 27 28  2  0  0  0  0
 28 29  1  0  0  0  0
 28 32  1  0  0  0  0
 29 33  1  0  0  0  0
 30 34  1  0  0  0  0
 30 29  2  0  0  0  0
 31 27  1  0  0  0  0
 34 41  2  0  0  0  0
 35 34  1  0  0  0  0
 35 37  2  0  0  0  0
 36 35  1  0  0  0  0
 37 38  1  0  0  0  0
 37 39  1  0  0  0  0
 39 40  1  0  0  0  0
 41 39  1  0  0  0  0
M  END
>  <minimizedAffinity>
-5.70781517

$$$$

 OpenBabel03272506493D

 41 44  0  0  1  0  0  0  0  0999 V2000
   37.0900   25.5070   31.0240 C   0  0  2  0  0  0  0  0  0  0  0  0
   37.2250   24.0430   31.3260 C   0  0  1  0  0  0  0  0  0  0  0  0
   37.8880   23.9160   32.5110 O   0  0  0  0  0  0  0  0  0  0  0  0
   37.9220   25.1520   33.1490 C   0  0  0  0  0  0  0  0  0  0  0  0
   36.8980   26.0350   32.4840 C   0  0  1  0  0  0  0  0  0  0  0  0
   37.9710   25.9440   30.5710 H   0  0  0  0  0  0  0  0  0  0  0  0
   37.7510   23.4890   30.5230 H   0  0  0  0  0  0  0  0  0  0  0  0
   38.9380   25.5080   33.1590 H   0  0  0  0  0  0  0  0  0  0  0  0
   37.5190   24.9450   34.1800 H   0  0  0  0  0  0  0  0  0  0  0  0
   35.8660   25.7930   32.7160 H   0  0  0  0  0  0  0  0  0  0  0  0
   35.9110   25.7530   30.2920 O   0  0  0  0  0  0  0  0  0  0  0  0
   35.1440   25.5290   30.8430 H   0  0  0  0  0  0  0  0  0  0  0  0
   35.5350   23.3560   31.5380 S   0  0  0  0  0  0  0  0  0  0  0  0
   35.4990   19.7930   33.2650 C   0  0  0  0  0  0  0  0  0  0  0  0
   35.8480   18.8990   32.2490 C   0  0  0  0  0  0  0  0  0  0  0  0
   36.1040   19.4090   30.9880 C   0  0  0  0  0  0  0  0  0  0  0  0
   36.0050   20.7620   30.7970 N   0  0  0  0  0  0  0  0  0  0  0  0
   35.6650   21.5940   31.8020 C   0  0  0  0  0  0  0  0  0  0  0  0
   35.4070   21.1210   33.0510 N   0  0  0  0  0  0  0  0  0  0  0  0
   35.2940   19.4210   34.2600 H   0  0  0  0  0  0  0  0  0  0  0  0
   35.9190   17.8330   32.4300 H   0  0  0  0  0  0  0  0  0  0  0  0
   36.3740   18.7660   30.1790 H   0  0  0  0  0  0  0  0  0  0  0  0
   37.3000   27.3450   32.5850 O   0  0  0  0  0  0  0  0  0  0  0  0
   36.5310   29.0700   30.3400 Cl  0  0  0  0  0  0  0  0  0  0  0  0
   36.1460   29.2610   32.0350 C   0  0  0  0  0  0  0  0  0  0  0  0
   36.5590   28.3700   33.0000 C   0  0  0  0  0  0  0  0  0  0  0  0
   36.1680   28.6050   34.3220 C   0  0  0  0  0  0  0  0  0  0  0  0
   35.3990   29.6940   34.6390 C   0  0  0  0  0  0  0  0  0  0  0  0
   34.9780   30.5960   33.6760 C   0  0  0  0  0  0  0  0  0  0  0  0
   35.3660   30.3660   32.3450 C   0  0  0  0  0  0  0  0  0  0  0  0
   36.4500   27.9470   35.1270 H   0  0  0  0  0  0  0  0  0  0  0  0
   35.1160   29.8450   35.6670 H   0  0  0  0  0  0  0  0  0  0  0  0
   34.3790   31.4110   34.0390 H   0  0  0  0  0  0  0  0  0  0  0  0
   34.8690   31.3740   31.4320 C   0  0  0  0  0  0  0  0  0  0  0  0
   35.4230   32.4710   30.8270 C   0  0  0  0  0  0  0  0  0  0  0  0
   36.4330   32.8180   30.9310 H   0  0  0  0  0  0  0  0  0  0  0  0
   34.5540   33.1610   30.0170 C   0  0  0  0  0  0  0  0  0  0  0  0
   34.6890   34.0420   29.4220 H   0  0  0  0  0  0  0  0  0  0  0  0
   33.4270   32.4430   30.1440 N   0  0  0  0  0  0  0  0  0  0  0  0
   32.4840   32.5770   29.7140 H   0  0  0  0  0  0  0  0  0  0  0  0
   33.6150   31.4230   30.9540 N   0  0  0  0  0  0  0  0  0  0  0  0
  1  6  1  6  0  0  0
  1  2  1  0  0  0  0
  1  5  1  0  0  0  0
  2  7  1  6  0  0  0
  2 13  1  0  0  0  0
  2  3  1  0  0  0  0
  3  4  1  0  0  0  0
  4  8  1  0  0  0  0
  4  9  1  0  0  0  0
  5 23  1  0  0  0  0
  5 10  1  1  0  0  0
  5  4  1  0  0  0  0
 11 12  1  0  0  0  0
 11  1  1  0  0  0  0
 13 18  1  0  0  0  0
 14 20  1  0  0  0  0
 15 21  1  0  0  0  0
 15 14  2  0  0  0  0
 16 15  1  0  0  0  0
 17 16  2  0  0  0  0
 17 18  1  0  0  0  0
 18 19  2  0  0  0  0
 19 14  1  0  0  0  0
 22 16  1  0  0  0  0
 23 26  1  0  0  0  0
 24 25  1  0  0  0  0
 25 30  2  0  0  0  0
 25 26  1  0  0  0  0
 26 27  2  0  0  0  0
 27 28  1  0  0  0  0
 27 31  1  0  0  0  0
 28 32  1  0  0  0  0
 29 33  1  0  0  0  0
 29 28  2  0  0  0  0
 30 29  1  0  0  0  0
 34 30  1  0  0  0  0
 35 36  1  0  0  0  0
 35 34  1  0  0  0  0
 37 39  1  0  0  0  0
 37 35  2  0  0  0  0
 38 37  1  0  0  0  0
 39 41  1  0  0  0  0
 40 39  1  0  0  0  0
 41 34  2  0  0  0  0
M  END
>  <minimizedAffinity>
-5.39132357

$$$$

 OpenBabel03272506493D

 41 44  0  0  1  0  0  0  0  0999 V2000
   37.8060   26.9910   30.6940 C   0  0  2  0  0  0  0  0  0  0  0  0
   36.4350   27.5840   30.5530 C   0  0  1  0  0  0  0  0  0  0  0  0
   35.5370   26.7030   31.0810 O   0  0  0  0  0  0  0  0  0  0  0  0
   36.2220   25.7430   31.8200 C   0  0  0  0  0  0  0  0  0  0  0  0
   37.6140   26.2670   32.0670 C   0  0  1  0  0  0  0  0  0  0  0  0
   38.0570   26.2790   29.9170 H   0  0  0  0  0  0  0  0  0  0  0  0
   36.1770   27.8190   29.5010 H   0  0  0  0  0  0  0  0  0  0  0  0
   36.1420   24.7960   31.3150 H   0  0  0  0  0  0  0  0  0  0  0  0
   35.7140   25.7500   32.8250 H   0  0  0  0  0  0  0  0  0  0  0  0
   37.6780   27.0680   32.7960 H   0  0  0  0  0  0  0  0  0  0  0  0
   38.7700   28.0080   30.8450 O   0  0  0  0  0  0  0  0  0  0  0  0
   38.6040   28.4790   31.6770 H   0  0  0  0  0  0  0  0  0  0  0  0
   36.3840   29.1220   31.5550 S   0  0  0  0  0  0  0  0  0  0  0  0
   35.6180   32.6530   29.9330 C   0  0  0  0  0  0  0  0  0  0  0  0
   36.4080   32.6970   28.7810 C   0  0  0  0  0  0  0  0  0  0  0  0
   37.2050   31.6020   28.4920 C   0  0  0  0  0  0  0  0  0  0  0  0
   37.1790   30.5310   29.3460 N   0  0  0  0  0  0  0  0  0  0  0  0
   36.4040   30.5250   30.4480 C   0  0  0  0  0  0  0  0  0  0  0  0
   35.6120   31.5860   30.7580 N   0  0  0  0  0  0  0  0  0  0  0  0
   34.9860   33.4950   30.1840 H   0  0  0  0  0  0  0  0  0  0  0  0
   36.4070   33.5590   28.1250 H   0  0  0  0  0  0  0  0  0  0  0  0
   37.8270   31.5890   27.6240 H   0  0  0  0  0  0  0  0  0  0  0  0
   38.4800   25.2070   32.1840 O   0  0  0  0  0  0  0  0  0  0  0  0
   39.0140   25.7900   35.0090 Cl  0  0  0  0  0  0  0  0  0  0  0  0
   38.5420   24.2690   34.2850 C   0  0  0  0  0  0  0  0  0  0  0  0
   38.3070   24.1240   32.9370 C   0  0  0  0  0  0  0  0  0  0  0  0
   37.9060   22.8670   32.4720 C   0  0  0  0  0  0  0  0  0  0  0  0
   37.7560   21.8180   33.3390 C   0  0  0  0  0  0  0  0  0  0  0  0
   37.9890   21.9530   34.6980 C   0  0  0  0  0  0  0  0  0  0  0  0
   38.3920   23.2130   35.1730 C   0  0  0  0  0  0  0  0  0  0  0  0
   37.7010   22.6830   31.4300 H   0  0  0  0  0  0  0  0  0  0  0  0
   37.4460   20.8640   32.9470 H   0  0  0  0  0  0  0  0  0  0  0  0
   37.8380   21.0640   35.2810 H   0  0  0  0  0  0  0  0  0  0  0  0
   38.6050   23.2310   36.6050 C   0  0  0  0  0  0  0  0  0  0  0  0
   37.9420   23.7970   37.6620 C   0  0  0  0  0  0  0  0  0  0  0  0
   37.0490   24.3890   37.6140 H   0  0  0  0  0  0  0  0  0  0  0  0
   38.5220   23.5480   38.8830 C   0  0  0  0  0  0  0  0  0  0  0  0
   38.2430   23.8490   39.8730 H   0  0  0  0  0  0  0  0  0  0  0  0
   39.5820   22.8000   38.5390 N   0  0  0  0  0  0  0  0  0  0  0  0
   40.3290   22.3680   39.1290 H   0  0  0  0  0  0  0  0  0  0  0  0
   39.6230   22.6230   37.2360 N   0  0  0  0  0  0  0  0  0  0  0  0
  1  6  1  6  0  0  0
  1 11  1  0  0  0  0
  1  5  1  0  0  0  0
  2  7  1  6  0  0  0
  2  1  1  0  0  0  0
  2  3  1  0  0  0  0
  2 13  1  0  0  0  0
  3  4  1  0  0  0  0
  4  5  1  0  0  0  0
  4  9  1  0  0  0  0
  5 23  1  0  0  0  0
  5 10  1  1  0  0  0
  8  4  1  0  0  0  0
 11 12  1  0  0  0  0
 14 20  1  0  0  0  0
 14 19  1  0  0  0  0
 15 14  2  0  0  0  0
 16 15  1  0  0  0  0
 16 17  2  0  0  0  0
 17 18  1  0  0  0  0
 18 19  2  0  0  0  0
 18 13  1  0  0  0  0
 21 15  1  0  0  0  0
 22 16  1  0  0  0  0
 23 26  1  0  0  0  0
 25 24  1  0  0  0  0
 25 30  1  0  0  0  0
 26 25  2  0  0  0  0
 27 26  1  0  0  0  0
 27 28  2  0  0  0  0
 28 29  1  0  0  0  0
 29 30  2  0  0  0  0
 29 33  1  0  0  0  0
 30 34  1  0  0  0  0
 31 27  1  0  0  0  0
 32 28  1  0  0  0  0
 34 41  2  0  0  0  0
 34 35  1  0  0  0  0
 35 37  2  0  0  0  0
 36 35  1  0  0  0  0
 37 38  1  0  0  0  0
 39 37  1  0  0  0  0
 39 40  1  0  0  0  0
 41 39  1  0  0  0  0
M  END
>  <minimizedAffinity>
-5.3329978

$$$$

 OpenBabel03272506493D

 41 44  0  0  1  0  0  0  0  0999 V2000
   37.0840   27.9930   32.9900 C   0  0  2  0  0  0  0  0  0  0  0  0
   36.1640   29.0300   32.4160 C   0  0  1  0  0  0  0  0  0  0  0  0
   35.9100   28.6980   31.1180 O   0  0  0  0  0  0  0  0  0  0  0  0
   36.3290   27.3900   30.8920 C   0  0  0  0  0  0  0  0  0  0  0  0
   36.5300   26.7390   32.2370 C   0  0  1  0  0  0  0  0  0  0  0  0
   38.1280   28.1530   32.7510 H   0  0  0  0  0  0  0  0  0  0  0  0
   36.5820   30.0540   32.4820 H   0  0  0  0  0  0  0  0  0  0  0  0
   37.1760   27.4080   30.2290 H   0  0  0  0  0  0  0  0  0  0  0  0
   35.4290   26.8830   30.4430 H   0  0  0  0  0  0  0  0  0  0  0  0
   35.6160   26.4970   32.7690 H   0  0  0  0  0  0  0  0  0  0  0  0
   36.8500   27.8350   34.3710 O   0  0  0  0  0  0  0  0  0  0  0  0
   35.9530   27.4880   34.5020 H   0  0  0  0  0  0  0  0  0  0  0  0
   34.5820   28.9530   33.3470 S   0  0  0  0  0  0  0  0  0  0  0  0
   35.9130   31.6020   35.9720 C   0  0  0  0  0  0  0  0  0  0  0  0
   34.7830   31.9790   36.7040 C   0  0  0  0  0  0  0  0  0  0  0  0
   33.5690   31.3990   36.3790 C   0  0  0  0  0  0  0  0  0  0  0  0
   33.5330   30.4840   35.3600 N   0  0  0  0  0  0  0  0  0  0  0  0
   34.6440   30.1450   34.6760 C   0  0  0  0  0  0  0  0  0  0  0  0
   35.8510   30.6990   34.9730 N   0  0  0  0  0  0  0  0  0  0  0  0
   36.8740   32.0400   36.2050 H   0  0  0  0  0  0  0  0  0  0  0  0
   34.8430   32.7060   37.5050 H   0  0  0  0  0  0  0  0  0  0  0  0
   32.6780   31.6550   36.9090 H   0  0  0  0  0  0  0  0  0  0  0  0
   37.4980   25.7700   32.1270 O   0  0  0  0  0  0  0  0  0  0  0  0
   36.1760   23.4450   30.9210 Cl  0  0  0  0  0  0  0  0  0  0  0  0
   37.0360   23.5360   32.4420 C   0  0  0  0  0  0  0  0  0  0  0  0
   37.6280   24.6920   32.8970 C   0  0  0  0  0  0  0  0  0  0  0  0
   38.3160   24.6420   34.1150 C   0  0  0  0  0  0  0  0  0  0  0  0
   38.3900   23.4740   34.8260 C   0  0  0  0  0  0  0  0  0  0  0  0
   37.7980   22.3050   34.3770 C   0  0  0  0  0  0  0  0  0  0  0  0
   37.1060   22.3470   33.1540 C   0  0  0  0  0  0  0  0  0  0  0  0
   38.8060   25.5070   34.5290 H   0  0  0  0  0  0  0  0  0  0  0  0
   38.9270   23.4720   35.7600 H   0  0  0  0  0  0  0  0  0  0  0  0
   37.9220   21.4520   35.0160 H   0  0  0  0  0  0  0  0  0  0  0  0
   36.5310   21.0690   32.7900 C   0  0  0  0  0  0  0  0  0  0  0  0
   35.2830   20.5170   32.9050 C   0  0  0  0  0  0  0  0  0  0  0  0
   34.4140   20.9810   33.3290 H   0  0  0  0  0  0  0  0  0  0  0  0
   35.1900   19.2380   32.4100 C   0  0  0  0  0  0  0  0  0  0  0  0
   34.3640   18.5580   32.3590 H   0  0  0  0  0  0  0  0  0  0  0  0
   36.4420   19.0160   31.9810 N   0  0  0  0  0  0  0  0  0  0  0  0
   36.8650   18.1750   31.5250 H   0  0  0  0  0  0  0  0  0  0  0  0
   37.2020   20.0660   32.2010 N   0  0  0  0  0  0  0  0  0  0  0  0
  1  6  1  6  0  0  0
  1 11  1  0  0  0  0
  2  7  1  1  0  0  0
  2  1  1  0  0  0  0
  2 13  1  0  0  0  0
  3  2  1  0  0  0  0
  4  3  1  0  0  0  0
  4  5  1  0  0  0  0
  5 10  1  1  0  0  0
  5  1  1  0  0  0  0
  8  4  1  0  0  0  0
  9  4  1  0  0  0  0
 11 12  1  0  0  0  0
 13 18  1  0  0  0  0
 14 20  1  0  0  0  0
 14 15  1  0  0  0  0
 15 21  1  0  0  0  0
 16 15  2  0  0  0  0
 16 22  1  0  0  0  0
 17 16  1  0  0  0  0
 18 19  1  0  0  0  0
 18 17  2  0  0  0  0
 19 14  2  0  0  0  0
 23  5  1  0  0  0  0
 23 26  1  0  0  0  0
 24 25  1  0  0  0  0
 25 26  2  0  0  0  0
 25 30  1  0  0  0  0
 26 27  1  0  0  0  0
 27 31  1  0  0  0  0
 27 28  2  0  0  0  0
 28 32  1  0  0  0  0
 29 28  1  0  0  0  0
 29 33  1  0  0  0  0
 30 29  2  0  0  0  0
 34 35  1  0  0  0  0
 34 30  1  0  0  0  0
 35 36  1  0  0  0  0
 37 35  2  0  0  0  0
 38 37  1  0  0  0  0
 39 41  1  0  0  0  0
 39 37  1  0  0  0  0
 40 39  1  0  0  0  0
 41 34  2  0  0  0  0
M  END
>  <minimizedAffinity>
-5.302598

$$$$

 OpenBabel03272506493D

 41 44  0  0  1  0  0  0  0  0999 V2000
   36.1790   27.0270   31.7640 C   0  0  2  0  0  0  0  0  0  0  0  0
   35.4350   28.2710   32.1500 C   0  0  1  0  0  0  0  0  0  0  0  0
   35.7360   28.5570   33.4500 O   0  0  0  0  0  0  0  0  0  0  0  0
   36.8330   27.7950   33.8410 C   0  0  0  0  0  0  0  0  0  0  0  0
   37.4850   27.2620   32.5920 C   0  0  1  0  0  0  0  0  0  0  0  0
   35.6890   26.1110   32.0730 H   0  0  0  0  0  0  0  0  0  0  0  0
   34.3400   28.1730   32.0160 H   0  0  0  0  0  0  0  0  0  0  0  0
   36.5090   27.0710   34.5680 H   0  0  0  0  0  0  0  0  0  0  0  0
   37.5580   28.5470   34.2630 H   0  0  0  0  0  0  0  0  0  0  0  0
   38.0330   27.9980   32.0120 H   0  0  0  0  0  0  0  0  0  0  0  0
   36.4980   27.0490   30.3910 O   0  0  0  0  0  0  0  0  0  0  0  0
   37.1110   27.7810   30.2210 H   0  0  0  0  0  0  0  0  0  0  0  0
   36.0590   29.6450   31.1030 S   0  0  0  0  0  0  0  0  0  0  0  0
   34.2940   33.1500   30.5760 C   0  0  0  0  0  0  0  0  0  0  0  0
   32.9760   32.9550   30.9990 C   0  0  0  0  0  0  0  0  0  0  0  0
   32.6170   31.7010   31.4620 C   0  0  0  0  0  0  0  0  0  0  0  0
   33.5680   30.7150   31.4860 N   0  0  0  0  0  0  0  0  0  0  0  0
   34.8300   30.9410   31.0700 C   0  0  0  0  0  0  0  0  0  0  0  0
   35.2120   32.1620   30.6090 N   0  0  0  0  0  0  0  0  0  0  0  0
   34.6020   34.1200   30.2090 H   0  0  0  0  0  0  0  0  0  0  0  0
   32.2460   33.7540   30.9680 H   0  0  0  0  0  0  0  0  0  0  0  0
   31.6210   31.5020   31.7950 H   0  0  0  0  0  0  0  0  0  0  0  0
   38.1010   26.0680   32.8800 O   0  0  0  0  0  0  0  0  0  0  0  0
   38.0030   23.6420   34.5270 Cl  0  0  0  0  0  0  0  0  0  0  0  0
   39.3020   24.8050   34.3830 C   0  0  0  0  0  0  0  0  0  0  0  0
   39.2330   25.9060   33.5610 C   0  0  0  0  0  0  0  0  0  0  0  0
   40.3440   26.7540   33.5020 C   0  0  0  0  0  0  0  0  0  0  0  0
   41.4630   26.4890   34.2460 C   0  0  0  0  0  0  0  0  0  0  0  0
   41.5440   25.3840   35.0770 C   0  0  0  0  0  0  0  0  0  0  0  0
   40.4320   24.5260   35.1410 C   0  0  0  0  0  0  0  0  0  0  0  0
   40.3600   27.6300   32.8760 H   0  0  0  0  0  0  0  0  0  0  0  0
   42.3000   27.1630   34.1770 H   0  0  0  0  0  0  0  0  0  0  0  0
   42.4690   25.2760   35.6110 H   0  0  0  0  0  0  0  0  0  0  0  0
   40.6330   23.4100   36.0400 C   0  0  0  0  0  0  0  0  0  0  0  0
   41.5070   22.3550   36.0720 C   0  0  0  0  0  0  0  0  0  0  0  0
   42.2830   22.1450   35.3620 H   0  0  0  0  0  0  0  0  0  0  0  0
   41.3270   21.5140   37.1430 C   0  0  0  0  0  0  0  0  0  0  0  0
   41.8430   20.6210   37.4360 H   0  0  0  0  0  0  0  0  0  0  0  0
   40.2970   22.0910   37.7800 N   0  0  0  0  0  0  0  0  0  0  0  0
   39.7980   21.8140   38.6560 H   0  0  0  0  0  0  0  0  0  0  0  0
   39.9060   23.1740   37.1450 N   0  0  0  0  0  0  0  0  0  0  0  0
  1  6  1  1  0  0  0
  1  2  1  0  0  0  0
  1  5  1  0  0  0  0
  2  7  1  6  0  0  0
  2  3  1  0  0  0  0
  3  4  1  0  0  0  0
  4  9  1  0  0  0  0
  4  8  1  0  0  0  0
  5 10  1  6  0  0  0
  5 23  1  0  0  0  0
  5  4  1  0  0  0  0
 11  1  1  0  0  0  0
 12 11  1  0  0  0  0
 13  2  1  0  0  0  0
 14 19  2  0  0  0  0
 14 15  1  0  0  0  0
 15 16  2  0  0  0  0
 16 17  1  0  0  0  0
 16 22  1  0  0  0  0
 18 13  1  0  0  0  0
 18 17  2  0  0  0  0
 19 18  1  0  0  0  0
 20 14  1  0  0  0  0
 21 15  1  0  0  0  0
 23 26  1  0  0  0  0
 25 24  1  0  0  0  0
 25 30  1  0  0  0  0
 26 25  2  0  0  0  0
 27 26  1  0  0  0  0
 27 28  2  0  0  0  0
 28 29  1  0  0  0  0
 29 30  2  0  0  0  0
 29 33  1  0  0  0  0
 30 34  1  0  0  0  0
 31 27  1  0  0  0  0
 32 28  1  0  0  0  0
 34 35  1  0  0  0  0
 34 41  2  0  0  0  0
 35 37  2  0  0  0  0
 36 35  1  0  0  0  0
 37 38  1  0  0  0  0
 37 39  1  0  0  0  0
 39 40  1  0  0  0  0
 41 39  1  0  0  0  0
M  END
>  <minimizedAffinity>
-5.25700951

$$$$

 OpenBabel03272506493D

 41 44  0  0  1  0  0  0  0  0999 V2000
   36.2100   27.2730   30.8470 C   0  0  2  0  0  0  0  0  0  0  0  0
   37.4480   26.4390   30.6930 C   0  0  1  0  0  0  0  0  0  0  0  0
   38.4840   27.2730   30.3910 O   0  0  0  0  0  0  0  0  0  0  0  0
   38.0970   28.5880   30.6370 C   0  0  0  0  0  0  0  0  0  0  0  0
   36.8560   28.5440   31.4900 C   0  0  1  0  0  0  0  0  0  0  0  0
   35.7290   27.5210   29.9080 H   0  0  0  0  0  0  0  0  0  0  0  0
   37.3400   25.6550   29.9180 H   0  0  0  0  0  0  0  0  0  0  0  0
   38.0240   29.1070   29.6970 H   0  0  0  0  0  0  0  0  0  0  0  0
   38.9080   28.9970   31.3030 H   0  0  0  0  0  0  0  0  0  0  0  0
   37.0210   28.2580   32.5240 H   0  0  0  0  0  0  0  0  0  0  0  0
   35.3320   26.6860   31.7800 O   0  0  0  0  0  0  0  0  0  0  0  0
   35.7540   26.6840   32.6540 H   0  0  0  0  0  0  0  0  0  0  0  0
   37.7990   25.6530   32.3150 S   0  0  0  0  0  0  0  0  0  0  0  0
   35.6870   22.4500   31.3350 C   0  0  0  0  0  0  0  0  0  0  0  0
   36.0860   21.4660   32.2430 C   0  0  0  0  0  0  0  0  0  0  0  0
   37.0390   21.7980   33.1910 C   0  0  0  0  0  0  0  0  0  0  0  0
   37.5420   23.0730   33.1940 N   0  0  0  0  0  0  0  0  0  0  0  0
   37.1320   23.9950   32.3020 C   0  0  0  0  0  0  0  0  0  0  0  0
   36.1980   23.6980   31.3590 N   0  0  0  0  0  0  0  0  0  0  0  0
   34.9440   22.2180   30.5840 H   0  0  0  0  0  0  0  0  0  0  0  0
   35.6710   20.4660   32.2160 H   0  0  0  0  0  0  0  0  0  0  0  0
   37.3770   21.0800   33.9060 H   0  0  0  0  0  0  0  0  0  0  0  0
   36.0950   29.6590   31.2350 O   0  0  0  0  0  0  0  0  0  0  0  0
   34.8150   29.4390   33.8660 Cl  0  0  0  0  0  0  0  0  0  0  0  0
   35.5610   30.8430   33.1370 C   0  0  0  0  0  0  0  0  0  0  0  0
   36.1440   30.8170   31.8900 C   0  0  0  0  0  0  0  0  0  0  0  0
   36.7380   31.9920   31.4180 C   0  0  0  0  0  0  0  0  0  0  0  0
   36.7340   33.1300   32.1800 C   0  0  0  0  0  0  0  0  0  0  0  0
   36.1510   33.1680   33.4360 C   0  0  0  0  0  0  0  0  0  0  0  0
   35.5530   31.9910   33.9170 C   0  0  0  0  0  0  0  0  0  0  0  0
   37.2160   32.0420   30.4540 H   0  0  0  0  0  0  0  0  0  0  0  0
   37.2010   34.0170   31.7850 H   0  0  0  0  0  0  0  0  0  0  0  0
   36.2090   34.1130   33.9420 H   0  0  0  0  0  0  0  0  0  0  0  0
   34.9780   32.1510   35.2370 C   0  0  0  0  0  0  0  0  0  0  0  0
   33.7560   32.5600   35.7020 C   0  0  0  0  0  0  0  0  0  0  0  0
   32.9150   32.8660   35.1100 H   0  0  0  0  0  0  0  0  0  0  0  0
   33.6510   32.5590   37.0720 C   0  0  0  0  0  0  0  0  0  0  0  0
   32.8390   32.8220   37.7190 H   0  0  0  0  0  0  0  0  0  0  0  0
   34.8680   32.1300   37.4420 N   0  0  0  0  0  0  0  0  0  0  0  0
   35.2700   31.9660   38.3940 H   0  0  0  0  0  0  0  0  0  0  0  0
   35.6200   31.8990   36.3890 N   0  0  0  0  0  0  0  0  0  0  0  0
  1  6  1  6  0  0  0
  1  5  1  0  0  0  0
  1 11  1  0  0  0  0
  2  7  1  6  0  0  0
  2  1  1  0  0  0  0
  2 13  1  0  0  0  0
  3  4  1  0  0  0  0
  3  2  1  0  0  0  0
  4  9  1  0  0  0  0
  4  5  1  0  0  0  0
  5 10  1  1  0  0  0
  8  4  1  0  0  0  0
 11 12  1  0  0  0  0
 14 19  2  0  0  0  0
 14 15  1  0  0  0  0
 15 16  2  0  0  0  0
 16 17  1  0  0  0  0
 16 22  1  0  0  0  0
 18 13  1  0  0  0  0
 18 17  2  0  0  0  0
 19 18  1  0  0  0  0
 20 14  1  0  0  0  0
 21 15  1  0  0  0  0
 23  5  1  0  0  0  0
 23 26  1  0  0  0  0
 25 24  1  0  0  0  0
 25 30  1  0  0  0  0
 26 25  2  0  0  0  0
 27 26  1  0  0  0  0
 27 28  2  0  0  0  0
 28 29  1  0  0  0  0
 29 30  2  0  0  0  0
 29 33  1  0  0  0  0
 30 34  1  0  0  0  0
 31 27  1  0  0  0  0
 32 28  1  0  0  0  0
 34 35  1  0  0  0  0
 34 41  2  0  0  0  0
 35 37  2  0  0  0  0
 36 35  1  0  0  0  0
 37 39  1  0  0  0  0
 37 38  1  0  0  0  0
 39 40  1  0  0  0  0
 41 39  1  0  0  0  0
M  END
>  <minimizedAffinity>
-5.24055338

$$$$

 OpenBabel03272506493D

 41 44  0  0  1  0  0  0  0  0999 V2000
   37.2450   27.9930   32.8310 C   0  0  2  0  0  0  0  0  0  0  0  0
   36.3490   28.9150   32.0570 C   0  0  1  0  0  0  0  0  0  0  0  0
   36.2380   28.4280   30.7870 O   0  0  0  0  0  0  0  0  0  0  0  0
   36.7260   27.1250   30.7550 C   0  0  0  0  0  0  0  0  0  0  0  0
   36.8160   26.6380   32.1780 C   0  0  1  0  0  0  0  0  0  0  0  0
   38.3010   28.1770   32.6750 H   0  0  0  0  0  0  0  0  0  0  0  0
   36.7190   29.9590   32.0430 H   0  0  0  0  0  0  0  0  0  0  0  0
   37.6340   27.1100   30.1770 H   0  0  0  0  0  0  0  0  0  0  0  0
   35.8950   26.5280   30.2840 H   0  0  0  0  0  0  0  0  0  0  0  0
   35.8630   26.4130   32.6460 H   0  0  0  0  0  0  0  0  0  0  0  0
   36.8800   27.9790   34.1930 O   0  0  0  0  0  0  0  0  0  0  0  0
   35.9880   27.6060   34.2770 H   0  0  0  0  0  0  0  0  0  0  0  0
   34.6860   28.8650   32.8360 S   0  0  0  0  0  0  0  0  0  0  0  0
   31.6270   31.2320   31.9870 C   0  0  0  0  0  0  0  0  0  0  0  0
   32.1660   32.2390   31.1810 C   0  0  0  0  0  0  0  0  0  0  0  0
   33.5180   32.1890   30.8890 C   0  0  0  0  0  0  0  0  0  0  0  0
   34.2610   31.1570   31.3990 N   0  0  0  0  0  0  0  0  0  0  0  0
   33.7050   30.2030   32.1730 C   0  0  0  0  0  0  0  0  0  0  0  0
   32.3800   30.2260   32.4780 N   0  0  0  0  0  0  0  0  0  0  0  0
   30.5730   31.2460   32.2310 H   0  0  0  0  0  0  0  0  0  0  0  0
   31.5540   33.0430   30.7920 H   0  0  0  0  0  0  0  0  0  0  0  0
   33.9770   32.9360   30.2780 H   0  0  0  0  0  0  0  0  0  0  0  0
   37.8260   25.7110   32.2740 O   0  0  0  0  0  0  0  0  0  0  0  0
   39.4020   25.6250   34.7470 Cl  0  0  0  0  0  0  0  0  0  0  0  0
   38.4590   24.3450   34.0160 C   0  0  0  0  0  0  0  0  0  0  0  0
   37.7480   24.5140   32.8500 C   0  0  0  0  0  0  0  0  0  0  0  0
   37.0040   23.4290   32.3710 C   0  0  0  0  0  0  0  0  0  0  0  0
   36.9920   22.2390   33.0480 C   0  0  0  0  0  0  0  0  0  0  0  0
   37.7040   22.0580   34.2220 C   0  0  0  0  0  0  0  0  0  0  0  0
   38.4530   23.1430   34.7100 C   0  0  0  0  0  0  0  0  0  0  0  0
   36.4210   23.4920   31.4670 H   0  0  0  0  0  0  0  0  0  0  0  0
   36.4100   21.4250   32.6510 H   0  0  0  0  0  0  0  0  0  0  0  0
   37.6200   21.0840   34.6660 H   0  0  0  0  0  0  0  0  0  0  0  0
   39.1530   22.8350   35.9400 C   0  0  0  0  0  0  0  0  0  0  0  0
   40.3960   22.3380   36.2310 C   0  0  0  0  0  0  0  0  0  0  0  0
   41.1550   22.0590   35.5270 H   0  0  0  0  0  0  0  0  0  0  0  0
   40.6420   22.2050   37.5770 C   0  0  0  0  0  0  0  0  0  0  0  0
   41.5030   21.8500   38.1060 H   0  0  0  0  0  0  0  0  0  0  0  0
   39.4920   22.6410   38.1130 N   0  0  0  0  0  0  0  0  0  0  0  0
   39.1990   22.7290   39.1130 H   0  0  0  0  0  0  0  0  0  0  0  0
   38.6470   23.0000   37.1720 N   0  0  0  0  0  0  0  0  0  0  0  0
  1  6  1  6  0  0  0
  1 11  1  0  0  0  0
  2  7  1  6  0  0  0
  2  1  1  0  0  0  0
  2 13  1  0  0  0  0
  3  2  1  0  0  0  0
  4  3  1  0  0  0  0
  4  5  1  0  0  0  0
  5 23  1  0  0  0  0
  5 10  1  1  0  0  0
  5  1  1  0  0  0  0
  8  4  1  0  0  0  0
  9  4  1  0  0  0  0
 11 12  1  0  0  0  0
 14 20  1  0  0  0  0
 14 19  1  0  0  0  0
 15 14  2  0  0  0  0
 16 15  1  0  0  0  0
 16 17  2  0  0  0  0
 17 18  1  0  0  0  0
 18 19  2  0  0  0  0
 18 13  1  0  0  0  0
 21 15  1  0  0  0  0
 22 16  1  0  0  0  0
 23 26  1  0  0  0  0
 25 30  1  0  0  0  0
 25 24  1  0  0  0  0
 26 25  2  0  0  0  0
 27 26  1  0  0  0  0
 27 28  2  0  0  0  0
 28 29  1  0  0  0  0
 29 33  1  0  0  0  0
 29 30  2  0  0  0  0
 30 34  1  0  0  0  0
 31 27  1  0  0  0  0
 32 28  1  0  0  0  0
 34 35  1  0  0  0  0
 34 41  2  0  0  0  0
 35 37  2  0  0  0  0
 36 35  1  0  0  0  0
 37 38  1  0  0  0  0
 37 39  1  0  0  0  0
 39 40  1  0  0  0  0
 41 39  1  0  0  0  0
M  END
>  <minimizedAffinity>
-5.18529415

$$$$
