
 OpenBabel03272510293D

 27 29  0  0  0  0  0  0  0  0999 V2000
   37.3510   31.2300   49.2390 C   0  0  0  0  0  0  0  0  0  0  0  0
   38.2280   32.2590   49.5930 C   0  0  0  0  0  0  0  0  0  0  0  0
   38.8520   32.9200   48.5390 C   0  0  0  0  0  0  0  0  0  0  0  0
   38.5870   32.5460   47.2550 N   0  0  0  0  0  0  0  0  0  0  0  0
   37.7160   31.5260   46.9650 C   0  0  0  0  0  0  0  0  0  0  0  0
   37.0790   30.8460   47.9720 N   0  0  0  0  0  0  0  0  0  0  0  0
   38.4130   32.5280   50.6050 H   0  0  0  0  0  0  0  0  0  0  0  0
   39.5400   33.7210   48.6910 H   0  0  0  0  0  0  0  0  0  0  0  0
   36.6380   30.5240   50.3510 C   0  0  0  0  0  0  0  0  0  0  0  0
   36.0090   29.2370   50.1820 C   0  0  0  0  0  0  0  0  0  0  0  0
   37.3770   29.2730   50.8270 C   0  0  0  0  0  0  0  0  0  0  0  0
   36.3130   31.2200   51.1730 H   0  0  0  0  0  0  0  0  0  0  0  0
   35.9710   28.7880   49.1710 H   0  0  0  0  0  0  0  0  0  0  0  0
   35.1860   28.9400   50.8340 H   0  0  0  0  0  0  0  0  0  0  0  0
   38.2580   28.9310   50.2860 H   0  0  0  0  0  0  0  0  0  0  0  0
   37.4590   29.1890   51.9180 H   0  0  0  0  0  0  0  0  0  0  0  0
   37.4180   31.1410   45.5930 C   0  0  0  0  0  0  0  0  0  0  0  0
   36.6770   31.8890   45.1940 H   0  0  0  0  0  0  0  0  0  0  0  0
   36.8700   30.1740   45.6130 H   0  0  0  0  0  0  0  0  0  0  0  0
   38.6450   31.0720   44.7650 C   0  0  0  0  0  0  0  0  0  0  0  0
   38.9180   31.9100   43.7000 C   0  0  0  0  0  0  0  0  0  0  0  0
   38.3410   32.7250   43.2820 H   0  0  0  0  0  0  0  0  0  0  0  0
   40.1530   31.5320   43.1850 C   0  0  0  0  0  0  0  0  0  0  0  0
   40.7540   31.9030   42.3620 H   0  0  0  0  0  0  0  0  0  0  0  0
   40.5950   30.4880   43.9400 N   0  0  0  0  0  0  0  0  0  0  0  0
   41.4700   29.9200   43.8840 H   0  0  0  0  0  0  0  0  0  0  0  0
   39.6870   30.2270   44.8740 N   0  0  0  0  0  0  0  0  0  0  0  0
  1  2  1  0  0  0  0
  1  9  1  0  0  0  0
  2  7  1  0  0  0  0
  3  8  1  0  0  0  0
  3  2  2  0  0  0  0
  4  3  1  0  0  0  0
  5  4  2  0  0  0  0
  5  6  1  0  0  0  0
  6  1  2  0  0  0  0
  9 11  1  0  0  0  0
  9 12  1  0  0  0  0
 10  9  1  0  0  0  0
 10 11  1  0  0  0  0
 10 14  1  0  0  0  0
 11 16  1  0  0  0  0
 13 10  1  0  0  0  0
 15 11  1  0  0  0  0
 17 19  1  0  0  0  0
 17  5  1  0  0  0  0
 18 17  1  0  0  0  0
 20 27  2  0  0  0  0
 20 17  1  0  0  0  0
 21 20  1  0  0  0  0
 22 21  1  0  0  0  0
 23 21  2  0  0  0  0
 23 25  1  0  0  0  0
 24 23  1  0  0  0  0
 25 27  1  0  0  0  0
 26 25  1  0  0  0  0
M  END
>  <minimizedAffinity>
-5.01067591

>  <minimizedRMSD>
2.1933918

$$$$
