
 OpenBabel03272510163D

 27 29  0  0  0  0  0  0  0  0999 V2000
   37.3320   29.3630   51.0720 Br  0  0  0  0  0  0  0  0  0  0  0  0
   35.9720   29.3460   49.7200 C   0  0  0  0  0  0  0  0  0  0  0  0
   35.9880   30.2530   48.6750 C   0  0  0  0  0  0  0  0  0  0  0  0
   34.9830   30.1780   47.7500 C   0  0  0  0  0  0  0  0  0  0  0  0
   33.9630   29.2530   47.8040 C   0  0  0  0  0  0  0  0  0  0  0  0
   33.9680   28.3650   48.8480 C   0  0  0  0  0  0  0  0  0  0  0  0
   34.9690   28.4130   49.8020 C   0  0  0  0  0  0  0  0  0  0  0  0
   35.0150   30.8970   46.9420 H   0  0  0  0  0  0  0  0  0  0  0  0
   33.2010   27.6140   48.9540 H   0  0  0  0  0  0  0  0  0  0  0  0
   34.9860   27.7110   50.6390 H   0  0  0  0  0  0  0  0  0  0  0  0
   37.9990   33.2060   49.4430 C   0  0  0  0  0  0  0  0  0  0  0  0
   39.0340   33.1780   48.4600 C   0  0  0  0  0  0  0  0  0  0  0  0
   39.0090   32.1250   47.5470 C   0  0  0  0  0  0  0  0  0  0  0  0
   38.0180   31.1890   47.6320 N   0  0  0  0  0  0  0  0  0  0  0  0
   37.0530   31.2520   48.5790 C   0  0  0  0  0  0  0  0  0  0  0  0
   37.0470   32.2650   49.4850 N   0  0  0  0  0  0  0  0  0  0  0  0
   37.9610   34.0070   50.1900 H   0  0  0  0  0  0  0  0  0  0  0  0
   39.7880   33.9550   48.4550 H   0  0  0  0  0  0  0  0  0  0  0  0
   39.7740   32.0700   46.7930 H   0  0  0  0  0  0  0  0  0  0  0  0
   32.9260   29.2310   46.7850 C   0  0  0  0  0  0  0  0  0  0  0  0
   32.9810   29.8800   45.5710 C   0  0  0  0  0  0  0  0  0  0  0  0
   33.7930   30.4950   45.2010 H   0  0  0  0  0  0  0  0  0  0  0  0
   31.7950   29.6140   44.8770 C   0  0  0  0  0  0  0  0  0  0  0  0
   31.5860   30.0080   43.8930 H   0  0  0  0  0  0  0  0  0  0  0  0
   31.0680   28.8140   45.6970 N   0  0  0  0  0  0  0  0  0  0  0  0
   30.1380   28.5110   45.3370 H   0  0  0  0  0  0  0  0  0  0  0  0
   31.7460   28.5930   46.8230 N   0  0  0  0  0  0  0  0  0  0  0  0
  2  7  1  0  0  0  0
  2  1  1  0  0  0  0
  3  2  2  0  0  0  0
  4  5  2  0  0  0  0
  4  3  1  0  0  0  0
  5  6  1  0  0  0  0
  6  9  1  0  0  0  0
  6  7  2  0  0  0  0
  7 10  1  0  0  0  0
  8  4  1  0  0  0  0
 11 16  1  0  0  0  0
 11 17  1  0  0  0  0
 12 11  2  0  0  0  0
 13 14  2  0  0  0  0
 13 12  1  0  0  0  0
 14 15  1  0  0  0  0
 15  3  1  0  0  0  0
 15 16  2  0  0  0  0
 18 12  1  0  0  0  0
 19 13  1  0  0  0  0
 20 27  2  0  0  0  0
 20  5  1  0  0  0  0
 21 20  1  0  0  0  0
 22 21  1  0  0  0  0
 23 21  2  0  0  0  0
 23 25  1  0  0  0  0
 24 23  1  0  0  0  0
 25 27  1  0  0  0  0
 26 25  1  0  0  0  0
M  END
>  <minimizedAffinity>
-5.75032806

>  <minimizedRMSD>
0.132359207

$$$$
