
     RDKit          3D

 27 29  0  0  0  0  0  0  0  0999 V2000
   37.9773   33.1720   49.4348 C   0  0  0  0  0  0  0  0  0  0  0  0
   39.0221   33.1626   48.4622 C   0  0  0  0  0  0  0  0  0  0  0  0
   39.0143   32.1207   47.5364 C   0  0  0  0  0  0  0  0  0  0  0  0
   38.0287   31.1773   47.6009 N   0  0  0  0  0  0  0  0  0  0  0  0
   37.0544   31.2213   48.5394 C   0  0  0  0  0  0  0  0  0  0  0  0
   37.0318   32.2227   49.4571 N   0  0  0  0  0  0  0  0  0  0  0  0
   37.2783   29.3560   51.0553 Br  0  0  0  0  0  0  0  0  0  0  0  0
   35.9584   29.3154   49.6649 C   0  0  0  0  0  0  0  0  0  0  0  0
   35.9964   30.2132   48.6129 C   0  0  0  0  0  0  0  0  0  0  0  0
   35.0188   30.1210   47.6587 C   0  0  0  0  0  0  0  0  0  0  0  0
   34.0069   29.1870   47.6924 C   0  0  0  0  0  0  0  0  0  0  0  0
   33.9892   28.3084   48.7433 C   0  0  0  0  0  0  0  0  0  0  0  0
   34.9613   28.3734   49.7246 C   0  0  0  0  0  0  0  0  0  0  0  0
   37.9262   33.9632   50.1905 H   0  0  0  0  0  0  0  0  0  0  0  0
   39.7705   33.9464   48.4735 H   0  0  0  0  0  0  0  0  0  0  0  0
   39.7861   32.0811   46.7886 H   0  0  0  0  0  0  0  0  0  0  0  0
   35.0679   30.8326   46.8455 H   0  0  0  0  0  0  0  0  0  0  0  0
   33.2256   27.5511   48.8326 H   0  0  0  0  0  0  0  0  0  0  0  0
   34.9602   27.6789   50.5693 H   0  0  0  0  0  0  0  0  0  0  0  0
   32.9999   29.1469   46.6427 C   0  0  0  0  0  0  0  0  0  0  0  0
   33.1886   28.6614   45.3681 C   0  0  0  0  0  0  0  0  0  0  0  0
   34.1037   28.2424   44.9629 H   0  0  0  0  0  0  0  0  0  0  0  0
   31.9870   28.7973   44.6639 C   0  0  0  0  0  0  0  0  0  0  0  0
   31.8679   28.4892   43.6344 H   0  0  0  0  0  0  0  0  0  0  0  0
   31.1174   29.3596   45.5389 N   0  0  0  0  0  0  0  0  0  0  0  0
   30.1550   29.5374   45.1804 H   0  0  0  0  0  0  0  0  0  0  0  0
   31.7260   29.5631   46.7082 N   0  0  0  0  0  0  0  0  0  0  0  0
  1  6  2  0
  2  1  1  0
  3  4  1  0
  3  2  2  0
  4  5  2  0
  5  9  1  0
  5  6  1  0
  8 13  2  0
  8  7  1  0
  9  8  1  0
 10 11  1  0
 10  9  2  0
 11 12  2  0
 12 13  1  0
  1 14  1  0
  2 15  1  0
  3 16  1  0
 10 17  1  0
 12 18  1  0
 13 19  1  0
 20 21  1  0
 21 22  1  0
 21 23  2  0
 23 24  1  0
 23 25  1  0
 25 26  1  0
 25 27  1  0
 27 20  2  0
 11 20  1  0
M  ISO  8  14  14  15  14  16  14  17  14  18  14  19  14  22  15  24  16
M  ISO  1  26   5
M  END
>  <DihAtoms>  (1) 
9,10,19,20

>  <DihDeg>  (1) 
0.0003961713095448521

$$$$
