REMARK  Name = 
REMARK  3 active torsions:
REMARK  status: ('A' for Active; 'I' for Inactive)
REMARK    1  A    between atoms: C_1  and  C_7
REMARK    2  A    between atoms: C_5  and  C_10
REMARK    3  A    between atoms: C_10  and  C_20
REMARK                            x       y       z     vdW  Elec       q    Type
REMARK                         _______ _______ _______ _____ _____    ______ ____
ROOT
ATOM      1  C   UNL     1      37.363  31.357  49.204  0.00  0.00    +0.000 A 
ATOM      2  C   UNL     1      37.706  32.652  49.603  0.00  0.00    +0.000 A 
ATOM      3  C   UNL     1      38.594  33.332  48.775  0.00  0.00    +0.000 A 
ATOM      4  N   UNL     1      39.071  32.724  47.652  0.00  0.00    +0.000 NA
ATOM      5  C   UNL     1      38.700  31.449  47.308  0.00  0.00    +0.000 A 
ATOM      6  N   UNL     1      37.828  30.740  48.095  0.00  0.00    +0.000 NA
ATOM      7  H   UNL     1      37.316  33.099  50.486  0.00  0.00    +0.000 HD
ATOM      8  H   UNL     1      38.925  34.325  48.981  0.00  0.00    +0.000 HD
ENDROOT
BRANCH   1   9
ATOM      9  C   UNL     1      36.382  30.614  50.057  0.00  0.00    +0.000 C 
ATOM     10  C   UNL     1      36.276  29.176  50.053  0.00  0.00    +0.000 C 
ATOM     11  C   UNL     1      37.054  29.821  51.178  0.00  0.00    +0.000 C 
ATOM     12  H   UNL     1      35.517  31.254  50.387  0.00  0.00    +0.000 HD
ATOM     13  H   UNL     1      36.879  28.596  49.327  0.00  0.00    +0.000 HD
ATOM     14  H   UNL     1      35.340  28.694  50.340  0.00  0.00    +0.000 HD
ATOM     15  H   UNL     1      38.141  29.757  51.213  0.00  0.00    +0.000 HD
ATOM     16  H   UNL     1      36.579  29.942  52.160  0.00  0.00    +0.000 HD
ENDBRANCH   1   9
BRANCH   5  17
ATOM     17  C   UNL     1      39.194  30.808  46.097  0.00  0.00    +0.000 C 
ATOM     18  H   UNL     1      39.323  31.618  45.325  0.00  0.00    +0.000 HD
ATOM     19  H   UNL     1      38.391  30.152  45.697  0.00  0.00    +0.000 HD
BRANCH  17  20
ATOM     20  C   UNL     1      40.452  30.066  46.345  0.00  0.00    +0.000 A 
ATOM     21  C   UNL     1      41.563  30.114  45.523  0.00  0.00    +0.000 A 
ATOM     22  H   UNL     1      41.734  30.659  44.603  0.00  0.00    +0.000 HD
ATOM     23  C   UNL     1      42.529  29.289  46.089  0.00  0.00    +0.000 A 
ATOM     24  H   UNL     1      43.540  29.027  45.795  0.00  0.00    +0.000 HD
ATOM     25  N   UNL     1      41.989  28.767  47.225  0.00  0.00    +0.000 N 
ATOM     26  H   UNL     1      42.382  28.107  47.934  0.00  0.00    +0.000 HD
ATOM     27  N   UNL     1      40.755  29.238  47.362  0.00  0.00    +0.000 NA
ENDBRANCH  17  20
ENDBRANCH   5  17
TORSDOF 3
