REMARK  Name = 
REMARK  2 active torsions:
REMARK  status: ('A' for Active; 'I' for Inactive)
REMARK    1  A    between atoms: C_5  and  C_9
REMARK    2  A    between atoms: C_11  and  C_20
REMARK                            x       y       z     vdW  Elec       q    Type
REMARK                         _______ _______ _______ _____ _____    ______ ____
ROOT
ATOM      1 BR   UNL     1      37.278  29.356  51.055  0.00  0.00    +0.000 Br
ATOM      2  C   UNL     1      35.958  29.315  49.665  0.00  0.00    +0.000 A 
ATOM      3  C   UNL     1      35.996  30.213  48.613  0.00  0.00    +0.000 A 
ATOM      4  C   UNL     1      35.019  30.121  47.659  0.00  0.00    +0.000 A 
ATOM      5  C   UNL     1      34.007  29.187  47.692  0.00  0.00    +0.000 A 
ATOM      6  C   UNL     1      33.989  28.308  48.743  0.00  0.00    +0.000 A 
ATOM      7  C   UNL     1      34.961  28.373  49.725  0.00  0.00    +0.000 A 
ATOM      8  H   UNL     1      35.068  30.833  46.846  0.00  0.00    +0.000 HD
ATOM      9  H   UNL     1      33.226  27.551  48.833  0.00  0.00    +0.000 HD
ATOM     10  H   UNL     1      34.960  27.679  50.569  0.00  0.00    +0.000 HD
ENDROOT
BRANCH   3  15
ATOM     11  C   UNL     1      37.977  33.172  49.435  0.00  0.00    +0.000 A 
ATOM     12  C   UNL     1      39.022  33.163  48.462  0.00  0.00    +0.000 A 
ATOM     13  C   UNL     1      39.014  32.121  47.536  0.00  0.00    +0.000 A 
ATOM     14  N   UNL     1      38.029  31.177  47.601  0.00  0.00    +0.000 NA
ATOM     15  C   UNL     1      37.054  31.221  48.539  0.00  0.00    +0.000 A 
ATOM     16  N   UNL     1      37.032  32.223  49.457  0.00  0.00    +0.000 NA
ATOM     17  H   UNL     1      37.926  33.963  50.191  0.00  0.00    +0.000 HD
ATOM     18  H   UNL     1      39.770  33.946  48.474  0.00  0.00    +0.000 HD
ATOM     19  H   UNL     1      39.786  32.081  46.789  0.00  0.00    +0.000 HD
ENDBRANCH   3  15
BRANCH   5  20
ATOM     20  C   UNL     1      33.000  29.147  46.643  0.00  0.00    +0.000 A 
ATOM     21  C   UNL     1      33.245  28.941  45.303  0.00  0.00    +0.000 A 
ATOM     22  H   UNL     1      34.212  28.780  44.839  0.00  0.00    +0.000 HD
ATOM     23  C   UNL     1      32.022  28.973  44.623  0.00  0.00    +0.000 A 
ATOM     24  H   UNL     1      31.938  28.836  43.554  0.00  0.00    +0.000 HD
ATOM     25  N   UNL     1      31.085  29.197  45.577  0.00  0.00    +0.000 N 
ATOM     26  H   UNL     1      30.098  29.252  45.246  0.00  0.00    +0.000 HD
ATOM     27  N   UNL     1      31.673  29.299  46.769  0.00  0.00    +0.000 NA
ENDBRANCH   5  20
TORSDOF 2
