
 OpenBabel03272510163D

 27 29  0  0  0  0  0  0  0  0999 V2000
   37.3410   29.3070   51.0170 Br  0  0  0  0  0  0  0  0  0  0  0  0
   35.9680   29.3230   49.6790 C   0  0  0  0  0  0  0  0  0  0  0  0
   35.9770   30.2510   48.6530 C   0  0  0  0  0  0  0  0  0  0  0  0
   34.9630   30.1990   47.7350 C   0  0  0  0  0  0  0  0  0  0  0  0
   33.9410   29.2760   47.7800 C   0  0  0  0  0  0  0  0  0  0  0  0
   33.9530   28.3660   48.8050 C   0  0  0  0  0  0  0  0  0  0  0  0
   34.9620   28.3910   49.7500 C   0  0  0  0  0  0  0  0  0  0  0  0
   34.9900   30.9340   46.9420 H   0  0  0  0  0  0  0  0  0  0  0  0
   33.1840   27.6160   48.9030 H   0  0  0  0  0  0  0  0  0  0  0  0
   34.9850   27.6720   50.5730 H   0  0  0  0  0  0  0  0  0  0  0  0
   37.9930   33.1940   49.4490 C   0  0  0  0  0  0  0  0  0  0  0  0
   39.0310   33.1710   48.4690 C   0  0  0  0  0  0  0  0  0  0  0  0
   39.0060   32.1250   47.5470 C   0  0  0  0  0  0  0  0  0  0  0  0
   38.0120   31.1910   47.6230 N   0  0  0  0  0  0  0  0  0  0  0  0
   37.0450   31.2480   48.5680 C   0  0  0  0  0  0  0  0  0  0  0  0
   37.0390   32.2540   49.4820 N   0  0  0  0  0  0  0  0  0  0  0  0
   37.9550   33.9880   50.2020 H   0  0  0  0  0  0  0  0  0  0  0  0
   39.7860   33.9460   48.4720 H   0  0  0  0  0  0  0  0  0  0  0  0
   39.7720   32.0750   46.7950 H   0  0  0  0  0  0  0  0  0  0  0  0
   32.8940   29.2790   46.7710 C   0  0  0  0  0  0  0  0  0  0  0  0
   32.5030   30.3670   46.0240 C   0  0  0  0  0  0  0  0  0  0  0  0
   32.9120   31.3710   46.0770 H   0  0  0  0  0  0  0  0  0  0  0  0
   31.4730   29.9650   45.1660 C   0  0  0  0  0  0  0  0  0  0  0  0
   30.9870   30.6350   44.4710 H   0  0  0  0  0  0  0  0  0  0  0  0
   31.2800   28.6480   45.4270 N   0  0  0  0  0  0  0  0  0  0  0  0
   30.5360   28.1740   44.8720 H   0  0  0  0  0  0  0  0  0  0  0  0
   32.1260   28.2510   46.3780 N   0  0  0  0  0  0  0  0  0  0  0  0
  2  7  1  0  0  0  0
  2  1  1  0  0  0  0
  3  2  2  0  0  0  0
  4  5  2  0  0  0  0
  4  3  1  0  0  0  0
  5  6  1  0  0  0  0
  6  9  1  0  0  0  0
  6  7  2  0  0  0  0
  7 10  1  0  0  0  0
  8  4  1  0  0  0  0
 11 16  1  0  0  0  0
 11 17  1  0  0  0  0
 12 18  1  0  0  0  0
 12 11  2  0  0  0  0
 13 14  2  0  0  0  0
 13 12  1  0  0  0  0
 14 15  1  0  0  0  0
 15  3  1  0  0  0  0
 15 16  2  0  0  0  0
 19 13  1  0  0  0  0
 20  5  1  0  0  0  0
 21 22  1  0  0  0  0
 21 20  1  0  0  0  0
 23 25  1  0  0  0  0
 23 21  2  0  0  0  0
 24 23  1  0  0  0  0
 25 27  1  0  0  0  0
 26 25  1  0  0  0  0
 27 20  2  0  0  0  0
M  END
>  <minimizedAffinity>
-5.79025507

>  <minimizedRMSD>
0.175933748

$$$$
