
 OpenBabel03272505493D

 39 43  0  0  0  0  0  0  0  0999 V2000
   36.3550   30.3980   46.0670 C   0  0  0  0  0  0  0  0  0  0  0  0
   36.9290   30.7130   47.2490 C   0  0  0  0  0  0  0  0  0  0  0  0
   36.2910   30.4080   48.4410 C   0  0  0  0  0  0  0  0  0  0  0  0
   35.0570   29.7770   48.3840 C   0  0  0  0  0  0  0  0  0  0  0  0
   34.4570   29.4490   47.1570 C   0  0  0  0  0  0  0  0  0  0  0  0
   35.1460   29.7810   46.0470 N   0  0  0  0  0  0  0  0  0  0  0  0
   37.8940   31.2060   47.2850 H   0  0  0  0  0  0  0  0  0  0  0  0
   36.7560   30.6620   49.3640 H   0  0  0  0  0  0  0  0  0  0  0  0
   34.5330   29.5250   49.3000 H   0  0  0  0  0  0  0  0  0  0  0  0
   33.1670   28.7930   47.0680 C   0  0  0  0  0  0  0  0  0  0  0  0
   32.5330   28.2650   45.9680 N   0  0  0  0  0  0  0  0  0  0  0  0
   31.3360   27.7510   46.3740 C   0  0  0  0  0  0  0  0  0  0  0  0
   31.2410   27.9610   47.7030 N   0  0  0  0  0  0  0  0  0  0  0  0
   32.3440   28.5920   48.1430 N   0  0  0  0  0  0  0  0  0  0  0  0
   30.6020   27.2650   45.7460 H   0  0  0  0  0  0  0  0  0  0  0  0
   30.1210   27.5540   48.4730 C   0  0  0  0  0  0  0  0  0  0  0  0
   30.1830   27.7770   49.8380 C   0  0  0  0  0  0  0  0  0  0  0  0
   30.9490   28.2220   50.4930 H   0  0  0  0  0  0  0  0  0  0  0  0
   28.9890   27.3050   50.3870 C   0  0  0  0  0  0  0  0  0  0  0  0
   28.6900   27.3160   51.4320 H   0  0  0  0  0  0  0  0  0  0  0  0
   28.2600   26.8250   49.3640 N   0  0  0  0  0  0  0  0  0  0  0  0
   27.3120   26.4020   49.4520 H   0  0  0  0  0  0  0  0  0  0  0  0
   28.9400   26.9760   48.2230 N   0  0  0  0  0  0  0  0  0  0  0  0
   37.0270   30.7160   44.7520 C   0  0  0  0  0  0  0  0  0  0  0  0
   36.7680   29.8060   43.6000 C   0  0  0  0  0  0  0  0  0  0  0  0
   36.1820   31.2010   43.6270 C   0  0  0  0  0  0  0  0  0  0  0  0
   36.0670   28.9700   43.8090 H   0  0  0  0  0  0  0  0  0  0  0  0
   37.5980   29.5660   42.9320 H   0  0  0  0  0  0  0  0  0  0  0  0
   36.6990   31.8840   42.9190 H   0  0  0  0  0  0  0  0  0  0  0  0
   35.0900   31.2550   43.7110 H   0  0  0  0  0  0  0  0  0  0  0  0
   39.6800   33.2600   45.0150 C   0  0  0  0  0  0  0  0  0  0  0  0
   40.8120   32.5010   45.3410 C   0  0  0  0  0  0  0  0  0  0  0  0
   40.6580   31.1040   45.4710 C   0  0  0  0  0  0  0  0  0  0  0  0
   39.4360   30.5540   45.2770 N   0  0  0  0  0  0  0  0  0  0  0  0
   38.3530   31.3260   44.9600 C   0  0  0  0  0  0  0  0  0  0  0  0
   38.4740   32.6610   44.8300 N   0  0  0  0  0  0  0  0  0  0  0  0
   39.8140   34.3290   44.9190 H   0  0  0  0  0  0  0  0  0  0  0  0
   41.7860   32.8990   45.5010 H   0  0  0  0  0  0  0  0  0  0  0  0
   41.4740   30.4370   45.7210 H   0  0  0  0  0  0  0  0  0  0  0  0
  1  2  1  0  0  0  0
  2  7  1  0  0  0  0
  2  3  2  0  0  0  0
  3  8  1  0  0  0  0
  4  3  1  0  0  0  0
  4  9  1  0  0  0  0
  5  4  2  0  0  0  0
  6  1  2  0  0  0  0
  6  5  1  0  0  0  0
 10  5  1  0  0  0  0
 10 14  2  0  0  0  0
 11 12  2  0  0  0  0
 11 10  1  0  0  0  0
 12 13  1  0  0  0  0
 13 14  1  0  0  0  0
 13 16  1  0  0  0  0
 15 12  1  0  0  0  0
 16 17  1  0  0  0  0
 17 19  2  0  0  0  0
 17 18  1  0  0  0  0
 19 20  1  0  0  0  0
 21 22  1  0  0  0  0
 21 19  1  0  0  0  0
 23 16  2  0  0  0  0
 23 21  1  0  0  0  0
 24 35  1  0  0  0  0
 24  1  1  0  0  0  0
 25 26  1  0  0  0  0
 25 27  1  0  0  0  0
 25 24  1  0  0  0  0
 26 30  1  0  0  0  0
 26 24  1  0  0  0  0
 28 25  1  0  0  0  0
 29 26  1  0  0  0  0
 31 32  1  0  0  0  0
 32 33  2  0  0  0  0
 32 38  1  0  0  0  0
 33 39  1  0  0  0  0
 34 33  1  0  0  0  0
 35 34  2  0  0  0  0
 36 35  1  0  0  0  0
 36 31  2  0  0  0  0
 37 31  1  0  0  0  0
M  END
>  <minimizedAffinity>
-6.02242327

>  <minimizedRMSD>
0.813244164

$$$$
