
 OpenBabel03272506463D

 41 44  0  0  1  0  0  0  0  0999 V2000
   31.2880   28.1820   47.3780 C   0  0  2  0  0  0  0  0  0  0  0  0
   32.4800   27.7530   48.1830 C   0  0  1  0  0  0  0  0  0  0  0  0
   32.5290   26.3900   48.1720 O   0  0  0  0  0  0  0  0  0  0  0  0
   31.6660   25.9110   47.1900 C   0  0  0  0  0  0  0  0  0  0  0  0
   31.3240   27.0660   46.2830 C   0  0  1  0  0  0  0  0  0  0  0  0
   30.3550   28.1500   47.9270 H   0  0  0  0  0  0  0  0  0  0  0  0
   32.4530   28.1330   49.2230 H   0  0  0  0  0  0  0  0  0  0  0  0
   30.8440   25.4090   47.6680 H   0  0  0  0  0  0  0  0  0  0  0  0
   32.3040   25.2200   46.5710 H   0  0  0  0  0  0  0  0  0  0  0  0
   32.1240   27.3770   45.6190 H   0  0  0  0  0  0  0  0  0  0  0  0
   31.5290   29.4290   46.7670 O   0  0  0  0  0  0  0  0  0  0  0  0
   32.2530   29.3330   46.1280 H   0  0  0  0  0  0  0  0  0  0  0  0
   33.9840   28.3860   47.3390 S   0  0  0  0  0  0  0  0  0  0  0  0
   35.8230   29.3540   50.7090 C   0  0  0  0  0  0  0  0  0  0  0  0
   36.5330   30.5200   50.4080 C   0  0  0  0  0  0  0  0  0  0  0  0
   36.4430   31.0260   49.1230 C   0  0  0  0  0  0  0  0  0  0  0  0
   35.6640   30.3640   48.2110 N   0  0  0  0  0  0  0  0  0  0  0  0
   34.9930   29.2420   48.5390 C   0  0  0  0  0  0  0  0  0  0  0  0
   35.0630   28.7200   49.7930 N   0  0  0  0  0  0  0  0  0  0  0  0
   35.8750   28.9360   51.7060 H   0  0  0  0  0  0  0  0  0  0  0  0
   37.1420   31.0220   51.1500 H   0  0  0  0  0  0  0  0  0  0  0  0
   36.9680   31.9140   48.8430 H   0  0  0  0  0  0  0  0  0  0  0  0
   30.0740   26.8660   45.7510 O   0  0  0  0  0  0  0  0  0  0  0  0
   29.4100   29.1990   44.1010 Cl  0  0  0  0  0  0  0  0  0  0  0  0
   28.5310   28.5500   45.4670 C   0  0  0  0  0  0  0  0  0  0  0  0
   28.9410   27.4330   46.1580 C   0  0  0  0  0  0  0  0  0  0  0  0
   28.1430   26.9850   47.2160 C   0  0  0  0  0  0  0  0  0  0  0  0
   26.9910   27.6460   47.5490 C   0  0  0  0  0  0  0  0  0  0  0  0
   26.5680   28.7710   46.8600 C   0  0  0  0  0  0  0  0  0  0  0  0
   27.3640   29.2270   45.7950 C   0  0  0  0  0  0  0  0  0  0  0  0
   28.4020   26.1160   47.7970 H   0  0  0  0  0  0  0  0  0  0  0  0
   26.4010   27.2740   48.3690 H   0  0  0  0  0  0  0  0  0  0  0  0
   25.6500   29.2060   47.2080 H   0  0  0  0  0  0  0  0  0  0  0  0
   26.8230   30.4070   45.1530 C   0  0  0  0  0  0  0  0  0  0  0  0
   26.7360   31.7290   45.5030 C   0  0  0  0  0  0  0  0  0  0  0  0
   27.0930   32.1750   46.4100 H   0  0  0  0  0  0  0  0  0  0  0  0
   26.1220   32.5160   44.5590 C   0  0  0  0  0  0  0  0  0  0  0  0
   25.9100   33.5670   44.5440 H   0  0  0  0  0  0  0  0  0  0  0  0
   25.8270   31.6230   43.6020 N   0  0  0  0  0  0  0  0  0  0  0  0
   25.3510   31.7490   42.6790 H   0  0  0  0  0  0  0  0  0  0  0  0
   26.2300   30.4210   43.9480 N   0  0  0  0  0  0  0  0  0  0  0  0
  1  6  1  1  0  0  0
  1  2  1  0  0  0  0
  2  7  1  1  0  0  0
  3  2  1  0  0  0  0
  4  8  1  0  0  0  0
  4  3  1  0  0  0  0
  5 10  1  6  0  0  0
  5  4  1  0  0  0  0
  5  1  1  0  0  0  0
  9  4  1  0  0  0  0
 11  1  1  0  0  0  0
 12 11  1  0  0  0  0
 13  2  1  0  0  0  0
 13 18  1  0  0  0  0
 14 20  1  0  0  0  0
 15 14  1  0  0  0  0
 15 21  1  0  0  0  0
 16 15  2  0  0  0  0
 17 18  2  0  0  0  0
 17 16  1  0  0  0  0
 18 19  1  0  0  0  0
 19 14  2  0  0  0  0
 22 16  1  0  0  0  0
 23 26  1  0  0  0  0
 23  5  1  0  0  0  0
 24 25  1  0  0  0  0
 25 30  2  0  0  0  0
 25 26  1  0  0  0  0
 26 27  2  0  0  0  0
 27 28  1  0  0  0  0
 27 31  1  0  0  0  0
 28 32  1  0  0  0  0
 29 33  1  0  0  0  0
 29 28  2  0  0  0  0
 30 29  1  0  0  0  0
 34 35  1  0  0  0  0
 34 30  1  0  0  0  0
 35 36  1  0  0  0  0
 37 35  2  0  0  0  0
 38 37  1  0  0  0  0
 39 41  1  0  0  0  0
 39 37  1  0  0  0  0
 40 39  1  0  0  0  0
 41 34  2  0  0  0  0
M  END
>  <minimizedAffinity>
-5.29047823

>  <minimizedRMSD>
1.35742319

$$$$
