
 OpenBabel03262522563D

 32 34  0  0  0  0  0  0  0  0999 V2000
   37.2140   29.9110   48.7370 Cl  0  0  0  0  0  0  0  0  0  0  0  0
   36.8390   30.3090   47.0890 C   0  0  0  0  0  0  0  0  0  0  0  0
   35.6040   29.9880   46.5600 C   0  0  0  0  0  0  0  0  0  0  0  0
   35.3620   30.3310   45.2350 C   0  0  0  0  0  0  0  0  0  0  0  0
   36.3180   30.9680   44.4760 C   0  0  0  0  0  0  0  0  0  0  0  0
   37.5420   31.2710   45.0380 C   0  0  0  0  0  0  0  0  0  0  0  0
   38.6910   32.0750   44.0060 Cl  0  0  0  0  0  0  0  0  0  0  0  0
   37.8130   30.9430   46.3540 C   0  0  0  0  0  0  0  0  0  0  0  0
   34.3830   30.0650   44.8560 H   0  0  0  0  0  0  0  0  0  0  0  0
   36.0870   31.2130   43.4580 H   0  0  0  0  0  0  0  0  0  0  0  0
   33.6580   28.9490   49.6260 C   0  0  0  0  0  0  0  0  0  0  0  0
   34.5770   29.5940   48.7950 C   0  0  0  0  0  0  0  0  0  0  0  0
   34.6540   29.3220   47.4190 C   0  0  0  0  0  0  0  0  0  0  0  0
   33.7760   28.4020   47.0010 N   0  0  0  0  0  0  0  0  0  0  0  0
   32.8910   27.7770   47.7840 C   0  0  0  0  0  0  0  0  0  0  0  0
   32.8360   28.0530   49.0870 N   0  0  0  0  0  0  0  0  0  0  0  0
   32.7020   25.5630   47.0320 C   0  0  0  0  0  0  0  0  0  0  0  0
   33.8140   25.1860   47.5600 O   0  0  0  0  0  0  0  0  0  0  0  0
   32.0900   26.8520   47.0540 N   0  0  0  0  0  0  0  0  0  0  0  0
   33.6290   29.1860   50.6830 H   0  0  0  0  0  0  0  0  0  0  0  0
   35.2540   30.3250   49.2060 H   0  0  0  0  0  0  0  0  0  0  0  0
   32.3550   24.6420   46.5650 H   0  0  0  0  0  0  0  0  0  0  0  0
   31.1990   26.9090   46.5600 H   0  0  0  0  0  0  0  0  0  0  0  0
   39.0620   31.2680   46.8870 O   0  0  0  0  0  0  0  0  0  0  0  0
   39.3710   32.5300   47.3360 C   0  0  0  0  0  0  0  0  0  0  0  0
   38.8210   32.9340   48.5570 C   0  0  0  0  0  0  0  0  0  0  0  0
   38.1680   32.4350   49.2570 H   0  0  0  0  0  0  0  0  0  0  0  0
   39.2170   34.1690   48.8410 N   0  0  0  0  0  0  0  0  0  0  0  0
   39.0640   34.8580   49.6180 H   0  0  0  0  0  0  0  0  0  0  0  0
   40.0220   34.5860   47.8270 C   0  0  0  0  0  0  0  0  0  0  0  0
   40.5540   35.5370   47.6710 H   0  0  0  0  0  0  0  0  0  0  0  0
   40.0960   33.5960   46.9490 N   0  0  0  0  0  0  0  0  0  0  0  0
  2  1  1  0  0  0  0
  3  2  1  0  0  0  0
  3 13  1  0  0  0  0
  4  3  2  0  0  0  0
  5  6  2  0  0  0  0
  5  4  1  0  0  0  0
  6  8  1  0  0  0  0
  7  6  1  0  0  0  0
  8 24  1  0  0  0  0
  8  2  2  0  0  0  0
  9  4  1  0  0  0  0
 10  5  1  0  0  0  0
 11 20  1  0  0  0  0
 12 21  1  0  0  0  0
 12 11  2  0  0  0  0
 13 12  1  0  0  0  0
 14 13  2  0  0  0  0
 14 15  1  0  0  0  0
 15 16  2  0  0  0  0
 16 11  1  0  0  0  0
 17 19  1  0  0  0  0
 17 18  2  0  0  0  0
 19 15  1  0  0  0  0
 22 17  1  0  0  0  0
 23 19  1  0  0  0  0
 24 25  1  0  0  0  0
 25 26  2  0  0  0  0
 26 28  1  0  0  0  0
 26 27  1  0  0  0  0
 28 29  1  0  0  0  0
 30 28  1  0  0  0  0
 31 30  1  0  0  0  0
 32 25  1  0  0  0  0
 32 30  2  0  0  0  0
M  END
>  <minimizedAffinity>
-4.78210068

>  <minimizedRMSD>
3.43244195

$$$$
