REMARK  Name = 
REMARK  5 active torsions:
REMARK  status: ('A' for Active; 'I' for Inactive)
REMARK    1  A    between atoms: C_1  and  C_4
REMARK    2  A    between atoms: C_2  and  C_11
REMARK    3  A    between atoms: C_10  and  O_15
REMARK    4  A    between atoms: C_14  and  O_16
REMARK    5  A    between atoms: O_16  and  C_30
REMARK                            x       y       z     vdW  Elec       q    Type
REMARK                         _______ _______ _______ _____ _____    ______ ____
ROOT
ATOM      1  C   UNL     1      33.968  29.073  47.376  0.00  0.00    +0.000 C 
ATOM      2  C   UNL     1      34.740  28.281  48.418  0.00  0.00    +0.000 C 
ATOM      3  O   UNL     1      33.870  28.065  49.440  0.00  0.00    +0.000 OA
ATOM      4  C   UNL     1      32.581  28.138  49.002  0.00  0.00    +0.000 C 
ATOM      5  C   UNL     1      32.602  28.391  47.512  0.00  0.00    +0.000 C 
ATOM      6  H   UNL     1      33.873  30.137  47.630  0.00  0.00    +0.000 HD
ATOM      7  H   UNL     1      35.026  27.322  47.967  0.00  0.00    +0.000 HD
ATOM      8  H   UNL     1      32.093  29.024  49.486  0.00  0.00    +0.000 HD
ATOM      9  H   UNL     1      31.958  27.262  49.273  0.00  0.00    +0.000 HD
ATOM     10  H   UNL     1      32.609  27.403  47.010  0.00  0.00    +0.000 HD
ENDROOT
BRANCH   2  12
ATOM     11  C   UNL     1      35.815  30.541  49.072  0.00  0.00    +0.000 C 
ATOM     12  C   UNL     1      35.904  29.119  48.839  0.00  0.00    +0.000 C 
ATOM     13  C   UNL     1      36.068  29.586  50.248  0.00  0.00    +0.000 C 
ATOM     14  H   UNL     1      34.908  31.140  49.271  0.00  0.00    +0.000 HD
ATOM     15  H   UNL     1      36.866  28.766  48.364  0.00  0.00    +0.000 HD
ATOM     16  H   UNL     1      35.267  29.406  50.976  0.00  0.00    +0.000 HD
ATOM     17  H   UNL     1      37.086  29.583  50.713  0.00  0.00    +0.000 HD
BRANCH  11  18
ATOM     18  C   UNL     1      37.005  31.456  48.824  0.00  0.00    +0.000 A 
ATOM     19  C   UNL     1      37.190  32.528  49.698  0.00  0.00    +0.000 A 
ATOM     20  C   UNL     1      38.272  33.339  49.415  0.00  0.00    +0.000 A 
ATOM     21  N   UNL     1      39.087  33.087  48.349  0.00  0.00    +0.000 NA
ATOM     22  C   UNL     1      38.872  32.029  47.519  0.00  0.00    +0.000 A 
ATOM     23  N   UNL     1      37.818  31.210  47.765  0.00  0.00    +0.000 NA
ATOM     24  H   UNL     1      36.525  32.690  50.524  0.00  0.00    +0.000 HD
ATOM     25  H   UNL     1      38.487  34.200  50.053  0.00  0.00    +0.000 HD
ATOM     26  H   UNL     1      39.541  31.866  46.686  0.00  0.00    +0.000 HD
ENDBRANCH  11  18
ENDBRANCH   2  12
BRANCH   1  27
ATOM     27  O   UNL     1      34.470  28.955  46.095  0.00  0.00    +0.000 OA
ATOM     28  H   UNL     1      35.457  28.922  46.187  0.00  0.00    +0.000 HD
ENDBRANCH   1  27
BRANCH   5  29
ATOM     29  O   UNL     1      31.584  29.175  47.050  0.00  0.00    +0.000 OA
BRANCH  29  30
ATOM     30  C   UNL     1      30.695  28.746  46.075  0.00  0.00    +0.000 A 
ATOM     31  C   UNL     1      30.964  27.636  45.302  0.00  0.00    +0.000 A 
ATOM     32  H   UNL     1      31.809  26.944  45.282  0.00  0.00    +0.000 HD
ATOM     33  N   UNL     1      29.962  27.408  44.422  0.00  0.00    +0.000 N 
ATOM     34  H   UNL     1      29.791  26.694  43.690  0.00  0.00    +0.000 HD
ATOM     35  C   UNL     1      29.047  28.394  44.646  0.00  0.00    +0.000 A 
ATOM     36  H   UNL     1      28.105  28.560  44.148  0.00  0.00    +0.000 HD
ATOM     37  N   UNL     1      29.485  29.182  45.625  0.00  0.00    +0.000 NA
ENDBRANCH  29  30
ENDBRANCH   5  29
TORSDOF 5
