
 OpenBabel03272508083D

 23 24  0  0  0  0  0  0  0  0999 V2000
   38.4020   32.9780   48.0980 O   0  0  0  0  0  0  0  0  0  0  0  0
   38.3560   31.7800   47.2130 P   0  0  2  0  0  0  0  0  0  0  0  0
   37.1700   31.9760   46.0160 O   0  0  0  0  0  0  0  0  0  0  0  0
   37.4460   31.5360   45.1830 H   0  0  0  0  0  0  0  0  0  0  0  0
   38.1740   30.3160   48.0100 O   0  0  0  0  0  0  0  0  0  0  0  0
   37.1450   30.0330   51.5610 C   0  0  0  0  0  0  0  0  0  0  0  0
   37.9750   30.4060   50.4820 C   0  0  0  0  0  0  0  0  0  0  0  0
   37.5560   30.0690   49.1950 C   0  0  0  0  0  0  0  0  0  0  0  0
   36.3750   29.4040   49.0540 N   0  0  0  0  0  0  0  0  0  0  0  0
   35.6190   29.0700   50.1040 C   0  0  0  0  0  0  0  0  0  0  0  0
   35.9990   29.3810   51.3540 N   0  0  0  0  0  0  0  0  0  0  0  0
   37.5340   30.3270   52.5380 H   0  0  0  0  0  0  0  0  0  0  0  0
   38.9000   30.9210   50.5150 H   0  0  0  0  0  0  0  0  0  0  0  0
   34.6800   28.5410   49.9990 H   0  0  0  0  0  0  0  0  0  0  0  0
   39.8630   31.7680   46.3870 O   0  0  0  0  0  0  0  0  0  0  0  0
   39.7870   32.1650   45.0380 C   0  0  0  0  0  0  0  0  0  0  0  0
   39.9150   33.4080   44.4370 C   0  0  0  0  0  0  0  0  0  0  0  0
   40.1080   34.3010   44.9990 H   0  0  0  0  0  0  0  0  0  0  0  0
   39.7560   33.2600   43.1070 N   0  0  0  0  0  0  0  0  0  0  0  0
   39.8080   34.0500   42.4270 H   0  0  0  0  0  0  0  0  0  0  0  0
   39.5350   31.9400   42.9060 C   0  0  0  0  0  0  0  0  0  0  0  0
   39.3800   31.6150   41.8720 H   0  0  0  0  0  0  0  0  0  0  0  0
   39.5490   31.2630   44.0690 N   0  0  0  0  0  0  0  0  0  0  0  0
  2  5  1  0  0  0  0
  2  1  2  1  0  0  0
  3  2  1  0  0  0  0
  4  3  1  0  0  0  0
  5  8  1  0  0  0  0
  6 12  1  0  0  0  0
  7 13  1  0  0  0  0
  7  6  2  0  0  0  0
  8  7  1  0  0  0  0
  9  8  2  0  0  0  0
  9 10  1  0  0  0  0
 10 11  2  0  0  0  0
 11  6  1  0  0  0  0
 14 10  1  0  0  0  0
 15  2  1  0  0  0  0
 16 15  1  0  0  0  0
 17 18  1  0  0  0  0
 17 16  2  0  0  0  0
 19 17  1  0  0  0  0
 20 19  1  0  0  0  0
 21 19  1  0  0  0  0
 21 23  2  0  0  0  0
 22 21  1  0  0  0  0
 23 16  1  0  0  0  0
M  END
>  <minimizedAffinity>
-4.73076296

>  <minimizedRMSD>
1.38535368

$$$$
