
 OpenBabel03272510293D

 27 29  0  0  0  0  0  0  0  0999 V2000
   37.3630   31.3940   49.2150 C   0  0  0  0  0  0  0  0  0  0  0  0
   37.6850   32.6220   49.7920 C   0  0  0  0  0  0  0  0  0  0  0  0
   38.5630   33.4130   49.0680 C   0  0  0  0  0  0  0  0  0  0  0  0
   39.0540   32.9730   47.8720 N   0  0  0  0  0  0  0  0  0  0  0  0
   38.7150   31.7630   47.3390 C   0  0  0  0  0  0  0  0  0  0  0  0
   37.8480   30.9600   48.0350 N   0  0  0  0  0  0  0  0  0  0  0  0
   37.2870   32.9470   50.7320 H   0  0  0  0  0  0  0  0  0  0  0  0
   38.8850   34.3690   49.4010 H   0  0  0  0  0  0  0  0  0  0  0  0
   36.3860   30.5160   49.9500 C   0  0  0  0  0  0  0  0  0  0  0  0
   36.2970   29.0940   49.7240 C   0  0  0  0  0  0  0  0  0  0  0  0
   37.0640   29.5630   50.9400 C   0  0  0  0  0  0  0  0  0  0  0  0
   35.4840   31.0450   50.3790 H   0  0  0  0  0  0  0  0  0  0  0  0
   35.3660   28.5420   49.8360 H   0  0  0  0  0  0  0  0  0  0  0  0
   36.9350   28.6780   48.9000 H   0  0  0  0  0  0  0  0  0  0  0  0
   38.1530   29.5370   50.9700 H   0  0  0  0  0  0  0  0  0  0  0  0
   36.5080   29.3780   51.8800 H   0  0  0  0  0  0  0  0  0  0  0  0
   39.2070   31.2520   46.0650 C   0  0  0  0  0  0  0  0  0  0  0  0
   40.2650   31.6260   45.9540 H   0  0  0  0  0  0  0  0  0  0  0  0
   39.2670   30.1630   46.1180 H   0  0  0  0  0  0  0  0  0  0  0  0
   38.3750   31.7030   44.9050 C   0  0  0  0  0  0  0  0  0  0  0  0
   38.4500   32.8160   44.0950 C   0  0  0  0  0  0  0  0  0  0  0  0
   39.2070   33.5770   44.2220 H   0  0  0  0  0  0  0  0  0  0  0  0
   37.4310   32.6910   43.2110 N   0  0  0  0  0  0  0  0  0  0  0  0
   37.2400   33.4020   42.4630 H   0  0  0  0  0  0  0  0  0  0  0  0
   36.7360   31.5700   43.4310 C   0  0  0  0  0  0  0  0  0  0  0  0
   35.8830   31.2090   42.8930 H   0  0  0  0  0  0  0  0  0  0  0  0
   37.3280   30.9560   44.4880 N   0  0  0  0  0  0  0  0  0  0  0  0
  1  2  1  0  0  0  0
  1  9  1  0  0  0  0
  2  7  1  0  0  0  0
  3  8  1  0  0  0  0
  3  2  2  0  0  0  0
  4  3  1  0  0  0  0
  5  4  2  0  0  0  0
  5  6  1  0  0  0  0
  6  1  2  0  0  0  0
  9 12  1  0  0  0  0
  9 11  1  0  0  0  0
 10 13  1  0  0  0  0
 10  9  1  0  0  0  0
 10 11  1  0  0  0  0
 11 15  1  0  0  0  0
 11 16  1  0  0  0  0
 14 10  1  0  0  0  0
 17 19  1  0  0  0  0
 17  5  1  0  0  0  0
 18 17  1  0  0  0  0
 20 17  1  0  0  0  0
 21 22  1  0  0  0  0
 21 20  2  0  0  0  0
 23 25  1  0  0  0  0
 23 21  1  0  0  0  0
 24 23  1  0  0  0  0
 25 27  2  0  0  0  0
 26 25  1  0  0  0  0
 27 20  1  0  0  0  0
M  END
>  <minimizedAffinity>
-4.92053127

>  <minimizedRMSD>
0.571825027

$$$$
