
 OpenBabel03272509113D

 27 29  0  0  0  0  0  0  0  0999 V2000
   35.4430   30.1210   47.4210 C   0  0  0  0  0  0  0  0  0  0  0  0
   36.7420   30.6710   47.2090 C   0  0  0  0  0  0  0  0  0  0  0  0
   37.1690   30.8360   45.8860 C   0  0  0  0  0  0  0  0  0  0  0  0
   36.3390   30.4660   44.8600 N   0  0  0  0  0  0  0  0  0  0  0  0
   35.1140   29.9460   45.1090 C   0  0  0  0  0  0  0  0  0  0  0  0
   34.6700   29.7750   46.3750 N   0  0  0  0  0  0  0  0  0  0  0  0
   35.0320   29.9590   48.3980 H   0  0  0  0  0  0  0  0  0  0  0  0
   34.4500   29.6500   44.3170 H   0  0  0  0  0  0  0  0  0  0  0  0
   38.4610   31.3860   45.5610 C   0  0  0  0  0  0  0  0  0  0  0  0
   38.5040   32.6710   45.0480 C   0  0  0  0  0  0  0  0  0  0  0  0
   39.7000   33.2780   44.7260 C   0  0  0  0  0  0  0  0  0  0  0  0
   40.8710   32.5420   44.9350 C   0  0  0  0  0  0  0  0  0  0  0  0
   40.8900   31.2370   45.4490 C   0  0  0  0  0  0  0  0  0  0  0  0
   39.6370   30.6820   45.7570 C   0  0  0  0  0  0  0  0  0  0  0  0
   37.7200   33.3610   44.8040 H   0  0  0  0  0  0  0  0  0  0  0  0
   39.8690   34.2490   44.3300 H   0  0  0  0  0  0  0  0  0  0  0  0
   41.8780   32.9270   44.7130 H   0  0  0  0  0  0  0  0  0  0  0  0
   41.7900   30.6970   45.5990 H   0  0  0  0  0  0  0  0  0  0  0  0
   39.5500   29.6830   46.1580 H   0  0  0  0  0  0  0  0  0  0  0  0
   37.4460   30.9420   48.4180 C   0  0  0  0  0  0  0  0  0  0  0  0
   37.6420   29.8510   49.2790 C   0  0  0  0  0  0  0  0  0  0  0  0
   37.3940   28.7920   49.2660 H   0  0  0  0  0  0  0  0  0  0  0  0
   38.3120   30.2960   50.3810 N   0  0  0  0  0  0  0  0  0  0  0  0
   38.6400   29.8030   51.2350 H   0  0  0  0  0  0  0  0  0  0  0  0
   38.5180   31.6220   50.1960 C   0  0  0  0  0  0  0  0  0  0  0  0
   39.0080   32.3370   50.8310 H   0  0  0  0  0  0  0  0  0  0  0  0
   38.0060   32.0370   49.0200 N   0  0  0  0  0  0  0  0  0  0  0  0
  1  7  1  0  0  0  0
  2  1  1  0  0  0  0
  2 20  1  0  0  0  0
  3  2  2  0  0  0  0
  4  5  2  0  0  0  0
  4  3  1  0  0  0  0
  5  6  1  0  0  0  0
  6  1  2  0  0  0  0
  8  5  1  0  0  0  0
  9 14  1  0  0  0  0
  9  3  1  0  0  0  0
 10  9  2  0  0  0  0
 11 12  2  0  0  0  0
 11 10  1  0  0  0  0
 12 13  1  0  0  0  0
 13 18  1  0  0  0  0
 13 14  2  0  0  0  0
 14 19  1  0  0  0  0
 15 10  1  0  0  0  0
 16 11  1  0  0  0  0
 17 12  1  0  0  0  0
 20 27  1  0  0  0  0
 20 21  2  0  0  0  0
 21 23  1  0  0  0  0
 22 21  1  0  0  0  0
 23 24  1  0  0  0  0
 25 23  1  0  0  0  0
 25 26  1  0  0  0  0
 27 25  2  0  0  0  0
M  END
>  <minimizedAffinity>
-5.66016293

>  <minimizedRMSD>
3.45502877

$$$$
