
 OpenBabel03262521093D

 23 24  0  0  0  0  0  0  0  0999 V2000
   35.6290   30.1760   46.4590 O   0  0  0  0  0  0  0  0  0  0  0  0
   34.4160   29.8710   47.3180 P   0  0  1  0  0  0  0  0  0  0  0  0
   34.2310   28.1950   47.5540 O   0  0  0  0  0  0  0  0  0  0  0  0
   33.2950   28.0750   47.8390 H   0  0  0  0  0  0  0  0  0  0  0  0
   34.5310   30.5740   48.8700 O   0  0  0  0  0  0  0  0  0  0  0  0
   35.6800   30.4620   49.6480 C   0  0  0  0  0  0  0  0  0  0  0  0
   35.9070   29.5020   50.6470 C   0  0  0  0  0  0  0  0  0  0  0  0
   37.1190   29.5510   51.3150 C   0  0  0  0  0  0  0  0  0  0  0  0
   38.0320   30.5000   50.9990 N   0  0  0  0  0  0  0  0  0  0  0  0
   37.7750   31.4230   50.0160 C   0  0  0  0  0  0  0  0  0  0  0  0
   36.5980   31.3970   49.3460 N   0  0  0  0  0  0  0  0  0  0  0  0
   35.1120   28.8050   50.8050 H   0  0  0  0  0  0  0  0  0  0  0  0
   37.2840   28.8060   52.0840 H   0  0  0  0  0  0  0  0  0  0  0  0
   38.5480   32.1560   49.8110 H   0  0  0  0  0  0  0  0  0  0  0  0
   33.0710   30.5060   46.5090 O   0  0  0  0  0  0  0  0  0  0  0  0
   32.0920   29.5940   46.0890 C   0  0  0  0  0  0  0  0  0  0  0  0
   31.5170   29.4150   44.8480 C   0  0  0  0  0  0  0  0  0  0  0  0
   31.7670   30.0010   43.9710 H   0  0  0  0  0  0  0  0  0  0  0  0
   30.6300   28.4240   44.9300 N   0  0  0  0  0  0  0  0  0  0  0  0
   30.0130   28.0220   44.1840 H   0  0  0  0  0  0  0  0  0  0  0  0
   30.6050   27.9460   46.1880 C   0  0  0  0  0  0  0  0  0  0  0  0
   30.0590   27.1720   46.6980 H   0  0  0  0  0  0  0  0  0  0  0  0
   31.5080   28.6740   46.8910 N   0  0  0  0  0  0  0  0  0  0  0  0
  2  1  2  6  0  0  0
  2  3  1  0  0  0  0
  2  5  1  0  0  0  0
  3  4  1  0  0  0  0
  5  6  1  0  0  0  0
  6  7  1  0  0  0  0
  7 12  1  0  0  0  0
  7  8  2  0  0  0  0
  8 13  1  0  0  0  0
  9  8  1  0  0  0  0
 10  9  2  0  0  0  0
 11  6  2  0  0  0  0
 11 10  1  0  0  0  0
 14 10  1  0  0  0  0
 15  2  1  0  0  0  0
 16 15  1  0  0  0  0
 16 23  1  0  0  0  0
 17 19  1  0  0  0  0
 17 16  2  0  0  0  0
 18 17  1  0  0  0  0
 19 21  1  0  0  0  0
 20 19  1  0  0  0  0
 21 22  1  0  0  0  0
 21 23  2  0  0  0  0
M  END
>  <minimizedAffinity>
-3.77377701

>  <minimizedRMSD>
1.7671057

$$$$
