
 OpenBabel03272510293D

 27 29  0  0  0  0  0  0  0  0999 V2000
   37.1430   31.3050   49.2160 C   0  0  0  0  0  0  0  0  0  0  0  0
   37.3630   32.5400   49.8240 C   0  0  0  0  0  0  0  0  0  0  0  0
   38.3230   33.3410   49.2250 C   0  0  0  0  0  0  0  0  0  0  0  0
   38.9820   32.9020   48.1120 N   0  0  0  0  0  0  0  0  0  0  0  0
   38.7380   31.6850   47.5450 C   0  0  0  0  0  0  0  0  0  0  0  0
   37.7930   30.8720   48.1190 N   0  0  0  0  0  0  0  0  0  0  0  0
   36.8340   32.8640   50.6970 H   0  0  0  0  0  0  0  0  0  0  0  0
   38.5830   34.3030   49.5930 H   0  0  0  0  0  0  0  0  0  0  0  0
   36.0840   30.4160   49.8140 C   0  0  0  0  0  0  0  0  0  0  0  0
   36.0740   28.9860   49.6260 C   0  0  0  0  0  0  0  0  0  0  0  0
   36.6190   29.5170   50.9320 C   0  0  0  0  0  0  0  0  0  0  0  0
   35.1100   30.9270   50.0730 H   0  0  0  0  0  0  0  0  0  0  0  0
   35.1540   28.4070   49.6050 H   0  0  0  0  0  0  0  0  0  0  0  0
   36.8490   28.5680   48.9310 H   0  0  0  0  0  0  0  0  0  0  0  0
   37.6890   29.5290   51.1400 H   0  0  0  0  0  0  0  0  0  0  0  0
   35.9230   29.3410   51.7760 H   0  0  0  0  0  0  0  0  0  0  0  0
   39.4100   31.1750   46.3560 C   0  0  0  0  0  0  0  0  0  0  0  0
   40.3580   31.7730   46.2390 H   0  0  0  0  0  0  0  0  0  0  0  0
   39.7160   30.1420   46.5350 H   0  0  0  0  0  0  0  0  0  0  0  0
   38.5680   31.2930   45.1240 C   0  0  0  0  0  0  0  0  0  0  0  0
   38.2260   30.3790   44.1520 C   0  0  0  0  0  0  0  0  0  0  0  0
   38.5660   29.3530   44.1720 H   0  0  0  0  0  0  0  0  0  0  0  0
   37.4410   31.0540   43.2790 N   0  0  0  0  0  0  0  0  0  0  0  0
   37.0260   30.6060   42.4240 H   0  0  0  0  0  0  0  0  0  0  0  0
   37.2810   32.3280   43.6570 C   0  0  0  0  0  0  0  0  0  0  0  0
   36.7160   33.0950   43.1660 H   0  0  0  0  0  0  0  0  0  0  0  0
   37.9860   32.4720   44.8080 N   0  0  0  0  0  0  0  0  0  0  0  0
  1  9  1  0  0  0  0
  1  2  1  0  0  0  0
  2  7  1  0  0  0  0
  3  8  1  0  0  0  0
  3  2  2  0  0  0  0
  4  3  1  0  0  0  0
  5  4  2  0  0  0  0
  5  6  1  0  0  0  0
  6  1  2  0  0  0  0
  9 12  1  0  0  0  0
  9 11  1  0  0  0  0
 10  9  1  0  0  0  0
 10 11  1  0  0  0  0
 11 15  1  0  0  0  0
 11 16  1  0  0  0  0
 13 10  1  0  0  0  0
 14 10  1  0  0  0  0
 17 19  1  0  0  0  0
 17  5  1  0  0  0  0
 18 17  1  0  0  0  0
 20 17  1  0  0  0  0
 21 22  1  0  0  0  0
 21 20  2  0  0  0  0
 23 25  1  0  0  0  0
 23 21  1  0  0  0  0
 24 23  1  0  0  0  0
 25 27  2  0  0  0  0
 26 25  1  0  0  0  0
 27 20  1  0  0  0  0
M  END
>  <minimizedAffinity>
-5.0842886

>  <minimizedRMSD>
0.480619431

$$$$
