
 OpenBabel03272504193D

 26 27  0  0  0  0  0  0  0  0999 V2000
   38.0430   32.0780   47.1870 O   0  0  0  0  0  0  0  0  0  0  0  0
   38.6010   31.9350   48.4300 C   0  0  0  0  0  0  0  0  0  0  0  0
   38.6470   32.9520   48.9180 H   0  0  0  0  0  0  0  0  0  0  0  0
   39.6560   31.5860   48.4230 H   0  0  0  0  0  0  0  0  0  0  0  0
   37.8710   30.9720   49.2930 C   0  0  0  0  0  0  0  0  0  0  0  0
   36.9900   30.0960   48.6670 C   0  0  0  0  0  0  0  0  0  0  0  0
   36.2930   29.1810   49.4720 C   0  0  0  0  0  0  0  0  0  0  0  0
   36.5250   29.2100   50.8090 N   0  0  0  0  0  0  0  0  0  0  0  0
   37.3770   30.0640   51.3890 C   0  0  0  0  0  0  0  0  0  0  0  0
   38.0440   30.9390   50.6290 N   0  0  0  0  0  0  0  0  0  0  0  0
   36.7920   30.0570   47.6010 H   0  0  0  0  0  0  0  0  0  0  0  0
   35.5960   28.4720   49.0530 H   0  0  0  0  0  0  0  0  0  0  0  0
   37.5580   30.0840   52.4560 H   0  0  0  0  0  0  0  0  0  0  0  0
   40.2950   31.3980   46.0180 O   0  0  0  0  0  0  0  0  0  0  0  0
   39.2770   32.5040   46.1110 P   0  0  2  0  0  0  0  0  0  0  0  0
   40.0880   33.8910   46.6970 O   0  0  0  0  0  0  0  0  0  0  0  0
   39.4680   34.6480   46.5450 H   0  0  0  0  0  0  0  0  0  0  0  0
   38.6510   32.8120   44.5670 O   0  0  0  0  0  0  0  0  0  0  0  0
   38.3120   31.7490   43.7290 C   0  0  0  0  0  0  0  0  0  0  0  0
   37.0730   31.1410   43.7810 C   0  0  0  0  0  0  0  0  0  0  0  0
   36.1850   31.3200   44.3990 H   0  0  0  0  0  0  0  0  0  0  0  0
   37.0090   30.1430   42.8650 N   0  0  0  0  0  0  0  0  0  0  0  0
   36.2840   29.4520   42.5760 H   0  0  0  0  0  0  0  0  0  0  0  0
   38.2130   30.1250   42.2370 C   0  0  0  0  0  0  0  0  0  0  0  0
   38.6720   29.5280   41.4380 H   0  0  0  0  0  0  0  0  0  0  0  0
   38.9740   31.0890   42.7680 N   0  0  0  0  0  0  0  0  0  0  0  0
  1  2  1  0  0  0  0
  2  3  1  0  0  0  0
  2  5  1  0  0  0  0
  4  2  1  0  0  0  0
  5 10  1  0  0  0  0
  6  5  2  0  0  0  0
  6  7  1  0  0  0  0
  7  8  2  0  0  0  0
  8  9  1  0  0  0  0
  9 13  1  0  0  0  0
 10  9  2  0  0  0  0
 11  6  1  0  0  0  0
 12  7  1  0  0  0  0
 15 14  2  6  0  0  0
 15 16  1  0  0  0  0
 15  1  1  0  0  0  0
 17 16  1  0  0  0  0
 18 15  1  0  0  0  0
 19 20  2  0  0  0  0
 19 18  1  0  0  0  0
 20 21  1  0  0  0  0
 22 20  1  0  0  0  0
 23 22  1  0  0  0  0
 24 26  2  0  0  0  0
 24 22  1  0  0  0  0
 25 24  1  0  0  0  0
 26 19  1  0  0  0  0
M  END
>  <minimizedAffinity>
-4.59563684

>  <minimizedRMSD>
6.11230326

$$$$
