
 OpenBabel03262521103D

 23 24  0  0  0  0  0  0  0  0999 V2000
   36.6450   27.7820   34.7570 O   0  0  0  0  0  0  0  0  0  0  0  0
   37.8080   26.8670   35.0950 P   0  0  1  0  0  0  0  0  0  0  0  0
   38.9010   27.6250   36.1580 O   0  0  0  0  0  0  0  0  0  0  0  0
   39.7390   27.1100   36.0780 H   0  0  0  0  0  0  0  0  0  0  0  0
   37.2970   25.4290   35.8610 O   0  0  0  0  0  0  0  0  0  0  0  0
   38.1970   24.5500   36.4560 C   0  0  0  0  0  0  0  0  0  0  0  0
   39.3240   23.9840   35.8380 C   0  0  0  0  0  0  0  0  0  0  0  0
   40.1030   23.1270   36.5970 C   0  0  0  0  0  0  0  0  0  0  0  0
   39.7700   22.8620   37.8820 N   0  0  0  0  0  0  0  0  0  0  0  0
   38.6590   23.4330   38.4530 C   0  0  0  0  0  0  0  0  0  0  0  0
   37.8800   24.2750   37.7330 N   0  0  0  0  0  0  0  0  0  0  0  0
   39.4830   24.2700   34.8210 H   0  0  0  0  0  0  0  0  0  0  0  0
   40.9700   22.6960   36.1110 H   0  0  0  0  0  0  0  0  0  0  0  0
   38.4480   23.1780   39.4850 H   0  0  0  0  0  0  0  0  0  0  0  0
   38.5730   26.4870   33.6330 O   0  0  0  0  0  0  0  0  0  0  0  0
   37.7470   26.1490   32.5520 C   0  0  0  0  0  0  0  0  0  0  0  0
   37.5430   26.7980   31.3510 C   0  0  0  0  0  0  0  0  0  0  0  0
   38.0320   27.7220   31.0680 H   0  0  0  0  0  0  0  0  0  0  0  0
   36.6650   26.0970   30.6340 N   0  0  0  0  0  0  0  0  0  0  0  0
   36.2800   26.2930   29.6790 H   0  0  0  0  0  0  0  0  0  0  0  0
   36.2850   25.0080   31.3270 C   0  0  0  0  0  0  0  0  0  0  0  0
   35.6140   24.1860   31.1490 H   0  0  0  0  0  0  0  0  0  0  0  0
   36.9580   25.0510   32.5050 N   0  0  0  0  0  0  0  0  0  0  0  0
  2  1  2  6  0  0  0
  2  5  1  0  0  0  0
  2  3  1  0  0  0  0
  4  3  1  0  0  0  0
  5  6  1  0  0  0  0
  6 11  1  0  0  0  0
  7  6  2  0  0  0  0
  7  8  1  0  0  0  0
  8  9  2  0  0  0  0
  9 10  1  0  0  0  0
 10 14  1  0  0  0  0
 11 10  2  0  0  0  0
 12  7  1  0  0  0  0
 13  8  1  0  0  0  0
 15  2  1  0  0  0  0
 16 15  1  0  0  0  0
 17 16  2  0  0  0  0
 18 17  1  0  0  0  0
 19 21  1  0  0  0  0
 19 17  1  0  0  0  0
 20 19  1  0  0  0  0
 21 23  2  0  0  0  0
 22 21  1  0  0  0  0
 23 16  1  0  0  0  0
M  END
>  <minimizedAffinity>
-4.52313089

$$$$

 OpenBabel03262521103D

 23 24  0  0  0  0  0  0  0  0999 V2000
   39.5240   27.0620   34.4550 O   0  0  0  0  0  0  0  0  0  0  0  0
   38.3790   26.4890   35.2690 P   0  0  1  0  0  0  0  0  0  0  0  0
   38.4190   27.0560   36.8750 O   0  0  0  0  0  0  0  0  0  0  0  0
   37.8610   26.4240   37.3870 H   0  0  0  0  0  0  0  0  0  0  0  0
   36.8540   26.9240   34.6350 O   0  0  0  0  0  0  0  0  0  0  0  0
   36.6780   27.2460   33.2930 C   0  0  0  0  0  0  0  0  0  0  0  0
   36.4120   28.5270   32.7820 C   0  0  0  0  0  0  0  0  0  0  0  0
   36.2680   28.6490   31.4110 C   0  0  0  0  0  0  0  0  0  0  0  0
   36.3820   27.5600   30.6150 N   0  0  0  0  0  0  0  0  0  0  0  0
   36.6420   26.3230   31.1490 C   0  0  0  0  0  0  0  0  0  0  0  0
   36.7880   26.1750   32.4880 N   0  0  0  0  0  0  0  0  0  0  0  0
   36.3450   29.3070   33.5100 H   0  0  0  0  0  0  0  0  0  0  0  0
   36.0630   29.6420   31.0280 H   0  0  0  0  0  0  0  0  0  0  0  0
   36.7210   25.4920   30.4570 H   0  0  0  0  0  0  0  0  0  0  0  0
   38.5470   24.8050   35.2330 O   0  0  0  0  0  0  0  0  0  0  0  0
   38.6320   24.1470   36.4680 C   0  0  0  0  0  0  0  0  0  0  0  0
   39.5310   23.1970   36.9100 C   0  0  0  0  0  0  0  0  0  0  0  0
   40.3480   22.8090   36.3140 H   0  0  0  0  0  0  0  0  0  0  0  0
   39.2140   22.8630   38.1610 N   0  0  0  0  0  0  0  0  0  0  0  0
   39.6780   22.1760   38.8020 H   0  0  0  0  0  0  0  0  0  0  0  0
   38.1340   23.5630   38.5540 C   0  0  0  0  0  0  0  0  0  0  0  0
   37.5470   23.6170   39.4530 H   0  0  0  0  0  0  0  0  0  0  0  0
   37.7860   24.3490   37.5040 N   0  0  0  0  0  0  0  0  0  0  0  0
  2  1  2  6  0  0  0
  2  3  1  0  0  0  0
  3  4  1  0  0  0  0
  5  2  1  0  0  0  0
  6  5  1  0  0  0  0
  7  6  1  0  0  0  0
  7 12  1  0  0  0  0
  8  7  2  0  0  0  0
  9 10  2  0  0  0  0
  9  8  1  0  0  0  0
 10 11  1  0  0  0  0
 11  6  2  0  0  0  0
 13  8  1  0  0  0  0
 14 10  1  0  0  0  0
 15  2  1  0  0  0  0
 15 16  1  0  0  0  0
 16 17  2  0  0  0  0
 16 23  1  0  0  0  0
 17 19  1  0  0  0  0
 18 17  1  0  0  0  0
 19 21  1  0  0  0  0
 19 20  1  0  0  0  0
 21 22  1  0  0  0  0
 23 21  2  0  0  0  0
M  END
>  <minimizedAffinity>
-4.41655064

$$$$

 OpenBabel03262521103D

 23 24  0  0  0  0  0  0  0  0999 V2000
   40.0220   25.9470   35.0070 O   0  0  0  0  0  0  0  0  0  0  0  0
   38.7710   25.2310   34.5320 P   0  0  1  0  0  0  0  0  0  0  0  0
   37.3660   25.9730   35.1450 O   0  0  0  0  0  0  0  0  0  0  0  0
   36.6550   25.2950   35.0530 H   0  0  0  0  0  0  0  0  0  0  0  0
   38.6280   25.2430   32.8300 O   0  0  0  0  0  0  0  0  0  0  0  0
   37.3900   25.2230   32.1940 C   0  0  0  0  0  0  0  0  0  0  0  0
   36.6970   24.0740   31.7790 C   0  0  0  0  0  0  0  0  0  0  0  0
   35.4720   24.2570   31.1600 C   0  0  0  0  0  0  0  0  0  0  0  0
   34.9840   25.5070   30.9740 N   0  0  0  0  0  0  0  0  0  0  0  0
   35.6900   26.6070   31.3920 C   0  0  0  0  0  0  0  0  0  0  0  0
   36.8910   26.4560   32.0010 N   0  0  0  0  0  0  0  0  0  0  0  0
   37.1840   23.1440   31.9820 H   0  0  0  0  0  0  0  0  0  0  0  0
   34.9460   23.3650   30.8440 H   0  0  0  0  0  0  0  0  0  0  0  0
   35.2440   27.5790   31.2120 H   0  0  0  0  0  0  0  0  0  0  0  0
   38.8830   23.6330   35.0790 O   0  0  0  0  0  0  0  0  0  0  0  0
   38.8930   23.4340   36.4670 C   0  0  0  0  0  0  0  0  0  0  0  0
   39.7600   22.7060   37.2550 C   0  0  0  0  0  0  0  0  0  0  0  0
   40.6100   22.1530   36.8740 H   0  0  0  0  0  0  0  0  0  0  0  0
   39.3680   22.8100   38.5250 N   0  0  0  0  0  0  0  0  0  0  0  0
   39.7900   22.3890   39.3870 H   0  0  0  0  0  0  0  0  0  0  0  0
   38.2700   23.5840   38.5940 C   0  0  0  0  0  0  0  0  0  0  0  0
   37.6300   23.9300   39.3870 H   0  0  0  0  0  0  0  0  0  0  0  0
   37.9870   23.9620   37.3220 N   0  0  0  0  0  0  0  0  0  0  0  0
  2  1  2  1  0  0  0
  2 15  1  0  0  0  0
  2  3  1  0  0  0  0
  4  3  1  0  0  0  0
  5  2  1  0  0  0  0
  6  5  1  0  0  0  0
  7 12  1  0  0  0  0
  7  6  2  0  0  0  0
  8  7  1  0  0  0  0
  9  8  2  0  0  0  0
  9 10  1  0  0  0  0
 10 11  2  0  0  0  0
 11  6  1  0  0  0  0
 13  8  1  0  0  0  0
 14 10  1  0  0  0  0
 15 16  1  0  0  0  0
 16 17  2  0  0  0  0
 16 23  1  0  0  0  0
 17 19  1  0  0  0  0
 18 17  1  0  0  0  0
 19 21  1  0  0  0  0
 19 20  1  0  0  0  0
 21 22  1  0  0  0  0
 23 21  2  0  0  0  0
M  END
>  <minimizedAffinity>
-4.36495256

$$$$

 OpenBabel03262521103D

 23 24  0  0  0  0  0  0  0  0999 V2000
   40.2920   27.3440   34.0030 O   0  0  0  0  0  0  0  0  0  0  0  0
   39.2450   26.6490   34.8530 P   0  0  1  0  0  0  0  0  0  0  0  0
   38.8890   27.5510   36.2530 O   0  0  0  0  0  0  0  0  0  0  0  0
   38.4600   26.9120   36.8700 H   0  0  0  0  0  0  0  0  0  0  0  0
   37.7700   26.4400   34.0180 O   0  0  0  0  0  0  0  0  0  0  0  0
   37.0540   27.5170   33.5040 C   0  0  0  0  0  0  0  0  0  0  0  0
   36.9860   27.8900   32.1520 C   0  0  0  0  0  0  0  0  0  0  0  0
   36.2170   28.9970   31.8340 C   0  0  0  0  0  0  0  0  0  0  0  0
   35.5660   29.6760   32.8080 N   0  0  0  0  0  0  0  0  0  0  0  0
   35.6560   29.2830   34.1200 C   0  0  0  0  0  0  0  0  0  0  0  0
   36.4010   28.2030   34.4590 N   0  0  0  0  0  0  0  0  0  0  0  0
   37.5420   27.2760   31.4770 H   0  0  0  0  0  0  0  0  0  0  0  0
   36.1710   29.2760   30.7880 H   0  0  0  0  0  0  0  0  0  0  0  0
   35.1120   29.8700   34.8510 H   0  0  0  0  0  0  0  0  0  0  0  0
   39.8780   25.1350   35.2700 O   0  0  0  0  0  0  0  0  0  0  0  0
   39.0220   24.2510   35.9410 C   0  0  0  0  0  0  0  0  0  0  0  0
   38.7950   22.9050   35.7370 C   0  0  0  0  0  0  0  0  0  0  0  0
   39.2870   22.3140   34.9730 H   0  0  0  0  0  0  0  0  0  0  0  0
   37.8910   22.4880   36.6230 N   0  0  0  0  0  0  0  0  0  0  0  0
   37.4850   21.5310   36.7560 H   0  0  0  0  0  0  0  0  0  0  0  0
   37.5170   23.5180   37.4040 C   0  0  0  0  0  0  0  0  0  0  0  0
   36.8340   23.6430   38.2240 H   0  0  0  0  0  0  0  0  0  0  0  0
   38.2200   24.5970   36.9740 N   0  0  0  0  0  0  0  0  0  0  0  0
  2  1  2  6  0  0  0
  2 15  1  0  0  0  0
  2  3  1  0  0  0  0
  3  4  1  0  0  0  0
  5  2  1  0  0  0  0
  6  5  1  0  0  0  0
  6 11  1  0  0  0  0
  7  6  2  0  0  0  0
  8  7  1  0  0  0  0
  8  9  2  0  0  0  0
  9 10  1  0  0  0  0
 10 11  2  0  0  0  0
 10 14  1  0  0  0  0
 12  7  1  0  0  0  0
 13  8  1  0  0  0  0
 15 16  1  0  0  0  0
 16 23  1  0  0  0  0
 17 16  2  0  0  0  0
 17 19  1  0  0  0  0
 18 17  1  0  0  0  0
 19 20  1  0  0  0  0
 19 21  1  0  0  0  0
 21 22  1  0  0  0  0
 23 21  2  0  0  0  0
M  END
>  <minimizedAffinity>
-4.34039736

$$$$

 OpenBabel03262521103D

 23 24  0  0  0  0  0  0  0  0999 V2000
   38.8840   27.5280   35.6450 O   0  0  0  0  0  0  0  0  0  0  0  0
   38.2090   26.4910   34.7660 P   0  0  1  0  0  0  0  0  0  0  0  0
   39.3290   25.7420   33.7240 O   0  0  0  0  0  0  0  0  0  0  0  0
   38.7850   25.3340   33.0100 H   0  0  0  0  0  0  0  0  0  0  0  0
   37.4820   25.2450   35.6800 O   0  0  0  0  0  0  0  0  0  0  0  0
   38.2170   24.4390   36.5450 C   0  0  0  0  0  0  0  0  0  0  0  0
   37.9560   24.2470   37.9110 C   0  0  0  0  0  0  0  0  0  0  0  0
   38.8030   23.4020   38.6090 C   0  0  0  0  0  0  0  0  0  0  0  0
   39.8340   22.7970   37.9740 N   0  0  0  0  0  0  0  0  0  0  0  0
   40.0590   23.0090   36.6370 C   0  0  0  0  0  0  0  0  0  0  0  0
   39.2460   23.8300   35.9300 N   0  0  0  0  0  0  0  0  0  0  0  0
   37.1130   24.7780   38.2970 H   0  0  0  0  0  0  0  0  0  0  0  0
   38.5930   23.2610   39.6620 H   0  0  0  0  0  0  0  0  0  0  0  0
   40.9020   22.4950   36.1890 H   0  0  0  0  0  0  0  0  0  0  0  0
   37.0220   27.3030   33.8720 O   0  0  0  0  0  0  0  0  0  0  0  0
   36.6460   26.7330   32.6480 C   0  0  0  0  0  0  0  0  0  0  0  0
   36.2270   27.3340   31.4780 C   0  0  0  0  0  0  0  0  0  0  0  0
   36.1280   28.4050   31.3460 H   0  0  0  0  0  0  0  0  0  0  0  0
   35.9790   26.3830   30.5790 N   0  0  0  0  0  0  0  0  0  0  0  0
   35.6460   26.4760   29.5890 H   0  0  0  0  0  0  0  0  0  0  0  0
   36.2210   25.1750   31.1210 C   0  0  0  0  0  0  0  0  0  0  0  0
   36.1580   24.1590   30.7760 H   0  0  0  0  0  0  0  0  0  0  0  0
   36.6310   25.4040   32.3940 N   0  0  0  0  0  0  0  0  0  0  0  0
  2  1  2  1  0  0  0
  2  5  1  0  0  0  0
  3  2  1  0  0  0  0
  4  3  1  0  0  0  0
  5  6  1  0  0  0  0
  6  7  1  0  0  0  0
  7 12  1  0  0  0  0
  7  8  2  0  0  0  0
  8 13  1  0  0  0  0
  9  8  1  0  0  0  0
 10  9  2  0  0  0  0
 11  6  2  0  0  0  0
 11 10  1  0  0  0  0
 14 10  1  0  0  0  0
 15  2  1  0  0  0  0
 16 15  1  0  0  0  0
 17 16  2  0  0  0  0
 18 17  1  0  0  0  0
 19 21  1  0  0  0  0
 19 17  1  0  0  0  0
 20 19  1  0  0  0  0
 21 23  2  0  0  0  0
 22 21  1  0  0  0  0
 23 16  1  0  0  0  0
M  END
>  <minimizedAffinity>
-4.30604839

$$$$

 OpenBabel03262521103D

 23 24  0  0  0  0  0  0  0  0999 V2000
   38.7840   27.4780   35.5770 O   0  0  0  0  0  0  0  0  0  0  0  0
   38.2200   26.6960   34.4050 P   0  0  1  0  0  0  0  0  0  0  0  0
   39.3950   26.4660   33.1940 O   0  0  0  0  0  0  0  0  0  0  0  0
   38.8860   26.2390   32.3800 H   0  0  0  0  0  0  0  0  0  0  0  0
   37.6810   25.1420   34.8660 O   0  0  0  0  0  0  0  0  0  0  0  0
   38.3280   24.3970   35.8480 C   0  0  0  0  0  0  0  0  0  0  0  0
   39.5500   23.7220   35.6960 C   0  0  0  0  0  0  0  0  0  0  0  0
   40.0360   23.0310   36.7930 C   0  0  0  0  0  0  0  0  0  0  0  0
   39.3410   23.0230   37.9550 N   0  0  0  0  0  0  0  0  0  0  0  0
   38.1490   23.6950   38.0660 C   0  0  0  0  0  0  0  0  0  0  0  0
   37.6510   24.3790   37.0090 N   0  0  0  0  0  0  0  0  0  0  0  0
   40.0040   23.8030   34.7320 H   0  0  0  0  0  0  0  0  0  0  0  0
   40.9790   22.5140   36.6660 H   0  0  0  0  0  0  0  0  0  0  0  0
   37.6420   23.6480   39.0240 H   0  0  0  0  0  0  0  0  0  0  0  0
   36.9160   27.5900   33.8010 O   0  0  0  0  0  0  0  0  0  0  0  0
   36.7160   27.5670   32.4130 C   0  0  0  0  0  0  0  0  0  0  0  0
   36.1060   26.6170   31.6180 C   0  0  0  0  0  0  0  0  0  0  0  0
   35.6700   25.6990   31.9940 H   0  0  0  0  0  0  0  0  0  0  0  0
   36.1540   27.0300   30.3520 N   0  0  0  0  0  0  0  0  0  0  0  0
   35.7900   26.5630   29.4870 H   0  0  0  0  0  0  0  0  0  0  0  0
   36.7770   28.2220   30.2910 C   0  0  0  0  0  0  0  0  0  0  0  0
   37.0350   28.9070   29.5030 H   0  0  0  0  0  0  0  0  0  0  0  0
   37.1180   28.5410   31.5650 N   0  0  0  0  0  0  0  0  0  0  0  0
  2  5  1  0  0  0  0
  2  1  2  1  0  0  0
  3  2  1  0  0  0  0
  4  3  1  0  0  0  0
  5  6  1  0  0  0  0
  6 11  1  0  0  0  0
  7  6  2  0  0  0  0
  7  8  1  0  0  0  0
  8  9  2  0  0  0  0
  9 10  1  0  0  0  0
 10 14  1  0  0  0  0
 11 10  2  0  0  0  0
 12  7  1  0  0  0  0
 13  8  1  0  0  0  0
 15  2  1  0  0  0  0
 16 15  1  0  0  0  0
 17 18  1  0  0  0  0
 17 16  2  0  0  0  0
 19 17  1  0  0  0  0
 20 19  1  0  0  0  0
 21 19  1  0  0  0  0
 21 23  2  0  0  0  0
 22 21  1  0  0  0  0
 23 16  1  0  0  0  0
M  END
>  <minimizedAffinity>
-4.14661741

$$$$

 OpenBabel03262521103D

 23 24  0  0  0  0  0  0  0  0999 V2000
   36.9020   26.7150   34.9500 O   0  0  0  0  0  0  0  0  0  0  0  0
   38.0420   25.7490   35.2120 P   0  0  1  0  0  0  0  0  0  0  0  0
   38.3260   24.7480   33.8640 O   0  0  0  0  0  0  0  0  0  0  0  0
   38.8410   23.9830   34.2140 H   0  0  0  0  0  0  0  0  0  0  0  0
   39.5100   26.5580   35.5390 O   0  0  0  0  0  0  0  0  0  0  0  0
   40.5830   26.5280   34.6530 C   0  0  0  0  0  0  0  0  0  0  0  0
   41.7910   25.8370   34.8470 C   0  0  0  0  0  0  0  0  0  0  0  0
   42.7440   25.9270   33.8470 C   0  0  0  0  0  0  0  0  0  0  0  0
   42.4960   26.6600   32.7350 N   0  0  0  0  0  0  0  0  0  0  0  0
   41.3040   27.3230   32.5800 C   0  0  0  0  0  0  0  0  0  0  0  0
   40.3540   27.2510   33.5430 N   0  0  0  0  0  0  0  0  0  0  0  0
   41.8680   25.2930   35.7640 H   0  0  0  0  0  0  0  0  0  0  0  0
   43.6710   25.3910   34.0050 H   0  0  0  0  0  0  0  0  0  0  0  0
   41.1690   27.8920   31.6670 H   0  0  0  0  0  0  0  0  0  0  0  0
   37.5980   24.8190   36.5550 O   0  0  0  0  0  0  0  0  0  0  0  0
   38.5310   23.8800   37.0160 C   0  0  0  0  0  0  0  0  0  0  0  0
   38.7370   23.3790   38.2860 C   0  0  0  0  0  0  0  0  0  0  0  0
   38.1590   23.6690   39.1550 H   0  0  0  0  0  0  0  0  0  0  0  0
   39.7420   22.5050   38.2390 N   0  0  0  0  0  0  0  0  0  0  0  0
   40.1640   21.9370   39.0120 H   0  0  0  0  0  0  0  0  0  0  0  0
   40.2030   22.4160   36.9780 C   0  0  0  0  0  0  0  0  0  0  0  0
   40.9800   21.8570   36.4880 H   0  0  0  0  0  0  0  0  0  0  0  0
   39.4500   23.2670   36.2350 N   0  0  0  0  0  0  0  0  0  0  0  0
  2  1  2  6  0  0  0
  2  5  1  0  0  0  0
  2 15  1  0  0  0  0
  3  4  1  0  0  0  0
  3  2  1  0  0  0  0
  6  7  1  0  0  0  0
  6  5  1  0  0  0  0
  7 12  1  0  0  0  0
  8 13  1  0  0  0  0
  8  7  2  0  0  0  0
  9  8  1  0  0  0  0
 10  9  2  0  0  0  0
 10 11  1  0  0  0  0
 11  6  2  0  0  0  0
 14 10  1  0  0  0  0
 15 16  1  0  0  0  0
 16 17  2  0  0  0  0
 17 18  1  0  0  0  0
 19 17  1  0  0  0  0
 19 20  1  0  0  0  0
 21 19  1  0  0  0  0
 22 21  1  0  0  0  0
 23 21  2  0  0  0  0
 23 16  1  0  0  0  0
M  END
>  <minimizedAffinity>
-4.05178499

$$$$

 OpenBabel03262521103D

 23 24  0  0  0  0  0  0  0  0999 V2000
   39.4790   23.7740   32.6720 O   0  0  0  0  0  0  0  0  0  0  0  0
   38.7430   23.6790   33.9960 P   0  0  1  0  0  0  0  0  0  0  0  0
   37.7670   25.0490   34.2590 O   0  0  0  0  0  0  0  0  0  0  0  0
   37.5820   25.0530   35.2280 H   0  0  0  0  0  0  0  0  0  0  0  0
   37.7090   22.3210   34.0630 O   0  0  0  0  0  0  0  0  0  0  0  0
   37.2960   21.6500   32.9160 C   0  0  0  0  0  0  0  0  0  0  0  0
   37.9270   20.5330   32.3440 C   0  0  0  0  0  0  0  0  0  0  0  0
   37.3640   20.0010   31.1970 C   0  0  0  0  0  0  0  0  0  0  0  0
   36.2480   20.5560   30.6660 N   0  0  0  0  0  0  0  0  0  0  0  0
   35.6590   21.6490   31.2520 C   0  0  0  0  0  0  0  0  0  0  0  0
   36.1890   22.1880   32.3760 N   0  0  0  0  0  0  0  0  0  0  0  0
   38.7990   20.1860   32.8550 H   0  0  0  0  0  0  0  0  0  0  0  0
   37.8570   19.1400   30.7640 H   0  0  0  0  0  0  0  0  0  0  0  0
   34.7680   22.0450   30.7770 H   0  0  0  0  0  0  0  0  0  0  0  0
   39.9220   23.5520   35.2040 O   0  0  0  0  0  0  0  0  0  0  0  0
   39.4690   23.3900   36.5210 C   0  0  0  0  0  0  0  0  0  0  0  0
   40.0050   22.6610   37.5630 C   0  0  0  0  0  0  0  0  0  0  0  0
   40.9140   22.0760   37.4920 H   0  0  0  0  0  0  0  0  0  0  0  0
   39.2220   22.8090   38.6310 N   0  0  0  0  0  0  0  0  0  0  0  0
   39.3240   22.4000   39.5910 H   0  0  0  0  0  0  0  0  0  0  0  0
   38.1870   23.6130   38.3230 C   0  0  0  0  0  0  0  0  0  0  0  0
   37.3350   23.9950   38.8550 H   0  0  0  0  0  0  0  0  0  0  0  0
   38.3510   23.9630   37.0220 N   0  0  0  0  0  0  0  0  0  0  0  0
  2  1  2  6  0  0  0
  2  5  1  0  0  0  0
  2  3  1  0  0  0  0
  2 15  1  0  0  0  0
  3  4  1  0  0  0  0
  6  5  1  0  0  0  0
  7 12  1  0  0  0  0
  7  6  2  0  0  0  0
  8  7  1  0  0  0  0
  9  8  2  0  0  0  0
  9 10  1  0  0  0  0
 10 11  2  0  0  0  0
 11  6  1  0  0  0  0
 13  8  1  0  0  0  0
 14 10  1  0  0  0  0
 15 16  1  0  0  0  0
 16 23  1  0  0  0  0
 16 17  2  0  0  0  0
 17 19  1  0  0  0  0
 18 17  1  0  0  0  0
 19 20  1  0  0  0  0
 21 19  1  0  0  0  0
 21 22  1  0  0  0  0
 23 21  2  0  0  0  0
M  END
>  <minimizedAffinity>
-3.94740248

$$$$

 OpenBabel03262521103D

 23 24  0  0  0  0  0  0  0  0999 V2000
   39.2960   26.2480   34.3560 O   0  0  0  0  0  0  0  0  0  0  0  0
   38.1700   26.6730   35.2810 P   0  0  1  0  0  0  0  0  0  0  0  0
   38.7460   27.6690   36.5370 O   0  0  0  0  0  0  0  0  0  0  0  0
   38.0460   27.6410   37.2310 H   0  0  0  0  0  0  0  0  0  0  0  0
   36.9640   27.5640   34.4630 O   0  0  0  0  0  0  0  0  0  0  0  0
   36.7520   27.4340   33.0940 C   0  0  0  0  0  0  0  0  0  0  0  0
   36.5640   26.2280   32.4010 C   0  0  0  0  0  0  0  0  0  0  0  0
   36.3650   26.3020   31.0330 C   0  0  0  0  0  0  0  0  0  0  0  0
   36.3580   27.5050   30.4110 N   0  0  0  0  0  0  0  0  0  0  0  0
   36.5460   28.6650   31.1210 C   0  0  0  0  0  0  0  0  0  0  0  0
   36.7410   28.6200   32.4610 N   0  0  0  0  0  0  0  0  0  0  0  0
   36.5900   25.3440   33.0010 H   0  0  0  0  0  0  0  0  0  0  0  0
   36.2210   25.3660   30.5080 H   0  0  0  0  0  0  0  0  0  0  0  0
   36.5290   29.5950   30.5640 H   0  0  0  0  0  0  0  0  0  0  0  0
   37.4940   25.2550   35.9140 O   0  0  0  0  0  0  0  0  0  0  0  0
   38.2390   24.0760   35.7720 C   0  0  0  0  0  0  0  0  0  0  0  0
   38.1380   23.0670   34.8360 C   0  0  0  0  0  0  0  0  0  0  0  0
   37.4150   23.0570   34.0290 H   0  0  0  0  0  0  0  0  0  0  0  0
   39.0630   22.1460   35.1030 N   0  0  0  0  0  0  0  0  0  0  0  0
   39.2710   21.2500   34.6020 H   0  0  0  0  0  0  0  0  0  0  0  0
   39.7680   22.5180   36.1870 C   0  0  0  0  0  0  0  0  0  0  0  0
   40.5850   22.0970   36.7460 H   0  0  0  0  0  0  0  0  0  0  0  0
   39.2520   23.7070   36.5890 N   0  0  0  0  0  0  0  0  0  0  0  0
  2  1  2  6  0  0  0
  2 15  1  0  0  0  0
  2  3  1  0  0  0  0
  3  4  1  0  0  0  0
  5  2  1  0  0  0  0
  6  5  1  0  0  0  0
  7 12  1  0  0  0  0
  7  6  2  0  0  0  0
  8  7  1  0  0  0  0
  9  8  2  0  0  0  0
  9 10  1  0  0  0  0
 10 11  2  0  0  0  0
 11  6  1  0  0  0  0
 13  8  1  0  0  0  0
 14 10  1  0  0  0  0
 16 15  1  0  0  0  0
 16 23  1  0  0  0  0
 17 19  1  0  0  0  0
 17 16  2  0  0  0  0
 18 17  1  0  0  0  0
 19 21  1  0  0  0  0
 20 19  1  0  0  0  0
 21 23  2  0  0  0  0
 21 22  1  0  0  0  0
M  END
>  <minimizedAffinity>
-3.871768

$$$$
