
 OpenBabel03272504203D

 26 27  0  0  0  0  0  0  0  0999 V2000
   36.1100   30.9600   49.9800 O   0  0  0  0  0  0  0  0  0  0  0  0
   35.2090   29.9840   50.3210 C   0  0  0  0  0  0  0  0  0  0  0  0
   34.5320   30.3920   51.1270 H   0  0  0  0  0  0  0  0  0  0  0  0
   35.6650   29.0780   50.7770 H   0  0  0  0  0  0  0  0  0  0  0  0
   34.4150   29.4910   49.1680 C   0  0  0  0  0  0  0  0  0  0  0  0
   34.4040   30.2750   48.0190 C   0  0  0  0  0  0  0  0  0  0  0  0
   33.6560   29.8190   46.9220 C   0  0  0  0  0  0  0  0  0  0  0  0
   32.9910   28.6430   47.0540 N   0  0  0  0  0  0  0  0  0  0  0  0
   33.0150   27.9060   48.1710 C   0  0  0  0  0  0  0  0  0  0  0  0
   33.7260   28.3340   49.2210 N   0  0  0  0  0  0  0  0  0  0  0  0
   34.9290   31.2160   47.8940 H   0  0  0  0  0  0  0  0  0  0  0  0
   33.6040   30.3750   45.9990 H   0  0  0  0  0  0  0  0  0  0  0  0
   32.4830   26.9690   48.2720 H   0  0  0  0  0  0  0  0  0  0  0  0
   37.6140   28.8310   50.3100 O   0  0  0  0  0  0  0  0  0  0  0  0
   37.6050   30.2150   49.7150 P   0  0  2  0  0  0  0  0  0  0  0  0
   38.8330   31.1120   50.5000 O   0  0  0  0  0  0  0  0  0  0  0  0
   38.9570   31.9290   49.9560 H   0  0  0  0  0  0  0  0  0  0  0  0
   37.9400   30.1080   48.0580 O   0  0  0  0  0  0  0  0  0  0  0  0
   38.6130   31.1480   47.4160 C   0  0  0  0  0  0  0  0  0  0  0  0
   38.4380   32.4680   47.7790 C   0  0  0  0  0  0  0  0  0  0  0  0
   37.8210   32.9520   48.5470 H   0  0  0  0  0  0  0  0  0  0  0  0
   39.2050   33.2680   46.9970 N   0  0  0  0  0  0  0  0  0  0  0  0
   39.3730   34.2960   46.9310 H   0  0  0  0  0  0  0  0  0  0  0  0
   39.8640   32.4450   46.1400 C   0  0  0  0  0  0  0  0  0  0  0  0
   40.5880   32.5780   45.3260 H   0  0  0  0  0  0  0  0  0  0  0  0
   39.4960   31.1870   46.4070 N   0  0  0  0  0  0  0  0  0  0  0  0
  1  2  1  0  0  0  0
  2  4  1  0  0  0  0
  2  3  1  0  0  0  0
  5 10  1  0  0  0  0
  5  2  1  0  0  0  0
  6  5  2  0  0  0  0
  7  8  2  0  0  0  0
  7  6  1  0  0  0  0
  8  9  1  0  0  0  0
  9 13  1  0  0  0  0
  9 10  2  0  0  0  0
 11  6  1  0  0  0  0
 12  7  1  0  0  0  0
 15  1  1  0  0  0  0
 15 14  2  1  0  0  0
 15 16  1  0  0  0  0
 17 16  1  0  0  0  0
 18 15  1  0  0  0  0
 19 20  2  0  0  0  0
 19 18  1  0  0  0  0
 20 21  1  0  0  0  0
 22 20  1  0  0  0  0
 23 22  1  0  0  0  0
 24 26  2  0  0  0  0
 24 22  1  0  0  0  0
 25 24  1  0  0  0  0
 26 19  1  0  0  0  0
M  END
>  <minimizedAffinity>
-4.65819454

>  <minimizedRMSD>
3.36235905

$$$$
