REMARK  Name = 
REMARK  6 active torsions:
REMARK  status: ('A' for Active; 'I' for Inactive)
REMARK    1  A    between atoms: C_1  and  C_2
REMARK    2  A    between atoms: C_1  and  O_8
REMARK    3  A    between atoms: O_8  and  P_10
REMARK    4  A    between atoms: P_10  and  O_11
REMARK    5  A    between atoms: P_10  and  O_12
REMARK    6  A    between atoms: O_12  and  C_19
REMARK                            x       y       z     vdW  Elec       q    Type
REMARK                         _______ _______ _______ _____ _____    ______ ____
ROOT
ATOM      1  O   UNL     1      36.339  31.589  49.619  0.00  0.00    +0.000 OA
ENDROOT
BRANCH   1   2
ATOM      2  C   UNL     1      36.059  30.309  50.021  0.00  0.00    +0.000 C 
ATOM      3  H   UNL     1      35.646  30.349  51.071  0.00  0.00    +0.000 HD
ATOM      4  H   UNL     1      36.949  29.648  50.101  0.00  0.00    +0.000 HD
BRANCH   2   5
ATOM      5  C   UNL     1      35.120  29.602  49.114  0.00  0.00    +0.000 A 
ATOM      6  C   UNL     1      34.673  30.294  47.993  0.00  0.00    +0.000 A 
ATOM      7  C   UNL     1      33.784  29.636  47.128  0.00  0.00    +0.000 A 
ATOM      8  N   UNL     1      33.418  28.367  47.442  0.00  0.00    +0.000 NA
ATOM      9  C   UNL     1      33.861  27.722  48.528  0.00  0.00    +0.000 A 
ATOM     10  N   UNL     1      34.708  28.342  49.357  0.00  0.00    +0.000 NA
ATOM     11  H   UNL     1      34.954  31.307  47.725  0.00  0.00    +0.000 HD
ATOM     12  H   UNL     1      33.399  30.112  46.240  0.00  0.00    +0.000 HD
ATOM     13  H   UNL     1      33.566  26.710  48.775  0.00  0.00    +0.000 HD
ENDBRANCH   2   5
ENDBRANCH   1   2
BRANCH   1  15
ATOM     14  O   UNL     1      38.395  31.171  48.038  0.00  0.00    +0.000 OA
ATOM     15  P   UNL     1      38.011  31.707  49.392  0.00  0.00    +0.000 P 
BRANCH  15  16
ATOM     16  O   UNL     1      38.812  30.750  50.562  0.00  0.00    +0.000 OA
ATOM     17  H   UNL     1      38.726  31.243  51.416  0.00  0.00    +0.000 HD
ENDBRANCH  15  16
BRANCH  15  18
ATOM     18  O   UNL     1      38.524  33.317  49.516  0.00  0.00    +0.000 OA
BRANCH  18  19
ATOM     19  C   UNL     1      38.178  34.073  50.636  0.00  0.00    +0.000 A 
ATOM     20  C   UNL     1      38.984  35.090  51.111  0.00  0.00    +0.000 A 
ATOM     21  H   UNL     1      39.949  35.491  50.775  0.00  0.00    +0.000 HD
ATOM     22  N   UNL     1      38.415  35.658  52.203  0.00  0.00    +0.000 N 
ATOM     23  H   UNL     1      38.675  36.432  52.852  0.00  0.00    +0.000 HD
ATOM     24  C   UNL     1      37.249  34.995  52.413  0.00  0.00    +0.000 A 
ATOM     25  H   UNL     1      36.433  35.059  53.145  0.00  0.00    +0.000 HD
ATOM     26  N   UNL     1      37.127  34.056  51.469  0.00  0.00    +0.000 NA
ENDBRANCH  18  19
ENDBRANCH  15  18
ENDBRANCH   1  15
TORSDOF 6
