
 OpenBabel03272510113D

 34 37  0  0  0  0  0  0  0  0999 V2000
   33.7480   28.5040   48.8310 C   0  0  0  0  0  0  0  0  0  0  0  0
   33.9020   28.8430   50.1290 C   0  0  0  0  0  0  0  0  0  0  0  0
   34.9710   29.5420   50.6430 C   0  0  0  0  0  0  0  0  0  0  0  0
   35.9800   29.9450   49.8120 C   0  0  0  0  0  0  0  0  0  0  0  0
   35.8250   29.5950   48.4690 C   0  0  0  0  0  0  0  0  0  0  0  0
   34.7630   28.9120   48.0170 N   0  0  0  0  0  0  0  0  0  0  0  0
   33.1560   28.5690   50.8600 H   0  0  0  0  0  0  0  0  0  0  0  0
   35.0810   29.8090   51.6880 H   0  0  0  0  0  0  0  0  0  0  0  0
   36.6030   29.8910   47.7610 H   0  0  0  0  0  0  0  0  0  0  0  0
   31.3790   27.6720   48.9430 C   0  0  0  0  0  0  0  0  0  0  0  0
   32.6330   27.7770   48.3040 C   0  0  0  0  0  0  0  0  0  0  0  0
   32.7480   27.1220   47.0950 C   0  0  0  0  0  0  0  0  0  0  0  0
   31.6930   26.4250   46.5790 N   0  0  0  0  0  0  0  0  0  0  0  0
   30.5220   26.3640   47.2420 C   0  0  0  0  0  0  0  0  0  0  0  0
   30.3560   26.9810   48.4180 N   0  0  0  0  0  0  0  0  0  0  0  0
   31.2570   28.1740   49.8910 H   0  0  0  0  0  0  0  0  0  0  0  0
   33.7020   27.1850   46.5800 H   0  0  0  0  0  0  0  0  0  0  0  0
   29.8140   25.7680   46.6740 H   0  0  0  0  0  0  0  0  0  0  0  0
   37.1270   30.6540   50.1640 O   0  0  0  0  0  0  0  0  0  0  0  0
   37.8600   31.3550   49.2090 C   0  0  0  0  0  0  0  0  0  0  0  0
   38.1570   32.6750   49.5770 C   0  0  0  0  0  0  0  0  0  0  0  0
   38.8830   33.2620   48.5560 C   0  0  0  0  0  0  0  0  0  0  0  0
   39.0020   32.3070   47.6230 N   0  0  0  0  0  0  0  0  0  0  0  0
   38.4120   31.1960   47.9930 N   0  0  0  0  0  0  0  0  0  0  0  0
   37.9410   33.2980   50.4610 H   0  0  0  0  0  0  0  0  0  0  0  0
   39.3220   34.2260   48.3790 H   0  0  0  0  0  0  0  0  0  0  0  0
   39.6600   32.3640   46.3530 C   0  0  0  0  0  0  0  0  0  0  0  0
   39.9800   33.2940   45.3900 C   0  0  0  0  0  0  0  0  0  0  0  0
   39.6630   34.3090   45.6050 H   0  0  0  0  0  0  0  0  0  0  0  0
   40.6230   32.6350   44.4200 N   0  0  0  0  0  0  0  0  0  0  0  0
   40.9540   33.1700   43.5890 H   0  0  0  0  0  0  0  0  0  0  0  0
   40.7210   31.3330   44.7300 C   0  0  0  0  0  0  0  0  0  0  0  0
   41.2100   30.5850   44.0850 H   0  0  0  0  0  0  0  0  0  0  0  0
   40.1280   31.1570   45.9220 N   0  0  0  0  0  0  0  0  0  0  0  0
  1  2  1  0  0  0  0
  2  3  2  0  0  0  0
  2  7  1  0  0  0  0
  3  8  1  0  0  0  0
  4 19  1  0  0  0  0
  4  3  1  0  0  0  0
  5  4  2  0  0  0  0
  6  5  1  0  0  0  0
  6  1  2  0  0  0  0
  9  5  1  0  0  0  0
 10 16  1  0  0  0  0
 11  1  1  0  0  0  0
 11 10  2  0  0  0  0
 12 11  1  0  0  0  0
 13 12  2  0  0  0  0
 13 14  1  0  0  0  0
 14 15  2  0  0  0  0
 15 10  1  0  0  0  0
 17 12  1  0  0  0  0
 18 14  1  0  0  0  0
 20 21  1  0  0  0  0
 20 19  1  0  0  0  0
 21 25  1  0  0  0  0
 22 21  2  0  0  0  0
 23 24  1  0  0  0  0
 23 22  1  0  0  0  0
 24 20  2  0  0  0  0
 26 22  1  0  0  0  0
 27 23  1  0  0  0  0
 28 29  1  0  0  0  0
 28 27  2  0  0  0  0
 30 32  1  0  0  0  0
 30 28  1  0  0  0  0
 31 30  1  0  0  0  0
 32 34  2  0  0  0  0
 33 32  1  0  0  0  0
 34 27  1  0  0  0  0
M  END
>  <minimizedAffinity>
-6.05225468

>  <minimizedRMSD>
1.50201833

$$$$
