
 OpenBabel03272510113D

 34 37  0  0  0  0  0  0  0  0999 V2000
   33.4520   28.5250   48.1890 C   0  0  0  0  0  0  0  0  0  0  0  0
   34.0790   28.0110   49.2690 C   0  0  0  0  0  0  0  0  0  0  0  0
   35.3130   28.4100   49.7320 C   0  0  0  0  0  0  0  0  0  0  0  0
   35.9930   29.4020   49.0790 C   0  0  0  0  0  0  0  0  0  0  0  0
   35.3480   29.9350   47.9620 C   0  0  0  0  0  0  0  0  0  0  0  0
   34.1440   29.5100   47.5500 N   0  0  0  0  0  0  0  0  0  0  0  0
   33.6190   27.2250   49.8490 H   0  0  0  0  0  0  0  0  0  0  0  0
   35.8050   27.9900   50.6020 H   0  0  0  0  0  0  0  0  0  0  0  0
   35.8470   30.7300   47.4020 H   0  0  0  0  0  0  0  0  0  0  0  0
   31.3790   27.1100   48.3320 C   0  0  0  0  0  0  0  0  0  0  0  0
   32.1690   28.1040   47.7140 C   0  0  0  0  0  0  0  0  0  0  0  0
   31.6320   28.6800   46.5820 C   0  0  0  0  0  0  0  0  0  0  0  0
   30.4080   28.2890   46.1170 N   0  0  0  0  0  0  0  0  0  0  0  0
   29.7050   27.3340   46.7540 C   0  0  0  0  0  0  0  0  0  0  0  0
   30.1800   26.7410   47.8570 N   0  0  0  0  0  0  0  0  0  0  0  0
   31.7720   26.6400   49.2210 H   0  0  0  0  0  0  0  0  0  0  0  0
   32.2170   29.4480   46.0840 H   0  0  0  0  0  0  0  0  0  0  0  0
   28.7670   27.1650   46.2340 H   0  0  0  0  0  0  0  0  0  0  0  0
   37.2430   29.9230   49.4100 O   0  0  0  0  0  0  0  0  0  0  0  0
   37.8630   30.8720   48.6020 C   0  0  0  0  0  0  0  0  0  0  0  0
   38.2660   32.0270   49.2870 C   0  0  0  0  0  0  0  0  0  0  0  0
   38.8640   32.8870   48.3840 C   0  0  0  0  0  0  0  0  0  0  0  0
   38.8080   32.2470   47.2080 N   0  0  0  0  0  0  0  0  0  0  0  0
   38.2290   31.0770   47.3230 N   0  0  0  0  0  0  0  0  0  0  0  0
   38.2050   32.3630   50.3360 H   0  0  0  0  0  0  0  0  0  0  0  0
   39.3150   33.8600   48.4300 H   0  0  0  0  0  0  0  0  0  0  0  0
   39.2810   32.6740   45.9260 C   0  0  0  0  0  0  0  0  0  0  0  0
   40.3810   33.2910   45.3780 C   0  0  0  0  0  0  0  0  0  0  0  0
   41.1610   33.5580   46.0820 H   0  0  0  0  0  0  0  0  0  0  0  0
   40.1520   33.3850   44.0630 N   0  0  0  0  0  0  0  0  0  0  0  0
   40.8790   33.8300   43.4620 H   0  0  0  0  0  0  0  0  0  0  0  0
   38.9570   32.8550   43.7600 C   0  0  0  0  0  0  0  0  0  0  0  0
   38.5450   32.8140   42.7400 H   0  0  0  0  0  0  0  0  0  0  0  0
   38.4120   32.4130   44.9050 N   0  0  0  0  0  0  0  0  0  0  0  0
  1  2  1  0  0  0  0
  2  3  2  0  0  0  0
  2  7  1  0  0  0  0
  3  8  1  0  0  0  0
  4 19  1  0  0  0  0
  4  3  1  0  0  0  0
  5  4  2  0  0  0  0
  6  5  1  0  0  0  0
  6  1  2  0  0  0  0
  9  5  1  0  0  0  0
 10 16  1  0  0  0  0
 11  1  1  0  0  0  0
 11 10  2  0  0  0  0
 12 11  1  0  0  0  0
 13 12  2  0  0  0  0
 13 14  1  0  0  0  0
 14 15  2  0  0  0  0
 15 10  1  0  0  0  0
 17 12  1  0  0  0  0
 18 14  1  0  0  0  0
 20 21  1  0  0  0  0
 20 19  1  0  0  0  0
 21 25  1  0  0  0  0
 22 26  1  0  0  0  0
 22 21  2  0  0  0  0
 23 24  1  0  0  0  0
 23 22  1  0  0  0  0
 24 20  2  0  0  0  0
 27 23  1  0  0  0  0
 28 27  2  0  0  0  0
 28 29  1  0  0  0  0
 30 28  1  0  0  0  0
 31 30  1  0  0  0  0
 32 30  1  0  0  0  0
 32 34  2  0  0  0  0
 33 32  1  0  0  0  0
 34 27  1  0  0  0  0
M  END
>  <minimizedAffinity>
-5.85410309

>  <minimizedRMSD>
1.1718899

$$$$
