
 OpenBabel03272504203D

 26 27  0  0  0  0  0  0  0  0999 V2000
   35.6880   30.4800   50.3230 O   0  0  0  0  0  0  0  0  0  0  0  0
   34.8660   29.3840   50.3050 C   0  0  0  0  0  0  0  0  0  0  0  0
   34.1530   29.4600   51.1770 H   0  0  0  0  0  0  0  0  0  0  0  0
   35.3890   28.4150   50.4620 H   0  0  0  0  0  0  0  0  0  0  0  0
   34.1220   29.2300   49.0300 C   0  0  0  0  0  0  0  0  0  0  0  0
   34.3620   30.1710   48.0340 C   0  0  0  0  0  0  0  0  0  0  0  0
   33.6630   30.0370   46.8230 C   0  0  0  0  0  0  0  0  0  0  0  0
   32.7980   28.9970   46.7030 N   0  0  0  0  0  0  0  0  0  0  0  0
   32.5830   28.1050   47.6770 C   0  0  0  0  0  0  0  0  0  0  0  0
   33.2450   28.2260   48.8340 N   0  0  0  0  0  0  0  0  0  0  0  0
   35.0480   31.0070   48.1100 H   0  0  0  0  0  0  0  0  0  0  0  0
   33.8010   30.7290   46.0080 H   0  0  0  0  0  0  0  0  0  0  0  0
   31.8920   27.2770   47.5780 H   0  0  0  0  0  0  0  0  0  0  0  0
   37.3250   28.4280   50.2220 O   0  0  0  0  0  0  0  0  0  0  0  0
   37.2850   29.9330   50.2100 P   0  0  2  0  0  0  0  0  0  0  0  0
   38.1680   30.4750   51.5710 O   0  0  0  0  0  0  0  0  0  0  0  0
   38.3150   31.4430   51.4280 H   0  0  0  0  0  0  0  0  0  0  0  0
   38.0150   30.4950   48.7890 O   0  0  0  0  0  0  0  0  0  0  0  0
   38.4910   31.8050   48.7220 C   0  0  0  0  0  0  0  0  0  0  0  0
   38.9280   32.3660   47.5380 C   0  0  0  0  0  0  0  0  0  0  0  0
   38.9960   31.9780   46.5140 H   0  0  0  0  0  0  0  0  0  0  0  0
   39.3330   33.6420   47.7540 N   0  0  0  0  0  0  0  0  0  0  0  0
   39.7230   34.4030   47.1560 H   0  0  0  0  0  0  0  0  0  0  0  0
   39.1510   33.8810   49.0780 C   0  0  0  0  0  0  0  0  0  0  0  0
   39.3160   34.7330   49.7500 H   0  0  0  0  0  0  0  0  0  0  0  0
   38.6490   32.7740   49.6350 N   0  0  0  0  0  0  0  0  0  0  0  0
  2  1  1  0  0  0  0
  2  4  1  0  0  0  0
  2  3  1  0  0  0  0
  5  2  1  0  0  0  0
  6 11  1  0  0  0  0
  6  5  2  0  0  0  0
  7  6  1  0  0  0  0
  8  7  2  0  0  0  0
  8  9  1  0  0  0  0
  9 10  2  0  0  0  0
 10  5  1  0  0  0  0
 12  7  1  0  0  0  0
 13  9  1  0  0  0  0
 15 14  2  6  0  0  0
 15  1  1  0  0  0  0
 15 16  1  0  0  0  0
 17 16  1  0  0  0  0
 18 15  1  0  0  0  0
 19 18  1  0  0  0  0
 19 26  1  0  0  0  0
 20 22  1  0  0  0  0
 20 19  2  0  0  0  0
 21 20  1  0  0  0  0
 22 24  1  0  0  0  0
 23 22  1  0  0  0  0
 24 26  2  0  0  0  0
 24 25  1  0  0  0  0
M  END
>  <minimizedAffinity>
-4.46398973

>  <minimizedRMSD>
2.64715981

$$$$
