
 OpenBabel03272508273D

 37 40  0  0  1  0  0  0  0  0999 V2000
   33.9940   29.0040   47.3420 C   0  0  2  0  0  0  0  0  0  0  0  0
   34.7420   28.2450   48.4250 C   0  0  2  0  0  0  0  0  0  0  0  0
   33.8480   28.0560   49.4310 O   0  0  0  0  0  0  0  0  0  0  0  0
   32.5700   28.1130   48.9610 C   0  0  0  0  0  0  0  0  0  0  0  0
   32.6260   28.3230   47.4650 C   0  0  1  0  0  0  0  0  0  0  0  0
   33.8910   30.0750   47.5630 H   0  0  0  0  0  0  0  0  0  0  0  0
   35.0400   27.2740   48.0090 H   0  0  0  0  0  0  0  0  0  0  0  0
   32.0690   29.0120   49.4070 H   0  0  0  0  0  0  0  0  0  0  0  0
   31.9420   27.2440   49.2420 H   0  0  0  0  0  0  0  0  0  0  0  0
   32.6470   27.3210   46.9920 H   0  0  0  0  0  0  0  0  0  0  0  0
   35.7950   30.5240   49.0470 C   0  0  1  0  0  0  0  0  0  0  0  0
   35.8940   29.0970   48.8490 C   0  0  1  0  0  0  0  0  0  0  0  0
   36.0280   29.5970   50.2500 C   0  0  0  0  0  0  0  0  0  0  0  0
   34.8820   31.1230   49.2150 H   0  0  0  0  0  0  0  0  0  0  0  0
   36.8670   28.7380   48.4010 H   0  0  0  0  0  0  0  0  0  0  0  0
   35.2140   29.4300   50.9660 H   0  0  0  0  0  0  0  0  0  0  0  0
   37.0370   29.6100   50.7350 H   0  0  0  0  0  0  0  0  0  0  0  0
   36.9860   31.4380   48.8020 C   0  0  0  0  0  0  0  0  0  0  0  0
   37.1840   32.4960   49.6900 C   0  0  0  0  0  0  0  0  0  0  0  0
   38.2660   33.3070   49.4090 C   0  0  0  0  0  0  0  0  0  0  0  0
   39.0690   33.0690   48.3310 N   0  0  0  0  0  0  0  0  0  0  0  0
   38.8420   32.0250   47.4870 C   0  0  0  0  0  0  0  0  0  0  0  0
   37.7870   31.2060   47.7310 N   0  0  0  0  0  0  0  0  0  0  0  0
   36.5280   32.6470   50.5260 H   0  0  0  0  0  0  0  0  0  0  0  0
   38.4910   34.1570   50.0580 H   0  0  0  0  0  0  0  0  0  0  0  0
   39.5020   31.8720   46.6450 H   0  0  0  0  0  0  0  0  0  0  0  0
   34.5270   28.8500   46.0770 O   0  0  0  0  0  0  0  0  0  0  0  0
   35.5110   28.8220   46.1940 H   0  0  0  0  0  0  0  0  0  0  0  0
   31.6180   29.0910   46.9560 O   0  0  0  0  0  0  0  0  0  0  0  0
   30.7350   28.6210   45.9950 C   0  0  0  0  0  0  0  0  0  0  0  0
   31.0270   27.5040   45.2410 C   0  0  0  0  0  0  0  0  0  0  0  0
   31.8900   26.8340   45.2280 H   0  0  0  0  0  0  0  0  0  0  0  0
   30.0260   27.2340   44.3720 N   0  0  0  0  0  0  0  0  0  0  0  0
   29.8690   26.5030   43.6540 H   0  0  0  0  0  0  0  0  0  0  0  0
   29.0880   28.2010   44.5830 C   0  0  0  0  0  0  0  0  0  0  0  0
   28.1390   28.3340   44.0880 H   0  0  0  0  0  0  0  0  0  0  0  0
   29.5110   29.0180   45.5450 N   0  0  0  0  0  0  0  0  0  0  0  0
  1  5  1  0  0  0  0
  1  6  1  1  0  0  0
  1  2  1  0  0  0  0
  2  7  1  6  0  0  0
  2 12  1  0  0  0  0
  2  3  1  0  0  0  0
  4  9  1  0  0  0  0
  4  8  1  0  0  0  0
  4  3  1  0  0  0  0
  5 10  1  6  0  0  0
  5  4  1  0  0  0  0
 11 14  1  6  0  0  0
 11 13  1  0  0  0  0
 12 15  1  6  0  0  0
 12 11  1  0  0  0  0
 12 13  1  0  0  0  0
 13 17  1  0  0  0  0
 13 16  1  0  0  0  0
 18 11  1  0  0  0  0
 18 19  1  0  0  0  0
 19 24  1  0  0  0  0
 20 19  2  0  0  0  0
 20 25  1  0  0  0  0
 21 20  1  0  0  0  0
 22 23  1  0  0  0  0
 22 21  2  0  0  0  0
 23 18  2  0  0  0  0
 26 22  1  0  0  0  0
 27 28  1  0  0  0  0
 27  1  1  0  0  0  0
 29  5  1  0  0  0  0
 30 29  1  0  0  0  0
 31 30  2  0  0  0  0
 32 31  1  0  0  0  0
 33 35  1  0  0  0  0
 33 31  1  0  0  0  0
 34 33  1  0  0  0  0
 35 37  2  0  0  0  0
 36 35  1  0  0  0  0
 37 30  1  0  0  0  0
M  END
>  <minimizedAffinity>
-4.71388197

>  <minimizedRMSD>
0.103414506

$$$$
