
 OpenBabel03272508273D

 37 40  0  0  1  0  0  0  0  0999 V2000
   33.8190   28.8630   47.2450 C   0  0  2  0  0  0  0  0  0  0  0  0
   34.5330   28.1130   48.3570 C   0  0  2  0  0  0  0  0  0  0  0  0
   33.6100   27.9370   49.3390 O   0  0  0  0  0  0  0  0  0  0  0  0
   32.3460   27.9920   48.8300 C   0  0  0  0  0  0  0  0  0  0  0  0
   32.4470   28.1860   47.3350 C   0  0  1  0  0  0  0  0  0  0  0  0
   33.7120   29.9360   47.4520 H   0  0  0  0  0  0  0  0  0  0  0  0
   34.8420   27.1380   47.9590 H   0  0  0  0  0  0  0  0  0  0  0  0
   31.8340   28.8950   49.2530 H   0  0  0  0  0  0  0  0  0  0  0  0
   31.7090   27.1260   49.1020 H   0  0  0  0  0  0  0  0  0  0  0  0
   32.4790   27.1790   46.8730 H   0  0  0  0  0  0  0  0  0  0  0  0
   35.5760   30.3990   48.9740 C   0  0  1  0  0  0  0  0  0  0  0  0
   35.6740   28.9680   48.8060 C   0  0  1  0  0  0  0  0  0  0  0  0
   35.7620   29.4940   50.2010 C   0  0  0  0  0  0  0  0  0  0  0  0
   34.6610   31.0060   49.0970 H   0  0  0  0  0  0  0  0  0  0  0  0
   36.6600   28.5960   48.4000 H   0  0  0  0  0  0  0  0  0  0  0  0
   34.9210   29.3450   50.8910 H   0  0  0  0  0  0  0  0  0  0  0  0
   36.7530   29.5110   50.7210 H   0  0  0  0  0  0  0  0  0  0  0  0
   36.7800   31.3030   48.7540 C   0  0  0  0  0  0  0  0  0  0  0  0
   37.0430   32.2760   49.7180 C   0  0  0  0  0  0  0  0  0  0  0  0
   38.1340   33.0830   49.4590 C   0  0  0  0  0  0  0  0  0  0  0  0
   38.8850   32.9180   48.3310 N   0  0  0  0  0  0  0  0  0  0  0  0
   38.5950   31.9550   47.4130 C   0  0  0  0  0  0  0  0  0  0  0  0
   37.5300   31.1430   47.6330 N   0  0  0  0  0  0  0  0  0  0  0  0
   36.4270   32.3720   50.5910 H   0  0  0  0  0  0  0  0  0  0  0  0
   38.4090   33.8700   50.1660 H   0  0  0  0  0  0  0  0  0  0  0  0
   39.2150   31.8590   46.5330 H   0  0  0  0  0  0  0  0  0  0  0  0
   34.3880   28.6960   45.9980 O   0  0  0  0  0  0  0  0  0  0  0  0
   35.3690   28.6670   46.1440 H   0  0  0  0  0  0  0  0  0  0  0  0
   31.4550   28.9500   46.7890 O   0  0  0  0  0  0  0  0  0  0  0  0
   30.1340   28.5320   46.7370 C   0  0  0  0  0  0  0  0  0  0  0  0
   29.0960   29.4380   46.7980 C   0  0  0  0  0  0  0  0  0  0  0  0
   29.0770   30.5280   46.8890 H   0  0  0  0  0  0  0  0  0  0  0  0
   27.9010   28.8080   46.7290 N   0  0  0  0  0  0  0  0  0  0  0  0
   26.9140   29.1250   46.7430 H   0  0  0  0  0  0  0  0  0  0  0  0
   28.1940   27.4810   46.6230 C   0  0  0  0  0  0  0  0  0  0  0  0
   27.5130   26.6490   46.5430 H   0  0  0  0  0  0  0  0  0  0  0  0
   29.5150   27.3240   46.6270 N   0  0  0  0  0  0  0  0  0  0  0  0
  1  5  1  0  0  0  0
  1  6  1  1  0  0  0
  1  2  1  0  0  0  0
  2  7  1  6  0  0  0
  2 12  1  0  0  0  0
  2  3  1  0  0  0  0
  4  9  1  0  0  0  0
  4  8  1  0  0  0  0
  4  3  1  0  0  0  0
  5 10  1  6  0  0  0
  5  4  1  0  0  0  0
 11 14  1  6  0  0  0
 11 13  1  0  0  0  0
 12 15  1  6  0  0  0
 12 11  1  0  0  0  0
 12 13  1  0  0  0  0
 13 17  1  0  0  0  0
 13 16  1  0  0  0  0
 18 11  1  0  0  0  0
 18 19  1  0  0  0  0
 19 24  1  0  0  0  0
 20 19  2  0  0  0  0
 20 25  1  0  0  0  0
 21 20  1  0  0  0  0
 22 23  1  0  0  0  0
 22 21  2  0  0  0  0
 23 18  2  0  0  0  0
 26 22  1  0  0  0  0
 27 28  1  0  0  0  0
 27  1  1  0  0  0  0
 29  5  1  0  0  0  0
 30 29  1  0  0  0  0
 30 31  2  0  0  0  0
 31 32  1  0  0  0  0
 33 34  1  0  0  0  0
 33 31  1  0  0  0  0
 35 37  2  0  0  0  0
 35 33  1  0  0  0  0
 36 35  1  0  0  0  0
 37 30  1  0  0  0  0
M  END
>  <minimizedAffinity>
-5.12313652

>  <minimizedRMSD>
0.930006325

$$$$
