REMARK  Name = 
REMARK  4 active torsions:
REMARK  status: ('A' for Active; 'I' for Inactive)
REMARK    1  A    between atoms: C_1  and  C_8
REMARK    2  A    between atoms: C_4  and  O_13
REMARK    3  A    between atoms: O_13  and  C_14
REMARK    4  A    between atoms: N_17  and  C_27
REMARK                            x       y       z     vdW  Elec       q    Type
REMARK                         _______ _______ _______ _____ _____    ______ ____
ROOT
ATOM      1  C   UNL     1      33.840  28.783  48.280  0.00  0.00    +0.000 A 
ATOM      2  C   UNL     1      34.437  28.427  49.438  0.00  0.00    +0.000 A 
ATOM      3  C   UNL     1      35.708  28.794  49.819  0.00  0.00    +0.000 A 
ATOM      4  C   UNL     1      36.462  29.581  48.992  0.00  0.00    +0.000 A 
ATOM      5  C   UNL     1      35.849  29.951  47.794  0.00  0.00    +0.000 A 
ATOM      6  N   UNL     1      34.606  29.566  47.468  0.00  0.00    +0.000 NA
ATOM      7  H   UNL     1      33.919  27.807  50.155  0.00  0.00    +0.000 HD
ATOM      8  H   UNL     1      36.175  28.502  50.752  0.00  0.00    +0.000 HD
ATOM      9  H   UNL     1      36.407  30.579  47.095  0.00  0.00    +0.000 HD
ENDROOT
BRANCH   1  11
ATOM     10  C   UNL     1      31.639  27.644  48.700  0.00  0.00    +0.000 A 
ATOM     11  C   UNL     1      32.518  28.397  47.891  0.00  0.00    +0.000 A 
ATOM     12  C   UNL     1      32.030  28.763  46.654  0.00  0.00    +0.000 A 
ATOM     13  N   UNL     1      30.770  28.402  46.269  0.00  0.00    +0.000 NA
ATOM     14  C   UNL     1      29.982  27.682  47.090  0.00  0.00    +0.000 A 
ATOM     15  N   UNL     1      30.405  27.300  48.301  0.00  0.00    +0.000 NA
ATOM     16  H   UNL     1      31.992  27.342  49.675  0.00  0.00    +0.000 HD
ATOM     17  H   UNL     1      32.684  29.343  46.009  0.00  0.00    +0.000 HD
ATOM     18  H   UNL     1      29.027  27.497  46.607  0.00  0.00    +0.000 HD
ENDBRANCH   1  11
BRANCH   4  19
ATOM     19  O   UNL     1      37.758  30.041  49.220  0.00  0.00    +0.000 OA
BRANCH  19  20
ATOM     20  C   UNL     1      38.165  31.295  48.772  0.00  0.00    +0.000 A 
ATOM     21  C   UNL     1      37.882  32.338  49.666  0.00  0.00    +0.000 A 
ATOM     22  C   UNL     1      38.331  33.524  49.113  0.00  0.00    +0.000 A 
ATOM     23  N   UNL     1      38.859  33.176  47.931  0.00  0.00    +0.000 N 
ATOM     24  N   UNL     1      38.768  31.885  47.724  0.00  0.00    +0.000 NA
ATOM     25  H   UNL     1      37.404  32.396  50.658  0.00  0.00    +0.000 HD
ATOM     26  H   UNL     1      38.340  34.556  49.408  0.00  0.00    +0.000 HD
BRANCH  23  27
ATOM     27  C   UNL     1      39.471  34.006  46.938  0.00  0.00    +0.000 A 
ATOM     28  C   UNL     1      39.300  34.341  45.614  0.00  0.00    +0.000 A 
ATOM     29  H   UNL     1      38.463  33.859  45.120  0.00  0.00    +0.000 HD
ATOM     30  N   UNL     1      40.270  35.209  45.310  0.00  0.00    +0.000 N 
ATOM     31  H   UNL     1      40.314  35.587  44.340  0.00  0.00    +0.000 HD
ATOM     32  C   UNL     1      41.044  35.436  46.384  0.00  0.00    +0.000 A 
ATOM     33  H   UNL     1      41.911  36.115  46.382  0.00  0.00    +0.000 HD
ATOM     34  N   UNL     1      40.557  34.696  47.393  0.00  0.00    +0.000 NA
ENDBRANCH  23  27
ENDBRANCH  19  20
ENDBRANCH   4  19
TORSDOF 4
