
 OpenBabel03272508163D

 30 32  0  0  0  0  0  0  0  0999 V2000
   35.4420   30.6760   47.5360 Cl  0  0  0  0  0  0  0  0  0  0  0  0
   35.6030   30.0110   45.9500 C   0  0  0  0  0  0  0  0  0  0  0  0
   34.6610   29.0800   45.6620 C   0  0  0  0  0  0  0  0  0  0  0  0
   34.6950   28.4650   44.3840 C   0  0  0  0  0  0  0  0  0  0  0  0
   35.6500   28.8000   43.4650 C   0  0  0  0  0  0  0  0  0  0  0  0
   36.5960   29.7510   43.7850 C   0  0  0  0  0  0  0  0  0  0  0  0
   37.8200   30.2010   42.6490 Cl  0  0  0  0  0  0  0  0  0  0  0  0
   36.5540   30.3330   45.0110 C   0  0  0  0  0  0  0  0  0  0  0  0
   33.9860   27.7120   44.0650 H   0  0  0  0  0  0  0  0  0  0  0  0
   35.7010   28.3470   42.4800 H   0  0  0  0  0  0  0  0  0  0  0  0
   33.8590   27.5980   47.4570 C   0  0  0  0  0  0  0  0  0  0  0  0
   33.5480   28.5640   46.4850 C   0  0  0  0  0  0  0  0  0  0  0  0
   32.2270   28.9860   46.3450 C   0  0  0  0  0  0  0  0  0  0  0  0
   31.3030   28.4200   47.1780 N   0  0  0  0  0  0  0  0  0  0  0  0
   31.6220   27.5050   48.0920 C   0  0  0  0  0  0  0  0  0  0  0  0
   32.9200   27.0780   48.2430 N   0  0  0  0  0  0  0  0  0  0  0  0
   34.8580   27.2110   47.6360 H   0  0  0  0  0  0  0  0  0  0  0  0
   32.0110   29.7310   45.5900 H   0  0  0  0  0  0  0  0  0  0  0  0
   30.7510   27.1870   48.6420 H   0  0  0  0  0  0  0  0  0  0  0  0
   37.5250   31.3590   45.4350 C   0  0  0  0  0  0  0  0  0  0  0  0
   37.7090   32.4970   44.9860 O   0  0  0  0  0  0  0  0  0  0  0  0
   38.4730   31.2350   46.4770 O   0  0  0  0  0  0  0  0  0  0  0  0
   38.8000   32.2780   47.3070 C   0  0  0  0  0  0  0  0  0  0  0  0
   38.2790   32.7050   48.4990 C   0  0  0  0  0  0  0  0  0  0  0  0
   37.4320   32.1680   48.9530 H   0  0  0  0  0  0  0  0  0  0  0  0
   38.9210   33.7960   48.9770 N   0  0  0  0  0  0  0  0  0  0  0  0
   38.6610   34.2620   49.8750 H   0  0  0  0  0  0  0  0  0  0  0  0
   39.8700   34.0450   48.0420 C   0  0  0  0  0  0  0  0  0  0  0  0
   40.5680   34.8860   48.1480 H   0  0  0  0  0  0  0  0  0  0  0  0
   39.8070   33.1510   47.0500 N   0  0  0  0  0  0  0  0  0  0  0  0
  2  1  1  0  0  0  0
  3  2  1  0  0  0  0
  3 12  1  0  0  0  0
  4  3  2  0  0  0  0
  5  6  2  0  0  0  0
  5  4  1  0  0  0  0
  6  8  1  0  0  0  0
  7  6  1  0  0  0  0
  8 20  1  0  0  0  0
  8  2  2  0  0  0  0
  9  4  1  0  0  0  0
 10  5  1  0  0  0  0
 11 17  1  0  0  0  0
 11 16  1  0  0  0  0
 12 11  2  0  0  0  0
 13 12  1  0  0  0  0
 13 14  2  0  0  0  0
 14 15  1  0  0  0  0
 15 16  2  0  0  0  0
 15 19  1  0  0  0  0
 18 13  1  0  0  0  0
 20 22  1  0  0  0  0
 21 20  2  0  0  0  0
 22 23  1  0  0  0  0
 23 24  2  0  0  0  0
 24 25  1  0  0  0  0
 24 26  1  0  0  0  0
 26 27  1  0  0  0  0
 28 29  1  0  0  0  0
 28 26  1  0  0  0  0
 30 23  1  0  0  0  0
 30 28  2  0  0  0  0
M  END
>  <minimizedAffinity>
-4.24003029

>  <minimizedRMSD>
4.10215807

$$$$
