
     RDKit          3D

 23 24  0  0  0  0  0  0  0  0999 V2000
   37.4435   30.3067   51.3752 C   0  0  0  0  0  0  0  0  0  0  0  0
   38.1324   30.8839   50.2742 C   0  0  0  0  0  0  0  0  0  0  0  0
   37.7202   30.4952   48.9783 C   0  0  0  0  0  0  0  0  0  0  0  0
   36.7008   29.6026   48.8734 N   0  0  0  0  0  0  0  0  0  0  0  0
   36.0734   29.0784   49.9441 C   0  0  0  0  0  0  0  0  0  0  0  0
   36.4391   29.4256   51.1990 N   0  0  0  0  0  0  0  0  0  0  0  0
   35.0619   28.1877   49.6157 O   0  0  0  0  0  0  0  0  0  0  0  0
   32.5215   28.0773   49.0363 O   0  0  0  0  0  0  0  0  0  0  0  0
   33.8624   28.5056   48.4554 P   0  0  2  0  0  0  0  0  0  0  0  0
   34.0645   27.5838   47.0565 O   0  0  0  0  0  0  0  0  0  0  0  0
   33.7253   30.1143   48.0338 O   0  0  0  0  0  0  0  0  0  0  0  0
   37.7206   30.5712   52.3929 H   0  0  0  0  0  0  0  0  0  0  0  0
   38.9382   31.5913   50.4370 H   0  0  0  0  0  0  0  0  0  0  0  0
   38.2221   30.9145   48.1169 H   0  0  0  0  0  0  0  0  0  0  0  0
   33.7116   26.6622   47.2122 H   0  0  0  0  0  0  0  0  0  0  0  0
   34.2392   30.6181   46.8455 C   0  0  0  0  0  0  0  0  0  0  0  0
   33.7665   30.4881   45.5581 C   0  0  0  0  0  0  0  0  0  0  0  0
   32.8833   29.9495   45.2642 H   0  0  0  0  0  0  0  0  0  0  0  0
   34.6297   31.1608   44.8005 N   0  0  0  0  0  0  0  0  0  0  0  0
   34.6031   31.2894   43.7584 H   0  0  0  0  0  0  0  0  0  0  0  0
   35.6336   31.7173   45.5321 C   0  0  0  0  0  0  0  0  0  0  0  0
   36.4703   32.3136   45.1953 H   0  0  0  0  0  0  0  0  0  0  0  0
   35.3738   31.3664   46.8202 N   0  0  0  0  0  0  0  0  0  0  0  0
  2  1  2  0
  3  2  1  0
  4  3  2  0
  4  5  1  0
  5  6  2  0
  6  1  1  0
  7  5  1  0
  9  8  2  0
  9  7  1  1
 10  9  1  0
 11  9  1  0
  1 12  1  0
  2 13  1  0
  3 14  1  0
 10 15  1  0
 16 17  2  0
 17 18  1  0
 17 19  1  0
 19 20  1  0
 19 21  1  0
 21 22  1  0
 21 23  2  0
 23 16  1  0
 11 16  1  0
M  ISO  7  12  14  13  14  14  14  15   3  18  15  20   5  22  14
M  END
>  <DihAtoms>  (1) 
8,10,15,16

>  <DihDeg>  (1) 
179.99920395561836

$$$$
