
 OpenBabel03272505433D

 23 24  0  0  0  0  0  0  0  0999 V2000
   32.3950   28.0340   49.0630 O   0  0  0  0  0  0  0  0  0  0  0  0
   33.8200   28.2160   48.5600 P   0  0  2  0  0  0  0  0  0  0  0  0
   34.0770   26.9590   47.4640 O   0  0  0  0  0  0  0  0  0  0  0  0
   33.6270   26.1310   47.7980 H   0  0  0  0  0  0  0  0  0  0  0  0
   34.8630   28.1270   49.8990 O   0  0  0  0  0  0  0  0  0  0  0  0
   37.3290   30.3480   51.3980 C   0  0  0  0  0  0  0  0  0  0  0  0
   38.0430   30.7530   50.2390 C   0  0  0  0  0  0  0  0  0  0  0  0
   37.6180   30.2230   48.9980 C   0  0  0  0  0  0  0  0  0  0  0  0
   36.5620   29.3680   48.9980 N   0  0  0  0  0  0  0  0  0  0  0  0
   35.9100   29.0080   50.1210 C   0  0  0  0  0  0  0  0  0  0  0  0
   36.2880   29.4950   51.3260 N   0  0  0  0  0  0  0  0  0  0  0  0
   37.6140   30.7260   52.3770 H   0  0  0  0  0  0  0  0  0  0  0  0
   38.8780   31.4410   50.3180 H   0  0  0  0  0  0  0  0  0  0  0  0
   38.1390   30.5100   48.0950 H   0  0  0  0  0  0  0  0  0  0  0  0
   33.8730   29.6700   47.7460 O   0  0  0  0  0  0  0  0  0  0  0  0
   34.0850   29.7470   46.3750 C   0  0  0  0  0  0  0  0  0  0  0  0
   35.2200   30.0970   45.6770 C   0  0  0  0  0  0  0  0  0  0  0  0
   36.1620   30.3790   46.1130 H   0  0  0  0  0  0  0  0  0  0  0  0
   34.8830   30.0070   44.3930 N   0  0  0  0  0  0  0  0  0  0  0  0
   35.4890   30.1990   43.5570 H   0  0  0  0  0  0  0  0  0  0  0  0
   33.5900   29.6180   44.2250 C   0  0  0  0  0  0  0  0  0  0  0  0
   33.0410   29.4600   43.3080 H   0  0  0  0  0  0  0  0  0  0  0  0
   33.0990   29.4570   45.4840 N   0  0  0  0  0  0  0  0  0  0  0  0
  2  1  2  1  0  0  0
  2  5  1  0  0  0  0
  3  4  1  0  0  0  0
  3  2  1  0  0  0  0
  5 10  1  0  0  0  0
  6 12  1  0  0  0  0
  7 13  1  0  0  0  0
  7  6  2  0  0  0  0
  8  7  1  0  0  0  0
  9  8  2  0  0  0  0
  9 10  1  0  0  0  0
 10 11  2  0  0  0  0
 11  6  1  0  0  0  0
 14  8  1  0  0  0  0
 15  2  1  0  0  0  0
 16 15  1  0  0  0  0
 17 18  1  0  0  0  0
 17 16  2  0  0  0  0
 19 17  1  0  0  0  0
 20 19  1  0  0  0  0
 21 19  1  0  0  0  0
 21 23  2  0  0  0  0
 22 21  1  0  0  0  0
 23 16  1  0  0  0  0
M  END
>  <minimizedAffinity>
-3.98487639

>  <minimizedRMSD>
0.979684293

$$$$
