
 OpenBabel03272505433D

 23 24  0  0  0  0  0  0  0  0999 V2000
   32.5050   28.0850   49.1070 O   0  0  0  0  0  0  0  0  0  0  0  0
   33.8890   28.3030   48.5120 P   0  0  2  0  0  0  0  0  0  0  0  0
   34.0390   27.1580   47.2810 O   0  0  0  0  0  0  0  0  0  0  0  0
   33.6020   26.3050   47.5670 H   0  0  0  0  0  0  0  0  0  0  0  0
   35.0320   28.0720   49.7490 O   0  0  0  0  0  0  0  0  0  0  0  0
   37.3050   30.3390   51.4680 C   0  0  0  0  0  0  0  0  0  0  0  0
   38.0660   30.8180   50.3680 C   0  0  0  0  0  0  0  0  0  0  0  0
   37.7370   30.3170   49.0870 C   0  0  0  0  0  0  0  0  0  0  0  0
   36.7230   29.4180   48.9940 N   0  0  0  0  0  0  0  0  0  0  0  0
   36.0240   28.9880   50.0630 C   0  0  0  0  0  0  0  0  0  0  0  0
   36.3090   29.4450   51.3040 N   0  0  0  0  0  0  0  0  0  0  0  0
   37.5160   30.6920   52.4750 H   0  0  0  0  0  0  0  0  0  0  0  0
   38.8630   31.5380   50.5210 H   0  0  0  0  0  0  0  0  0  0  0  0
   38.2970   30.6600   48.2270 H   0  0  0  0  0  0  0  0  0  0  0  0
   33.9030   29.8300   47.8420 O   0  0  0  0  0  0  0  0  0  0  0  0
   34.1830   30.0500   46.4990 C   0  0  0  0  0  0  0  0  0  0  0  0
   35.3780   30.3600   45.8890 C   0  0  0  0  0  0  0  0  0  0  0  0
   36.3240   30.4850   46.3860 H   0  0  0  0  0  0  0  0  0  0  0  0
   35.0920   30.4640   44.5930 N   0  0  0  0  0  0  0  0  0  0  0  0
   35.7510   30.6890   43.8070 H   0  0  0  0  0  0  0  0  0  0  0  0
   33.7740   30.2360   44.3370 C   0  0  0  0  0  0  0  0  0  0  0  0
   33.2540   30.2500   43.3890 H   0  0  0  0  0  0  0  0  0  0  0  0
   33.2140   29.9770   45.5490 N   0  0  0  0  0  0  0  0  0  0  0  0
  2  1  2  1  0  0  0
  2  5  1  0  0  0  0
  3  4  1  0  0  0  0
  3  2  1  0  0  0  0
  5 10  1  0  0  0  0
  6 12  1  0  0  0  0
  7 13  1  0  0  0  0
  7  6  2  0  0  0  0
  8  7  1  0  0  0  0
  9  8  2  0  0  0  0
  9 10  1  0  0  0  0
 10 11  2  0  0  0  0
 11  6  1  0  0  0  0
 14  8  1  0  0  0  0
 15  2  1  0  0  0  0
 16 15  1  0  0  0  0
 17 18  1  0  0  0  0
 17 16  2  0  0  0  0
 19 17  1  0  0  0  0
 20 19  1  0  0  0  0
 21 19  1  0  0  0  0
 21 23  2  0  0  0  0
 22 21  1  0  0  0  0
 23 16  1  0  0  0  0
M  END
>  <minimizedAffinity>
-4.01289082

>  <minimizedRMSD>
0.610757589

$$$$
