
 OpenBabel03272510183D

 27 29  0  0  0  0  0  0  0  0999 V2000
   37.0970   28.9940   29.7840 Br  0  0  0  0  0  0  0  0  0  0  0  0
   36.4480   29.5990   31.4690 C   0  0  0  0  0  0  0  0  0  0  0  0
   36.1150   28.7010   32.4800 C   0  0  0  0  0  0  0  0  0  0  0  0
   35.6530   29.2120   33.6700 C   0  0  0  0  0  0  0  0  0  0  0  0
   35.5100   30.5720   33.8960 C   0  0  0  0  0  0  0  0  0  0  0  0
   35.8450   31.4360   32.8840 C   0  0  0  0  0  0  0  0  0  0  0  0
   36.3120   30.9400   31.6810 C   0  0  0  0  0  0  0  0  0  0  0  0
   35.4040   28.4790   34.4330 H   0  0  0  0  0  0  0  0  0  0  0  0
   35.7540   32.5120   33.0020 H   0  0  0  0  0  0  0  0  0  0  0  0
   36.5660   31.6630   30.9060 H   0  0  0  0  0  0  0  0  0  0  0  0
   37.4250   25.3130   32.7270 C   0  0  0  0  0  0  0  0  0  0  0  0
   36.5780   24.5410   31.9020 C   0  0  0  0  0  0  0  0  0  0  0  0
   35.5430   25.2240   31.2590 C   0  0  0  0  0  0  0  0  0  0  0  0
   35.4190   26.5680   31.4660 N   0  0  0  0  0  0  0  0  0  0  0  0
   36.2560   27.2650   32.2660 C   0  0  0  0  0  0  0  0  0  0  0  0
   37.2760   26.6340   32.9080 N   0  0  0  0  0  0  0  0  0  0  0  0
   38.2510   24.8340   33.2550 H   0  0  0  0  0  0  0  0  0  0  0  0
   36.7350   23.4860   31.7860 H   0  0  0  0  0  0  0  0  0  0  0  0
   34.8680   24.6880   30.6190 H   0  0  0  0  0  0  0  0  0  0  0  0
   35.0170   31.0770   35.1720 C   0  0  0  0  0  0  0  0  0  0  0  0
   35.7990   31.6880   36.1360 C   0  0  0  0  0  0  0  0  0  0  0  0
   36.8550   31.8580   36.0490 H   0  0  0  0  0  0  0  0  0  0  0  0
   34.9750   32.0060   37.1570 N   0  0  0  0  0  0  0  0  0  0  0  0
   35.3770   32.4890   38.0110 H   0  0  0  0  0  0  0  0  0  0  0  0
   33.7140   31.6060   36.8440 C   0  0  0  0  0  0  0  0  0  0  0  0
   32.9440   31.7900   37.5600 H   0  0  0  0  0  0  0  0  0  0  0  0
   33.7630   31.0320   35.6080 N   0  0  0  0  0  0  0  0  0  0  0  0
  1  2  1  0  0  0  0
  2  7  2  0  0  0  0
  2  3  1  0  0  0  0
  3  4  2  0  0  0  0
  4  5  1  0  0  0  0
  4  8  1  0  0  0  0
  5 20  1  0  0  0  0
  6  9  1  0  0  0  0
  6  5  2  0  0  0  0
  7  6  1  0  0  0  0
 10  7  1  0  0  0  0
 11 16  1  0  0  0  0
 11 17  1  0  0  0  0
 12 11  2  0  0  0  0
 13 14  2  0  0  0  0
 13 12  1  0  0  0  0
 14 15  1  0  0  0  0
 15  3  1  0  0  0  0
 15 16  2  0  0  0  0
 18 12  1  0  0  0  0
 19 13  1  0  0  0  0
 20 27  1  0  0  0  0
 20 21  2  0  0  0  0
 21 23  1  0  0  0  0
 22 21  1  0  0  0  0
 23 24  1  0  0  0  0
 25 23  1  0  0  0  0
 25 26  1  0  0  0  0
 27 25  2  0  0  0  0
M  END
>  <minimizedAffinity>
-5.15965891

$$$$

 OpenBabel03272510183D

 27 29  0  0  0  0  0  0  0  0999 V2000
   39.0210   25.3690   34.0880 Br  0  0  0  0  0  0  0  0  0  0  0  0
   38.1160   23.7580   33.6280 C   0  0  0  0  0  0  0  0  0  0  0  0
   37.8870   22.7630   34.5730 C   0  0  0  0  0  0  0  0  0  0  0  0
   37.2270   21.6270   34.1670 C   0  0  0  0  0  0  0  0  0  0  0  0
   36.7870   21.4420   32.8650 C   0  0  0  0  0  0  0  0  0  0  0  0
   37.0240   22.4380   31.9520 C   0  0  0  0  0  0  0  0  0  0  0  0
   37.6860   23.5870   32.3440 C   0  0  0  0  0  0  0  0  0  0  0  0
   37.0680   20.8730   34.9340 H   0  0  0  0  0  0  0  0  0  0  0  0
   36.7030   22.3500   30.9190 H   0  0  0  0  0  0  0  0  0  0  0  0
   37.8530   24.3520   31.5850 H   0  0  0  0  0  0  0  0  0  0  0  0
   37.8710   23.6760   38.0980 C   0  0  0  0  0  0  0  0  0  0  0  0
   39.1430   23.2870   38.5730 C   0  0  0  0  0  0  0  0  0  0  0  0
   40.0040   22.7010   37.6420 C   0  0  0  0  0  0  0  0  0  0  0  0
   39.5690   22.5450   36.3570 N   0  0  0  0  0  0  0  0  0  0  0  0
   38.3420   22.9340   35.9480 C   0  0  0  0  0  0  0  0  0  0  0  0
   37.4760   23.5090   36.8260 N   0  0  0  0  0  0  0  0  0  0  0  0
   37.1570   24.1390   38.7790 H   0  0  0  0  0  0  0  0  0  0  0  0
   39.4180   23.4400   39.5990 H   0  0  0  0  0  0  0  0  0  0  0  0
   40.9840   22.3850   37.9470 H   0  0  0  0  0  0  0  0  0  0  0  0
   36.0890   20.2230   32.4710 C   0  0  0  0  0  0  0  0  0  0  0  0
   34.7290   20.1310   32.2390 C   0  0  0  0  0  0  0  0  0  0  0  0
   34.0370   20.9470   32.3220 H   0  0  0  0  0  0  0  0  0  0  0  0
   34.4810   18.8470   31.9000 N   0  0  0  0  0  0  0  0  0  0  0  0
   33.4860   18.5570   31.6780 H   0  0  0  0  0  0  0  0  0  0  0  0
   35.6510   18.1550   31.9200 C   0  0  0  0  0  0  0  0  0  0  0  0
   35.6170   17.1180   31.6720 H   0  0  0  0  0  0  0  0  0  0  0  0
   36.6360   19.0280   32.2770 N   0  0  0  0  0  0  0  0  0  0  0  0
  2  1  1  0  0  0  0
  2  3  1  0  0  0  0
  3 15  1  0  0  0  0
  4  3  2  0  0  0  0
  4  8  1  0  0  0  0
  5  4  1  0  0  0  0
  6  7  1  0  0  0  0
  6  5  2  0  0  0  0
  7  2  2  0  0  0  0
  9  6  1  0  0  0  0
 10  7  1  0  0  0  0
 11 12  1  0  0  0  0
 11 17  1  0  0  0  0
 12 18  1  0  0  0  0
 13 19  1  0  0  0  0
 13 12  2  0  0  0  0
 14 13  1  0  0  0  0
 15 14  2  0  0  0  0
 15 16  1  0  0  0  0
 16 11  2  0  0  0  0
 20  5  1  0  0  0  0
 21 22  1  0  0  0  0
 21 20  2  0  0  0  0
 23 25  1  0  0  0  0
 23 21  1  0  0  0  0
 24 23  1  0  0  0  0
 25 27  2  0  0  0  0
 26 25  1  0  0  0  0
 27 20  1  0  0  0  0
M  END
>  <minimizedAffinity>
-5.06454134

$$$$

 OpenBabel03272510183D

 27 29  0  0  0  0  0  0  0  0999 V2000
   36.8340   24.4460   30.7970 Br  0  0  0  0  0  0  0  0  0  0  0  0
   37.3810   24.0800   32.5830 C   0  0  0  0  0  0  0  0  0  0  0  0
   37.3960   22.7810   33.0830 C   0  0  0  0  0  0  0  0  0  0  0  0
   37.8030   22.5940   34.3820 C   0  0  0  0  0  0  0  0  0  0  0  0
   38.1960   23.6410   35.2020 C   0  0  0  0  0  0  0  0  0  0  0  0
   38.1740   24.9120   34.6860 C   0  0  0  0  0  0  0  0  0  0  0  0
   37.7670   25.1180   33.3810 C   0  0  0  0  0  0  0  0  0  0  0  0
   37.8000   21.5660   34.7350 H   0  0  0  0  0  0  0  0  0  0  0  0
   38.4700   25.7720   35.2790 H   0  0  0  0  0  0  0  0  0  0  0  0
   37.7650   26.1440   33.0130 H   0  0  0  0  0  0  0  0  0  0  0  0
   37.5840   20.0610   30.6690 C   0  0  0  0  0  0  0  0  0  0  0  0
   36.2740   19.5370   30.6190 C   0  0  0  0  0  0  0  0  0  0  0  0
   35.3250   20.1490   31.4430 C   0  0  0  0  0  0  0  0  0  0  0  0
   35.7190   21.1950   32.2270 N   0  0  0  0  0  0  0  0  0  0  0  0
   36.9860   21.6620   32.2410 C   0  0  0  0  0  0  0  0  0  0  0  0
   37.9370   21.0920   31.4520 N   0  0  0  0  0  0  0  0  0  0  0  0
   38.3660   19.6240   30.0480 H   0  0  0  0  0  0  0  0  0  0  0  0
   36.0350   18.7110   29.9770 H   0  0  0  0  0  0  0  0  0  0  0  0
   34.3120   19.7920   31.4450 H   0  0  0  0  0  0  0  0  0  0  0  0
   38.6240   23.4040   36.5770 C   0  0  0  0  0  0  0  0  0  0  0  0
   39.6760   22.5860   36.9470 C   0  0  0  0  0  0  0  0  0  0  0  0
   40.2950   22.0380   36.2630 H   0  0  0  0  0  0  0  0  0  0  0  0
   39.7460   22.6340   38.2950 N   0  0  0  0  0  0  0  0  0  0  0  0
   40.4940   22.0710   38.7910 H   0  0  0  0  0  0  0  0  0  0  0  0
   38.7660   23.4560   38.7560 C   0  0  0  0  0  0  0  0  0  0  0  0
   38.6920   23.5960   39.8110 H   0  0  0  0  0  0  0  0  0  0  0  0
   38.0810   23.9220   37.6730 N   0  0  0  0  0  0  0  0  0  0  0  0
  1  2  1  0  0  0  0
  2  3  2  0  0  0  0
  2  7  1  0  0  0  0
  3  4  1  0  0  0  0
  4  8  1  0  0  0  0
  4  5  2  0  0  0  0
  5 20  1  0  0  0  0
  6  5  1  0  0  0  0
  6  9  1  0  0  0  0
  7  6  2  0  0  0  0
 10  7  1  0  0  0  0
 11 16  1  0  0  0  0
 12 11  2  0  0  0  0
 12 13  1  0  0  0  0
 13 19  1  0  0  0  0
 13 14  2  0  0  0  0
 14 15  1  0  0  0  0
 15  3  1  0  0  0  0
 16 15  2  0  0  0  0
 17 11  1  0  0  0  0
 18 12  1  0  0  0  0
 20 21  2  0  0  0  0
 20 27  1  0  0  0  0
 21 23  1  0  0  0  0
 22 21  1  0  0  0  0
 23 25  1  0  0  0  0
 23 24  1  0  0  0  0
 25 26  1  0  0  0  0
 27 25  2  0  0  0  0
M  END
>  <minimizedAffinity>
-4.84423494

$$$$

 OpenBabel03272510183D

 27 29  0  0  0  0  0  0  0  0999 V2000
   37.6860   24.1440   30.6410 Br  0  0  0  0  0  0  0  0  0  0  0  0
   37.9780   23.8900   32.5050 C   0  0  0  0  0  0  0  0  0  0  0  0
   37.6790   22.6810   33.1260 C   0  0  0  0  0  0  0  0  0  0  0  0
   37.9170   22.5720   34.4750 C   0  0  0  0  0  0  0  0  0  0  0  0
   38.4390   23.6110   35.2300 C   0  0  0  0  0  0  0  0  0  0  0  0
   38.7260   24.7930   34.5950 C   0  0  0  0  0  0  0  0  0  0  0  0
   38.4930   24.9200   33.2380 C   0  0  0  0  0  0  0  0  0  0  0  0
   37.6710   21.6120   34.9220 H   0  0  0  0  0  0  0  0  0  0  0  0
   39.1360   25.6420   35.1330 H   0  0  0  0  0  0  0  0  0  0  0  0
   38.7360   25.8770   32.7760 H   0  0  0  0  0  0  0  0  0  0  0  0
   35.2440   20.4680   31.5650 C   0  0  0  0  0  0  0  0  0  0  0  0
   36.0210   19.4930   30.9020 C   0  0  0  0  0  0  0  0  0  0  0  0
   37.4090   19.6230   31.0090 C   0  0  0  0  0  0  0  0  0  0  0  0
   37.9130   20.6630   31.7350 N   0  0  0  0  0  0  0  0  0  0  0  0
   37.1290   21.5720   32.3530 C   0  0  0  0  0  0  0  0  0  0  0  0
   35.7740   21.4790   32.2710 N   0  0  0  0  0  0  0  0  0  0  0  0
   34.1560   20.4180   31.5170 H   0  0  0  0  0  0  0  0  0  0  0  0
   35.5560   18.7010   30.3480 H   0  0  0  0  0  0  0  0  0  0  0  0
   38.0490   18.9100   30.5250 H   0  0  0  0  0  0  0  0  0  0  0  0
   38.6790   23.4580   36.6610 C   0  0  0  0  0  0  0  0  0  0  0  0
   39.6920   22.6970   37.2150 C   0  0  0  0  0  0  0  0  0  0  0  0
   40.4130   22.1360   36.6530 H   0  0  0  0  0  0  0  0  0  0  0  0
   39.5740   22.8140   38.5560 N   0  0  0  0  0  0  0  0  0  0  0  0
   40.2610   22.3020   39.1790 H   0  0  0  0  0  0  0  0  0  0  0  0
   38.5180   23.6240   38.8330 C   0  0  0  0  0  0  0  0  0  0  0  0
   38.2960   23.8150   39.8590 H   0  0  0  0  0  0  0  0  0  0  0  0
   37.9770   24.0120   37.6430 N   0  0  0  0  0  0  0  0  0  0  0  0
  1  2  1  0  0  0  0
  2  3  2  0  0  0  0
  2  7  1  0  0  0  0
  3  4  1  0  0  0  0
  4  8  1  0  0  0  0
  4  5  2  0  0  0  0
  5 20  1  0  0  0  0
  6  9  1  0  0  0  0
  6  5  1  0  0  0  0
  7  6  2  0  0  0  0
 10  7  1  0  0  0  0
 11 16  1  0  0  0  0
 12 13  1  0  0  0  0
 12 11  2  0  0  0  0
 13 14  2  0  0  0  0
 14 15  1  0  0  0  0
 15  3  1  0  0  0  0
 16 15  2  0  0  0  0
 17 11  1  0  0  0  0
 18 12  1  0  0  0  0
 19 13  1  0  0  0  0
 20 21  2  0  0  0  0
 20 27  1  0  0  0  0
 21 23  1  0  0  0  0
 22 21  1  0  0  0  0
 23 25  1  0  0  0  0
 23 24  1  0  0  0  0
 25 26  1  0  0  0  0
 27 25  2  0  0  0  0
M  END
>  <minimizedAffinity>
-4.79227018

$$$$

 OpenBabel03272510183D

 27 29  0  0  0  0  0  0  0  0999 V2000
   35.2520   31.5440   32.0880 Br  0  0  0  0  0  0  0  0  0  0  0  0
   35.9160   29.8760   32.7210 C   0  0  0  0  0  0  0  0  0  0  0  0
   35.7570   29.4920   34.0490 C   0  0  0  0  0  0  0  0  0  0  0  0
   36.2630   28.2730   34.4330 C   0  0  0  0  0  0  0  0  0  0  0  0
   36.9180   27.4230   33.5540 C   0  0  0  0  0  0  0  0  0  0  0  0
   37.0610   27.8240   32.2500 C   0  0  0  0  0  0  0  0  0  0  0  0
   36.5580   29.0470   31.8470 C   0  0  0  0  0  0  0  0  0  0  0  0
   36.1190   28.0090   35.4780 H   0  0  0  0  0  0  0  0  0  0  0  0
   37.5650   27.2020   31.5170 H   0  0  0  0  0  0  0  0  0  0  0  0
   36.6950   29.3250   30.8010 H   0  0  0  0  0  0  0  0  0  0  0  0
   35.2330   32.0460   36.5900 C   0  0  0  0  0  0  0  0  0  0  0  0
   33.8360   32.0600   36.8000 C   0  0  0  0  0  0  0  0  0  0  0  0
   33.0820   31.1620   36.0390 C   0  0  0  0  0  0  0  0  0  0  0  0
   33.7330   30.3460   35.1590 N   0  0  0  0  0  0  0  0  0  0  0  0
   35.0730   30.3690   34.9930 C   0  0  0  0  0  0  0  0  0  0  0  0
   35.8400   31.2290   35.7160 N   0  0  0  0  0  0  0  0  0  0  0  0
   35.8720   32.7250   37.1560 H   0  0  0  0  0  0  0  0  0  0  0  0
   33.3920   32.7310   37.5100 H   0  0  0  0  0  0  0  0  0  0  0  0
   32.0160   31.1280   36.1570 H   0  0  0  0  0  0  0  0  0  0  0  0
   37.4410   26.1360   33.9990 C   0  0  0  0  0  0  0  0  0  0  0  0
   37.7640   25.8230   35.3070 C   0  0  0  0  0  0  0  0  0  0  0  0
   37.6640   26.4930   36.1390 H   0  0  0  0  0  0  0  0  0  0  0  0
   38.2100   24.5480   35.3000 N   0  0  0  0  0  0  0  0  0  0  0  0
   38.5150   24.1050   36.2130 H   0  0  0  0  0  0  0  0  0  0  0  0
   38.1690   24.0770   34.0260 C   0  0  0  0  0  0  0  0  0  0  0  0
   38.4940   23.0740   33.8580 H   0  0  0  0  0  0  0  0  0  0  0  0
   37.6890   25.0780   33.2350 N   0  0  0  0  0  0  0  0  0  0  0  0
  1  2  1  0  0  0  0
  2  3  1  0  0  0  0
  3  4  2  0  0  0  0
  3 15  1  0  0  0  0
  4  8  1  0  0  0  0
  5 20  1  0  0  0  0
  5  4  1  0  0  0  0
  6  5  2  0  0  0  0
  7  6  1  0  0  0  0
  7  2  2  0  0  0  0
  9  6  1  0  0  0  0
 10  7  1  0  0  0  0
 11 12  1  0  0  0  0
 11 17  1  0  0  0  0
 12 18  1  0  0  0  0
 13 19  1  0  0  0  0
 13 12  2  0  0  0  0
 14 13  1  0  0  0  0
 15 14  2  0  0  0  0
 15 16  1  0  0  0  0
 16 11  2  0  0  0  0
 20 21  2  0  0  0  0
 21 22  1  0  0  0  0
 23 21  1  0  0  0  0
 23 24  1  0  0  0  0
 25 23  1  0  0  0  0
 26 25  1  0  0  0  0
 27 20  1  0  0  0  0
 27 25  2  0  0  0  0
M  END
>  <minimizedAffinity>
-4.7642498

$$$$

 OpenBabel03272510183D

 27 29  0  0  0  0  0  0  0  0999 V2000
   36.5970   27.9700   31.8770 Br  0  0  0  0  0  0  0  0  0  0  0  0
   36.3760   26.0790   31.8310 C   0  0  0  0  0  0  0  0  0  0  0  0
   37.2310   25.2340   32.5320 C   0  0  0  0  0  0  0  0  0  0  0  0
   37.0090   23.8800   32.4520 C   0  0  0  0  0  0  0  0  0  0  0  0
   35.9750   23.3340   31.7060 C   0  0  0  0  0  0  0  0  0  0  0  0
   35.1450   24.1880   31.0250 C   0  0  0  0  0  0  0  0  0  0  0  0
   35.3540   25.5530   31.0950 C   0  0  0  0  0  0  0  0  0  0  0  0
   37.6990   23.2540   33.0120 H   0  0  0  0  0  0  0  0  0  0  0  0
   34.3190   23.8190   30.4250 H   0  0  0  0  0  0  0  0  0  0  0  0
   34.6700   26.1930   30.5380 H   0  0  0  0  0  0  0  0  0  0  0  0
   40.5750   26.3550   33.4400 C   0  0  0  0  0  0  0  0  0  0  0  0
   40.4470   26.8200   34.7670 C   0  0  0  0  0  0  0  0  0  0  0  0
   39.1740   26.7370   35.3380 C   0  0  0  0  0  0  0  0  0  0  0  0
   38.1560   26.2190   34.5900 N   0  0  0  0  0  0  0  0  0  0  0  0
   38.3270   25.7850   33.3220 C   0  0  0  0  0  0  0  0  0  0  0  0
   39.5510   25.8510   32.7330 N   0  0  0  0  0  0  0  0  0  0  0  0
   41.5440   26.3950   32.9430 H   0  0  0  0  0  0  0  0  0  0  0  0
   41.2930   27.2160   35.2970 H   0  0  0  0  0  0  0  0  0  0  0  0
   39.0180   27.0760   36.3450 H   0  0  0  0  0  0  0  0  0  0  0  0
   35.7700   21.8910   31.6450 C   0  0  0  0  0  0  0  0  0  0  0  0
   36.4830   21.0250   30.8350 C   0  0  0  0  0  0  0  0  0  0  0  0
   37.2650   21.3200   30.1630 H   0  0  0  0  0  0  0  0  0  0  0  0
   35.9960   19.7870   31.0700 N   0  0  0  0  0  0  0  0  0  0  0  0
   36.4080   18.9640   30.5450 H   0  0  0  0  0  0  0  0  0  0  0  0
   35.0070   19.8750   31.9990 C   0  0  0  0  0  0  0  0  0  0  0  0
   34.5210   18.9710   32.2920 H   0  0  0  0  0  0  0  0  0  0  0  0
   34.8840   21.1890   32.3420 N   0  0  0  0  0  0  0  0  0  0  0  0
  2  1  1  0  0  0  0
  2  3  1  0  0  0  0
  3 15  1  0  0  0  0
  4  3  2  0  0  0  0
  4  8  1  0  0  0  0
  5  4  1  0  0  0  0
  6  7  1  0  0  0  0
  6  5  2  0  0  0  0
  7  2  2  0  0  0  0
  9  6  1  0  0  0  0
 10  7  1  0  0  0  0
 11 12  1  0  0  0  0
 12 18  1  0  0  0  0
 12 13  2  0  0  0  0
 13 19  1  0  0  0  0
 14 13  1  0  0  0  0
 15 14  2  0  0  0  0
 16 15  1  0  0  0  0
 16 11  2  0  0  0  0
 17 11  1  0  0  0  0
 20  5  1  0  0  0  0
 20 27  1  0  0  0  0
 21 23  1  0  0  0  0
 21 20  2  0  0  0  0
 22 21  1  0  0  0  0
 23 25  1  0  0  0  0
 24 23  1  0  0  0  0
 25 26  1  0  0  0  0
 25 27  2  0  0  0  0
M  END
>  <minimizedAffinity>
-4.71833563

$$$$

 OpenBabel03272510183D

 27 29  0  0  0  0  0  0  0  0999 V2000
   40.2890   27.0300   31.6920 Br  0  0  0  0  0  0  0  0  0  0  0  0
   39.8110   26.0940   33.2790 C   0  0  0  0  0  0  0  0  0  0  0  0
   38.5000   26.0900   33.7490 C   0  0  0  0  0  0  0  0  0  0  0  0
   38.2310   25.3910   34.9020 C   0  0  0  0  0  0  0  0  0  0  0  0
   39.2060   24.6990   35.6040 C   0  0  0  0  0  0  0  0  0  0  0  0
   40.4900   24.7190   35.1200 C   0  0  0  0  0  0  0  0  0  0  0  0
   40.7790   25.4160   33.9620 C   0  0  0  0  0  0  0  0  0  0  0  0
   37.1970   25.4120   35.2360 H   0  0  0  0  0  0  0  0  0  0  0  0
   41.2960   24.1960   35.6260 H   0  0  0  0  0  0  0  0  0  0  0  0
   41.8120   25.4030   33.6140 H   0  0  0  0  0  0  0  0  0  0  0  0
   36.1550   28.7250   32.8470 C   0  0  0  0  0  0  0  0  0  0  0  0
   35.4850   28.2310   31.7070 C   0  0  0  0  0  0  0  0  0  0  0  0
   35.8670   26.9640   31.2580 C   0  0  0  0  0  0  0  0  0  0  0  0
   36.8440   26.2970   31.9400 N   0  0  0  0  0  0  0  0  0  0  0  0
   37.4570   26.8110   33.0280 C   0  0  0  0  0  0  0  0  0  0  0  0
   37.1120   28.0410   33.4940 N   0  0  0  0  0  0  0  0  0  0  0  0
   35.8980   29.7080   33.2430 H   0  0  0  0  0  0  0  0  0  0  0  0
   34.7240   28.8110   31.2200 H   0  0  0  0  0  0  0  0  0  0  0  0
   35.3910   26.5380   30.3950 H   0  0  0  0  0  0  0  0  0  0  0  0
   38.8820   23.9690   36.8240 C   0  0  0  0  0  0  0  0  0  0  0  0
   39.6570   22.9610   37.3710 C   0  0  0  0  0  0  0  0  0  0  0  0
   40.5810   22.6080   36.9580 H   0  0  0  0  0  0  0  0  0  0  0  0
   39.0170   22.5460   38.4870 N   0  0  0  0  0  0  0  0  0  0  0  0
   39.4460   21.7680   39.0650 H   0  0  0  0  0  0  0  0  0  0  0  0
   37.8770   23.2710   38.6330 C   0  0  0  0  0  0  0  0  0  0  0  0
   37.2590   23.0560   39.4770 H   0  0  0  0  0  0  0  0  0  0  0  0
   37.8130   24.1470   37.5910 N   0  0  0  0  0  0  0  0  0  0  0  0
  1  2  1  0  0  0  0
  2  3  2  0  0  0  0
  2  7  1  0  0  0  0
  3  4  1  0  0  0  0
  4  8  1  0  0  0  0
  4  5  2  0  0  0  0
  5 20  1  0  0  0  0
  6  5  1  0  0  0  0
  6  9  1  0  0  0  0
  7  6  2  0  0  0  0
 10  7  1  0  0  0  0
 11 17  1  0  0  0  0
 11 16  1  0  0  0  0
 12 11  2  0  0  0  0
 13 12  1  0  0  0  0
 13 14  2  0  0  0  0
 14 15  1  0  0  0  0
 15 16  2  0  0  0  0
 15  3  1  0  0  0  0
 18 12  1  0  0  0  0
 19 13  1  0  0  0  0
 20 21  2  0  0  0  0
 20 27  1  0  0  0  0
 21 23  1  0  0  0  0
 22 21  1  0  0  0  0
 23 25  1  0  0  0  0
 23 24  1  0  0  0  0
 25 26  1  0  0  0  0
 27 25  2  0  0  0  0
M  END
>  <minimizedAffinity>
-4.67328548

$$$$

 OpenBabel03272510183D

 27 29  0  0  0  0  0  0  0  0999 V2000
   37.5280   27.8680   31.9560 Br  0  0  0  0  0  0  0  0  0  0  0  0
   37.8720   26.7160   33.4330 C   0  0  0  0  0  0  0  0  0  0  0  0
   38.4620   25.4690   33.2540 C   0  0  0  0  0  0  0  0  0  0  0  0
   38.6800   24.6920   34.3670 C   0  0  0  0  0  0  0  0  0  0  0  0
   38.3360   25.1040   35.6460 C   0  0  0  0  0  0  0  0  0  0  0  0
   37.7560   26.3380   35.7960 C   0  0  0  0  0  0  0  0  0  0  0  0
   37.5300   27.1320   34.6870 C   0  0  0  0  0  0  0  0  0  0  0  0
   39.1420   23.7260   34.1860 H   0  0  0  0  0  0  0  0  0  0  0  0
   37.4660   26.7150   36.7720 H   0  0  0  0  0  0  0  0  0  0  0  0
   37.0670   28.1050   34.8530 H   0  0  0  0  0  0  0  0  0  0  0  0
   38.2680   23.7740   30.0360 C   0  0  0  0  0  0  0  0  0  0  0  0
   39.4720   24.1140   29.3810 C   0  0  0  0  0  0  0  0  0  0  0  0
   40.3510   24.9450   30.0810 C   0  0  0  0  0  0  0  0  0  0  0  0
   39.9960   25.3650   31.3310 N   0  0  0  0  0  0  0  0  0  0  0  0
   38.8310   25.0130   31.9180 C   0  0  0  0  0  0  0  0  0  0  0  0
   37.9500   24.2060   31.2670 N   0  0  0  0  0  0  0  0  0  0  0  0
   37.5440   23.1290   29.5380 H   0  0  0  0  0  0  0  0  0  0  0  0
   39.6860   23.7460   28.3950 H   0  0  0  0  0  0  0  0  0  0  0  0
   41.2820   25.2350   29.6320 H   0  0  0  0  0  0  0  0  0  0  0  0
   38.5840   24.2520   36.8040 C   0  0  0  0  0  0  0  0  0  0  0  0
   39.4540   23.1770   36.8230 C   0  0  0  0  0  0  0  0  0  0  0  0
   40.0430   22.8520   35.9880 H   0  0  0  0  0  0  0  0  0  0  0  0
   39.3970   22.6570   38.0690 N   0  0  0  0  0  0  0  0  0  0  0  0
   39.9940   21.8130   38.3010 H   0  0  0  0  0  0  0  0  0  0  0  0
   38.5160   23.3830   38.8070 C   0  0  0  0  0  0  0  0  0  0  0  0
   38.3620   23.0910   39.8220 H   0  0  0  0  0  0  0  0  0  0  0  0
   38.0240   24.3680   38.0030 N   0  0  0  0  0  0  0  0  0  0  0  0
  1  2  1  0  0  0  0
  2  7  1  0  0  0  0
  3  2  2  0  0  0  0
  3  4  1  0  0  0  0
  4  5  2  0  0  0  0
  5  6  1  0  0  0  0
  5 20  1  0  0  0  0
  6  9  1  0  0  0  0
  7 10  1  0  0  0  0
  7  6  2  0  0  0  0
  8  4  1  0  0  0  0
 11 16  1  0  0  0  0
 12 11  2  0  0  0  0
 12 13  1  0  0  0  0
 13 14  2  0  0  0  0
 14 15  1  0  0  0  0
 15  3  1  0  0  0  0
 16 15  2  0  0  0  0
 17 11  1  0  0  0  0
 18 12  1  0  0  0  0
 19 13  1  0  0  0  0
 20 21  2  0  0  0  0
 20 27  1  0  0  0  0
 21 23  1  0  0  0  0
 22 21  1  0  0  0  0
 23 24  1  0  0  0  0
 23 25  1  0  0  0  0
 25 26  1  0  0  0  0
 27 25  2  0  0  0  0
M  END
>  <minimizedAffinity>
-4.64377117

$$$$

 OpenBabel03272510183D

 27 29  0  0  0  0  0  0  0  0999 V2000
   36.0640   32.7160   32.0490 Br  0  0  0  0  0  0  0  0  0  0  0  0
   36.0370   30.8140   31.9790 C   0  0  0  0  0  0  0  0  0  0  0  0
   35.5580   30.0580   33.0460 C   0  0  0  0  0  0  0  0  0  0  0  0
   35.5690   28.6890   32.9240 C   0  0  0  0  0  0  0  0  0  0  0  0
   36.0340   28.0420   31.7880 C   0  0  0  0  0  0  0  0  0  0  0  0
   36.5000   28.8100   30.7500 C   0  0  0  0  0  0  0  0  0  0  0  0
   36.4960   30.1880   30.8570 C   0  0  0  0  0  0  0  0  0  0  0  0
   35.1880   28.1350   33.7780 H   0  0  0  0  0  0  0  0  0  0  0  0
   36.8760   28.3600   29.8370 H   0  0  0  0  0  0  0  0  0  0  0  0
   36.8750   30.7570   30.0080 H   0  0  0  0  0  0  0  0  0  0  0  0
   33.2440   31.5020   35.4580 C   0  0  0  0  0  0  0  0  0  0  0  0
   34.0650   31.9560   36.5130 C   0  0  0  0  0  0  0  0  0  0  0  0
   35.4390   31.7480   36.3680 C   0  0  0  0  0  0  0  0  0  0  0  0
   35.8900   31.1320   35.2370 N   0  0  0  0  0  0  0  0  0  0  0  0
   35.0650   30.7150   34.2520 C   0  0  0  0  0  0  0  0  0  0  0  0
   33.7210   30.9000   34.3570 N   0  0  0  0  0  0  0  0  0  0  0  0
   32.1630   31.6370   35.5160 H   0  0  0  0  0  0  0  0  0  0  0  0
   33.6400   32.4330   37.3760 H   0  0  0  0  0  0  0  0  0  0  0  0
   36.1110   32.0720   37.1400 H   0  0  0  0  0  0  0  0  0  0  0  0
   36.0300   26.5870   31.6940 C   0  0  0  0  0  0  0  0  0  0  0  0
   36.8990   25.7490   32.3700 C   0  0  0  0  0  0  0  0  0  0  0  0
   37.6710   26.0780   33.0370 H   0  0  0  0  0  0  0  0  0  0  0  0
   36.5710   24.4870   32.0160 N   0  0  0  0  0  0  0  0  0  0  0  0
   37.1210   23.6790   32.4260 H   0  0  0  0  0  0  0  0  0  0  0  0
   35.5280   24.5330   31.1450 C   0  0  0  0  0  0  0  0  0  0  0  0
   35.1520   23.6060   30.7730 H   0  0  0  0  0  0  0  0  0  0  0  0
   35.2090   25.8460   30.9600 N   0  0  0  0  0  0  0  0  0  0  0  0
  2  1  1  0  0  0  0
  2  3  1  0  0  0  0
  3 15  1  0  0  0  0
  4  3  2  0  0  0  0
  4  8  1  0  0  0  0
  5  4  1  0  0  0  0
  6  7  1  0  0  0  0
  6  5  2  0  0  0  0
  7  2  2  0  0  0  0
  9  6  1  0  0  0  0
 10  7  1  0  0  0  0
 11 17  1  0  0  0  0
 11 12  1  0  0  0  0
 12 18  1  0  0  0  0
 13 12  2  0  0  0  0
 13 19  1  0  0  0  0
 14 13  1  0  0  0  0
 15 16  1  0  0  0  0
 15 14  2  0  0  0  0
 16 11  2  0  0  0  0
 20  5  1  0  0  0  0
 20 21  2  0  0  0  0
 21 22  1  0  0  0  0
 23 21  1  0  0  0  0
 23 24  1  0  0  0  0
 25 23  1  0  0  0  0
 26 25  1  0  0  0  0
 27 25  2  0  0  0  0
 27 20  1  0  0  0  0
M  END
>  <minimizedAffinity>
-4.60606718

$$$$
