
 OpenBabel03272500243D

 30 32  0  0  0  0  0  0  0  0999 V2000
   37.2310   23.4700   31.7690 C   0  0  0  0  0  0  0  0  0  0  0  0
   37.2410   24.3370   31.0290 H   0  0  0  0  0  0  0  0  0  0  0  0
   38.1280   22.8990   31.4520 H   0  0  0  0  0  0  0  0  0  0  0  0
   37.6230   23.9350   33.1170 C   0  0  0  0  0  0  0  0  0  0  0  0
   37.6210   25.3020   33.4020 C   0  0  0  0  0  0  0  0  0  0  0  0
   38.0320   25.4630   34.6970 C   0  0  0  0  0  0  0  0  0  0  0  0
   38.2750   24.2280   35.1780 N   0  0  0  0  0  0  0  0  0  0  0  0
   38.0270   23.3470   34.2330 N   0  0  0  0  0  0  0  0  0  0  0  0
   37.3700   26.2060   32.8270 H   0  0  0  0  0  0  0  0  0  0  0  0
   38.2070   26.2570   35.4050 H   0  0  0  0  0  0  0  0  0  0  0  0
   38.7190   23.6210   36.4080 C   0  0  0  0  0  0  0  0  0  0  0  0
   39.6530   22.6830   36.7740 C   0  0  0  0  0  0  0  0  0  0  0  0
   40.2480   22.2400   35.9970 H   0  0  0  0  0  0  0  0  0  0  0  0
   39.5490   22.5780   38.1100 N   0  0  0  0  0  0  0  0  0  0  0  0
   40.1760   21.9070   38.6260 H   0  0  0  0  0  0  0  0  0  0  0  0
   38.5910   23.4130   38.5760 C   0  0  0  0  0  0  0  0  0  0  0  0
   38.3200   23.5070   39.6340 H   0  0  0  0  0  0  0  0  0  0  0  0
   38.0670   24.0700   37.5060 N   0  0  0  0  0  0  0  0  0  0  0  0
   35.9290   22.7820   31.7120 C   0  0  0  0  0  0  0  0  0  0  0  0
   35.3960   23.0600   30.7510 H   0  0  0  0  0  0  0  0  0  0  0  0
   35.2290   23.2290   32.4880 H   0  0  0  0  0  0  0  0  0  0  0  0
   35.8800   21.3460   31.7950 C   0  0  0  0  0  0  0  0  0  0  0  0
   35.4690   20.7280   32.9440 C   0  0  0  0  0  0  0  0  0  0  0  0
   35.4140   19.3250   33.0310 C   0  0  0  0  0  0  0  0  0  0  0  0
   35.7980   18.6500   31.8920 N   0  0  0  0  0  0  0  0  0  0  0  0
   36.1990   19.2820   30.7680 C   0  0  0  0  0  0  0  0  0  0  0  0
   36.2350   20.6390   30.7360 N   0  0  0  0  0  0  0  0  0  0  0  0
   35.1470   21.1240   33.8940 H   0  0  0  0  0  0  0  0  0  0  0  0
   35.1090   18.7260   33.8770 H   0  0  0  0  0  0  0  0  0  0  0  0
   36.4890   18.6970   29.9050 H   0  0  0  0  0  0  0  0  0  0  0  0
  1  4  1  0  0  0  0
  2  1  1  0  0  0  0
  3  1  1  0  0  0  0
  4  5  1  0  0  0  0
  4  8  2  0  0  0  0
  5  6  2  0  0  0  0
  6  7  1  0  0  0  0
  6 10  1  0  0  0  0
  7 11  1  0  0  0  0
  8  7  1  0  0  0  0
  9  5  1  0  0  0  0
 11 12  2  0  0  0  0
 11 18  1  0  0  0  0
 12 14  1  0  0  0  0
 13 12  1  0  0  0  0
 14 16  1  0  0  0  0
 14 15  1  0  0  0  0
 16 17  1  0  0  0  0
 18 16  2  0  0  0  0
 19  1  1  0  0  0  0
 19 22  1  0  0  0  0
 19 21  1  0  0  0  0
 20 19  1  0  0  0  0
 22 23  1  0  0  0  0
 23 24  2  0  0  0  0
 23 28  1  0  0  0  0
 24 29  1  0  0  0  0
 25 24  1  0  0  0  0
 26 25  2  0  0  0  0
 27 26  1  0  0  0  0
 27 22  2  0  0  0  0
 30 26  1  0  0  0  0
M  END
>  <minimizedAffinity>
-4.8882246

$$$$

 OpenBabel03272500243D

 30 32  0  0  0  0  0  0  0  0999 V2000
   36.9640   26.5600   32.9310 C   0  0  0  0  0  0  0  0  0  0  0  0
   37.7610   26.3900   32.1340 H   0  0  0  0  0  0  0  0  0  0  0  0
   36.3080   25.6780   32.7790 H   0  0  0  0  0  0  0  0  0  0  0  0
   37.5150   26.3040   34.2790 C   0  0  0  0  0  0  0  0  0  0  0  0
   37.8590   27.3820   35.0990 C   0  0  0  0  0  0  0  0  0  0  0  0
   38.3530   26.8790   36.2710 C   0  0  0  0  0  0  0  0  0  0  0  0
   38.3080   25.5370   36.1610 N   0  0  0  0  0  0  0  0  0  0  0  0
   37.8120   25.2230   34.9840 N   0  0  0  0  0  0  0  0  0  0  0  0
   37.8120   28.4760   34.9890 H   0  0  0  0  0  0  0  0  0  0  0  0
   38.7470   27.2340   37.2090 H   0  0  0  0  0  0  0  0  0  0  0  0
   38.6430   24.3810   36.9540 C   0  0  0  0  0  0  0  0  0  0  0  0
   38.2120   23.8240   38.1330 C   0  0  0  0  0  0  0  0  0  0  0  0
   37.4220   24.3230   38.6630 H   0  0  0  0  0  0  0  0  0  0  0  0
   38.9630   22.7230   38.3040 N   0  0  0  0  0  0  0  0  0  0  0  0
   38.8120   22.1210   39.1550 H   0  0  0  0  0  0  0  0  0  0  0  0
   39.8350   22.5820   37.2780 C   0  0  0  0  0  0  0  0  0  0  0  0
   40.5540   21.7590   37.1920 H   0  0  0  0  0  0  0  0  0  0  0  0
   39.6340   23.6240   36.4270 N   0  0  0  0  0  0  0  0  0  0  0  0
   36.3640   27.8950   32.7570 C   0  0  0  0  0  0  0  0  0  0  0  0
   36.6610   28.5600   33.6250 H   0  0  0  0  0  0  0  0  0  0  0  0
   35.2390   27.8290   32.9050 H   0  0  0  0  0  0  0  0  0  0  0  0
   36.6450   28.6490   31.5620 C   0  0  0  0  0  0  0  0  0  0  0  0
   37.0920   28.0210   30.4330 C   0  0  0  0  0  0  0  0  0  0  0  0
   37.3640   28.7500   29.2600 C   0  0  0  0  0  0  0  0  0  0  0  0
   37.1450   30.1070   29.3470 N   0  0  0  0  0  0  0  0  0  0  0  0
   36.7010   30.7050   30.4750 C   0  0  0  0  0  0  0  0  0  0  0  0
   36.4540   29.9570   31.5800 N   0  0  0  0  0  0  0  0  0  0  0  0
   37.3050   26.9840   30.2260 H   0  0  0  0  0  0  0  0  0  0  0  0
   37.7190   28.3700   28.3130 H   0  0  0  0  0  0  0  0  0  0  0  0
   36.5470   31.7760   30.4810 H   0  0  0  0  0  0  0  0  0  0  0  0
  1  4  1  0  0  0  0
  2  1  1  0  0  0  0
  3  1  1  0  0  0  0
  4  8  2  0  0  0  0
  4  5  1  0  0  0  0
  5  6  2  0  0  0  0
  6 10  1  0  0  0  0
  7  6  1  0  0  0  0
  7 11  1  0  0  0  0
  8  7  1  0  0  0  0
  9  5  1  0  0  0  0
 11 12  2  0  0  0  0
 12 14  1  0  0  0  0
 12 13  1  0  0  0  0
 14 15  1  0  0  0  0
 16 14  1  0  0  0  0
 17 16  1  0  0  0  0
 18 11  1  0  0  0  0
 18 16  2  0  0  0  0
 19 21  1  0  0  0  0
 19  1  1  0  0  0  0
 19 20  1  0  0  0  0
 22 27  1  0  0  0  0
 22 19  1  0  0  0  0
 23 22  2  0  0  0  0
 24 25  2  0  0  0  0
 24 23  1  0  0  0  0
 25 26  1  0  0  0  0
 26 30  1  0  0  0  0
 26 27  2  0  0  0  0
 28 23  1  0  0  0  0
 29 24  1  0  0  0  0
M  END
>  <minimizedAffinity>
-4.77716446

$$$$

 OpenBabel03272500243D

 30 32  0  0  0  0  0  0  0  0999 V2000
   37.1270   27.2620   33.5270 C   0  0  0  0  0  0  0  0  0  0  0  0
   37.9890   27.8030   33.0120 H   0  0  0  0  0  0  0  0  0  0  0  0
   36.5040   26.9640   32.6590 H   0  0  0  0  0  0  0  0  0  0  0  0
   37.5750   25.9530   34.0480 C   0  0  0  0  0  0  0  0  0  0  0  0
   37.6620   24.8590   33.1830 C   0  0  0  0  0  0  0  0  0  0  0  0
   38.0820   23.7790   33.9100 C   0  0  0  0  0  0  0  0  0  0  0  0
   38.2440   24.2090   35.1760 N   0  0  0  0  0  0  0  0  0  0  0  0
   37.9410   25.4880   35.2330 N   0  0  0  0  0  0  0  0  0  0  0  0
   37.4710   24.7130   32.1090 H   0  0  0  0  0  0  0  0  0  0  0  0
   38.3080   22.7350   33.7630 H   0  0  0  0  0  0  0  0  0  0  0  0
   38.6460   23.6710   36.4520 C   0  0  0  0  0  0  0  0  0  0  0  0
   39.5800   22.7710   36.9020 C   0  0  0  0  0  0  0  0  0  0  0  0
   40.2160   22.3040   36.1740 H   0  0  0  0  0  0  0  0  0  0  0  0
   39.4220   22.7290   38.2360 N   0  0  0  0  0  0  0  0  0  0  0  0
   40.0390   22.0960   38.8100 H   0  0  0  0  0  0  0  0  0  0  0  0
   38.4290   23.5650   38.6210 C   0  0  0  0  0  0  0  0  0  0  0  0
   38.1110   23.7040   39.6610 H   0  0  0  0  0  0  0  0  0  0  0  0
   37.9390   24.1590   37.4980 N   0  0  0  0  0  0  0  0  0  0  0  0
   36.5160   28.1470   34.5350 C   0  0  0  0  0  0  0  0  0  0  0  0
   37.3310   28.6370   35.1520 H   0  0  0  0  0  0  0  0  0  0  0  0
   35.9920   27.5190   35.3250 H   0  0  0  0  0  0  0  0  0  0  0  0
   35.6420   29.2090   34.1110 C   0  0  0  0  0  0  0  0  0  0  0  0
   35.5840   30.3840   34.8090 C   0  0  0  0  0  0  0  0  0  0  0  0
   34.7360   31.4280   34.3960 C   0  0  0  0  0  0  0  0  0  0  0  0
   33.9940   31.1710   33.2640 N   0  0  0  0  0  0  0  0  0  0  0  0
   34.0690   30.0020   32.5900 C   0  0  0  0  0  0  0  0  0  0  0  0
   34.9030   29.0250   33.0300 N   0  0  0  0  0  0  0  0  0  0  0  0
   36.0980   30.7160   35.6960 H   0  0  0  0  0  0  0  0  0  0  0  0
   34.6030   32.3950   34.8610 H   0  0  0  0  0  0  0  0  0  0  0  0
   33.4610   29.8600   31.7070 H   0  0  0  0  0  0  0  0  0  0  0  0
  1  4  1  0  0  0  0
  1 19  1  0  0  0  0
  2  1  1  0  0  0  0
  3  1  1  0  0  0  0
  4  8  2  0  0  0  0
  5  6  2  0  0  0  0
  5  4  1  0  0  0  0
  6  7  1  0  0  0  0
  7  8  1  0  0  0  0
  7 11  1  0  0  0  0
  9  5  1  0  0  0  0
 10  6  1  0  0  0  0
 11 12  2  0  0  0  0
 11 18  1  0  0  0  0
 12 14  1  0  0  0  0
 13 12  1  0  0  0  0
 14 16  1  0  0  0  0
 14 15  1  0  0  0  0
 16 17  1  0  0  0  0
 18 16  2  0  0  0  0
 19 20  1  0  0  0  0
 19 21  1  0  0  0  0
 22 19  1  0  0  0  0
 22 23  1  0  0  0  0
 23 28  1  0  0  0  0
 24 23  2  0  0  0  0
 24 29  1  0  0  0  0
 25 24  1  0  0  0  0
 26 27  1  0  0  0  0
 26 25  2  0  0  0  0
 27 22  2  0  0  0  0
 30 26  1  0  0  0  0
M  END
>  <minimizedAffinity>
-4.75956249

$$$$

 OpenBabel03272500243D

 30 32  0  0  0  0  0  0  0  0999 V2000
   38.4040   26.8540   35.2540 C   0  0  0  0  0  0  0  0  0  0  0  0
   39.5080   26.5900   35.1450 H   0  0  0  0  0  0  0  0  0  0  0  0
   38.4580   27.7780   35.8660 H   0  0  0  0  0  0  0  0  0  0  0  0
   37.8640   27.3630   33.9760 C   0  0  0  0  0  0  0  0  0  0  0  0
   36.6040   27.9680   33.9510 C   0  0  0  0  0  0  0  0  0  0  0  0
   36.3370   28.3320   32.6600 C   0  0  0  0  0  0  0  0  0  0  0  0
   37.4050   27.9590   31.9280 N   0  0  0  0  0  0  0  0  0  0  0  0
   38.2880   27.3930   32.7220 N   0  0  0  0  0  0  0  0  0  0  0  0
   35.8440   28.1890   34.7160 H   0  0  0  0  0  0  0  0  0  0  0  0
   35.5550   28.8100   32.0930 H   0  0  0  0  0  0  0  0  0  0  0  0
   37.8360   28.0060   30.5530 C   0  0  0  0  0  0  0  0  0  0  0  0
   38.7340   27.3260   29.7680 C   0  0  0  0  0  0  0  0  0  0  0  0
   39.3030   26.5380   30.2260 H   0  0  0  0  0  0  0  0  0  0  0  0
   38.6390   27.8850   28.5500 N   0  0  0  0  0  0  0  0  0  0  0  0
   39.2430   27.5230   27.7660 H   0  0  0  0  0  0  0  0  0  0  0  0
   37.7190   28.8780   28.5560 C   0  0  0  0  0  0  0  0  0  0  0  0
   37.4630   29.4840   27.6790 H   0  0  0  0  0  0  0  0  0  0  0  0
   37.2120   28.9560   29.8170 N   0  0  0  0  0  0  0  0  0  0  0  0
   37.6710   25.7040   35.8160 C   0  0  0  0  0  0  0  0  0  0  0  0
   37.1100   25.1730   34.9880 H   0  0  0  0  0  0  0  0  0  0  0  0
   36.8120   26.0780   36.4580 H   0  0  0  0  0  0  0  0  0  0  0  0
   38.3930   24.6830   36.5300 C   0  0  0  0  0  0  0  0  0  0  0  0
   38.0280   24.3330   37.8000 C   0  0  0  0  0  0  0  0  0  0  0  0
   38.7250   23.3310   38.5020 C   0  0  0  0  0  0  0  0  0  0  0  0
   39.7730   22.7550   37.8190 N   0  0  0  0  0  0  0  0  0  0  0  0
   40.1140   23.1180   36.5630 C   0  0  0  0  0  0  0  0  0  0  0  0
   39.4100   24.0900   35.9290 N   0  0  0  0  0  0  0  0  0  0  0  0
   37.2440   24.6940   38.4460 H   0  0  0  0  0  0  0  0  0  0  0  0
   38.5340   22.9700   39.5020 H   0  0  0  0  0  0  0  0  0  0  0  0
   40.9480   22.6270   36.0770 H   0  0  0  0  0  0  0  0  0  0  0  0
  1 19  1  0  0  0  0
  1  3  1  0  0  0  0
  2  1  1  0  0  0  0
  4  1  1  0  0  0  0
  5  4  1  0  0  0  0
  5  9  1  0  0  0  0
  6  5  2  0  0  0  0
  7  6  1  0  0  0  0
  7  8  1  0  0  0  0
  8  4  2  0  0  0  0
 10  6  1  0  0  0  0
 11  7  1  0  0  0  0
 12 13  1  0  0  0  0
 12 11  2  0  0  0  0
 14 16  1  0  0  0  0
 14 12  1  0  0  0  0
 15 14  1  0  0  0  0
 16 18  2  0  0  0  0
 17 16  1  0  0  0  0
 18 11  1  0  0  0  0
 19 21  1  0  0  0  0
 19 22  1  0  0  0  0
 20 19  1  0  0  0  0
 22 23  1  0  0  0  0
 23 28  1  0  0  0  0
 23 24  2  0  0  0  0
 24 29  1  0  0  0  0
 25 24  1  0  0  0  0
 26 25  2  0  0  0  0
 27 22  2  0  0  0  0
 27 26  1  0  0  0  0
 30 26  1  0  0  0  0
M  END
>  <minimizedAffinity>
-4.67605019

$$$$

 OpenBabel03272500243D

 30 32  0  0  0  0  0  0  0  0999 V2000
   38.4380   24.3640   33.4130 C   0  0  0  0  0  0  0  0  0  0  0  0
   39.4050   23.7660   33.5110 H   0  0  0  0  0  0  0  0  0  0  0  0
   38.7140   25.1000   32.6300 H   0  0  0  0  0  0  0  0  0  0  0  0
   37.4010   23.5620   32.7300 C   0  0  0  0  0  0  0  0  0  0  0  0
   36.5440   24.1790   31.8150 C   0  0  0  0  0  0  0  0  0  0  0  0
   35.6790   23.2310   31.3420 C   0  0  0  0  0  0  0  0  0  0  0  0
   36.0050   22.0750   31.9550 N   0  0  0  0  0  0  0  0  0  0  0  0
   37.0190   22.2940   32.7640 N   0  0  0  0  0  0  0  0  0  0  0  0
   36.4410   25.2060   31.4310 H   0  0  0  0  0  0  0  0  0  0  0  0
   34.8530   23.1500   30.6540 H   0  0  0  0  0  0  0  0  0  0  0  0
   35.5630   20.7040   31.9690 C   0  0  0  0  0  0  0  0  0  0  0  0
   34.3570   20.0470   32.0030 C   0  0  0  0  0  0  0  0  0  0  0  0
   33.4640   20.6420   32.0280 H   0  0  0  0  0  0  0  0  0  0  0  0
   34.6630   18.7380   31.9950 N   0  0  0  0  0  0  0  0  0  0  0  0
   33.8870   18.0260   32.0170 H   0  0  0  0  0  0  0  0  0  0  0  0
   36.0050   18.5670   31.9560 C   0  0  0  0  0  0  0  0  0  0  0  0
   36.5000   17.5880   31.9430 H   0  0  0  0  0  0  0  0  0  0  0  0
   36.5730   19.8030   31.9390 N   0  0  0  0  0  0  0  0  0  0  0  0
   38.0410   24.8860   34.7330 C   0  0  0  0  0  0  0  0  0  0  0  0
   36.9100   24.8990   34.8100 H   0  0  0  0  0  0  0  0  0  0  0  0
   38.2770   25.9960   34.7890 H   0  0  0  0  0  0  0  0  0  0  0  0
   38.5160   24.2350   35.9260 C   0  0  0  0  0  0  0  0  0  0  0  0
   37.8520   24.3860   37.1120 C   0  0  0  0  0  0  0  0  0  0  0  0
   38.3070   23.7480   38.2810 C   0  0  0  0  0  0  0  0  0  0  0  0
   39.4430   22.9830   38.1300 N   0  0  0  0  0  0  0  0  0  0  0  0
   40.0800   22.8480   36.9470 C   0  0  0  0  0  0  0  0  0  0  0  0
   39.6010   23.4840   35.8470 N   0  0  0  0  0  0  0  0  0  0  0  0
   36.9670   24.9450   37.3720 H   0  0  0  0  0  0  0  0  0  0  0  0
   37.8720   23.7910   39.2700 H   0  0  0  0  0  0  0  0  0  0  0  0
   40.9680   22.2320   36.8900 H   0  0  0  0  0  0  0  0  0  0  0  0
  1  2  1  0  0  0  0
  1 19  1  0  0  0  0
  3  1  1  0  0  0  0
  4  8  2  0  0  0  0
  4  1  1  0  0  0  0
  5  4  1  0  0  0  0
  6  5  2  0  0  0  0
  6  7  1  0  0  0  0
  7 11  1  0  0  0  0
  7  8  1  0  0  0  0
  9  5  1  0  0  0  0
 10  6  1  0  0  0  0
 11 12  2  0  0  0  0
 12 13  1  0  0  0  0
 14 12  1  0  0  0  0
 14 15  1  0  0  0  0
 16 14  1  0  0  0  0
 17 16  1  0  0  0  0
 18 16  2  0  0  0  0
 18 11  1  0  0  0  0
 19 21  1  0  0  0  0
 19 20  1  0  0  0  0
 19 22  1  0  0  0  0
 22 23  1  0  0  0  0
 23 28  1  0  0  0  0
 23 24  2  0  0  0  0
 24 29  1  0  0  0  0
 25 24  1  0  0  0  0
 26 25  2  0  0  0  0
 27 22  2  0  0  0  0
 27 26  1  0  0  0  0
 30 26  1  0  0  0  0
M  END
>  <minimizedAffinity>
-4.644557

$$$$

 OpenBabel03272500243D

 30 32  0  0  0  0  0  0  0  0999 V2000
   36.9250   26.7770   33.0530 C   0  0  0  0  0  0  0  0  0  0  0  0
   35.8090   26.5450   33.0340 H   0  0  0  0  0  0  0  0  0  0  0  0
   36.9190   27.8860   33.0690 H   0  0  0  0  0  0  0  0  0  0  0  0
   37.4990   26.4520   34.3760 C   0  0  0  0  0  0  0  0  0  0  0  0
   37.8800   27.4860   35.2350 C   0  0  0  0  0  0  0  0  0  0  0  0
   38.3880   26.9230   36.3730 C   0  0  0  0  0  0  0  0  0  0  0  0
   38.3150   25.5880   36.2060 N   0  0  0  0  0  0  0  0  0  0  0  0
   37.7900   25.3350   35.0260 N   0  0  0  0  0  0  0  0  0  0  0  0
   37.8510   28.5850   35.1740 H   0  0  0  0  0  0  0  0  0  0  0  0
   38.8070   27.2290   37.3180 H   0  0  0  0  0  0  0  0  0  0  0  0
   38.6440   24.3920   36.9400 C   0  0  0  0  0  0  0  0  0  0  0  0
   38.2210   23.7870   38.0970 C   0  0  0  0  0  0  0  0  0  0  0  0
   37.4450   24.2710   38.6600 H   0  0  0  0  0  0  0  0  0  0  0  0
   38.9590   22.6690   38.2070 N   0  0  0  0  0  0  0  0  0  0  0  0
   38.8110   22.0310   39.0320 H   0  0  0  0  0  0  0  0  0  0  0  0
   39.8160   22.5650   37.1640 C   0  0  0  0  0  0  0  0  0  0  0  0
   40.5240   21.7380   37.0310 H   0  0  0  0  0  0  0  0  0  0  0  0
   39.6190   23.6480   36.3650 N   0  0  0  0  0  0  0  0  0  0  0  0
   37.5900   26.1140   31.9160 C   0  0  0  0  0  0  0  0  0  0  0  0
   38.7140   26.1870   32.0410 H   0  0  0  0  0  0  0  0  0  0  0  0
   37.4340   26.7290   30.9730 H   0  0  0  0  0  0  0  0  0  0  0  0
   37.3070   24.7310   31.6370 C   0  0  0  0  0  0  0  0  0  0  0  0
   36.0170   24.3010   31.4840 C   0  0  0  0  0  0  0  0  0  0  0  0
   35.7330   22.9510   31.2060 C   0  0  0  0  0  0  0  0  0  0  0  0
   36.8330   22.1280   31.1030 N   0  0  0  0  0  0  0  0  0  0  0  0
   38.0980   22.5760   31.2560 C   0  0  0  0  0  0  0  0  0  0  0  0
   38.3200   23.8880   31.5250 N   0  0  0  0  0  0  0  0  0  0  0  0
   35.0770   24.8250   31.5380 H   0  0  0  0  0  0  0  0  0  0  0  0
   34.7640   22.4950   31.0660 H   0  0  0  0  0  0  0  0  0  0  0  0
   38.9220   21.8800   31.1640 H   0  0  0  0  0  0  0  0  0  0  0  0
  1  3  1  0  0  0  0
  1  4  1  0  0  0  0
  2  1  1  0  0  0  0
  4  8  2  0  0  0  0
  4  5  1  0  0  0  0
  5  6  2  0  0  0  0
  6 10  1  0  0  0  0
  7  6  1  0  0  0  0
  7 11  1  0  0  0  0
  8  7  1  0  0  0  0
  9  5  1  0  0  0  0
 11 12  2  0  0  0  0
 12 14  1  0  0  0  0
 12 13  1  0  0  0  0
 14 15  1  0  0  0  0
 16 14  1  0  0  0  0
 17 16  1  0  0  0  0
 18 11  1  0  0  0  0
 18 16  2  0  0  0  0
 19 20  1  0  0  0  0
 19  1  1  0  0  0  0
 21 19  1  0  0  0  0
 22 19  1  0  0  0  0
 23 28  1  0  0  0  0
 23 22  2  0  0  0  0
 24 23  1  0  0  0  0
 25 24  2  0  0  0  0
 25 26  1  0  0  0  0
 26 27  2  0  0  0  0
 27 22  1  0  0  0  0
 29 24  1  0  0  0  0
 30 26  1  0  0  0  0
M  END
>  <minimizedAffinity>
-4.63496113

$$$$

 OpenBabel03272500243D

 30 32  0  0  0  0  0  0  0  0999 V2000
   36.9200   27.9920   33.6120 C   0  0  0  0  0  0  0  0  0  0  0  0
   35.8140   28.0120   33.8890 H   0  0  0  0  0  0  0  0  0  0  0  0
   37.2600   28.9790   33.9870 H   0  0  0  0  0  0  0  0  0  0  0  0
   37.6570   27.0580   34.4900 C   0  0  0  0  0  0  0  0  0  0  0  0
   39.0410   27.1930   34.6320 C   0  0  0  0  0  0  0  0  0  0  0  0
   39.4750   26.2090   35.4780 C   0  0  0  0  0  0  0  0  0  0  0  0
   38.3840   25.5020   35.8350 N   0  0  0  0  0  0  0  0  0  0  0  0
   37.3290   26.0200   35.2430 N   0  0  0  0  0  0  0  0  0  0  0  0
   39.7910   27.8870   34.2240 H   0  0  0  0  0  0  0  0  0  0  0  0
   40.3940   25.8570   35.9170 H   0  0  0  0  0  0  0  0  0  0  0  0
   38.0620   24.3670   36.6630 C   0  0  0  0  0  0  0  0  0  0  0  0
   37.6650   23.0680   36.4600 C   0  0  0  0  0  0  0  0  0  0  0  0
   37.5400   22.7360   35.4460 H   0  0  0  0  0  0  0  0  0  0  0  0
   37.5360   22.5380   37.6880 N   0  0  0  0  0  0  0  0  0  0  0  0
   37.2350   21.5330   37.7880 H   0  0  0  0  0  0  0  0  0  0  0  0
   37.8370   23.4580   38.6340 C   0  0  0  0  0  0  0  0  0  0  0  0
   37.8050   23.2640   39.7120 H   0  0  0  0  0  0  0  0  0  0  0  0
   38.1690   24.6100   37.9900 N   0  0  0  0  0  0  0  0  0  0  0  0
   37.0670   27.7220   32.1700 C   0  0  0  0  0  0  0  0  0  0  0  0
   38.1580   27.8080   31.8780 H   0  0  0  0  0  0  0  0  0  0  0  0
   36.6130   28.5780   31.5750 H   0  0  0  0  0  0  0  0  0  0  0  0
   36.6060   26.4690   31.6320 C   0  0  0  0  0  0  0  0  0  0  0  0
   37.4800   25.4380   31.4220 C   0  0  0  0  0  0  0  0  0  0  0  0
   37.0350   24.2080   30.9020 C   0  0  0  0  0  0  0  0  0  0  0  0
   35.6860   24.1370   30.6310 N   0  0  0  0  0  0  0  0  0  0  0  0
   34.8420   25.1700   30.8480 C   0  0  0  0  0  0  0  0  0  0  0  0
   35.3210   26.3360   31.3520 N   0  0  0  0  0  0  0  0  0  0  0  0
   38.5420   25.3560   31.5840 H   0  0  0  0  0  0  0  0  0  0  0  0
   37.6240   23.3270   30.6930 H   0  0  0  0  0  0  0  0  0  0  0  0
   33.7910   25.0530   30.6170 H   0  0  0  0  0  0  0  0  0  0  0  0
  1  2  1  0  0  0  0
  1  3  1  0  0  0  0
  1  4  1  0  0  0  0
  4  5  1  0  0  0  0
  4  8  2  0  0  0  0
  5  6  2  0  0  0  0
  6  7  1  0  0  0  0
  6 10  1  0  0  0  0
  7 11  1  0  0  0  0
  8  7  1  0  0  0  0
  9  5  1  0  0  0  0
 11 18  1  0  0  0  0
 12 11  2  0  0  0  0
 12 14  1  0  0  0  0
 13 12  1  0  0  0  0
 14 15  1  0  0  0  0
 14 16  1  0  0  0  0
 16 17  1  0  0  0  0
 18 16  2  0  0  0  0
 19  1  1  0  0  0  0
 20 19  1  0  0  0  0
 21 19  1  0  0  0  0
 22 19  1  0  0  0  0
 23 28  1  0  0  0  0
 23 22  1  0  0  0  0
 24 23  2  0  0  0  0
 25 26  2  0  0  0  0
 25 24  1  0  0  0  0
 26 27  1  0  0  0  0
 27 22  2  0  0  0  0
 29 24  1  0  0  0  0
 30 26  1  0  0  0  0
M  END
>  <minimizedAffinity>
-4.59525204

$$$$

 OpenBabel03272500243D

 30 32  0  0  0  0  0  0  0  0999 V2000
   37.7780   27.5860   35.5130 C   0  0  0  0  0  0  0  0  0  0  0  0
   38.3090   28.5160   35.9060 H   0  0  0  0  0  0  0  0  0  0  0  0
   37.0030   27.4300   36.2910 H   0  0  0  0  0  0  0  0  0  0  0  0
   36.9610   27.9190   34.3270 C   0  0  0  0  0  0  0  0  0  0  0  0
   37.3910   27.5200   33.0590 C   0  0  0  0  0  0  0  0  0  0  0  0
   36.4740   27.9600   32.1450 C   0  0  0  0  0  0  0  0  0  0  0  0
   35.5180   28.6050   32.8410 N   0  0  0  0  0  0  0  0  0  0  0  0
   35.8250   28.5680   34.1200 N   0  0  0  0  0  0  0  0  0  0  0  0
   38.2620   26.9610   32.6840 H   0  0  0  0  0  0  0  0  0  0  0  0
   36.3080   27.9370   31.0800 H   0  0  0  0  0  0  0  0  0  0  0  0
   34.2860   29.3060   32.5810 C   0  0  0  0  0  0  0  0  0  0  0  0
   32.9640   29.1560   32.9230 C   0  0  0  0  0  0  0  0  0  0  0  0
   32.7000   28.3220   33.5460 H   0  0  0  0  0  0  0  0  0  0  0  0
   32.3240   30.1810   32.3350 N   0  0  0  0  0  0  0  0  0  0  0  0
   31.2820   30.2780   32.4570 H   0  0  0  0  0  0  0  0  0  0  0  0
   33.1980   30.9520   31.6470 C   0  0  0  0  0  0  0  0  0  0  0  0
   32.9160   31.8480   31.0820 H   0  0  0  0  0  0  0  0  0  0  0  0
   34.4340   30.4030   31.8010 N   0  0  0  0  0  0  0  0  0  0  0  0
   38.7590   26.5070   35.2990 C   0  0  0  0  0  0  0  0  0  0  0  0
   39.7070   26.7380   35.8750 H   0  0  0  0  0  0  0  0  0  0  0  0
   39.1380   26.5450   34.2280 H   0  0  0  0  0  0  0  0  0  0  0  0
   38.4080   25.1520   35.6340 C   0  0  0  0  0  0  0  0  0  0  0  0
   38.0190   24.8280   36.9050 C   0  0  0  0  0  0  0  0  0  0  0  0
   37.6690   23.5060   37.2390 C   0  0  0  0  0  0  0  0  0  0  0  0
   37.7490   22.5980   36.2060 N   0  0  0  0  0  0  0  0  0  0  0  0
   38.1340   22.9420   34.9580 C   0  0  0  0  0  0  0  0  0  0  0  0
   38.4620   24.2320   34.6870 N   0  0  0  0  0  0  0  0  0  0  0  0
   37.9150   25.4250   37.7960 H   0  0  0  0  0  0  0  0  0  0  0  0
   37.3500   23.1300   38.2000 H   0  0  0  0  0  0  0  0  0  0  0  0
   38.1760   22.1830   34.1880 H   0  0  0  0  0  0  0  0  0  0  0  0
  1  2  1  0  0  0  0
  1  3  1  0  0  0  0
  4  1  1  0  0  0  0
  5  4  1  0  0  0  0
  6  7  1  0  0  0  0
  6  5  2  0  0  0  0
  7  8  1  0  0  0  0
  8  4  2  0  0  0  0
  9  5  1  0  0  0  0
 10  6  1  0  0  0  0
 11  7  1  0  0  0  0
 11 12  2  0  0  0  0
 12 13  1  0  0  0  0
 14 15  1  0  0  0  0
 14 12  1  0  0  0  0
 16 18  2  0  0  0  0
 16 14  1  0  0  0  0
 17 16  1  0  0  0  0
 18 11  1  0  0  0  0
 19  1  1  0  0  0  0
 19 22  1  0  0  0  0
 19 20  1  0  0  0  0
 21 19  1  0  0  0  0
 22 23  1  0  0  0  0
 23 24  2  0  0  0  0
 23 28  1  0  0  0  0
 24 29  1  0  0  0  0
 25 24  1  0  0  0  0
 26 25  2  0  0  0  0
 27 26  1  0  0  0  0
 27 22  2  0  0  0  0
 30 26  1  0  0  0  0
M  END
>  <minimizedAffinity>
-4.48697376

$$$$

 OpenBabel03272500243D

 30 32  0  0  0  0  0  0  0  0999 V2000
   35.4890   29.9900   34.4840 C   0  0  0  0  0  0  0  0  0  0  0  0
   35.4010   30.7090   33.6030 H   0  0  0  0  0  0  0  0  0  0  0  0
   34.4330   29.6780   34.6210 H   0  0  0  0  0  0  0  0  0  0  0  0
   36.1300   28.7270   34.0600 C   0  0  0  0  0  0  0  0  0  0  0  0
   36.2360   28.4310   32.6980 C   0  0  0  0  0  0  0  0  0  0  0  0
   36.8480   27.2140   32.5780 C   0  0  0  0  0  0  0  0  0  0  0  0
   37.1030   26.7880   33.8310 N   0  0  0  0  0  0  0  0  0  0  0  0
   36.6740   27.6930   34.6840 N   0  0  0  0  0  0  0  0  0  0  0  0
   35.9430   28.9530   31.7740 H   0  0  0  0  0  0  0  0  0  0  0  0
   37.1670   26.5340   31.8050 H   0  0  0  0  0  0  0  0  0  0  0  0
   37.7000   25.6470   34.4780 C   0  0  0  0  0  0  0  0  0  0  0  0
   38.2040   24.4310   34.0860 C   0  0  0  0  0  0  0  0  0  0  0  0
   38.1820   24.1950   33.0390 H   0  0  0  0  0  0  0  0  0  0  0  0
   38.6160   23.8330   35.2170 N   0  0  0  0  0  0  0  0  0  0  0  0
   39.0450   22.8720   35.1670 H   0  0  0  0  0  0  0  0  0  0  0  0
   38.3850   24.6320   36.2850 C   0  0  0  0  0  0  0  0  0  0  0  0
   38.6350   24.3650   37.3180 H   0  0  0  0  0  0  0  0  0  0  0  0
   37.8090   25.7750   35.8220 N   0  0  0  0  0  0  0  0  0  0  0  0
   36.1540   30.6660   35.6130 C   0  0  0  0  0  0  0  0  0  0  0  0
   37.2650   30.7420   35.4070 H   0  0  0  0  0  0  0  0  0  0  0  0
   36.1450   29.9850   36.5230 H   0  0  0  0  0  0  0  0  0  0  0  0
   35.7270   31.9860   36.0010 C   0  0  0  0  0  0  0  0  0  0  0  0
   34.7510   32.1520   36.9440 C   0  0  0  0  0  0  0  0  0  0  0  0
   34.3330   33.4390   37.3310 C   0  0  0  0  0  0  0  0  0  0  0  0
   34.9730   34.4820   36.6980 N   0  0  0  0  0  0  0  0  0  0  0  0
   35.9360   34.2910   35.7690 C   0  0  0  0  0  0  0  0  0  0  0  0
   36.3040   33.0290   35.4300 N   0  0  0  0  0  0  0  0  0  0  0  0
   34.1730   31.4400   37.5110 H   0  0  0  0  0  0  0  0  0  0  0  0
   33.5770   33.6980   38.0590 H   0  0  0  0  0  0  0  0  0  0  0  0
   36.4040   35.1510   35.3060 H   0  0  0  0  0  0  0  0  0  0  0  0
  1  3  1  0  0  0  0
  1 19  1  0  0  0  0
  2  1  1  0  0  0  0
  4  1  1  0  0  0  0
  4  8  2  0  0  0  0
  5  4  1  0  0  0  0
  6  5  2  0  0  0  0
  6  7  1  0  0  0  0
  7 11  1  0  0  0  0
  7  8  1  0  0  0  0
  9  5  1  0  0  0  0
 10  6  1  0  0  0  0
 11 18  1  0  0  0  0
 12 11  2  0  0  0  0
 12 14  1  0  0  0  0
 13 12  1  0  0  0  0
 14 16  1  0  0  0  0
 15 14  1  0  0  0  0
 16 17  1  0  0  0  0
 18 16  2  0  0  0  0
 19 22  1  0  0  0  0
 19 21  1  0  0  0  0
 20 19  1  0  0  0  0
 22 23  1  0  0  0  0
 23 24  2  0  0  0  0
 23 28  1  0  0  0  0
 24 29  1  0  0  0  0
 25 24  1  0  0  0  0
 26 25  2  0  0  0  0
 27 26  1  0  0  0  0
 27 22  2  0  0  0  0
 30 26  1  0  0  0  0
M  END
>  <minimizedAffinity>
-4.46888447

$$$$
