
 OpenBabel03262522193D

 23 24  0  0  0  0  0  0  0  0999 V2000
   33.0090   30.6100   46.5610 O   0  0  0  0  0  0  0  0  0  0  0  0
   33.3640   30.2060   45.1330 P   0  0  1  0  0  0  0  0  0  0  0  0
   34.9940   30.6290   44.8660 O   0  0  0  0  0  0  0  0  0  0  0  0
   35.4160   30.9340   45.6990 H   0  0  0  0  0  0  0  0  0  0  0  0
   33.2970   28.5090   45.0530 O   0  0  0  0  0  0  0  0  0  0  0  0
   33.5700   26.9160   46.8010 C   0  0  0  0  0  0  0  0  0  0  0  0
   32.7360   27.6620   45.9530 C   0  0  0  0  0  0  0  0  0  0  0  0
   31.3540   27.4690   46.1070 C   0  0  0  0  0  0  0  0  0  0  0  0
   30.8910   26.5930   47.0420 N   0  0  0  0  0  0  0  0  0  0  0  0
   31.7530   25.9010   47.8320 C   0  0  0  0  0  0  0  0  0  0  0  0
   33.0860   26.0570   47.7160 N   0  0  0  0  0  0  0  0  0  0  0  0
   34.6420   27.0300   46.7210 H   0  0  0  0  0  0  0  0  0  0  0  0
   30.6860   28.0360   45.4610 H   0  0  0  0  0  0  0  0  0  0  0  0
   31.1860   25.2620   48.5040 H   0  0  0  0  0  0  0  0  0  0  0  0
   32.3430   30.9880   44.0890 O   0  0  0  0  0  0  0  0  0  0  0  0
   32.1390   32.3590   44.0100 C   0  0  0  0  0  0  0  0  0  0  0  0
   32.9000   33.0490   43.0770 C   0  0  0  0  0  0  0  0  0  0  0  0
   33.6600   32.7720   42.3490 H   0  0  0  0  0  0  0  0  0  0  0  0
   32.5340   34.3580   43.1770 N   0  0  0  0  0  0  0  0  0  0  0  0
   32.8830   35.1810   42.6420 H   0  0  0  0  0  0  0  0  0  0  0  0
   31.5770   34.4870   44.1400 C   0  0  0  0  0  0  0  0  0  0  0  0
   31.0920   35.4050   44.4470 H   0  0  0  0  0  0  0  0  0  0  0  0
   31.3510   33.2550   44.6360 N   0  0  0  0  0  0  0  0  0  0  0  0
  2  1  2  1  0  0  0
  3  2  1  0  0  0  0
  3  4  1  0  0  0  0
  5  2  1  0  0  0  0
  5  7  1  0  0  0  0
  6 11  1  0  0  0  0
  7  8  1  0  0  0  0
  7  6  2  0  0  0  0
  8  9  2  0  0  0  0
  9 10  1  0  0  0  0
 10 14  1  0  0  0  0
 11 10  2  0  0  0  0
 12  6  1  0  0  0  0
 13  8  1  0  0  0  0
 15  2  1  0  0  0  0
 16 15  1  0  0  0  0
 16 23  1  0  0  0  0
 17 19  1  0  0  0  0
 17 16  2  0  0  0  0
 18 17  1  0  0  0  0
 19 21  1  0  0  0  0
 20 19  1  0  0  0  0
 21 22  1  0  0  0  0
 21 23  2  0  0  0  0
M  END
>  <minimizedAffinity>
-2.56081128

>  <minimizedRMSD>
7.89089346

$$$$
