
 OpenBabel03272504193D

 26 27  0  0  0  0  0  0  0  0999 V2000
   36.0670   31.6540   47.4690 O   0  0  0  0  0  0  0  0  0  0  0  0
   35.8620   30.5970   48.3170 C   0  0  0  0  0  0  0  0  0  0  0  0
   35.5830   31.0050   49.3320 H   0  0  0  0  0  0  0  0  0  0  0  0
   36.7670   29.9810   48.5080 H   0  0  0  0  0  0  0  0  0  0  0  0
   34.8300   29.6470   47.8320 C   0  0  0  0  0  0  0  0  0  0  0  0
   34.2330   29.9250   46.6070 C   0  0  0  0  0  0  0  0  0  0  0  0
   33.2550   29.0340   46.1370 C   0  0  0  0  0  0  0  0  0  0  0  0
   32.9550   27.9580   46.9090 N   0  0  0  0  0  0  0  0  0  0  0  0
   33.5440   27.7120   48.0860 C   0  0  0  0  0  0  0  0  0  0  0  0
   34.4770   28.5570   48.5400 N   0  0  0  0  0  0  0  0  0  0  0  0
   34.4580   30.7780   45.9750 H   0  0  0  0  0  0  0  0  0  0  0  0
   32.7520   29.1880   45.1950 H   0  0  0  0  0  0  0  0  0  0  0  0
   33.3020   26.8530   48.6990 H   0  0  0  0  0  0  0  0  0  0  0  0
   37.9450   30.7730   45.8570 O   0  0  0  0  0  0  0  0  0  0  0  0
   37.7040   31.6690   47.0440 P   0  0  2  0  0  0  0  0  0  0  0  0
   38.6330   31.0530   48.3410 O   0  0  0  0  0  0  0  0  0  0  0  0
   38.6350   31.7630   49.0300 H   0  0  0  0  0  0  0  0  0  0  0  0
   38.2140   33.2390   46.6650 O   0  0  0  0  0  0  0  0  0  0  0  0
   38.8710   33.4850   45.4590 C   0  0  0  0  0  0  0  0  0  0  0  0
   40.2430   33.6080   45.3840 C   0  0  0  0  0  0  0  0  0  0  0  0
   41.0370   33.5510   46.1400 H   0  0  0  0  0  0  0  0  0  0  0  0
   40.6180   33.8440   44.1010 N   0  0  0  0  0  0  0  0  0  0  0  0
   41.5270   33.9950   43.6130 H   0  0  0  0  0  0  0  0  0  0  0  0
   39.4730   33.8690   43.3700 C   0  0  0  0  0  0  0  0  0  0  0  0
   39.2230   34.0190   42.3110 H   0  0  0  0  0  0  0  0  0  0  0  0
   38.4450   33.6530   44.1980 N   0  0  0  0  0  0  0  0  0  0  0  0
  1  2  1  0  0  0  0
  2  4  1  0  0  0  0
  2  3  1  0  0  0  0
  5  2  1  0  0  0  0
  5 10  1  0  0  0  0
  6  5  2  0  0  0  0
  7  6  1  0  0  0  0
  7  8  2  0  0  0  0
  8  9  1  0  0  0  0
  9 10  2  0  0  0  0
  9 13  1  0  0  0  0
 11  6  1  0  0  0  0
 12  7  1  0  0  0  0
 15 14  2  6  0  0  0
 15  1  1  0  0  0  0
 15 16  1  0  0  0  0
 16 17  1  0  0  0  0
 18 15  1  0  0  0  0
 19 18  1  0  0  0  0
 20 19  2  0  0  0  0
 20 21  1  0  0  0  0
 22 20  1  0  0  0  0
 23 22  1  0  0  0  0
 24 22  1  0  0  0  0
 24 26  2  0  0  0  0
 25 24  1  0  0  0  0
 26 19  1  0  0  0  0
M  END
>  <minimizedAffinity>
0.936060727

>  <minimizedRMSD>
4.42389154

$$$$
