
 OpenBabel03272510123D

 34 37  0  0  0  0  0  0  0  0999 V2000
   33.6160   28.5400   48.3050 C   0  0  0  0  0  0  0  0  0  0  0  0
   34.4240   28.0370   49.2630 C   0  0  0  0  0  0  0  0  0  0  0  0
   35.5110   28.6850   49.8030 C   0  0  0  0  0  0  0  0  0  0  0  0
   35.8370   29.9400   49.3670 C   0  0  0  0  0  0  0  0  0  0  0  0
   35.0060   30.4640   48.3760 C   0  0  0  0  0  0  0  0  0  0  0  0
   33.9560   29.7910   47.8810 N   0  0  0  0  0  0  0  0  0  0  0  0
   34.2450   27.0520   49.6700 H   0  0  0  0  0  0  0  0  0  0  0  0
   36.1510   28.2690   50.5730 H   0  0  0  0  0  0  0  0  0  0  0  0
   35.2210   31.4640   47.9900 H   0  0  0  0  0  0  0  0  0  0  0  0
   32.1460   26.5200   48.0340 C   0  0  0  0  0  0  0  0  0  0  0  0
   32.4870   27.8600   47.7480 C   0  0  0  0  0  0  0  0  0  0  0  0
   31.6520   28.5170   46.8690 C   0  0  0  0  0  0  0  0  0  0  0  0
   30.5700   27.8800   46.3300 N   0  0  0  0  0  0  0  0  0  0  0  0
   30.3010   26.5990   46.6450 C   0  0  0  0  0  0  0  0  0  0  0  0
   31.0790   25.9140   47.4920 N   0  0  0  0  0  0  0  0  0  0  0  0
   32.7810   25.9780   48.7190 H   0  0  0  0  0  0  0  0  0  0  0  0
   31.8900   29.5500   46.6290 H   0  0  0  0  0  0  0  0  0  0  0  0
   29.4080   26.2760   46.1190 H   0  0  0  0  0  0  0  0  0  0  0  0
   36.8980   30.7330   49.8020 O   0  0  0  0  0  0  0  0  0  0  0  0
   37.6970   31.4260   48.8960 C   0  0  0  0  0  0  0  0  0  0  0  0
   38.2450   32.6100   49.4100 C   0  0  0  0  0  0  0  0  0  0  0  0
   39.0130   33.2030   48.4240 C   0  0  0  0  0  0  0  0  0  0  0  0
   38.9110   32.3830   47.3670 N   0  0  0  0  0  0  0  0  0  0  0  0
   38.1500   31.3490   47.6310 N   0  0  0  0  0  0  0  0  0  0  0  0
   38.1890   33.1280   50.3820 H   0  0  0  0  0  0  0  0  0  0  0  0
   39.6090   34.0910   48.3420 H   0  0  0  0  0  0  0  0  0  0  0  0
   39.5040   32.5070   46.0700 C   0  0  0  0  0  0  0  0  0  0  0  0
   40.7500   32.4700   45.4900 C   0  0  0  0  0  0  0  0  0  0  0  0
   41.5730   32.2970   46.1750 H   0  0  0  0  0  0  0  0  0  0  0  0
   40.5700   32.6700   44.1800 N   0  0  0  0  0  0  0  0  0  0  0  0
   41.4050   32.6770   43.5580 H   0  0  0  0  0  0  0  0  0  0  0  0
   39.2650   32.8320   43.9100 C   0  0  0  0  0  0  0  0  0  0  0  0
   38.8650   33.0110   42.9000 H   0  0  0  0  0  0  0  0  0  0  0  0
   38.5990   32.7320   45.0720 N   0  0  0  0  0  0  0  0  0  0  0  0
  1  2  1  0  0  0  0
  2  7  1  0  0  0  0
  2  3  2  0  0  0  0
  3  8  1  0  0  0  0
  4 19  1  0  0  0  0
  4  3  1  0  0  0  0
  5  4  2  0  0  0  0
  6  1  2  0  0  0  0
  6  5  1  0  0  0  0
  9  5  1  0  0  0  0
 10 16  1  0  0  0  0
 11 10  1  0  0  0  0
 11  1  1  0  0  0  0
 12 11  2  0  0  0  0
 13 14  2  0  0  0  0
 13 12  1  0  0  0  0
 14 15  1  0  0  0  0
 15 10  2  0  0  0  0
 17 12  1  0  0  0  0
 18 14  1  0  0  0  0
 20 21  1  0  0  0  0
 20 19  1  0  0  0  0
 21 25  1  0  0  0  0
 22 21  2  0  0  0  0
 23 24  1  0  0  0  0
 23 22  1  0  0  0  0
 24 20  2  0  0  0  0
 26 22  1  0  0  0  0
 27 23  1  0  0  0  0
 28 27  2  0  0  0  0
 28 29  1  0  0  0  0
 30 28  1  0  0  0  0
 31 30  1  0  0  0  0
 32 30  1  0  0  0  0
 32 34  2  0  0  0  0
 33 32  1  0  0  0  0
 34 27  1  0  0  0  0
M  END
>  <minimizedAffinity>
-5.90258121

>  <minimizedRMSD>
1.33974254

$$$$
