REMARK  Name = 
REMARK  3 active torsions:
REMARK  status: ('A' for Active; 'I' for Inactive)
REMARK    1  A    between atoms: C_1  and  C_7
REMARK    2  A    between atoms: C_5  and  C_10
REMARK    3  A    between atoms: C_10  and  C_20
REMARK                            x       y       z     vdW  Elec       q    Type
REMARK                         _______ _______ _______ _____ _____    ______ ____
ROOT
ATOM      1  C   UNL     1      37.365  31.369  49.210  0.00  0.00    +0.000 A 
ATOM      2  C   UNL     1      37.703  32.662  49.608  0.00  0.00    +0.000 A 
ATOM      3  C   UNL     1      38.585  33.334  48.777  0.00  0.00    +0.000 A 
ATOM      4  N   UNL     1      39.064  32.725  47.652  0.00  0.00    +0.000 NA
ATOM      5  C   UNL     1      38.709  31.457  47.295  0.00  0.00    +0.000 A 
ATOM      6  N   UNL     1      37.838  30.769  48.101  0.00  0.00    +0.000 NA
ATOM      7  H   UNL     1      37.315  33.120  50.495  0.00  0.00    +0.000 HD
ATOM      8  H   UNL     1      38.920  34.324  48.971  0.00  0.00    +0.000 HD
ENDROOT
BRANCH   1   9
ATOM      9  C   UNL     1      36.383  30.614  50.066  0.00  0.00    +0.000 C 
ATOM     10  C   UNL     1      36.275  29.176  50.039  0.00  0.00    +0.000 C 
ATOM     11  C   UNL     1      37.057  29.798  51.173  0.00  0.00    +0.000 C 
ATOM     12  H   UNL     1      35.491  31.209  50.423  0.00  0.00    +0.000 HD
ATOM     13  H   UNL     1      35.338  28.657  50.231  0.00  0.00    +0.000 HD
ATOM     14  H   UNL     1      36.901  28.642  49.276  0.00  0.00    +0.000 HD
ATOM     15  H   UNL     1      38.146  29.762  51.200  0.00  0.00    +0.000 HD
ATOM     16  H   UNL     1      36.506  29.752  52.133  0.00  0.00    +0.000 HD
ENDBRANCH   1   9
BRANCH   5  17
ATOM     17  C   UNL     1      39.188  30.767  46.103  0.00  0.00    +0.000 C 
ATOM     18  H   UNL     1      40.226  31.156  45.899  0.00  0.00    +0.000 HD
ATOM     19  H   UNL     1      39.294  29.703  46.326  0.00  0.00    +0.000 HD
BRANCH  17  20
ATOM     20  C   UNL     1      38.307  30.995  44.914  0.00  0.00    +0.000 A 
ATOM     21  C   UNL     1      38.555  31.554  43.679  0.00  0.00    +0.000 A 
ATOM     22  H   UNL     1      39.527  31.934  43.396  0.00  0.00    +0.000 HD
ATOM     23  N   UNL     1      37.379  31.494  43.011  0.00  0.00    +0.000 N 
ATOM     24  H   UNL     1      37.264  31.852  42.029  0.00  0.00    +0.000 HD
ATOM     25  C   UNL     1      36.425  30.933  43.762  0.00  0.00    +0.000 A 
ATOM     26  H   UNL     1      35.401  30.754  43.500  0.00  0.00    +0.000 HD
ATOM     27  N   UNL     1      37.009  30.623  44.948  0.00  0.00    +0.000 NA
ENDBRANCH  17  20
ENDBRANCH   5  17
TORSDOF 3
