REMARK  Name = 
REMARK  3 active torsions:
REMARK  status: ('A' for Active; 'I' for Inactive)
REMARK    1  A    between atoms: C_3  and  C_12
REMARK    2  A    between atoms: C_17  and  O_18
REMARK    3  A    between atoms: O_18  and  C_25
REMARK                            x       y       z     vdW  Elec       q    Type
REMARK                         _______ _______ _______ _____ _____    ______ ____
ROOT
ATOM      1 CL   UNL     1      38.423  33.304  49.691  0.00  0.00    +0.000 Cl
ATOM      2  C   UNL     1      38.681  32.426  48.215  0.00  0.00    +0.000 A 
ATOM      3  C   UNL     1      38.154  31.159  48.058  0.00  0.00    +0.000 A 
ATOM      4  C   UNL     1      38.394  30.505  46.855  0.00  0.00    +0.000 A 
ATOM      5  C   UNL     1      39.131  31.099  45.855  0.00  0.00    +0.000 A 
ATOM      6  C   UNL     1      39.643  32.366  46.047  0.00  0.00    +0.000 A 
ATOM      7 CL   UNL     1      40.562  33.039  44.731  0.00  0.00    +0.000 Cl
ATOM      8  C   UNL     1      39.421  33.042  47.233  0.00  0.00    +0.000 A 
ATOM      9  H   UNL     1      37.964  29.515  46.769  0.00  0.00    +0.000 HD
ATOM     10  H   UNL     1      39.291  30.557  44.943  0.00  0.00    +0.000 HD
ENDROOT
BRANCH   3  13
ATOM     11  C   UNL     1      37.262  29.658  51.408  0.00  0.00    +0.000 A 
ATOM     12  C   UNL     1      38.000  30.194  50.350  0.00  0.00    +0.000 A 
ATOM     13  C   UNL     1      37.392  30.605  49.152  0.00  0.00    +0.000 A 
ATOM     14  N   UNL     1      36.064  30.431  49.134  0.00  0.00    +0.000 NA
ATOM     15  C   UNL     1      35.345  29.920  50.138  0.00  0.00    +0.000 A 
ATOM     16  N   UNL     1      35.945  29.538  51.265  0.00  0.00    +0.000 NA
ATOM     17  C   UNL     1      33.633  28.616  49.206  0.00  0.00    +0.000 C 
ATOM     18  O   UNL     1      34.407  27.627  48.923  0.00  0.00    +0.000 OA
ATOM     19  N   UNL     1      33.957  29.860  49.826  0.00  0.00    +0.000 N 
ATOM     20  H   UNL     1      37.768  29.353  52.316  0.00  0.00    +0.000 HD
ATOM     21  H   UNL     1      39.068  30.303  50.439  0.00  0.00    +0.000 HD
ATOM     22  H   UNL     1      32.670  28.253  48.847  0.00  0.00    +0.000 HD
ATOM     23  H   UNL     1      33.166  30.494  49.947  0.00  0.00    +0.000 HD
ENDBRANCH   3  13
BRANCH   8  24
ATOM     24  O   UNL     1      39.955  34.323  47.390  0.00  0.00    +0.000 OA
BRANCH  24  25
ATOM     25  C   UNL     1      39.270  35.461  47.032  0.00  0.00    +0.000 A 
ATOM     26  C   UNL     1      38.460  36.059  48.003  0.00  0.00    +0.000 A 
ATOM     27  H   UNL     1      38.248  35.800  49.029  0.00  0.00    +0.000 HD
ATOM     28  N   UNL     1      37.875  37.138  47.496  0.00  0.00    +0.000 N 
ATOM     29  H   UNL     1      37.209  37.874  47.837  0.00  0.00    +0.000 HD
ATOM     30  C   UNL     1      38.288  37.262  46.206  0.00  0.00    +0.000 A 
ATOM     31  H   UNL     1      38.044  38.012  45.438  0.00  0.00    +0.000 HD
ATOM     32  N   UNL     1      39.114  36.255  45.957  0.00  0.00    +0.000 NA
ENDBRANCH  24  25
ENDBRANCH   8  24
TORSDOF 3
