
 OpenBabel03272505433D

 23 24  0  0  0  0  0  0  0  0999 V2000
   32.4640   28.0180   49.0450 O   0  0  0  0  0  0  0  0  0  0  0  0
   33.8400   28.3440   48.4820 P   0  0  2  0  0  0  0  0  0  0  0  0
   34.0720   27.2700   47.2010 O   0  0  0  0  0  0  0  0  0  0  0  0
   33.6820   26.3810   47.4390 H   0  0  0  0  0  0  0  0  0  0  0  0
   34.9790   28.1200   49.7240 O   0  0  0  0  0  0  0  0  0  0  0  0
   37.3320   30.3440   51.3920 C   0  0  0  0  0  0  0  0  0  0  0  0
   38.0590   30.8300   50.2720 C   0  0  0  0  0  0  0  0  0  0  0  0
   37.6810   30.3490   48.9970 C   0  0  0  0  0  0  0  0  0  0  0  0
   36.6560   29.4600   48.9280 N   0  0  0  0  0  0  0  0  0  0  0  0
   35.9900   29.0230   50.0150 C   0  0  0  0  0  0  0  0  0  0  0  0
   36.3220   29.4610   51.2510 N   0  0  0  0  0  0  0  0  0  0  0  0
   37.5810   30.6810   52.3950 H   0  0  0  0  0  0  0  0  0  0  0  0
   38.8670   31.5400   50.4070 H   0  0  0  0  0  0  0  0  0  0  0  0
   38.2130   30.6980   48.1230 H   0  0  0  0  0  0  0  0  0  0  0  0
   33.7740   29.9000   47.8860 O   0  0  0  0  0  0  0  0  0  0  0  0
   33.5770   30.1720   46.5380 C   0  0  0  0  0  0  0  0  0  0  0  0
   32.4830   30.7160   45.9010 C   0  0  0  0  0  0  0  0  0  0  0  0
   31.5700   31.0300   46.3770 H   0  0  0  0  0  0  0  0  0  0  0  0
   32.8140   30.7590   44.6130 N   0  0  0  0  0  0  0  0  0  0  0  0
   32.2330   31.1140   43.8130 H   0  0  0  0  0  0  0  0  0  0  0  0
   34.0640   30.2710   44.3860 C   0  0  0  0  0  0  0  0  0  0  0  0
   34.5990   30.1810   43.4500 H   0  0  0  0  0  0  0  0  0  0  0  0
   34.5320   29.9040   45.6090 N   0  0  0  0  0  0  0  0  0  0  0  0
  2  1  2  1  0  0  0
  2  5  1  0  0  0  0
  3  4  1  0  0  0  0
  3  2  1  0  0  0  0
  5 10  1  0  0  0  0
  6 12  1  0  0  0  0
  7 13  1  0  0  0  0
  7  6  2  0  0  0  0
  8  7  1  0  0  0  0
  9  8  2  0  0  0  0
  9 10  1  0  0  0  0
 10 11  2  0  0  0  0
 11  6  1  0  0  0  0
 14  8  1  0  0  0  0
 15  2  1  0  0  0  0
 16 15  1  0  0  0  0
 17 18  1  0  0  0  0
 17 16  2  0  0  0  0
 19 17  1  0  0  0  0
 20 19  1  0  0  0  0
 21 19  1  0  0  0  0
 21 23  2  0  0  0  0
 22 21  1  0  0  0  0
 23 16  1  0  0  0  0
M  END
>  <minimizedAffinity>
-4.16628504

>  <minimizedRMSD>
1.01788282

$$$$
