
     RDKit          3D

 26 27  0  0  0  0  0  0  0  0999 V2000
   36.0590   30.3095   50.0207 C   0  0  0  0  0  0  0  0  0  0  0  0
   35.1196   29.6025   49.1145 C   0  0  0  0  0  0  0  0  0  0  0  0
   34.6733   30.2945   47.9928 C   0  0  0  0  0  0  0  0  0  0  0  0
   33.7838   29.6355   47.1276 C   0  0  0  0  0  0  0  0  0  0  0  0
   33.4177   28.3674   47.4419 N   0  0  0  0  0  0  0  0  0  0  0  0
   33.8612   27.7216   48.5284 C   0  0  0  0  0  0  0  0  0  0  0  0
   34.7082   28.3422   49.3567 N   0  0  0  0  0  0  0  0  0  0  0  0
   36.3386   31.5894   49.6193 O   0  0  0  0  0  0  0  0  0  0  0  0
   38.3946   31.1707   48.0385 O   0  0  0  0  0  0  0  0  0  0  0  0
   38.0111   31.7069   49.3925 P   0  0  2  0  0  0  0  0  0  0  0  0
   38.8118   30.7499   50.5620 O   0  0  0  0  0  0  0  0  0  0  0  0
   38.5241   33.3170   49.5162 O   0  0  0  0  0  0  0  0  0  0  0  0
   35.6457   30.3495   51.0714 H   0  0  0  0  0  0  0  0  0  0  0  0
   36.9493   29.6482   50.1006 H   0  0  0  0  0  0  0  0  0  0  0  0
   34.9540   31.3070   47.7247 H   0  0  0  0  0  0  0  0  0  0  0  0
   33.3986   30.1122   46.2405 H   0  0  0  0  0  0  0  0  0  0  0  0
   33.5661   26.7096   48.7748 H   0  0  0  0  0  0  0  0  0  0  0  0
   38.7259   31.2430   51.4163 H   0  0  0  0  0  0  0  0  0  0  0  0
   38.1785   34.0733   50.6359 C   0  0  0  0  0  0  0  0  0  0  0  0
   37.0095   33.8519   51.3375 C   0  0  0  0  0  0  0  0  0  0  0  0
   36.1892   33.1347   51.2061 H   0  0  0  0  0  0  0  0  0  0  0  0
   36.9212   34.7217   52.3746 N   0  0  0  0  0  0  0  0  0  0  0  0
   36.2268   34.8977   53.1327 H   0  0  0  0  0  0  0  0  0  0  0  0
   38.0393   35.4909   52.3225 C   0  0  0  0  0  0  0  0  0  0  0  0
   38.4470   36.3211   52.9137 H   0  0  0  0  0  0  0  0  0  0  0  0
   38.7738   35.0879   51.2799 N   0  0  0  0  0  0  0  0  0  0  0  0
  2  7  1  0
  2  1  1  0
  3  2  2  0
  4  5  2  0
  4  3  1  0
  5  6  1  0
  6  7  2  0
  8  1  1  0
  9 10  2  0
 10 12  1  6
 10  8  1  0
 10 11  1  0
  1 13  1  0
  1 14  1  0
  3 15  1  0
  4 16  1  0
  6 17  1  0
 11 18  1  0
 19 20  2  0
 20 21  1  0
 20 22  1  0
 22 23  1  0
 22 24  1  0
 24 25  1  0
 24 26  2  0
 26 19  1  0
 12 19  1  0
M  ISO  8  13   8  14   8  15  14  16  14  17  14  18   3  21  15  23   5
M  ISO  1  25  14
M  END
>  <DihAtoms>  (1) 
9,11,18,19

>  <DihDeg>  (1) 
179.99980466320108

$$$$
