
 OpenBabel03262521063D

 35 37  0  0  0  0  0  0  0  0999 V2000
   38.2110   26.8940   33.5480 Br  0  0  0  0  0  0  0  0  0  0  0  0
   37.0850   25.7460   32.5740 C   0  0  0  0  0  0  0  0  0  0  0  0
   36.1870   26.3570   31.7560 C   0  0  0  0  0  0  0  0  0  0  0  0
   35.3030   25.5790   30.9890 C   0  0  0  0  0  0  0  0  0  0  0  0
   35.3650   24.1960   31.0820 C   0  0  0  0  0  0  0  0  0  0  0  0
   36.2870   23.6570   31.9200 C   0  0  0  0  0  0  0  0  0  0  0  0
   37.1580   24.4000   32.6770 C   0  0  0  0  0  0  0  0  0  0  0  0
   34.5650   25.9960   30.3170 H   0  0  0  0  0  0  0  0  0  0  0  0
   34.6870   23.5740   30.4950 H   0  0  0  0  0  0  0  0  0  0  0  0
   36.3280   22.5760   31.9860 H   0  0  0  0  0  0  0  0  0  0  0  0
   35.1490   28.6080   32.3140 C   0  0  0  0  0  0  0  0  0  0  0  0
   35.9910   27.8050   31.5400 C   0  0  0  0  0  0  0  0  0  0  0  0
   36.7030   28.4240   30.4800 C   0  0  0  0  0  0  0  0  0  0  0  0
   36.5070   29.7670   30.2960 N   0  0  0  0  0  0  0  0  0  0  0  0
   35.6880   30.4810   31.0700 C   0  0  0  0  0  0  0  0  0  0  0  0
   35.0090   29.9180   32.0720 N   0  0  0  0  0  0  0  0  0  0  0  0
   34.6130   28.1100   33.1210 H   0  0  0  0  0  0  0  0  0  0  0  0
   37.3490   27.8010   29.8900 H   0  0  0  0  0  0  0  0  0  0  0  0
   35.6770   31.5190   30.7580 H   0  0  0  0  0  0  0  0  0  0  0  0
   38.1230   23.8450   33.5540 N   0  0  0  0  0  0  0  0  0  0  0  0
   38.7220   24.6240   33.9420 H   0  0  0  0  0  0  0  0  0  0  0  0
   38.4600   22.2550   34.0540 S   0  0  0  0  0  0  0  0  0  0  0  0
   38.9020   21.4020   32.9140 O   0  0  0  0  0  0  0  0  0  0  0  0
   39.2320   21.7020   32.0330 H   0  0  0  0  0  0  0  0  0  0  0  0
   37.2100   21.6340   34.6430 O   0  0  0  0  0  0  0  0  0  0  0  0
   36.8820   20.7170   34.4690 H   0  0  0  0  0  0  0  0  0  0  0  0
   39.6860   22.3100   35.2320 O   0  0  0  0  0  0  0  0  0  0  0  0
   39.2820   22.6690   36.5130 C   0  0  0  0  0  0  0  0  0  0  0  0
   40.0710   22.5400   37.6620 C   0  0  0  0  0  0  0  0  0  0  0  0
   41.0780   22.1620   37.7740 H   0  0  0  0  0  0  0  0  0  0  0  0
   39.2740   23.0090   38.6640 N   0  0  0  0  0  0  0  0  0  0  0  0
   39.6150   23.0330   39.6690 H   0  0  0  0  0  0  0  0  0  0  0  0
   38.0730   23.4080   38.2060 C   0  0  0  0  0  0  0  0  0  0  0  0
   37.2940   23.8130   38.8400 H   0  0  0  0  0  0  0  0  0  0  0  0
   38.0950   23.1900   36.8700 N   0  0  0  0  0  0  0  0  0  0  0  0
  2  7  1  0  0  0  0
  2  1  1  0  0  0  0
  3  2  2  0  0  0  0
  4  5  2  0  0  0  0
  4  3  1  0  0  0  0
  5  6  1  0  0  0  0
  6 10  1  0  0  0  0
  6  7  2  0  0  0  0
  7 20  1  0  0  0  0
  8  4  1  0  0  0  0
  9  5  1  0  0  0  0
 11 17  1  0  0  0  0
 12  3  1  0  0  0  0
 12 11  2  0  0  0  0
 13 12  1  0  0  0  0
 14 13  2  0  0  0  0
 14 15  1  0  0  0  0
 15 16  2  0  0  0  0
 16 11  1  0  0  0  0
 18 13  1  0  0  0  0
 19 15  1  0  0  0  0
 20 21  1  0  0  0  0
 20 22  1  0  0  0  0
 22 25  1  0  0  0  0
 22 27  1  0  0  0  0
 23 22  1  0  0  0  0
 24 23  1  0  0  0  0
 26 25  1  0  0  0  0
 27 28  1  0  0  0  0
 28 35  1  0  0  0  0
 28 29  2  0  0  0  0
 29 30  1  0  0  0  0
 29 31  1  0  0  0  0
 31 32  1  0  0  0  0
 33 31  1  0  0  0  0
 33 34  1  0  0  0  0
 35 33  2  0  0  0  0
M  END
>  <minimizedAffinity>
-5.67114973

$$$$

 OpenBabel03262521063D

 35 37  0  0  0  0  0  0  0  0999 V2000
   38.5120   21.8320   33.7670 Br  0  0  0  0  0  0  0  0  0  0  0  0
   37.3550   22.9340   32.7760 C   0  0  0  0  0  0  0  0  0  0  0  0
   36.4340   22.2860   32.0140 C   0  0  0  0  0  0  0  0  0  0  0  0
   35.5260   23.0280   31.2390 C   0  0  0  0  0  0  0  0  0  0  0  0
   35.5890   24.4140   31.2670 C   0  0  0  0  0  0  0  0  0  0  0  0
   36.5350   24.9900   32.0520 C   0  0  0  0  0  0  0  0  0  0  0  0
   37.4290   24.2840   32.8160 C   0  0  0  0  0  0  0  0  0  0  0  0
   34.7690   22.5810   30.6100 H   0  0  0  0  0  0  0  0  0  0  0  0
   34.8930   25.0080   30.6710 H   0  0  0  0  0  0  0  0  0  0  0  0
   36.5750   26.0740   32.0680 H   0  0  0  0  0  0  0  0  0  0  0  0
   36.8140   20.0510   30.8670 C   0  0  0  0  0  0  0  0  0  0  0  0
   36.2340   20.8290   31.8710 C   0  0  0  0  0  0  0  0  0  0  0  0
   35.3990   20.1760   32.8150 C   0  0  0  0  0  0  0  0  0  0  0  0
   35.2250   18.8250   32.6650 N   0  0  0  0  0  0  0  0  0  0  0  0
   35.8070   18.1350   31.6820 C   0  0  0  0  0  0  0  0  0  0  0  0
   36.5970   18.7320   30.7850 N   0  0  0  0  0  0  0  0  0  0  0  0
   37.4510   20.5760   30.1550 H   0  0  0  0  0  0  0  0  0  0  0  0
   34.9560   20.7800   33.5840 H   0  0  0  0  0  0  0  0  0  0  0  0
   35.5420   17.0860   31.7430 H   0  0  0  0  0  0  0  0  0  0  0  0
   38.4190   24.8780   33.6370 N   0  0  0  0  0  0  0  0  0  0  0  0
   39.3730   24.5990   33.2800 H   0  0  0  0  0  0  0  0  0  0  0  0
   38.3420   25.8910   35.0000 S   0  0  0  0  0  0  0  0  0  0  0  0
   37.5780   27.1390   34.7160 O   0  0  0  0  0  0  0  0  0  0  0  0
   36.9550   27.3040   33.9660 H   0  0  0  0  0  0  0  0  0  0  0  0
   39.7430   26.2880   35.4160 O   0  0  0  0  0  0  0  0  0  0  0  0
   40.0330   27.1950   35.6830 H   0  0  0  0  0  0  0  0  0  0  0  0
   37.5860   25.0370   36.2630 O   0  0  0  0  0  0  0  0  0  0  0  0
   38.3890   24.1360   36.9520 C   0  0  0  0  0  0  0  0  0  0  0  0
   38.1120   23.6400   38.2310 C   0  0  0  0  0  0  0  0  0  0  0  0
   37.2790   23.8460   38.8910 H   0  0  0  0  0  0  0  0  0  0  0  0
   39.1580   22.8050   38.4940 N   0  0  0  0  0  0  0  0  0  0  0  0
   39.2180   22.2760   39.4140 H   0  0  0  0  0  0  0  0  0  0  0  0
   40.0360   22.7610   37.4770 C   0  0  0  0  0  0  0  0  0  0  0  0
   40.9350   22.1580   37.4850 H   0  0  0  0  0  0  0  0  0  0  0  0
   39.5440   23.5930   36.5280 N   0  0  0  0  0  0  0  0  0  0  0  0
  2  7  1  0  0  0  0
  2  1  1  0  0  0  0
  3  2  2  0  0  0  0
  4  5  2  0  0  0  0
  4  3  1  0  0  0  0
  5  6  1  0  0  0  0
  6 10  1  0  0  0  0
  6  7  2  0  0  0  0
  7 20  1  0  0  0  0
  8  4  1  0  0  0  0
  9  5  1  0  0  0  0
 11 12  1  0  0  0  0
 12  3  1  0  0  0  0
 12 13  2  0  0  0  0
 13 18  1  0  0  0  0
 14 13  1  0  0  0  0
 15 19  1  0  0  0  0
 15 14  2  0  0  0  0
 16 11  2  0  0  0  0
 16 15  1  0  0  0  0
 17 11  1  0  0  0  0
 20 22  1  0  0  0  0
 21 20  1  0  0  0  0
 22 25  1  0  0  0  0
 22 27  1  0  0  0  0
 23 22  1  0  0  0  0
 24 23  1  0  0  0  0
 25 26  1  0  0  0  0
 27 28  1  0  0  0  0
 28 29  2  0  0  0  0
 29 31  1  0  0  0  0
 29 30  1  0  0  0  0
 31 32  1  0  0  0  0
 33 34  1  0  0  0  0
 33 31  1  0  0  0  0
 35 28  1  0  0  0  0
 35 33  2  0  0  0  0
M  END
>  <minimizedAffinity>
-5.63555717

$$$$

 OpenBabel03262521063D

 35 37  0  0  0  0  0  0  0  0999 V2000
   38.0100   23.4980   33.3290 Br  0  0  0  0  0  0  0  0  0  0  0  0
   37.9910   25.1660   34.1970 C   0  0  0  0  0  0  0  0  0  0  0  0
   38.7330   25.2440   35.3350 C   0  0  0  0  0  0  0  0  0  0  0  0
   38.7790   26.4520   36.0520 C   0  0  0  0  0  0  0  0  0  0  0  0
   38.0650   27.5450   35.5830 C   0  0  0  0  0  0  0  0  0  0  0  0
   37.3480   27.3910   34.4400 C   0  0  0  0  0  0  0  0  0  0  0  0
   37.2890   26.2210   33.7260 C   0  0  0  0  0  0  0  0  0  0  0  0
   39.3470   26.5880   36.9620 H   0  0  0  0  0  0  0  0  0  0  0  0
   38.0880   28.4920   36.1260 H   0  0  0  0  0  0  0  0  0  0  0  0
   36.7930   28.2510   34.0810 H   0  0  0  0  0  0  0  0  0  0  0  0
   39.0980   23.3650   37.0050 C   0  0  0  0  0  0  0  0  0  0  0  0
   39.5460   24.1850   35.9660 C   0  0  0  0  0  0  0  0  0  0  0  0
   40.8670   23.9850   35.4890 C   0  0  0  0  0  0  0  0  0  0  0  0
   41.6050   22.9990   36.0890 N   0  0  0  0  0  0  0  0  0  0  0  0
   41.1200   22.2470   37.0790 C   0  0  0  0  0  0  0  0  0  0  0  0
   39.8800   22.4190   37.5410 N   0  0  0  0  0  0  0  0  0  0  0  0
   38.0800   23.5380   37.3530 H   0  0  0  0  0  0  0  0  0  0  0  0
   41.2050   24.6190   34.6910 H   0  0  0  0  0  0  0  0  0  0  0  0
   41.8610   21.5280   37.4100 H   0  0  0  0  0  0  0  0  0  0  0  0
   36.5430   26.0530   32.5330 N   0  0  0  0  0  0  0  0  0  0  0  0
   35.6260   25.5840   32.7660 H   0  0  0  0  0  0  0  0  0  0  0  0
   36.8480   26.4460   30.9080 S   0  0  0  0  0  0  0  0  0  0  0  0
   35.6020   26.4130   30.0910 O   0  0  0  0  0  0  0  0  0  0  0  0
   34.6690   26.4330   30.4170 H   0  0  0  0  0  0  0  0  0  0  0  0
   37.8180   25.4440   30.3170 O   0  0  0  0  0  0  0  0  0  0  0  0
   37.7450   25.0220   29.4260 H   0  0  0  0  0  0  0  0  0  0  0  0
   37.5240   28.0070   30.8500 O   0  0  0  0  0  0  0  0  0  0  0  0
   36.6190   29.0620   30.8710 C   0  0  0  0  0  0  0  0  0  0  0  0
   36.6910   30.1870   30.0420 C   0  0  0  0  0  0  0  0  0  0  0  0
   37.4120   30.4420   29.2770 H   0  0  0  0  0  0  0  0  0  0  0  0
   35.6140   30.9380   30.4120 N   0  0  0  0  0  0  0  0  0  0  0  0
   35.4090   31.8690   29.9440 H   0  0  0  0  0  0  0  0  0  0  0  0
   34.9060   30.3520   31.3950 C   0  0  0  0  0  0  0  0  0  0  0  0
   34.0140   30.7840   31.8310 H   0  0  0  0  0  0  0  0  0  0  0  0
   35.5440   29.1890   31.6670 N   0  0  0  0  0  0  0  0  0  0  0  0
  1  2  1  0  0  0  0
  2  3  1  0  0  0  0
  3 12  1  0  0  0  0
  3  4  2  0  0  0  0
  4  8  1  0  0  0  0
  5  4  1  0  0  0  0
  5  9  1  0  0  0  0
  6  5  2  0  0  0  0
  7  2  2  0  0  0  0
  7  6  1  0  0  0  0
 10  6  1  0  0  0  0
 11 17  1  0  0  0  0
 11 16  1  0  0  0  0
 12 11  2  0  0  0  0
 13 12  1  0  0  0  0
 13 14  2  0  0  0  0
 14 15  1  0  0  0  0
 15 19  1  0  0  0  0
 15 16  2  0  0  0  0
 18 13  1  0  0  0  0
 20 21  1  0  0  0  0
 20  7  1  0  0  0  0
 22 20  1  0  0  0  0
 23 24  1  0  0  0  0
 23 22  1  0  0  0  0
 25 22  1  0  0  0  0
 26 25  1  0  0  0  0
 27 28  1  0  0  0  0
 27 22  1  0  0  0  0
 28 35  1  0  0  0  0
 29 31  1  0  0  0  0
 29 28  2  0  0  0  0
 30 29  1  0  0  0  0
 31 33  1  0  0  0  0
 32 31  1  0  0  0  0
 33 35  2  0  0  0  0
 33 34  1  0  0  0  0
M  END
>  <minimizedAffinity>
-5.44936085

$$$$

 OpenBabel03262521063D

 35 37  0  0  0  0  0  0  0  0999 V2000
   36.7100   25.7460   31.9250 Br  0  0  0  0  0  0  0  0  0  0  0  0
   37.4900   26.2430   33.5620 C   0  0  0  0  0  0  0  0  0  0  0  0
   37.1530   27.4780   34.0230 C   0  0  0  0  0  0  0  0  0  0  0  0
   37.6870   27.9360   35.2390 C   0  0  0  0  0  0  0  0  0  0  0  0
   38.5510   27.1150   35.9490 C   0  0  0  0  0  0  0  0  0  0  0  0
   38.8410   25.8960   35.4270 C   0  0  0  0  0  0  0  0  0  0  0  0
   38.3300   25.4310   34.2410 C   0  0  0  0  0  0  0  0  0  0  0  0
   37.4630   28.9040   35.6660 H   0  0  0  0  0  0  0  0  0  0  0  0
   38.9770   27.4530   36.8970 H   0  0  0  0  0  0  0  0  0  0  0  0
   39.5180   25.2620   35.9890 H   0  0  0  0  0  0  0  0  0  0  0  0
   36.4300   28.9880   32.1110 C   0  0  0  0  0  0  0  0  0  0  0  0
   36.2530   28.4680   33.3960 C   0  0  0  0  0  0  0  0  0  0  0  0
   35.1370   28.9230   34.1450 C   0  0  0  0  0  0  0  0  0  0  0  0
   34.3160   29.8430   33.5470 N   0  0  0  0  0  0  0  0  0  0  0  0
   34.5380   30.3020   32.3140 C   0  0  0  0  0  0  0  0  0  0  0  0
   35.5820   29.8860   31.5930 N   0  0  0  0  0  0  0  0  0  0  0  0
   37.2940   28.6230   31.5570 H   0  0  0  0  0  0  0  0  0  0  0  0
   35.0070   28.5200   35.1320 H   0  0  0  0  0  0  0  0  0  0  0  0
   33.7740   31.0170   32.0300 H   0  0  0  0  0  0  0  0  0  0  0  0
   38.6290   24.1600   33.6900 N   0  0  0  0  0  0  0  0  0  0  0  0
   39.3980   24.2700   32.9740 H   0  0  0  0  0  0  0  0  0  0  0  0
   38.0070   22.6020   33.9620 S   0  0  0  0  0  0  0  0  0  0  0  0
   39.0320   21.5490   33.7140 O   0  0  0  0  0  0  0  0  0  0  0  0
   40.0120   21.6660   33.6620 H   0  0  0  0  0  0  0  0  0  0  0  0
   36.8450   22.3490   33.0220 O   0  0  0  0  0  0  0  0  0  0  0  0
   36.6820   21.5170   32.5130 H   0  0  0  0  0  0  0  0  0  0  0  0
   37.4740   22.5090   35.5750 O   0  0  0  0  0  0  0  0  0  0  0  0
   38.4650   22.5860   36.5470 C   0  0  0  0  0  0  0  0  0  0  0  0
   38.2530   22.9990   37.8680 C   0  0  0  0  0  0  0  0  0  0  0  0
   37.3430   23.3180   38.3590 H   0  0  0  0  0  0  0  0  0  0  0  0
   39.4880   22.9160   38.4410 N   0  0  0  0  0  0  0  0  0  0  0  0
   39.6360   23.1730   39.4610 H   0  0  0  0  0  0  0  0  0  0  0  0
   40.4190   22.4880   37.5700 C   0  0  0  0  0  0  0  0  0  0  0  0
   41.4630   22.3530   37.8250 H   0  0  0  0  0  0  0  0  0  0  0  0
   39.7670   22.2880   36.4000 N   0  0  0  0  0  0  0  0  0  0  0  0
  1  2  1  0  0  0  0
  2  3  2  0  0  0  0
  2  7  1  0  0  0  0
  3  4  1  0  0  0  0
  4  8  1  0  0  0  0
  4  5  2  0  0  0  0
  5  9  1  0  0  0  0
  6  5  1  0  0  0  0
  6 10  1  0  0  0  0
  7  6  2  0  0  0  0
 11 12  1  0  0  0  0
 12  3  1  0  0  0  0
 12 13  2  0  0  0  0
 13 18  1  0  0  0  0
 14 13  1  0  0  0  0
 15 14  2  0  0  0  0
 16 11  2  0  0  0  0
 16 15  1  0  0  0  0
 17 11  1  0  0  0  0
 19 15  1  0  0  0  0
 20 22  1  0  0  0  0
 20  7  1  0  0  0  0
 21 20  1  0  0  0  0
 22 27  1  0  0  0  0
 23 22  1  0  0  0  0
 24 23  1  0  0  0  0
 25 22  1  0  0  0  0
 26 25  1  0  0  0  0
 27 28  1  0  0  0  0
 28 29  2  0  0  0  0
 29 30  1  0  0  0  0
 29 31  1  0  0  0  0
 31 32  1  0  0  0  0
 33 34  1  0  0  0  0
 33 31  1  0  0  0  0
 35 28  1  0  0  0  0
 35 33  2  0  0  0  0
M  END
>  <minimizedAffinity>
-5.43848705

$$$$

 OpenBabel03262521063D

 35 37  0  0  0  0  0  0  0  0999 V2000
   35.7740   29.3330   34.4810 Br  0  0  0  0  0  0  0  0  0  0  0  0
   36.4920   28.3990   33.0160 C   0  0  0  0  0  0  0  0  0  0  0  0
   36.3540   29.0060   31.8070 C   0  0  0  0  0  0  0  0  0  0  0  0
   36.8600   28.3820   30.6540 C   0  0  0  0  0  0  0  0  0  0  0  0
   37.4930   27.1530   30.7730 C   0  0  0  0  0  0  0  0  0  0  0  0
   37.5930   26.6090   32.0130 C   0  0  0  0  0  0  0  0  0  0  0  0
   37.1050   27.2020   33.1500 C   0  0  0  0  0  0  0  0  0  0  0  0
   36.7870   28.8060   29.6620 H   0  0  0  0  0  0  0  0  0  0  0  0
   37.8920   26.6520   29.8890 H   0  0  0  0  0  0  0  0  0  0  0  0
   38.0890   25.6480   32.0960 H   0  0  0  0  0  0  0  0  0  0  0  0
   34.3330   30.4920   31.4020 C   0  0  0  0  0  0  0  0  0  0  0  0
   35.7130   30.3030   31.5080 C   0  0  0  0  0  0  0  0  0  0  0  0
   36.5510   31.4320   31.3140 C   0  0  0  0  0  0  0  0  0  0  0  0
   35.9380   32.6260   31.0370 N   0  0  0  0  0  0  0  0  0  0  0  0
   34.6120   32.7420   30.9490 C   0  0  0  0  0  0  0  0  0  0  0  0
   33.8060   31.6920   31.1280 N   0  0  0  0  0  0  0  0  0  0  0  0
   33.7110   29.6110   31.5550 H   0  0  0  0  0  0  0  0  0  0  0  0
   37.6110   31.2800   31.3960 H   0  0  0  0  0  0  0  0  0  0  0  0
   34.3330   33.7660   30.7240 H   0  0  0  0  0  0  0  0  0  0  0  0
   37.2060   26.6400   34.4470 N   0  0  0  0  0  0  0  0  0  0  0  0
   36.2880   26.1780   34.6920 H   0  0  0  0  0  0  0  0  0  0  0  0
   38.4580   26.5850   35.5950 S   0  0  0  0  0  0  0  0  0  0  0  0
   38.6390   27.8980   36.2750 O   0  0  0  0  0  0  0  0  0  0  0  0
   38.0000   28.6510   36.3070 H   0  0  0  0  0  0  0  0  0  0  0  0
   39.7620   26.2350   34.9050 O   0  0  0  0  0  0  0  0  0  0  0  0
   40.6370   26.6650   35.0690 H   0  0  0  0  0  0  0  0  0  0  0  0
   38.0780   25.3930   36.7490 O   0  0  0  0  0  0  0  0  0  0  0  0
   38.3200   24.0780   36.3660 C   0  0  0  0  0  0  0  0  0  0  0  0
   38.7920   23.0750   37.2200 C   0  0  0  0  0  0  0  0  0  0  0  0
   39.0470   23.1210   38.2700 H   0  0  0  0  0  0  0  0  0  0  0  0
   38.8740   21.9740   36.4200 N   0  0  0  0  0  0  0  0  0  0  0  0
   39.2100   21.0420   36.8050 H   0  0  0  0  0  0  0  0  0  0  0  0
   38.4880   22.2370   35.1590 C   0  0  0  0  0  0  0  0  0  0  0  0
   38.4780   21.4980   34.3680 H   0  0  0  0  0  0  0  0  0  0  0  0
   38.1470   23.5480   35.1430 N   0  0  0  0  0  0  0  0  0  0  0  0
  2  7  1  0  0  0  0
  2  1  1  0  0  0  0
  3  2  2  0  0  0  0
  4  5  2  0  0  0  0
  4  3  1  0  0  0  0
  5  6  1  0  0  0  0
  6 10  1  0  0  0  0
  6  7  2  0  0  0  0
  7 20  1  0  0  0  0
  8  4  1  0  0  0  0
  9  5  1  0  0  0  0
 11 12  1  0  0  0  0
 11 17  1  0  0  0  0
 12  3  1  0  0  0  0
 13 18  1  0  0  0  0
 13 12  2  0  0  0  0
 14 13  1  0  0  0  0
 15 14  2  0  0  0  0
 15 16  1  0  0  0  0
 16 11  2  0  0  0  0
 19 15  1  0  0  0  0
 20 21  1  0  0  0  0
 20 22  1  0  0  0  0
 22 23  1  0  0  0  0
 22 27  1  0  0  0  0
 23 24  1  0  0  0  0
 25 26  1  0  0  0  0
 25 22  1  0  0  0  0
 28 27  1  0  0  0  0
 28 29  2  0  0  0  0
 29 30  1  0  0  0  0
 31 32  1  0  0  0  0
 31 29  1  0  0  0  0
 33 31  1  0  0  0  0
 34 33  1  0  0  0  0
 35 33  2  0  0  0  0
 35 28  1  0  0  0  0
M  END
>  <minimizedAffinity>
-5.26869059

$$$$

 OpenBabel03262521063D

 35 37  0  0  0  0  0  0  0  0999 V2000
   36.8720   24.9770   32.2990 Br  0  0  0  0  0  0  0  0  0  0  0  0
   37.4840   25.7770   33.8860 C   0  0  0  0  0  0  0  0  0  0  0  0
   37.3650   27.1300   33.9460 C   0  0  0  0  0  0  0  0  0  0  0  0
   37.7960   27.8160   35.0950 C   0  0  0  0  0  0  0  0  0  0  0  0
   38.3370   27.0950   36.1490 C   0  0  0  0  0  0  0  0  0  0  0  0
   38.4230   25.7460   36.0170 C   0  0  0  0  0  0  0  0  0  0  0  0
   38.0080   25.0590   34.9050 C   0  0  0  0  0  0  0  0  0  0  0  0
   37.7320   28.8890   35.2120 H   0  0  0  0  0  0  0  0  0  0  0  0
   38.6780   27.6090   37.0500 H   0  0  0  0  0  0  0  0  0  0  0  0
   38.8470   25.1910   36.8470 H   0  0  0  0  0  0  0  0  0  0  0  0
   37.4570   28.3480   31.7180 C   0  0  0  0  0  0  0  0  0  0  0  0
   36.8160   28.0420   32.9210 C   0  0  0  0  0  0  0  0  0  0  0  0
   35.5570   28.6460   33.1720 C   0  0  0  0  0  0  0  0  0  0  0  0
   35.0660   29.4890   32.2090 N   0  0  0  0  0  0  0  0  0  0  0  0
   35.7270   29.7430   31.0790 C   0  0  0  0  0  0  0  0  0  0  0  0
   36.9120   29.1830   30.8240 N   0  0  0  0  0  0  0  0  0  0  0  0
   38.4220   27.8720   31.5490 H   0  0  0  0  0  0  0  0  0  0  0  0
   35.0700   28.4070   34.0980 H   0  0  0  0  0  0  0  0  0  0  0  0
   35.1670   30.4310   30.4560 H   0  0  0  0  0  0  0  0  0  0  0  0
   38.0950   23.6520   34.7600 N   0  0  0  0  0  0  0  0  0  0  0  0
   38.4250   23.4280   33.7820 H   0  0  0  0  0  0  0  0  0  0  0  0
   37.7820   22.3550   35.8130 S   0  0  0  0  0  0  0  0  0  0  0  0
   37.1380   22.8140   37.0760 O   0  0  0  0  0  0  0  0  0  0  0  0
   36.6860   23.6780   37.2400 H   0  0  0  0  0  0  0  0  0  0  0  0
   39.0850   21.6720   36.1770 O   0  0  0  0  0  0  0  0  0  0  0  0
   39.3480   21.3710   37.0810 H   0  0  0  0  0  0  0  0  0  0  0  0
   36.7560   21.2530   35.0190 O   0  0  0  0  0  0  0  0  0  0  0  0
   36.8040   21.2710   33.6300 C   0  0  0  0  0  0  0  0  0  0  0  0
   35.6820   21.3330   32.7960 C   0  0  0  0  0  0  0  0  0  0  0  0
   34.6310   21.3750   33.0480 H   0  0  0  0  0  0  0  0  0  0  0  0
   36.2070   21.3280   31.5370 N   0  0  0  0  0  0  0  0  0  0  0  0
   35.5770   21.3680   30.6820 H   0  0  0  0  0  0  0  0  0  0  0  0
   37.5500   21.2680   31.5520 C   0  0  0  0  0  0  0  0  0  0  0  0
   38.1600   21.2540   30.6580 H   0  0  0  0  0  0  0  0  0  0  0  0
   37.9050   21.2330   32.8590 N   0  0  0  0  0  0  0  0  0  0  0  0
  1  2  1  0  0  0  0
  2  3  2  0  0  0  0
  2  7  1  0  0  0  0
  3  4  1  0  0  0  0
  4  8  1  0  0  0  0
  4  5  2  0  0  0  0
  5  9  1  0  0  0  0
  6  5  1  0  0  0  0
  6 10  1  0  0  0  0
  7  6  2  0  0  0  0
 11 12  1  0  0  0  0
 12 13  2  0  0  0  0
 12  3  1  0  0  0  0
 13 18  1  0  0  0  0
 14 13  1  0  0  0  0
 15 14  2  0  0  0  0
 16 15  1  0  0  0  0
 16 11  2  0  0  0  0
 17 11  1  0  0  0  0
 19 15  1  0  0  0  0
 20  7  1  0  0  0  0
 20 22  1  0  0  0  0
 21 20  1  0  0  0  0
 22 25  1  0  0  0  0
 22 23  1  0  0  0  0
 23 24  1  0  0  0  0
 25 26  1  0  0  0  0
 27 22  1  0  0  0  0
 28 27  1  0  0  0  0
 29 30  1  0  0  0  0
 29 28  2  0  0  0  0
 31 33  1  0  0  0  0
 31 29  1  0  0  0  0
 32 31  1  0  0  0  0
 33 35  2  0  0  0  0
 34 33  1  0  0  0  0
 35 28  1  0  0  0  0
M  END
>  <minimizedAffinity>
-5.24712276

$$$$

 OpenBabel03262521063D

 35 37  0  0  0  0  0  0  0  0999 V2000
   38.3720   26.8300   35.0670 Br  0  0  0  0  0  0  0  0  0  0  0  0
   38.0690   25.3310   33.9740 C   0  0  0  0  0  0  0  0  0  0  0  0
   38.1530   24.1230   34.5950 C   0  0  0  0  0  0  0  0  0  0  0  0
   37.9410   22.9460   33.8570 C   0  0  0  0  0  0  0  0  0  0  0  0
   37.6490   23.0390   32.5040 C   0  0  0  0  0  0  0  0  0  0  0  0
   37.5820   24.2790   31.9530 C   0  0  0  0  0  0  0  0  0  0  0  0
   37.7860   25.4400   32.6560 C   0  0  0  0  0  0  0  0  0  0  0  0
   37.9910   21.9540   34.2840 H   0  0  0  0  0  0  0  0  0  0  0  0
   37.4820   22.1360   31.9130 H   0  0  0  0  0  0  0  0  0  0  0  0
   37.3530   24.3410   30.8950 H   0  0  0  0  0  0  0  0  0  0  0  0
   39.6290   23.2540   36.4700 C   0  0  0  0  0  0  0  0  0  0  0  0
   38.4500   23.8500   36.0150 C   0  0  0  0  0  0  0  0  0  0  0  0
   37.4780   24.2150   36.9830 C   0  0  0  0  0  0  0  0  0  0  0  0
   37.7730   23.9520   38.2950 N   0  0  0  0  0  0  0  0  0  0  0  0
   38.9190   23.3790   38.6670 C   0  0  0  0  0  0  0  0  0  0  0  0
   39.8460   23.0290   37.7720 N   0  0  0  0  0  0  0  0  0  0  0  0
   40.3590   22.9830   35.7090 H   0  0  0  0  0  0  0  0  0  0  0  0
   36.5750   24.6720   36.6260 H   0  0  0  0  0  0  0  0  0  0  0  0
   38.9540   23.2610   39.7440 H   0  0  0  0  0  0  0  0  0  0  0  0
   37.7170   26.7360   32.0890 N   0  0  0  0  0  0  0  0  0  0  0  0
   38.6600   27.2030   32.1870 H   0  0  0  0  0  0  0  0  0  0  0  0
   36.4700   27.6080   31.3310 S   0  0  0  0  0  0  0  0  0  0  0  0
   35.3640   27.9230   32.2800 O   0  0  0  0  0  0  0  0  0  0  0  0
   35.3960   27.9020   33.2670 H   0  0  0  0  0  0  0  0  0  0  0  0
   35.8910   26.7840   30.1990 O   0  0  0  0  0  0  0  0  0  0  0  0
   34.9300   26.6750   29.9950 H   0  0  0  0  0  0  0  0  0  0  0  0
   37.1220   29.0550   30.7160 O   0  0  0  0  0  0  0  0  0  0  0  0
   37.8140   28.9460   29.5160 C   0  0  0  0  0  0  0  0  0  0  0  0
   37.7940   29.9050   28.4960 C   0  0  0  0  0  0  0  0  0  0  0  0
   37.2720   30.8510   28.4420 H   0  0  0  0  0  0  0  0  0  0  0  0
   38.6040   29.3790   27.5330 N   0  0  0  0  0  0  0  0  0  0  0  0
   38.7800   29.8980   26.6230 H   0  0  0  0  0  0  0  0  0  0  0  0
   39.1070   28.1850   27.8950 C   0  0  0  0  0  0  0  0  0  0  0  0
   39.7720   27.6000   27.2730 H   0  0  0  0  0  0  0  0  0  0  0  0
   38.6060   27.9310   29.1280 N   0  0  0  0  0  0  0  0  0  0  0  0
  2  3  1  0  0  0  0
  2  1  1  0  0  0  0
  3 12  1  0  0  0  0
  4  8  1  0  0  0  0
  4  3  2  0  0  0  0
  5  4  1  0  0  0  0
  6  5  2  0  0  0  0
  6  7  1  0  0  0  0
  7  2  2  0  0  0  0
  9  5  1  0  0  0  0
 10  6  1  0  0  0  0
 11 16  1  0  0  0  0
 12 11  2  0  0  0  0
 12 13  1  0  0  0  0
 13 14  2  0  0  0  0
 14 15  1  0  0  0  0
 15 19  1  0  0  0  0
 16 15  2  0  0  0  0
 17 11  1  0  0  0  0
 18 13  1  0  0  0  0
 20 21  1  0  0  0  0
 20  7  1  0  0  0  0
 22 20  1  0  0  0  0
 22 23  1  0  0  0  0
 23 24  1  0  0  0  0
 25 22  1  0  0  0  0
 26 25  1  0  0  0  0
 27 22  1  0  0  0  0
 28 27  1  0  0  0  0
 29 28  2  0  0  0  0
 30 29  1  0  0  0  0
 31 33  1  0  0  0  0
 31 29  1  0  0  0  0
 32 31  1  0  0  0  0
 33 35  2  0  0  0  0
 34 33  1  0  0  0  0
 35 28  1  0  0  0  0
M  END
>  <minimizedAffinity>
-5.16820765

$$$$

 OpenBabel03262521063D

 35 37  0  0  0  0  0  0  0  0999 V2000
   36.6450   27.8830   34.5650 Br  0  0  0  0  0  0  0  0  0  0  0  0
   36.3290   28.8930   33.0110 C   0  0  0  0  0  0  0  0  0  0  0  0
   35.6660   30.0660   33.1970 C   0  0  0  0  0  0  0  0  0  0  0  0
   35.3850   30.8890   32.0920 C   0  0  0  0  0  0  0  0  0  0  0  0
   35.7930   30.4860   30.8280 C   0  0  0  0  0  0  0  0  0  0  0  0
   36.4500   29.3020   30.7210 C   0  0  0  0  0  0  0  0  0  0  0  0
   36.7330   28.4860   31.7870 C   0  0  0  0  0  0  0  0  0  0  0  0
   34.8640   31.8330   32.1650 H   0  0  0  0  0  0  0  0  0  0  0  0
   35.5840   31.1100   29.9570 H   0  0  0  0  0  0  0  0  0  0  0  0
   36.7640   28.9960   29.7300 H   0  0  0  0  0  0  0  0  0  0  0  0
   35.9390   31.4140   35.3330 C   0  0  0  0  0  0  0  0  0  0  0  0
   35.1670   30.6390   34.4640 C   0  0  0  0  0  0  0  0  0  0  0  0
   33.8180   30.3870   34.8240 C   0  0  0  0  0  0  0  0  0  0  0  0
   33.3750   30.9260   36.0040 N   0  0  0  0  0  0  0  0  0  0  0  0
   34.1620   31.6590   36.7920 C   0  0  0  0  0  0  0  0  0  0  0  0
   35.4340   31.9080   36.4700 N   0  0  0  0  0  0  0  0  0  0  0  0
   36.9710   31.5930   35.0340 H   0  0  0  0  0  0  0  0  0  0  0  0
   33.2310   29.7900   34.1520 H   0  0  0  0  0  0  0  0  0  0  0  0
   33.6200   31.9890   37.6710 H   0  0  0  0  0  0  0  0  0  0  0  0
   37.4180   27.2500   31.6820 N   0  0  0  0  0  0  0  0  0  0  0  0
   38.4060   27.3750   32.0340 H   0  0  0  0  0  0  0  0  0  0  0  0
   36.9580   25.7100   31.1280 S   0  0  0  0  0  0  0  0  0  0  0  0
   37.9020   25.1910   30.0980 O   0  0  0  0  0  0  0  0  0  0  0  0
   38.8190   25.5080   29.9100 H   0  0  0  0  0  0  0  0  0  0  0  0
   35.5820   25.7890   30.4990 O   0  0  0  0  0  0  0  0  0  0  0  0
   35.3060   25.3580   29.6530 H   0  0  0  0  0  0  0  0  0  0  0  0
   36.9250   24.6480   32.4570 O   0  0  0  0  0  0  0  0  0  0  0  0
   36.6470   23.3180   32.1640 C   0  0  0  0  0  0  0  0  0  0  0  0
   37.0630   22.2290   32.9390 C   0  0  0  0  0  0  0  0  0  0  0  0
   37.6430   22.2070   33.8520 H   0  0  0  0  0  0  0  0  0  0  0  0
   36.5670   21.1450   32.2760 N   0  0  0  0  0  0  0  0  0  0  0  0
   36.7300   20.1600   32.6400 H   0  0  0  0  0  0  0  0  0  0  0  0
   35.8890   21.4980   31.1690 C   0  0  0  0  0  0  0  0  0  0  0  0
   35.4160   20.7870   30.5030 H   0  0  0  0  0  0  0  0  0  0  0  0
   35.9480   22.8500   31.1150 N   0  0  0  0  0  0  0  0  0  0  0  0
  2  3  1  0  0  0  0
  2  1  1  0  0  0  0
  3 12  1  0  0  0  0
  4  8  1  0  0  0  0
  4  3  2  0  0  0  0
  5  4  1  0  0  0  0
  6  5  2  0  0  0  0
  6  7  1  0  0  0  0
  7  2  2  0  0  0  0
  9  5  1  0  0  0  0
 10  6  1  0  0  0  0
 11 16  1  0  0  0  0
 12 13  1  0  0  0  0
 12 11  2  0  0  0  0
 13 14  2  0  0  0  0
 14 15  1  0  0  0  0
 15 19  1  0  0  0  0
 16 15  2  0  0  0  0
 17 11  1  0  0  0  0
 18 13  1  0  0  0  0
 20  7  1  0  0  0  0
 20 21  1  0  0  0  0
 22 20  1  0  0  0  0
 22 27  1  0  0  0  0
 23 22  1  0  0  0  0
 24 23  1  0  0  0  0
 25 22  1  0  0  0  0
 26 25  1  0  0  0  0
 28 27  1  0  0  0  0
 28 29  2  0  0  0  0
 29 30  1  0  0  0  0
 31 32  1  0  0  0  0
 31 29  1  0  0  0  0
 33 31  1  0  0  0  0
 34 33  1  0  0  0  0
 35 33  2  0  0  0  0
 35 28  1  0  0  0  0
M  END
>  <minimizedAffinity>
-5.16239977

$$$$

 OpenBabel03262521063D

 35 37  0  0  0  0  0  0  0  0999 V2000
   38.6100   26.8720   35.0680 Br  0  0  0  0  0  0  0  0  0  0  0  0
   38.1880   25.3950   33.9840 C   0  0  0  0  0  0  0  0  0  0  0  0
   38.1470   24.1920   34.6190 C   0  0  0  0  0  0  0  0  0  0  0  0
   37.8390   23.0310   33.8890 C   0  0  0  0  0  0  0  0  0  0  0  0
   37.5830   23.1360   32.5290 C   0  0  0  0  0  0  0  0  0  0  0  0
   37.6420   24.3700   31.9650 C   0  0  0  0  0  0  0  0  0  0  0  0
   37.9410   25.5140   32.6610 C   0  0  0  0  0  0  0  0  0  0  0  0
   37.7880   22.0440   34.3260 H   0  0  0  0  0  0  0  0  0  0  0  0
   37.3430   22.2460   31.9440 H   0  0  0  0  0  0  0  0  0  0  0  0
   37.4400   24.4410   30.9030 H   0  0  0  0  0  0  0  0  0  0  0  0
   37.4990   24.2250   37.0750 C   0  0  0  0  0  0  0  0  0  0  0  0
   38.3920   23.9090   36.0470 C   0  0  0  0  0  0  0  0  0  0  0  0
   39.6110   23.2740   36.4020 C   0  0  0  0  0  0  0  0  0  0  0  0
   39.8190   23.0210   37.7330 N   0  0  0  0  0  0  0  0  0  0  0  0
   38.9260   23.3470   38.6690 C   0  0  0  0  0  0  0  0  0  0  0  0
   37.7740   23.9440   38.3550 N   0  0  0  0  0  0  0  0  0  0  0  0
   36.5710   24.7110   36.7770 H   0  0  0  0  0  0  0  0  0  0  0  0
   40.2920   23.0350   35.6080 H   0  0  0  0  0  0  0  0  0  0  0  0
   39.2820   23.0600   39.6520 H   0  0  0  0  0  0  0  0  0  0  0  0
   38.0050   26.8050   32.0790 N   0  0  0  0  0  0  0  0  0  0  0  0
   38.6870   27.3950   32.6280 H   0  0  0  0  0  0  0  0  0  0  0  0
   37.2280   27.5170   30.7450 S   0  0  0  0  0  0  0  0  0  0  0  0
   35.9470   26.8280   30.4220 O   0  0  0  0  0  0  0  0  0  0  0  0
   35.4270   26.2220   31.0050 H   0  0  0  0  0  0  0  0  0  0  0  0
   38.1250   27.4250   29.5280 O   0  0  0  0  0  0  0  0  0  0  0  0
   37.8400   27.1730   28.6150 H   0  0  0  0  0  0  0  0  0  0  0  0
   36.9200   29.1500   31.1110 O   0  0  0  0  0  0  0  0  0  0  0  0
   35.9540   29.3830   32.0830 C   0  0  0  0  0  0  0  0  0  0  0  0
   34.8050   30.1600   31.8930 C   0  0  0  0  0  0  0  0  0  0  0  0
   34.4660   30.6960   31.0170 H   0  0  0  0  0  0  0  0  0  0  0  0
   34.1670   30.1040   33.0980 N   0  0  0  0  0  0  0  0  0  0  0  0
   33.2470   30.6120   33.2530 H   0  0  0  0  0  0  0  0  0  0  0  0
   34.8410   29.3570   33.9910 C   0  0  0  0  0  0  0  0  0  0  0  0
   34.5050   29.1860   35.0050 H   0  0  0  0  0  0  0  0  0  0  0  0
   35.9480   28.9180   33.3450 N   0  0  0  0  0  0  0  0  0  0  0  0
  2  3  1  0  0  0  0
  2  1  1  0  0  0  0
  3 12  1  0  0  0  0
  4  8  1  0  0  0  0
  4  3  2  0  0  0  0
  5  4  1  0  0  0  0
  6  5  2  0  0  0  0
  6  7  1  0  0  0  0
  7  2  2  0  0  0  0
  9  5  1  0  0  0  0
 10  6  1  0  0  0  0
 11 16  1  0  0  0  0
 12 13  1  0  0  0  0
 12 11  2  0  0  0  0
 13 14  2  0  0  0  0
 14 15  1  0  0  0  0
 15 19  1  0  0  0  0
 16 15  2  0  0  0  0
 17 11  1  0  0  0  0
 18 13  1  0  0  0  0
 20 21  1  0  0  0  0
 20  7  1  0  0  0  0
 22 27  1  0  0  0  0
 22 20  1  0  0  0  0
 23 22  1  0  0  0  0
 23 24  1  0  0  0  0
 25 22  1  0  0  0  0
 26 25  1  0  0  0  0
 27 28  1  0  0  0  0
 28 35  1  0  0  0  0
 29 28  2  0  0  0  0
 29 31  1  0  0  0  0
 30 29  1  0  0  0  0
 31 32  1  0  0  0  0
 31 33  1  0  0  0  0
 33 34  1  0  0  0  0
 35 33  2  0  0  0  0
M  END
>  <minimizedAffinity>
-5.14545107

$$$$
