
 OpenBabel03272508563D

 39 42  0  0  1  0  0  0  0  0999 V2000
   38.4010   31.8470   44.5510 C   0  0  0  0  0  0  0  0  0  0  0  0
   37.3170   32.4380   44.4320 O   0  0  0  0  0  0  0  0  0  0  0  0
   38.9470   31.5480   45.8680 N   0  0  0  0  0  0  0  0  0  0  0  0
   39.9180   31.2650   46.0300 H   0  0  0  0  0  0  0  0  0  0  0  0
   39.2010   31.4100   43.3800 C   0  0  0  0  0  0  0  0  0  0  0  0
   40.1950   30.4880   43.5510 C   0  0  0  0  0  0  0  0  0  0  0  0
   40.9080   30.1250   42.4190 C   0  0  0  0  0  0  0  0  0  0  0  0
   40.5840   30.6980   41.2160 C   0  0  0  0  0  0  0  0  0  0  0  0
   39.5780   31.6300   41.0470 C   0  0  0  0  0  0  0  0  0  0  0  0
   38.9150   31.9520   42.1680 N   0  0  0  0  0  0  0  0  0  0  0  0
   40.4440   30.0420   44.5010 H   0  0  0  0  0  0  0  0  0  0  0  0
   41.6930   29.4140   42.4920 H   0  0  0  0  0  0  0  0  0  0  0  0
   41.1590   30.4000   40.3300 H   0  0  0  0  0  0  0  0  0  0  0  0
   39.2760   32.2070   39.7410 C   0  0  0  0  0  0  0  0  0  0  0  0
   38.7980   33.3650   39.7020 O   0  0  0  0  0  0  0  0  0  0  0  0
   39.5250   31.4540   38.5170 C   0  0  0  0  0  0  0  0  0  0  0  0
   38.7090   30.4530   38.0300 C   0  0  0  0  0  0  0  0  0  0  0  0
   37.7840   30.0430   38.4170 H   0  0  0  0  0  0  0  0  0  0  0  0
   39.3220   30.0450   36.8940 N   0  0  0  0  0  0  0  0  0  0  0  0
   39.0110   29.2920   36.2270 H   0  0  0  0  0  0  0  0  0  0  0  0
   40.4680   30.7460   36.6640 C   0  0  0  0  0  0  0  0  0  0  0  0
   41.1390   30.6150   35.8300 H   0  0  0  0  0  0  0  0  0  0  0  0
   40.5790   31.6290   37.6990 N   0  0  0  0  0  0  0  0  0  0  0  0
   38.4150   31.0860   48.2470 C   0  0  2  0  0  0  0  0  0  0  0  0
   38.6350   32.5530   48.1310 C   0  0  0  0  0  0  0  0  0  0  0  0
   38.0540   31.6630   46.9930 C   0  0  1  0  0  0  0  0  0  0  0  0
   39.3440   30.4830   48.3570 H   0  0  0  0  0  0  0  0  0  0  0  0
   39.6590   32.9060   48.0320 H   0  0  0  0  0  0  0  0  0  0  0  0
   37.9350   33.2190   48.6570 H   0  0  0  0  0  0  0  0  0  0  0  0
   36.9740   31.8740   46.7780 H   0  0  0  0  0  0  0  0  0  0  0  0
   35.0350   30.2190   49.5360 C   0  0  0  0  0  0  0  0  0  0  0  0
   35.3540   29.5750   50.7800 C   0  0  0  0  0  0  0  0  0  0  0  0
   36.7360   29.4660   51.1440 C   0  0  0  0  0  0  0  0  0  0  0  0
   37.7040   29.9680   50.3100 N   0  0  0  0  0  0  0  0  0  0  0  0
   37.3300   30.5600   49.1570 C   0  0  0  0  0  0  0  0  0  0  0  0
   36.0090   30.7000   48.7430 N   0  0  0  0  0  0  0  0  0  0  0  0
   33.9830   30.2840   49.2920 H   0  0  0  0  0  0  0  0  0  0  0  0
   34.5890   29.1910   51.4170 H   0  0  0  0  0  0  0  0  0  0  0  0
   36.9870   28.9840   52.0780 H   0  0  0  0  0  0  0  0  0  0  0  0
  1  3  1  0  0  0  0
  2  1  2  0  0  0  0
  3  4  1  0  0  0  0
  3 26  1  0  0  0  0
  5  6  1  0  0  0  0
  5  1  1  0  0  0  0
  6 11  1  0  0  0  0
  7 12  1  0  0  0  0
  7  6  2  0  0  0  0
  8  7  1  0  0  0  0
  9  8  2  0  0  0  0
  9 10  1  0  0  0  0
 10  5  2  0  0  0  0
 13  8  1  0  0  0  0
 14  9  1  0  0  0  0
 15 14  2  0  0  0  0
 16 14  1  0  0  0  0
 17 18  1  0  0  0  0
 17 16  2  0  0  0  0
 19 17  1  0  0  0  0
 20 19  1  0  0  0  0
 21 19  1  0  0  0  0
 21 23  2  0  0  0  0
 22 21  1  0  0  0  0
 23 16  1  0  0  0  0
 24 27  1  6  0  0  0
 24 35  1  0  0  0  0
 25 24  1  0  0  0  0
 25 29  1  0  0  0  0
 26 30  1  6  0  0  0
 26 25  1  0  0  0  0
 26 24  1  0  0  0  0
 28 25  1  0  0  0  0
 31 32  1  0  0  0  0
 32 33  2  0  0  0  0
 32 38  1  0  0  0  0
 33 39  1  0  0  0  0
 34 33  1  0  0  0  0
 35 34  2  0  0  0  0
 36 35  1  0  0  0  0
 36 31  2  0  0  0  0
 37 31  1  0  0  0  0
M  END
>  <minimizedAffinity>
-4.90418863

>  <minimizedRMSD>
0.316027164

$$$$
