
 OpenBabel03272508563D

 39 42  0  0  1  0  0  0  0  0999 V2000
   38.3550   31.9020   44.5060 C   0  0  0  0  0  0  0  0  0  0  0  0
   37.2480   32.4510   44.4050 O   0  0  0  0  0  0  0  0  0  0  0  0
   38.9400   31.6340   45.8130 N   0  0  0  0  0  0  0  0  0  0  0  0
   39.9240   31.3890   45.9570 H   0  0  0  0  0  0  0  0  0  0  0  0
   39.1480   31.4880   43.3210 C   0  0  0  0  0  0  0  0  0  0  0  0
   40.1370   30.5570   43.4660 C   0  0  0  0  0  0  0  0  0  0  0  0
   40.8430   30.2150   42.3230 C   0  0  0  0  0  0  0  0  0  0  0  0
   40.5170   30.8170   41.1350 C   0  0  0  0  0  0  0  0  0  0  0  0
   39.5160   31.7580   40.9920 C   0  0  0  0  0  0  0  0  0  0  0  0
   38.8590   32.0580   42.1230 N   0  0  0  0  0  0  0  0  0  0  0  0
   40.3880   30.0870   44.4050 H   0  0  0  0  0  0  0  0  0  0  0  0
   41.6240   29.4980   42.3760 H   0  0  0  0  0  0  0  0  0  0  0  0
   41.0860   30.5360   40.2400 H   0  0  0  0  0  0  0  0  0  0  0  0
   39.2110   32.3670   39.7010 C   0  0  0  0  0  0  0  0  0  0  0  0
   38.7830   33.5450   39.6880 O   0  0  0  0  0  0  0  0  0  0  0  0
   39.4000   31.6210   38.4610 C   0  0  0  0  0  0  0  0  0  0  0  0
   40.4200   31.8420   37.5600 C   0  0  0  0  0  0  0  0  0  0  0  0
   41.2350   32.5570   37.5730 H   0  0  0  0  0  0  0  0  0  0  0  0
   40.2030   30.9340   36.5790 N   0  0  0  0  0  0  0  0  0  0  0  0
   40.7680   30.7800   35.7030 H   0  0  0  0  0  0  0  0  0  0  0  0
   39.1030   30.1710   36.8380 C   0  0  0  0  0  0  0  0  0  0  0  0
   38.7150   29.3790   36.2170 H   0  0  0  0  0  0  0  0  0  0  0  0
   38.6110   30.6200   38.0300 N   0  0  0  0  0  0  0  0  0  0  0  0
   38.4390   31.1010   48.1840 C   0  0  2  0  0  0  0  0  0  0  0  0
   38.6770   32.5680   48.1130 C   0  0  0  0  0  0  0  0  0  0  0  0
   38.0660   31.7230   46.9550 C   0  0  1  0  0  0  0  0  0  0  0  0
   39.3610   30.4820   48.2590 H   0  0  0  0  0  0  0  0  0  0  0  0
   39.7030   32.9100   48.0090 H   0  0  0  0  0  0  0  0  0  0  0  0
   37.9940   33.2250   48.6710 H   0  0  0  0  0  0  0  0  0  0  0  0
   36.9860   31.9550   46.7650 H   0  0  0  0  0  0  0  0  0  0  0  0
   35.0680   30.2410   49.5010 C   0  0  0  0  0  0  0  0  0  0  0  0
   35.3980   29.5460   50.7150 C   0  0  0  0  0  0  0  0  0  0  0  0
   36.7840   29.4010   51.0490 C   0  0  0  0  0  0  0  0  0  0  0  0
   37.7450   29.9180   50.2160 N   0  0  0  0  0  0  0  0  0  0  0  0
   37.3610   30.5590   49.0930 C   0  0  0  0  0  0  0  0  0  0  0  0
   36.0360   30.7360   48.7090 N   0  0  0  0  0  0  0  0  0  0  0  0
   34.0130   30.3320   49.2790 H   0  0  0  0  0  0  0  0  0  0  0  0
   34.6380   29.1510   51.3500 H   0  0  0  0  0  0  0  0  0  0  0  0
   37.0430   28.8810   51.9600 H   0  0  0  0  0  0  0  0  0  0  0  0
  1  3  1  0  0  0  0
  2  1  2  0  0  0  0
  3  4  1  0  0  0  0
  3 26  1  0  0  0  0
  5  6  1  0  0  0  0
  5  1  1  0  0  0  0
  6 11  1  0  0  0  0
  7 12  1  0  0  0  0
  7  6  2  0  0  0  0
  8  7  1  0  0  0  0
  9  8  2  0  0  0  0
  9 10  1  0  0  0  0
 10  5  2  0  0  0  0
 13  8  1  0  0  0  0
 14  9  1  0  0  0  0
 15 14  2  0  0  0  0
 16 14  1  0  0  0  0
 17 18  1  0  0  0  0
 17 16  2  0  0  0  0
 19 21  1  0  0  0  0
 19 17  1  0  0  0  0
 20 19  1  0  0  0  0
 21 23  2  0  0  0  0
 22 21  1  0  0  0  0
 23 16  1  0  0  0  0
 24 27  1  6  0  0  0
 24 35  1  0  0  0  0
 25 24  1  0  0  0  0
 25 29  1  0  0  0  0
 26 30  1  6  0  0  0
 26 25  1  0  0  0  0
 26 24  1  0  0  0  0
 28 25  1  0  0  0  0
 31 32  1  0  0  0  0
 32 33  2  0  0  0  0
 32 38  1  0  0  0  0
 33 39  1  0  0  0  0
 34 33  1  0  0  0  0
 35 34  2  0  0  0  0
 36 35  1  0  0  0  0
 36 31  2  0  0  0  0
 37 31  1  0  0  0  0
M  END
>  <minimizedAffinity>
-4.90632772

>  <minimizedRMSD>
0.455711693

$$$$
