
 OpenBabel03272508563D

 39 42  0  0  1  0  0  0  0  0999 V2000
   38.4130   31.8340   44.5560 C   0  0  0  0  0  0  0  0  0  0  0  0
   37.3340   32.4320   44.4310 O   0  0  0  0  0  0  0  0  0  0  0  0
   38.9510   31.5320   45.8750 N   0  0  0  0  0  0  0  0  0  0  0  0
   39.9200   31.2440   46.0420 H   0  0  0  0  0  0  0  0  0  0  0  0
   39.2170   31.3930   43.3880 C   0  0  0  0  0  0  0  0  0  0  0  0
   40.2090   30.4700   43.5650 C   0  0  0  0  0  0  0  0  0  0  0  0
   40.9250   30.1020   42.4370 C   0  0  0  0  0  0  0  0  0  0  0  0
   40.6060   30.6720   41.2310 C   0  0  0  0  0  0  0  0  0  0  0  0
   39.6030   31.6050   41.0560 C   0  0  0  0  0  0  0  0  0  0  0  0
   38.9360   31.9310   42.1730 N   0  0  0  0  0  0  0  0  0  0  0  0
   40.4540   30.0260   44.5180 H   0  0  0  0  0  0  0  0  0  0  0  0
   41.7090   29.3900   42.5140 H   0  0  0  0  0  0  0  0  0  0  0  0
   41.1840   30.3710   40.3480 H   0  0  0  0  0  0  0  0  0  0  0  0
   39.3050   32.1790   39.7470 C   0  0  0  0  0  0  0  0  0  0  0  0
   38.6440   33.2430   39.7040 O   0  0  0  0  0  0  0  0  0  0  0  0
   39.7680   31.5290   38.5260 C   0  0  0  0  0  0  0  0  0  0  0  0
   40.8410   31.9520   37.7690 C   0  0  0  0  0  0  0  0  0  0  0  0
   41.5170   32.7880   37.9040 H   0  0  0  0  0  0  0  0  0  0  0  0
   40.9010   31.0660   36.7480 N   0  0  0  0  0  0  0  0  0  0  0  0
   41.5880   31.0440   35.9500 H   0  0  0  0  0  0  0  0  0  0  0  0
   39.9190   30.1250   36.8440 C   0  0  0  0  0  0  0  0  0  0  0  0
   39.7490   29.3090   36.1590 H   0  0  0  0  0  0  0  0  0  0  0  0
   39.2150   30.4350   37.9720 N   0  0  0  0  0  0  0  0  0  0  0  0
   38.4110   31.0860   48.2550 C   0  0  2  0  0  0  0  0  0  0  0  0
   38.6280   32.5530   48.1300 C   0  0  0  0  0  0  0  0  0  0  0  0
   38.0530   31.6520   46.9950 C   0  0  1  0  0  0  0  0  0  0  0  0
   39.3410   30.4860   48.3740 H   0  0  0  0  0  0  0  0  0  0  0  0
   39.6500   32.9080   48.0330 H   0  0  0  0  0  0  0  0  0  0  0  0
   37.9230   33.2200   48.6480 H   0  0  0  0  0  0  0  0  0  0  0  0
   36.9740   31.8590   46.7750 H   0  0  0  0  0  0  0  0  0  0  0  0
   35.0280   30.2260   49.5410 C   0  0  0  0  0  0  0  0  0  0  0  0
   35.3440   29.5840   50.7870 C   0  0  0  0  0  0  0  0  0  0  0  0
   36.7260   29.4720   51.1520 C   0  0  0  0  0  0  0  0  0  0  0  0
   37.6960   29.9720   50.3180 N   0  0  0  0  0  0  0  0  0  0  0  0
   37.3240   30.5630   49.1640 C   0  0  0  0  0  0  0  0  0  0  0  0
   36.0040   30.7050   48.7490 N   0  0  0  0  0  0  0  0  0  0  0  0
   33.9770   30.2920   49.2960 H   0  0  0  0  0  0  0  0  0  0  0  0
   34.5780   29.2020   51.4230 H   0  0  0  0  0  0  0  0  0  0  0  0
   36.9740   28.9910   52.0870 H   0  0  0  0  0  0  0  0  0  0  0  0
  1  3  1  0  0  0  0
  2  1  2  0  0  0  0
  3  4  1  0  0  0  0
  3 26  1  0  0  0  0
  5  6  1  0  0  0  0
  5  1  1  0  0  0  0
  6 11  1  0  0  0  0
  7 12  1  0  0  0  0
  7  6  2  0  0  0  0
  8  7  1  0  0  0  0
  9  8  2  0  0  0  0
  9 10  1  0  0  0  0
 10  5  2  0  0  0  0
 13  8  1  0  0  0  0
 14  9  1  0  0  0  0
 15 14  2  0  0  0  0
 16 14  1  0  0  0  0
 17 18  1  0  0  0  0
 17 16  2  0  0  0  0
 19 21  1  0  0  0  0
 19 17  1  0  0  0  0
 20 19  1  0  0  0  0
 21 23  2  0  0  0  0
 22 21  1  0  0  0  0
 23 16  1  0  0  0  0
 24 27  1  6  0  0  0
 24 35  1  0  0  0  0
 25 24  1  0  0  0  0
 25 29  1  0  0  0  0
 26 30  1  6  0  0  0
 26 25  1  0  0  0  0
 26 24  1  0  0  0  0
 28 25  1  0  0  0  0
 31 32  1  0  0  0  0
 32 33  2  0  0  0  0
 32 38  1  0  0  0  0
 33 39  1  0  0  0  0
 34 33  1  0  0  0  0
 35 34  2  0  0  0  0
 36 35  1  0  0  0  0
 36 31  2  0  0  0  0
 37 31  1  0  0  0  0
M  END
>  <minimizedAffinity>
-4.93580675

>  <minimizedRMSD>
0.651331842

$$$$
