
 OpenBabel03272508563D

 39 42  0  0  1  0  0  0  0  0999 V2000
   38.3550   31.9020   44.5060 C   0  0  0  0  0  0  0  0  0  0  0  0
   37.2470   32.4500   44.4050 O   0  0  0  0  0  0  0  0  0  0  0  0
   38.9400   31.6350   45.8130 N   0  0  0  0  0  0  0  0  0  0  0  0
   39.9240   31.3910   45.9570 H   0  0  0  0  0  0  0  0  0  0  0  0
   39.1480   31.4880   43.3210 C   0  0  0  0  0  0  0  0  0  0  0  0
   40.1370   30.5570   43.4660 C   0  0  0  0  0  0  0  0  0  0  0  0
   40.8430   30.2150   42.3240 C   0  0  0  0  0  0  0  0  0  0  0  0
   40.5170   30.8170   41.1350 C   0  0  0  0  0  0  0  0  0  0  0  0
   39.5160   31.7580   40.9920 C   0  0  0  0  0  0  0  0  0  0  0  0
   38.8590   32.0580   42.1230 N   0  0  0  0  0  0  0  0  0  0  0  0
   40.3880   30.0870   44.4060 H   0  0  0  0  0  0  0  0  0  0  0  0
   41.6240   29.4980   42.3760 H   0  0  0  0  0  0  0  0  0  0  0  0
   41.0870   30.5360   40.2400 H   0  0  0  0  0  0  0  0  0  0  0  0
   39.2110   32.3670   39.7010 C   0  0  0  0  0  0  0  0  0  0  0  0
   38.7820   33.5450   39.6880 O   0  0  0  0  0  0  0  0  0  0  0  0
   39.4020   31.6210   38.4620 C   0  0  0  0  0  0  0  0  0  0  0  0
   40.4220   31.8440   37.5600 C   0  0  0  0  0  0  0  0  0  0  0  0
   41.2360   32.5600   37.5730 H   0  0  0  0  0  0  0  0  0  0  0  0
   40.2060   30.9360   36.5800 N   0  0  0  0  0  0  0  0  0  0  0  0
   40.7720   30.7830   35.7040 H   0  0  0  0  0  0  0  0  0  0  0  0
   39.1070   30.1720   36.8380 C   0  0  0  0  0  0  0  0  0  0  0  0
   38.7210   29.3790   36.2160 H   0  0  0  0  0  0  0  0  0  0  0  0
   38.6140   30.6200   38.0290 N   0  0  0  0  0  0  0  0  0  0  0  0
   38.4390   31.1010   48.1840 C   0  0  2  0  0  0  0  0  0  0  0  0
   38.6780   32.5690   48.1130 C   0  0  0  0  0  0  0  0  0  0  0  0
   38.0660   31.7240   46.9550 C   0  0  1  0  0  0  0  0  0  0  0  0
   39.3610   30.4830   48.2590 H   0  0  0  0  0  0  0  0  0  0  0  0
   39.7040   32.9110   48.0090 H   0  0  0  0  0  0  0  0  0  0  0  0
   37.9940   33.2250   48.6720 H   0  0  0  0  0  0  0  0  0  0  0  0
   36.9860   31.9560   46.7650 H   0  0  0  0  0  0  0  0  0  0  0  0
   35.0680   30.2430   49.5020 C   0  0  0  0  0  0  0  0  0  0  0  0
   35.3980   29.5470   50.7150 C   0  0  0  0  0  0  0  0  0  0  0  0
   36.7840   29.4000   51.0480 C   0  0  0  0  0  0  0  0  0  0  0  0
   37.7460   29.9170   50.2150 N   0  0  0  0  0  0  0  0  0  0  0  0
   37.3610   30.5590   49.0930 C   0  0  0  0  0  0  0  0  0  0  0  0
   36.0360   30.7380   48.7100 N   0  0  0  0  0  0  0  0  0  0  0  0
   34.0130   30.3360   49.2810 H   0  0  0  0  0  0  0  0  0  0  0  0
   34.6380   29.1520   51.3500 H   0  0  0  0  0  0  0  0  0  0  0  0
   37.0430   28.8780   51.9580 H   0  0  0  0  0  0  0  0  0  0  0  0
  1  3  1  0  0  0  0
  2  1  2  0  0  0  0
  3  4  1  0  0  0  0
  3 26  1  0  0  0  0
  5  6  1  0  0  0  0
  5  1  1  0  0  0  0
  6 11  1  0  0  0  0
  7 12  1  0  0  0  0
  7  6  2  0  0  0  0
  8  7  1  0  0  0  0
  9  8  2  0  0  0  0
  9 10  1  0  0  0  0
 10  5  2  0  0  0  0
 13  8  1  0  0  0  0
 14  9  1  0  0  0  0
 15 14  2  0  0  0  0
 16 14  1  0  0  0  0
 17 18  1  0  0  0  0
 17 16  2  0  0  0  0
 19 21  1  0  0  0  0
 19 17  1  0  0  0  0
 20 19  1  0  0  0  0
 21 23  2  0  0  0  0
 22 21  1  0  0  0  0
 23 16  1  0  0  0  0
 24 27  1  6  0  0  0
 24 35  1  0  0  0  0
 25 24  1  0  0  0  0
 25 29  1  0  0  0  0
 26 30  1  6  0  0  0
 26 25  1  0  0  0  0
 26 24  1  0  0  0  0
 28 25  1  0  0  0  0
 31 32  1  0  0  0  0
 32 33  2  0  0  0  0
 32 38  1  0  0  0  0
 33 39  1  0  0  0  0
 34 33  1  0  0  0  0
 35 34  2  0  0  0  0
 36 35  1  0  0  0  0
 36 31  2  0  0  0  0
 37 31  1  0  0  0  0
M  END
>  <minimizedAffinity>
-4.90620375

>  <minimizedRMSD>
0.162986264

$$$$
