
 OpenBabel03272502223D

 28 30  0  0  0  0  0  0  0  0999 V2000
   36.9980   29.6490   49.7130 C   0  0  0  0  0  0  0  0  0  0  0  0
   37.6270   30.3300   48.6580 C   0  0  0  0  0  0  0  0  0  0  0  0
   36.9400   30.4990   47.4700 C   0  0  0  0  0  0  0  0  0  0  0  0
   35.6830   29.9890   47.3920 N   0  0  0  0  0  0  0  0  0  0  0  0
   35.1030   29.3410   48.4130 C   0  0  0  0  0  0  0  0  0  0  0  0
   35.7670   29.1740   49.5740 N   0  0  0  0  0  0  0  0  0  0  0  0
   37.5470   29.5270   50.6320 H   0  0  0  0  0  0  0  0  0  0  0  0
   38.6120   30.7380   48.6980 H   0  0  0  0  0  0  0  0  0  0  0  0
   37.4670   31.1830   46.2930 C   0  0  0  0  0  0  0  0  0  0  0  0
   36.8910   31.0810   45.0580 C   0  0  0  0  0  0  0  0  0  0  0  0
   37.3900   31.7290   43.9420 C   0  0  0  0  0  0  0  0  0  0  0  0
   38.4950   32.5010   44.0620 N   0  0  0  0  0  0  0  0  0  0  0  0
   39.0480   32.5920   45.2790 C   0  0  0  0  0  0  0  0  0  0  0  0
   38.5720   31.9710   46.3560 N   0  0  0  0  0  0  0  0  0  0  0  0
   36.0040   30.4520   44.9990 H   0  0  0  0  0  0  0  0  0  0  0  0
   36.8680   31.5890   43.0050 H   0  0  0  0  0  0  0  0  0  0  0  0
   40.2650   33.4360   45.4360 C   0  0  0  0  0  0  0  0  0  0  0  0
   40.2760   33.9090   46.7440 F   0  0  0  0  0  0  0  0  0  0  0  0
   41.4240   32.7150   45.1690 F   0  0  0  0  0  0  0  0  0  0  0  0
   40.2460   34.5290   44.6320 F   0  0  0  0  0  0  0  0  0  0  0  0
   33.7480   28.8350   48.2180 C   0  0  0  0  0  0  0  0  0  0  0  0
   32.8770   28.9860   47.1590 C   0  0  0  0  0  0  0  0  0  0  0  0
   33.1390   29.5500   46.2820 H   0  0  0  0  0  0  0  0  0  0  0  0
   31.7100   28.3310   47.4210 N   0  0  0  0  0  0  0  0  0  0  0  0
   30.8880   28.2900   46.7820 H   0  0  0  0  0  0  0  0  0  0  0  0
   31.8640   27.7760   48.6450 C   0  0  0  0  0  0  0  0  0  0  0  0
   31.1130   27.1860   49.1450 H   0  0  0  0  0  0  0  0  0  0  0  0
   33.0860   28.0750   49.1290 N   0  0  0  0  0  0  0  0  0  0  0  0
  1  7  1  0  0  0  0
  2  8  1  0  0  0  0
  2  1  2  0  0  0  0
  3  2  1  0  0  0  0
  4  3  2  0  0  0  0
  4  5  1  0  0  0  0
  5  6  2  0  0  0  0
  6  1  1  0  0  0  0
  9 14  1  0  0  0  0
  9  3  1  0  0  0  0
 10  9  2  0  0  0  0
 11 12  2  0  0  0  0
 11 10  1  0  0  0  0
 12 13  1  0  0  0  0
 13 17  1  0  0  0  0
 13 14  2  0  0  0  0
 15 10  1  0  0  0  0
 16 11  1  0  0  0  0
 17 18  1  0  0  0  0
 19 17  1  0  0  0  0
 20 17  1  0  0  0  0
 21  5  1  0  0  0  0
 21 28  1  0  0  0  0
 22 24  1  0  0  0  0
 22 21  2  0  0  0  0
 23 22  1  0  0  0  0
 24 26  1  0  0  0  0
 25 24  1  0  0  0  0
 26 28  2  0  0  0  0
 26 27  1  0  0  0  0
M  END
>  <minimizedAffinity>
-5.89781761

>  <minimizedRMSD>
1.80596578

$$$$
