
 OpenBabel03272507403D

 40 43  0  0  0  0  0  0  0  0999 V2000
   36.7820   32.2880   49.2460 O   0  0  0  0  0  0  0  0  0  0  0  0
   38.2540   32.2580   47.2710 C   0  0  0  0  0  0  0  0  0  0  0  0
   37.8880   32.6960   48.5320 C   0  0  0  0  0  0  0  0  0  0  0  0
   38.6560   33.6320   49.2040 C   0  0  0  0  0  0  0  0  0  0  0  0
   39.8060   34.1320   48.5970 C   0  0  0  0  0  0  0  0  0  0  0  0
   40.1660   33.6930   47.3410 C   0  0  0  0  0  0  0  0  0  0  0  0
   39.3770   32.7630   46.7080 C   0  0  0  0  0  0  0  0  0  0  0  0
   38.4430   34.0170   50.1690 H   0  0  0  0  0  0  0  0  0  0  0  0
   40.4220   34.8660   49.1020 H   0  0  0  0  0  0  0  0  0  0  0  0
   41.0540   34.0760   46.8660 H   0  0  0  0  0  0  0  0  0  0  0  0
   39.7770   32.2980   45.3580 C   0  0  0  0  0  0  0  0  0  0  0  0
   40.5930   31.2470   45.0060 C   0  0  0  0  0  0  0  0  0  0  0  0
   40.6590   31.2220   43.6150 C   0  0  0  0  0  0  0  0  0  0  0  0
   39.8700   32.2730   43.2080 C   0  0  0  0  0  0  0  0  0  0  0  0
   39.3560   32.8990   44.2550 O   0  0  0  0  0  0  0  0  0  0  0  0
   41.0780   30.5810   45.6900 H   0  0  0  0  0  0  0  0  0  0  0  0
   41.2110   30.5280   42.9840 H   0  0  0  0  0  0  0  0  0  0  0  0
   39.6520   32.6030   42.2090 H   0  0  0  0  0  0  0  0  0  0  0  0
   36.7260   30.5250   46.1390 N   0  0  0  0  0  0  0  0  0  0  0  0
   37.4050   31.2920   46.6530 C   0  0  0  0  0  0  0  0  0  0  0  0
   36.7550   31.2300   50.0950 C   0  0  0  0  0  0  0  0  0  0  0  0
   35.7030   30.3550   49.8230 C   0  0  0  0  0  0  0  0  0  0  0  0
   35.5050   29.2170   50.5780 C   0  0  0  0  0  0  0  0  0  0  0  0
   36.3780   28.9850   51.5950 N   0  0  0  0  0  0  0  0  0  0  0  0
   37.4040   29.8520   51.8480 C   0  0  0  0  0  0  0  0  0  0  0  0
   37.5660   30.9310   51.1090 N   0  0  0  0  0  0  0  0  0  0  0  0
   34.7350   28.5000   50.4410 H   0  0  0  0  0  0  0  0  0  0  0  0
   38.0590   29.6110   52.6680 H   0  0  0  0  0  0  0  0  0  0  0  0
   34.3270   29.3850   48.0330 C   0  0  0  0  0  0  0  0  0  0  0  0
   34.7610   28.1500   47.9760 O   0  0  0  0  0  0  0  0  0  0  0  0
   34.7570   30.4960   48.8010 N   0  0  0  0  0  0  0  0  0  0  0  0
   34.3520   31.4210   48.5860 H   0  0  0  0  0  0  0  0  0  0  0  0
   33.1860   29.5970   47.1130 C   0  0  0  0  0  0  0  0  0  0  0  0
   32.1380   28.7030   46.8660 C   0  0  0  0  0  0  0  0  0  0  0  0
   32.0100   27.7090   47.3200 H   0  0  0  0  0  0  0  0  0  0  0  0
   31.2610   29.1840   45.9850 N   0  0  0  0  0  0  0  0  0  0  0  0
   30.4000   28.7190   45.6350 H   0  0  0  0  0  0  0  0  0  0  0  0
   31.7310   30.3970   45.6510 C   0  0  0  0  0  0  0  0  0  0  0  0
   31.2560   31.0730   44.9470 H   0  0  0  0  0  0  0  0  0  0  0  0
   32.8680   30.6170   46.3320 N   0  0  0  0  0  0  0  0  0  0  0  0
  1 21  1  0  0  0  0
  2  3  1  0  0  0  0
  3  4  2  0  0  0  0
  3  1  1  0  0  0  0
  4  8  1  0  0  0  0
  5  9  1  0  0  0  0
  5  4  1  0  0  0  0
  6  5  2  0  0  0  0
  7  2  2  0  0  0  0
  7  6  1  0  0  0  0
 10  6  1  0  0  0  0
 11  7  1  0  0  0  0
 12 11  2  0  0  0  0
 12 16  1  0  0  0  0
 13 12  1  0  0  0  0
 14 13  2  0  0  0  0
 14 15  1  0  0  0  0
 15 11  1  0  0  0  0
 17 13  1  0  0  0  0
 18 14  1  0  0  0  0
 19 20  3  0  0  0  0
 20  2  1  0  0  0  0
 21 26  1  0  0  0  0
 22 21  2  0  0  0  0
 22 23  1  0  0  0  0
 23 24  2  0  0  0  0
 24 25  1  0  0  0  0
 25 28  1  0  0  0  0
 26 25  2  0  0  0  0
 27 23  1  0  0  0  0
 29 31  1  0  0  0  0
 30 29  2  0  0  0  0
 31 22  1  0  0  0  0
 32 31  1  0  0  0  0
 33 29  1  0  0  0  0
 34 33  2  0  0  0  0
 34 35  1  0  0  0  0
 36 34  1  0  0  0  0
 37 36  1  0  0  0  0
 38 36  1  0  0  0  0
 38 40  2  0  0  0  0
 39 38  1  0  0  0  0
 40 33  1  0  0  0  0
M  END
>  <minimizedAffinity>
-5.9859252

>  <minimizedRMSD>
0.489231616

$$$$
