
 OpenBabel03272507403D

 40 43  0  0  0  0  0  0  0  0999 V2000
   36.7830   32.2870   49.2480 O   0  0  0  0  0  0  0  0  0  0  0  0
   38.2550   32.2580   47.2730 C   0  0  0  0  0  0  0  0  0  0  0  0
   37.8880   32.6960   48.5340 C   0  0  0  0  0  0  0  0  0  0  0  0
   38.6560   33.6320   49.2060 C   0  0  0  0  0  0  0  0  0  0  0  0
   39.8060   34.1330   48.5990 C   0  0  0  0  0  0  0  0  0  0  0  0
   40.1660   33.6940   47.3430 C   0  0  0  0  0  0  0  0  0  0  0  0
   39.3770   32.7630   46.7090 C   0  0  0  0  0  0  0  0  0  0  0  0
   38.4430   34.0180   50.1710 H   0  0  0  0  0  0  0  0  0  0  0  0
   40.4220   34.8670   49.1040 H   0  0  0  0  0  0  0  0  0  0  0  0
   41.0540   34.0770   46.8680 H   0  0  0  0  0  0  0  0  0  0  0  0
   39.7770   32.2990   45.3600 C   0  0  0  0  0  0  0  0  0  0  0  0
   40.5920   31.2470   45.0070 C   0  0  0  0  0  0  0  0  0  0  0  0
   40.6590   31.2220   43.6170 C   0  0  0  0  0  0  0  0  0  0  0  0
   39.8710   32.2740   43.2100 C   0  0  0  0  0  0  0  0  0  0  0  0
   39.3570   32.9000   44.2570 O   0  0  0  0  0  0  0  0  0  0  0  0
   41.0760   30.5810   45.6910 H   0  0  0  0  0  0  0  0  0  0  0  0
   41.2110   30.5280   42.9860 H   0  0  0  0  0  0  0  0  0  0  0  0
   39.6540   32.6050   42.2110 H   0  0  0  0  0  0  0  0  0  0  0  0
   36.7270   30.5250   46.1410 N   0  0  0  0  0  0  0  0  0  0  0  0
   37.4060   31.2920   46.6550 C   0  0  0  0  0  0  0  0  0  0  0  0
   36.7560   31.2290   50.0970 C   0  0  0  0  0  0  0  0  0  0  0  0
   35.7040   30.3540   49.8240 C   0  0  0  0  0  0  0  0  0  0  0  0
   35.5060   29.2160   50.5780 C   0  0  0  0  0  0  0  0  0  0  0  0
   36.3800   28.9840   51.5960 N   0  0  0  0  0  0  0  0  0  0  0  0
   37.4050   29.8510   51.8490 C   0  0  0  0  0  0  0  0  0  0  0  0
   37.5670   30.9300   51.1110 N   0  0  0  0  0  0  0  0  0  0  0  0
   34.7360   28.4990   50.4410 H   0  0  0  0  0  0  0  0  0  0  0  0
   38.0600   29.6100   52.6700 H   0  0  0  0  0  0  0  0  0  0  0  0
   34.3270   29.3840   48.0340 C   0  0  0  0  0  0  0  0  0  0  0  0
   34.7610   28.1490   47.9790 O   0  0  0  0  0  0  0  0  0  0  0  0
   34.7580   30.4950   48.8020 N   0  0  0  0  0  0  0  0  0  0  0  0
   34.3540   31.4200   48.5870 H   0  0  0  0  0  0  0  0  0  0  0  0
   33.1860   29.5960   47.1150 C   0  0  0  0  0  0  0  0  0  0  0  0
   32.1380   28.7020   46.8690 C   0  0  0  0  0  0  0  0  0  0  0  0
   32.0090   27.7100   47.3230 H   0  0  0  0  0  0  0  0  0  0  0  0
   31.2620   29.1840   45.9880 N   0  0  0  0  0  0  0  0  0  0  0  0
   30.4000   28.7190   45.6370 H   0  0  0  0  0  0  0  0  0  0  0  0
   31.7320   30.3960   45.6520 C   0  0  0  0  0  0  0  0  0  0  0  0
   31.2580   31.0720   44.9470 H   0  0  0  0  0  0  0  0  0  0  0  0
   32.8700   30.6150   46.3320 N   0  0  0  0  0  0  0  0  0  0  0  0
  1 21  1  0  0  0  0
  2  3  1  0  0  0  0
  3  4  2  0  0  0  0
  3  1  1  0  0  0  0
  4  8  1  0  0  0  0
  5  9  1  0  0  0  0
  5  4  1  0  0  0  0
  6  5  2  0  0  0  0
  7  2  2  0  0  0  0
  7  6  1  0  0  0  0
 10  6  1  0  0  0  0
 11  7  1  0  0  0  0
 12 11  2  0  0  0  0
 12 16  1  0  0  0  0
 13 12  1  0  0  0  0
 14 13  2  0  0  0  0
 14 15  1  0  0  0  0
 15 11  1  0  0  0  0
 17 13  1  0  0  0  0
 18 14  1  0  0  0  0
 19 20  3  0  0  0  0
 20  2  1  0  0  0  0
 21 26  1  0  0  0  0
 22 21  2  0  0  0  0
 22 23  1  0  0  0  0
 23 24  2  0  0  0  0
 24 25  1  0  0  0  0
 25 28  1  0  0  0  0
 26 25  2  0  0  0  0
 27 23  1  0  0  0  0
 29 31  1  0  0  0  0
 30 29  2  0  0  0  0
 31 22  1  0  0  0  0
 32 31  1  0  0  0  0
 33 29  1  0  0  0  0
 34 33  2  0  0  0  0
 34 35  1  0  0  0  0
 36 34  1  0  0  0  0
 37 36  1  0  0  0  0
 38 36  1  0  0  0  0
 38 40  2  0  0  0  0
 39 38  1  0  0  0  0
 40 33  1  0  0  0  0
M  END
>  <minimizedAffinity>
-5.99112797

>  <minimizedRMSD>
0.367280394

$$$$
