
 OpenBabel03272507413D

 40 43  0  0  0  0  0  0  0  0999 V2000
   36.8560   32.2950   49.3140 O   0  0  0  0  0  0  0  0  0  0  0  0
   38.2910   32.2770   47.3110 C   0  0  0  0  0  0  0  0  0  0  0  0
   37.9440   32.7130   48.5780 C   0  0  0  0  0  0  0  0  0  0  0  0
   38.7150   33.6580   49.2340 C   0  0  0  0  0  0  0  0  0  0  0  0
   39.8490   34.1690   48.6050 C   0  0  0  0  0  0  0  0  0  0  0  0
   40.1890   33.7320   47.3430 C   0  0  0  0  0  0  0  0  0  0  0  0
   39.3970   32.7930   46.7260 C   0  0  0  0  0  0  0  0  0  0  0  0
   38.5170   34.0430   50.2030 H   0  0  0  0  0  0  0  0  0  0  0  0
   40.4670   34.9090   49.0980 H   0  0  0  0  0  0  0  0  0  0  0  0
   41.0640   34.1230   46.8510 H   0  0  0  0  0  0  0  0  0  0  0  0
   39.7760   32.3300   45.3690 C   0  0  0  0  0  0  0  0  0  0  0  0
   40.5960   31.2860   45.0030 C   0  0  0  0  0  0  0  0  0  0  0  0
   40.6360   31.2600   43.6120 C   0  0  0  0  0  0  0  0  0  0  0  0
   39.8280   32.3020   43.2180 C   0  0  0  0  0  0  0  0  0  0  0  0
   39.3280   32.9250   44.2740 O   0  0  0  0  0  0  0  0  0  0  0  0
   41.1000   30.6270   45.6790 H   0  0  0  0  0  0  0  0  0  0  0  0
   41.1820   30.5700   42.9710 H   0  0  0  0  0  0  0  0  0  0  0  0
   39.5870   32.6290   42.2230 H   0  0  0  0  0  0  0  0  0  0  0  0
   36.7590   30.5270   46.2110 N   0  0  0  0  0  0  0  0  0  0  0  0
   37.4390   31.3020   46.7110 C   0  0  0  0  0  0  0  0  0  0  0  0
   36.8490   31.2240   50.1470 C   0  0  0  0  0  0  0  0  0  0  0  0
   35.7810   30.3620   49.8990 C   0  0  0  0  0  0  0  0  0  0  0  0
   35.5990   29.2150   50.6420 C   0  0  0  0  0  0  0  0  0  0  0  0
   36.5060   28.9600   51.6250 N   0  0  0  0  0  0  0  0  0  0  0  0
   37.5470   29.8140   51.8550 C   0  0  0  0  0  0  0  0  0  0  0  0
   37.6930   30.9030   51.1280 N   0  0  0  0  0  0  0  0  0  0  0  0
   34.8180   28.5070   50.5210 H   0  0  0  0  0  0  0  0  0  0  0  0
   38.2280   29.5550   52.6480 H   0  0  0  0  0  0  0  0  0  0  0  0
   34.3650   29.4400   48.1150 C   0  0  0  0  0  0  0  0  0  0  0  0
   34.8170   28.2160   47.9960 O   0  0  0  0  0  0  0  0  0  0  0  0
   34.8010   30.5280   48.9130 N   0  0  0  0  0  0  0  0  0  0  0  0
   34.3750   31.4530   48.7470 H   0  0  0  0  0  0  0  0  0  0  0  0
   33.1920   29.6690   47.2400 C   0  0  0  0  0  0  0  0  0  0  0  0
   32.0390   28.8780   47.1700 C   0  0  0  0  0  0  0  0  0  0  0  0
   31.8350   27.9700   47.7560 H   0  0  0  0  0  0  0  0  0  0  0  0
   31.1600   29.3460   46.2830 N   0  0  0  0  0  0  0  0  0  0  0  0
   30.2320   28.9440   46.0440 H   0  0  0  0  0  0  0  0  0  0  0  0
   31.7340   30.4450   45.7680 C   0  0  0  0  0  0  0  0  0  0  0  0
   31.2880   31.0800   45.0100 H   0  0  0  0  0  0  0  0  0  0  0  0
   32.9330   30.6140   46.3500 N   0  0  0  0  0  0  0  0  0  0  0  0
  1 21  1  0  0  0  0
  2  3  1  0  0  0  0
  3  4  2  0  0  0  0
  3  1  1  0  0  0  0
  4  8  1  0  0  0  0
  5  9  1  0  0  0  0
  5  4  1  0  0  0  0
  6  5  2  0  0  0  0
  7  2  2  0  0  0  0
  7  6  1  0  0  0  0
 10  6  1  0  0  0  0
 11  7  1  0  0  0  0
 12 11  2  0  0  0  0
 12 16  1  0  0  0  0
 13 12  1  0  0  0  0
 14 13  2  0  0  0  0
 14 15  1  0  0  0  0
 15 11  1  0  0  0  0
 17 13  1  0  0  0  0
 18 14  1  0  0  0  0
 19 20  3  0  0  0  0
 20  2  1  0  0  0  0
 21 26  1  0  0  0  0
 22 21  2  0  0  0  0
 22 23  1  0  0  0  0
 23 24  2  0  0  0  0
 24 25  1  0  0  0  0
 25 28  1  0  0  0  0
 26 25  2  0  0  0  0
 27 23  1  0  0  0  0
 29 31  1  0  0  0  0
 30 29  2  0  0  0  0
 31 22  1  0  0  0  0
 32 31  1  0  0  0  0
 33 29  1  0  0  0  0
 34 33  2  0  0  0  0
 34 35  1  0  0  0  0
 36 34  1  0  0  0  0
 37 36  1  0  0  0  0
 38 36  1  0  0  0  0
 38 40  2  0  0  0  0
 39 38  1  0  0  0  0
 40 33  1  0  0  0  0
M  END
>  <minimizedAffinity>
-5.92041016

>  <minimizedRMSD>
0.306019992

$$$$
