
 OpenBabel03272507413D

 40 43  0  0  0  0  0  0  0  0999 V2000
   36.7920   32.2490   49.1320 O   0  0  0  0  0  0  0  0  0  0  0  0
   38.2550   32.1860   47.1510 C   0  0  0  0  0  0  0  0  0  0  0  0
   37.8980   32.6390   48.4090 C   0  0  0  0  0  0  0  0  0  0  0  0
   38.6770   33.5760   49.0690 C   0  0  0  0  0  0  0  0  0  0  0  0
   39.8290   34.0600   48.4520 C   0  0  0  0  0  0  0  0  0  0  0  0
   40.1800   33.6040   47.1990 C   0  0  0  0  0  0  0  0  0  0  0  0
   39.3800   32.6740   46.5790 C   0  0  0  0  0  0  0  0  0  0  0  0
   38.4720   33.9730   50.0300 H   0  0  0  0  0  0  0  0  0  0  0  0
   40.4540   34.7920   48.9470 H   0  0  0  0  0  0  0  0  0  0  0  0
   41.0700   33.9740   46.7170 H   0  0  0  0  0  0  0  0  0  0  0  0
   39.7700   32.1920   45.2320 C   0  0  0  0  0  0  0  0  0  0  0  0
   40.6370   31.1790   44.8880 C   0  0  0  0  0  0  0  0  0  0  0  0
   40.6670   31.1160   43.4970 C   0  0  0  0  0  0  0  0  0  0  0  0
   39.8080   32.1060   43.0820 C   0  0  0  0  0  0  0  0  0  0  0  0
   39.2860   32.7330   44.1250 O   0  0  0  0  0  0  0  0  0  0  0  0
   41.1780   30.5640   45.5770 H   0  0  0  0  0  0  0  0  0  0  0  0
   41.2420   30.4350   42.8710 H   0  0  0  0  0  0  0  0  0  0  0  0
   39.5430   32.3920   42.0810 H   0  0  0  0  0  0  0  0  0  0  0  0
   36.7070   30.4540   46.0440 N   0  0  0  0  0  0  0  0  0  0  0  0
   37.3950   31.2200   46.5470 C   0  0  0  0  0  0  0  0  0  0  0  0
   36.7700   31.2250   50.0230 C   0  0  0  0  0  0  0  0  0  0  0  0
   35.7180   30.3390   49.7900 C   0  0  0  0  0  0  0  0  0  0  0  0
   35.5240   29.2320   50.5910 C   0  0  0  0  0  0  0  0  0  0  0  0
   36.4020   29.0420   51.6120 N   0  0  0  0  0  0  0  0  0  0  0  0
   37.4280   29.9190   51.8260 C   0  0  0  0  0  0  0  0  0  0  0  0
   37.5860   30.9680   51.0450 N   0  0  0  0  0  0  0  0  0  0  0  0
   34.7540   28.5090   50.4850 H   0  0  0  0  0  0  0  0  0  0  0  0
   38.0870   29.7110   52.6530 H   0  0  0  0  0  0  0  0  0  0  0  0
   34.3080   29.2920   48.0710 C   0  0  0  0  0  0  0  0  0  0  0  0
   34.7170   28.0480   48.0860 O   0  0  0  0  0  0  0  0  0  0  0  0
   34.7670   30.4380   48.7670 N   0  0  0  0  0  0  0  0  0  0  0  0
   34.3800   31.3570   48.5000 H   0  0  0  0  0  0  0  0  0  0  0  0
   33.1650   29.4730   47.1470 C   0  0  0  0  0  0  0  0  0  0  0  0
   32.9740   30.5330   46.2550 C   0  0  0  0  0  0  0  0  0  0  0  0
   33.6490   31.3900   46.1090 H   0  0  0  0  0  0  0  0  0  0  0  0
   31.8450   30.4110   45.5580 N   0  0  0  0  0  0  0  0  0  0  0  0
   31.4760   31.0600   44.8360 H   0  0  0  0  0  0  0  0  0  0  0  0
   31.2890   29.2680   45.9920 C   0  0  0  0  0  0  0  0  0  0  0  0
   30.3500   28.8600   45.6320 H   0  0  0  0  0  0  0  0  0  0  0  0
   32.0890   28.7340   46.9310 N   0  0  0  0  0  0  0  0  0  0  0  0
  1 21  1  0  0  0  0
  2  3  1  0  0  0  0
  3  4  2  0  0  0  0
  3  1  1  0  0  0  0
  4  8  1  0  0  0  0
  5  9  1  0  0  0  0
  5  4  1  0  0  0  0
  6  5  2  0  0  0  0
  7  2  2  0  0  0  0
  7  6  1  0  0  0  0
 10  6  1  0  0  0  0
 11  7  1  0  0  0  0
 12 11  2  0  0  0  0
 12 16  1  0  0  0  0
 13 12  1  0  0  0  0
 14 13  2  0  0  0  0
 14 15  1  0  0  0  0
 15 11  1  0  0  0  0
 17 13  1  0  0  0  0
 18 14  1  0  0  0  0
 19 20  3  0  0  0  0
 20  2  1  0  0  0  0
 21 26  1  0  0  0  0
 22 21  2  0  0  0  0
 22 23  1  0  0  0  0
 23 24  2  0  0  0  0
 24 25  1  0  0  0  0
 25 28  1  0  0  0  0
 26 25  2  0  0  0  0
 27 23  1  0  0  0  0
 29 30  2  0  0  0  0
 29 31  1  0  0  0  0
 31 22  1  0  0  0  0
 32 31  1  0  0  0  0
 33 29  1  0  0  0  0
 34 33  2  0  0  0  0
 35 34  1  0  0  0  0
 36 38  1  0  0  0  0
 36 34  1  0  0  0  0
 37 36  1  0  0  0  0
 38 40  2  0  0  0  0
 39 38  1  0  0  0  0
 40 33  1  0  0  0  0
M  END
>  <minimizedAffinity>
-5.94855118

>  <minimizedRMSD>
0.509347796

$$$$
