
 OpenBabel03272507403D

 40 43  0  0  0  0  0  0  0  0999 V2000
   36.7830   32.2870   49.2460 O   0  0  0  0  0  0  0  0  0  0  0  0
   38.2540   32.2580   47.2700 C   0  0  0  0  0  0  0  0  0  0  0  0
   37.8880   32.6950   48.5320 C   0  0  0  0  0  0  0  0  0  0  0  0
   38.6560   33.6320   49.2040 C   0  0  0  0  0  0  0  0  0  0  0  0
   39.8070   34.1320   48.5970 C   0  0  0  0  0  0  0  0  0  0  0  0
   40.1660   33.6930   47.3400 C   0  0  0  0  0  0  0  0  0  0  0  0
   39.3770   32.7630   46.7070 C   0  0  0  0  0  0  0  0  0  0  0  0
   38.4440   34.0170   50.1690 H   0  0  0  0  0  0  0  0  0  0  0  0
   40.4230   34.8650   49.1020 H   0  0  0  0  0  0  0  0  0  0  0  0
   41.0540   34.0760   46.8660 H   0  0  0  0  0  0  0  0  0  0  0  0
   39.7760   32.2990   45.3570 C   0  0  0  0  0  0  0  0  0  0  0  0
   40.5960   31.2500   45.0040 C   0  0  0  0  0  0  0  0  0  0  0  0
   40.6600   31.2240   43.6140 C   0  0  0  0  0  0  0  0  0  0  0  0
   39.8660   32.2710   43.2070 C   0  0  0  0  0  0  0  0  0  0  0  0
   39.3510   32.8970   44.2540 O   0  0  0  0  0  0  0  0  0  0  0  0
   41.0840   30.5870   45.6880 H   0  0  0  0  0  0  0  0  0  0  0  0
   41.2140   30.5320   42.9830 H   0  0  0  0  0  0  0  0  0  0  0  0
   39.6450   32.6000   42.2080 H   0  0  0  0  0  0  0  0  0  0  0  0
   36.7260   30.5250   46.1380 N   0  0  0  0  0  0  0  0  0  0  0  0
   37.4050   31.2920   46.6530 C   0  0  0  0  0  0  0  0  0  0  0  0
   36.7560   31.2300   50.0960 C   0  0  0  0  0  0  0  0  0  0  0  0
   35.7050   30.3540   49.8230 C   0  0  0  0  0  0  0  0  0  0  0  0
   35.5070   29.2160   50.5780 C   0  0  0  0  0  0  0  0  0  0  0  0
   36.3800   28.9850   51.5960 N   0  0  0  0  0  0  0  0  0  0  0  0
   37.4050   29.8530   51.8490 C   0  0  0  0  0  0  0  0  0  0  0  0
   37.5670   30.9310   51.1100 N   0  0  0  0  0  0  0  0  0  0  0  0
   34.7370   28.4990   50.4410 H   0  0  0  0  0  0  0  0  0  0  0  0
   38.0600   29.6120   52.6700 H   0  0  0  0  0  0  0  0  0  0  0  0
   34.3270   29.3820   48.0350 C   0  0  0  0  0  0  0  0  0  0  0  0
   34.7590   28.1460   47.9820 O   0  0  0  0  0  0  0  0  0  0  0  0
   34.7580   30.4940   48.8010 N   0  0  0  0  0  0  0  0  0  0  0  0
   34.3550   31.4190   48.5840 H   0  0  0  0  0  0  0  0  0  0  0  0
   33.1860   29.5940   47.1150 C   0  0  0  0  0  0  0  0  0  0  0  0
   32.1390   28.6990   46.8680 C   0  0  0  0  0  0  0  0  0  0  0  0
   32.0100   27.7060   47.3230 H   0  0  0  0  0  0  0  0  0  0  0  0
   31.2630   29.1810   45.9860 N   0  0  0  0  0  0  0  0  0  0  0  0
   30.4020   28.7150   45.6350 H   0  0  0  0  0  0  0  0  0  0  0  0
   31.7320   30.3930   45.6520 C   0  0  0  0  0  0  0  0  0  0  0  0
   31.2580   31.0680   44.9470 H   0  0  0  0  0  0  0  0  0  0  0  0
   32.8690   30.6130   46.3330 N   0  0  0  0  0  0  0  0  0  0  0  0
  1 21  1  0  0  0  0
  2  3  1  0  0  0  0
  3  4  2  0  0  0  0
  3  1  1  0  0  0  0
  4  8  1  0  0  0  0
  5  9  1  0  0  0  0
  5  4  1  0  0  0  0
  6  5  2  0  0  0  0
  7  2  2  0  0  0  0
  7  6  1  0  0  0  0
 10  6  1  0  0  0  0
 11  7  1  0  0  0  0
 12 11  2  0  0  0  0
 12 16  1  0  0  0  0
 13 12  1  0  0  0  0
 14 13  2  0  0  0  0
 14 15  1  0  0  0  0
 15 11  1  0  0  0  0
 17 13  1  0  0  0  0
 18 14  1  0  0  0  0
 19 20  3  0  0  0  0
 20  2  1  0  0  0  0
 21 26  1  0  0  0  0
 22 21  2  0  0  0  0
 22 23  1  0  0  0  0
 23 24  2  0  0  0  0
 24 25  1  0  0  0  0
 25 28  1  0  0  0  0
 26 25  2  0  0  0  0
 27 23  1  0  0  0  0
 29 31  1  0  0  0  0
 30 29  2  0  0  0  0
 31 22  1  0  0  0  0
 32 31  1  0  0  0  0
 33 29  1  0  0  0  0
 34 33  2  0  0  0  0
 34 35  1  0  0  0  0
 36 34  1  0  0  0  0
 37 36  1  0  0  0  0
 38 36  1  0  0  0  0
 38 40  2  0  0  0  0
 39 38  1  0  0  0  0
 40 33  1  0  0  0  0
M  END
>  <minimizedAffinity>
-5.98438263

>  <minimizedRMSD>
0.374057561

$$$$
