
 OpenBabel03272507123D

 39 43  0  0  0  0  0  0  0  0999 V2000
   35.7660   29.1950   49.8530 C   0  0  0  0  0  0  0  0  0  0  0  0
   34.7050   29.6960   50.5530 C   0  0  0  0  0  0  0  0  0  0  0  0
   33.5500   29.0930   50.0420 C   0  0  0  0  0  0  0  0  0  0  0  0
   33.9970   28.2420   49.0380 C   0  0  0  0  0  0  0  0  0  0  0  0
   35.2950   28.3530   48.9830 O   0  0  0  0  0  0  0  0  0  0  0  0
   34.7060   30.4320   51.3680 H   0  0  0  0  0  0  0  0  0  0  0  0
   32.5570   29.3140   50.4220 H   0  0  0  0  0  0  0  0  0  0  0  0
   33.5370   26.4540   47.3640 C   0  0  0  0  0  0  0  0  0  0  0  0
   33.0970   27.4120   48.2390 C   0  0  0  0  0  0  0  0  0  0  0  0
   31.7400   27.6560   48.4180 C   0  0  0  0  0  0  0  0  0  0  0  0
   30.8330   26.9020   47.6850 C   0  0  0  0  0  0  0  0  0  0  0  0
   29.4960   26.9170   47.6510 N   0  0  0  0  0  0  0  0  0  0  0  0
   29.1080   25.9860   46.7710 N   0  0  0  0  0  0  0  0  0  0  0  0
   30.2100   25.3910   46.2580 C   0  0  0  0  0  0  0  0  0  0  0  0
   31.3250   25.9520   46.8200 C   0  0  0  0  0  0  0  0  0  0  0  0
   32.6710   25.6970   46.6300 C   0  0  0  0  0  0  0  0  0  0  0  0
   34.6010   26.3000   47.2590 H   0  0  0  0  0  0  0  0  0  0  0  0
   31.3080   28.4040   49.0980 H   0  0  0  0  0  0  0  0  0  0  0  0
   28.8460   27.5340   48.2020 H   0  0  0  0  0  0  0  0  0  0  0  0
   30.1720   24.6040   45.5240 H   0  0  0  0  0  0  0  0  0  0  0  0
   32.9960   24.9350   45.9350 H   0  0  0  0  0  0  0  0  0  0  0  0
   37.1290   29.6140   50.1310 C   0  0  0  0  0  0  0  0  0  0  0  0
   37.7440   29.0890   51.0780 O   0  0  0  0  0  0  0  0  0  0  0  0
   37.6950   30.6340   49.2710 C   0  0  0  0  0  0  0  0  0  0  0  0
   37.6820   31.9420   49.7460 C   0  0  0  0  0  0  0  0  0  0  0  0
   38.2170   32.9620   48.9510 C   0  0  0  0  0  0  0  0  0  0  0  0
   38.7290   32.5930   47.7350 N   0  0  0  0  0  0  0  0  0  0  0  0
   38.7330   31.3340   47.2970 C   0  0  0  0  0  0  0  0  0  0  0  0
   38.2150   30.3630   48.0700 N   0  0  0  0  0  0  0  0  0  0  0  0
   37.2900   32.2770   50.6960 H   0  0  0  0  0  0  0  0  0  0  0  0
   38.2290   33.9880   49.2770 H   0  0  0  0  0  0  0  0  0  0  0  0
   39.2810   30.9590   45.9970 C   0  0  0  0  0  0  0  0  0  0  0  0
   40.5720   31.2700   45.5950 C   0  0  0  0  0  0  0  0  0  0  0  0
   41.3200   31.8050   46.1550 H   0  0  0  0  0  0  0  0  0  0  0  0
   40.7140   30.7620   44.3430 N   0  0  0  0  0  0  0  0  0  0  0  0
   41.5820   30.8210   43.7390 H   0  0  0  0  0  0  0  0  0  0  0  0
   39.5640   30.1480   43.9470 C   0  0  0  0  0  0  0  0  0  0  0  0
   39.4020   29.6570   42.9900 H   0  0  0  0  0  0  0  0  0  0  0  0
   38.6940   30.2790   44.9760 N   0  0  0  0  0  0  0  0  0  0  0  0
  1 22  1  0  0  0  0
  1  2  2  0  0  0  0
  2  6  1  0  0  0  0
  3  7  1  0  0  0  0
  3  2  1  0  0  0  0
  4  3  2  0  0  0  0
  5  4  1  0  0  0  0
  5  1  1  0  0  0  0
  8  9  1  0  0  0  0
  9 10  2  0  0  0  0
  9  4  1  0  0  0  0
 10 18  1  0  0  0  0
 11 10  1  0  0  0  0
 12 11  1  0  0  0  0
 12 19  1  0  0  0  0
 13 12  1  0  0  0  0
 14 13  2  0  0  0  0
 14 15  1  0  0  0  0
 15 11  2  0  0  0  0
 16 15  1  0  0  0  0
 16  8  2  0  0  0  0
 17  8  1  0  0  0  0
 20 14  1  0  0  0  0
 21 16  1  0  0  0  0
 22 23  2  0  0  0  0
 24 25  1  0  0  0  0
 24 22  1  0  0  0  0
 25 30  1  0  0  0  0
 26 31  1  0  0  0  0
 26 25  2  0  0  0  0
 27 26  1  0  0  0  0
 28 27  2  0  0  0  0
 28 29  1  0  0  0  0
 29 24  2  0  0  0  0
 32 28  1  0  0  0  0
 33 32  2  0  0  0  0
 33 34  1  0  0  0  0
 35 33  1  0  0  0  0
 36 35  1  0  0  0  0
 37 35  1  0  0  0  0
 37 39  2  0  0  0  0
 38 37  1  0  0  0  0
 39 32  1  0  0  0  0
M  END
>  <minimizedAffinity>
-6.8929739

>  <minimizedRMSD>
0.507926226

$$$$
