
 OpenBabel03272507403D

 40 43  0  0  0  0  0  0  0  0999 V2000
   36.7660   32.2520   49.2190 O   0  0  0  0  0  0  0  0  0  0  0  0
   38.2360   32.2330   47.2420 C   0  0  0  0  0  0  0  0  0  0  0  0
   37.8700   32.6660   48.5050 C   0  0  0  0  0  0  0  0  0  0  0  0
   38.6360   33.6020   49.1790 C   0  0  0  0  0  0  0  0  0  0  0  0
   39.7840   34.1080   48.5720 C   0  0  0  0  0  0  0  0  0  0  0  0
   40.1440   33.6740   47.3140 C   0  0  0  0  0  0  0  0  0  0  0  0
   39.3570   32.7430   46.6790 C   0  0  0  0  0  0  0  0  0  0  0  0
   38.4230   33.9840   50.1450 H   0  0  0  0  0  0  0  0  0  0  0  0
   40.3990   34.8420   49.0790 H   0  0  0  0  0  0  0  0  0  0  0  0
   41.0300   34.0610   46.8400 H   0  0  0  0  0  0  0  0  0  0  0  0
   39.7570   32.2840   45.3270 C   0  0  0  0  0  0  0  0  0  0  0  0
   40.5970   31.2530   44.9720 C   0  0  0  0  0  0  0  0  0  0  0  0
   40.6510   31.2240   43.5810 C   0  0  0  0  0  0  0  0  0  0  0  0
   39.8310   32.2520   43.1760 C   0  0  0  0  0  0  0  0  0  0  0  0
   39.3090   32.8680   44.2260 O   0  0  0  0  0  0  0  0  0  0  0  0
   41.1060   30.6040   45.6540 H   0  0  0  0  0  0  0  0  0  0  0  0
   41.2160   30.5420   42.9470 H   0  0  0  0  0  0  0  0  0  0  0  0
   39.5940   32.5720   42.1780 H   0  0  0  0  0  0  0  0  0  0  0  0
   36.7120   30.4990   46.1060 N   0  0  0  0  0  0  0  0  0  0  0  0
   37.3890   31.2660   46.6220 C   0  0  0  0  0  0  0  0  0  0  0  0
   36.7520   31.2110   50.0880 C   0  0  0  0  0  0  0  0  0  0  0  0
   35.7120   30.3170   49.8300 C   0  0  0  0  0  0  0  0  0  0  0  0
   35.5270   29.1910   50.6060 C   0  0  0  0  0  0  0  0  0  0  0  0
   36.4010   28.9900   51.6300 N   0  0  0  0  0  0  0  0  0  0  0  0
   37.4140   29.8750   51.8680 C   0  0  0  0  0  0  0  0  0  0  0  0
   37.5640   30.9420   51.1090 N   0  0  0  0  0  0  0  0  0  0  0  0
   34.7670   28.4620   50.4820 H   0  0  0  0  0  0  0  0  0  0  0  0
   38.0710   29.6580   52.6940 H   0  0  0  0  0  0  0  0  0  0  0  0
   34.3160   29.2870   48.0900 C   0  0  0  0  0  0  0  0  0  0  0  0
   34.7290   28.0440   48.0910 O   0  0  0  0  0  0  0  0  0  0  0  0
   34.7660   30.4260   48.8040 N   0  0  0  0  0  0  0  0  0  0  0  0
   34.3760   31.3460   48.5460 H   0  0  0  0  0  0  0  0  0  0  0  0
   33.1760   29.4750   47.1630 C   0  0  0  0  0  0  0  0  0  0  0  0
   32.9950   30.5370   46.2710 C   0  0  0  0  0  0  0  0  0  0  0  0
   33.6760   31.3900   46.1280 H   0  0  0  0  0  0  0  0  0  0  0  0
   31.8680   30.4220   45.5700 N   0  0  0  0  0  0  0  0  0  0  0  0
   31.5050   31.0750   44.8470 H   0  0  0  0  0  0  0  0  0  0  0  0
   31.3030   29.2830   46.0000 C   0  0  0  0  0  0  0  0  0  0  0  0
   30.3620   28.8800   45.6380 H   0  0  0  0  0  0  0  0  0  0  0  0
   32.0970   28.7420   46.9410 N   0  0  0  0  0  0  0  0  0  0  0  0
  1 21  1  0  0  0  0
  2  3  1  0  0  0  0
  3  4  2  0  0  0  0
  3  1  1  0  0  0  0
  4  8  1  0  0  0  0
  5  9  1  0  0  0  0
  5  4  1  0  0  0  0
  6  5  2  0  0  0  0
  7  2  2  0  0  0  0
  7  6  1  0  0  0  0
 10  6  1  0  0  0  0
 11  7  1  0  0  0  0
 12 11  2  0  0  0  0
 12 16  1  0  0  0  0
 13 12  1  0  0  0  0
 14 13  2  0  0  0  0
 14 15  1  0  0  0  0
 15 11  1  0  0  0  0
 17 13  1  0  0  0  0
 18 14  1  0  0  0  0
 19 20  3  0  0  0  0
 20  2  1  0  0  0  0
 21 26  1  0  0  0  0
 22 21  2  0  0  0  0
 22 23  1  0  0  0  0
 23 24  2  0  0  0  0
 24 25  1  0  0  0  0
 25 28  1  0  0  0  0
 26 25  2  0  0  0  0
 27 23  1  0  0  0  0
 29 30  2  0  0  0  0
 29 31  1  0  0  0  0
 31 22  1  0  0  0  0
 32 31  1  0  0  0  0
 33 29  1  0  0  0  0
 34 33  2  0  0  0  0
 35 34  1  0  0  0  0
 36 38  1  0  0  0  0
 36 34  1  0  0  0  0
 37 36  1  0  0  0  0
 38 40  2  0  0  0  0
 39 38  1  0  0  0  0
 40 33  1  0  0  0  0
M  END
>  <minimizedAffinity>
-5.96566868

>  <minimizedRMSD>
0.423096448

$$$$
