REMARK  Name = 
REMARK  4 active torsions:
REMARK  status: ('A' for Active; 'I' for Inactive)
REMARK    1  A    between atoms: C_1  and  C_15
REMARK    2  A    between atoms: C_4  and  C_7
REMARK    3  A    between atoms: C_15  and  C_17
REMARK    4  A    between atoms: C_21  and  C_32
REMARK                            x       y       z     vdW  Elec       q    Type
REMARK                         _______ _______ _______ _____ _____    ______ ____
ROOT
ATOM      1  C   UNL     1      35.860  29.120  49.812  0.00  0.00    +0.000 A 
ATOM      2  C   UNL     1      34.825  29.616  50.553  0.00  0.00    +0.000 A 
ATOM      3  C   UNL     1      33.650  29.034  50.063  0.00  0.00    +0.000 A 
ATOM      4  C   UNL     1      34.060  28.201  49.029  0.00  0.00    +0.000 A 
ATOM      5  O   UNL     1      35.356  28.301  48.939  0.00  0.00    +0.000 OA
ATOM      6  H   UNL     1      34.857  30.334  51.383  0.00  0.00    +0.000 HD
ATOM      7  H   UNL     1      32.671  29.256  50.476  0.00  0.00    +0.000 HD
ENDROOT
BRANCH   4   9
ATOM      8  C   UNL     1      33.533  26.431  47.355  0.00  0.00    +0.000 A 
ATOM      9  C   UNL     1      33.129  27.396  48.239  0.00  0.00    +0.000 A 
ATOM     10  C   UNL     1      31.781  27.672  48.438  0.00  0.00    +0.000 A 
ATOM     11  C   UNL     1      30.846  26.943  47.715  0.00  0.00    +0.000 A 
ATOM     12  N   UNL     1      29.509  26.991  47.699  0.00  0.00    +0.000 N 
ATOM     13  N   UNL     1      29.087  26.073  46.821  0.00  0.00    +0.000 NA
ATOM     14  C   UNL     1      30.167  25.454  46.290  0.00  0.00    +0.000 A 
ATOM     15  C   UNL     1      31.303  25.985  46.839  0.00  0.00    +0.000 A 
ATOM     16  C   UNL     1      32.639  25.698  46.630  0.00  0.00    +0.000 A 
ATOM     17  H   UNL     1      34.592  26.252  47.234  0.00  0.00    +0.000 HD
ATOM     18  H   UNL     1      31.376  28.427  49.127  0.00  0.00    +0.000 HD
ATOM     19  H   UNL     1      28.882  27.621  48.261  0.00  0.00    +0.000 HD
ATOM     20  H   UNL     1      30.100  24.671  45.554  0.00  0.00    +0.000 HD
ATOM     21  H   UNL     1      32.936  24.932  45.927  0.00  0.00    +0.000 HD
ENDBRANCH   4   9
BRANCH   1  22
ATOM     22  C   UNL     1      37.235  29.520  50.059  0.00  0.00    +0.000 C 
ATOM     23  O   UNL     1      37.875  28.964  50.971  0.00  0.00    +0.000 OA
BRANCH  22  24
ATOM     24  C   UNL     1      37.783  30.560  49.211  0.00  0.00    +0.000 A 
ATOM     25  C   UNL     1      38.127  31.762  49.823  0.00  0.00    +0.000 A 
ATOM     26  C   UNL     1      38.659  32.796  49.046  0.00  0.00    +0.000 A 
ATOM     27  N   UNL     1      38.809  32.548  47.707  0.00  0.00    +0.000 NA
ATOM     28  C   UNL     1      38.474  31.390  47.138  0.00  0.00    +0.000 A 
ATOM     29  N   UNL     1      37.963  30.404  47.896  0.00  0.00    +0.000 NA
ATOM     30  H   UNL     1      38.026  32.000  50.873  0.00  0.00    +0.000 HD
ATOM     31  H   UNL     1      38.940  33.742  49.476  0.00  0.00    +0.000 HD
BRANCH  28  32
ATOM     32  C   UNL     1      38.640  31.143  45.709  0.00  0.00    +0.000 A 
ATOM     33  C   UNL     1      39.499  31.875  44.902  0.00  0.00    +0.000 A 
ATOM     34  H   UNL     1      40.137  32.690  45.198  0.00  0.00    +0.000 HD
ATOM     35  N   UNL     1      39.380  31.358  43.651  0.00  0.00    +0.000 N 
ATOM     36  H   UNL     1      39.900  31.686  42.788  0.00  0.00    +0.000 HD
ATOM     37  C   UNL     1      38.482  30.334  43.644  0.00  0.00    +0.000 A 
ATOM     38  H   UNL     1      38.196  29.745  42.776  0.00  0.00    +0.000 HD
ATOM     39  N   UNL     1      38.036  30.215  44.917  0.00  0.00    +0.000 NA
ENDBRANCH  28  32
ENDBRANCH  22  24
ENDBRANCH   1  22
TORSDOF 4
