
 OpenBabel03272507413D

 40 43  0  0  0  0  0  0  0  0999 V2000
   36.6700   32.2070   49.1710 O   0  0  0  0  0  0  0  0  0  0  0  0
   38.1850   32.1550   47.2290 C   0  0  0  0  0  0  0  0  0  0  0  0
   37.7920   32.6060   48.4770 C   0  0  0  0  0  0  0  0  0  0  0  0
   38.5470   33.5480   49.1560 C   0  0  0  0  0  0  0  0  0  0  0  0
   39.7110   34.0410   48.5690 C   0  0  0  0  0  0  0  0  0  0  0  0
   40.0970   33.5880   47.3260 C   0  0  0  0  0  0  0  0  0  0  0  0
   39.3200   32.6530   46.6850 C   0  0  0  0  0  0  0  0  0  0  0  0
   38.3140   33.9440   50.1120 H   0  0  0  0  0  0  0  0  0  0  0  0
   40.3170   34.7780   49.0800 H   0  0  0  0  0  0  0  0  0  0  0  0
   40.9960   33.9650   46.8670 H   0  0  0  0  0  0  0  0  0  0  0  0
   39.7480   32.1740   45.3490 C   0  0  0  0  0  0  0  0  0  0  0  0
   40.6000   31.1410   45.0260 C   0  0  0  0  0  0  0  0  0  0  0  0
   40.6820   31.0910   43.6370 C   0  0  0  0  0  0  0  0  0  0  0  0
   39.8650   32.1080   43.2010 C   0  0  0  0  0  0  0  0  0  0  0  0
   39.3210   32.7390   44.2300 O   0  0  0  0  0  0  0  0  0  0  0  0
   41.0970   30.5040   45.7290 H   0  0  0  0  0  0  0  0  0  0  0  0
   41.2610   30.4010   43.0260 H   0  0  0  0  0  0  0  0  0  0  0  0
   39.6470   32.4120   42.1930 H   0  0  0  0  0  0  0  0  0  0  0  0
   36.6780   30.4130   46.0820 N   0  0  0  0  0  0  0  0  0  0  0  0
   37.3470   31.1840   46.6030 C   0  0  0  0  0  0  0  0  0  0  0  0
   36.6330   31.1840   50.0620 C   0  0  0  0  0  0  0  0  0  0  0  0
   35.5550   30.3270   49.8440 C   0  0  0  0  0  0  0  0  0  0  0  0
   35.3420   29.2250   50.6470 C   0  0  0  0  0  0  0  0  0  0  0  0
   36.2300   29.0100   51.6560 N   0  0  0  0  0  0  0  0  0  0  0  0
   37.2820   29.8590   51.8550 C   0  0  0  0  0  0  0  0  0  0  0  0
   37.4570   30.9040   51.0720 N   0  0  0  0  0  0  0  0  0  0  0  0
   34.5520   28.5240   50.5530 H   0  0  0  0  0  0  0  0  0  0  0  0
   37.9470   29.6340   52.6720 H   0  0  0  0  0  0  0  0  0  0  0  0
   34.2250   29.3510   48.0220 C   0  0  0  0  0  0  0  0  0  0  0  0
   34.7350   28.1490   47.9090 O   0  0  0  0  0  0  0  0  0  0  0  0
   34.5920   30.4530   48.8350 N   0  0  0  0  0  0  0  0  0  0  0  0
   34.1290   31.3590   48.6640 H   0  0  0  0  0  0  0  0  0  0  0  0
   33.0650   29.5310   47.1200 C   0  0  0  0  0  0  0  0  0  0  0  0
   32.8470   30.6030   46.2490 C   0  0  0  0  0  0  0  0  0  0  0  0
   33.5070   31.4710   46.1070 H   0  0  0  0  0  0  0  0  0  0  0  0
   31.7080   30.4760   45.5680 N   0  0  0  0  0  0  0  0  0  0  0  0
   31.3190   31.1330   44.8620 H   0  0  0  0  0  0  0  0  0  0  0  0
   31.1740   29.3180   45.9910 C   0  0  0  0  0  0  0  0  0  0  0  0
   30.2340   28.9040   45.6390 H   0  0  0  0  0  0  0  0  0  0  0  0
   31.9950   28.7800   46.9080 N   0  0  0  0  0  0  0  0  0  0  0  0
  1 21  1  0  0  0  0
  2  3  1  0  0  0  0
  3  4  2  0  0  0  0
  3  1  1  0  0  0  0
  4  8  1  0  0  0  0
  5  9  1  0  0  0  0
  5  4  1  0  0  0  0
  6  5  2  0  0  0  0
  7  2  2  0  0  0  0
  7  6  1  0  0  0  0
 10  6  1  0  0  0  0
 11  7  1  0  0  0  0
 12 11  2  0  0  0  0
 12 16  1  0  0  0  0
 13 12  1  0  0  0  0
 14 13  2  0  0  0  0
 14 15  1  0  0  0  0
 15 11  1  0  0  0  0
 17 13  1  0  0  0  0
 18 14  1  0  0  0  0
 19 20  3  0  0  0  0
 20  2  1  0  0  0  0
 21 26  1  0  0  0  0
 22 21  2  0  0  0  0
 22 23  1  0  0  0  0
 23 24  2  0  0  0  0
 24 25  1  0  0  0  0
 25 28  1  0  0  0  0
 26 25  2  0  0  0  0
 27 23  1  0  0  0  0
 29 31  1  0  0  0  0
 30 29  2  0  0  0  0
 31 22  1  0  0  0  0
 32 31  1  0  0  0  0
 33 29  1  0  0  0  0
 34 33  2  0  0  0  0
 35 34  1  0  0  0  0
 36 38  1  0  0  0  0
 36 34  1  0  0  0  0
 37 36  1  0  0  0  0
 38 40  2  0  0  0  0
 39 38  1  0  0  0  0
 40 33  1  0  0  0  0
M  END
>  <minimizedAffinity>
-5.90932703

>  <minimizedRMSD>
0.414743811

$$$$
