
 OpenBabel03272501313D

 19 20  0  0  0  0  0  0  0  0999 V2000
   39.3400   24.5290   35.6250 C   0  0  0  0  0  0  0  0  0  0  0  0
   40.3600   24.1280   35.0310 O   0  0  0  0  0  0  0  0  0  0  0  0
   37.7050   27.8680   35.2770 C   0  0  0  0  0  0  0  0  0  0  0  0
   38.5110   26.8680   35.8290 C   0  0  0  0  0  0  0  0  0  0  0  0
   38.5320   25.6420   35.1370 C   0  0  0  0  0  0  0  0  0  0  0  0
   37.7800   25.5130   33.9990 N   0  0  0  0  0  0  0  0  0  0  0  0
   37.0310   26.5130   33.5280 C   0  0  0  0  0  0  0  0  0  0  0  0
   36.9850   27.6910   34.1570 N   0  0  0  0  0  0  0  0  0  0  0  0
   37.7070   28.8160   35.8370 H   0  0  0  0  0  0  0  0  0  0  0  0
   39.0970   26.9690   36.7180 H   0  0  0  0  0  0  0  0  0  0  0  0
   36.4330   26.4360   32.6370 H   0  0  0  0  0  0  0  0  0  0  0  0
   38.9320   23.8600   36.8590 C   0  0  0  0  0  0  0  0  0  0  0  0
   39.7080   22.9610   37.5830 C   0  0  0  0  0  0  0  0  0  0  0  0
   40.7050   22.6710   37.2920 H   0  0  0  0  0  0  0  0  0  0  0  0
   38.9510   22.6000   38.6270 N   0  0  0  0  0  0  0  0  0  0  0  0
   39.2990   21.9200   39.3440 H   0  0  0  0  0  0  0  0  0  0  0  0
   37.7520   23.2050   38.6130 C   0  0  0  0  0  0  0  0  0  0  0  0
   36.9530   23.0760   39.3560 H   0  0  0  0  0  0  0  0  0  0  0  0
   37.7560   23.9860   37.5070 N   0  0  0  0  0  0  0  0  0  0  0  0
  1 12  1  0  0  0  0
  2  1  2  0  0  0  0
  3  4  1  0  0  0  0
  3  9  1  0  0  0  0
  4 10  1  0  0  0  0
  5  1  1  0  0  0  0
  5  4  2  0  0  0  0
  6  5  1  0  0  0  0
  7  6  2  0  0  0  0
  7  8  1  0  0  0  0
  8  3  2  0  0  0  0
 11  7  1  0  0  0  0
 12 19  1  0  0  0  0
 12 13  2  0  0  0  0
 13 15  1  0  0  0  0
 14 13  1  0  0  0  0
 15 16  1  0  0  0  0
 17 15  1  0  0  0  0
 17 18  1  0  0  0  0
 19 17  2  0  0  0  0
M  END
>  <minimizedAffinity>
-4.02784967

$$$$

 OpenBabel03272501313D

 19 20  0  0  0  0  0  0  0  0999 V2000
   38.2780   23.6710   35.1730 C   0  0  0  0  0  0  0  0  0  0  0  0
   37.8320   22.8550   34.3420 O   0  0  0  0  0  0  0  0  0  0  0  0
   37.2690   27.0370   33.9080 C   0  0  0  0  0  0  0  0  0  0  0  0
   37.4290   25.6480   33.9190 C   0  0  0  0  0  0  0  0  0  0  0  0
   38.0590   25.1090   35.0570 C   0  0  0  0  0  0  0  0  0  0  0  0
   38.4660   25.9600   36.0520 N   0  0  0  0  0  0  0  0  0  0  0  0
   38.2800   27.2800   35.9730 C   0  0  0  0  0  0  0  0  0  0  0  0
   37.6850   27.8280   34.9100 N   0  0  0  0  0  0  0  0  0  0  0  0
   36.7730   27.4310   33.0080 H   0  0  0  0  0  0  0  0  0  0  0  0
   37.1120   24.9850   33.1420 H   0  0  0  0  0  0  0  0  0  0  0  0
   38.5890   27.9670   36.7410 H   0  0  0  0  0  0  0  0  0  0  0  0
   39.0490   23.1720   36.3100 C   0  0  0  0  0  0  0  0  0  0  0  0
   38.6000   23.1090   37.6240 C   0  0  0  0  0  0  0  0  0  0  0  0
   37.6160   23.4300   37.9300 H   0  0  0  0  0  0  0  0  0  0  0  0
   39.6180   22.5940   38.3240 N   0  0  0  0  0  0  0  0  0  0  0  0
   39.5460   22.4360   39.3570 H   0  0  0  0  0  0  0  0  0  0  0  0
   40.6800   22.3290   37.5450 C   0  0  0  0  0  0  0  0  0  0  0  0
   41.6380   21.9030   37.8790 H   0  0  0  0  0  0  0  0  0  0  0  0
   40.3100   22.6930   36.2950 N   0  0  0  0  0  0  0  0  0  0  0  0
  1 12  1  0  0  0  0
  2  1  2  0  0  0  0
  3  4  2  0  0  0  0
  3  8  1  0  0  0  0
  4  5  1  0  0  0  0
  5  1  1  0  0  0  0
  5  6  2  0  0  0  0
  7  6  1  0  0  0  0
  7 11  1  0  0  0  0
  8  7  2  0  0  0  0
  9  3  1  0  0  0  0
 10  4  1  0  0  0  0
 12 13  2  0  0  0  0
 13 14  1  0  0  0  0
 13 15  1  0  0  0  0
 15 16  1  0  0  0  0
 17 18  1  0  0  0  0
 17 15  1  0  0  0  0
 19 12  1  0  0  0  0
 19 17  2  0  0  0  0
M  END
>  <minimizedAffinity>
-3.93929482

$$$$

 OpenBabel03272501313D

 19 20  0  0  0  0  0  0  0  0999 V2000
   39.1560   23.8490   35.1740 C   0  0  0  0  0  0  0  0  0  0  0  0
   40.1550   24.5290   34.8660 O   0  0  0  0  0  0  0  0  0  0  0  0
   36.9170   21.5550   33.2580 C   0  0  0  0  0  0  0  0  0  0  0  0
   37.7960   21.9720   34.2620 C   0  0  0  0  0  0  0  0  0  0  0  0
   38.2360   23.3080   34.1790 C   0  0  0  0  0  0  0  0  0  0  0  0
   37.7870   24.0880   33.1460 N   0  0  0  0  0  0  0  0  0  0  0  0
   36.9450   23.6200   32.2200 C   0  0  0  0  0  0  0  0  0  0  0  0
   36.5060   22.3590   32.2660 N   0  0  0  0  0  0  0  0  0  0  0  0
   36.5890   20.5070   33.3480 H   0  0  0  0  0  0  0  0  0  0  0  0
   38.1480   21.3620   35.0670 H   0  0  0  0  0  0  0  0  0  0  0  0
   36.5780   24.2130   31.4010 H   0  0  0  0  0  0  0  0  0  0  0  0
   38.8910   23.5810   36.5860 C   0  0  0  0  0  0  0  0  0  0  0  0
   39.6990   22.8240   37.4290 C   0  0  0  0  0  0  0  0  0  0  0  0
   40.6160   22.3560   37.1070 H   0  0  0  0  0  0  0  0  0  0  0  0
   39.0840   22.8390   38.6180 N   0  0  0  0  0  0  0  0  0  0  0  0
   39.4860   22.3390   39.4460 H   0  0  0  0  0  0  0  0  0  0  0  0
   37.9460   23.5510   38.5870 C   0  0  0  0  0  0  0  0  0  0  0  0
   37.2610   23.7150   39.4320 H   0  0  0  0  0  0  0  0  0  0  0  0
   37.8390   24.0060   37.3160 N   0  0  0  0  0  0  0  0  0  0  0  0
  1 12  1  0  0  0  0
  2  1  2  0  0  0  0
  3  9  1  0  0  0  0
  3  4  1  0  0  0  0
  4 10  1  0  0  0  0
  5  4  2  0  0  0  0
  5  1  1  0  0  0  0
  6  5  1  0  0  0  0
  7  8  1  0  0  0  0
  7  6  2  0  0  0  0
  8  3  2  0  0  0  0
 11  7  1  0  0  0  0
 12 19  1  0  0  0  0
 12 13  2  0  0  0  0
 13 15  1  0  0  0  0
 14 13  1  0  0  0  0
 15 16  1  0  0  0  0
 17 15  1  0  0  0  0
 17 18  1  0  0  0  0
 19 17  2  0  0  0  0
M  END
>  <minimizedAffinity>
-3.8663702

$$$$

 OpenBabel03272501313D

 19 20  0  0  0  0  0  0  0  0999 V2000
   38.2270   23.4490   35.0340 C   0  0  0  0  0  0  0  0  0  0  0  0
   37.8200   22.4550   34.4000 O   0  0  0  0  0  0  0  0  0  0  0  0
   39.4090   26.8930   34.2080 C   0  0  0  0  0  0  0  0  0  0  0  0
   39.3660   25.6560   34.8580 C   0  0  0  0  0  0  0  0  0  0  0  0
   38.3630   24.7680   34.4250 C   0  0  0  0  0  0  0  0  0  0  0  0
   37.5160   25.1650   33.4230 N   0  0  0  0  0  0  0  0  0  0  0  0
   37.6160   26.3660   32.8470 C   0  0  0  0  0  0  0  0  0  0  0  0
   38.5550   27.2350   33.2300 N   0  0  0  0  0  0  0  0  0  0  0  0
   40.2030   27.5680   34.5650 H   0  0  0  0  0  0  0  0  0  0  0  0
   40.0270   25.3470   35.6400 H   0  0  0  0  0  0  0  0  0  0  0  0
   36.9640   26.7000   32.0590 H   0  0  0  0  0  0  0  0  0  0  0  0
   38.5830   23.2910   36.4430 C   0  0  0  0  0  0  0  0  0  0  0  0
   39.6800   22.5840   36.9240 C   0  0  0  0  0  0  0  0  0  0  0  0
   40.3840   22.0770   36.2830 H   0  0  0  0  0  0  0  0  0  0  0  0
   39.6200   22.7000   38.2570 N   0  0  0  0  0  0  0  0  0  0  0  0
   40.3390   22.2550   38.8750 H   0  0  0  0  0  0  0  0  0  0  0  0
   38.5640   23.4290   38.6520 C   0  0  0  0  0  0  0  0  0  0  0  0
   38.2940   23.6680   39.6900 H   0  0  0  0  0  0  0  0  0  0  0  0
   37.9280   23.7900   37.5120 N   0  0  0  0  0  0  0  0  0  0  0  0
  1 12  1  0  0  0  0
  2  1  2  0  0  0  0
  3  9  1  0  0  0  0
  3  4  1  0  0  0  0
  4 10  1  0  0  0  0
  5  4  2  0  0  0  0
  5  1  1  0  0  0  0
  6  5  1  0  0  0  0
  7  8  1  0  0  0  0
  7  6  2  0  0  0  0
  8  3  2  0  0  0  0
 11  7  1  0  0  0  0
 12 13  2  0  0  0  0
 12 19  1  0  0  0  0
 13 15  1  0  0  0  0
 14 13  1  0  0  0  0
 15 17  1  0  0  0  0
 15 16  1  0  0  0  0
 17 18  1  0  0  0  0
 19 17  2  0  0  0  0
M  END
>  <minimizedAffinity>
-3.86504745

$$$$

 OpenBabel03272501313D

 19 20  0  0  0  0  0  0  0  0999 V2000
   39.5550   24.1320   35.3580 C   0  0  0  0  0  0  0  0  0  0  0  0
   40.7630   23.9950   35.0840 O   0  0  0  0  0  0  0  0  0  0  0  0
   37.1730   24.5800   32.5170 C   0  0  0  0  0  0  0  0  0  0  0  0
   38.0840   23.9340   33.3580 C   0  0  0  0  0  0  0  0  0  0  0  0
   38.5960   24.7060   34.4190 C   0  0  0  0  0  0  0  0  0  0  0  0
   38.1790   26.0050   34.5520 N   0  0  0  0  0  0  0  0  0  0  0  0
   37.3040   26.5570   33.7080 C   0  0  0  0  0  0  0  0  0  0  0  0
   36.7960   25.8560   32.6900 N   0  0  0  0  0  0  0  0  0  0  0  0
   36.7890   23.9530   31.6960 H   0  0  0  0  0  0  0  0  0  0  0  0
   38.4100   22.9210   33.2530 H   0  0  0  0  0  0  0  0  0  0  0  0
   36.9610   27.5730   33.7930 H   0  0  0  0  0  0  0  0  0  0  0  0
   39.0740   23.7040   36.6700 C   0  0  0  0  0  0  0  0  0  0  0  0
   39.7590   22.8680   37.5460 C   0  0  0  0  0  0  0  0  0  0  0  0
   40.7310   22.4530   37.3300 H   0  0  0  0  0  0  0  0  0  0  0  0
   38.9600   22.7420   38.6140 N   0  0  0  0  0  0  0  0  0  0  0  0
   39.2380   22.1570   39.4370 H   0  0  0  0  0  0  0  0  0  0  0  0
   37.8200   23.4360   38.4730 C   0  0  0  0  0  0  0  0  0  0  0  0
   37.0020   23.4950   39.2070 H   0  0  0  0  0  0  0  0  0  0  0  0
   37.9050   24.0300   37.2590 N   0  0  0  0  0  0  0  0  0  0  0  0
  1 12  1  0  0  0  0
  2  1  2  0  0  0  0
  3  8  2  0  0  0  0
  3  4  1  0  0  0  0
  4  5  2  0  0  0  0
  5  6  1  0  0  0  0
  5  1  1  0  0  0  0
  7 11  1  0  0  0  0
  7  6  2  0  0  0  0
  8  7  1  0  0  0  0
  9  3  1  0  0  0  0
 10  4  1  0  0  0  0
 12 19  1  0  0  0  0
 12 13  2  0  0  0  0
 13 15  1  0  0  0  0
 14 13  1  0  0  0  0
 15 16  1  0  0  0  0
 17 15  1  0  0  0  0
 17 18  1  0  0  0  0
 19 17  2  0  0  0  0
M  END
>  <minimizedAffinity>
-3.80377197

$$$$

 OpenBabel03272501313D

 19 20  0  0  0  0  0  0  0  0999 V2000
   38.1350   26.0620   35.8070 C   0  0  0  0  0  0  0  0  0  0  0  0
   38.4310   27.0120   36.5580 O   0  0  0  0  0  0  0  0  0  0  0  0
   36.4710   27.5960   32.8360 C   0  0  0  0  0  0  0  0  0  0  0  0
   37.0240   27.5160   34.1180 C   0  0  0  0  0  0  0  0  0  0  0  0
   37.5360   26.2580   34.4900 C   0  0  0  0  0  0  0  0  0  0  0  0
   37.4590   25.2230   33.5960 N   0  0  0  0  0  0  0  0  0  0  0  0
   36.9170   25.3720   32.3850 C   0  0  0  0  0  0  0  0  0  0  0  0
   36.4210   26.5510   31.9960 N   0  0  0  0  0  0  0  0  0  0  0  0
   36.0790   28.5900   32.5700 H   0  0  0  0  0  0  0  0  0  0  0  0
   37.0820   28.3250   34.8160 H   0  0  0  0  0  0  0  0  0  0  0  0
   36.8460   24.5750   31.6660 H   0  0  0  0  0  0  0  0  0  0  0  0
   38.3950   24.6970   36.2570 C   0  0  0  0  0  0  0  0  0  0  0  0
   37.5300   23.9200   37.0200 C   0  0  0  0  0  0  0  0  0  0  0  0
   36.5640   24.2650   37.3550 H   0  0  0  0  0  0  0  0  0  0  0  0
   38.1640   22.7540   37.2000 N   0  0  0  0  0  0  0  0  0  0  0  0
   37.7290   21.9750   37.7480 H   0  0  0  0  0  0  0  0  0  0  0  0
   39.3690   22.7400   36.6070 C   0  0  0  0  0  0  0  0  0  0  0  0
   40.0820   21.9030   36.6080 H   0  0  0  0  0  0  0  0  0  0  0  0
   39.4980   23.9550   36.0240 N   0  0  0  0  0  0  0  0  0  0  0  0
  1 12  1  0  0  0  0
  1  2  2  0  0  0  0
  3  4  1  0  0  0  0
  4  5  2  0  0  0  0
  4 10  1  0  0  0  0
  5  1  1  0  0  0  0
  6  5  1  0  0  0  0
  7  6  2  0  0  0  0
  8  7  1  0  0  0  0
  8  3  2  0  0  0  0
  9  3  1  0  0  0  0
 11  7  1  0  0  0  0
 12 13  2  0  0  0  0
 13 15  1  0  0  0  0
 13 14  1  0  0  0  0
 15 16  1  0  0  0  0
 17 18  1  0  0  0  0
 17 15  1  0  0  0  0
 19 12  1  0  0  0  0
 19 17  2  0  0  0  0
M  END
>  <minimizedAffinity>
-3.79431701

$$$$

 OpenBabel03272501313D

 19 20  0  0  0  0  0  0  0  0999 V2000
   38.1290   24.0460   36.6270 C   0  0  0  0  0  0  0  0  0  0  0  0
   37.1300   23.6990   37.2870 O   0  0  0  0  0  0  0  0  0  0  0  0
   41.1100   21.9390   37.4150 C   0  0  0  0  0  0  0  0  0  0  0  0
   39.9830   22.7330   37.6470 C   0  0  0  0  0  0  0  0  0  0  0  0
   39.3170   23.2080   36.5010 C   0  0  0  0  0  0  0  0  0  0  0  0
   39.8060   22.8710   35.2650 N   0  0  0  0  0  0  0  0  0  0  0  0
   40.8910   22.1060   35.1190 C   0  0  0  0  0  0  0  0  0  0  0  0
   41.5490   21.6370   36.1830 N   0  0  0  0  0  0  0  0  0  0  0  0
   41.6110   21.5810   38.3280 H   0  0  0  0  0  0  0  0  0  0  0  0
   39.6020   22.9970   38.6110 H   0  0  0  0  0  0  0  0  0  0  0  0
   41.2930   21.8280   34.1610 H   0  0  0  0  0  0  0  0  0  0  0  0
   38.1140   25.3410   35.9510 C   0  0  0  0  0  0  0  0  0  0  0  0
   37.7460   25.5570   34.6270 C   0  0  0  0  0  0  0  0  0  0  0  0
   37.4290   24.7660   33.9650 H   0  0  0  0  0  0  0  0  0  0  0  0
   37.8800   26.8740   34.4300 N   0  0  0  0  0  0  0  0  0  0  0  0
   37.6630   27.3120   33.5040 H   0  0  0  0  0  0  0  0  0  0  0  0
   38.3080   27.5060   35.5350 C   0  0  0  0  0  0  0  0  0  0  0  0
   38.4970   28.5850   35.6320 H   0  0  0  0  0  0  0  0  0  0  0  0
   38.4490   26.5400   36.4730 N   0  0  0  0  0  0  0  0  0  0  0  0
  1  2  2  0  0  0  0
  3  4  1  0  0  0  0
  3  9  1  0  0  0  0
  4 10  1  0  0  0  0
  5  1  1  0  0  0  0
  5  4  2  0  0  0  0
  6  5  1  0  0  0  0
  7  6  2  0  0  0  0
  7  8  1  0  0  0  0
  8  3  2  0  0  0  0
 11  7  1  0  0  0  0
 12 19  1  0  0  0  0
 12  1  1  0  0  0  0
 13 12  2  0  0  0  0
 14 13  1  0  0  0  0
 15 13  1  0  0  0  0
 15 17  1  0  0  0  0
 16 15  1  0  0  0  0
 17 18  1  0  0  0  0
 17 19  2  0  0  0  0
M  END
>  <minimizedAffinity>
-3.53806496

$$$$

 OpenBabel03272501313D

 19 20  0  0  0  0  0  0  0  0999 V2000
   36.8820   27.4120   33.6050 C   0  0  0  0  0  0  0  0  0  0  0  0
   36.3550   28.3180   34.2790 O   0  0  0  0  0  0  0  0  0  0  0  0
   38.2730   24.9610   36.0550 C   0  0  0  0  0  0  0  0  0  0  0  0
   37.7530   26.1680   35.5790 C   0  0  0  0  0  0  0  0  0  0  0  0
   37.4310   26.2020   34.2080 C   0  0  0  0  0  0  0  0  0  0  0  0
   37.6430   25.0780   33.4520 N   0  0  0  0  0  0  0  0  0  0  0  0
   38.1440   23.9570   33.9770 C   0  0  0  0  0  0  0  0  0  0  0  0
   38.4620   23.8870   35.2730 N   0  0  0  0  0  0  0  0  0  0  0  0
   38.5160   24.9620   37.1300 H   0  0  0  0  0  0  0  0  0  0  0  0
   37.5890   27.0450   36.1690 H   0  0  0  0  0  0  0  0  0  0  0  0
   38.3190   23.0630   33.4040 H   0  0  0  0  0  0  0  0  0  0  0  0
   36.9550   27.5620   32.1530 C   0  0  0  0  0  0  0  0  0  0  0  0
   35.9350   27.2590   31.2580 C   0  0  0  0  0  0  0  0  0  0  0  0
   34.9730   26.8770   31.5640 H   0  0  0  0  0  0  0  0  0  0  0  0
   36.4280   27.5440   30.0460 N   0  0  0  0  0  0  0  0  0  0  0  0
   35.8570   27.4060   29.1790 H   0  0  0  0  0  0  0  0  0  0  0  0
   37.6880   28.0040   30.1120 C   0  0  0  0  0  0  0  0  0  0  0  0
   38.3120   28.3060   29.2590 H   0  0  0  0  0  0  0  0  0  0  0  0
   38.0020   28.0100   31.4290 N   0  0  0  0  0  0  0  0  0  0  0  0
  1  5  1  0  0  0  0
  1  2  2  0  0  0  0
  3  9  1  0  0  0  0
  4  3  1  0  0  0  0
  4 10  1  0  0  0  0
  5  4  2  0  0  0  0
  6  7  2  0  0  0  0
  6  5  1  0  0  0  0
  7  8  1  0  0  0  0
  8  3  2  0  0  0  0
 11  7  1  0  0  0  0
 12  1  1  0  0  0  0
 13 14  1  0  0  0  0
 13 12  2  0  0  0  0
 15 17  1  0  0  0  0
 15 13  1  0  0  0  0
 16 15  1  0  0  0  0
 17 19  2  0  0  0  0
 18 17  1  0  0  0  0
 19 12  1  0  0  0  0
M  END
>  <minimizedAffinity>
-3.52551651

$$$$

 OpenBabel03272501313D

 19 20  0  0  0  0  0  0  0  0999 V2000
   36.9540   26.7940   32.9420 C   0  0  0  0  0  0  0  0  0  0  0  0
   36.5900   25.6420   32.6360 O   0  0  0  0  0  0  0  0  0  0  0  0
   36.6070   29.6600   30.5720 C   0  0  0  0  0  0  0  0  0  0  0  0
   37.1660   28.5200   31.1590 C   0  0  0  0  0  0  0  0  0  0  0  0
   36.4610   27.9830   32.2530 C   0  0  0  0  0  0  0  0  0  0  0  0
   35.3050   28.5970   32.6600 N   0  0  0  0  0  0  0  0  0  0  0  0
   34.8300   29.6860   32.0500 C   0  0  0  0  0  0  0  0  0  0  0  0
   35.4710   30.2240   31.0080 N   0  0  0  0  0  0  0  0  0  0  0  0
   37.1780   30.0590   29.7190 H   0  0  0  0  0  0  0  0  0  0  0  0
   38.0690   28.0430   30.8420 H   0  0  0  0  0  0  0  0  0  0  0  0
   33.9250   30.1840   32.3500 H   0  0  0  0  0  0  0  0  0  0  0  0
   37.9120   26.9670   34.0310 C   0  0  0  0  0  0  0  0  0  0  0  0
   37.6440   27.5760   35.2530 C   0  0  0  0  0  0  0  0  0  0  0  0
   36.6790   27.9850   35.5110 H   0  0  0  0  0  0  0  0  0  0  0  0
   38.7920   27.5170   35.9390 N   0  0  0  0  0  0  0  0  0  0  0  0
   38.8700   27.9100   36.9070 H   0  0  0  0  0  0  0  0  0  0  0  0
   39.7670   26.9160   35.2380 C   0  0  0  0  0  0  0  0  0  0  0  0
   40.7980   26.7440   35.5780 H   0  0  0  0  0  0  0  0  0  0  0  0
   39.2040   26.5790   34.0530 N   0  0  0  0  0  0  0  0  0  0  0  0
  1 12  1  0  0  0  0
  2  1  2  0  0  0  0
  3  8  2  0  0  0  0
  3  4  1  0  0  0  0
  4  5  2  0  0  0  0
  5  6  1  0  0  0  0
  5  1  1  0  0  0  0
  7 11  1  0  0  0  0
  7  6  2  0  0  0  0
  8  7  1  0  0  0  0
  9  3  1  0  0  0  0
 10  4  1  0  0  0  0
 12 19  1  0  0  0  0
 12 13  2  0  0  0  0
 13 14  1  0  0  0  0
 13 15  1  0  0  0  0
 15 16  1  0  0  0  0
 17 18  1  0  0  0  0
 17 15  1  0  0  0  0
 19 17  2  0  0  0  0
M  END
>  <minimizedAffinity>
-3.52530909

$$$$
