
 OpenBabel03272510073D

 43 47  0  0  0  0  0  0  0  0999 V2000
   34.9500   30.1880   47.6710 C   0  0  0  0  0  0  0  0  0  0  0  0
   34.8020   30.3740   49.0100 N   0  0  0  0  0  0  0  0  0  0  0  0
   35.8420   30.8110   49.7370 C   0  0  0  0  0  0  0  0  0  0  0  0
   37.0740   31.0940   49.2330 N   0  0  0  0  0  0  0  0  0  0  0  0
   37.2590   30.9210   47.9070 C   0  0  0  0  0  0  0  0  0  0  0  0
   38.4620   31.2110   47.2870 C   0  0  0  0  0  0  0  0  0  0  0  0
   38.6050   31.0540   45.9090 C   0  0  0  0  0  0  0  0  0  0  0  0
   37.5200   30.5970   45.1610 C   0  0  0  0  0  0  0  0  0  0  0  0
   36.3350   30.3160   45.8140 C   0  0  0  0  0  0  0  0  0  0  0  0
   36.1890   30.4710   47.1600 C   0  0  0  0  0  0  0  0  0  0  0  0
   35.7500   30.9680   50.8090 H   0  0  0  0  0  0  0  0  0  0  0  0
   39.2490   31.5580   47.9390 H   0  0  0  0  0  0  0  0  0  0  0  0
   39.5750   31.3130   45.5570 H   0  0  0  0  0  0  0  0  0  0  0  0
   37.8260   30.5440   44.1360 H   0  0  0  0  0  0  0  0  0  0  0  0
   33.3850   28.4310   46.6990 C   0  0  0  0  0  0  0  0  0  0  0  0
   33.7850   29.7540   46.9830 C   0  0  0  0  0  0  0  0  0  0  0  0
   32.9550   30.8250   46.5320 C   0  0  0  0  0  0  0  0  0  0  0  0
   31.8190   30.5440   45.8440 N   0  0  0  0  0  0  0  0  0  0  0  0
   31.4920   29.2410   45.5990 C   0  0  0  0  0  0  0  0  0  0  0  0
   32.2460   28.2140   46.0120 N   0  0  0  0  0  0  0  0  0  0  0  0
   30.2830   28.9990   44.8420 N   0  0  0  0  0  0  0  0  0  0  0  0
   28.9700   29.3860   45.2750 C   0  0  0  0  0  0  0  0  0  0  0  0
   28.0990   29.1780   44.0740 C   0  0  0  0  0  0  0  0  0  0  0  0
   29.0230   28.8790   42.9040 C   0  0  0  0  0  0  0  0  0  0  0  0
   30.2350   28.3280   43.5300 C   0  0  0  0  0  0  0  0  0  0  0  0
   34.0520   27.6790   47.0710 H   0  0  0  0  0  0  0  0  0  0  0  0
   33.1720   31.8520   46.7010 H   0  0  0  0  0  0  0  0  0  0  0  0
   28.9000   30.4430   45.6130 H   0  0  0  0  0  0  0  0  0  0  0  0
   28.6580   28.7440   46.1440 H   0  0  0  0  0  0  0  0  0  0  0  0
   27.5090   30.1000   43.8720 H   0  0  0  0  0  0  0  0  0  0  0  0
   27.3930   28.3660   44.2840 H   0  0  0  0  0  0  0  0  0  0  0  0
   28.4620   28.1660   42.2330 H   0  0  0  0  0  0  0  0  0  0  0  0
   29.1750   29.7940   42.3140 H   0  0  0  0  0  0  0  0  0  0  0  0
   30.2090   27.2410   43.6660 H   0  0  0  0  0  0  0  0  0  0  0  0
   31.1430   28.6020   42.9180 H   0  0  0  0  0  0  0  0  0  0  0  0
   35.4420   29.8820   44.7390 C   0  0  0  0  0  0  0  0  0  0  0  0
   35.1340   28.6740   44.1440 C   0  0  0  0  0  0  0  0  0  0  0  0
   35.5620   27.7460   44.5260 H   0  0  0  0  0  0  0  0  0  0  0  0
   34.3200   28.7590   43.0930 N   0  0  0  0  0  0  0  0  0  0  0  0
   33.9870   27.9490   42.5320 H   0  0  0  0  0  0  0  0  0  0  0  0
   34.0990   30.0770   43.0110 C   0  0  0  0  0  0  0  0  0  0  0  0
   33.4630   30.5410   42.2510 H   0  0  0  0  0  0  0  0  0  0  0  0
   34.7410   30.7710   43.9590 N   0  0  0  0  0  0  0  0  0  0  0  0
  1  2  1  0  0  0  0
  2  3  2  0  0  0  0
  3 11  1  0  0  0  0
  4  3  1  0  0  0  0
  5  4  2  0  0  0  0
  6  5  1  0  0  0  0
  6 12  1  0  0  0  0
  7  6  2  0  0  0  0
  8  9  2  0  0  0  0
  8  7  1  0  0  0  0
  9 10  1  0  0  0  0
 10  1  2  0  0  0  0
 10  5  1  0  0  0  0
 13  7  1  0  0  0  0
 14  8  1  0  0  0  0
 15 16  1  0  0  0  0
 15 26  1  0  0  0  0
 16  1  1  0  0  0  0
 17 27  1  0  0  0  0
 17 16  2  0  0  0  0
 18 17  1  0  0  0  0
 19 18  2  0  0  0  0
 19 20  1  0  0  0  0
 20 15  2  0  0  0  0
 21 22  1  0  0  0  0
 21 19  1  0  0  0  0
 22 28  1  0  0  0  0
 22 29  1  0  0  0  0
 23 31  1  0  0  0  0
 23 22  1  0  0  0  0
 24 25  1  0  0  0  0
 24 23  1  0  0  0  0
 25 34  1  0  0  0  0
 25 21  1  0  0  0  0
 30 23  1  0  0  0  0
 32 24  1  0  0  0  0
 33 24  1  0  0  0  0
 35 25  1  0  0  0  0
 36  9  1  0  0  0  0
 37 38  1  0  0  0  0
 37 36  2  0  0  0  0
 39 37  1  0  0  0  0
 40 39  1  0  0  0  0
 41 39  1  0  0  0  0
 41 43  2  0  0  0  0
 42 41  1  0  0  0  0
 43 36  1  0  0  0  0
M  END
>  <minimizedAffinity>
-4.85417604

>  <minimizedRMSD>
3.40828896

$$$$
