REMARK  Name = 
REMARK  3 active torsions:
REMARK  status: ('A' for Active; 'I' for Inactive)
REMARK    1  A    between atoms: C_1  and  C_7
REMARK    2  A    between atoms: C_6  and  N_15
REMARK    3  A    between atoms: C_13  and  C_30
REMARK                            x       y       z     vdW  Elec       q    Type
REMARK                         _______ _______ _______ _____ _____    ______ ____
ROOT
ATOM      1  C   UNL     1      36.075  30.690  49.068  0.00  0.00    +0.000 C 
ATOM      2  C   UNL     1      37.015  31.642  49.742  0.00  0.00    +0.000 C 
ATOM      3  C   UNL     1      38.048  30.943  50.601  0.00  0.00    +0.000 C 
ATOM      4  C   UNL     1      37.351  30.079  51.652  0.00  0.00    +0.000 C 
ATOM      5  C   UNL     1      36.121  29.374  51.146  0.00  0.00    +0.000 C 
ATOM      6  C   UNL     1      36.193  29.303  49.609  0.00  0.00    +0.000 C 
ATOM      7  H   UNL     1      34.985  31.000  49.161  0.00  0.00    +0.000 HD
ATOM      8  H   UNL     1      36.365  32.181  50.512  0.00  0.00    +0.000 HD
ATOM      9  H   UNL     1      37.432  32.433  49.146  0.00  0.00    +0.000 HD
ATOM     10  H   UNL     1      38.724  30.294  50.024  0.00  0.00    +0.000 HD
ATOM     11  H   UNL     1      38.579  31.739  51.156  0.00  0.00    +0.000 HD
ATOM     12  H   UNL     1      38.096  29.311  51.984  0.00  0.00    +0.000 HD
ATOM     13  H   UNL     1      37.056  30.704  52.527  0.00  0.00    +0.000 HD
ATOM     14  H   UNL     1      36.022  28.332  51.521  0.00  0.00    +0.000 HD
ATOM     15  H   UNL     1      35.186  29.921  51.368  0.00  0.00    +0.000 HD
ATOM     16  H   UNL     1      37.181  28.928  49.487  0.00  0.00    +0.000 HD
ENDROOT
BRANCH   1  17
ATOM     17  C   UNL     1      36.318  30.649  47.601  0.00  0.00    +0.000 A 
ATOM     18  C   UNL     1      37.587  31.110  47.180  0.00  0.00    +0.000 A 
ATOM     19  C   UNL     1      37.830  31.073  45.803  0.00  0.00    +0.000 A 
ATOM     20  N   UNL     1      36.853  30.605  44.958  0.00  0.00    +0.000 NA
ATOM     21  C   UNL     1      35.636  30.167  45.424  0.00  0.00    +0.000 A 
ATOM     22  N   UNL     1      35.391  30.199  46.748  0.00  0.00    +0.000 NA
ATOM     23  H   UNL     1      38.418  31.484  47.741  0.00  0.00    +0.000 HD
ATOM     24  H   UNL     1      38.750  31.393  45.339  0.00  0.00    +0.000 HD
ATOM     25  H   UNL     1      34.944  29.820  44.678  0.00  0.00    +0.000 HD
ENDBRANCH   1  17
BRANCH   6  28
ATOM     26  C   UNL     1      33.936  28.197  49.238  0.00  0.00    +0.000 C 
ATOM     27  O   UNL     1      33.122  28.862  49.943  0.00  0.00    +0.000 OA
ATOM     28  N   UNL     1      35.333  28.346  49.016  0.00  0.00    +0.000 N 
ATOM     29  H   UNL     1      35.718  27.633  48.316  0.00  0.00    +0.000 HD
BRANCH  26  30
ATOM     30  C   UNL     1      33.202  27.101  48.577  0.00  0.00    +0.000 A 
ATOM     31  C   UNL     1      32.568  27.085  47.359  0.00  0.00    +0.000 A 
ATOM     32  H   UNL     1      32.492  27.888  46.654  0.00  0.00    +0.000 HD
ATOM     33  N   UNL     1      32.002  25.875  47.105  0.00  0.00    +0.000 N 
ATOM     34  H   UNL     1      31.464  25.606  46.250  0.00  0.00    +0.000 HD
ATOM     35  C   UNL     1      32.280  25.115  48.172  0.00  0.00    +0.000 A 
ATOM     36  H   UNL     1      31.973  24.091  48.291  0.00  0.00    +0.000 HD
ATOM     37  N   UNL     1      32.993  25.844  49.048  0.00  0.00    +0.000 NA
ENDBRANCH  26  30
ENDBRANCH   6  28
TORSDOF 3
