
 OpenBabel03272509593D

 45 48  0  0  0  0  0  0  0  0999 V2000
   35.9400   22.0680   30.9670 C   0  0  0  0  0  0  0  0  0  0  0  0
   36.9180   22.5370   30.6880 H   0  0  0  0  0  0  0  0  0  0  0  0
   35.4200   21.8830   30.0260 H   0  0  0  0  0  0  0  0  0  0  0  0
   36.1790   20.8270   31.7710 C   0  0  0  0  0  0  0  0  0  0  0  0
   36.9920   20.2180   31.3380 H   0  0  0  0  0  0  0  0  0  0  0  0
   35.2380   20.2280   31.7800 H   0  0  0  0  0  0  0  0  0  0  0  0
   36.4920   21.1230   33.1990 C   0  0  0  0  0  0  0  0  0  0  0  0
   35.6320   20.6280   34.1630 C   0  0  0  0  0  0  0  0  0  0  0  0
   35.8340   20.8470   35.5070 C   0  0  0  0  0  0  0  0  0  0  0  0
   36.8980   21.5630   35.8920 N   0  0  0  0  0  0  0  0  0  0  0  0
   37.7350   22.0430   34.9240 C   0  0  0  0  0  0  0  0  0  0  0  0
   37.5580   21.8430   33.6130 N   0  0  0  0  0  0  0  0  0  0  0  0
   34.7450   20.0360   33.9170 H   0  0  0  0  0  0  0  0  0  0  0  0
   35.1710   20.4650   36.2550 H   0  0  0  0  0  0  0  0  0  0  0  0
   38.8980   22.8300   35.4260 C   0  0  0  0  0  0  0  0  0  0  0  0
   39.7840   22.1550   35.3300 H   0  0  0  0  0  0  0  0  0  0  0  0
   39.1140   23.6620   34.7210 H   0  0  0  0  0  0  0  0  0  0  0  0
   38.7140   23.3100   36.8120 C   0  0  0  0  0  0  0  0  0  0  0  0
   39.4800   22.8880   37.8810 C   0  0  0  0  0  0  0  0  0  0  0  0
   40.3030   22.1860   37.9490 H   0  0  0  0  0  0  0  0  0  0  0  0
   39.0740   23.4990   39.0050 N   0  0  0  0  0  0  0  0  0  0  0  0
   39.3880   23.4550   39.9990 H   0  0  0  0  0  0  0  0  0  0  0  0
   38.0390   24.3220   38.6640 C   0  0  0  0  0  0  0  0  0  0  0  0
   37.4530   24.9820   39.3150 H   0  0  0  0  0  0  0  0  0  0  0  0
   37.8470   24.1800   37.3190 N   0  0  0  0  0  0  0  0  0  0  0  0
   35.2700   23.0510   31.7580 O   0  0  0  0  0  0  0  0  0  0  0  0
   35.4910   26.5100   30.7370 C   0  0  0  0  0  0  0  0  0  0  0  0
   36.5650   26.9410   31.5430 C   0  0  0  0  0  0  0  0  0  0  0  0
   37.1550   26.0080   32.3960 C   0  0  0  0  0  0  0  0  0  0  0  0
   36.6220   24.7500   32.3650 N   0  0  0  0  0  0  0  0  0  0  0  0
   35.6010   24.3620   31.5900 C   0  0  0  0  0  0  0  0  0  0  0  0
   35.0370   25.2660   30.7700 N   0  0  0  0  0  0  0  0  0  0  0  0
   35.0730   27.2780   30.0940 H   0  0  0  0  0  0  0  0  0  0  0  0
   36.9840   27.9160   31.5720 H   0  0  0  0  0  0  0  0  0  0  0  0
   37.0700   26.7190   35.1970 F   0  0  0  0  0  0  0  0  0  0  0  0
   38.2460   26.5970   34.5880 C   0  0  0  0  0  0  0  0  0  0  0  0
   38.2550   26.2670   33.2850 C   0  0  0  0  0  0  0  0  0  0  0  0
   39.5390   26.1660   32.7470 C   0  0  0  0  0  0  0  0  0  0  0  0
   40.6840   26.3840   33.4710 C   0  0  0  0  0  0  0  0  0  0  0  0
   40.6130   26.7230   34.8060 C   0  0  0  0  0  0  0  0  0  0  0  0
   39.3610   26.8250   35.3550 C   0  0  0  0  0  0  0  0  0  0  0  0
   39.6840   25.9010   31.6890 H   0  0  0  0  0  0  0  0  0  0  0  0
   41.6600   26.2950   33.0110 H   0  0  0  0  0  0  0  0  0  0  0  0
   41.5030   26.8970   35.3870 H   0  0  0  0  0  0  0  0  0  0  0  0
   39.2950   27.0910   36.4050 H   0  0  0  0  0  0  0  0  0  0  0  0
  1 26  1  0  0  0  0
  1  4  1  0  0  0  0
  2  1  1  0  0  0  0
  3  1  1  0  0  0  0
  4  6  1  0  0  0  0
  4  7  1  0  0  0  0
  5  4  1  0  0  0  0
  7 12  2  0  0  0  0
  7  8  1  0  0  0  0
  8  9  2  0  0  0  0
  9 10  1  0  0  0  0
  9 14  1  0  0  0  0
 11 15  1  0  0  0  0
 11 10  2  0  0  0  0
 12 11  1  0  0  0  0
 13  8  1  0  0  0  0
 15 18  1  0  0  0  0
 16 15  1  0  0  0  0
 17 15  1  0  0  0  0
 18 25  1  0  0  0  0
 18 19  2  0  0  0  0
 19 20  1  0  0  0  0
 19 21  1  0  0  0  0
 21 22  1  0  0  0  0
 23 21  1  0  0  0  0
 23 24  1  0  0  0  0
 25 23  2  0  0  0  0
 27 32  2  0  0  0  0
 27 28  1  0  0  0  0
 28 34  1  0  0  0  0
 28 29  2  0  0  0  0
 29 37  1  0  0  0  0
 30 29  1  0  0  0  0
 31 26  1  0  0  0  0
 31 30  2  0  0  0  0
 32 31  1  0  0  0  0
 33 27  1  0  0  0  0
 36 35  1  0  0  0  0
 36 41  1  0  0  0  0
 37 36  2  0  0  0  0
 38 37  1  0  0  0  0
 38 39  2  0  0  0  0
 39 40  1  0  0  0  0
 40 41  2  0  0  0  0
 40 44  1  0  0  0  0
 41 45  1  0  0  0  0
 42 38  1  0  0  0  0
 43 39  1  0  0  0  0
M  END
>  <minimizedAffinity>
-6.32299852

$$$$

 OpenBabel03272509593D

 45 48  0  0  0  0  0  0  0  0999 V2000
   38.0610   27.4670   35.3860 C   0  0  0  0  0  0  0  0  0  0  0  0
   37.3490   27.4300   36.2500 H   0  0  0  0  0  0  0  0  0  0  0  0
   38.4110   28.4980   35.3340 H   0  0  0  0  0  0  0  0  0  0  0  0
   39.1620   26.4720   35.5880 C   0  0  0  0  0  0  0  0  0  0  0  0
   39.7860   26.7340   36.4610 H   0  0  0  0  0  0  0  0  0  0  0  0
   39.8000   26.4630   34.6720 H   0  0  0  0  0  0  0  0  0  0  0  0
   38.6520   25.0800   35.7470 C   0  0  0  0  0  0  0  0  0  0  0  0
   38.0660   24.7410   36.9530 C   0  0  0  0  0  0  0  0  0  0  0  0
   37.5650   23.4820   37.1980 C   0  0  0  0  0  0  0  0  0  0  0  0
   37.6500   22.5560   36.2350 N   0  0  0  0  0  0  0  0  0  0  0  0
   38.2330   22.9100   35.0500 C   0  0  0  0  0  0  0  0  0  0  0  0
   38.7260   24.1260   34.7910 N   0  0  0  0  0  0  0  0  0  0  0  0
   37.9650   25.4510   37.7810 H   0  0  0  0  0  0  0  0  0  0  0  0
   37.1110   23.2180   38.1290 H   0  0  0  0  0  0  0  0  0  0  0  0
   38.2920   21.8280   34.0260 C   0  0  0  0  0  0  0  0  0  0  0  0
   39.1560   22.0860   33.3640 H   0  0  0  0  0  0  0  0  0  0  0  0
   38.5980   20.8760   34.5110 H   0  0  0  0  0  0  0  0  0  0  0  0
   37.0340   21.6850   33.2650 C   0  0  0  0  0  0  0  0  0  0  0  0
   36.6530   22.5290   32.2400 C   0  0  0  0  0  0  0  0  0  0  0  0
   37.1320   23.3970   31.8010 H   0  0  0  0  0  0  0  0  0  0  0  0
   35.4650   22.1450   31.7470 N   0  0  0  0  0  0  0  0  0  0  0  0
   34.8520   22.5110   30.9860 H   0  0  0  0  0  0  0  0  0  0  0  0
   35.0720   21.0460   32.4560 C   0  0  0  0  0  0  0  0  0  0  0  0
   34.1560   20.4550   32.3390 H   0  0  0  0  0  0  0  0  0  0  0  0
   36.0530   20.7940   33.3730 N   0  0  0  0  0  0  0  0  0  0  0  0
   37.2770   27.1150   34.2450 O   0  0  0  0  0  0  0  0  0  0  0  0
   35.4700   29.2420   31.9490 C   0  0  0  0  0  0  0  0  0  0  0  0
   34.8990   30.1600   32.8550 C   0  0  0  0  0  0  0  0  0  0  0  0
   35.1710   29.9900   34.2130 C   0  0  0  0  0  0  0  0  0  0  0  0
   35.9770   28.9350   34.5330 N   0  0  0  0  0  0  0  0  0  0  0  0
   36.5110   28.0750   33.6560 C   0  0  0  0  0  0  0  0  0  0  0  0
   36.2440   28.2440   32.3480 N   0  0  0  0  0  0  0  0  0  0  0  0
   35.2250   29.4230   30.9080 H   0  0  0  0  0  0  0  0  0  0  0  0
   34.2720   30.9810   32.6130 H   0  0  0  0  0  0  0  0  0  0  0  0
   36.6550   31.7940   35.9170 F   0  0  0  0  0  0  0  0  0  0  0  0
   35.3410   31.6710   36.0810 C   0  0  0  0  0  0  0  0  0  0  0  0
   34.6770   30.8250   35.2750 C   0  0  0  0  0  0  0  0  0  0  0  0
   33.3070   30.7720   35.5330 C   0  0  0  0  0  0  0  0  0  0  0  0
   32.6910   31.5090   36.5130 C   0  0  0  0  0  0  0  0  0  0  0  0
   33.4240   32.3620   37.3120 C   0  0  0  0  0  0  0  0  0  0  0  0
   34.7720   32.4290   37.0740 C   0  0  0  0  0  0  0  0  0  0  0  0
   32.6500   30.1170   34.9420 H   0  0  0  0  0  0  0  0  0  0  0  0
   31.6230   31.4360   36.6770 H   0  0  0  0  0  0  0  0  0  0  0  0
   32.9540   32.9460   38.0840 H   0  0  0  0  0  0  0  0  0  0  0  0
   35.3570   33.0970   37.6970 H   0  0  0  0  0  0  0  0  0  0  0  0
  1  4  1  0  0  0  0
  1  2  1  0  0  0  0
  3  1  1  0  0  0  0
  4  7  1  0  0  0  0
  4  5  1  0  0  0  0
  6  4  1  0  0  0  0
  7  8  1  0  0  0  0
  8  9  2  0  0  0  0
  8 13  1  0  0  0  0
  9 14  1  0  0  0  0
 10  9  1  0  0  0  0
 11 10  2  0  0  0  0
 12 11  1  0  0  0  0
 12  7  2  0  0  0  0
 15 17  1  0  0  0  0
 15 11  1  0  0  0  0
 16 15  1  0  0  0  0
 18 25  1  0  0  0  0
 18 15  1  0  0  0  0
 19 18  2  0  0  0  0
 20 19  1  0  0  0  0
 21 19  1  0  0  0  0
 21 23  1  0  0  0  0
 22 21  1  0  0  0  0
 23 25  2  0  0  0  0
 24 23  1  0  0  0  0
 26  1  1  0  0  0  0
 27 32  2  0  0  0  0
 27 28  1  0  0  0  0
 28 29  2  0  0  0  0
 29 30  1  0  0  0  0
 29 37  1  0  0  0  0
 31 26  1  0  0  0  0
 31 30  2  0  0  0  0
 32 31  1  0  0  0  0
 33 27  1  0  0  0  0
 34 28  1  0  0  0  0
 35 36  1  0  0  0  0
 36 41  1  0  0  0  0
 37 38  1  0  0  0  0
 37 36  2  0  0  0  0
 38 39  2  0  0  0  0
 39 43  1  0  0  0  0
 39 40  1  0  0  0  0
 40 44  1  0  0  0  0
 41 40  2  0  0  0  0
 41 45  1  0  0  0  0
 42 38  1  0  0  0  0
M  END
>  <minimizedAffinity>
-6.295506

$$$$

 OpenBabel03272509593D

 45 48  0  0  0  0  0  0  0  0999 V2000
   37.6050   26.7240   34.1590 C   0  0  0  0  0  0  0  0  0  0  0  0
   37.5870   25.6070   34.2500 H   0  0  0  0  0  0  0  0  0  0  0  0
   37.2420   27.1060   35.1130 H   0  0  0  0  0  0  0  0  0  0  0  0
   38.9890   27.1850   33.8180 C   0  0  0  0  0  0  0  0  0  0  0  0
   39.1800   28.2020   34.2030 H   0  0  0  0  0  0  0  0  0  0  0  0
   39.0940   27.1890   32.7070 H   0  0  0  0  0  0  0  0  0  0  0  0
   40.0420   26.2600   34.3270 C   0  0  0  0  0  0  0  0  0  0  0  0
   41.3620   26.6470   34.1880 C   0  0  0  0  0  0  0  0  0  0  0  0
   42.4070   25.8630   34.6250 C   0  0  0  0  0  0  0  0  0  0  0  0
   42.1330   24.6870   35.2030 N   0  0  0  0  0  0  0  0  0  0  0  0
   40.8210   24.3230   35.3310 C   0  0  0  0  0  0  0  0  0  0  0  0
   39.7920   25.0680   34.9130 N   0  0  0  0  0  0  0  0  0  0  0  0
   41.6560   27.5950   33.7250 H   0  0  0  0  0  0  0  0  0  0  0  0
   43.4290   26.1600   34.5190 H   0  0  0  0  0  0  0  0  0  0  0  0
   40.5930   23.0020   35.9840 C   0  0  0  0  0  0  0  0  0  0  0  0
   40.6090   22.2490   35.1570 H   0  0  0  0  0  0  0  0  0  0  0  0
   41.4760   22.7390   36.6060 H   0  0  0  0  0  0  0  0  0  0  0  0
   39.3340   22.9510   36.7560 C   0  0  0  0  0  0  0  0  0  0  0  0
   38.1490   22.4400   36.2650 C   0  0  0  0  0  0  0  0  0  0  0  0
   37.8910   22.0050   35.3050 H   0  0  0  0  0  0  0  0  0  0  0  0
   37.1880   22.5320   37.1970 N   0  0  0  0  0  0  0  0  0  0  0  0
   36.1790   22.2640   37.2170 H   0  0  0  0  0  0  0  0  0  0  0  0
   37.7510   23.1070   38.2990 C   0  0  0  0  0  0  0  0  0  0  0  0
   37.2770   23.3420   39.2600 H   0  0  0  0  0  0  0  0  0  0  0  0
   39.0610   23.3480   37.9950 N   0  0  0  0  0  0  0  0  0  0  0  0
   36.7050   27.0230   33.0910 O   0  0  0  0  0  0  0  0  0  0  0  0
   36.3260   30.2840   31.5810 C   0  0  0  0  0  0  0  0  0  0  0  0
   35.7190   30.9830   32.6440 C   0  0  0  0  0  0  0  0  0  0  0  0
   35.4740   30.2850   33.8270 C   0  0  0  0  0  0  0  0  0  0  0  0
   35.8540   28.9730   33.8360 N   0  0  0  0  0  0  0  0  0  0  0  0
   36.4300   28.3270   32.8140 C   0  0  0  0  0  0  0  0  0  0  0  0
   36.6630   29.0060   31.6760 N   0  0  0  0  0  0  0  0  0  0  0  0
   36.4930   30.8760   30.6870 H   0  0  0  0  0  0  0  0  0  0  0  0
   35.4220   32.0020   32.6440 H   0  0  0  0  0  0  0  0  0  0  0  0
   36.6820   31.9480   35.8620 F   0  0  0  0  0  0  0  0  0  0  0  0
   35.4010   31.6070   35.9700 C   0  0  0  0  0  0  0  0  0  0  0  0
   34.8660   30.8330   35.0100 C   0  0  0  0  0  0  0  0  0  0  0  0
   33.5190   30.5360   35.2220 C   0  0  0  0  0  0  0  0  0  0  0  0
   32.8050   30.9860   36.3030 C   0  0  0  0  0  0  0  0  0  0  0  0
   33.4070   31.7770   37.2590 C   0  0  0  0  0  0  0  0  0  0  0  0
   34.7290   32.0820   37.0690 C   0  0  0  0  0  0  0  0  0  0  0  0
   32.9640   29.9100   34.5080 H   0  0  0  0  0  0  0  0  0  0  0  0
   31.7600   30.7300   36.4260 H   0  0  0  0  0  0  0  0  0  0  0  0
   32.8580   32.1380   38.1130 H   0  0  0  0  0  0  0  0  0  0  0  0
   35.2120   32.7040   37.8160 H   0  0  0  0  0  0  0  0  0  0  0  0
  1  2  1  0  0  0  0
  1  3  1  0  0  0  0
  4  1  1  0  0  0  0
  4  5  1  0  0  0  0
  4  7  1  0  0  0  0
  6  4  1  0  0  0  0
  7 12  1  0  0  0  0
  8  7  2  0  0  0  0
  8  9  1  0  0  0  0
  9 10  2  0  0  0  0
 10 11  1  0  0  0  0
 11 15  1  0  0  0  0
 12 11  2  0  0  0  0
 13  8  1  0  0  0  0
 14  9  1  0  0  0  0
 15 17  1  0  0  0  0
 15 18  1  0  0  0  0
 16 15  1  0  0  0  0
 18 25  1  0  0  0  0
 19 18  2  0  0  0  0
 19 21  1  0  0  0  0
 20 19  1  0  0  0  0
 21 22  1  0  0  0  0
 21 23  1  0  0  0  0
 23 24  1  0  0  0  0
 25 23  2  0  0  0  0
 26  1  1  0  0  0  0
 27 32  2  0  0  0  0
 27 28  1  0  0  0  0
 28 29  2  0  0  0  0
 29 30  1  0  0  0  0
 29 37  1  0  0  0  0
 31 26  1  0  0  0  0
 31 30  2  0  0  0  0
 32 31  1  0  0  0  0
 33 27  1  0  0  0  0
 34 28  1  0  0  0  0
 35 36  1  0  0  0  0
 36 41  1  0  0  0  0
 37 38  1  0  0  0  0
 37 36  2  0  0  0  0
 38 39  2  0  0  0  0
 39 43  1  0  0  0  0
 39 40  1  0  0  0  0
 40 44  1  0  0  0  0
 41 40  2  0  0  0  0
 41 45  1  0  0  0  0
 42 38  1  0  0  0  0
M  END
>  <minimizedAffinity>
-6.15438461

$$$$

 OpenBabel03272509593D

 45 48  0  0  0  0  0  0  0  0999 V2000
   36.8130   26.4220   32.4690 C   0  0  0  0  0  0  0  0  0  0  0  0
   36.8230   25.4890   33.0880 H   0  0  0  0  0  0  0  0  0  0  0  0
   35.8920   26.9430   32.7310 H   0  0  0  0  0  0  0  0  0  0  0  0
   38.0500   27.2250   32.7330 C   0  0  0  0  0  0  0  0  0  0  0  0
   37.8130   28.1700   33.2520 H   0  0  0  0  0  0  0  0  0  0  0  0
   38.5330   27.4570   31.7540 H   0  0  0  0  0  0  0  0  0  0  0  0
   39.0640   26.4690   33.5220 C   0  0  0  0  0  0  0  0  0  0  0  0
   40.2690   27.0930   33.7900 C   0  0  0  0  0  0  0  0  0  0  0  0
   41.2690   26.4800   34.5110 C   0  0  0  0  0  0  0  0  0  0  0  0
   41.0670   25.2370   34.9650 N   0  0  0  0  0  0  0  0  0  0  0  0
   39.8690   24.6370   34.6900 C   0  0  0  0  0  0  0  0  0  0  0  0
   38.8840   25.2140   33.9920 N   0  0  0  0  0  0  0  0  0  0  0  0
   40.4980   28.1080   33.4480 H   0  0  0  0  0  0  0  0  0  0  0  0
   42.2010   26.9600   34.7190 H   0  0  0  0  0  0  0  0  0  0  0  0
   39.7150   23.2550   35.2280 C   0  0  0  0  0  0  0  0  0  0  0  0
   39.0610   22.7180   34.4970 H   0  0  0  0  0  0  0  0  0  0  0  0
   40.6890   22.7220   35.1620 H   0  0  0  0  0  0  0  0  0  0  0  0
   39.1580   23.2280   36.5960 C   0  0  0  0  0  0  0  0  0  0  0  0
   39.8450   22.7610   37.6990 C   0  0  0  0  0  0  0  0  0  0  0  0
   40.8430   22.3500   37.8100 H   0  0  0  0  0  0  0  0  0  0  0  0
   39.0780   22.8630   38.7950 N   0  0  0  0  0  0  0  0  0  0  0  0
   39.2270   22.6250   39.8010 H   0  0  0  0  0  0  0  0  0  0  0  0
   37.8850   23.3990   38.4020 C   0  0  0  0  0  0  0  0  0  0  0  0
   37.0090   23.6310   39.0190 H   0  0  0  0  0  0  0  0  0  0  0  0
   37.9700   23.6090   37.0550 N   0  0  0  0  0  0  0  0  0  0  0  0
   36.7960   25.9670   31.1150 O   0  0  0  0  0  0  0  0  0  0  0  0
   39.0770   23.4720   29.8400 C   0  0  0  0  0  0  0  0  0  0  0  0
   38.5160   22.3080   30.4040 C   0  0  0  0  0  0  0  0  0  0  0  0
   37.3770   22.4520   31.1970 C   0  0  0  0  0  0  0  0  0  0  0  0
   36.9130   23.7280   31.3480 N   0  0  0  0  0  0  0  0  0  0  0  0
   37.4610   24.8210   30.8020 C   0  0  0  0  0  0  0  0  0  0  0  0
   38.5590   24.6750   30.0390 N   0  0  0  0  0  0  0  0  0  0  0  0
   39.9600   23.2990   29.2330 H   0  0  0  0  0  0  0  0  0  0  0  0
   38.8720   21.3140   30.2910 H   0  0  0  0  0  0  0  0  0  0  0  0
   36.9100   22.0750   34.0250 F   0  0  0  0  0  0  0  0  0  0  0  0
   36.4400   21.1820   33.1590 C   0  0  0  0  0  0  0  0  0  0  0  0
   36.6730   21.3820   31.8510 C   0  0  0  0  0  0  0  0  0  0  0  0
   36.1370   20.3870   31.0330 C   0  0  0  0  0  0  0  0  0  0  0  0
   35.4410   19.3060   31.5110 C   0  0  0  0  0  0  0  0  0  0  0  0
   35.2330   19.1510   32.8660 C   0  0  0  0  0  0  0  0  0  0  0  0
   35.7510   20.1190   33.6870 C   0  0  0  0  0  0  0  0  0  0  0  0
   36.2570   20.4340   29.9400 H   0  0  0  0  0  0  0  0  0  0  0  0
   35.0420   18.5570   30.8380 H   0  0  0  0  0  0  0  0  0  0  0  0
   34.6890   18.3080   33.2560 H   0  0  0  0  0  0  0  0  0  0  0  0
   35.5930   20.0060   34.7550 H   0  0  0  0  0  0  0  0  0  0  0  0
  1  3  1  0  0  0  0
  1  4  1  0  0  0  0
  1  2  1  0  0  0  0
  4  5  1  0  0  0  0
  4  7  1  0  0  0  0
  6  4  1  0  0  0  0
  7  8  2  0  0  0  0
  7 12  1  0  0  0  0
  8  9  1  0  0  0  0
  9 14  1  0  0  0  0
  9 10  2  0  0  0  0
 11 10  1  0  0  0  0
 11 15  1  0  0  0  0
 12 11  2  0  0  0  0
 13  8  1  0  0  0  0
 15 18  1  0  0  0  0
 16 15  1  0  0  0  0
 17 15  1  0  0  0  0
 18 25  1  0  0  0  0
 18 19  2  0  0  0  0
 19 20  1  0  0  0  0
 19 21  1  0  0  0  0
 21 22  1  0  0  0  0
 23 21  1  0  0  0  0
 23 24  1  0  0  0  0
 25 23  2  0  0  0  0
 26  1  1  0  0  0  0
 27 32  2  0  0  0  0
 27 28  1  0  0  0  0
 28 29  2  0  0  0  0
 29 30  1  0  0  0  0
 29 37  1  0  0  0  0
 31 26  1  0  0  0  0
 31 30  2  0  0  0  0
 32 31  1  0  0  0  0
 33 27  1  0  0  0  0
 34 28  1  0  0  0  0
 36 41  1  0  0  0  0
 36 35  1  0  0  0  0
 37 36  2  0  0  0  0
 38 39  2  0  0  0  0
 38 37  1  0  0  0  0
 39 40  1  0  0  0  0
 40 44  1  0  0  0  0
 40 41  2  0  0  0  0
 41 45  1  0  0  0  0
 42 38  1  0  0  0  0
 43 39  1  0  0  0  0
M  END
>  <minimizedAffinity>
-6.01306534

$$$$

 OpenBabel03272509593D

 45 48  0  0  0  0  0  0  0  0999 V2000
   37.4750   25.7460   31.1330 C   0  0  0  0  0  0  0  0  0  0  0  0
   38.3560   25.3180   31.6760 H   0  0  0  0  0  0  0  0  0  0  0  0
   37.8440   26.0380   30.1500 H   0  0  0  0  0  0  0  0  0  0  0  0
   36.3680   24.7380   31.0810 C   0  0  0  0  0  0  0  0  0  0  0  0
   36.1700   24.4120   30.0440 H   0  0  0  0  0  0  0  0  0  0  0  0
   35.4460   25.2070   31.4990 H   0  0  0  0  0  0  0  0  0  0  0  0
   36.6420   23.5430   31.9290 C   0  0  0  0  0  0  0  0  0  0  0  0
   35.7130   22.5190   31.9200 C   0  0  0  0  0  0  0  0  0  0  0  0
   35.8740   21.3750   32.6700 C   0  0  0  0  0  0  0  0  0  0  0  0
   36.9670   21.2520   33.4320 N   0  0  0  0  0  0  0  0  0  0  0  0
   37.8740   22.2760   33.4270 C   0  0  0  0  0  0  0  0  0  0  0  0
   37.7370   23.3950   32.7080 N   0  0  0  0  0  0  0  0  0  0  0  0
   34.7980   22.5550   31.3200 H   0  0  0  0  0  0  0  0  0  0  0  0
   35.1570   20.5810   32.6640 H   0  0  0  0  0  0  0  0  0  0  0  0
   39.0660   22.0690   34.2990 C   0  0  0  0  0  0  0  0  0  0  0  0
   39.2990   20.9770   34.2380 H   0  0  0  0  0  0  0  0  0  0  0  0
   39.9510   22.5610   33.8390 H   0  0  0  0  0  0  0  0  0  0  0  0
   38.8460   22.5130   35.6910 C   0  0  0  0  0  0  0  0  0  0  0  0
   39.7220   22.2590   36.7290 C   0  0  0  0  0  0  0  0  0  0  0  0
   40.6700   21.7340   36.7630 H   0  0  0  0  0  0  0  0  0  0  0  0
   39.2480   22.7850   37.8680 N   0  0  0  0  0  0  0  0  0  0  0  0
   39.6040   22.8110   38.8490 H   0  0  0  0  0  0  0  0  0  0  0  0
   38.0580   23.3840   37.5700 C   0  0  0  0  0  0  0  0  0  0  0  0
   37.3800   23.9200   38.2450 H   0  0  0  0  0  0  0  0  0  0  0  0
   37.8450   23.1980   36.2340 N   0  0  0  0  0  0  0  0  0  0  0  0
   37.0780   26.8790   31.9080 O   0  0  0  0  0  0  0  0  0  0  0  0
   37.5320   27.4550   35.4460 C   0  0  0  0  0  0  0  0  0  0  0  0
   38.8990   27.1340   35.5790 C   0  0  0  0  0  0  0  0  0  0  0  0
   39.5880   26.7350   34.4330 C   0  0  0  0  0  0  0  0  0  0  0  0
   38.8580   26.6950   33.2800 N   0  0  0  0  0  0  0  0  0  0  0  0
   37.5590   27.0050   33.1750 C   0  0  0  0  0  0  0  0  0  0  0  0
   36.9000   27.3880   34.2840 N   0  0  0  0  0  0  0  0  0  0  0  0
   37.0480   27.7580   36.3680 H   0  0  0  0  0  0  0  0  0  0  0  0
   39.4720   27.1630   36.4720 H   0  0  0  0  0  0  0  0  0  0  0  0
   41.7600   28.1340   33.1340 F   0  0  0  0  0  0  0  0  0  0  0  0
   42.0070   27.0010   33.7860 C   0  0  0  0  0  0  0  0  0  0  0  0
   40.9790   26.3720   34.3790 C   0  0  0  0  0  0  0  0  0  0  0  0
   41.3500   25.1960   35.0320 C   0  0  0  0  0  0  0  0  0  0  0  0
   42.6360   24.7210   35.0670 C   0  0  0  0  0  0  0  0  0  0  0  0
   43.6530   25.4090   34.4380 C   0  0  0  0  0  0  0  0  0  0  0  0
   43.3100   26.5680   33.7920 C   0  0  0  0  0  0  0  0  0  0  0  0
   40.6000   24.5860   35.5580 H   0  0  0  0  0  0  0  0  0  0  0  0
   42.8770   23.8020   35.5870 H   0  0  0  0  0  0  0  0  0  0  0  0
   44.6670   25.0480   34.4570 H   0  0  0  0  0  0  0  0  0  0  0  0
   44.1030   27.1170   33.2940 H   0  0  0  0  0  0  0  0  0  0  0  0
  1  2  1  0  0  0  0
  1 26  1  0  0  0  0
  3  1  1  0  0  0  0
  4  1  1  0  0  0  0
  4  6  1  0  0  0  0
  4  7  1  0  0  0  0
  5  4  1  0  0  0  0
  7 12  1  0  0  0  0
  8  7  2  0  0  0  0
  8  9  1  0  0  0  0
  9 10  2  0  0  0  0
 11 10  1  0  0  0  0
 11 15  1  0  0  0  0
 12 11  2  0  0  0  0
 13  8  1  0  0  0  0
 14  9  1  0  0  0  0
 15 18  1  0  0  0  0
 16 15  1  0  0  0  0
 17 15  1  0  0  0  0
 18 25  1  0  0  0  0
 18 19  2  0  0  0  0
 19 20  1  0  0  0  0
 19 21  1  0  0  0  0
 21 22  1  0  0  0  0
 23 21  1  0  0  0  0
 23 24  1  0  0  0  0
 25 23  2  0  0  0  0
 26 31  1  0  0  0  0
 27 28  1  0  0  0  0
 27 33  1  0  0  0  0
 28 34  1  0  0  0  0
 29 28  2  0  0  0  0
 30 29  1  0  0  0  0
 31 30  2  0  0  0  0
 31 32  1  0  0  0  0
 32 27  2  0  0  0  0
 35 36  1  0  0  0  0
 36 41  2  0  0  0  0
 36 37  1  0  0  0  0
 37 29  1  0  0  0  0
 37 38  2  0  0  0  0
 38 39  1  0  0  0  0
 38 42  1  0  0  0  0
 39 43  1  0  0  0  0
 40 44  1  0  0  0  0
 40 39  2  0  0  0  0
 41 40  1  0  0  0  0
 45 41  1  0  0  0  0
M  END
>  <minimizedAffinity>
-5.77619886

$$$$

 OpenBabel03272509593D

 45 48  0  0  0  0  0  0  0  0999 V2000
   42.4250   23.0630   36.5650 C   0  0  0  0  0  0  0  0  0  0  0  0
   42.2770   24.0330   37.1040 H   0  0  0  0  0  0  0  0  0  0  0  0
   43.4870   22.8320   36.6540 H   0  0  0  0  0  0  0  0  0  0  0  0
   41.5330   22.0120   37.1510 C   0  0  0  0  0  0  0  0  0  0  0  0
   41.7430   21.8590   38.2240 H   0  0  0  0  0  0  0  0  0  0  0  0
   41.7110   21.0550   36.6040 H   0  0  0  0  0  0  0  0  0  0  0  0
   40.0860   22.3240   36.9710 C   0  0  0  0  0  0  0  0  0  0  0  0
   39.4780   23.1300   37.9160 C   0  0  0  0  0  0  0  0  0  0  0  0
   38.1470   23.4760   37.8380 C   0  0  0  0  0  0  0  0  0  0  0  0
   37.4200   23.0140   36.8140 N   0  0  0  0  0  0  0  0  0  0  0  0
   38.0390   22.2190   35.8900 C   0  0  0  0  0  0  0  0  0  0  0  0
   39.3300   21.8710   35.9460 N   0  0  0  0  0  0  0  0  0  0  0  0
   40.0150   23.5410   38.7770 H   0  0  0  0  0  0  0  0  0  0  0  0
   37.6750   24.0990   38.5670 H   0  0  0  0  0  0  0  0  0  0  0  0
   37.1670   21.7430   34.7780 C   0  0  0  0  0  0  0  0  0  0  0  0
   37.2190   20.6270   34.8110 H   0  0  0  0  0  0  0  0  0  0  0  0
   36.1060   21.9720   35.0160 H   0  0  0  0  0  0  0  0  0  0  0  0
   37.5690   22.2790   33.4610 C   0  0  0  0  0  0  0  0  0  0  0  0
   37.8060   23.6170   33.2130 C   0  0  0  0  0  0  0  0  0  0  0  0
   37.7580   24.4910   33.8530 H   0  0  0  0  0  0  0  0  0  0  0  0
   38.1510   23.7910   31.9280 N   0  0  0  0  0  0  0  0  0  0  0  0
   38.4040   24.6290   31.3600 H   0  0  0  0  0  0  0  0  0  0  0  0
   38.1390   22.5600   31.3380 C   0  0  0  0  0  0  0  0  0  0  0  0
   38.3680   22.3030   30.2960 H   0  0  0  0  0  0  0  0  0  0  0  0
   37.7790   21.6620   32.3020 N   0  0  0  0  0  0  0  0  0  0  0  0
   42.0530   23.3310   35.2120 O   0  0  0  0  0  0  0  0  0  0  0  0
   43.1030   26.5680   33.9940 C   0  0  0  0  0  0  0  0  0  0  0  0
   41.8510   27.2040   33.8610 C   0  0  0  0  0  0  0  0  0  0  0  0
   40.7110   26.4740   34.2020 C   0  0  0  0  0  0  0  0  0  0  0  0
   40.9260   25.1970   34.6360 N   0  0  0  0  0  0  0  0  0  0  0  0
   42.1250   24.6120   34.7550 C   0  0  0  0  0  0  0  0  0  0  0  0
   43.2200   25.3210   34.4260 N   0  0  0  0  0  0  0  0  0  0  0  0
   43.9530   27.1820   33.7160 H   0  0  0  0  0  0  0  0  0  0  0  0
   41.6770   28.1950   33.5250 H   0  0  0  0  0  0  0  0  0  0  0  0
   38.9200   27.1270   36.3760 F   0  0  0  0  0  0  0  0  0  0  0  0
   38.5050   27.2680   35.1200 C   0  0  0  0  0  0  0  0  0  0  0  0
   39.3580   26.9570   34.1300 C   0  0  0  0  0  0  0  0  0  0  0  0
   38.8200   27.1420   32.8560 C   0  0  0  0  0  0  0  0  0  0  0  0
   37.5460   27.5950   32.6280 C   0  0  0  0  0  0  0  0  0  0  0  0
   36.7130   27.8990   33.6850 C   0  0  0  0  0  0  0  0  0  0  0  0
   37.2220   27.7250   34.9450 C   0  0  0  0  0  0  0  0  0  0  0  0
   39.4180   26.9230   31.9580 H   0  0  0  0  0  0  0  0  0  0  0  0
   37.1710   27.7240   31.6200 H   0  0  0  0  0  0  0  0  0  0  0  0
   35.7100   28.2550   33.5220 H   0  0  0  0  0  0  0  0  0  0  0  0
   36.5740   27.9610   35.7840 H   0  0  0  0  0  0  0  0  0  0  0  0
  1  3  1  0  0  0  0
  1  2  1  0  0  0  0
  1  4  1  0  0  0  0
  4  5  1  0  0  0  0
  6  4  1  0  0  0  0
  7  4  1  0  0  0  0
  7  8  1  0  0  0  0
  8 13  1  0  0  0  0
  9  8  2  0  0  0  0
  9 14  1  0  0  0  0
 10  9  1  0  0  0  0
 11 12  1  0  0  0  0
 11 10  2  0  0  0  0
 12  7  2  0  0  0  0
 15 16  1  0  0  0  0
 15 17  1  0  0  0  0
 15 11  1  0  0  0  0
 18 15  1  0  0  0  0
 19 18  2  0  0  0  0
 19 20  1  0  0  0  0
 21 19  1  0  0  0  0
 22 21  1  0  0  0  0
 23 21  1  0  0  0  0
 23 25  2  0  0  0  0
 24 23  1  0  0  0  0
 25 18  1  0  0  0  0
 26  1  1  0  0  0  0
 27 32  1  0  0  0  0
 28 27  2  0  0  0  0
 28 29  1  0  0  0  0
 29 30  2  0  0  0  0
 30 31  1  0  0  0  0
 31 26  1  0  0  0  0
 32 31  2  0  0  0  0
 33 27  1  0  0  0  0
 34 28  1  0  0  0  0
 36 35  1  0  0  0  0
 37 29  1  0  0  0  0
 37 36  2  0  0  0  0
 38 37  1  0  0  0  0
 39 38  2  0  0  0  0
 39 40  1  0  0  0  0
 40 41  2  0  0  0  0
 41 36  1  0  0  0  0
 41 45  1  0  0  0  0
 42 38  1  0  0  0  0
 43 39  1  0  0  0  0
 44 40  1  0  0  0  0
M  END
>  <minimizedAffinity>
-5.77241278

$$$$

 OpenBabel03272509593D

 45 48  0  0  0  0  0  0  0  0999 V2000
   36.2250   24.5570   31.1000 C   0  0  0  0  0  0  0  0  0  0  0  0
   35.5230   24.5760   31.9730 H   0  0  0  0  0  0  0  0  0  0  0  0
   35.5940   24.5810   30.2110 H   0  0  0  0  0  0  0  0  0  0  0  0
   37.1800   25.7080   31.1870 C   0  0  0  0  0  0  0  0  0  0  0  0
   37.1220   26.3470   30.2880 H   0  0  0  0  0  0  0  0  0  0  0  0
   38.2140   25.2990   31.2800 H   0  0  0  0  0  0  0  0  0  0  0  0
   36.9590   26.5440   32.4020 C   0  0  0  0  0  0  0  0  0  0  0  0
   37.4660   26.0830   33.6030 C   0  0  0  0  0  0  0  0  0  0  0  0
   37.3140   26.7820   34.7800 C   0  0  0  0  0  0  0  0  0  0  0  0
   36.6530   27.9450   34.7590 N   0  0  0  0  0  0  0  0  0  0  0  0
   36.1590   28.3830   33.5610 C   0  0  0  0  0  0  0  0  0  0  0  0
   36.2940   27.7210   32.4070 N   0  0  0  0  0  0  0  0  0  0  0  0
   38.0170   25.1410   33.6900 H   0  0  0  0  0  0  0  0  0  0  0  0
   37.7060   26.4280   35.7100 H   0  0  0  0  0  0  0  0  0  0  0  0
   35.4340   29.6860   33.6140 C   0  0  0  0  0  0  0  0  0  0  0  0
   35.8400   30.2210   34.5080 H   0  0  0  0  0  0  0  0  0  0  0  0
   35.7480   30.3180   32.7550 H   0  0  0  0  0  0  0  0  0  0  0  0
   33.9670   29.5270   33.6810 C   0  0  0  0  0  0  0  0  0  0  0  0
   33.2460   29.5200   34.8590 C   0  0  0  0  0  0  0  0  0  0  0  0
   33.5510   29.6180   35.8960 H   0  0  0  0  0  0  0  0  0  0  0  0
   31.9400   29.3580   34.5970 N   0  0  0  0  0  0  0  0  0  0  0  0
   31.0890   29.3000   35.1980 H   0  0  0  0  0  0  0  0  0  0  0  0
   31.8120   29.2580   33.2410 C   0  0  0  0  0  0  0  0  0  0  0  0
   30.8960   29.1200   32.6540 H   0  0  0  0  0  0  0  0  0  0  0  0
   33.0680   29.3660   32.7160 N   0  0  0  0  0  0  0  0  0  0  0  0
   36.9280   23.3190   31.2180 O   0  0  0  0  0  0  0  0  0  0  0  0
   35.5000   20.7850   33.3620 C   0  0  0  0  0  0  0  0  0  0  0  0
   36.2670   20.9830   34.5290 C   0  0  0  0  0  0  0  0  0  0  0  0
   37.2380   21.9850   34.5080 C   0  0  0  0  0  0  0  0  0  0  0  0
   37.3490   22.6840   33.3390 N   0  0  0  0  0  0  0  0  0  0  0  0
   36.6090   22.4800   32.2420 C   0  0  0  0  0  0  0  0  0  0  0  0
   35.6750   21.5130   32.2690 N   0  0  0  0  0  0  0  0  0  0  0  0
   34.7610   19.9950   33.4370 H   0  0  0  0  0  0  0  0  0  0  0  0
   36.1860   20.4430   35.4390 H   0  0  0  0  0  0  0  0  0  0  0  0
   40.1060   21.6640   34.6820 F   0  0  0  0  0  0  0  0  0  0  0  0
   39.4430   22.1900   35.7080 C   0  0  0  0  0  0  0  0  0  0  0  0
   38.1100   22.3270   35.5990 C   0  0  0  0  0  0  0  0  0  0  0  0
   37.5160   22.8870   36.7310 C   0  0  0  0  0  0  0  0  0  0  0  0
   38.2170   23.2640   37.8480 C   0  0  0  0  0  0  0  0  0  0  0  0
   39.5850   23.0980   37.9040 C   0  0  0  0  0  0  0  0  0  0  0  0
   40.1890   22.5500   36.8020 C   0  0  0  0  0  0  0  0  0  0  0  0
   36.4290   23.0530   36.7690 H   0  0  0  0  0  0  0  0  0  0  0  0
   37.7130   23.6950   38.7030 H   0  0  0  0  0  0  0  0  0  0  0  0
   40.1480   23.3890   38.7740 H   0  0  0  0  0  0  0  0  0  0  0  0
   41.2660   22.4170   36.8360 H   0  0  0  0  0  0  0  0  0  0  0  0
  1  4  1  0  0  0  0
  1 26  1  0  0  0  0
  1  2  1  0  0  0  0
  3  1  1  0  0  0  0
  4  6  1  0  0  0  0
  4  7  1  0  0  0  0
  5  4  1  0  0  0  0
  7 12  2  0  0  0  0
  7  8  1  0  0  0  0
  8 13  1  0  0  0  0
  8  9  2  0  0  0  0
  9 14  1  0  0  0  0
 10  9  1  0  0  0  0
 11 15  1  0  0  0  0
 11 10  2  0  0  0  0
 12 11  1  0  0  0  0
 15 18  1  0  0  0  0
 15 16  1  0  0  0  0
 17 15  1  0  0  0  0
 18 19  2  0  0  0  0
 19 20  1  0  0  0  0
 21 19  1  0  0  0  0
 21 22  1  0  0  0  0
 23 21  1  0  0  0  0
 24 23  1  0  0  0  0
 25 23  2  0  0  0  0
 25 18  1  0  0  0  0
 26 31  1  0  0  0  0
 27 33  1  0  0  0  0
 27 28  1  0  0  0  0
 28 34  1  0  0  0  0
 29 28  2  0  0  0  0
 29 37  1  0  0  0  0
 30 29  1  0  0  0  0
 31 32  1  0  0  0  0
 31 30  2  0  0  0  0
 32 27  2  0  0  0  0
 35 36  1  0  0  0  0
 36 41  1  0  0  0  0
 37 36  2  0  0  0  0
 37 38  1  0  0  0  0
 38 42  1  0  0  0  0
 38 39  2  0  0  0  0
 39 40  1  0  0  0  0
 39 43  1  0  0  0  0
 40 44  1  0  0  0  0
 41 45  1  0  0  0  0
 41 40  2  0  0  0  0
M  END
>  <minimizedAffinity>
-5.74634504

$$$$

 OpenBabel03272509593D

 45 48  0  0  0  0  0  0  0  0999 V2000
   38.5750   26.9520   34.7910 C   0  0  0  0  0  0  0  0  0  0  0  0
   38.9590   27.7980   34.1650 H   0  0  0  0  0  0  0  0  0  0  0  0
   39.1090   27.0170   35.7390 H   0  0  0  0  0  0  0  0  0  0  0  0
   37.0870   27.0570   34.9350 C   0  0  0  0  0  0  0  0  0  0  0  0
   36.7930   27.1800   35.9920 H   0  0  0  0  0  0  0  0  0  0  0  0
   36.6290   26.1210   34.5350 H   0  0  0  0  0  0  0  0  0  0  0  0
   36.5120   28.1720   34.1290 C   0  0  0  0  0  0  0  0  0  0  0  0
   36.5380   28.0530   32.7520 C   0  0  0  0  0  0  0  0  0  0  0  0
   36.0330   29.0270   31.9210 C   0  0  0  0  0  0  0  0  0  0  0  0
   35.4990   30.1270   32.4670 N   0  0  0  0  0  0  0  0  0  0  0  0
   35.4830   30.2260   33.8310 C   0  0  0  0  0  0  0  0  0  0  0  0
   35.9690   29.2920   34.6560 N   0  0  0  0  0  0  0  0  0  0  0  0
   36.9590   27.1800   32.2410 H   0  0  0  0  0  0  0  0  0  0  0  0
   36.0510   28.9380   30.8560 H   0  0  0  0  0  0  0  0  0  0  0  0
   34.8740   31.4770   34.3670 C   0  0  0  0  0  0  0  0  0  0  0  0
   35.7320   32.1160   34.6920 H   0  0  0  0  0  0  0  0  0  0  0  0
   34.4100   32.0490   33.5340 H   0  0  0  0  0  0  0  0  0  0  0  0
   33.9200   31.2280   35.4680 C   0  0  0  0  0  0  0  0  0  0  0  0
   34.0500   31.7610   36.7350 C   0  0  0  0  0  0  0  0  0  0  0  0
   34.7970   32.4140   37.1730 H   0  0  0  0  0  0  0  0  0  0  0  0
   33.0330   31.3530   37.5100 N   0  0  0  0  0  0  0  0  0  0  0  0
   32.7730   31.5300   38.5060 H   0  0  0  0  0  0  0  0  0  0  0  0
   32.2390   30.5510   36.7430 C   0  0  0  0  0  0  0  0  0  0  0  0
   31.3150   30.0340   37.0310 H   0  0  0  0  0  0  0  0  0  0  0  0
   32.8100   30.4970   35.5030 N   0  0  0  0  0  0  0  0  0  0  0  0
   38.9210   25.7700   34.0680 O   0  0  0  0  0  0  0  0  0  0  0  0
   38.9290   22.9290   36.3020 C   0  0  0  0  0  0  0  0  0  0  0  0
   38.1770   22.0100   35.5410 C   0  0  0  0  0  0  0  0  0  0  0  0
   37.7090   22.4260   34.2940 C   0  0  0  0  0  0  0  0  0  0  0  0
   38.0300   23.7030   33.9310 N   0  0  0  0  0  0  0  0  0  0  0  0
   38.7470   24.5600   34.6690 C   0  0  0  0  0  0  0  0  0  0  0  0
   39.1960   24.1530   35.8700 N   0  0  0  0  0  0  0  0  0  0  0  0
   39.2670   22.5510   37.2610 H   0  0  0  0  0  0  0  0  0  0  0  0
   37.9240   21.0170   35.8180 H   0  0  0  0  0  0  0  0  0  0  0  0
   35.4530   20.7180   34.8880 F   0  0  0  0  0  0  0  0  0  0  0  0
   35.8780   20.8280   33.6320 C   0  0  0  0  0  0  0  0  0  0  0  0
   36.9290   21.6280   33.3860 C   0  0  0  0  0  0  0  0  0  0  0  0
   37.2910   21.6700   32.0390 C   0  0  0  0  0  0  0  0  0  0  0  0
   36.6440   20.9650   31.0570 C   0  0  0  0  0  0  0  0  0  0  0  0
   35.5700   20.1570   31.3690 C   0  0  0  0  0  0  0  0  0  0  0  0
   35.1970   20.1020   32.6870 C   0  0  0  0  0  0  0  0  0  0  0  0
   38.1370   22.2900   31.7050 H   0  0  0  0  0  0  0  0  0  0  0  0
   36.9600   21.0290   30.0240 H   0  0  0  0  0  0  0  0  0  0  0  0
   35.0520   19.5970   30.6090 H   0  0  0  0  0  0  0  0  0  0  0  0
   34.3530   19.4700   32.9430 H   0  0  0  0  0  0  0  0  0  0  0  0
  1  4  1  0  0  0  0
  1  3  1  0  0  0  0
  2  1  1  0  0  0  0
  4  5  1  0  0  0  0
  6  4  1  0  0  0  0
  7 12  1  0  0  0  0
  7  4  1  0  0  0  0
  8  7  2  0  0  0  0
  9 10  2  0  0  0  0
  9  8  1  0  0  0  0
 10 11  1  0  0  0  0
 11 15  1  0  0  0  0
 11 12  2  0  0  0  0
 13  8  1  0  0  0  0
 14  9  1  0  0  0  0
 15 16  1  0  0  0  0
 15 18  1  0  0  0  0
 17 15  1  0  0  0  0
 18 25  1  0  0  0  0
 18 19  2  0  0  0  0
 19 20  1  0  0  0  0
 19 21  1  0  0  0  0
 21 22  1  0  0  0  0
 23 24  1  0  0  0  0
 23 21  1  0  0  0  0
 25 23  2  0  0  0  0
 26 31  1  0  0  0  0
 26  1  1  0  0  0  0
 27 33  1  0  0  0  0
 28 34  1  0  0  0  0
 28 27  2  0  0  0  0
 29 28  1  0  0  0  0
 30 29  2  0  0  0  0
 30 31  1  0  0  0  0
 31 32  2  0  0  0  0
 32 27  1  0  0  0  0
 36 35  1  0  0  0  0
 37 36  1  0  0  0  0
 37 29  1  0  0  0  0
 38 37  2  0  0  0  0
 39 40  2  0  0  0  0
 39 38  1  0  0  0  0
 40 41  1  0  0  0  0
 41 45  1  0  0  0  0
 41 36  2  0  0  0  0
 42 38  1  0  0  0  0
 43 39  1  0  0  0  0
 44 40  1  0  0  0  0
M  END
>  <minimizedAffinity>
-5.74424314

$$$$

 OpenBabel03272509593D

 45 48  0  0  0  0  0  0  0  0999 V2000
   35.3120   21.4560   32.0520 C   0  0  0  0  0  0  0  0  0  0  0  0
   34.7010   20.8090   31.3720 H   0  0  0  0  0  0  0  0  0  0  0  0
   34.5960   22.0240   32.6460 H   0  0  0  0  0  0  0  0  0  0  0  0
   36.2320   20.6070   32.8750 C   0  0  0  0  0  0  0  0  0  0  0  0
   37.2190   20.4990   32.3930 H   0  0  0  0  0  0  0  0  0  0  0  0
   35.7690   19.5970   32.9890 H   0  0  0  0  0  0  0  0  0  0  0  0
   36.4130   21.1340   34.2580 C   0  0  0  0  0  0  0  0  0  0  0  0
   35.5240   20.7130   35.2300 C   0  0  0  0  0  0  0  0  0  0  0  0
   35.6070   21.1430   36.5360 C   0  0  0  0  0  0  0  0  0  0  0  0
   36.5810   21.9980   36.8730 N   0  0  0  0  0  0  0  0  0  0  0  0
   37.4490   22.4020   35.8970 C   0  0  0  0  0  0  0  0  0  0  0  0
   37.3870   21.9980   34.6230 N   0  0  0  0  0  0  0  0  0  0  0  0
   34.7060   20.0160   35.0220 H   0  0  0  0  0  0  0  0  0  0  0  0
   34.9220   20.8190   37.2900 H   0  0  0  0  0  0  0  0  0  0  0  0
   38.5070   23.3530   36.3450 C   0  0  0  0  0  0  0  0  0  0  0  0
   38.4630   24.2110   35.6300 H   0  0  0  0  0  0  0  0  0  0  0  0
   38.2140   23.7980   37.3210 H   0  0  0  0  0  0  0  0  0  0  0  0
   39.8500   22.7390   36.3950 C   0  0  0  0  0  0  0  0  0  0  0  0
   40.4360   22.2590   37.5500 C   0  0  0  0  0  0  0  0  0  0  0  0
   40.0880   22.2230   38.5760 H   0  0  0  0  0  0  0  0  0  0  0  0
   41.6530   21.7650   37.2750 N   0  0  0  0  0  0  0  0  0  0  0  0
   42.3960   21.3210   37.8590 H   0  0  0  0  0  0  0  0  0  0  0  0
   41.8590   21.9250   35.9350 C   0  0  0  0  0  0  0  0  0  0  0  0
   42.7390   21.6410   35.3450 H   0  0  0  0  0  0  0  0  0  0  0  0
   40.7390   22.5220   35.4310 N   0  0  0  0  0  0  0  0  0  0  0  0
   36.0650   22.3010   31.1800 O   0  0  0  0  0  0  0  0  0  0  0  0
   35.1400   25.7920   31.0520 C   0  0  0  0  0  0  0  0  0  0  0  0
   36.1180   26.3420   31.9060 C   0  0  0  0  0  0  0  0  0  0  0  0
   37.0460   25.4710   32.4790 C   0  0  0  0  0  0  0  0  0  0  0  0
   36.9100   24.1520   32.1510 N   0  0  0  0  0  0  0  0  0  0  0  0
   35.9720   23.6500   31.3360 C   0  0  0  0  0  0  0  0  0  0  0  0
   35.0810   24.4950   30.7860 N   0  0  0  0  0  0  0  0  0  0  0  0
   34.4470   26.5150   30.6350 H   0  0  0  0  0  0  0  0  0  0  0  0
   36.2290   27.3650   32.1660 H   0  0  0  0  0  0  0  0  0  0  0  0
   39.8450   24.7610   32.3410 F   0  0  0  0  0  0  0  0  0  0  0  0
   39.4150   25.5380   33.3310 C   0  0  0  0  0  0  0  0  0  0  0  0
   38.1090   25.8510   33.3710 C   0  0  0  0  0  0  0  0  0  0  0  0
   37.7670   26.6690   34.4490 C   0  0  0  0  0  0  0  0  0  0  0  0
   38.6700   27.1120   35.3810 C   0  0  0  0  0  0  0  0  0  0  0  0
   40.0000   26.7570   35.2900 C   0  0  0  0  0  0  0  0  0  0  0  0
   40.3570   25.9550   34.2380 C   0  0  0  0  0  0  0  0  0  0  0  0
   36.7270   26.9970   34.5950 H   0  0  0  0  0  0  0  0  0  0  0  0
   38.3590   27.7460   36.2020 H   0  0  0  0  0  0  0  0  0  0  0  0
   40.7200   27.0970   36.0140 H   0  0  0  0  0  0  0  0  0  0  0  0
   41.4020   25.6700   34.1570 H   0  0  0  0  0  0  0  0  0  0  0  0
  1  3  1  0  0  0  0
  1  4  1  0  0  0  0
  2  1  1  0  0  0  0
  4  6  1  0  0  0  0
  4  7  1  0  0  0  0
  5  4  1  0  0  0  0
  7 12  2  0  0  0  0
  7  8  1  0  0  0  0
  8  9  2  0  0  0  0
  9 10  1  0  0  0  0
  9 14  1  0  0  0  0
 11 15  1  0  0  0  0
 11 10  2  0  0  0  0
 12 11  1  0  0  0  0
 13  8  1  0  0  0  0
 15 18  1  0  0  0  0
 15 17  1  0  0  0  0
 16 15  1  0  0  0  0
 18 19  2  0  0  0  0
 19 20  1  0  0  0  0
 21 19  1  0  0  0  0
 21 22  1  0  0  0  0
 23 21  1  0  0  0  0
 24 23  1  0  0  0  0
 25 23  2  0  0  0  0
 25 18  1  0  0  0  0
 26 31  1  0  0  0  0
 26  1  1  0  0  0  0
 27 28  1  0  0  0  0
 28 34  1  0  0  0  0
 28 29  2  0  0  0  0
 29 37  1  0  0  0  0
 30 29  1  0  0  0  0
 31 30  2  0  0  0  0
 32 27  2  0  0  0  0
 32 31  1  0  0  0  0
 33 27  1  0  0  0  0
 35 36  1  0  0  0  0
 36 37  2  0  0  0  0
 36 41  1  0  0  0  0
 37 38  1  0  0  0  0
 38 42  1  0  0  0  0
 38 39  2  0  0  0  0
 39 43  1  0  0  0  0
 40 39  1  0  0  0  0
 40 44  1  0  0  0  0
 41 40  2  0  0  0  0
 45 41  1  0  0  0  0
M  END
>  <minimizedAffinity>
-5.69152164

$$$$
