REMARK  Name = 
REMARK  6 active torsions:
REMARK  status: ('A' for Active; 'I' for Inactive)
REMARK    1  A    between atoms: C_3  and  C_9
REMARK    2  A    between atoms: C_5  and  O_14
REMARK    3  A    between atoms: O_14  and  C_15
REMARK    4  A    between atoms: C_15  and  C_16
REMARK    5  A    between atoms: C_16  and  C_17
REMARK    6  A    between atoms: C_21  and  C_35
REMARK                            x       y       z     vdW  Elec       q    Type
REMARK                         _______ _______ _______ _____ _____    ______ ____
ROOT
ATOM      1  C   UNL     1      34.453  28.636  48.161  0.00  0.00    +0.000 C 
ATOM      2  H   UNL     1      33.860  29.581  48.186  0.00  0.00    +0.000 HD
ATOM      3  H   UNL     1      35.257  28.786  47.394  0.00  0.00    +0.000 HD
ENDROOT
BRANCH   1   4
ATOM      4  C   UNL     1      33.568  27.518  47.706  0.00  0.00    +0.000 C 
ATOM      5  H   UNL     1      33.718  26.632  48.319  0.00  0.00    +0.000 HD
ATOM      6  H   UNL     1      33.810  27.225  46.650  0.00  0.00    +0.000 HD
BRANCH   4   7
ATOM      7  C   UNL     1      32.126  27.897  47.703  0.00  0.00    +0.000 A 
ATOM      8  C   UNL     1      31.346  27.514  48.786  0.00  0.00    +0.000 A 
ATOM      9  C   UNL     1      30.012  27.817  48.870  0.00  0.00    +0.000 A 
ATOM     10  N   UNL     1      29.443  28.499  47.886  0.00  0.00    +0.000 NA
ATOM     11  C   UNL     1      30.213  28.879  46.812  0.00  0.00    +0.000 A 
ATOM     12  N   UNL     1      31.524  28.591  46.712  0.00  0.00    +0.000 NA
ATOM     13  H   UNL     1      31.795  26.956  49.600  0.00  0.00    +0.000 HD
ATOM     14  H   UNL     1      29.450  27.495  49.736  0.00  0.00    +0.000 HD
BRANCH  11  15
ATOM     15  C   UNL     1      29.566  29.631  45.735  0.00  0.00    +0.000 A 
ATOM     16  C   UNL     1      28.496  30.482  46.029  0.00  0.00    +0.000 A 
ATOM     17  H   UNL     1      28.038  30.687  46.991  0.00  0.00    +0.000 HD
ATOM     18  N   UNL     1      28.050  31.076  44.889  0.00  0.00    +0.000 N 
ATOM     19  H   UNL     1      27.257  31.762  44.816  0.00  0.00    +0.000 HD
ATOM     20  C   UNL     1      28.833  30.600  43.904  0.00  0.00    +0.000 A 
ATOM     21  H   UNL     1      28.702  30.902  42.894  0.00  0.00    +0.000 HD
ATOM     22  N   UNL     1      29.750  29.730  44.399  0.00  0.00    +0.000 NA
ENDBRANCH  11  15
ENDBRANCH   4   7
ENDBRANCH   1   4
BRANCH   1  23
ATOM     23  O   UNL     1      35.000  28.358  49.443  0.00  0.00    +0.000 OA
BRANCH  23  28
ATOM     24  C   UNL     1      37.330  30.169  51.515  0.00  0.00    +0.000 A 
ATOM     25  C   UNL     1      38.074  30.866  50.519  0.00  0.00    +0.000 A 
ATOM     26  C   UNL     1      37.711  30.657  49.197  0.00  0.00    +0.000 A 
ATOM     27  N   UNL     1      36.667  29.795  48.970  0.00  0.00    +0.000 NA
ATOM     28  C   UNL     1      35.992  29.158  49.930  0.00  0.00    +0.000 A 
ATOM     29  N   UNL     1      36.342  29.359  51.210  0.00  0.00    +0.000 NA
ATOM     30  H   UNL     1      37.681  30.392  52.507  0.00  0.00    +0.000 HD
ATOM     31  H   UNL     1      38.894  31.542  50.710  0.00  0.00    +0.000 HD
BRANCH  26  34
ATOM     32  F   UNL     1      38.930  33.269  49.002  0.00  0.00    +0.000 F 
ATOM     33  C   UNL     1      38.911  32.484  47.940  0.00  0.00    +0.000 A 
ATOM     34  C   UNL     1      38.334  31.263  48.057  0.00  0.00    +0.000 A 
ATOM     35  C   UNL     1      38.375  30.522  46.866  0.00  0.00    +0.000 A 
ATOM     36  C   UNL     1      38.940  30.983  45.703  0.00  0.00    +0.000 A 
ATOM     37  C   UNL     1      39.508  32.218  45.640  0.00  0.00    +0.000 A 
ATOM     38  C   UNL     1      39.489  32.981  46.790  0.00  0.00    +0.000 A 
ATOM     39  H   UNL     1      37.933  29.516  46.850  0.00  0.00    +0.000 HD
ATOM     40  H   UNL     1      38.929  30.347  44.830  0.00  0.00    +0.000 HD
ATOM     41  H   UNL     1      39.932  32.525  44.709  0.00  0.00    +0.000 HD
ATOM     42  H   UNL     1      39.931  33.958  46.761  0.00  0.00    +0.000 HD
ENDBRANCH  26  34
ENDBRANCH  23  28
ENDBRANCH   1  23
TORSDOF 6
