
 OpenBabel03272509573D

 45 48  0  0  0  0  0  0  0  0999 V2000
   34.3890   28.2470   48.2830 C   0  0  0  0  0  0  0  0  0  0  0  0
   35.3440   27.6770   48.4140 H   0  0  0  0  0  0  0  0  0  0  0  0
   34.5050   28.8160   47.3600 H   0  0  0  0  0  0  0  0  0  0  0  0
   33.2280   27.3000   48.2590 C   0  0  0  0  0  0  0  0  0  0  0  0
   32.9800   26.9430   49.2750 H   0  0  0  0  0  0  0  0  0  0  0  0
   33.5020   26.4260   47.6210 H   0  0  0  0  0  0  0  0  0  0  0  0
   32.0140   27.9000   47.6370 C   0  0  0  0  0  0  0  0  0  0  0  0
   30.8260   27.8310   48.3420 C   0  0  0  0  0  0  0  0  0  0  0  0
   29.6500   28.3540   47.8530 C   0  0  0  0  0  0  0  0  0  0  0  0
   29.6590   28.9490   46.6540 N   0  0  0  0  0  0  0  0  0  0  0  0
   30.8430   29.0060   45.9720 C   0  0  0  0  0  0  0  0  0  0  0  0
   31.9960   28.5050   46.4280 N   0  0  0  0  0  0  0  0  0  0  0  0
   30.7500   27.3600   49.3280 H   0  0  0  0  0  0  0  0  0  0  0  0
   28.7310   28.3030   48.3970 H   0  0  0  0  0  0  0  0  0  0  0  0
   30.7760   29.6830   44.6440 C   0  0  0  0  0  0  0  0  0  0  0  0
   31.5570   29.1890   44.0150 H   0  0  0  0  0  0  0  0  0  0  0  0
   29.8190   29.4210   44.1430 H   0  0  0  0  0  0  0  0  0  0  0  0
   30.9760   31.1440   44.7310 C   0  0  0  0  0  0  0  0  0  0  0  0
   32.0040   31.7410   45.4340 C   0  0  0  0  0  0  0  0  0  0  0  0
   32.8150   31.3260   46.0220 H   0  0  0  0  0  0  0  0  0  0  0  0
   31.9190   33.0760   45.3270 N   0  0  0  0  0  0  0  0  0  0  0  0
   32.4910   33.8640   45.7010 H   0  0  0  0  0  0  0  0  0  0  0  0
   30.8290   33.3480   44.5500 C   0  0  0  0  0  0  0  0  0  0  0  0
   30.4420   34.3270   44.2420 H   0  0  0  0  0  0  0  0  0  0  0  0
   30.2790   32.1470   44.2050 N   0  0  0  0  0  0  0  0  0  0  0  0
   34.3090   29.1020   49.4250 O   0  0  0  0  0  0  0  0  0  0  0  0
   37.0430   29.8310   51.6710 C   0  0  0  0  0  0  0  0  0  0  0  0
   37.8930   30.5520   50.8060 C   0  0  0  0  0  0  0  0  0  0  0  0
   37.4710   30.7450   49.4900 C   0  0  0  0  0  0  0  0  0  0  0  0
   36.2570   30.2080   49.1680 N   0  0  0  0  0  0  0  0  0  0  0  0
   35.4640   29.5270   50.0060 C   0  0  0  0  0  0  0  0  0  0  0  0
   35.8780   29.3440   51.2730 N   0  0  0  0  0  0  0  0  0  0  0  0
   37.4230   29.7130   52.6810 H   0  0  0  0  0  0  0  0  0  0  0  0
   38.8370   30.9710   51.0500 H   0  0  0  0  0  0  0  0  0  0  0  0
   38.6350   33.3880   49.6240 F   0  0  0  0  0  0  0  0  0  0  0  0
   38.7540   32.6760   48.5070 C   0  0  0  0  0  0  0  0  0  0  0  0
   38.2020   31.4510   48.4730 C   0  0  0  0  0  0  0  0  0  0  0  0
   38.3860   30.7930   47.2560 C   0  0  0  0  0  0  0  0  0  0  0  0
   39.0610   31.3370   46.1940 C   0  0  0  0  0  0  0  0  0  0  0  0
   39.6060   32.6020   46.2850 C   0  0  0  0  0  0  0  0  0  0  0  0
   39.4380   33.2650   47.4730 C   0  0  0  0  0  0  0  0  0  0  0  0
   37.9820   29.7810   47.1000 H   0  0  0  0  0  0  0  0  0  0  0  0
   39.1790   30.7890   45.2680 H   0  0  0  0  0  0  0  0  0  0  0  0
   40.1390   33.0420   45.4600 H   0  0  0  0  0  0  0  0  0  0  0  0
   39.8630   34.2600   47.5550 H   0  0  0  0  0  0  0  0  0  0  0  0
  1  2  1  0  0  0  0
  1 26  1  0  0  0  0
  3  1  1  0  0  0  0
  4  1  1  0  0  0  0
  4  5  1  0  0  0  0
  6  4  1  0  0  0  0
  7  4  1  0  0  0  0
  7  8  1  0  0  0  0
  8 13  1  0  0  0  0
  9  8  2  0  0  0  0
  9 14  1  0  0  0  0
 10  9  1  0  0  0  0
 11 12  1  0  0  0  0
 11 10  2  0  0  0  0
 12  7  2  0  0  0  0
 15 18  1  0  0  0  0
 15 11  1  0  0  0  0
 16 15  1  0  0  0  0
 17 15  1  0  0  0  0
 18 19  2  0  0  0  0
 19 20  1  0  0  0  0
 21 19  1  0  0  0  0
 21 22  1  0  0  0  0
 23 21  1  0  0  0  0
 24 23  1  0  0  0  0
 25 23  2  0  0  0  0
 25 18  1  0  0  0  0
 26 31  1  0  0  0  0
 27 33  1  0  0  0  0
 28 34  1  0  0  0  0
 28 27  2  0  0  0  0
 29 28  1  0  0  0  0
 30 29  2  0  0  0  0
 30 31  1  0  0  0  0
 31 32  2  0  0  0  0
 32 27  1  0  0  0  0
 36 35  1  0  0  0  0
 37 36  1  0  0  0  0
 37 29  1  0  0  0  0
 38 37  2  0  0  0  0
 39 40  2  0  0  0  0
 39 38  1  0  0  0  0
 40 41  1  0  0  0  0
 41 45  1  0  0  0  0
 41 36  2  0  0  0  0
 42 38  1  0  0  0  0
 43 39  1  0  0  0  0
 44 40  1  0  0  0  0
M  END
>  <minimizedAffinity>
-6.51144171

>  <minimizedRMSD>
1.21052074

$$$$
