
 OpenBabel03272509403D

 34 36  0  0  1  0  0  0  0  0999 V2000
   37.0600   30.9650   49.0700 C   0  0  0  0  0  0  0  0  0  0  0  0
   36.8190   31.9230   50.0490 C   0  0  0  0  0  0  0  0  0  0  0  0
   37.4400   33.1570   50.0620 C   0  0  0  0  0  0  0  0  0  0  0  0
   38.3510   33.4780   49.0600 C   0  0  0  0  0  0  0  0  0  0  0  0
   38.5820   32.5240   48.0960 C   0  0  0  0  0  0  0  0  0  0  0  0
   37.9450   31.2950   48.1080 C   0  0  0  0  0  0  0  0  0  0  0  0
   36.1330   31.7700   50.8650 H   0  0  0  0  0  0  0  0  0  0  0  0
   37.2470   33.8970   50.8280 H   0  0  0  0  0  0  0  0  0  0  0  0
   38.8410   34.4480   49.0680 H   0  0  0  0  0  0  0  0  0  0  0  0
   39.3060   32.8440   47.3430 H   0  0  0  0  0  0  0  0  0  0  0  0
   36.3600   29.7000   49.1430 C   0  0  1  0  0  0  0  0  0  0  0  0
   36.8780   28.8530   49.9760 O   0  0  0  0  0  0  0  0  0  0  0  0
   33.6090   30.1510   46.8380 C   0  0  0  0  0  0  0  0  0  0  0  0
   32.9510   28.9180   46.8480 C   0  0  0  0  0  0  0  0  0  0  0  0
   33.4600   27.9310   47.6530 C   0  0  0  0  0  0  0  0  0  0  0  0
   34.5660   28.1660   48.4050 N   0  0  0  0  0  0  0  0  0  0  0  0
   35.1750   29.3380   48.3840 C   0  0  0  0  0  0  0  0  0  0  0  0
   34.6840   30.3200   47.5950 N   0  0  0  0  0  0  0  0  0  0  0  0
   33.2110   30.9380   46.2020 H   0  0  0  0  0  0  0  0  0  0  0  0
   32.0680   28.6990   46.2610 H   0  0  0  0  0  0  0  0  0  0  0  0
   33.0090   26.9500   47.7160 H   0  0  0  0  0  0  0  0  0  0  0  0
   38.3090   30.4140   47.0230 C   0  0  0  0  0  0  0  0  0  0  0  0
   38.8780   30.7560   45.8780 C   0  0  0  0  0  0  0  0  0  0  0  0
   39.3070   29.9690   44.7140 C   0  0  0  0  0  0  0  0  0  0  0  0
   38.5470   29.1960   44.5030 H   0  0  0  0  0  0  0  0  0  0  0  0
   40.2940   29.5380   44.9550 H   0  0  0  0  0  0  0  0  0  0  0  0
   39.4580   30.8570   43.5330 C   0  0  0  0  0  0  0  0  0  0  0  0
   39.1940   32.2240   43.3980 C   0  0  0  0  0  0  0  0  0  0  0  0
   38.8240   32.7970   44.2280 H   0  0  0  0  0  0  0  0  0  0  0  0
   39.4990   32.5340   42.1260 N   0  0  0  0  0  0  0  0  0  0  0  0
   39.3950   33.5150   41.7410 H   0  0  0  0  0  0  0  0  0  0  0  0
   39.9320   31.4350   41.4820 C   0  0  0  0  0  0  0  0  0  0  0  0
   40.2330   31.4540   40.4460 H   0  0  0  0  0  0  0  0  0  0  0  0
   39.9110   30.4030   42.3330 N   0  0  0  0  0  0  0  0  0  0  0  0
  1 11  1  0  0  0  0
  1  2  1  0  0  0  0
  2  3  2  0  0  0  0
  2  7  1  0  0  0  0
  3  8  1  0  0  0  0
  4  9  1  0  0  0  0
  4  3  1  0  0  0  0
  5  6  1  0  0  0  0
  5  4  2  0  0  0  0
  6  1  2  0  0  0  0
 10  5  1  0  0  0  0
 11 12  1  1  0  0  0
 13 14  2  0  0  0  0
 13 18  1  0  0  0  0
 14 15  1  0  0  0  0
 15 21  1  0  0  0  0
 15 16  2  0  0  0  0
 17 16  1  0  0  0  0
 17 11  1  0  0  0  0
 18 17  2  0  0  0  0
 19 13  1  0  0  0  0
 20 14  1  0  0  0  0
 22  6  1  0  0  0  0
 23 22  2  0  0  0  0
 24 26  1  0  0  0  0
 24 23  1  0  0  0  0
 25 24  1  0  0  0  0
 27 24  1  0  0  0  0
 28 27  2  0  0  0  0
 28 29  1  0  0  0  0
 30 28  1  0  0  0  0
 31 30  1  0  0  0  0
 32 30  1  0  0  0  0
 32 34  2  0  0  0  0
 33 32  1  0  0  0  0
 34 27  1  0  0  0  0
M  END
>  <minimizedAffinity>
-5.83344889

>  <minimizedRMSD>
2.46269846

$$$$
