
 OpenBabel03272509533D

 42 45  0  0  0  0  0  0  0  0999 V2000
   34.4210   29.0340   47.7790 C   0  0  0  0  0  0  0  0  0  0  0  0
   33.7620   29.8810   48.0850 H   0  0  0  0  0  0  0  0  0  0  0  0
   35.1250   29.4420   47.0070 H   0  0  0  0  0  0  0  0  0  0  0  0
   33.5820   27.9720   47.1390 C   0  0  0  0  0  0  0  0  0  0  0  0
   33.9590   26.9820   47.3830 H   0  0  0  0  0  0  0  0  0  0  0  0
   33.6120   28.0630   46.0210 H   0  0  0  0  0  0  0  0  0  0  0  0
   32.1440   28.0760   47.5170 C   0  0  0  0  0  0  0  0  0  0  0  0
   31.7280   27.4570   48.6890 C   0  0  0  0  0  0  0  0  0  0  0  0
   30.4270   27.4990   49.1160 C   0  0  0  0  0  0  0  0  0  0  0  0
   29.5310   28.1520   48.3900 N   0  0  0  0  0  0  0  0  0  0  0  0
   29.9390   28.7660   47.2290 C   0  0  0  0  0  0  0  0  0  0  0  0
   31.2120   28.7360   46.7940 N   0  0  0  0  0  0  0  0  0  0  0  0
   32.4480   26.9190   49.2950 H   0  0  0  0  0  0  0  0  0  0  0  0
   30.1560   27.0000   50.0360 H   0  0  0  0  0  0  0  0  0  0  0  0
   28.9340   29.4820   46.4400 C   0  0  0  0  0  0  0  0  0  0  0  0
   27.7020   29.8050   47.0160 C   0  0  0  0  0  0  0  0  0  0  0  0
   27.3470   29.5950   48.0200 H   0  0  0  0  0  0  0  0  0  0  0  0
   26.9260   30.4640   46.1120 N   0  0  0  0  0  0  0  0  0  0  0  0
   25.9530   30.8230   46.2750 H   0  0  0  0  0  0  0  0  0  0  0  0
   27.6690   30.5480   44.9930 C   0  0  0  0  0  0  0  0  0  0  0  0
   27.3020   31.0210   44.1160 H   0  0  0  0  0  0  0  0  0  0  0  0
   28.8800   29.9610   45.1770 N   0  0  0  0  0  0  0  0  0  0  0  0
   35.1210   28.5160   48.9020 O   0  0  0  0  0  0  0  0  0  0  0  0
   37.3310   30.1890   51.2080 C   0  0  0  0  0  0  0  0  0  0  0  0
   38.1450   30.9260   50.2980 C   0  0  0  0  0  0  0  0  0  0  0  0
   37.8650   30.7890   48.9470 C   0  0  0  0  0  0  0  0  0  0  0  0
   36.8290   29.9530   48.6100 N   0  0  0  0  0  0  0  0  0  0  0  0
   36.0880   29.2770   49.4920 C   0  0  0  0  0  0  0  0  0  0  0  0
   36.3570   29.4090   50.8000 N   0  0  0  0  0  0  0  0  0  0  0  0
   37.6200   30.3570   52.2300 H   0  0  0  0  0  0  0  0  0  0  0  0
   38.9570   31.5800   50.5750 H   0  0  0  0  0  0  0  0  0  0  0  0
   38.9340   33.4720   48.8910 F   0  0  0  0  0  0  0  0  0  0  0  0
   39.0750   32.6980   47.8300 C   0  0  0  0  0  0  0  0  0  0  0  0
   38.5660   31.4430   47.8810 C   0  0  0  0  0  0  0  0  0  0  0  0
   38.7770   30.7180   46.6980 C   0  0  0  0  0  0  0  0  0  0  0  0
   39.4310   31.2250   45.6030 C   0  0  0  0  0  0  0  0  0  0  0  0
   39.9260   32.4920   45.6050 C   0  0  0  0  0  0  0  0  0  0  0  0
   39.7390   33.2410   46.7490 C   0  0  0  0  0  0  0  0  0  0  0  0
   38.4020   29.6870   46.6320 H   0  0  0  0  0  0  0  0  0  0  0  0
   39.5510   30.5980   44.7310 H   0  0  0  0  0  0  0  0  0  0  0  0
   40.4250   32.8340   44.7250 H   0  0  0  0  0  0  0  0  0  0  0  0
   40.1210   34.2430   46.7710 H   0  0  0  0  0  0  0  0  0  0  0  0
  1  2  1  0  0  0  0
  1 23  1  0  0  0  0
  3  1  1  0  0  0  0
  4  5  1  0  0  0  0
  4  7  1  0  0  0  0
  4  1  1  0  0  0  0
  6  4  1  0  0  0  0
  7  8  1  0  0  0  0
  8  9  2  0  0  0  0
  8 13  1  0  0  0  0
  9 14  1  0  0  0  0
 10  9  1  0  0  0  0
 11 10  2  0  0  0  0
 12 11  1  0  0  0  0
 12  7  2  0  0  0  0
 15 16  2  0  0  0  0
 15 11  1  0  0  0  0
 16 17  1  0  0  0  0
 18 19  1  0  0  0  0
 18 16  1  0  0  0  0
 20 22  2  0  0  0  0
 20 18  1  0  0  0  0
 21 20  1  0  0  0  0
 22 15  1  0  0  0  0
 23 28  1  0  0  0  0
 24 30  1  0  0  0  0
 25 31  1  0  0  0  0
 25 24  2  0  0  0  0
 26 25  1  0  0  0  0
 27 26  2  0  0  0  0
 27 28  1  0  0  0  0
 28 29  2  0  0  0  0
 29 24  1  0  0  0  0
 33 34  1  0  0  0  0
 33 32  1  0  0  0  0
 34 26  1  0  0  0  0
 35 34  2  0  0  0  0
 36 37  2  0  0  0  0
 36 35  1  0  0  0  0
 37 38  1  0  0  0  0
 38 42  1  0  0  0  0
 38 33  2  0  0  0  0
 39 35  1  0  0  0  0
 40 36  1  0  0  0  0
 41 37  1  0  0  0  0
M  END
>  <minimizedAffinity>
-6.63363314

>  <minimizedRMSD>
0.721091449

$$$$
