
 OpenBabel03272510133D

 40 43  0  0  0  0  0  0  0  0999 V2000
   38.3870   31.6290   48.8720 C   0  0  0  0  0  0  0  0  0  0  0  0
   38.5280   32.9110   49.4080 C   0  0  0  0  0  0  0  0  0  0  0  0
   39.1720   33.6800   48.4440 C   0  0  0  0  0  0  0  0  0  0  0  0
   39.3940   32.8900   47.3990 N   0  0  0  0  0  0  0  0  0  0  0  0
   38.9330   31.6790   47.6490 N   0  0  0  0  0  0  0  0  0  0  0  0
   38.2560   33.3900   50.3560 H   0  0  0  0  0  0  0  0  0  0  0  0
   39.4570   34.7320   48.4920 H   0  0  0  0  0  0  0  0  0  0  0  0
   40.0440   33.2950   46.1760 C   0  0  0  0  0  0  0  0  0  0  0  0
   40.1180   34.4000   46.1840 H   0  0  0  0  0  0  0  0  0  0  0  0
   41.0380   32.8100   46.1360 H   0  0  0  0  0  0  0  0  0  0  0  0
   39.1670   32.8670   45.0160 C   0  0  0  0  0  0  0  0  0  0  0  0
   38.2180   32.4970   45.4190 H   0  0  0  0  0  0  0  0  0  0  0  0
   38.9340   33.7890   44.4300 H   0  0  0  0  0  0  0  0  0  0  0  0
   39.8330   31.8310   44.1870 C   0  0  0  0  0  0  0  0  0  0  0  0
   40.6760   30.7640   44.3570 C   0  0  0  0  0  0  0  0  0  0  0  0
   40.9940   30.5540   45.3690 H   0  0  0  0  0  0  0  0  0  0  0  0
   40.9290   30.1930   43.1680 N   0  0  0  0  0  0  0  0  0  0  0  0
   41.5400   29.3770   43.0740 H   0  0  0  0  0  0  0  0  0  0  0  0
   40.2440   30.9020   42.2560 C   0  0  0  0  0  0  0  0  0  0  0  0
   40.2500   30.6780   41.1850 H   0  0  0  0  0  0  0  0  0  0  0  0
   39.5730   31.9000   42.8570 N   0  0  0  0  0  0  0  0  0  0  0  0
   37.7610   30.7320   49.7090 O   0  0  0  0  0  0  0  0  0  0  0  0
   34.1740   28.9480   48.3790 C   0  0  0  0  0  0  0  0  0  0  0  0
   34.9000   28.4010   49.4010 C   0  0  0  0  0  0  0  0  0  0  0  0
   36.0780   28.9300   49.8860 C   0  0  0  0  0  0  0  0  0  0  0  0
   36.5950   30.0660   49.3470 C   0  0  0  0  0  0  0  0  0  0  0  0
   35.8570   30.6310   48.2980 C   0  0  0  0  0  0  0  0  0  0  0  0
   34.7050   30.0900   47.8450 N   0  0  0  0  0  0  0  0  0  0  0  0
   34.5720   27.4960   49.8970 H   0  0  0  0  0  0  0  0  0  0  0  0
   36.6500   28.4930   50.6970 H   0  0  0  0  0  0  0  0  0  0  0  0
   36.1940   31.5400   47.8080 H   0  0  0  0  0  0  0  0  0  0  0  0
   32.1170   27.5620   48.6240 C   0  0  0  0  0  0  0  0  0  0  0  0
   32.9600   28.3880   47.8840 C   0  0  0  0  0  0  0  0  0  0  0  0
   32.5780   28.6620   46.5910 C   0  0  0  0  0  0  0  0  0  0  0  0
   31.4170   28.1340   46.0850 N   0  0  0  0  0  0  0  0  0  0  0  0
   30.6380   27.3360   46.8550 C   0  0  0  0  0  0  0  0  0  0  0  0
   30.9730   27.0360   48.1390 N   0  0  0  0  0  0  0  0  0  0  0  0
   32.3810   27.3240   49.6420 H   0  0  0  0  0  0  0  0  0  0  0  0
   33.1960   29.3020   45.9630 H   0  0  0  0  0  0  0  0  0  0  0  0
   29.7240   26.9260   46.4420 H   0  0  0  0  0  0  0  0  0  0  0  0
  1  2  1  0  0  0  0
  1 22  1  0  0  0  0
  2  6  1  0  0  0  0
  3  7  1  0  0  0  0
  3  2  2  0  0  0  0
  4  5  1  0  0  0  0
  4  3  1  0  0  0  0
  5  1  2  0  0  0  0
  8  9  1  0  0  0  0
  8  4  1  0  0  0  0
 10  8  1  0  0  0  0
 11 12  1  0  0  0  0
 11  8  1  0  0  0  0
 13 11  1  0  0  0  0
 14 15  2  0  0  0  0
 14 11  1  0  0  0  0
 15 16  1  0  0  0  0
 17 15  1  0  0  0  0
 18 17  1  0  0  0  0
 19 21  2  0  0  0  0
 19 17  1  0  0  0  0
 20 19  1  0  0  0  0
 21 14  1  0  0  0  0
 23 24  1  0  0  0  0
 24 25  2  0  0  0  0
 24 29  1  0  0  0  0
 25 30  1  0  0  0  0
 26 22  1  0  0  0  0
 26 25  1  0  0  0  0
 27 26  2  0  0  0  0
 28 27  1  0  0  0  0
 28 23  2  0  0  0  0
 31 27  1  0  0  0  0
 32 38  1  0  0  0  0
 33 23  1  0  0  0  0
 33 32  2  0  0  0  0
 34 33  1  0  0  0  0
 35 34  2  0  0  0  0
 35 36  1  0  0  0  0
 36 37  2  0  0  0  0
 37 32  1  0  0  0  0
 39 34  1  0  0  0  0
 40 36  1  0  0  0  0
M  END
>  <minimizedAffinity>
-6.0639987

>  <minimizedRMSD>
2.01765013

$$$$
