
 OpenBabel03272509523D

 42 45  0  0  0  0  0  0  0  0999 V2000
   34.4430   28.6530   48.1420 C   0  0  0  0  0  0  0  0  0  0  0  0
   33.8430   29.5940   48.1680 H   0  0  0  0  0  0  0  0  0  0  0  0
   35.2510   28.8130   47.3820 H   0  0  0  0  0  0  0  0  0  0  0  0
   33.5690   27.5320   47.6740 C   0  0  0  0  0  0  0  0  0  0  0  0
   33.7600   26.6280   48.2480 H   0  0  0  0  0  0  0  0  0  0  0  0
   33.7810   27.2840   46.6010 H   0  0  0  0  0  0  0  0  0  0  0  0
   32.1190   27.8760   47.7340 C   0  0  0  0  0  0  0  0  0  0  0  0
   31.3710   27.3780   48.7920 C   0  0  0  0  0  0  0  0  0  0  0  0
   30.0330   27.6410   48.9290 C   0  0  0  0  0  0  0  0  0  0  0  0
   29.4280   28.3950   48.0220 N   0  0  0  0  0  0  0  0  0  0  0  0
   30.1670   28.8890   46.9720 C   0  0  0  0  0  0  0  0  0  0  0  0
   31.4810   28.6420   46.8210 N   0  0  0  0  0  0  0  0  0  0  0  0
   31.8490   26.7600   49.5440 H   0  0  0  0  0  0  0  0  0  0  0  0
   29.4960   27.2290   49.7730 H   0  0  0  0  0  0  0  0  0  0  0  0
   29.4810   29.7190   45.9800 C   0  0  0  0  0  0  0  0  0  0  0  0
   30.2280   30.5000   45.0930 C   0  0  0  0  0  0  0  0  0  0  0  0
   31.3070   30.5940   45.0170 H   0  0  0  0  0  0  0  0  0  0  0  0
   29.3950   31.1860   44.2650 N   0  0  0  0  0  0  0  0  0  0  0  0
   29.6850   31.8480   43.5020 H   0  0  0  0  0  0  0  0  0  0  0  0
   28.1500   30.8350   44.6350 C   0  0  0  0  0  0  0  0  0  0  0  0
   27.2930   31.2310   44.1460 H   0  0  0  0  0  0  0  0  0  0  0  0
   28.1860   29.9540   45.6660 N   0  0  0  0  0  0  0  0  0  0  0  0
   34.9820   28.3720   49.4270 O   0  0  0  0  0  0  0  0  0  0  0  0
   37.3210   30.1620   51.5070 C   0  0  0  0  0  0  0  0  0  0  0  0
   38.0700   30.8580   50.5140 C   0  0  0  0  0  0  0  0  0  0  0  0
   37.7070   30.6560   49.1910 C   0  0  0  0  0  0  0  0  0  0  0  0
   36.6580   29.8010   48.9600 N   0  0  0  0  0  0  0  0  0  0  0  0
   35.9780   29.1650   49.9170 C   0  0  0  0  0  0  0  0  0  0  0  0
   36.3290   29.3590   51.1980 N   0  0  0  0  0  0  0  0  0  0  0  0
   37.6730   30.3790   52.5000 H   0  0  0  0  0  0  0  0  0  0  0  0
   38.8940   31.5280   50.7080 H   0  0  0  0  0  0  0  0  0  0  0  0
   38.9380   33.2630   49.0040 F   0  0  0  0  0  0  0  0  0  0  0  0
   38.9170   32.4810   47.9400 C   0  0  0  0  0  0  0  0  0  0  0  0
   38.3340   31.2620   48.0530 C   0  0  0  0  0  0  0  0  0  0  0  0
   38.3740   30.5240   46.8600 C   0  0  0  0  0  0  0  0  0  0  0  0
   38.9430   30.9850   45.6990 C   0  0  0  0  0  0  0  0  0  0  0  0
   39.5160   32.2180   45.6410 C   0  0  0  0  0  0  0  0  0  0  0  0
   39.4990   32.9780   46.7930 C   0  0  0  0  0  0  0  0  0  0  0  0
   37.9270   29.5200   46.8410 H   0  0  0  0  0  0  0  0  0  0  0  0
   38.9300   30.3520   44.8250 H   0  0  0  0  0  0  0  0  0  0  0  0
   39.9430   32.5250   44.7110 H   0  0  0  0  0  0  0  0  0  0  0  0
   39.9460   33.9530   46.7670 H   0  0  0  0  0  0  0  0  0  0  0  0
  1  2  1  0  0  0  0
  1 23  1  0  0  0  0
  3  1  1  0  0  0  0
  4  7  1  0  0  0  0
  4  1  1  0  0  0  0
  4  5  1  0  0  0  0
  6  4  1  0  0  0  0
  7  8  1  0  0  0  0
  8  9  2  0  0  0  0
  8 13  1  0  0  0  0
  9 14  1  0  0  0  0
 10  9  1  0  0  0  0
 11 10  2  0  0  0  0
 12 11  1  0  0  0  0
 12  7  2  0  0  0  0
 15 11  1  0  0  0  0
 16 15  2  0  0  0  0
 17 16  1  0  0  0  0
 18 20  1  0  0  0  0
 18 16  1  0  0  0  0
 19 18  1  0  0  0  0
 20 22  2  0  0  0  0
 21 20  1  0  0  0  0
 22 15  1  0  0  0  0
 23 28  1  0  0  0  0
 24 30  1  0  0  0  0
 25 31  1  0  0  0  0
 25 24  2  0  0  0  0
 26 25  1  0  0  0  0
 27 26  2  0  0  0  0
 27 28  1  0  0  0  0
 28 29  2  0  0  0  0
 29 24  1  0  0  0  0
 33 34  1  0  0  0  0
 33 32  1  0  0  0  0
 34 26  1  0  0  0  0
 35 34  2  0  0  0  0
 36 35  1  0  0  0  0
 37 36  2  0  0  0  0
 37 38  1  0  0  0  0
 38 33  2  0  0  0  0
 39 35  1  0  0  0  0
 40 36  1  0  0  0  0
 41 37  1  0  0  0  0
 42 38  1  0  0  0  0
M  END
>  <minimizedAffinity>
-6.49042892

>  <minimizedRMSD>
0.176273674

$$$$
