REMARK  Name = 
REMARK  6 active torsions:
REMARK  status: ('A' for Active; 'I' for Inactive)
REMARK    1  A    between atoms: C_1  and  C_8
REMARK    2  A    between atoms: C_4  and  O_13
REMARK    3  A    between atoms: O_13  and  C_14
REMARK    4  A    between atoms: N_17  and  C_19
REMARK    5  A    between atoms: C_19  and  C_20
REMARK    6  A    between atoms: C_20  and  C_33
REMARK                            x       y       z     vdW  Elec       q    Type
REMARK                         _______ _______ _______ _____ _____    ______ ____
ROOT
ATOM      1  C   UNL     1      38.369  31.258  48.641  0.00  0.00    +0.000 A 
ATOM      2  C   UNL     1      38.441  32.522  49.231  0.00  0.00    +0.000 A 
ATOM      3  C   UNL     1      39.051  33.362  48.305  0.00  0.00    +0.000 A 
ATOM      4  N   UNL     1      39.320  32.628  47.230  0.00  0.00    +0.000 N 
ATOM      5  N   UNL     1      38.919  31.386  47.426  0.00  0.00    +0.000 NA
ATOM      6  H   UNL     1      38.139  32.947  50.196  0.00  0.00    +0.000 HD
ATOM      7  H   UNL     1      39.282  34.424  48.399  0.00  0.00    +0.000 HD
ENDROOT
BRANCH   4   8
ATOM      8  C   UNL     1      39.956  33.116  46.030  0.00  0.00    +0.000 C 
ATOM      9  H   UNL     1      39.160  33.487  45.355  0.00  0.00    +0.000 HD
ATOM     10  H   UNL     1      40.667  33.914  46.317  0.00  0.00    +0.000 HD
BRANCH   8  11
ATOM     11  C   UNL     1      40.662  31.950  45.367  0.00  0.00    +0.000 C 
ATOM     12  H   UNL     1      39.910  31.203  45.090  0.00  0.00    +0.000 HD
ATOM     13  H   UNL     1      41.102  32.337  44.417  0.00  0.00    +0.000 HD
BRANCH  11  14
ATOM     14  C   UNL     1      41.691  31.361  46.261  0.00  0.00    +0.000 A 
ATOM     15  C   UNL     1      41.913  31.196  47.604  0.00  0.00    +0.000 A 
ATOM     16  H   UNL     1      41.158  31.586  48.272  0.00  0.00    +0.000 HD
ATOM     17  N   UNL     1      43.078  30.555  47.794  0.00  0.00    +0.000 N 
ATOM     18  H   UNL     1      43.432  30.332  48.728  0.00  0.00    +0.000 HD
ATOM     19  C   UNL     1      43.583  30.320  46.571  0.00  0.00    +0.000 A 
ATOM     20  H   UNL     1      44.534  29.808  46.397  0.00  0.00    +0.000 HD
ATOM     21  N   UNL     1      42.754  30.802  45.629  0.00  0.00    +0.000 NA
ENDBRANCH  11  14
ENDBRANCH   8  11
ENDBRANCH   4   8
BRANCH   1  22
ATOM     22  O   UNL     1      37.784  30.296  49.435  0.00  0.00    +0.000 OA
BRANCH  22  26
ATOM     23  C   UNL     1      33.999  28.826  48.281  0.00  0.00    +0.000 A 
ATOM     24  C   UNL     1      34.623  28.367  49.408  0.00  0.00    +0.000 A 
ATOM     25  C   UNL     1      35.857  28.802  49.844  0.00  0.00    +0.000 A 
ATOM     26  C   UNL     1      36.540  29.747  49.144  0.00  0.00    +0.000 A 
ATOM     27  C   UNL     1      35.907  30.221  47.987  0.00  0.00    +0.000 A 
ATOM     28  N   UNL     1      34.696  29.775  47.585  0.00  0.00    +0.000 NA
ATOM     29  H   UNL     1      34.161  27.615  50.035  0.00  0.00    +0.000 HD
ATOM     30  H   UNL     1      36.348  28.436  50.739  0.00  0.00    +0.000 HD
ATOM     31  H   UNL     1      36.378  30.977  47.365  0.00  0.00    +0.000 HD
BRANCH  23  33
ATOM     32  C   UNL     1      31.904  27.506  48.568  0.00  0.00    +0.000 A 
ATOM     33  C   UNL     1      32.725  28.364  47.839  0.00  0.00    +0.000 A 
ATOM     34  C   UNL     1      32.256  28.774  46.613  0.00  0.00    +0.000 A 
ATOM     35  N   UNL     1      31.035  28.342  46.158  0.00  0.00    +0.000 NA
ATOM     36  C   UNL     1      30.282  27.506  46.914  0.00  0.00    +0.000 A 
ATOM     37  N   UNL     1      30.703  27.073  48.133  0.00  0.00    +0.000 NA
ATOM     38  H   UNL     1      32.236  27.162  49.535  0.00  0.00    +0.000 HD
ATOM     39  H   UNL     1      32.852  29.445  45.996  0.00  0.00    +0.000 HD
ATOM     40  H   UNL     1      29.321  27.173  46.542  0.00  0.00    +0.000 HD
ENDBRANCH  23  33
ENDBRANCH  22  26
ENDBRANCH   1  22
TORSDOF 6
