
 OpenBabel03272509073D

 39 42  0  0  0  0  0  0  0  0999 V2000
   32.8640   27.7750   48.6770 C   0  0  0  0  0  0  0  0  0  0  0  0
   32.6640   26.9810   49.4600 H   0  0  0  0  0  0  0  0  0  0  0  0
   31.9160   28.3160   48.6050 H   0  0  0  0  0  0  0  0  0  0  0  0
   33.2290   27.0030   47.4610 C   0  0  0  0  0  0  0  0  0  0  0  0
   33.7510   25.7130   47.5240 C   0  0  0  0  0  0  0  0  0  0  0  0
   34.0930   25.0060   46.4050 C   0  0  0  0  0  0  0  0  0  0  0  0
   33.9300   25.5560   45.1510 C   0  0  0  0  0  0  0  0  0  0  0  0
   33.4240   26.8080   45.0810 C   0  0  0  0  0  0  0  0  0  0  0  0
   33.0720   27.5390   46.2040 C   0  0  0  0  0  0  0  0  0  0  0  0
   33.8750   25.2920   48.5230 H   0  0  0  0  0  0  0  0  0  0  0  0
   34.4910   24.0130   46.5360 H   0  0  0  0  0  0  0  0  0  0  0  0
   34.2080   24.9780   44.2800 H   0  0  0  0  0  0  0  0  0  0  0  0
   33.2930   27.2490   44.0920 H   0  0  0  0  0  0  0  0  0  0  0  0
   32.5320   28.8780   45.9980 C   0  0  0  0  0  0  0  0  0  0  0  0
   31.2170   29.2080   45.7290 C   0  0  0  0  0  0  0  0  0  0  0  0
   30.3550   28.5330   45.6250 H   0  0  0  0  0  0  0  0  0  0  0  0
   31.0440   30.5340   45.5910 N   0  0  0  0  0  0  0  0  0  0  0  0
   30.1590   31.0500   45.3870 H   0  0  0  0  0  0  0  0  0  0  0  0
   32.2570   31.0730   45.7700 C   0  0  0  0  0  0  0  0  0  0  0  0
   32.5330   32.1220   45.7380 H   0  0  0  0  0  0  0  0  0  0  0  0
   33.0990   30.0790   46.0060 N   0  0  0  0  0  0  0  0  0  0  0  0
   35.2520   28.4300   48.9550 C   0  0  0  0  0  0  0  0  0  0  0  0
   33.9780   28.5660   49.2280 C   0  0  0  0  0  0  0  0  0  0  0  0
   37.3050   30.1320   51.4510 C   0  0  0  0  0  0  0  0  0  0  0  0
   38.0420   31.0240   50.6500 C   0  0  0  0  0  0  0  0  0  0  0  0
   37.8090   31.0120   49.2640 C   0  0  0  0  0  0  0  0  0  0  0  0
   36.8780   30.1340   48.7670 N   0  0  0  0  0  0  0  0  0  0  0  0
   36.2080   29.3060   49.6010 C   0  0  0  0  0  0  0  0  0  0  0  0
   36.4090   29.2980   50.9120 N   0  0  0  0  0  0  0  0  0  0  0  0
   37.5410   30.2030   52.5020 H   0  0  0  0  0  0  0  0  0  0  0  0
   38.7780   31.7240   51.0020 H   0  0  0  0  0  0  0  0  0  0  0  0
   38.5180   31.8990   48.3280 C   0  0  0  0  0  0  0  0  0  0  0  0
   38.8710   31.5160   47.0610 C   0  0  0  0  0  0  0  0  0  0  0  0
   39.5190   32.5900   46.4540 C   0  0  0  0  0  0  0  0  0  0  0  0
   39.5340   33.5860   47.3830 N   0  0  0  0  0  0  0  0  0  0  0  0
   38.9340   33.1570   48.4890 N   0  0  0  0  0  0  0  0  0  0  0  0
   38.7190   30.5780   46.5400 H   0  0  0  0  0  0  0  0  0  0  0  0
   39.9320   32.6480   45.4630 H   0  0  0  0  0  0  0  0  0  0  0  0
   39.9530   34.5300   47.2320 H   0  0  0  0  0  0  0  0  0  0  0  0
  1 23  1  0  0  0  0
  1  2  1  0  0  0  0
  3  1  1  0  0  0  0
  4  5  1  0  0  0  0
  4  1  1  0  0  0  0
  5 10  1  0  0  0  0
  6 11  1  0  0  0  0
  6  5  2  0  0  0  0
  7  6  1  0  0  0  0
  8  7  2  0  0  0  0
  8  9  1  0  0  0  0
  9  4  2  0  0  0  0
 12  7  1  0  0  0  0
 13  8  1  0  0  0  0
 14 21  1  0  0  0  0
 14  9  1  0  0  0  0
 15 14  2  0  0  0  0
 16 15  1  0  0  0  0
 17 15  1  0  0  0  0
 17 19  1  0  0  0  0
 18 17  1  0  0  0  0
 19 21  2  0  0  0  0
 20 19  1  0  0  0  0
 22 23  2  0  0  0  0
 22 28  1  0  0  0  0
 24 30  1  0  0  0  0
 25 31  1  0  0  0  0
 25 24  2  0  0  0  0
 26 25  1  0  0  0  0
 27 26  2  0  0  0  0
 27 28  1  0  0  0  0
 28 29  2  0  0  0  0
 29 24  1  0  0  0  0
 32 36  2  0  0  0  0
 32 26  1  0  0  0  0
 33 32  1  0  0  0  0
 34 33  2  0  0  0  0
 34 35  1  0  0  0  0
 35 36  1  0  0  0  0
 37 33  1  0  0  0  0
 38 34  1  0  0  0  0
 39 35  1  0  0  0  0
M  END
>  <minimizedAffinity>
-6.4147954

>  <minimizedRMSD>
1.12699521

$$$$
