
 OpenBabel03272506013D

 45 48  0  0  1  0  0  0  0  0999 V2000
   35.3550   30.3370   49.9240 C   0  0  2  0  0  0  0  0  0  0  0  0
   36.2660   31.3390   49.3880 C   0  0  0  0  0  0  0  0  0  0  0  0
   37.7540   30.8810   49.4340 C   0  0  2  0  0  0  0  0  0  0  0  0
   38.2170   30.5610   50.7640 C   0  0  0  0  0  0  0  0  0  0  0  0
   37.1790   29.8310   51.6180 C   0  0  0  0  0  0  0  0  0  0  0  0
   36.0760   29.2780   50.7680 C   0  0  0  0  0  0  0  0  0  0  0  0
   34.6410   30.7930   50.6740 H   0  0  0  0  0  0  0  0  0  0  0  0
   36.3020   32.2150   50.1250 H   0  0  0  0  0  0  0  0  0  0  0  0
   36.1570   31.7930   48.4310 H   0  0  0  0  0  0  0  0  0  0  0  0
   37.8320   30.0640   48.6980 H   0  0  0  0  0  0  0  0  0  0  0  0
   38.4620   31.4710   51.3440 H   0  0  0  0  0  0  0  0  0  0  0  0
   39.1640   29.9880   50.6980 H   0  0  0  0  0  0  0  0  0  0  0  0
   36.7850   30.4370   52.4400 H   0  0  0  0  0  0  0  0  0  0  0  0
   37.6960   28.9540   52.0560 H   0  0  0  0  0  0  0  0  0  0  0  0
   35.3370   28.7930   51.4280 H   0  0  0  0  0  0  0  0  0  0  0  0
   36.4760   28.5330   50.0570 H   0  0  0  0  0  0  0  0  0  0  0  0
   38.6010   30.6260   46.6190 Cl  0  0  0  0  0  0  0  0  0  0  0  0
   38.9710   32.0300   47.5820 C   0  0  0  0  0  0  0  0  0  0  0  0
   38.4890   32.0500   48.8680 C   0  0  0  0  0  0  0  0  0  0  0  0
   38.8000   33.2140   49.5530 C   0  0  0  0  0  0  0  0  0  0  0  0
   39.5250   34.2530   49.0030 C   0  0  0  0  0  0  0  0  0  0  0  0
   39.9800   34.1520   47.6880 C   0  0  0  0  0  0  0  0  0  0  0  0
   39.6910   33.0000   46.9580 C   0  0  0  0  0  0  0  0  0  0  0  0
   38.4530   33.3150   50.5730 H   0  0  0  0  0  0  0  0  0  0  0  0
   39.7160   35.1170   49.6150 H   0  0  0  0  0  0  0  0  0  0  0  0
   40.5490   34.9550   47.2410 H   0  0  0  0  0  0  0  0  0  0  0  0
   40.1530   32.8960   45.6210 N   0  0  0  0  0  0  0  0  0  0  0  0
   39.6600   33.0920   44.7190 H   0  0  0  0  0  0  0  0  0  0  0  0
   41.1180   32.5850   45.3780 H   0  0  0  0  0  0  0  0  0  0  0  0
   34.5340   29.6140   48.9570 C   0  0  0  0  0  0  0  0  0  0  0  0
   35.0620   29.5860   47.6760 C   0  0  0  0  0  0  0  0  0  0  0  0
   34.3720   28.9000   46.6810 C   0  0  0  0  0  0  0  0  0  0  0  0
   33.1730   28.2690   47.0270 N   0  0  0  0  0  0  0  0  0  0  0  0
   32.6990   28.3210   48.2770 C   0  0  0  0  0  0  0  0  0  0  0  0
   33.3950   28.9920   49.2040 N   0  0  0  0  0  0  0  0  0  0  0  0
   35.9240   29.9670   47.1460 H   0  0  0  0  0  0  0  0  0  0  0  0
   34.5600   28.7320   45.6450 H   0  0  0  0  0  0  0  0  0  0  0  0
   31.4490   27.6650   48.6420 C   0  0  0  0  0  0  0  0  0  0  0  0
   30.7270   26.6390   48.0780 C   0  0  0  0  0  0  0  0  0  0  0  0
   31.0510   26.1370   47.1820 H   0  0  0  0  0  0  0  0  0  0  0  0
   29.6490   26.4710   48.8690 N   0  0  0  0  0  0  0  0  0  0  0  0
   28.9160   25.7380   48.6650 H   0  0  0  0  0  0  0  0  0  0  0  0
   29.6530   27.3360   49.8960 C   0  0  0  0  0  0  0  0  0  0  0  0
   28.8850   27.3940   50.6690 H   0  0  0  0  0  0  0  0  0  0  0  0
   30.7780   28.0800   49.7520 N   0  0  0  0  0  0  0  0  0  0  0  0
  1  7  1  1  0  0  0
  1  6  1  0  0  0  0
  2  3  1  0  0  0  0
  2  1  1  0  0  0  0
  2  8  1  0  0  0  0
  3 10  1  6  0  0  0
  3  4  1  0  0  0  0
  4 11  1  0  0  0  0
  4  5  1  0  0  0  0
  5 14  1  0  0  0  0
  5 13  1  0  0  0  0
  6 15  1  0  0  0  0
  6  5  1  0  0  0  0
  9  2  1  0  0  0  0
 12  4  1  0  0  0  0
 16  6  1  0  0  0  0
 17 18  1  0  0  0  0
 18 19  1  0  0  0  0
 19  3  1  0  0  0  0
 19 20  2  0  0  0  0
 20 24  1  0  0  0  0
 21 20  1  0  0  0  0
 21 25  1  0  0  0  0
 22 21  2  0  0  0  0
 23 18  2  0  0  0  0
 23 22  1  0  0  0  0
 26 22  1  0  0  0  0
 27 23  1  0  0  0  0
 28 27  1  0  0  0  0
 29 27  1  0  0  0  0
 30 35  1  0  0  0  0
 30  1  1  0  0  0  0
 31 30  2  0  0  0  0
 32 33  2  0  0  0  0
 32 31  1  0  0  0  0
 33 34  1  0  0  0  0
 34 38  1  0  0  0  0
 34 35  2  0  0  0  0
 36 31  1  0  0  0  0
 37 32  1  0  0  0  0
 38 45  1  0  0  0  0
 39 38  2  0  0  0  0
 39 41  1  0  0  0  0
 40 39  1  0  0  0  0
 41 43  1  0  0  0  0
 42 41  1  0  0  0  0
 43 44  1  0  0  0  0
 45 43  2  0  0  0  0
M  END
>  <minimizedAffinity>
-7.64939833

>  <minimizedRMSD>
0.890121281

$$$$
