
 OpenBabel03272510133D

 40 43  0  0  0  0  0  0  0  0999 V2000
   38.2360   31.6030   48.8990 C   0  0  0  0  0  0  0  0  0  0  0  0
   38.4520   32.8910   49.3940 C   0  0  0  0  0  0  0  0  0  0  0  0
   39.1460   33.5870   48.4100 C   0  0  0  0  0  0  0  0  0  0  0  0
   39.3250   32.7500   47.3930 N   0  0  0  0  0  0  0  0  0  0  0  0
   38.7890   31.5790   47.6790 N   0  0  0  0  0  0  0  0  0  0  0  0
   38.2050   33.4170   50.3240 H   0  0  0  0  0  0  0  0  0  0  0  0
   39.4940   34.6210   48.4250 H   0  0  0  0  0  0  0  0  0  0  0  0
   40.0030   33.0740   46.1610 C   0  0  0  0  0  0  0  0  0  0  0  0
   40.1860   34.1670   46.1550 H   0  0  0  0  0  0  0  0  0  0  0  0
   40.9440   32.4930   46.1220 H   0  0  0  0  0  0  0  0  0  0  0  0
   39.0800   32.7220   45.0110 C   0  0  0  0  0  0  0  0  0  0  0  0
   38.0580   32.6530   45.3980 H   0  0  0  0  0  0  0  0  0  0  0  0
   39.1030   33.5850   44.3030 H   0  0  0  0  0  0  0  0  0  0  0  0
   39.4880   31.4520   44.3590 C   0  0  0  0  0  0  0  0  0  0  0  0
   40.5870   30.9250   43.7300 C   0  0  0  0  0  0  0  0  0  0  0  0
   41.4520   31.5680   43.6480 H   0  0  0  0  0  0  0  0  0  0  0  0
   40.3250   29.6670   43.3410 N   0  0  0  0  0  0  0  0  0  0  0  0
   41.0160   29.0940   42.8510 H   0  0  0  0  0  0  0  0  0  0  0  0
   39.0650   29.4080   43.7260 C   0  0  0  0  0  0  0  0  0  0  0  0
   38.5610   28.4530   43.5480 H   0  0  0  0  0  0  0  0  0  0  0  0
   38.5410   30.4790   44.3460 N   0  0  0  0  0  0  0  0  0  0  0  0
   37.5530   30.7730   49.7610 O   0  0  0  0  0  0  0  0  0  0  0  0
   34.0450   28.8880   48.3630 C   0  0  0  0  0  0  0  0  0  0  0  0
   34.7930   28.3360   49.3660 C   0  0  0  0  0  0  0  0  0  0  0  0
   35.9470   28.8960   49.8710 C   0  0  0  0  0  0  0  0  0  0  0  0
   36.4160   30.0720   49.3750 C   0  0  0  0  0  0  0  0  0  0  0  0
   35.6540   30.6430   48.3450 C   0  0  0  0  0  0  0  0  0  0  0  0
   34.5260   30.0700   47.8710 N   0  0  0  0  0  0  0  0  0  0  0  0
   34.5040   27.4010   49.8290 H   0  0  0  0  0  0  0  0  0  0  0  0
   36.5370   28.4560   50.6670 H   0  0  0  0  0  0  0  0  0  0  0  0
   35.9520   31.5820   47.8880 H   0  0  0  0  0  0  0  0  0  0  0  0
   32.1160   27.3150   48.5050 C   0  0  0  0  0  0  0  0  0  0  0  0
   32.8550   28.2950   47.8460 C   0  0  0  0  0  0  0  0  0  0  0  0
   32.3900   28.6980   46.6170 C   0  0  0  0  0  0  0  0  0  0  0  0
   31.2500   28.1420   46.0910 N   0  0  0  0  0  0  0  0  0  0  0  0
   30.5740   27.1910   46.7800 C   0  0  0  0  0  0  0  0  0  0  0  0
   30.9950   26.7600   48.0000 N   0  0  0  0  0  0  0  0  0  0  0  0
   32.4480   26.9720   49.4720 H   0  0  0  0  0  0  0  0  0  0  0  0
   32.9250   29.4610   46.0530 H   0  0  0  0  0  0  0  0  0  0  0  0
   29.6770   26.7610   46.3520 H   0  0  0  0  0  0  0  0  0  0  0  0
  1  2  1  0  0  0  0
  1 22  1  0  0  0  0
  2  6  1  0  0  0  0
  3  7  1  0  0  0  0
  3  2  2  0  0  0  0
  4  5  1  0  0  0  0
  4  3  1  0  0  0  0
  5  1  2  0  0  0  0
  8  4  1  0  0  0  0
  9  8  1  0  0  0  0
 10  8  1  0  0  0  0
 11 12  1  0  0  0  0
 11  8  1  0  0  0  0
 13 11  1  0  0  0  0
 14 11  1  0  0  0  0
 15 14  2  0  0  0  0
 16 15  1  0  0  0  0
 17 19  1  0  0  0  0
 17 15  1  0  0  0  0
 18 17  1  0  0  0  0
 19 21  2  0  0  0  0
 20 19  1  0  0  0  0
 21 14  1  0  0  0  0
 23 24  1  0  0  0  0
 24 29  1  0  0  0  0
 24 25  2  0  0  0  0
 25 30  1  0  0  0  0
 26 22  1  0  0  0  0
 26 25  1  0  0  0  0
 27 26  2  0  0  0  0
 28 27  1  0  0  0  0
 28 23  2  0  0  0  0
 31 27  1  0  0  0  0
 32 38  1  0  0  0  0
 33 23  1  0  0  0  0
 33 32  2  0  0  0  0
 34 33  1  0  0  0  0
 35 34  2  0  0  0  0
 35 36  1  0  0  0  0
 36 37  2  0  0  0  0
 37 32  1  0  0  0  0
 39 34  1  0  0  0  0
 40 36  1  0  0  0  0
M  END
>  <minimizedAffinity>
-6.05010271

>  <minimizedRMSD>
1.97466862

$$$$
