
 OpenBabel03272510143D

 40 43  0  0  0  0  0  0  0  0999 V2000
   37.4490   25.0670   32.4200 C   0  0  0  0  0  0  0  0  0  0  0  0
   36.5970   24.1420   31.8110 C   0  0  0  0  0  0  0  0  0  0  0  0
   36.8030   22.9250   32.4520 C   0  0  0  0  0  0  0  0  0  0  0  0
   37.7250   23.1280   33.3870 N   0  0  0  0  0  0  0  0  0  0  0  0
   38.1080   24.3910   33.3700 N   0  0  0  0  0  0  0  0  0  0  0  0
   35.8620   24.1820   30.9980 H   0  0  0  0  0  0  0  0  0  0  0  0
   36.3220   21.9650   32.2590 H   0  0  0  0  0  0  0  0  0  0  0  0
   38.2320   22.1180   34.2850 C   0  0  0  0  0  0  0  0  0  0  0  0
   37.4560   21.9320   35.0530 H   0  0  0  0  0  0  0  0  0  0  0  0
   38.4600   21.2120   33.6920 H   0  0  0  0  0  0  0  0  0  0  0  0
   39.4720   22.6720   34.9600 C   0  0  0  0  0  0  0  0  0  0  0  0
   40.3130   22.0060   34.7360 H   0  0  0  0  0  0  0  0  0  0  0  0
   39.6930   23.6520   34.4740 H   0  0  0  0  0  0  0  0  0  0  0  0
   39.2760   22.8050   36.4260 C   0  0  0  0  0  0  0  0  0  0  0  0
   39.9830   22.5890   37.5810 C   0  0  0  0  0  0  0  0  0  0  0  0
   40.9880   22.2090   37.4700 H   0  0  0  0  0  0  0  0  0  0  0  0
   39.2270   22.9160   38.6410 N   0  0  0  0  0  0  0  0  0  0  0  0
   39.5680   22.8280   39.6030 H   0  0  0  0  0  0  0  0  0  0  0  0
   38.0480   23.3350   38.1500 C   0  0  0  0  0  0  0  0  0  0  0  0
   37.2170   23.6710   38.7750 H   0  0  0  0  0  0  0  0  0  0  0  0
   38.0620   23.2750   36.8070 N   0  0  0  0  0  0  0  0  0  0  0  0
   37.3690   26.3390   31.8970 O   0  0  0  0  0  0  0  0  0  0  0  0
   35.6430   29.4130   34.2180 C   0  0  0  0  0  0  0  0  0  0  0  0
   35.3240   29.2600   32.8970 C   0  0  0  0  0  0  0  0  0  0  0  0
   35.8480   28.2800   32.0810 C   0  0  0  0  0  0  0  0  0  0  0  0
   36.7450   27.3820   32.5720 C   0  0  0  0  0  0  0  0  0  0  0  0
   37.0770   27.5350   33.9250 C   0  0  0  0  0  0  0  0  0  0  0  0
   36.5460   28.5060   34.7000 N   0  0  0  0  0  0  0  0  0  0  0  0
   34.6180   29.9230   32.4130 H   0  0  0  0  0  0  0  0  0  0  0  0
   35.5920   28.1610   31.0340 H   0  0  0  0  0  0  0  0  0  0  0  0
   37.7850   26.8630   34.4020 H   0  0  0  0  0  0  0  0  0  0  0  0
   35.8590   31.3270   35.8000 C   0  0  0  0  0  0  0  0  0  0  0  0
   35.0970   30.4340   35.0500 C   0  0  0  0  0  0  0  0  0  0  0  0
   33.7310   30.5630   35.1370 C   0  0  0  0  0  0  0  0  0  0  0  0
   33.1750   31.5340   35.9340 N   0  0  0  0  0  0  0  0  0  0  0  0
   33.9700   32.3730   36.6410 C   0  0  0  0  0  0  0  0  0  0  0  0
   35.3270   32.2850   36.5870 N   0  0  0  0  0  0  0  0  0  0  0  0
   36.9350   31.2590   35.7590 H   0  0  0  0  0  0  0  0  0  0  0  0
   33.0810   29.8940   34.5740 H   0  0  0  0  0  0  0  0  0  0  0  0
   33.5180   33.1330   37.2660 H   0  0  0  0  0  0  0  0  0  0  0  0
  1  5  2  0  0  0  0
  2  1  1  0  0  0  0
  2  3  2  0  0  0  0
  3  4  1  0  0  0  0
  4  8  1  0  0  0  0
  5  4  1  0  0  0  0
  6  2  1  0  0  0  0
  7  3  1  0  0  0  0
  8 11  1  0  0  0  0
  8  9  1  0  0  0  0
 10  8  1  0  0  0  0
 11 14  1  0  0  0  0
 12 11  1  0  0  0  0
 13 11  1  0  0  0  0
 14 21  1  0  0  0  0
 14 15  2  0  0  0  0
 15 17  1  0  0  0  0
 16 15  1  0  0  0  0
 17 18  1  0  0  0  0
 19 17  1  0  0  0  0
 19 20  1  0  0  0  0
 21 19  2  0  0  0  0
 22  1  1  0  0  0  0
 22 26  1  0  0  0  0
 23 28  1  0  0  0  0
 23 33  1  0  0  0  0
 24 23  2  0  0  0  0
 25 26  2  0  0  0  0
 25 24  1  0  0  0  0
 26 27  1  0  0  0  0
 27 31  1  0  0  0  0
 27 28  2  0  0  0  0
 29 24  1  0  0  0  0
 30 25  1  0  0  0  0
 32 37  1  0  0  0  0
 33 34  1  0  0  0  0
 33 32  2  0  0  0  0
 34 35  2  0  0  0  0
 35 36  1  0  0  0  0
 36 40  1  0  0  0  0
 37 36  2  0  0  0  0
 38 32  1  0  0  0  0
 39 34  1  0  0  0  0
M  END
>  <minimizedAffinity>
-5.64593172

$$$$

 OpenBabel03272510143D

 40 43  0  0  0  0  0  0  0  0999 V2000
   35.2670   29.0930   33.2570 C   0  0  0  0  0  0  0  0  0  0  0  0
   34.6710   29.6550   32.1250 C   0  0  0  0  0  0  0  0  0  0  0  0
   33.4300   30.1410   32.5250 C   0  0  0  0  0  0  0  0  0  0  0  0
   33.3080   29.8780   33.8220 N   0  0  0  0  0  0  0  0  0  0  0  0
   34.3900   29.2600   34.2560 N   0  0  0  0  0  0  0  0  0  0  0  0
   34.9620   29.7780   31.0750 H   0  0  0  0  0  0  0  0  0  0  0  0
   32.6730   30.6480   31.9250 H   0  0  0  0  0  0  0  0  0  0  0  0
   32.1630   30.2170   34.6320 C   0  0  0  0  0  0  0  0  0  0  0  0
   32.5370   30.5440   35.6220 H   0  0  0  0  0  0  0  0  0  0  0  0
   31.5980   31.0160   34.1140 H   0  0  0  0  0  0  0  0  0  0  0  0
   31.3270   28.9660   34.8090 C   0  0  0  0  0  0  0  0  0  0  0  0
   30.3240   29.1610   34.4130 H   0  0  0  0  0  0  0  0  0  0  0  0
   31.7840   28.1780   34.1630 H   0  0  0  0  0  0  0  0  0  0  0  0
   31.2640   28.5530   36.2340 C   0  0  0  0  0  0  0  0  0  0  0  0
   31.6820   29.0140   37.4560 C   0  0  0  0  0  0  0  0  0  0  0  0
   32.2230   29.9490   37.4630 H   0  0  0  0  0  0  0  0  0  0  0  0
   31.3030   28.1540   38.4160 N   0  0  0  0  0  0  0  0  0  0  0  0
   31.5170   28.3110   39.4050 H   0  0  0  0  0  0  0  0  0  0  0  0
   30.6510   27.1570   37.7940 C   0  0  0  0  0  0  0  0  0  0  0  0
   30.2200   26.2980   38.3150 H   0  0  0  0  0  0  0  0  0  0  0  0
   30.6180   27.3840   36.4690 N   0  0  0  0  0  0  0  0  0  0  0  0
   36.5170   28.5600   33.0320 O   0  0  0  0  0  0  0  0  0  0  0  0
   38.2680   25.5810   35.4570 C   0  0  0  0  0  0  0  0  0  0  0  0
   38.1510   26.8710   35.8940 C   0  0  0  0  0  0  0  0  0  0  0  0
   37.5910   27.8930   35.1570 C   0  0  0  0  0  0  0  0  0  0  0  0
   37.1080   27.6560   33.9080 C   0  0  0  0  0  0  0  0  0  0  0  0
   37.2260   26.3360   33.4530 C   0  0  0  0  0  0  0  0  0  0  0  0
   37.7800   25.3550   34.1990 N   0  0  0  0  0  0  0  0  0  0  0  0
   38.5040   27.1620   36.8760 H   0  0  0  0  0  0  0  0  0  0  0  0
   37.4990   28.9150   35.5080 H   0  0  0  0  0  0  0  0  0  0  0  0
   36.8670   26.0530   32.4670 H   0  0  0  0  0  0  0  0  0  0  0  0
   38.3850   24.1190   37.4720 C   0  0  0  0  0  0  0  0  0  0  0  0
   38.8530   24.5350   36.2280 C   0  0  0  0  0  0  0  0  0  0  0  0
   39.9580   23.8820   35.7340 C   0  0  0  0  0  0  0  0  0  0  0  0
   40.5480   22.8740   36.4560 N   0  0  0  0  0  0  0  0  0  0  0  0
   40.0450   22.5150   37.6620 C   0  0  0  0  0  0  0  0  0  0  0  0
   38.9540   23.1310   38.1920 N   0  0  0  0  0  0  0  0  0  0  0  0
   37.5200   24.6060   37.8940 H   0  0  0  0  0  0  0  0  0  0  0  0
   40.3720   24.1620   34.7660 H   0  0  0  0  0  0  0  0  0  0  0  0
   40.5210   21.7180   38.2210 H   0  0  0  0  0  0  0  0  0  0  0  0
  1  5  2  0  0  0  0
  2  3  2  0  0  0  0
  2  1  1  0  0  0  0
  3  4  1  0  0  0  0
  4  5  1  0  0  0  0
  4  8  1  0  0  0  0
  6  2  1  0  0  0  0
  7  3  1  0  0  0  0
  8 11  1  0  0  0  0
  8  9  1  0  0  0  0
 10  8  1  0  0  0  0
 11 14  1  0  0  0  0
 12 11  1  0  0  0  0
 13 11  1  0  0  0  0
 14 21  1  0  0  0  0
 14 15  2  0  0  0  0
 15 16  1  0  0  0  0
 15 17  1  0  0  0  0
 17 18  1  0  0  0  0
 19 20  1  0  0  0  0
 19 17  1  0  0  0  0
 21 19  2  0  0  0  0
 22  1  1  0  0  0  0
 22 26  1  0  0  0  0
 23 24  1  0  0  0  0
 23 33  1  0  0  0  0
 24 29  1  0  0  0  0
 25 30  1  0  0  0  0
 25 24  2  0  0  0  0
 26 25  1  0  0  0  0
 27 26  2  0  0  0  0
 27 28  1  0  0  0  0
 28 23  2  0  0  0  0
 31 27  1  0  0  0  0
 32 38  1  0  0  0  0
 32 37  1  0  0  0  0
 33 32  2  0  0  0  0
 34 33  1  0  0  0  0
 34 35  2  0  0  0  0
 35 36  1  0  0  0  0
 36 37  2  0  0  0  0
 36 40  1  0  0  0  0
 39 34  1  0  0  0  0
M  END
>  <minimizedAffinity>
-5.59456253

$$$$

 OpenBabel03272510143D

 40 43  0  0  0  0  0  0  0  0999 V2000
   36.0250   26.0840   31.5830 C   0  0  0  0  0  0  0  0  0  0  0  0
   35.1060   25.2310   30.9690 C   0  0  0  0  0  0  0  0  0  0  0  0
   35.5100   23.9320   31.2570 C   0  0  0  0  0  0  0  0  0  0  0  0
   36.6070   24.0210   32.0030 N   0  0  0  0  0  0  0  0  0  0  0  0
   36.9130   25.2900   32.1960 N   0  0  0  0  0  0  0  0  0  0  0  0
   34.2070   25.3700   30.3560 H   0  0  0  0  0  0  0  0  0  0  0  0
   35.0460   22.9920   30.9540 H   0  0  0  0  0  0  0  0  0  0  0  0
   37.3510   22.8980   32.5210 C   0  0  0  0  0  0  0  0  0  0  0  0
   36.6490   22.2690   33.1020 H   0  0  0  0  0  0  0  0  0  0  0  0
   37.7930   22.3530   31.6660 H   0  0  0  0  0  0  0  0  0  0  0  0
   38.4190   23.4350   33.4530 C   0  0  0  0  0  0  0  0  0  0  0  0
   39.3770   22.9760   33.1820 H   0  0  0  0  0  0  0  0  0  0  0  0
   38.5110   24.5280   33.2440 H   0  0  0  0  0  0  0  0  0  0  0  0
   38.0840   23.1630   34.8740 C   0  0  0  0  0  0  0  0  0  0  0  0
   37.7580   22.0930   35.6670 C   0  0  0  0  0  0  0  0  0  0  0  0
   37.7120   21.1280   35.1820 H   0  0  0  0  0  0  0  0  0  0  0  0
   37.5610   22.5080   36.9280 N   0  0  0  0  0  0  0  0  0  0  0  0
   37.3060   21.8630   37.6810 H   0  0  0  0  0  0  0  0  0  0  0  0
   37.7620   23.8370   36.9240 C   0  0  0  0  0  0  0  0  0  0  0  0
   37.6730   24.4650   37.8140 H   0  0  0  0  0  0  0  0  0  0  0  0
   38.0810   24.2510   35.6850 N   0  0  0  0  0  0  0  0  0  0  0  0
   35.7670   27.4240   31.3940 O   0  0  0  0  0  0  0  0  0  0  0  0
   34.7290   30.1410   34.4530 C   0  0  0  0  0  0  0  0  0  0  0  0
   35.8870   29.4160   34.5130 C   0  0  0  0  0  0  0  0  0  0  0  0
   36.2890   28.5130   33.5510 C   0  0  0  0  0  0  0  0  0  0  0  0
   35.5190   28.2910   32.4520 C   0  0  0  0  0  0  0  0  0  0  0  0
   34.3300   29.0290   32.3850 C   0  0  0  0  0  0  0  0  0  0  0  0
   33.9630   29.9080   33.3440 N   0  0  0  0  0  0  0  0  0  0  0  0
   36.5690   29.5220   35.3470 H   0  0  0  0  0  0  0  0  0  0  0  0
   37.2090   27.9410   33.6020 H   0  0  0  0  0  0  0  0  0  0  0  0
   33.6520   28.9170   31.5430 H   0  0  0  0  0  0  0  0  0  0  0  0
   35.2030   31.7800   36.2700 C   0  0  0  0  0  0  0  0  0  0  0  0
   34.3240   31.0680   35.4570 C   0  0  0  0  0  0  0  0  0  0  0  0
   32.9810   31.2860   35.6590 C   0  0  0  0  0  0  0  0  0  0  0  0
   32.5600   32.1690   36.6220 N   0  0  0  0  0  0  0  0  0  0  0  0
   33.4650   32.8330   37.3830 C   0  0  0  0  0  0  0  0  0  0  0  0
   34.8030   32.6500   37.2200 N   0  0  0  0  0  0  0  0  0  0  0  0
   36.2650   31.6370   36.1420 H   0  0  0  0  0  0  0  0  0  0  0  0
   32.2440   30.7590   35.0550 H   0  0  0  0  0  0  0  0  0  0  0  0
   33.1180   33.5260   38.1390 H   0  0  0  0  0  0  0  0  0  0  0  0
  1  5  2  0  0  0  0
  2  3  2  0  0  0  0
  2  1  1  0  0  0  0
  3  4  1  0  0  0  0
  4  5  1  0  0  0  0
  4  8  1  0  0  0  0
  6  2  1  0  0  0  0
  7  3  1  0  0  0  0
  8  9  1  0  0  0  0
  8 11  1  0  0  0  0
 10  8  1  0  0  0  0
 11 14  1  0  0  0  0
 12 11  1  0  0  0  0
 13 11  1  0  0  0  0
 14 15  2  0  0  0  0
 14 21  1  0  0  0  0
 15 17  1  0  0  0  0
 16 15  1  0  0  0  0
 17 18  1  0  0  0  0
 19 17  1  0  0  0  0
 19 20  1  0  0  0  0
 21 19  2  0  0  0  0
 22  1  1  0  0  0  0
 22 26  1  0  0  0  0
 23 24  1  0  0  0  0
 23 33  1  0  0  0  0
 24 29  1  0  0  0  0
 25 30  1  0  0  0  0
 25 24  2  0  0  0  0
 26 25  1  0  0  0  0
 27 26  2  0  0  0  0
 27 28  1  0  0  0  0
 28 23  2  0  0  0  0
 31 27  1  0  0  0  0
 32 37  1  0  0  0  0
 33 34  1  0  0  0  0
 33 32  2  0  0  0  0
 34 35  2  0  0  0  0
 35 36  1  0  0  0  0
 36 40  1  0  0  0  0
 37 36  2  0  0  0  0
 38 32  1  0  0  0  0
 39 34  1  0  0  0  0
M  END
>  <minimizedAffinity>
-5.57380629

$$$$

 OpenBabel03272510143D

 40 43  0  0  0  0  0  0  0  0999 V2000
   35.5810   28.4030   32.5910 C   0  0  0  0  0  0  0  0  0  0  0  0
   36.1250   28.7980   33.8160 C   0  0  0  0  0  0  0  0  0  0  0  0
   35.1700   29.5930   34.4400 C   0  0  0  0  0  0  0  0  0  0  0  0
   34.1230   29.6590   33.6240 N   0  0  0  0  0  0  0  0  0  0  0  0
   34.3630   28.9580   32.5330 N   0  0  0  0  0  0  0  0  0  0  0  0
   37.0740   28.6210   34.3370 H   0  0  0  0  0  0  0  0  0  0  0  0
   35.2260   30.0870   35.4120 H   0  0  0  0  0  0  0  0  0  0  0  0
   32.9070   30.3880   33.8920 C   0  0  0  0  0  0  0  0  0  0  0  0
   33.1320   31.4680   33.7850 H   0  0  0  0  0  0  0  0  0  0  0  0
   32.1360   30.0480   33.1750 H   0  0  0  0  0  0  0  0  0  0  0  0
   32.5000   30.1090   35.3260 C   0  0  0  0  0  0  0  0  0  0  0  0
   33.4060   30.0640   35.9400 H   0  0  0  0  0  0  0  0  0  0  0  0
   31.9140   30.9940   35.6730 H   0  0  0  0  0  0  0  0  0  0  0  0
   31.7230   28.8480   35.4320 C   0  0  0  0  0  0  0  0  0  0  0  0
   30.8880   28.0870   34.6550 C   0  0  0  0  0  0  0  0  0  0  0  0
   30.6900   28.4500   33.6570 H   0  0  0  0  0  0  0  0  0  0  0  0
   30.4870   27.0080   35.3460 N   0  0  0  0  0  0  0  0  0  0  0  0
   29.8550   26.3080   34.9470 H   0  0  0  0  0  0  0  0  0  0  0  0
   31.0690   27.0950   36.5540 C   0  0  0  0  0  0  0  0  0  0  0  0
   30.9320   26.3550   37.3470 H   0  0  0  0  0  0  0  0  0  0  0  0
   31.8240   28.2060   36.6220 N   0  0  0  0  0  0  0  0  0  0  0  0
   36.4090   27.5990   31.8380 O   0  0  0  0  0  0  0  0  0  0  0  0
   36.0470   23.3980   31.6460 C   0  0  0  0  0  0  0  0  0  0  0  0
   35.1670   24.2150   30.9900 C   0  0  0  0  0  0  0  0  0  0  0  0
   35.2260   25.5930   31.0090 C   0  0  0  0  0  0  0  0  0  0  0  0
   36.2020   26.2300   31.7100 C   0  0  0  0  0  0  0  0  0  0  0  0
   37.1050   25.3990   32.3850 C   0  0  0  0  0  0  0  0  0  0  0  0
   37.0220   24.0510   32.3480 N   0  0  0  0  0  0  0  0  0  0  0  0
   34.3560   23.8050   30.4030 H   0  0  0  0  0  0  0  0  0  0  0  0
   34.5270   26.2370   30.4870 H   0  0  0  0  0  0  0  0  0  0  0  0
   37.9180   25.8210   32.9710 H   0  0  0  0  0  0  0  0  0  0  0  0
   34.9380   21.2330   32.1900 C   0  0  0  0  0  0  0  0  0  0  0  0
   35.9720   21.9750   31.6220 C   0  0  0  0  0  0  0  0  0  0  0  0
   36.9770   21.2650   31.0090 C   0  0  0  0  0  0  0  0  0  0  0  0
   36.9350   19.8930   30.9740 N   0  0  0  0  0  0  0  0  0  0  0  0
   35.9020   19.2270   31.5460 C   0  0  0  0  0  0  0  0  0  0  0  0
   34.8840   19.8850   32.1640 N   0  0  0  0  0  0  0  0  0  0  0  0
   34.1300   21.7530   32.6800 H   0  0  0  0  0  0  0  0  0  0  0  0
   37.8130   21.7880   30.5460 H   0  0  0  0  0  0  0  0  0  0  0  0
   35.8820   18.1450   31.5110 H   0  0  0  0  0  0  0  0  0  0  0  0
  1  2  1  0  0  0  0
  2  6  1  0  0  0  0
  2  3  2  0  0  0  0
  3  7  1  0  0  0  0
  4  8  1  0  0  0  0
  4  3  1  0  0  0  0
  5  1  2  0  0  0  0
  5  4  1  0  0  0  0
  8 11  1  0  0  0  0
  9  8  1  0  0  0  0
 10  8  1  0  0  0  0
 11 14  1  0  0  0  0
 11 13  1  0  0  0  0
 11 12  1  0  0  0  0
 14 21  1  0  0  0  0
 15 17  1  0  0  0  0
 15 14  2  0  0  0  0
 16 15  1  0  0  0  0
 17 19  1  0  0  0  0
 18 17  1  0  0  0  0
 19 21  2  0  0  0  0
 19 20  1  0  0  0  0
 22  1  1  0  0  0  0
 23 28  1  0  0  0  0
 24 25  1  0  0  0  0
 24 23  2  0  0  0  0
 25 26  2  0  0  0  0
 26 22  1  0  0  0  0
 26 27  1  0  0  0  0
 27 31  1  0  0  0  0
 28 27  2  0  0  0  0
 29 24  1  0  0  0  0
 30 25  1  0  0  0  0
 32 38  1  0  0  0  0
 33 23  1  0  0  0  0
 33 32  2  0  0  0  0
 34 33  1  0  0  0  0
 35 34  2  0  0  0  0
 35 36  1  0  0  0  0
 36 37  2  0  0  0  0
 37 32  1  0  0  0  0
 39 34  1  0  0  0  0
 40 36  1  0  0  0  0
M  END
>  <minimizedAffinity>
-5.53315496

$$$$

 OpenBabel03272510143D

 40 43  0  0  0  0  0  0  0  0999 V2000
   36.8370   27.6460   32.5760 C   0  0  0  0  0  0  0  0  0  0  0  0
   36.9330   27.5790   33.9680 C   0  0  0  0  0  0  0  0  0  0  0  0
   36.1950   28.6460   34.4710 C   0  0  0  0  0  0  0  0  0  0  0  0
   35.6930   29.3000   33.4290 N   0  0  0  0  0  0  0  0  0  0  0  0
   36.0710   28.7120   32.3090 N   0  0  0  0  0  0  0  0  0  0  0  0
   37.4320   26.9120   34.6810 H   0  0  0  0  0  0  0  0  0  0  0  0
   36.0310   28.9270   35.5120 H   0  0  0  0  0  0  0  0  0  0  0  0
   34.8610   30.4760   33.5100 C   0  0  0  0  0  0  0  0  0  0  0  0
   35.5160   31.3340   33.7590 H   0  0  0  0  0  0  0  0  0  0  0  0
   34.3520   30.6060   32.5360 H   0  0  0  0  0  0  0  0  0  0  0  0
   33.8680   30.2700   34.6360 C   0  0  0  0  0  0  0  0  0  0  0  0
   32.8590   30.4310   34.2410 H   0  0  0  0  0  0  0  0  0  0  0  0
   33.9340   29.1960   34.9330 H   0  0  0  0  0  0  0  0  0  0  0  0
   34.1430   31.1830   35.7750 C   0  0  0  0  0  0  0  0  0  0  0  0
   35.2250   31.6670   36.4650 C   0  0  0  0  0  0  0  0  0  0  0  0
   36.1980   31.3260   36.1420 H   0  0  0  0  0  0  0  0  0  0  0  0
   34.8070   32.4960   37.4360 N   0  0  0  0  0  0  0  0  0  0  0  0
   35.4590   32.9650   38.0700 H   0  0  0  0  0  0  0  0  0  0  0  0
   33.4660   32.5290   37.3530 C   0  0  0  0  0  0  0  0  0  0  0  0
   32.8330   33.1230   38.0170 H   0  0  0  0  0  0  0  0  0  0  0  0
   33.0470   31.7390   36.3490 N   0  0  0  0  0  0  0  0  0  0  0  0
   37.5200   26.6490   31.9140 O   0  0  0  0  0  0  0  0  0  0  0  0
   36.4310   22.5720   32.0060 C   0  0  0  0  0  0  0  0  0  0  0  0
   35.6530   23.4970   31.3680 C   0  0  0  0  0  0  0  0  0  0  0  0
   35.9480   24.8430   31.2980 C   0  0  0  0  0  0  0  0  0  0  0  0
   37.0720   25.3330   31.8850 C   0  0  0  0  0  0  0  0  0  0  0  0
   37.8730   24.3900   32.5430 C   0  0  0  0  0  0  0  0  0  0  0  0
   37.5580   23.0760   32.5940 N   0  0  0  0  0  0  0  0  0  0  0  0
   34.7380   23.2080   30.8670 H   0  0  0  0  0  0  0  0  0  0  0  0
   35.3280   25.5740   30.7900 H   0  0  0  0  0  0  0  0  0  0  0  0
   38.7910   24.6900   33.0410 H   0  0  0  0  0  0  0  0  0  0  0  0
   35.7180   20.5250   33.2380 C   0  0  0  0  0  0  0  0  0  0  0  0
   36.1130   21.1840   32.0750 C   0  0  0  0  0  0  0  0  0  0  0  0
   36.1980   20.4230   30.9330 C   0  0  0  0  0  0  0  0  0  0  0  0
   35.9030   19.0830   30.9690 N   0  0  0  0  0  0  0  0  0  0  0  0
   35.5250   18.4980   32.1320 C   0  0  0  0  0  0  0  0  0  0  0  0
   35.4260   19.2090   33.2880 N   0  0  0  0  0  0  0  0  0  0  0  0
   35.6390   21.0870   34.1550 H   0  0  0  0  0  0  0  0  0  0  0  0
   36.5010   20.8810   29.9920 H   0  0  0  0  0  0  0  0  0  0  0  0
   35.2950   17.4400   32.1450 H   0  0  0  0  0  0  0  0  0  0  0  0
  1  2  1  0  0  0  0
  2  3  2  0  0  0  0
  2  6  1  0  0  0  0
  3  7  1  0  0  0  0
  4  8  1  0  0  0  0
  4  3  1  0  0  0  0
  5  1  2  0  0  0  0
  5  4  1  0  0  0  0
  8  9  1  0  0  0  0
  8 11  1  0  0  0  0
 10  8  1  0  0  0  0
 11 13  1  0  0  0  0
 11 14  1  0  0  0  0
 12 11  1  0  0  0  0
 14 21  1  0  0  0  0
 14 15  2  0  0  0  0
 15 17  1  0  0  0  0
 16 15  1  0  0  0  0
 17 18  1  0  0  0  0
 19 17  1  0  0  0  0
 19 20  1  0  0  0  0
 21 19  2  0  0  0  0
 22  1  1  0  0  0  0
 23 33  1  0  0  0  0
 23 28  1  0  0  0  0
 24 23  2  0  0  0  0
 25 24  1  0  0  0  0
 25 26  2  0  0  0  0
 26 22  1  0  0  0  0
 26 27  1  0  0  0  0
 27 28  2  0  0  0  0
 27 31  1  0  0  0  0
 29 24  1  0  0  0  0
 30 25  1  0  0  0  0
 32 37  1  0  0  0  0
 32 38  1  0  0  0  0
 33 32  2  0  0  0  0
 34 35  2  0  0  0  0
 34 33  1  0  0  0  0
 35 36  1  0  0  0  0
 36 40  1  0  0  0  0
 36 37  2  0  0  0  0
 39 34  1  0  0  0  0
M  END
>  <minimizedAffinity>
-5.52390862

$$$$

 OpenBabel03272510143D

 40 43  0  0  0  0  0  0  0  0999 V2000
   35.5680   28.6650   32.2140 C   0  0  0  0  0  0  0  0  0  0  0  0
   35.7230   29.7200   31.3120 C   0  0  0  0  0  0  0  0  0  0  0  0
   34.7870   30.6880   31.6620 C   0  0  0  0  0  0  0  0  0  0  0  0
   34.1220   30.2240   32.7150 N   0  0  0  0  0  0  0  0  0  0  0  0
   34.5800   29.0310   33.0430 N   0  0  0  0  0  0  0  0  0  0  0  0
   36.3790   29.9190   30.4550 H   0  0  0  0  0  0  0  0  0  0  0  0
   34.6020   31.6550   31.1940 H   0  0  0  0  0  0  0  0  0  0  0  0
   33.0570   30.9210   33.3970 C   0  0  0  0  0  0  0  0  0  0  0  0
   33.3920   31.9630   33.5650 H   0  0  0  0  0  0  0  0  0  0  0  0
   32.1510   30.8690   32.7630 H   0  0  0  0  0  0  0  0  0  0  0  0
   32.8410   30.2490   34.7380 C   0  0  0  0  0  0  0  0  0  0  0  0
   31.7730   30.0340   34.8480 H   0  0  0  0  0  0  0  0  0  0  0  0
   33.3680   29.2660   34.6950 H   0  0  0  0  0  0  0  0  0  0  0  0
   33.3300   31.0980   35.8540 C   0  0  0  0  0  0  0  0  0  0  0  0
   32.8230   31.7410   36.9540 C   0  0  0  0  0  0  0  0  0  0  0  0
   31.7600   31.6480   37.1220 H   0  0  0  0  0  0  0  0  0  0  0  0
   33.8140   32.3730   37.6030 N   0  0  0  0  0  0  0  0  0  0  0  0
   33.6480   32.9160   38.4550 H   0  0  0  0  0  0  0  0  0  0  0  0
   34.9390   32.1260   36.9100 C   0  0  0  0  0  0  0  0  0  0  0  0
   35.9210   32.5100   37.1940 H   0  0  0  0  0  0  0  0  0  0  0  0
   34.6620   31.3530   35.8460 N   0  0  0  0  0  0  0  0  0  0  0  0
   36.4290   27.6110   32.0050 O   0  0  0  0  0  0  0  0  0  0  0  0
   38.1990   25.1970   34.9820 C   0  0  0  0  0  0  0  0  0  0  0  0
   37.8660   26.5000   35.2330 C   0  0  0  0  0  0  0  0  0  0  0  0
   37.2860   27.3440   34.3090 C   0  0  0  0  0  0  0  0  0  0  0  0
   37.0070   26.9030   33.0530 C   0  0  0  0  0  0  0  0  0  0  0  0
   37.3470   25.5690   32.7890 C   0  0  0  0  0  0  0  0  0  0  0  0
   37.9150   24.7650   33.7160 N   0  0  0  0  0  0  0  0  0  0  0  0
   38.0460   26.9460   36.2020 H   0  0  0  0  0  0  0  0  0  0  0  0
   37.0220   28.3760   34.5120 H   0  0  0  0  0  0  0  0  0  0  0  0
   37.1610   25.1300   31.8130 H   0  0  0  0  0  0  0  0  0  0  0  0
   38.2990   24.1140   37.2250 C   0  0  0  0  0  0  0  0  0  0  0  0
   38.8030   24.3370   35.9450 C   0  0  0  0  0  0  0  0  0  0  0  0
   39.9630   23.6760   35.6140 C   0  0  0  0  0  0  0  0  0  0  0  0
   40.5700   22.8450   36.5210 N   0  0  0  0  0  0  0  0  0  0  0  0
   40.0320   22.6690   37.7530 C   0  0  0  0  0  0  0  0  0  0  0  0
   38.8860   23.3010   38.1270 N   0  0  0  0  0  0  0  0  0  0  0  0
   37.3910   24.6140   37.5230 H   0  0  0  0  0  0  0  0  0  0  0  0
   40.4050   23.8090   34.6280 H   0  0  0  0  0  0  0  0  0  0  0  0
   40.5220   22.0100   38.4590 H   0  0  0  0  0  0  0  0  0  0  0  0
  1  5  2  0  0  0  0
  2  3  2  0  0  0  0
  2  1  1  0  0  0  0
  3  4  1  0  0  0  0
  4  5  1  0  0  0  0
  4  8  1  0  0  0  0
  6  2  1  0  0  0  0
  7  3  1  0  0  0  0
  8  9  1  0  0  0  0
  8 11  1  0  0  0  0
 10  8  1  0  0  0  0
 11 12  1  0  0  0  0
 11 14  1  0  0  0  0
 13 11  1  0  0  0  0
 14 15  2  0  0  0  0
 15 16  1  0  0  0  0
 15 17  1  0  0  0  0
 17 18  1  0  0  0  0
 19 20  1  0  0  0  0
 19 17  1  0  0  0  0
 21 14  1  0  0  0  0
 21 19  2  0  0  0  0
 22  1  1  0  0  0  0
 22 26  1  0  0  0  0
 23 24  1  0  0  0  0
 23 33  1  0  0  0  0
 24 29  1  0  0  0  0
 25 30  1  0  0  0  0
 25 24  2  0  0  0  0
 26 25  1  0  0  0  0
 27 26  2  0  0  0  0
 27 28  1  0  0  0  0
 28 23  2  0  0  0  0
 31 27  1  0  0  0  0
 32 38  1  0  0  0  0
 32 37  1  0  0  0  0
 33 32  2  0  0  0  0
 34 33  1  0  0  0  0
 34 35  2  0  0  0  0
 35 36  1  0  0  0  0
 36 37  2  0  0  0  0
 36 40  1  0  0  0  0
 39 34  1  0  0  0  0
M  END
>  <minimizedAffinity>
-5.50361681

$$$$

 OpenBabel03272510143D

 40 43  0  0  0  0  0  0  0  0999 V2000
   36.5790   27.8370   33.6330 C   0  0  0  0  0  0  0  0  0  0  0  0
   37.5280   27.8880   32.6100 C   0  0  0  0  0  0  0  0  0  0  0  0
   38.5700   27.0460   32.9870 C   0  0  0  0  0  0  0  0  0  0  0  0
   38.2460   26.5300   34.1690 N   0  0  0  0  0  0  0  0  0  0  0  0
   37.0720   26.9950   34.5520 N   0  0  0  0  0  0  0  0  0  0  0  0
   37.6090   28.4140   31.6510 H   0  0  0  0  0  0  0  0  0  0  0  0
   39.4920   26.8220   32.4490 H   0  0  0  0  0  0  0  0  0  0  0  0
   39.0570   25.6020   34.9190 C   0  0  0  0  0  0  0  0  0  0  0  0
   39.8740   25.2560   34.2550 H   0  0  0  0  0  0  0  0  0  0  0  0
   39.4390   26.1250   35.8160 H   0  0  0  0  0  0  0  0  0  0  0  0
   38.1890   24.4160   35.2910 C   0  0  0  0  0  0  0  0  0  0  0  0
   37.1540   24.7630   35.3910 H   0  0  0  0  0  0  0  0  0  0  0  0
   38.2140   23.7130   34.4240 H   0  0  0  0  0  0  0  0  0  0  0  0
   38.6570   23.7750   36.5460 C   0  0  0  0  0  0  0  0  0  0  0  0
   39.6140   22.8780   36.9460 C   0  0  0  0  0  0  0  0  0  0  0  0
   40.2540   22.4760   36.1740 H   0  0  0  0  0  0  0  0  0  0  0  0
   39.5330   22.6940   38.2740 N   0  0  0  0  0  0  0  0  0  0  0  0
   40.1600   22.0590   38.7760 H   0  0  0  0  0  0  0  0  0  0  0  0
   38.5250   23.4740   38.7030 C   0  0  0  0  0  0  0  0  0  0  0  0
   38.2140   23.5400   39.7480 H   0  0  0  0  0  0  0  0  0  0  0  0
   37.9840   24.1370   37.6660 N   0  0  0  0  0  0  0  0  0  0  0  0
   35.4690   28.6240   33.4150 O   0  0  0  0  0  0  0  0  0  0  0  0
   34.1510   31.8330   35.8190 C   0  0  0  0  0  0  0  0  0  0  0  0
   35.4570   31.4280   35.8340 C   0  0  0  0  0  0  0  0  0  0  0  0
   35.9560   30.3890   35.0760 C   0  0  0  0  0  0  0  0  0  0  0  0
   35.1390   29.6900   34.2440 C   0  0  0  0  0  0  0  0  0  0  0  0
   33.7990   30.1000   34.2240 C   0  0  0  0  0  0  0  0  0  0  0  0
   33.3390   31.1220   34.9790 N   0  0  0  0  0  0  0  0  0  0  0  0
   36.1880   31.9210   36.4620 H   0  0  0  0  0  0  0  0  0  0  0  0
   36.9930   30.0710   35.0900 H   0  0  0  0  0  0  0  0  0  0  0  0
   33.0730   29.5990   33.5890 H   0  0  0  0  0  0  0  0  0  0  0  0
   32.3170   33.3190   36.6200 C   0  0  0  0  0  0  0  0  0  0  0  0
   33.6480   32.9060   36.6120 C   0  0  0  0  0  0  0  0  0  0  0  0
   34.5140   33.5960   37.4260 C   0  0  0  0  0  0  0  0  0  0  0  0
   34.0600   34.6370   38.1970 N   0  0  0  0  0  0  0  0  0  0  0  0
   32.7520   34.9930   38.1610 C   0  0  0  0  0  0  0  0  0  0  0  0
   31.8570   34.3400   37.3720 N   0  0  0  0  0  0  0  0  0  0  0  0
   31.6060   32.8020   35.9950 H   0  0  0  0  0  0  0  0  0  0  0  0
   35.5670   33.3210   37.4630 H   0  0  0  0  0  0  0  0  0  0  0  0
   32.4080   35.8160   38.7740 H   0  0  0  0  0  0  0  0  0  0  0  0
  1  5  2  0  0  0  0
  2  3  2  0  0  0  0
  2  1  1  0  0  0  0
  3  4  1  0  0  0  0
  4  5  1  0  0  0  0
  4  8  1  0  0  0  0
  6  2  1  0  0  0  0
  7  3  1  0  0  0  0
  8 11  1  0  0  0  0
  8 10  1  0  0  0  0
  9  8  1  0  0  0  0
 11 12  1  0  0  0  0
 11 14  1  0  0  0  0
 13 11  1  0  0  0  0
 14 15  2  0  0  0  0
 14 21  1  0  0  0  0
 15 17  1  0  0  0  0
 16 15  1  0  0  0  0
 17 19  1  0  0  0  0
 17 18  1  0  0  0  0
 19 20  1  0  0  0  0
 21 19  2  0  0  0  0
 22  1  1  0  0  0  0
 22 26  1  0  0  0  0
 23 24  1  0  0  0  0
 23 33  1  0  0  0  0
 24 29  1  0  0  0  0
 25 30  1  0  0  0  0
 25 24  2  0  0  0  0
 26 25  1  0  0  0  0
 27 26  2  0  0  0  0
 27 28  1  0  0  0  0
 28 23  2  0  0  0  0
 31 27  1  0  0  0  0
 32 37  1  0  0  0  0
 33 32  2  0  0  0  0
 33 34  1  0  0  0  0
 34 39  1  0  0  0  0
 34 35  2  0  0  0  0
 36 35  1  0  0  0  0
 36 40  1  0  0  0  0
 37 36  2  0  0  0  0
 38 32  1  0  0  0  0
M  END
>  <minimizedAffinity>
-5.50058031

$$$$

 OpenBabel03272510143D

 40 43  0  0  0  0  0  0  0  0999 V2000
   37.1240   25.2800   31.3660 C   0  0  0  0  0  0  0  0  0  0  0  0
   35.8270   24.8920   31.0210 C   0  0  0  0  0  0  0  0  0  0  0  0
   35.7890   23.5040   31.1050 C   0  0  0  0  0  0  0  0  0  0  0  0
   36.9990   23.1020   31.4800 N   0  0  0  0  0  0  0  0  0  0  0  0
   37.7890   24.1480   31.6340 N   0  0  0  0  0  0  0  0  0  0  0  0
   34.9130   25.4190   30.7230 H   0  0  0  0  0  0  0  0  0  0  0  0
   34.9500   22.8340   30.9110 H   0  0  0  0  0  0  0  0  0  0  0  0
   37.3900   21.7280   31.6860 C   0  0  0  0  0  0  0  0  0  0  0  0
   37.4730   21.2490   30.6900 H   0  0  0  0  0  0  0  0  0  0  0  0
   38.3510   21.7220   32.2350 H   0  0  0  0  0  0  0  0  0  0  0  0
   36.2910   21.0420   32.4730 C   0  0  0  0  0  0  0  0  0  0  0  0
   35.3280   21.4500   32.1500 H   0  0  0  0  0  0  0  0  0  0  0  0
   36.3060   19.9660   32.1770 H   0  0  0  0  0  0  0  0  0  0  0  0
   36.4800   21.2220   33.9350 C   0  0  0  0  0  0  0  0  0  0  0  0
   37.3520   21.8470   34.7890 C   0  0  0  0  0  0  0  0  0  0  0  0
   38.1690   22.3890   34.3360 H   0  0  0  0  0  0  0  0  0  0  0  0
   36.9720   21.6330   36.0590 N   0  0  0  0  0  0  0  0  0  0  0  0
   37.4900   22.0140   36.8560 H   0  0  0  0  0  0  0  0  0  0  0  0
   35.8640   20.8730   35.9990 C   0  0  0  0  0  0  0  0  0  0  0  0
   35.3170   20.5300   36.8810 H   0  0  0  0  0  0  0  0  0  0  0  0
   35.5520   20.6160   34.7170 N   0  0  0  0  0  0  0  0  0  0  0  0
   37.3350   26.6410   31.3340 O   0  0  0  0  0  0  0  0  0  0  0  0
   35.7270   29.3990   34.0950 C   0  0  0  0  0  0  0  0  0  0  0  0
   36.4990   28.3490   34.5110 C   0  0  0  0  0  0  0  0  0  0  0  0
   37.0550   27.4120   33.6660 C   0  0  0  0  0  0  0  0  0  0  0  0
   36.8540   27.4910   32.3230 C   0  0  0  0  0  0  0  0  0  0  0  0
   36.0640   28.5640   31.8900 C   0  0  0  0  0  0  0  0  0  0  0  0
   35.5320   29.4680   32.7430 N   0  0  0  0  0  0  0  0  0  0  0  0
   36.7180   28.1990   35.5600 H   0  0  0  0  0  0  0  0  0  0  0  0
   37.6670   26.5820   34.0000 H   0  0  0  0  0  0  0  0  0  0  0  0
   35.8500   28.7070   30.8340 H   0  0  0  0  0  0  0  0  0  0  0  0
   35.8910   31.2440   35.7640 C   0  0  0  0  0  0  0  0  0  0  0  0
   35.1540   30.3590   34.9800 C   0  0  0  0  0  0  0  0  0  0  0  0
   33.7850   30.4300   35.0890 C   0  0  0  0  0  0  0  0  0  0  0  0
   33.2040   31.3400   35.9370 N   0  0  0  0  0  0  0  0  0  0  0  0
   33.9750   32.1750   36.6750 C   0  0  0  0  0  0  0  0  0  0  0  0
   35.3330   32.1420   36.6010 N   0  0  0  0  0  0  0  0  0  0  0  0
   36.9680   31.2200   35.7060 H   0  0  0  0  0  0  0  0  0  0  0  0
   33.1540   29.7640   34.5020 H   0  0  0  0  0  0  0  0  0  0  0  0
   33.5030   32.8870   37.3390 H   0  0  0  0  0  0  0  0  0  0  0  0
  1  5  2  0  0  0  0
  2  3  2  0  0  0  0
  2  1  1  0  0  0  0
  3  4  1  0  0  0  0
  4  5  1  0  0  0  0
  4  8  1  0  0  0  0
  6  2  1  0  0  0  0
  7  3  1  0  0  0  0
  8 10  1  0  0  0  0
  8 11  1  0  0  0  0
  9  8  1  0  0  0  0
 11 14  1  0  0  0  0
 12 11  1  0  0  0  0
 13 11  1  0  0  0  0
 14 21  1  0  0  0  0
 14 15  2  0  0  0  0
 15 17  1  0  0  0  0
 16 15  1  0  0  0  0
 17 18  1  0  0  0  0
 19 17  1  0  0  0  0
 19 20  1  0  0  0  0
 21 19  2  0  0  0  0
 22  1  1  0  0  0  0
 22 26  1  0  0  0  0
 23 24  1  0  0  0  0
 23 33  1  0  0  0  0
 24 29  1  0  0  0  0
 25 30  1  0  0  0  0
 25 24  2  0  0  0  0
 26 25  1  0  0  0  0
 27 26  2  0  0  0  0
 27 28  1  0  0  0  0
 28 23  2  0  0  0  0
 31 27  1  0  0  0  0
 32 37  1  0  0  0  0
 33 34  1  0  0  0  0
 33 32  2  0  0  0  0
 34 35  2  0  0  0  0
 35 36  1  0  0  0  0
 36 40  1  0  0  0  0
 37 36  2  0  0  0  0
 38 32  1  0  0  0  0
 39 34  1  0  0  0  0
M  END
>  <minimizedAffinity>
-5.49152946

$$$$

 OpenBabel03272510143D

 40 43  0  0  0  0  0  0  0  0999 V2000
   36.2920   26.0960   31.0640 C   0  0  0  0  0  0  0  0  0  0  0  0
   37.5430   25.4840   30.9580 C   0  0  0  0  0  0  0  0  0  0  0  0
   37.3280   24.1130   31.0510 C   0  0  0  0  0  0  0  0  0  0  0  0
   36.0200   23.9330   31.2030 N   0  0  0  0  0  0  0  0  0  0  0  0
   35.4070   25.1010   31.2110 N   0  0  0  0  0  0  0  0  0  0  0  0
   38.5730   25.8390   30.8270 H   0  0  0  0  0  0  0  0  0  0  0  0
   38.0600   23.3050   31.0110 H   0  0  0  0  0  0  0  0  0  0  0  0
   35.3690   22.6520   31.3390 C   0  0  0  0  0  0  0  0  0  0  0  0
   34.5180   22.7800   32.0370 H   0  0  0  0  0  0  0  0  0  0  0  0
   35.0410   22.3240   30.3350 H   0  0  0  0  0  0  0  0  0  0  0  0
   36.3640   21.6830   31.9470 C   0  0  0  0  0  0  0  0  0  0  0  0
   37.2770   21.7030   31.3430 H   0  0  0  0  0  0  0  0  0  0  0  0
   36.6300   22.0840   32.9540 H   0  0  0  0  0  0  0  0  0  0  0  0
   35.8050   20.3100   32.0210 C   0  0  0  0  0  0  0  0  0  0  0  0
   34.5780   19.6970   32.0160 C   0  0  0  0  0  0  0  0  0  0  0  0
   33.7150   20.3430   31.9380 H   0  0  0  0  0  0  0  0  0  0  0  0
   34.7360   18.3680   32.1160 N   0  0  0  0  0  0  0  0  0  0  0  0
   33.9410   17.7230   32.1300 H   0  0  0  0  0  0  0  0  0  0  0  0
   36.0610   18.1490   32.1840 C   0  0  0  0  0  0  0  0  0  0  0  0
   36.5060   17.1550   32.2710 H   0  0  0  0  0  0  0  0  0  0  0  0
   36.7240   19.3170   32.1270 N   0  0  0  0  0  0  0  0  0  0  0  0
   36.3270   27.4710   30.9900 O   0  0  0  0  0  0  0  0  0  0  0  0
   35.4360   30.1590   34.1210 C   0  0  0  0  0  0  0  0  0  0  0  0
   36.0150   28.9460   34.3730 C   0  0  0  0  0  0  0  0  0  0  0  0
   36.3340   28.0210   33.4010 C   0  0  0  0  0  0  0  0  0  0  0  0
   36.0750   28.2820   32.0910 C   0  0  0  0  0  0  0  0  0  0  0  0
   35.4800   29.5230   31.8260 C   0  0  0  0  0  0  0  0  0  0  0  0
   35.1790   30.4090   32.8010 N   0  0  0  0  0  0  0  0  0  0  0  0
   36.2620   28.6440   35.3830 H   0  0  0  0  0  0  0  0  0  0  0  0
   36.7950   27.0600   33.6050 H   0  0  0  0  0  0  0  0  0  0  0  0
   35.2370   29.8170   30.8090 H   0  0  0  0  0  0  0  0  0  0  0  0
   33.9970   31.0050   35.9730 C   0  0  0  0  0  0  0  0  0  0  0  0
   35.1070   31.1040   35.1360 C   0  0  0  0  0  0  0  0  0  0  0  0
   35.9210   32.1970   35.3170 C   0  0  0  0  0  0  0  0  0  0  0  0
   35.6280   33.1270   36.2830 N   0  0  0  0  0  0  0  0  0  0  0  0
   34.5320   32.9750   37.0660 C   0  0  0  0  0  0  0  0  0  0  0  0
   33.6970   31.9110   36.9250 N   0  0  0  0  0  0  0  0  0  0  0  0
   33.3340   30.1610   35.8620 H   0  0  0  0  0  0  0  0  0  0  0  0
   36.8040   32.3310   34.6940 H   0  0  0  0  0  0  0  0  0  0  0  0
   34.3130   33.7170   37.8240 H   0  0  0  0  0  0  0  0  0  0  0  0
  1  5  2  0  0  0  0
  2  3  2  0  0  0  0
  2  1  1  0  0  0  0
  3  4  1  0  0  0  0
  4  5  1  0  0  0  0
  4  8  1  0  0  0  0
  6  2  1  0  0  0  0
  7  3  1  0  0  0  0
  8 11  1  0  0  0  0
  8  9  1  0  0  0  0
 10  8  1  0  0  0  0
 11 14  1  0  0  0  0
 11 13  1  0  0  0  0
 12 11  1  0  0  0  0
 14 21  1  0  0  0  0
 15 14  2  0  0  0  0
 15 17  1  0  0  0  0
 16 15  1  0  0  0  0
 17 18  1  0  0  0  0
 17 19  1  0  0  0  0
 19 20  1  0  0  0  0
 21 19  2  0  0  0  0
 22  1  1  0  0  0  0
 22 26  1  0  0  0  0
 23 24  1  0  0  0  0
 23 33  1  0  0  0  0
 24 29  1  0  0  0  0
 25 30  1  0  0  0  0
 25 24  2  0  0  0  0
 26 25  1  0  0  0  0
 27 26  2  0  0  0  0
 27 28  1  0  0  0  0
 28 23  2  0  0  0  0
 31 27  1  0  0  0  0
 32 37  1  0  0  0  0
 33 34  1  0  0  0  0
 33 32  2  0  0  0  0
 34 35  2  0  0  0  0
 35 36  1  0  0  0  0
 36 40  1  0  0  0  0
 37 36  2  0  0  0  0
 38 32  1  0  0  0  0
 39 34  1  0  0  0  0
M  END
>  <minimizedAffinity>
-5.39835596

$$$$
