
     RDKit          3D

 42 45  0  0  0  0  0  0  0  0999 V2000
   37.3304   30.1685   51.5146 C   0  0  0  0  0  0  0  0  0  0  0  0
   38.0742   30.8663   50.5192 C   0  0  0  0  0  0  0  0  0  0  0  0
   37.7108   30.6565   49.1972 C   0  0  0  0  0  0  0  0  0  0  0  0
   36.6673   29.7952   48.9698 N   0  0  0  0  0  0  0  0  0  0  0  0
   35.9922   29.1578   49.9296 C   0  0  0  0  0  0  0  0  0  0  0  0
   36.3418   29.3590   51.2097 N   0  0  0  0  0  0  0  0  0  0  0  0
   38.9302   33.2692   49.0018 F   0  0  0  0  0  0  0  0  0  0  0  0
   38.9115   32.4842   47.9403 C   0  0  0  0  0  0  0  0  0  0  0  0
   38.3339   31.2633   48.0566 C   0  0  0  0  0  0  0  0  0  0  0  0
   38.3749   30.5224   46.8657 C   0  0  0  0  0  0  0  0  0  0  0  0
   38.9400   30.9829   45.7033 C   0  0  0  0  0  0  0  0  0  0  0  0
   39.5076   32.2184   45.6399 C   0  0  0  0  0  0  0  0  0  0  0  0
   39.4887   32.9808   46.7900 C   0  0  0  0  0  0  0  0  0  0  0  0
   34.9997   28.3582   49.4433 O   0  0  0  0  0  0  0  0  0  0  0  0
   34.4529   28.6363   48.1606 C   0  0  0  0  0  0  0  0  0  0  0  0
   33.5676   27.5181   47.7063 C   0  0  0  0  0  0  0  0  0  0  0  0
   32.1255   27.8968   47.7031 C   0  0  0  0  0  0  0  0  0  0  0  0
   31.3462   27.5139   48.7862 C   0  0  0  0  0  0  0  0  0  0  0  0
   30.0123   27.8172   48.8698 C   0  0  0  0  0  0  0  0  0  0  0  0
   29.4433   28.4988   47.8860 N   0  0  0  0  0  0  0  0  0  0  0  0
   30.2133   28.8789   46.8125 C   0  0  0  0  0  0  0  0  0  0  0  0
   31.5237   28.5911   46.7115 N   0  0  0  0  0  0  0  0  0  0  0  0
   37.6814   30.3918   52.5066 H   0  0  0  0  0  0  0  0  0  0  0  0
   38.8942   31.5423   50.7104 H   0  0  0  0  0  0  0  0  0  0  0  0
   37.9333   29.5160   46.8505 H   0  0  0  0  0  0  0  0  0  0  0  0
   38.9289   30.3467   44.8298 H   0  0  0  0  0  0  0  0  0  0  0  0
   39.9321   32.5245   44.7095 H   0  0  0  0  0  0  0  0  0  0  0  0
   39.9309   33.9577   46.7613 H   0  0  0  0  0  0  0  0  0  0  0  0
   33.8597   29.5813   48.1859 H   0  0  0  0  0  0  0  0  0  0  0  0
   35.2566   28.7858   47.3944 H   0  0  0  0  0  0  0  0  0  0  0  0
   33.7176   26.6317   48.3195 H   0  0  0  0  0  0  0  0  0  0  0  0
   33.8100   27.2247   46.6502 H   0  0  0  0  0  0  0  0  0  0  0  0
   31.7946   26.9560   49.6000 H   0  0  0  0  0  0  0  0  0  0  0  0
   29.4496   27.4955   49.7355 H   0  0  0  0  0  0  0  0  0  0  0  0
   29.5661   29.6315   45.7351 C   0  0  0  0  0  0  0  0  0  0  0  0
   28.4956   30.4823   46.0291 C   0  0  0  0  0  0  0  0  0  0  0  0
   28.0380   30.6872   46.9914 H   0  0  0  0  0  0  0  0  0  0  0  0
   28.0498   31.0762   44.8890 N   0  0  0  0  0  0  0  0  0  0  0  0
   27.2570   31.7616   44.8159 H   0  0  0  0  0  0  0  0  0  0  0  0
   28.8329   30.6000   43.9040 C   0  0  0  0  0  0  0  0  0  0  0  0
   28.7021   30.9024   42.8936 H   0  0  0  0  0  0  0  0  0  0  0  0
   29.7496   29.7297   44.3987 N   0  0  0  0  0  0  0  0  0  0  0  0
  2  1  2  0
  3  2  1  0
  4  3  2  0
  4  5  1  0
  5  6  2  0
  6  1  1  0
  8  9  2  0
  8  7  1  0
  9  3  1  0
 10  9  1  0
 11 10  2  0
 12 11  1  0
 12 13  2  0
 13  8  1  0
 14  5  1  0
 15 14  1  0
 16 15  1  0
 17 16  1  0
 17 18  2  0
 18 19  1  0
 20 19  2  0
 21 20  1  0
 22 21  2  0
 22 17  1  0
  1 23  1  0
  2 24  1  0
 10 25  1  0
 11 26  1  0
 12 27  1  0
 13 28  1  0
 15 29  1  0
 15 30  1  0
 16 31  1  0
 16 32  1  0
 18 33  1  0
 19 34  1  0
 35 36  2  0
 36 37  1  0
 36 38  1  0
 38 39  1  0
 38 40  1  0
 40 41  1  0
 40 42  2  0
 42 35  1  0
 21 35  1  0
M  ISO  8  23  14  24  14  25  14  26  14  27  14  28  14  29   8  30   8
M  ISO  7  31   8  32   8  33  14  34  14  37  15  39   5  41  14
M  END
>  <DihAtoms>  (1) 
19,20,34,35

>  <DihDeg>  (1) 
136.01746013381492

$$$$
