
     RDKit          3D

 45 48  0  0  0  0  0  0  0  0999 V2000
   37.3355   30.1731   51.5207 C   0  0  0  0  0  0  0  0  0  0  0  0
   38.0634   30.8624   50.5276 C   0  0  0  0  0  0  0  0  0  0  0  0
   37.7023   30.6558   49.1957 C   0  0  0  0  0  0  0  0  0  0  0  0
   36.6636   29.7930   48.9846 N   0  0  0  0  0  0  0  0  0  0  0  0
   35.9860   29.1488   49.9441 C   0  0  0  0  0  0  0  0  0  0  0  0
   36.3387   29.3519   51.2258 N   0  0  0  0  0  0  0  0  0  0  0  0
   38.9392   33.2628   49.0150 F   0  0  0  0  0  0  0  0  0  0  0  0
   38.9095   32.4761   47.9430 C   0  0  0  0  0  0  0  0  0  0  0  0
   38.3280   31.2697   48.0562 C   0  0  0  0  0  0  0  0  0  0  0  0
   38.3530   30.5293   46.8738 C   0  0  0  0  0  0  0  0  0  0  0  0
   38.9137   30.9808   45.7066 C   0  0  0  0  0  0  0  0  0  0  0  0
   39.4974   32.2299   45.6492 C   0  0  0  0  0  0  0  0  0  0  0  0
   39.4838   32.9737   46.7995 C   0  0  0  0  0  0  0  0  0  0  0  0
   34.9975   28.3490   49.4558 O   0  0  0  0  0  0  0  0  0  0  0  0
   34.4477   28.6439   48.1708 C   0  0  0  0  0  0  0  0  0  0  0  0
   33.5619   27.5252   47.7149 C   0  0  0  0  0  0  0  0  0  0  0  0
   32.1172   27.8898   47.7478 C   0  0  0  0  0  0  0  0  0  0  0  0
   31.3742   27.4833   48.8410 C   0  0  0  0  0  0  0  0  0  0  0  0
   30.0332   27.7702   48.9649 C   0  0  0  0  0  0  0  0  0  0  0  0
   29.4305   28.4661   47.9931 N   0  0  0  0  0  0  0  0  0  0  0  0
   30.1817   28.8588   46.9211 C   0  0  0  0  0  0  0  0  0  0  0  0
   31.4855   28.5910   46.7803 N   0  0  0  0  0  0  0  0  0  0  0  0
   29.4435   29.6295   45.8785 C   0  0  0  0  0  0  0  0  0  0  0  0
   37.6601   30.3721   52.5372 H   0  0  0  0  0  0  0  0  0  0  0  0
   38.8704   31.5332   50.6851 H   0  0  0  0  0  0  0  0  0  0  0  0
   37.9089   29.5228   46.8339 H   0  0  0  0  0  0  0  0  0  0  0  0
   38.9095   30.3703   44.8128 H   0  0  0  0  0  0  0  0  0  0  0  0
   39.9415   32.5977   44.7399 H   0  0  0  0  0  0  0  0  0  0  0  0
   39.9406   33.9584   46.7654 H   0  0  0  0  0  0  0  0  0  0  0  0
   35.3333   28.7318   47.4903 H   0  0  0  0  0  0  0  0  0  0  0  0
   33.9610   29.6195   48.1545 H   0  0  0  0  0  0  0  0  0  0  0  0
   33.7229   26.6144   48.3184 H   0  0  0  0  0  0  0  0  0  0  0  0
   33.7988   27.3028   46.6465 H   0  0  0  0  0  0  0  0  0  0  0  0
   31.8045   26.9120   49.6697 H   0  0  0  0  0  0  0  0  0  0  0  0
   29.4556   27.4573   49.8091 H   0  0  0  0  0  0  0  0  0  0  0  0
   29.9217   29.3564   44.9062 H   0  0  0  0  0  0  0  0  0  0  0  0
   28.4083   29.2358   45.7921 H   0  0  0  0  0  0  0  0  0  0  0  0
   29.4665   31.0880   46.1175 C   0  0  0  0  0  0  0  0  0  0  0  0
   28.3588   31.9046   46.0088 C   0  0  0  0  0  0  0  0  0  0  0  0
   27.3267   31.6941   45.7517 H   0  0  0  0  0  0  0  0  0  0  0  0
   28.6958   33.1741   46.2854 N   0  0  0  0  0  0  0  0  0  0  0  0
   28.1594   34.0690   46.3130 H   0  0  0  0  0  0  0  0  0  0  0  0
   30.0292   33.1818   46.5753 C   0  0  0  0  0  0  0  0  0  0  0  0
   30.6605   34.0364   46.8490 H   0  0  0  0  0  0  0  0  0  0  0  0
   30.4673   31.8930   46.4633 N   0  0  0  0  0  0  0  0  0  0  0  0
  2  1  2  0
  3  2  1  0
  4  3  2  0
  4  5  1  0
  5  6  2  0
  6  1  1  0
  8  9  2  0
  8  7  1  0
  9  3  1  0
 10  9  1  0
 11 10  2  0
 12 11  1  0
 12 13  2  0
 13  8  1  0
 14  5  1  0
 15 14  1  0
 16 17  1  0
 16 15  1  0
 17 18  2  0
 18 19  1  0
 20 19  2  0
 21 20  1  0
 22 21  2  0
 22 17  1  0
 23 21  1  0
  1 24  1  0
  2 25  1  0
 10 26  1  0
 11 27  1  0
 12 28  1  0
 13 29  1  0
 15 30  1  0
 15 31  1  0
 16 32  1  0
 16 33  1  0
 18 34  1  0
 19 35  1  0
 23 36  1  0
 23 37  1  0
 38 39  2  0
 39 40  1  0
 39 41  1  0
 41 42  1  0
 41 43  1  0
 43 44  1  0
 43 45  2  0
 45 38  1  0
 23 38  1  0
M  ISO  8  24  14  25  14  26  14  27  14  28  14  29  14  30   8  31   8
M  ISO  8  32   8  33   8  34  14  35  14  36   8  37   8  40  15  42   5
M  ISO  1  44  14
M  END
>  <DihAtoms>  (1) 
20,22,37,38

>  <DihDeg>  (1) 
89.99950759897834

$$$$
