
 OpenBabel03262523493D

 37 40  0  0  0  0  0  0  0  0999 V2000
   36.9290   30.2100   31.1240 Cl  0  0  0  0  0  0  0  0  0  0  0  0
   37.1760   28.5920   31.7550 C   0  0  0  0  0  0  0  0  0  0  0  0
   36.3660   28.0980   32.7590 C   0  0  0  0  0  0  0  0  0  0  0  0
   36.6160   26.8230   33.2050 C   0  0  0  0  0  0  0  0  0  0  0  0
   37.6200   26.0440   32.6970 C   0  0  0  0  0  0  0  0  0  0  0  0
   38.4230   26.5770   31.6780 C   0  0  0  0  0  0  0  0  0  0  0  0
   39.6880   25.5530   31.0590 Cl  0  0  0  0  0  0  0  0  0  0  0  0
   38.2070   27.8510   31.2030 C   0  0  0  0  0  0  0  0  0  0  0  0
   35.9570   26.4800   33.9910 H   0  0  0  0  0  0  0  0  0  0  0  0
   38.8470   28.2160   30.4200 H   0  0  0  0  0  0  0  0  0  0  0  0
   39.1790   25.7420   35.2850 Cl  0  0  0  0  0  0  0  0  0  0  0  0
   38.4400   24.3750   34.4190 C   0  0  0  0  0  0  0  0  0  0  0  0
   37.7730   24.7070   33.2640 C   0  0  0  0  0  0  0  0  0  0  0  0
   37.1650   23.7080   32.5200 C   0  0  0  0  0  0  0  0  0  0  0  0
   37.2240   22.3750   32.9340 C   0  0  0  0  0  0  0  0  0  0  0  0
   37.9010   22.0940   34.0940 C   0  0  0  0  0  0  0  0  0  0  0  0
   38.5220   23.0840   34.8600 C   0  0  0  0  0  0  0  0  0  0  0  0
   36.6260   23.8870   31.6070 H   0  0  0  0  0  0  0  0  0  0  0  0
   36.7570   21.5700   32.3740 H   0  0  0  0  0  0  0  0  0  0  0  0
   37.9930   21.0780   34.4840 H   0  0  0  0  0  0  0  0  0  0  0  0
   39.2470   22.8120   36.0960 C   0  0  0  0  0  0  0  0  0  0  0  0
   38.6610   22.9960   37.3520 C   0  0  0  0  0  0  0  0  0  0  0  0
   37.6890   23.3300   37.6660 H   0  0  0  0  0  0  0  0  0  0  0  0
   39.6500   22.6390   38.2170 N   0  0  0  0  0  0  0  0  0  0  0  0
   39.5350   22.6630   39.2700 H   0  0  0  0  0  0  0  0  0  0  0  0
   40.7670   22.2620   37.5450 C   0  0  0  0  0  0  0  0  0  0  0  0
   41.6800   21.9360   38.0240 H   0  0  0  0  0  0  0  0  0  0  0  0
   40.5110   22.3710   36.2300 N   0  0  0  0  0  0  0  0  0  0  0  0
   34.4880   30.6540   34.8170 C   0  0  0  0  0  0  0  0  0  0  0  0
   35.5260   29.8200   34.3650 C   0  0  0  0  0  0  0  0  0  0  0  0
   35.3030   28.9860   33.2630 C   0  0  0  0  0  0  0  0  0  0  0  0
   34.0780   29.0160   32.6700 N   0  0  0  0  0  0  0  0  0  0  0  0
   33.1120   29.8400   33.1490 C   0  0  0  0  0  0  0  0  0  0  0  0
   33.3090   30.6410   34.1970 N   0  0  0  0  0  0  0  0  0  0  0  0
   34.7170   31.2770   35.6710 H   0  0  0  0  0  0  0  0  0  0  0  0
   36.5030   29.7890   34.8280 H   0  0  0  0  0  0  0  0  0  0  0  0
   32.1640   29.8090   32.6260 H   0  0  0  0  0  0  0  0  0  0  0  0
  1  2  1  0  0  0  0
  2  3  1  0  0  0  0
  3  4  2  0  0  0  0
  3 31  1  0  0  0  0
  4  9  1  0  0  0  0
  5  4  1  0  0  0  0
  5 13  1  0  0  0  0
  6  5  2  0  0  0  0
  7  6  1  0  0  0  0
  8  6  1  0  0  0  0
  8  2  2  0  0  0  0
 10  8  1  0  0  0  0
 12 17  1  0  0  0  0
 12 11  1  0  0  0  0
 13 12  2  0  0  0  0
 14 15  2  0  0  0  0
 14 13  1  0  0  0  0
 15 16  1  0  0  0  0
 16 20  1  0  0  0  0
 16 17  2  0  0  0  0
 17 21  1  0  0  0  0
 18 14  1  0  0  0  0
 19 15  1  0  0  0  0
 21 28  1  0  0  0  0
 21 22  2  0  0  0  0
 22 23  1  0  0  0  0
 22 24  1  0  0  0  0
 24 25  1  0  0  0  0
 26 27  1  0  0  0  0
 26 24  1  0  0  0  0
 28 26  2  0  0  0  0
 29 35  1  0  0  0  0
 30 29  1  0  0  0  0
 30 36  1  0  0  0  0
 31 30  2  0  0  0  0
 32 33  2  0  0  0  0
 32 31  1  0  0  0  0
 33 34  1  0  0  0  0
 34 29  2  0  0  0  0
 37 33  1  0  0  0  0
M  END
>  <minimizedAffinity>
-6.11656046

$$$$

 OpenBabel03262523493D

 37 40  0  0  0  0  0  0  0  0999 V2000
   35.1930   32.0140   32.3040 Cl  0  0  0  0  0  0  0  0  0  0  0  0
   35.8380   30.3910   32.4640 C   0  0  0  0  0  0  0  0  0  0  0  0
   35.7080   29.6960   33.6510 C   0  0  0  0  0  0  0  0  0  0  0  0
   36.2360   28.4300   33.7060 C   0  0  0  0  0  0  0  0  0  0  0  0
   36.8740   27.8470   32.6460 C   0  0  0  0  0  0  0  0  0  0  0  0
   36.9890   28.5790   31.4560 C   0  0  0  0  0  0  0  0  0  0  0  0
   37.8080   27.8010   30.1300 Cl  0  0  0  0  0  0  0  0  0  0  0  0
   36.4740   29.8520   31.3580 C   0  0  0  0  0  0  0  0  0  0  0  0
   36.1100   27.9270   34.6550 H   0  0  0  0  0  0  0  0  0  0  0  0
   36.5850   30.3750   30.4250 H   0  0  0  0  0  0  0  0  0  0  0  0
   35.4050   25.5350   31.3340 Cl  0  0  0  0  0  0  0  0  0  0  0  0
   36.8630   25.3310   32.3350 C   0  0  0  0  0  0  0  0  0  0  0  0
   37.3880   26.4940   32.8440 C   0  0  0  0  0  0  0  0  0  0  0  0
   38.5240   26.4360   33.6370 C   0  0  0  0  0  0  0  0  0  0  0  0
   39.1340   25.2110   33.9180 C   0  0  0  0  0  0  0  0  0  0  0  0
   38.5720   24.0780   33.3860 C   0  0  0  0  0  0  0  0  0  0  0  0
   37.4280   24.1120   32.5850 C   0  0  0  0  0  0  0  0  0  0  0  0
   38.9930   27.2990   34.0720 H   0  0  0  0  0  0  0  0  0  0  0  0
   40.0250   25.1330   34.5350 H   0  0  0  0  0  0  0  0  0  0  0  0
   38.9890   23.0830   33.5590 H   0  0  0  0  0  0  0  0  0  0  0  0
   36.8110   22.9230   32.0070 C   0  0  0  0  0  0  0  0  0  0  0  0
   37.4550   22.1580   31.0310 C   0  0  0  0  0  0  0  0  0  0  0  0
   38.4090   22.2420   30.5440 H   0  0  0  0  0  0  0  0  0  0  0  0
   36.5610   21.1650   30.7680 N   0  0  0  0  0  0  0  0  0  0  0  0
   36.7390   20.3970   30.0600 H   0  0  0  0  0  0  0  0  0  0  0  0
   35.4440   21.3070   31.5260 C   0  0  0  0  0  0  0  0  0  0  0  0
   34.5980   20.6350   31.4890 H   0  0  0  0  0  0  0  0  0  0  0  0
   35.6060   22.3990   32.2930 N   0  0  0  0  0  0  0  0  0  0  0  0
   35.0070   31.8450   36.6830 C   0  0  0  0  0  0  0  0  0  0  0  0
   35.7070   31.2100   35.6420 C   0  0  0  0  0  0  0  0  0  0  0  0
   35.0100   30.3800   34.7550 C   0  0  0  0  0  0  0  0  0  0  0  0
   33.6710   30.2210   34.9410 N   0  0  0  0  0  0  0  0  0  0  0  0
   33.0460   30.8580   35.9640 C   0  0  0  0  0  0  0  0  0  0  0  0
   33.6960   31.6520   36.8160 N   0  0  0  0  0  0  0  0  0  0  0  0
   35.5970   32.4740   37.3360 H   0  0  0  0  0  0  0  0  0  0  0  0
   36.7700   31.3300   35.4850 H   0  0  0  0  0  0  0  0  0  0  0  0
   31.9810   30.6830   36.0480 H   0  0  0  0  0  0  0  0  0  0  0  0
  1  2  1  0  0  0  0
  2  3  1  0  0  0  0
  3  4  2  0  0  0  0
  3 31  1  0  0  0  0
  4  9  1  0  0  0  0
  5 13  1  0  0  0  0
  5  4  1  0  0  0  0
  6  5  2  0  0  0  0
  7  6  1  0  0  0  0
  8  6  1  0  0  0  0
  8  2  2  0  0  0  0
 10  8  1  0  0  0  0
 11 12  1  0  0  0  0
 12 17  2  0  0  0  0
 12 13  1  0  0  0  0
 13 14  2  0  0  0  0
 14 15  1  0  0  0  0
 14 18  1  0  0  0  0
 15 19  1  0  0  0  0
 16 20  1  0  0  0  0
 16 15  2  0  0  0  0
 17 16  1  0  0  0  0
 21 28  1  0  0  0  0
 21 17  1  0  0  0  0
 22 21  2  0  0  0  0
 23 22  1  0  0  0  0
 24 22  1  0  0  0  0
 24 26  1  0  0  0  0
 25 24  1  0  0  0  0
 26 28  2  0  0  0  0
 27 26  1  0  0  0  0
 29 34  1  0  0  0  0
 29 35  1  0  0  0  0
 30 29  2  0  0  0  0
 31 32  2  0  0  0  0
 31 30  1  0  0  0  0
 32 33  1  0  0  0  0
 33 37  1  0  0  0  0
 33 34  2  0  0  0  0
 36 30  1  0  0  0  0
M  END
>  <minimizedAffinity>
-6.02930784

$$$$

 OpenBabel03262523493D

 37 40  0  0  0  0  0  0  0  0999 V2000
   38.0590   25.8670   31.6990 Cl  0  0  0  0  0  0  0  0  0  0  0  0
   37.2470   27.1250   32.6110 C   0  0  0  0  0  0  0  0  0  0  0  0
   37.3280   27.1570   33.9900 C   0  0  0  0  0  0  0  0  0  0  0  0
   36.6680   28.1710   34.6410 C   0  0  0  0  0  0  0  0  0  0  0  0
   35.9490   29.1290   33.9810 C   0  0  0  0  0  0  0  0  0  0  0  0
   35.8870   29.0680   32.5810 C   0  0  0  0  0  0  0  0  0  0  0  0
   34.9610   30.3060   31.7810 Cl  0  0  0  0  0  0  0  0  0  0  0  0
   36.5340   28.0670   31.8900 C   0  0  0  0  0  0  0  0  0  0  0  0
   36.7610   28.1540   35.7180 H   0  0  0  0  0  0  0  0  0  0  0  0
   36.4590   28.0620   30.8180 H   0  0  0  0  0  0  0  0  0  0  0  0
   32.9230   29.0650   34.2320 Cl  0  0  0  0  0  0  0  0  0  0  0  0
   33.9490   30.2810   35.0280 C   0  0  0  0  0  0  0  0  0  0  0  0
   35.2970   30.1490   34.7990 C   0  0  0  0  0  0  0  0  0  0  0  0
   36.1770   31.0510   35.3780 C   0  0  0  0  0  0  0  0  0  0  0  0
   35.7040   32.0860   36.1880 C   0  0  0  0  0  0  0  0  0  0  0  0
   34.3490   32.1760   36.3880 C   0  0  0  0  0  0  0  0  0  0  0  0
   33.4440   31.2790   35.8150 C   0  0  0  0  0  0  0  0  0  0  0  0
   37.2420   31.0150   35.2450 H   0  0  0  0  0  0  0  0  0  0  0  0
   36.3670   32.8080   36.6570 H   0  0  0  0  0  0  0  0  0  0  0  0
   33.9010   32.9560   37.0080 H   0  0  0  0  0  0  0  0  0  0  0  0
   32.0010   31.3520   36.0110 C   0  0  0  0  0  0  0  0  0  0  0  0
   31.3350   30.5180   36.9140 C   0  0  0  0  0  0  0  0  0  0  0  0
   31.6690   29.7420   37.5800 H   0  0  0  0  0  0  0  0  0  0  0  0
   30.0340   30.8990   36.7960 N   0  0  0  0  0  0  0  0  0  0  0  0
   29.2480   30.4570   37.3530 H   0  0  0  0  0  0  0  0  0  0  0  0
   29.9030   31.8960   35.8850 C   0  0  0  0  0  0  0  0  0  0  0  0
   28.9610   32.3590   35.6250 H   0  0  0  0  0  0  0  0  0  0  0  0
   31.1270   32.1730   35.4030 N   0  0  0  0  0  0  0  0  0  0  0  0
   38.3250   24.2460   36.1880 C   0  0  0  0  0  0  0  0  0  0  0  0
   37.5380   25.2460   35.5890 C   0  0  0  0  0  0  0  0  0  0  0  0
   38.1190   26.0970   34.6410 C   0  0  0  0  0  0  0  0  0  0  0  0
   39.4340   25.9200   34.3360 N   0  0  0  0  0  0  0  0  0  0  0  0
   40.1460   24.9380   34.9470 C   0  0  0  0  0  0  0  0  0  0  0  0
   39.6070   24.1190   35.8520 N   0  0  0  0  0  0  0  0  0  0  0  0
   37.8230   23.6190   36.9120 H   0  0  0  0  0  0  0  0  0  0  0  0
   36.4930   25.3950   35.8230 H   0  0  0  0  0  0  0  0  0  0  0  0
   41.1860   24.8580   34.6540 H   0  0  0  0  0  0  0  0  0  0  0  0
  1  2  1  0  0  0  0
  2  3  1  0  0  0  0
  3  4  2  0  0  0  0
  3 31  1  0  0  0  0
  4  9  1  0  0  0  0
  5  4  1  0  0  0  0
  5 13  1  0  0  0  0
  6  5  2  0  0  0  0
  7  6  1  0  0  0  0
  8  6  1  0  0  0  0
  8  2  2  0  0  0  0
 10  8  1  0  0  0  0
 11 12  1  0  0  0  0
 12 17  1  0  0  0  0
 13 12  2  0  0  0  0
 13 14  1  0  0  0  0
 14 15  2  0  0  0  0
 15 16  1  0  0  0  0
 15 19  1  0  0  0  0
 16 20  1  0  0  0  0
 17 21  1  0  0  0  0
 17 16  2  0  0  0  0
 18 14  1  0  0  0  0
 21 22  2  0  0  0  0
 22 23  1  0  0  0  0
 24 22  1  0  0  0  0
 24 25  1  0  0  0  0
 26 24  1  0  0  0  0
 27 26  1  0  0  0  0
 28 26  2  0  0  0  0
 28 21  1  0  0  0  0
 29 35  1  0  0  0  0
 30 36  1  0  0  0  0
 30 29  2  0  0  0  0
 31 30  1  0  0  0  0
 32 31  2  0  0  0  0
 32 33  1  0  0  0  0
 33 34  2  0  0  0  0
 34 29  1  0  0  0  0
 37 33  1  0  0  0  0
M  END
>  <minimizedAffinity>
-5.86373281

$$$$

 OpenBabel03262523493D

 37 40  0  0  0  0  0  0  0  0999 V2000
   35.7030   32.8340   32.5460 Cl  0  0  0  0  0  0  0  0  0  0  0  0
   35.8690   31.0970   32.3800 C   0  0  0  0  0  0  0  0  0  0  0  0
   35.4490   30.2500   33.3880 C   0  0  0  0  0  0  0  0  0  0  0  0
   35.6090   28.9010   33.1910 C   0  0  0  0  0  0  0  0  0  0  0  0
   36.1580   28.3790   32.0520 C   0  0  0  0  0  0  0  0  0  0  0  0
   36.5740   29.2650   31.0480 C   0  0  0  0  0  0  0  0  0  0  0  0
   37.2680   28.5600   29.6160 Cl  0  0  0  0  0  0  0  0  0  0  0  0
   36.4320   30.6260   31.2060 C   0  0  0  0  0  0  0  0  0  0  0  0
   35.2660   28.2790   34.0070 H   0  0  0  0  0  0  0  0  0  0  0  0
   36.7650   31.2660   30.4090 H   0  0  0  0  0  0  0  0  0  0  0  0
   38.4930   27.0290   33.4480 Cl  0  0  0  0  0  0  0  0  0  0  0  0
   37.2470   26.1420   32.5390 C   0  0  0  0  0  0  0  0  0  0  0  0
   36.2680   26.9240   31.9760 C   0  0  0  0  0  0  0  0  0  0  0  0
   35.2530   26.3220   31.2470 C   0  0  0  0  0  0  0  0  0  0  0  0
   35.2210   24.9350   31.0830 C   0  0  0  0  0  0  0  0  0  0  0  0
   36.2210   24.1970   31.6650 C   0  0  0  0  0  0  0  0  0  0  0  0
   37.2540   24.7820   32.4030 C   0  0  0  0  0  0  0  0  0  0  0  0
   34.4540   26.8640   30.7760 H   0  0  0  0  0  0  0  0  0  0  0  0
   34.4400   24.4340   30.5190 H   0  0  0  0  0  0  0  0  0  0  0  0
   36.2670   23.1090   31.5830 H   0  0  0  0  0  0  0  0  0  0  0  0
   38.3280   24.0220   33.0320 C   0  0  0  0  0  0  0  0  0  0  0  0
   38.1840   23.4490   34.2980 C   0  0  0  0  0  0  0  0  0  0  0  0
   37.3760   23.4300   35.0080 H   0  0  0  0  0  0  0  0  0  0  0  0
   39.3850   22.8440   34.5100 N   0  0  0  0  0  0  0  0  0  0  0  0
   39.6160   22.3070   35.3940 H   0  0  0  0  0  0  0  0  0  0  0  0
   40.2130   23.0300   33.4510 C   0  0  0  0  0  0  0  0  0  0  0  0
   41.2200   22.6400   33.3930 H   0  0  0  0  0  0  0  0  0  0  0  0
   39.5510   23.7610   32.5370 N   0  0  0  0  0  0  0  0  0  0  0  0
   35.0860   31.9070   36.7690 C   0  0  0  0  0  0  0  0  0  0  0  0
   35.6800   31.3150   35.6390 C   0  0  0  0  0  0  0  0  0  0  0  0
   34.8650   30.8750   34.5890 C   0  0  0  0  0  0  0  0  0  0  0  0
   33.5180   31.0390   34.7070 N   0  0  0  0  0  0  0  0  0  0  0  0
   32.9990   31.6160   35.8210 C   0  0  0  0  0  0  0  0  0  0  0  0
   33.7630   32.0410   36.8290 N   0  0  0  0  0  0  0  0  0  0  0  0
   35.7650   32.2280   37.5470 H   0  0  0  0  0  0  0  0  0  0  0  0
   36.7480   31.1810   35.5350 H   0  0  0  0  0  0  0  0  0  0  0  0
   31.9210   31.7120   35.8430 H   0  0  0  0  0  0  0  0  0  0  0  0
  2  1  1  0  0  0  0
  2  3  1  0  0  0  0
  3 31  1  0  0  0  0
  4  3  2  0  0  0  0
  4  9  1  0  0  0  0
  5  4  1  0  0  0  0
  6  8  1  0  0  0  0
  6  5  2  0  0  0  0
  7  6  1  0  0  0  0
  8  2  2  0  0  0  0
 10  8  1  0  0  0  0
 12 11  1  0  0  0  0
 13  5  1  0  0  0  0
 13 12  2  0  0  0  0
 14 13  1  0  0  0  0
 15 14  2  0  0  0  0
 15 16  1  0  0  0  0
 16 17  2  0  0  0  0
 17 12  1  0  0  0  0
 17 21  1  0  0  0  0
 18 14  1  0  0  0  0
 19 15  1  0  0  0  0
 20 16  1  0  0  0  0
 21 22  2  0  0  0  0
 22 24  1  0  0  0  0
 22 23  1  0  0  0  0
 24 25  1  0  0  0  0
 26 24  1  0  0  0  0
 27 26  1  0  0  0  0
 28 21  1  0  0  0  0
 28 26  2  0  0  0  0
 29 34  1  0  0  0  0
 29 35  1  0  0  0  0
 30 29  2  0  0  0  0
 31 32  2  0  0  0  0
 31 30  1  0  0  0  0
 32 33  1  0  0  0  0
 33 37  1  0  0  0  0
 33 34  2  0  0  0  0
 36 30  1  0  0  0  0
M  END
>  <minimizedAffinity>
-5.84887743

$$$$

 OpenBabel03262523493D

 37 40  0  0  0  0  0  0  0  0999 V2000
   37.9330   27.4900   30.1070 Cl  0  0  0  0  0  0  0  0  0  0  0  0
   37.1510   28.3610   31.4130 C   0  0  0  0  0  0  0  0  0  0  0  0
   37.0790   27.8130   32.6790 C   0  0  0  0  0  0  0  0  0  0  0  0
   36.4530   28.5500   33.6540 C   0  0  0  0  0  0  0  0  0  0  0  0
   35.9100   29.7830   33.4160 C   0  0  0  0  0  0  0  0  0  0  0  0
   36.0000   30.3100   32.1200 C   0  0  0  0  0  0  0  0  0  0  0  0
   35.2960   31.8810   31.8590 Cl  0  0  0  0  0  0  0  0  0  0  0  0
   36.6190   29.6040   31.1130 C   0  0  0  0  0  0  0  0  0  0  0  0
   36.4210   28.0800   34.6280 H   0  0  0  0  0  0  0  0  0  0  0  0
   36.6660   30.0490   30.1350 H   0  0  0  0  0  0  0  0  0  0  0  0
   32.9420   29.3370   33.8790 Cl  0  0  0  0  0  0  0  0  0  0  0  0
   33.9510   30.3780   34.9110 C   0  0  0  0  0  0  0  0  0  0  0  0
   35.2730   30.4560   34.5450 C   0  0  0  0  0  0  0  0  0  0  0  0
   36.1380   31.2440   35.2900 C   0  0  0  0  0  0  0  0  0  0  0  0
   35.6770   31.9510   36.4030 C   0  0  0  0  0  0  0  0  0  0  0  0
   34.3480   31.8400   36.7280 C   0  0  0  0  0  0  0  0  0  0  0  0
   33.4580   31.0540   35.9920 C   0  0  0  0  0  0  0  0  0  0  0  0
   37.1830   31.3570   35.0680 H   0  0  0  0  0  0  0  0  0  0  0  0
   36.3290   32.5760   37.0070 H   0  0  0  0  0  0  0  0  0  0  0  0
   33.9110   32.3620   37.5820 H   0  0  0  0  0  0  0  0  0  0  0  0
   32.0430   30.9180   36.3160 C   0  0  0  0  0  0  0  0  0  0  0  0
   31.5620   29.8630   37.0970 C   0  0  0  0  0  0  0  0  0  0  0  0
   32.0390   29.0260   37.5740 H   0  0  0  0  0  0  0  0  0  0  0  0
   30.2230   30.1010   37.1590 N   0  0  0  0  0  0  0  0  0  0  0  0
   29.5470   29.4770   37.6850 H   0  0  0  0  0  0  0  0  0  0  0  0
   29.8990   31.2220   36.4670 C   0  0  0  0  0  0  0  0  0  0  0  0
   28.8930   31.6080   36.3770 H   0  0  0  0  0  0  0  0  0  0  0  0
   31.0320   31.7240   35.9470 N   0  0  0  0  0  0  0  0  0  0  0  0
   39.5400   25.0630   33.5050 C   0  0  0  0  0  0  0  0  0  0  0  0
   38.9970   26.3500   33.3360 C   0  0  0  0  0  0  0  0  0  0  0  0
   37.6840   26.4820   32.8700 C   0  0  0  0  0  0  0  0  0  0  0  0
   36.9790   25.3490   32.5970 N   0  0  0  0  0  0  0  0  0  0  0  0
   37.5540   24.1330   32.7790 C   0  0  0  0  0  0  0  0  0  0  0  0
   38.8040   23.9900   33.2220 N   0  0  0  0  0  0  0  0  0  0  0  0
   40.5580   25.0220   33.8680 H   0  0  0  0  0  0  0  0  0  0  0  0
   39.5470   27.2560   33.5500 H   0  0  0  0  0  0  0  0  0  0  0  0
   36.9330   23.2780   32.5410 H   0  0  0  0  0  0  0  0  0  0  0  0
  1  2  1  0  0  0  0
  2  3  1  0  0  0  0
  3 31  1  0  0  0  0
  3  4  2  0  0  0  0
  4  9  1  0  0  0  0
  5  4  1  0  0  0  0
  5 13  1  0  0  0  0
  6  5  2  0  0  0  0
  7  6  1  0  0  0  0
  8  2  2  0  0  0  0
  8  6  1  0  0  0  0
 10  8  1  0  0  0  0
 11 12  1  0  0  0  0
 12 17  1  0  0  0  0
 13 12  2  0  0  0  0
 13 14  1  0  0  0  0
 14 15  2  0  0  0  0
 15 16  1  0  0  0  0
 15 19  1  0  0  0  0
 16 20  1  0  0  0  0
 17 21  1  0  0  0  0
 17 16  2  0  0  0  0
 18 14  1  0  0  0  0
 21 22  2  0  0  0  0
 22 24  1  0  0  0  0
 22 23  1  0  0  0  0
 24 25  1  0  0  0  0
 26 24  1  0  0  0  0
 27 26  1  0  0  0  0
 28 21  1  0  0  0  0
 28 26  2  0  0  0  0
 29 35  1  0  0  0  0
 30 29  1  0  0  0  0
 30 36  1  0  0  0  0
 31 30  2  0  0  0  0
 32 33  2  0  0  0  0
 32 31  1  0  0  0  0
 33 34  1  0  0  0  0
 34 29  2  0  0  0  0
 37 33  1  0  0  0  0
M  END
>  <minimizedAffinity>
-5.84630299

$$$$

 OpenBabel03262523493D

 37 40  0  0  0  0  0  0  0  0999 V2000
   38.2280   27.2190   31.1520 Cl  0  0  0  0  0  0  0  0  0  0  0  0
   37.0710   28.0570   32.1690 C   0  0  0  0  0  0  0  0  0  0  0  0
   37.0150   27.8040   33.5260 C   0  0  0  0  0  0  0  0  0  0  0  0
   36.0850   28.4960   34.2620 C   0  0  0  0  0  0  0  0  0  0  0  0
   35.2300   29.4080   33.7060 C   0  0  0  0  0  0  0  0  0  0  0  0
   35.3130   29.6400   32.3250 C   0  0  0  0  0  0  0  0  0  0  0  0
   34.2060   30.8070   31.6570 Cl  0  0  0  0  0  0  0  0  0  0  0  0
   36.2310   28.9670   31.5510 C   0  0  0  0  0  0  0  0  0  0  0  0
   36.0790   28.2650   35.3190 H   0  0  0  0  0  0  0  0  0  0  0  0
   36.2580   29.1790   30.4970 H   0  0  0  0  0  0  0  0  0  0  0  0
   35.9040   32.1970   34.7020 Cl  0  0  0  0  0  0  0  0  0  0  0  0
   34.4220   31.3230   35.1570 C   0  0  0  0  0  0  0  0  0  0  0  0
   34.2900   30.0710   34.6060 C   0  0  0  0  0  0  0  0  0  0  0  0
   33.1680   29.3130   34.9040 C   0  0  0  0  0  0  0  0  0  0  0  0
   32.1770   29.8110   35.7530 C   0  0  0  0  0  0  0  0  0  0  0  0
   32.3540   31.0670   36.2770 C   0  0  0  0  0  0  0  0  0  0  0  0
   33.4770   31.8480   35.9930 C   0  0  0  0  0  0  0  0  0  0  0  0
   32.9930   28.3270   34.5140 H   0  0  0  0  0  0  0  0  0  0  0  0
   31.2860   29.2430   36.0040 H   0  0  0  0  0  0  0  0  0  0  0  0
   31.6260   31.5260   36.9490 H   0  0  0  0  0  0  0  0  0  0  0  0
   33.6900   33.1850   36.5370 C   0  0  0  0  0  0  0  0  0  0  0  0
   33.2030   34.3280   35.8960 C   0  0  0  0  0  0  0  0  0  0  0  0
   32.6430   34.4810   34.9920 H   0  0  0  0  0  0  0  0  0  0  0  0
   33.6070   35.3420   36.7100 N   0  0  0  0  0  0  0  0  0  0  0  0
   33.4000   36.3620   36.5130 H   0  0  0  0  0  0  0  0  0  0  0  0
   34.2950   34.8610   37.7770 C   0  0  0  0  0  0  0  0  0  0  0  0
   34.7130   35.4800   38.5580 H   0  0  0  0  0  0  0  0  0  0  0  0
   34.3420   33.5220   37.6630 N   0  0  0  0  0  0  0  0  0  0  0  0
   40.0940   26.2290   35.0570 C   0  0  0  0  0  0  0  0  0  0  0  0
   39.2160   27.2050   34.5520 C   0  0  0  0  0  0  0  0  0  0  0  0
   37.9640   26.8120   34.0630 C   0  0  0  0  0  0  0  0  0  0  0  0
   37.6460   25.4890   34.0970 N   0  0  0  0  0  0  0  0  0  0  0  0
   38.5340   24.5900   34.5950 C   0  0  0  0  0  0  0  0  0  0  0  0
   39.7290   24.9490   35.0640 N   0  0  0  0  0  0  0  0  0  0  0  0
   41.0460   26.5910   35.4200 H   0  0  0  0  0  0  0  0  0  0  0  0
   39.4580   28.2590   34.5210 H   0  0  0  0  0  0  0  0  0  0  0  0
   38.2110   23.5560   34.5900 H   0  0  0  0  0  0  0  0  0  0  0  0
  1  2  1  0  0  0  0
  2  3  1  0  0  0  0
  3 31  1  0  0  0  0
  3  4  2  0  0  0  0
  4  9  1  0  0  0  0
  5  4  1  0  0  0  0
  5 13  1  0  0  0  0
  6  5  2  0  0  0  0
  7  6  1  0  0  0  0
  8  2  2  0  0  0  0
  8  6  1  0  0  0  0
 10  8  1  0  0  0  0
 11 12  1  0  0  0  0
 12 17  1  0  0  0  0
 13 14  1  0  0  0  0
 13 12  2  0  0  0  0
 14 15  2  0  0  0  0
 15 19  1  0  0  0  0
 15 16  1  0  0  0  0
 16 20  1  0  0  0  0
 17 16  2  0  0  0  0
 17 21  1  0  0  0  0
 18 14  1  0  0  0  0
 21 28  1  0  0  0  0
 22 21  2  0  0  0  0
 22 24  1  0  0  0  0
 23 22  1  0  0  0  0
 24 26  1  0  0  0  0
 25 24  1  0  0  0  0
 26 27  1  0  0  0  0
 28 26  2  0  0  0  0
 29 34  1  0  0  0  0
 29 35  1  0  0  0  0
 30 29  2  0  0  0  0
 31 32  2  0  0  0  0
 31 30  1  0  0  0  0
 32 33  1  0  0  0  0
 33 34  2  0  0  0  0
 36 30  1  0  0  0  0
 37 33  1  0  0  0  0
M  END
>  <minimizedAffinity>
-5.66009426

$$$$

 OpenBabel03262523493D

 37 40  0  0  0  0  0  0  0  0999 V2000
   33.4640   31.1190   31.3670 Cl  0  0  0  0  0  0  0  0  0  0  0  0
   34.5600   30.0040   32.1630 C   0  0  0  0  0  0  0  0  0  0  0  0
   34.2630   29.5000   33.4140 C   0  0  0  0  0  0  0  0  0  0  0  0
   35.1660   28.6310   33.9780 C   0  0  0  0  0  0  0  0  0  0  0  0
   36.3240   28.2580   33.3530 C   0  0  0  0  0  0  0  0  0  0  0  0
   36.5940   28.7880   32.0830 C   0  0  0  0  0  0  0  0  0  0  0  0
   38.0790   28.2880   31.3230 Cl  0  0  0  0  0  0  0  0  0  0  0  0
   35.7160   29.6630   31.4830 C   0  0  0  0  0  0  0  0  0  0  0  0
   34.8900   28.2640   34.9570 H   0  0  0  0  0  0  0  0  0  0  0  0
   35.9660   30.0430   30.5080 H   0  0  0  0  0  0  0  0  0  0  0  0
   36.5680   25.4160   32.3120 Cl  0  0  0  0  0  0  0  0  0  0  0  0
   37.4280   26.0120   33.7510 C   0  0  0  0  0  0  0  0  0  0  0  0
   37.1930   27.3270   34.0690 C   0  0  0  0  0  0  0  0  0  0  0  0
   37.8190   27.8820   35.1750 C   0  0  0  0  0  0  0  0  0  0  0  0
   38.6820   27.1160   35.9620 C   0  0  0  0  0  0  0  0  0  0  0  0
   38.8850   25.8070   35.6040 C   0  0  0  0  0  0  0  0  0  0  0  0
   38.2650   25.2270   34.4940 C   0  0  0  0  0  0  0  0  0  0  0  0
   37.6860   28.9010   35.4880 H   0  0  0  0  0  0  0  0  0  0  0  0
   39.1880   27.5210   36.8340 H   0  0  0  0  0  0  0  0  0  0  0  0
   39.5440   25.1430   36.1680 H   0  0  0  0  0  0  0  0  0  0  0  0
   38.4640   23.8390   34.0920 C   0  0  0  0  0  0  0  0  0  0  0  0
   37.8150   22.7830   34.7380 C   0  0  0  0  0  0  0  0  0  0  0  0
   37.1220   22.7390   35.5590 H   0  0  0  0  0  0  0  0  0  0  0  0
   38.2630   21.6830   34.0730 N   0  0  0  0  0  0  0  0  0  0  0  0
   37.9620   20.6960   34.3150 H   0  0  0  0  0  0  0  0  0  0  0  0
   39.1270   22.0330   33.0870 C   0  0  0  0  0  0  0  0  0  0  0  0
   39.6100   21.3270   32.4260 H   0  0  0  0  0  0  0  0  0  0  0  0
   39.2470   23.3720   33.1030 N   0  0  0  0  0  0  0  0  0  0  0  0
   31.7490   31.4160   35.4890 C   0  0  0  0  0  0  0  0  0  0  0  0
   32.9730   31.0250   34.9180 C   0  0  0  0  0  0  0  0  0  0  0  0
   33.0000   29.9400   34.0330 C   0  0  0  0  0  0  0  0  0  0  0  0
   31.8280   29.3020   33.7610 N   0  0  0  0  0  0  0  0  0  0  0  0
   30.6750   29.7220   34.3420 C   0  0  0  0  0  0  0  0  0  0  0  0
   30.6340   30.7540   35.1860 N   0  0  0  0  0  0  0  0  0  0  0  0
   31.7890   32.2600   36.1640 H   0  0  0  0  0  0  0  0  0  0  0  0
   33.9090   31.5250   35.1270 H   0  0  0  0  0  0  0  0  0  0  0  0
   29.7850   29.1670   34.0770 H   0  0  0  0  0  0  0  0  0  0  0  0
  1  2  1  0  0  0  0
  2  3  1  0  0  0  0
  3  4  2  0  0  0  0
  3 31  1  0  0  0  0
  4  9  1  0  0  0  0
  5  4  1  0  0  0  0
  5 13  1  0  0  0  0
  6  5  2  0  0  0  0
  7  6  1  0  0  0  0
  8  6  1  0  0  0  0
  8  2  2  0  0  0  0
 10  8  1  0  0  0  0
 11 12  1  0  0  0  0
 12 13  2  0  0  0  0
 12 17  1  0  0  0  0
 13 14  1  0  0  0  0
 14 18  1  0  0  0  0
 14 15  2  0  0  0  0
 15 19  1  0  0  0  0
 16 15  1  0  0  0  0
 16 20  1  0  0  0  0
 17 16  2  0  0  0  0
 21 17  1  0  0  0  0
 21 22  2  0  0  0  0
 22 23  1  0  0  0  0
 24 25  1  0  0  0  0
 24 22  1  0  0  0  0
 26 28  2  0  0  0  0
 26 24  1  0  0  0  0
 27 26  1  0  0  0  0
 28 21  1  0  0  0  0
 29 35  1  0  0  0  0
 30 36  1  0  0  0  0
 30 29  2  0  0  0  0
 31 30  1  0  0  0  0
 32 31  2  0  0  0  0
 32 33  1  0  0  0  0
 33 34  2  0  0  0  0
 34 29  1  0  0  0  0
 37 33  1  0  0  0  0
M  END
>  <minimizedAffinity>
-5.56639481

$$$$

 OpenBabel03262523493D

 37 40  0  0  0  0  0  0  0  0999 V2000
   39.6210   21.7160   33.2020 Cl  0  0  0  0  0  0  0  0  0  0  0  0
   38.8860   23.2880   32.9480 C   0  0  0  0  0  0  0  0  0  0  0  0
   37.5560   23.3930   32.5890 C   0  0  0  0  0  0  0  0  0  0  0  0
   37.0470   24.6550   32.4060 C   0  0  0  0  0  0  0  0  0  0  0  0
   37.7980   25.7880   32.5660 C   0  0  0  0  0  0  0  0  0  0  0  0
   39.1440   25.6460   32.9310 C   0  0  0  0  0  0  0  0  0  0  0  0
   40.0640   27.1110   33.1230 Cl  0  0  0  0  0  0  0  0  0  0  0  0
   39.6950   24.3990   33.1230 C   0  0  0  0  0  0  0  0  0  0  0  0
   36.0020   24.6860   32.1260 H   0  0  0  0  0  0  0  0  0  0  0  0
   40.7310   24.3390   33.4030 H   0  0  0  0  0  0  0  0  0  0  0  0
   36.6170   27.2440   34.9550 Cl  0  0  0  0  0  0  0  0  0  0  0  0
   36.5360   27.8630   33.2890 C   0  0  0  0  0  0  0  0  0  0  0  0
   37.1270   27.0650   32.3400 C   0  0  0  0  0  0  0  0  0  0  0  0
   37.1130   27.4650   31.0120 C   0  0  0  0  0  0  0  0  0  0  0  0
   36.5080   28.6660   30.6360 C   0  0  0  0  0  0  0  0  0  0  0  0
   35.9320   29.4290   31.6210 C   0  0  0  0  0  0  0  0  0  0  0  0
   35.9320   29.0470   32.9640 C   0  0  0  0  0  0  0  0  0  0  0  0
   37.5530   26.8960   30.2130 H   0  0  0  0  0  0  0  0  0  0  0  0
   36.4810   29.0070   29.6050 H   0  0  0  0  0  0  0  0  0  0  0  0
   35.4380   30.3800   31.4080 H   0  0  0  0  0  0  0  0  0  0  0  0
   35.3270   29.8380   34.0290 C   0  0  0  0  0  0  0  0  0  0  0  0
   33.9720   29.7270   34.3540 C   0  0  0  0  0  0  0  0  0  0  0  0
   33.1700   29.1270   33.9620 H   0  0  0  0  0  0  0  0  0  0  0  0
   33.8180   30.6140   35.3750 N   0  0  0  0  0  0  0  0  0  0  0  0
   32.8920   30.7810   35.8620 H   0  0  0  0  0  0  0  0  0  0  0  0
   34.9920   31.2300   35.6610 C   0  0  0  0  0  0  0  0  0  0  0  0
   35.1130   31.9740   36.4360 H   0  0  0  0  0  0  0  0  0  0  0  0
   35.9250   30.7440   34.8240 N   0  0  0  0  0  0  0  0  0  0  0  0
   35.9040   20.3520   31.0640 C   0  0  0  0  0  0  0  0  0  0  0  0
   36.6300   21.5530   31.1730 C   0  0  0  0  0  0  0  0  0  0  0  0
   36.8020   22.1360   32.4330 C   0  0  0  0  0  0  0  0  0  0  0  0
   36.2540   21.5130   33.5130 N   0  0  0  0  0  0  0  0  0  0  0  0
   35.5610   20.3560   33.3490 C   0  0  0  0  0  0  0  0  0  0  0  0
   35.3890   19.7870   32.1550 N   0  0  0  0  0  0  0  0  0  0  0  0
   35.8030   19.9480   30.0660 H   0  0  0  0  0  0  0  0  0  0  0  0
   37.0700   22.0550   30.3230 H   0  0  0  0  0  0  0  0  0  0  0  0
   35.1550   19.9180   34.2520 H   0  0  0  0  0  0  0  0  0  0  0  0
  2  8  1  0  0  0  0
  2  1  1  0  0  0  0
  3  2  2  0  0  0  0
  4  5  2  0  0  0  0
  4  3  1  0  0  0  0
  5  6  1  0  0  0  0
  6  7  1  0  0  0  0
  6  8  2  0  0  0  0
  8 10  1  0  0  0  0
  9  4  1  0  0  0  0
 12 11  1  0  0  0  0
 13  5  1  0  0  0  0
 13 12  2  0  0  0  0
 14 13  1  0  0  0  0
 15 14  2  0  0  0  0
 15 16  1  0  0  0  0
 16 17  2  0  0  0  0
 17 12  1  0  0  0  0
 17 21  1  0  0  0  0
 18 14  1  0  0  0  0
 19 15  1  0  0  0  0
 20 16  1  0  0  0  0
 21 22  2  0  0  0  0
 21 28  1  0  0  0  0
 22 24  1  0  0  0  0
 23 22  1  0  0  0  0
 24 26  1  0  0  0  0
 24 25  1  0  0  0  0
 26 27  1  0  0  0  0
 28 26  2  0  0  0  0
 29 30  2  0  0  0  0
 29 34  1  0  0  0  0
 30 31  1  0  0  0  0
 31  3  1  0  0  0  0
 31 32  2  0  0  0  0
 33 32  1  0  0  0  0
 33 37  1  0  0  0  0
 34 33  2  0  0  0  0
 35 29  1  0  0  0  0
 36 30  1  0  0  0  0
M  END
>  <minimizedAffinity>
-5.50782394

$$$$

 OpenBabel03262523493D

 37 40  0  0  0  0  0  0  0  0999 V2000
   38.3490   21.7900   34.6430 Cl  0  0  0  0  0  0  0  0  0  0  0  0
   38.0800   23.3620   33.9150 C   0  0  0  0  0  0  0  0  0  0  0  0
   37.3580   23.4800   32.7430 C   0  0  0  0  0  0  0  0  0  0  0  0
   37.1860   24.7420   32.2290 C   0  0  0  0  0  0  0  0  0  0  0  0
   37.6950   25.8620   32.8280 C   0  0  0  0  0  0  0  0  0  0  0  0
   38.4230   25.7070   34.0160 C   0  0  0  0  0  0  0  0  0  0  0  0
   39.0540   27.1560   34.7460 Cl  0  0  0  0  0  0  0  0  0  0  0  0
   38.6190   24.4590   34.5650 C   0  0  0  0  0  0  0  0  0  0  0  0
   36.6150   24.7840   31.3110 H   0  0  0  0  0  0  0  0  0  0  0  0
   39.1830   24.3900   35.4780 H   0  0  0  0  0  0  0  0  0  0  0  0
   39.3750   26.6140   30.4120 Cl  0  0  0  0  0  0  0  0  0  0  0  0
   38.0880   27.6500   31.0740 C   0  0  0  0  0  0  0  0  0  0  0  0
   37.4360   27.1410   32.1710 C   0  0  0  0  0  0  0  0  0  0  0  0
   36.4170   27.8770   32.7580 C   0  0  0  0  0  0  0  0  0  0  0  0
   36.0530   29.1230   32.2440 C   0  0  0  0  0  0  0  0  0  0  0  0
   36.7330   29.5880   31.1460 C   0  0  0  0  0  0  0  0  0  0  0  0
   37.7630   28.8650   30.5390 C   0  0  0  0  0  0  0  0  0  0  0  0
   35.8620   27.5480   33.6170 H   0  0  0  0  0  0  0  0  0  0  0  0
   35.2590   29.7230   32.6800 H   0  0  0  0  0  0  0  0  0  0  0  0
   36.5080   30.5520   30.6860 H   0  0  0  0  0  0  0  0  0  0  0  0
   38.5010   29.3360   29.3730 C   0  0  0  0  0  0  0  0  0  0  0  0
   37.9670   29.2670   28.0830 C   0  0  0  0  0  0  0  0  0  0  0  0
   37.0310   28.9090   27.6950 H   0  0  0  0  0  0  0  0  0  0  0  0
   38.9510   29.7950   27.3050 N   0  0  0  0  0  0  0  0  0  0  0  0
   38.8690   29.8930   26.2530 H   0  0  0  0  0  0  0  0  0  0  0  0
   40.0180   30.1640   28.0590 C   0  0  0  0  0  0  0  0  0  0  0  0
   40.9180   30.6080   27.6580 H   0  0  0  0  0  0  0  0  0  0  0  0
   39.7320   29.8760   29.3410 N   0  0  0  0  0  0  0  0  0  0  0  0
   35.0670   20.6140   31.8270 C   0  0  0  0  0  0  0  0  0  0  0  0
   35.5300   21.8060   32.4130 C   0  0  0  0  0  0  0  0  0  0  0  0
   36.8360   22.2370   32.1480 C   0  0  0  0  0  0  0  0  0  0  0  0
   37.6110   21.4760   31.3270 N   0  0  0  0  0  0  0  0  0  0  0  0
   37.1120   20.3330   30.7900 C   0  0  0  0  0  0  0  0  0  0  0  0
   35.8710   19.9100   31.0320 N   0  0  0  0  0  0  0  0  0  0  0  0
   34.0510   20.3310   32.0680 H   0  0  0  0  0  0  0  0  0  0  0  0
   34.9230   22.4180   33.0660 H   0  0  0  0  0  0  0  0  0  0  0  0
   37.7860   19.7810   30.1470 H   0  0  0  0  0  0  0  0  0  0  0  0
  2  8  1  0  0  0  0
  2  1  1  0  0  0  0
  3  2  2  0  0  0  0
  4  3  1  0  0  0  0
  4  5  2  0  0  0  0
  5  6  1  0  0  0  0
  6  8  2  0  0  0  0
  6  7  1  0  0  0  0
  8 10  1  0  0  0  0
  9  4  1  0  0  0  0
 11 12  1  0  0  0  0
 12 13  1  0  0  0  0
 13 14  2  0  0  0  0
 13  5  1  0  0  0  0
 14 18  1  0  0  0  0
 15 19  1  0  0  0  0
 15 14  1  0  0  0  0
 16 15  2  0  0  0  0
 17 12  2  0  0  0  0
 17 16  1  0  0  0  0
 20 16  1  0  0  0  0
 21 17  1  0  0  0  0
 22 21  2  0  0  0  0
 23 22  1  0  0  0  0
 24 26  1  0  0  0  0
 24 22  1  0  0  0  0
 25 24  1  0  0  0  0
 26 28  2  0  0  0  0
 27 26  1  0  0  0  0
 28 21  1  0  0  0  0
 29 35  1  0  0  0  0
 29 30  1  0  0  0  0
 30 36  1  0  0  0  0
 31 30  2  0  0  0  0
 31  3  1  0  0  0  0
 32 31  1  0  0  0  0
 33 34  1  0  0  0  0
 33 32  2  0  0  0  0
 34 29  2  0  0  0  0
 37 33  1  0  0  0  0
M  END
>  <minimizedAffinity>
-5.41408205

$$$$
