
 OpenBabel03272510053D

 36 38  0  0  0  0  0  0  0  0999 V2000
   36.9180   22.9350   32.5290 C   0  0  0  0  0  0  0  0  0  0  0  0
   37.2100   22.0120   33.4810 C   0  0  0  0  0  0  0  0  0  0  0  0
   36.5270   20.8000   33.4970 C   0  0  0  0  0  0  0  0  0  0  0  0
   35.5470   20.4860   32.5750 C   0  0  0  0  0  0  0  0  0  0  0  0
   35.2280   21.3930   31.6080 C   0  0  0  0  0  0  0  0  0  0  0  0
   35.9180   22.5830   31.6140 C   0  0  0  0  0  0  0  0  0  0  0  0
   36.7880   20.0700   34.2780 H   0  0  0  0  0  0  0  0  0  0  0  0
   35.0890   19.5190   32.6830 H   0  0  0  0  0  0  0  0  0  0  0  0
   34.4570   21.1130   30.9090 H   0  0  0  0  0  0  0  0  0  0  0  0
   35.5670   23.2240   30.7950 H   0  0  0  0  0  0  0  0  0  0  0  0
   40.4570   22.2120   35.1870 C   0  0  0  0  0  0  0  0  0  0  0  0
   39.4830   22.0020   34.2230 C   0  0  0  0  0  0  0  0  0  0  0  0
   38.1800   22.2600   34.4930 C   0  0  0  0  0  0  0  0  0  0  0  0
   37.8870   22.7330   35.7380 N   0  0  0  0  0  0  0  0  0  0  0  0
   38.8190   22.9420   36.6710 C   0  0  0  0  0  0  0  0  0  0  0  0
   40.0980   22.6780   36.3890 N   0  0  0  0  0  0  0  0  0  0  0  0
   41.5210   22.0600   35.1410 H   0  0  0  0  0  0  0  0  0  0  0  0
   40.0320   21.6760   33.3720 H   0  0  0  0  0  0  0  0  0  0  0  0
   38.3680   23.5320   37.9590 C   0  0  0  0  0  0  0  0  0  0  0  0
   39.3770   23.5660   38.8990 F   0  0  0  0  0  0  0  0  0  0  0  0
   38.0900   24.9370   37.7500 F   0  0  0  0  0  0  0  0  0  0  0  0
   37.2450   23.0750   38.4670 F   0  0  0  0  0  0  0  0  0  0  0  0
   37.7090   24.4430   32.3820 S   0  0  0  0  0  0  0  0  0  0  0  0
   37.0160   25.3360   31.4200 O   0  0  0  0  0  0  0  0  0  0  0  0
   38.8320   24.0280   31.4540 O   0  0  0  0  0  0  0  0  0  0  0  0
   38.9190   25.1140   33.3690 C   0  0  0  0  0  0  0  0  0  0  0  0
   39.1890   24.2500   34.0990 H   0  0  0  0  0  0  0  0  0  0  0  0
   39.9010   25.2130   32.8710 H   0  0  0  0  0  0  0  0  0  0  0  0
   38.5320   26.1530   34.2990 C   0  0  0  0  0  0  0  0  0  0  0  0
   39.4900   26.5920   35.2200 C   0  0  0  0  0  0  0  0  0  0  0  0
   40.5120   26.3130   35.4000 H   0  0  0  0  0  0  0  0  0  0  0  0
   38.9100   27.5620   35.9860 N   0  0  0  0  0  0  0  0  0  0  0  0
   39.3570   28.1030   36.7750 H   0  0  0  0  0  0  0  0  0  0  0  0
   37.6620   27.6820   35.5300 C   0  0  0  0  0  0  0  0  0  0  0  0
   36.8750   28.3420   35.8670 H   0  0  0  0  0  0  0  0  0  0  0  0
   37.4060   26.8490   34.5170 N   0  0  0  0  0  0  0  0  0  0  0  0
  1  2  1  0  0  0  0
  2  3  2  0  0  0  0
  2 13  1  0  0  0  0
  3  7  1  0  0  0  0
  4  8  1  0  0  0  0
  4  3  1  0  0  0  0
  5  6  1  0  0  0  0
  5  4  2  0  0  0  0
  6  1  2  0  0  0  0
  9  5  1  0  0  0  0
 10  6  1  0  0  0  0
 11 16  1  0  0  0  0
 12 13  1  0  0  0  0
 12 11  2  0  0  0  0
 13 14  2  0  0  0  0
 14 15  1  0  0  0  0
 15 19  1  0  0  0  0
 16 15  2  0  0  0  0
 17 11  1  0  0  0  0
 18 12  1  0  0  0  0
 19 22  1  0  0  0  0
 19 20  1  0  0  0  0
 21 19  1  0  0  0  0
 23  1  1  0  0  0  0
 23 26  1  0  0  0  0
 24 23  2  0  0  0  0
 25 23  2  0  0  0  0
 26 27  1  0  0  0  0
 26 29  1  0  0  0  0
 28 26  1  0  0  0  0
 29 36  1  0  0  0  0
 29 30  2  0  0  0  0
 30 31  1  0  0  0  0
 30 32  1  0  0  0  0
 32 33  1  0  0  0  0
 34 35  1  0  0  0  0
 34 32  1  0  0  0  0
 36 34  2  0  0  0  0
M  END
>  <minimizedAffinity>
-6.05139589

$$$$

 OpenBabel03272510053D

 36 38  0  0  0  0  0  0  0  0999 V2000
   39.0580   26.2330   34.1950 C   0  0  0  0  0  0  0  0  0  0  0  0
   38.9790   25.9230   32.8740 C   0  0  0  0  0  0  0  0  0  0  0  0
   40.0800   26.1400   32.0500 C   0  0  0  0  0  0  0  0  0  0  0  0
   41.2680   26.6640   32.5180 C   0  0  0  0  0  0  0  0  0  0  0  0
   41.3790   26.9880   33.8390 C   0  0  0  0  0  0  0  0  0  0  0  0
   40.2770   26.7650   34.6320 C   0  0  0  0  0  0  0  0  0  0  0  0
   39.9870   25.8770   30.9860 H   0  0  0  0  0  0  0  0  0  0  0  0
   42.0510   26.7850   31.7910 H   0  0  0  0  0  0  0  0  0  0  0  0
   42.3210   27.3970   34.1660 H   0  0  0  0  0  0  0  0  0  0  0  0
   40.4910   27.0680   35.6650 H   0  0  0  0  0  0  0  0  0  0  0  0
   35.7650   25.8130   31.1010 C   0  0  0  0  0  0  0  0  0  0  0  0
   36.9470   26.2680   31.6620 C   0  0  0  0  0  0  0  0  0  0  0  0
   37.7850   25.4100   32.2940 C   0  0  0  0  0  0  0  0  0  0  0  0
   37.4110   24.1000   32.3400 N   0  0  0  0  0  0  0  0  0  0  0  0
   36.2750   23.6510   31.7980 C   0  0  0  0  0  0  0  0  0  0  0  0
   35.4590   24.5120   31.1840 N   0  0  0  0  0  0  0  0  0  0  0  0
   34.9960   26.3500   30.5740 H   0  0  0  0  0  0  0  0  0  0  0  0
   36.9600   27.3060   31.4250 H   0  0  0  0  0  0  0  0  0  0  0  0
   36.0290   22.1870   31.8560 C   0  0  0  0  0  0  0  0  0  0  0  0
   36.9200   21.5400   32.6860 F   0  0  0  0  0  0  0  0  0  0  0  0
   34.7630   21.9590   32.5200 F   0  0  0  0  0  0  0  0  0  0  0  0
   35.8870   21.5560   30.7110 F   0  0  0  0  0  0  0  0  0  0  0  0
   37.7910   25.9810   35.3140 S   0  0  0  0  0  0  0  0  0  0  0  0
   36.6970   26.9690   35.1370 O   0  0  0  0  0  0  0  0  0  0  0  0
   38.4190   26.6340   36.5270 O   0  0  0  0  0  0  0  0  0  0  0  0
   37.5050   24.6400   36.3180 C   0  0  0  0  0  0  0  0  0  0  0  0
   37.1860   25.1160   37.3290 H   0  0  0  0  0  0  0  0  0  0  0  0
   36.5660   24.1020   36.0930 H   0  0  0  0  0  0  0  0  0  0  0  0
   38.6460   23.8510   36.7310 C   0  0  0  0  0  0  0  0  0  0  0  0
   38.6570   23.3580   38.0400 C   0  0  0  0  0  0  0  0  0  0  0  0
   37.9630   23.4390   38.8580 H   0  0  0  0  0  0  0  0  0  0  0  0
   39.8140   22.6530   38.2050 N   0  0  0  0  0  0  0  0  0  0  0  0
   40.1350   22.1500   39.0760 H   0  0  0  0  0  0  0  0  0  0  0  0
   40.4530   22.7330   37.0370 C   0  0  0  0  0  0  0  0  0  0  0  0
   41.4060   22.3090   36.7520 H   0  0  0  0  0  0  0  0  0  0  0  0
   39.7760   23.4460   36.1330 N   0  0  0  0  0  0  0  0  0  0  0  0
  1  6  1  0  0  0  0
  1 23  1  0  0  0  0
  2  1  2  0  0  0  0
  3  4  2  0  0  0  0
  3  2  1  0  0  0  0
  4  5  1  0  0  0  0
  5  9  1  0  0  0  0
  5  6  2  0  0  0  0
  6 10  1  0  0  0  0
  7  3  1  0  0  0  0
  8  4  1  0  0  0  0
 11 16  2  0  0  0  0
 11 12  1  0  0  0  0
 12 13  2  0  0  0  0
 13 14  1  0  0  0  0
 13  2  1  0  0  0  0
 15 19  1  0  0  0  0
 15 14  2  0  0  0  0
 16 15  1  0  0  0  0
 17 11  1  0  0  0  0
 18 12  1  0  0  0  0
 19 21  1  0  0  0  0
 19 20  1  0  0  0  0
 22 19  1  0  0  0  0
 23 26  1  0  0  0  0
 23 25  2  0  0  0  0
 24 23  2  0  0  0  0
 26 29  1  0  0  0  0
 26 27  1  0  0  0  0
 28 26  1  0  0  0  0
 29 30  2  0  0  0  0
 30 32  1  0  0  0  0
 30 31  1  0  0  0  0
 32 33  1  0  0  0  0
 34 32  1  0  0  0  0
 35 34  1  0  0  0  0
 36 29  1  0  0  0  0
 36 34  2  0  0  0  0
M  END
>  <minimizedAffinity>
-6.0285368

$$$$

 OpenBabel03272510053D

 36 38  0  0  0  0  0  0  0  0999 V2000
   37.3690   25.5890   33.2890 C   0  0  0  0  0  0  0  0  0  0  0  0
   36.9150   24.9320   32.1900 C   0  0  0  0  0  0  0  0  0  0  0  0
   36.2370   25.6350   31.2000 C   0  0  0  0  0  0  0  0  0  0  0  0
   35.9960   26.9920   31.2830 C   0  0  0  0  0  0  0  0  0  0  0  0
   36.4350   27.6810   32.3750 C   0  0  0  0  0  0  0  0  0  0  0  0
   37.1030   26.9630   33.3390 C   0  0  0  0  0  0  0  0  0  0  0  0
   35.8840   25.0750   30.3200 H   0  0  0  0  0  0  0  0  0  0  0  0
   35.4640   27.4290   30.4570 H   0  0  0  0  0  0  0  0  0  0  0  0
   36.2260   28.7370   32.4040 H   0  0  0  0  0  0  0  0  0  0  0  0
   37.3990   27.6260   34.1630 H   0  0  0  0  0  0  0  0  0  0  0  0
   38.3370   21.7170   31.1250 C   0  0  0  0  0  0  0  0  0  0  0  0
   38.1450   23.0760   31.3180 C   0  0  0  0  0  0  0  0  0  0  0  0
   37.0860   23.5270   32.0330 C   0  0  0  0  0  0  0  0  0  0  0  0
   36.2410   22.5890   32.5490 N   0  0  0  0  0  0  0  0  0  0  0  0
   36.4210   21.2770   32.3720 C   0  0  0  0  0  0  0  0  0  0  0  0
   37.4670   20.8510   31.6590 N   0  0  0  0  0  0  0  0  0  0  0  0
   39.1110   21.1960   30.5900 H   0  0  0  0  0  0  0  0  0  0  0  0
   38.9800   23.5240   30.8330 H   0  0  0  0  0  0  0  0  0  0  0  0
   35.4660   20.3650   33.0520 C   0  0  0  0  0  0  0  0  0  0  0  0
   34.2530   20.2950   32.3980 F   0  0  0  0  0  0  0  0  0  0  0  0
   35.9600   19.0090   32.9350 F   0  0  0  0  0  0  0  0  0  0  0  0
   35.3090   20.5180   34.3490 F   0  0  0  0  0  0  0  0  0  0  0  0
   38.2450   24.8470   34.5550 S   0  0  0  0  0  0  0  0  0  0  0  0
   38.6380   25.8260   35.6000 O   0  0  0  0  0  0  0  0  0  0  0  0
   39.5990   24.7610   33.8820 O   0  0  0  0  0  0  0  0  0  0  0  0
   38.4310   23.1930   34.8980 C   0  0  0  0  0  0  0  0  0  0  0  0
   37.3770   22.8660   35.2620 H   0  0  0  0  0  0  0  0  0  0  0  0
   38.4940   22.5520   33.9990 H   0  0  0  0  0  0  0  0  0  0  0  0
   39.2440   22.8270   36.0380 C   0  0  0  0  0  0  0  0  0  0  0  0
   38.6900   22.9920   37.3120 C   0  0  0  0  0  0  0  0  0  0  0  0
   37.7360   23.3520   37.6530 H   0  0  0  0  0  0  0  0  0  0  0  0
   39.6240   22.5900   38.2230 N   0  0  0  0  0  0  0  0  0  0  0  0
   39.5280   22.5850   39.2740 H   0  0  0  0  0  0  0  0  0  0  0  0
   40.6810   22.2050   37.5070 C   0  0  0  0  0  0  0  0  0  0  0  0
   41.6320   21.8190   37.8490 H   0  0  0  0  0  0  0  0  0  0  0  0
   40.4830   22.3360   36.1920 N   0  0  0  0  0  0  0  0  0  0  0  0
  1  6  1  0  0  0  0
  1 23  1  0  0  0  0
  2  1  2  0  0  0  0
  3  4  2  0  0  0  0
  3  2  1  0  0  0  0
  4  5  1  0  0  0  0
  5  9  1  0  0  0  0
  5  6  2  0  0  0  0
  6 10  1  0  0  0  0
  7  3  1  0  0  0  0
  8  4  1  0  0  0  0
 11 12  2  0  0  0  0
 11 16  1  0  0  0  0
 12 13  1  0  0  0  0
 13  2  1  0  0  0  0
 13 14  2  0  0  0  0
 15 14  1  0  0  0  0
 15 19  1  0  0  0  0
 16 15  2  0  0  0  0
 17 11  1  0  0  0  0
 18 12  1  0  0  0  0
 19 22  1  0  0  0  0
 20 19  1  0  0  0  0
 21 19  1  0  0  0  0
 23 26  1  0  0  0  0
 23 24  2  0  0  0  0
 25 23  2  0  0  0  0
 26 27  1  0  0  0  0
 26 29  1  0  0  0  0
 28 26  1  0  0  0  0
 29 36  1  0  0  0  0
 29 30  2  0  0  0  0
 30 31  1  0  0  0  0
 30 32  1  0  0  0  0
 32 33  1  0  0  0  0
 34 35  1  0  0  0  0
 34 32  1  0  0  0  0
 36 34  2  0  0  0  0
M  END
>  <minimizedAffinity>
-5.90567255

$$$$

 OpenBabel03272510053D

 36 38  0  0  0  0  0  0  0  0999 V2000
   36.7480   25.5990   32.3080 C   0  0  0  0  0  0  0  0  0  0  0  0
   37.3340   26.1120   33.4220 C   0  0  0  0  0  0  0  0  0  0  0  0
   37.1260   27.4470   33.7550 C   0  0  0  0  0  0  0  0  0  0  0  0
   36.3410   28.2900   32.9940 C   0  0  0  0  0  0  0  0  0  0  0  0
   35.7420   27.8070   31.8680 C   0  0  0  0  0  0  0  0  0  0  0  0
   35.9620   26.4840   31.5610 C   0  0  0  0  0  0  0  0  0  0  0  0
   37.6120   27.8330   34.6640 H   0  0  0  0  0  0  0  0  0  0  0  0
   36.2510   29.3010   33.3490 H   0  0  0  0  0  0  0  0  0  0  0  0
   35.1390   28.4960   31.2990 H   0  0  0  0  0  0  0  0  0  0  0  0
   35.4320   26.2200   30.6370 H   0  0  0  0  0  0  0  0  0  0  0  0
   40.2660   24.2070   34.5460 C   0  0  0  0  0  0  0  0  0  0  0  0
   39.4120   24.9850   33.7800 C   0  0  0  0  0  0  0  0  0  0  0  0
   38.1870   25.3280   34.2490 C   0  0  0  0  0  0  0  0  0  0  0  0
   37.8510   24.8810   35.4920 N   0  0  0  0  0  0  0  0  0  0  0  0
   38.6700   24.1350   36.2390 C   0  0  0  0  0  0  0  0  0  0  0  0
   39.8710   23.8010   35.7590 N   0  0  0  0  0  0  0  0  0  0  0  0
   41.2560   23.8460   34.3290 H   0  0  0  0  0  0  0  0  0  0  0  0
   39.9750   25.1940   32.9020 H   0  0  0  0  0  0  0  0  0  0  0  0
   38.2050   23.7800   37.6050 C   0  0  0  0  0  0  0  0  0  0  0  0
   37.1850   22.8520   37.5860 F   0  0  0  0  0  0  0  0  0  0  0  0
   39.2660   23.0610   38.2800 F   0  0  0  0  0  0  0  0  0  0  0  0
   37.9430   24.7720   38.4270 F   0  0  0  0  0  0  0  0  0  0  0  0
   36.8960   23.9690   31.8130 S   0  0  0  0  0  0  0  0  0  0  0  0
   37.6390   23.8500   30.5330 O   0  0  0  0  0  0  0  0  0  0  0  0
   35.5130   23.7770   31.2280 O   0  0  0  0  0  0  0  0  0  0  0  0
   36.5990   22.5520   32.7020 C   0  0  0  0  0  0  0  0  0  0  0  0
   37.6320   22.3000   33.1720 H   0  0  0  0  0  0  0  0  0  0  0  0
   36.0360   22.7190   33.6390 H   0  0  0  0  0  0  0  0  0  0  0  0
   36.3260   21.3370   31.9640 C   0  0  0  0  0  0  0  0  0  0  0  0
   35.1930   20.5990   32.3220 C   0  0  0  0  0  0  0  0  0  0  0  0
   34.4330   20.7430   33.0690 H   0  0  0  0  0  0  0  0  0  0  0  0
   35.1360   19.5090   31.5030 N   0  0  0  0  0  0  0  0  0  0  0  0
   34.4050   18.7470   31.5060 H   0  0  0  0  0  0  0  0  0  0  0  0
   36.1960   19.6080   30.6990 C   0  0  0  0  0  0  0  0  0  0  0  0
   36.5140   18.9440   29.9070 H   0  0  0  0  0  0  0  0  0  0  0  0
   36.9290   20.6950   30.9530 N   0  0  0  0  0  0  0  0  0  0  0  0
  1  2  1  0  0  0  0
  2  3  2  0  0  0  0
  2 13  1  0  0  0  0
  3  7  1  0  0  0  0
  4  8  1  0  0  0  0
  4  3  1  0  0  0  0
  5  4  2  0  0  0  0
  6  5  1  0  0  0  0
  6  1  2  0  0  0  0
  9  5  1  0  0  0  0
 10  6  1  0  0  0  0
 11 16  1  0  0  0  0
 12 13  1  0  0  0  0
 12 11  2  0  0  0  0
 13 14  2  0  0  0  0
 14 15  1  0  0  0  0
 15 19  1  0  0  0  0
 16 15  2  0  0  0  0
 17 11  1  0  0  0  0
 18 12  1  0  0  0  0
 19 21  1  0  0  0  0
 19 22  1  0  0  0  0
 20 19  1  0  0  0  0
 23  1  1  0  0  0  0
 23 26  1  0  0  0  0
 24 23  2  0  0  0  0
 25 23  2  0  0  0  0
 26 27  1  0  0  0  0
 26 28  1  0  0  0  0
 29 30  2  0  0  0  0
 29 26  1  0  0  0  0
 30 31  1  0  0  0  0
 32 33  1  0  0  0  0
 32 30  1  0  0  0  0
 34 36  2  0  0  0  0
 34 32  1  0  0  0  0
 35 34  1  0  0  0  0
 36 29  1  0  0  0  0
M  END
>  <minimizedAffinity>
-5.8623805

$$$$

 OpenBabel03272510053D

 36 38  0  0  0  0  0  0  0  0999 V2000
   38.3700   24.8490   35.9360 C   0  0  0  0  0  0  0  0  0  0  0  0
   38.4080   24.6610   34.5910 C   0  0  0  0  0  0  0  0  0  0  0  0
   38.4340   25.7630   33.7430 C   0  0  0  0  0  0  0  0  0  0  0  0
   38.4220   27.0630   34.2100 C   0  0  0  0  0  0  0  0  0  0  0  0
   38.3820   27.2860   35.5550 C   0  0  0  0  0  0  0  0  0  0  0  0
   38.3570   26.1800   36.3720 C   0  0  0  0  0  0  0  0  0  0  0  0
   38.4670   25.5790   32.6580 H   0  0  0  0  0  0  0  0  0  0  0  0
   38.4480   27.8350   33.4620 H   0  0  0  0  0  0  0  0  0  0  0  0
   38.3720   28.3130   35.8810 H   0  0  0  0  0  0  0  0  0  0  0  0
   38.3210   26.4910   37.4240 H   0  0  0  0  0  0  0  0  0  0  0  0
   39.5720   21.5710   32.9830 C   0  0  0  0  0  0  0  0  0  0  0  0
   39.5510   22.8270   33.5670 C   0  0  0  0  0  0  0  0  0  0  0  0
   38.3880   23.3590   34.0150 C   0  0  0  0  0  0  0  0  0  0  0  0
   37.2630   22.6020   33.8690 N   0  0  0  0  0  0  0  0  0  0  0  0
   37.2750   21.3880   33.3120 C   0  0  0  0  0  0  0  0  0  0  0  0
   38.4300   20.8820   32.8710 N   0  0  0  0  0  0  0  0  0  0  0  0
   40.3950   21.0090   32.5770 H   0  0  0  0  0  0  0  0  0  0  0  0
   40.5720   23.1280   33.5650 H   0  0  0  0  0  0  0  0  0  0  0  0
   35.9900   20.6420   33.2850 C   0  0  0  0  0  0  0  0  0  0  0  0
   36.1360   19.3660   32.7810 F   0  0  0  0  0  0  0  0  0  0  0  0
   35.5730   20.3920   34.6490 F   0  0  0  0  0  0  0  0  0  0  0  0
   34.9520   21.2550   32.7600 F   0  0  0  0  0  0  0  0  0  0  0  0
   38.3710   23.5800   37.0810 S   0  0  0  0  0  0  0  0  0  0  0  0
   37.0710   22.8630   37.1070 O   0  0  0  0  0  0  0  0  0  0  0  0
   38.1420   24.3980   38.3350 O   0  0  0  0  0  0  0  0  0  0  0  0
   39.6860   22.8850   37.9030 C   0  0  0  0  0  0  0  0  0  0  0  0
   40.0310   23.7240   38.6290 H   0  0  0  0  0  0  0  0  0  0  0  0
   39.3970   22.1310   38.6580 H   0  0  0  0  0  0  0  0  0  0  0  0
   40.9020   22.6500   37.1540 C   0  0  0  0  0  0  0  0  0  0  0  0
   41.5050   21.3930   37.2690 C   0  0  0  0  0  0  0  0  0  0  0  0
   41.2490   20.5080   37.8240 H   0  0  0  0  0  0  0  0  0  0  0  0
   42.6220   21.3980   36.4860 N   0  0  0  0  0  0  0  0  0  0  0  0
   43.3060   20.6070   36.3460 H   0  0  0  0  0  0  0  0  0  0  0  0
   42.6700   22.6130   35.9360 C   0  0  0  0  0  0  0  0  0  0  0  0
   43.4000   23.0220   35.2510 H   0  0  0  0  0  0  0  0  0  0  0  0
   41.6500   23.3870   36.3180 N   0  0  0  0  0  0  0  0  0  0  0  0
  1  6  1  0  0  0  0
  1 23  1  0  0  0  0
  2  1  2  0  0  0  0
  3  4  2  0  0  0  0
  3  2  1  0  0  0  0
  4  5  1  0  0  0  0
  5  9  1  0  0  0  0
  5  6  2  0  0  0  0
  6 10  1  0  0  0  0
  7  3  1  0  0  0  0
  8  4  1  0  0  0  0
 11 12  1  0  0  0  0
 12 13  2  0  0  0  0
 13  2  1  0  0  0  0
 14 13  1  0  0  0  0
 15 14  2  0  0  0  0
 16 11  2  0  0  0  0
 16 15  1  0  0  0  0
 17 11  1  0  0  0  0
 18 12  1  0  0  0  0
 19 15  1  0  0  0  0
 19 21  1  0  0  0  0
 20 19  1  0  0  0  0
 22 19  1  0  0  0  0
 23 24  2  0  0  0  0
 23 26  1  0  0  0  0
 23 25  2  0  0  0  0
 26 27  1  0  0  0  0
 26 28  1  0  0  0  0
 29 30  2  0  0  0  0
 29 26  1  0  0  0  0
 30 31  1  0  0  0  0
 32 30  1  0  0  0  0
 33 32  1  0  0  0  0
 34 36  2  0  0  0  0
 34 32  1  0  0  0  0
 35 34  1  0  0  0  0
 36 29  1  0  0  0  0
M  END
>  <minimizedAffinity>
-5.75128222

$$$$

 OpenBabel03272510053D

 36 38  0  0  0  0  0  0  0  0999 V2000
   37.0910   24.6370   32.7140 C   0  0  0  0  0  0  0  0  0  0  0  0
   37.5550   23.4580   33.2040 C   0  0  0  0  0  0  0  0  0  0  0  0
   37.1100   22.2610   32.6520 C   0  0  0  0  0  0  0  0  0  0  0  0
   36.2020   22.2130   31.6120 C   0  0  0  0  0  0  0  0  0  0  0  0
   35.7140   23.3790   31.1000 C   0  0  0  0  0  0  0  0  0  0  0  0
   36.1700   24.5490   31.6630 C   0  0  0  0  0  0  0  0  0  0  0  0
   37.5060   21.3220   33.0680 H   0  0  0  0  0  0  0  0  0  0  0  0
   35.9320   21.2320   31.2650 H   0  0  0  0  0  0  0  0  0  0  0  0
   35.0070   23.3010   30.2920 H   0  0  0  0  0  0  0  0  0  0  0  0
   35.7030   25.4100   31.1690 H   0  0  0  0  0  0  0  0  0  0  0  0
   40.7050   23.1730   35.0710 C   0  0  0  0  0  0  0  0  0  0  0  0
   39.7870   23.2470   34.0360 C   0  0  0  0  0  0  0  0  0  0  0  0
   38.4670   23.4060   34.2960 C   0  0  0  0  0  0  0  0  0  0  0  0
   38.1000   23.4960   35.6070 N   0  0  0  0  0  0  0  0  0  0  0  0
   38.9790   23.4300   36.6110 C   0  0  0  0  0  0  0  0  0  0  0  0
   40.2760   23.2670   36.3360 N   0  0  0  0  0  0  0  0  0  0  0  0
   41.7730   23.0470   35.0420 H   0  0  0  0  0  0  0  0  0  0  0  0
   40.3860   23.1850   33.1580 H   0  0  0  0  0  0  0  0  0  0  0  0
   38.4500   23.6170   37.9870 C   0  0  0  0  0  0  0  0  0  0  0  0
   39.4280   23.4660   38.9480 F   0  0  0  0  0  0  0  0  0  0  0  0
   38.0660   25.0040   38.1490 F   0  0  0  0  0  0  0  0  0  0  0  0
   37.3540   22.9620   38.3030 F   0  0  0  0  0  0  0  0  0  0  0  0
   37.5870   26.1710   33.2820 S   0  0  0  0  0  0  0  0  0  0  0  0
   36.9500   26.5090   34.5790 O   0  0  0  0  0  0  0  0  0  0  0  0
   36.6940   27.0380   32.4200 O   0  0  0  0  0  0  0  0  0  0  0  0
   38.8710   27.1450   32.7420 C   0  0  0  0  0  0  0  0  0  0  0  0
   38.9900   26.8500   31.6240 H   0  0  0  0  0  0  0  0  0  0  0  0
   38.6000   28.2070   32.5980 H   0  0  0  0  0  0  0  0  0  0  0  0
   40.1960   26.8540   33.2470 C   0  0  0  0  0  0  0  0  0  0  0  0
   40.3850   26.8800   34.6330 C   0  0  0  0  0  0  0  0  0  0  0  0
   39.7230   27.0790   35.4570 H   0  0  0  0  0  0  0  0  0  0  0  0
   41.6940   26.5800   34.8770 N   0  0  0  0  0  0  0  0  0  0  0  0
   42.1680   26.5150   35.8180 H   0  0  0  0  0  0  0  0  0  0  0  0
   42.2470   26.3880   33.6790 C   0  0  0  0  0  0  0  0  0  0  0  0
   43.2690   26.1320   33.4340 H   0  0  0  0  0  0  0  0  0  0  0  0
   41.3720   26.5460   32.6810 N   0  0  0  0  0  0  0  0  0  0  0  0
  1  2  1  0  0  0  0
  1 23  1  0  0  0  0
  2 13  1  0  0  0  0
  3  7  1  0  0  0  0
  3  2  2  0  0  0  0
  4  3  1  0  0  0  0
  5  4  2  0  0  0  0
  5  6  1  0  0  0  0
  6  1  2  0  0  0  0
  8  4  1  0  0  0  0
  9  5  1  0  0  0  0
 10  6  1  0  0  0  0
 11 16  1  0  0  0  0
 12 13  1  0  0  0  0
 12 11  2  0  0  0  0
 13 14  2  0  0  0  0
 14 15  1  0  0  0  0
 15 19  1  0  0  0  0
 16 15  2  0  0  0  0
 17 11  1  0  0  0  0
 18 12  1  0  0  0  0
 19 21  1  0  0  0  0
 19 22  1  0  0  0  0
 19 20  1  0  0  0  0
 23 24  2  0  0  0  0
 25 23  2  0  0  0  0
 26 29  1  0  0  0  0
 26 23  1  0  0  0  0
 27 26  1  0  0  0  0
 28 26  1  0  0  0  0
 29 30  2  0  0  0  0
 30 32  1  0  0  0  0
 30 31  1  0  0  0  0
 32 33  1  0  0  0  0
 34 32  1  0  0  0  0
 35 34  1  0  0  0  0
 36 29  1  0  0  0  0
 36 34  2  0  0  0  0
M  END
>  <minimizedAffinity>
-5.72226

$$$$

 OpenBabel03272510053D

 36 38  0  0  0  0  0  0  0  0999 V2000
   37.0060   27.0060   33.7790 C   0  0  0  0  0  0  0  0  0  0  0  0
   36.5970   26.7310   32.5120 C   0  0  0  0  0  0  0  0  0  0  0  0
   35.7760   27.6340   31.8440 C   0  0  0  0  0  0  0  0  0  0  0  0
   35.3480   28.8160   32.4160 C   0  0  0  0  0  0  0  0  0  0  0  0
   35.7380   29.1200   33.6870 C   0  0  0  0  0  0  0  0  0  0  0  0
   36.5500   28.2110   34.3260 C   0  0  0  0  0  0  0  0  0  0  0  0
   35.4640   27.3850   30.8180 H   0  0  0  0  0  0  0  0  0  0  0  0
   34.7180   29.4370   31.8050 H   0  0  0  0  0  0  0  0  0  0  0  0
   35.3820   30.0490   34.1010 H   0  0  0  0  0  0  0  0  0  0  0  0
   36.7880   28.5670   35.3370 H   0  0  0  0  0  0  0  0  0  0  0  0
   38.4050   24.3790   30.3470 C   0  0  0  0  0  0  0  0  0  0  0  0
   38.0300   25.5300   31.0230 C   0  0  0  0  0  0  0  0  0  0  0  0
   36.9590   25.5230   31.8530 C   0  0  0  0  0  0  0  0  0  0  0  0
   36.2880   24.3440   31.9900 N   0  0  0  0  0  0  0  0  0  0  0  0
   36.6450   23.2290   31.3460 C   0  0  0  0  0  0  0  0  0  0  0  0
   37.7000   23.2550   30.5270 N   0  0  0  0  0  0  0  0  0  0  0  0
   39.2140   24.2130   29.6580 H   0  0  0  0  0  0  0  0  0  0  0  0
   38.7640   26.2450   30.7350 H   0  0  0  0  0  0  0  0  0  0  0  0
   35.8700   21.9960   31.6450 C   0  0  0  0  0  0  0  0  0  0  0  0
   35.5630   21.2820   30.5060 F   0  0  0  0  0  0  0  0  0  0  0  0
   36.7270   21.0770   32.3660 F   0  0  0  0  0  0  0  0  0  0  0  0
   34.8280   22.1200   32.4370 F   0  0  0  0  0  0  0  0  0  0  0  0
   38.0420   25.9970   34.6900 S   0  0  0  0  0  0  0  0  0  0  0  0
   38.1200   26.4280   36.1090 O   0  0  0  0  0  0  0  0  0  0  0  0
   39.3720   26.5810   34.2600 O   0  0  0  0  0  0  0  0  0  0  0  0
   38.6940   24.4840   34.2750 C   0  0  0  0  0  0  0  0  0  0  0  0
   37.7650   23.8590   33.9640 H   0  0  0  0  0  0  0  0  0  0  0  0
   39.2240   24.4740   33.3050 H   0  0  0  0  0  0  0  0  0  0  0  0
   39.2340   23.6670   35.3410 C   0  0  0  0  0  0  0  0  0  0  0  0
   38.3960   22.7010   35.9080 C   0  0  0  0  0  0  0  0  0  0  0  0
   37.3780   22.4120   35.7160 H   0  0  0  0  0  0  0  0  0  0  0  0
   39.1070   22.0590   36.8810 N   0  0  0  0  0  0  0  0  0  0  0  0
   38.7710   21.2750   37.5030 H   0  0  0  0  0  0  0  0  0  0  0  0
   40.3130   22.6300   36.8810 C   0  0  0  0  0  0  0  0  0  0  0  0
   41.1700   22.4100   37.5020 H   0  0  0  0  0  0  0  0  0  0  0  0
   40.4190   23.5980   35.9660 N   0  0  0  0  0  0  0  0  0  0  0  0
  1  6  1  0  0  0  0
  1 23  1  0  0  0  0
  2  1  2  0  0  0  0
  3  4  2  0  0  0  0
  3  2  1  0  0  0  0
  4  5  1  0  0  0  0
  5  9  1  0  0  0  0
  5  6  2  0  0  0  0
  6 10  1  0  0  0  0
  7  3  1  0  0  0  0
  8  4  1  0  0  0  0
 11 16  2  0  0  0  0
 11 12  1  0  0  0  0
 12 13  2  0  0  0  0
 13 14  1  0  0  0  0
 13  2  1  0  0  0  0
 15 19  1  0  0  0  0
 15 14  2  0  0  0  0
 16 15  1  0  0  0  0
 17 11  1  0  0  0  0
 18 12  1  0  0  0  0
 19 21  1  0  0  0  0
 19 22  1  0  0  0  0
 20 19  1  0  0  0  0
 23 24  2  0  0  0  0
 25 23  2  0  0  0  0
 26 23  1  0  0  0  0
 26 29  1  0  0  0  0
 27 26  1  0  0  0  0
 28 26  1  0  0  0  0
 29 30  2  0  0  0  0
 29 36  1  0  0  0  0
 30 32  1  0  0  0  0
 31 30  1  0  0  0  0
 32 34  1  0  0  0  0
 32 33  1  0  0  0  0
 34 35  1  0  0  0  0
 36 34  2  0  0  0  0
M  END
>  <minimizedAffinity>
-5.68616009

$$$$

 OpenBabel03272510053D

 36 38  0  0  0  0  0  0  0  0999 V2000
   37.8030   24.8760   33.9350 C   0  0  0  0  0  0  0  0  0  0  0  0
   38.0520   25.3210   35.1940 C   0  0  0  0  0  0  0  0  0  0  0  0
   37.8600   26.6640   35.4990 C   0  0  0  0  0  0  0  0  0  0  0  0
   37.4210   27.5840   34.5670 C   0  0  0  0  0  0  0  0  0  0  0  0
   37.1650   27.1700   33.2930 C   0  0  0  0  0  0  0  0  0  0  0  0
   37.3630   25.8370   33.0170 C   0  0  0  0  0  0  0  0  0  0  0  0
   38.0670   26.9950   36.5280 H   0  0  0  0  0  0  0  0  0  0  0  0
   37.3060   28.5940   34.9160 H   0  0  0  0  0  0  0  0  0  0  0  0
   36.8270   27.9170   32.5930 H   0  0  0  0  0  0  0  0  0  0  0  0
   37.1280   25.6330   31.9640 H   0  0  0  0  0  0  0  0  0  0  0  0
   38.2300   23.4410   38.3450 C   0  0  0  0  0  0  0  0  0  0  0  0
   37.7840   24.2620   37.3210 C   0  0  0  0  0  0  0  0  0  0  0  0
   38.5400   24.4540   36.2130 C   0  0  0  0  0  0  0  0  0  0  0  0
   39.7370   23.8030   36.1580 N   0  0  0  0  0  0  0  0  0  0  0  0
   40.1730   23.0060   37.1380 C   0  0  0  0  0  0  0  0  0  0  0  0
   39.4170   22.8330   38.2260 N   0  0  0  0  0  0  0  0  0  0  0  0
   37.7650   23.1850   39.2800 H   0  0  0  0  0  0  0  0  0  0  0  0
   36.8210   24.5780   37.6480 H   0  0  0  0  0  0  0  0  0  0  0  0
   41.4610   22.3010   36.9150 C   0  0  0  0  0  0  0  0  0  0  0  0
   41.6280   21.2330   37.7720 F   0  0  0  0  0  0  0  0  0  0  0  0
   41.4140   21.6540   35.6200 F   0  0  0  0  0  0  0  0  0  0  0  0
   42.5460   23.0410   36.8430 F   0  0  0  0  0  0  0  0  0  0  0  0
   37.9670   23.2460   33.4460 S   0  0  0  0  0  0  0  0  0  0  0  0
   39.1320   23.0570   32.5450 O   0  0  0  0  0  0  0  0  0  0  0  0
   36.9060   23.2200   32.3640 O   0  0  0  0  0  0  0  0  0  0  0  0
   37.2060   21.8620   34.0730 C   0  0  0  0  0  0  0  0  0  0  0  0
   38.0610   21.3070   34.6320 H   0  0  0  0  0  0  0  0  0  0  0  0
   36.5530   22.0630   34.9420 H   0  0  0  0  0  0  0  0  0  0  0  0
   36.7810   20.8430   33.1370 C   0  0  0  0  0  0  0  0  0  0  0  0
   35.4580   20.3960   33.2190 C   0  0  0  0  0  0  0  0  0  0  0  0
   34.6360   20.6560   33.8620 H   0  0  0  0  0  0  0  0  0  0  0  0
   35.2830   19.4480   32.2530 N   0  0  0  0  0  0  0  0  0  0  0  0
   34.4010   18.9080   32.0430 H   0  0  0  0  0  0  0  0  0  0  0  0
   36.4590   19.3460   31.6320 C   0  0  0  0  0  0  0  0  0  0  0  0
   36.7400   18.7070   30.8070 H   0  0  0  0  0  0  0  0  0  0  0  0
   37.3780   20.1720   32.1410 N   0  0  0  0  0  0  0  0  0  0  0  0
  1  2  1  0  0  0  0
  2  3  2  0  0  0  0
  2 13  1  0  0  0  0
  3  7  1  0  0  0  0
  4  8  1  0  0  0  0
  4  3  1  0  0  0  0
  5  4  2  0  0  0  0
  6  5  1  0  0  0  0
  6  1  2  0  0  0  0
  9  5  1  0  0  0  0
 10  6  1  0  0  0  0
 11 17  1  0  0  0  0
 12 18  1  0  0  0  0
 12 11  2  0  0  0  0
 13 12  1  0  0  0  0
 14 13  2  0  0  0  0
 14 15  1  0  0  0  0
 15 16  2  0  0  0  0
 16 11  1  0  0  0  0
 19 15  1  0  0  0  0
 19 20  1  0  0  0  0
 21 19  1  0  0  0  0
 22 19  1  0  0  0  0
 23  1  1  0  0  0  0
 23 26  1  0  0  0  0
 24 23  2  0  0  0  0
 25 23  2  0  0  0  0
 26 27  1  0  0  0  0
 26 28  1  0  0  0  0
 29 30  2  0  0  0  0
 29 26  1  0  0  0  0
 30 31  1  0  0  0  0
 32 30  1  0  0  0  0
 33 32  1  0  0  0  0
 34 36  2  0  0  0  0
 34 32  1  0  0  0  0
 35 34  1  0  0  0  0
 36 29  1  0  0  0  0
M  END
>  <minimizedAffinity>
-5.66809511

$$$$

 OpenBabel03272510053D

 36 38  0  0  0  0  0  0  0  0999 V2000
   37.0720   23.2980   32.6760 C   0  0  0  0  0  0  0  0  0  0  0  0
   37.3300   22.2970   33.5590 C   0  0  0  0  0  0  0  0  0  0  0  0
   36.6610   21.0830   33.4370 C   0  0  0  0  0  0  0  0  0  0  0  0
   35.7300   20.8430   32.4460 C   0  0  0  0  0  0  0  0  0  0  0  0
   35.4460   21.8270   31.5460 C   0  0  0  0  0  0  0  0  0  0  0  0
   36.1200   23.0180   31.6880 C   0  0  0  0  0  0  0  0  0  0  0  0
   36.8940   20.2920   34.1650 H   0  0  0  0  0  0  0  0  0  0  0  0
   35.2780   19.8670   32.4490 H   0  0  0  0  0  0  0  0  0  0  0  0
   34.7130   21.6020   30.7890 H   0  0  0  0  0  0  0  0  0  0  0  0
   35.8020   23.7240   30.9110 H   0  0  0  0  0  0  0  0  0  0  0  0
   40.4720   22.2730   35.4610 C   0  0  0  0  0  0  0  0  0  0  0  0
   39.5490   22.1430   34.4350 C   0  0  0  0  0  0  0  0  0  0  0  0
   38.2480   22.4650   34.6340 C   0  0  0  0  0  0  0  0  0  0  0  0
   37.9050   22.9210   35.8720 N   0  0  0  0  0  0  0  0  0  0  0  0
   38.7880   23.0540   36.8650 C   0  0  0  0  0  0  0  0  0  0  0  0
   40.0660   22.7270   36.6530 N   0  0  0  0  0  0  0  0  0  0  0  0
   41.5270   22.0630   35.4740 H   0  0  0  0  0  0  0  0  0  0  0  0
   40.1310   21.8080   33.6090 H   0  0  0  0  0  0  0  0  0  0  0  0
   38.2920   23.6340   38.1400 C   0  0  0  0  0  0  0  0  0  0  0  0
   37.2980   22.8660   38.7120 F   0  0  0  0  0  0  0  0  0  0  0  0
   39.3500   23.5550   39.1260 F   0  0  0  0  0  0  0  0  0  0  0  0
   37.9770   24.9110   38.1370 F   0  0  0  0  0  0  0  0  0  0  0  0
   37.8520   24.8190   32.6980 S   0  0  0  0  0  0  0  0  0  0  0  0
   37.4470   25.6270   33.8750 O   0  0  0  0  0  0  0  0  0  0  0  0
   36.9840   25.5390   31.6870 O   0  0  0  0  0  0  0  0  0  0  0  0
   39.1780   25.3510   31.7780 C   0  0  0  0  0  0  0  0  0  0  0  0
   38.9580   26.4790   31.6040 H   0  0  0  0  0  0  0  0  0  0  0  0
   40.1130   25.4590   32.3580 H   0  0  0  0  0  0  0  0  0  0  0  0
   39.2860   24.8770   30.4140 C   0  0  0  0  0  0  0  0  0  0  0  0
   39.4990   25.8270   29.4100 C   0  0  0  0  0  0  0  0  0  0  0  0
   39.6060   26.8970   29.4270 H   0  0  0  0  0  0  0  0  0  0  0  0
   39.5670   25.1620   28.2200 N   0  0  0  0  0  0  0  0  0  0  0  0
   39.7200   25.5800   27.2640 H   0  0  0  0  0  0  0  0  0  0  0  0
   39.4000   23.8730   28.5200 C   0  0  0  0  0  0  0  0  0  0  0  0
   39.3890   23.0160   27.8600 H   0  0  0  0  0  0  0  0  0  0  0  0
   39.2300   23.6710   29.8300 N   0  0  0  0  0  0  0  0  0  0  0  0
  1 23  1  0  0  0  0
  1  2  1  0  0  0  0
  2 13  1  0  0  0  0
  3  2  2  0  0  0  0
  3  7  1  0  0  0  0
  4  8  1  0  0  0  0
  4  3  1  0  0  0  0
  5  6  1  0  0  0  0
  5  4  2  0  0  0  0
  6  1  2  0  0  0  0
  9  5  1  0  0  0  0
 10  6  1  0  0  0  0
 11 17  1  0  0  0  0
 11 16  1  0  0  0  0
 12 13  1  0  0  0  0
 12 11  2  0  0  0  0
 13 14  2  0  0  0  0
 14 15  1  0  0  0  0
 15 19  1  0  0  0  0
 16 15  2  0  0  0  0
 18 12  1  0  0  0  0
 19 20  1  0  0  0  0
 19 21  1  0  0  0  0
 22 19  1  0  0  0  0
 23 24  2  0  0  0  0
 25 23  2  0  0  0  0
 26 28  1  0  0  0  0
 26 23  1  0  0  0  0
 27 26  1  0  0  0  0
 29 26  1  0  0  0  0
 30 31  1  0  0  0  0
 30 29  2  0  0  0  0
 32 34  1  0  0  0  0
 32 30  1  0  0  0  0
 33 32  1  0  0  0  0
 34 36  2  0  0  0  0
 35 34  1  0  0  0  0
 36 29  1  0  0  0  0
M  END
>  <minimizedAffinity>
-5.5996666

$$$$
