
 OpenBabel03272508393D

 31 33  0  0  1  0  0  0  0  0999 V2000
   37.7590   25.6780   33.7800 N   0  0  0  0  0  0  0  0  0  0  0  0
   38.1040   24.5820   34.6630 C   0  0  0  0  0  0  0  0  0  0  0  0
   38.0860   24.9580   36.1000 C   0  0  2  0  0  0  0  0  0  0  0  0
   38.5180   26.2700   36.4250 N   0  0  0  0  0  0  0  0  0  0  0  0
   37.8920   27.2500   35.5300 C   0  0  0  0  0  0  0  0  0  0  0  0
   38.4250   26.8920   34.1670 C   0  0  0  0  0  0  0  0  0  0  0  0
   37.3550   23.7840   34.4760 H   0  0  0  0  0  0  0  0  0  0  0  0
   39.1310   24.1790   34.4220 H   0  0  0  0  0  0  0  0  0  0  0  0
   37.0040   24.9030   36.4220 H   0  0  0  0  0  0  0  0  0  0  0  0
   39.5450   26.3400   36.2030 H   0  0  0  0  0  0  0  0  0  0  0  0
   36.7990   26.9860   35.5550 H   0  0  0  0  0  0  0  0  0  0  0  0
   38.0970   28.2750   35.8480 H   0  0  0  0  0  0  0  0  0  0  0  0
   38.1640   27.6830   33.4510 H   0  0  0  0  0  0  0  0  0  0  0  0
   39.5290   26.7170   34.2060 H   0  0  0  0  0  0  0  0  0  0  0  0
   36.8710   25.5560   32.6720 C   0  0  0  0  0  0  0  0  0  0  0  0
   36.5180   24.3410   32.0920 C   0  0  0  0  0  0  0  0  0  0  0  0
   35.6400   24.3450   31.0120 C   0  0  0  0  0  0  0  0  0  0  0  0
   35.1630   25.5480   30.5690 N   0  0  0  0  0  0  0  0  0  0  0  0
   35.5280   26.7070   31.1580 C   0  0  0  0  0  0  0  0  0  0  0  0
   36.3770   26.7370   32.2050 N   0  0  0  0  0  0  0  0  0  0  0  0
   36.9280   23.4460   32.4910 H   0  0  0  0  0  0  0  0  0  0  0  0
   35.3590   23.4030   30.5540 H   0  0  0  0  0  0  0  0  0  0  0  0
   35.1240   27.6460   30.7710 H   0  0  0  0  0  0  0  0  0  0  0  0
   38.8300   23.9630   36.9020 C   0  0  0  0  0  0  0  0  0  0  0  0
   38.4950   23.5190   38.1870 C   0  0  0  0  0  0  0  0  0  0  0  0
   37.6290   23.8610   38.7590 H   0  0  0  0  0  0  0  0  0  0  0  0
   39.4140   22.6270   38.5540 N   0  0  0  0  0  0  0  0  0  0  0  0
   39.3790   22.1450   39.4940 H   0  0  0  0  0  0  0  0  0  0  0  0
   40.3300   22.4690   37.5730 C   0  0  0  0  0  0  0  0  0  0  0  0
   41.1820   21.8100   37.6050 H   0  0  0  0  0  0  0  0  0  0  0  0
   39.9530   23.3000   36.5650 N   0  0  0  0  0  0  0  0  0  0  0  0
  1  6  1  0  0  0  0
  1  2  1  0  0  0  0
  2  3  1  0  0  0  0
  3  9  1  1  0  0  0
  3  4  1  0  0  0  0
  3 24  1  0  0  0  0
  5 11  1  0  0  0  0
  5 12  1  0  0  0  0
  5  4  1  0  0  0  0
  6 14  1  0  0  0  0
  6  5  1  0  0  0  0
  7  2  1  0  0  0  0
  8  2  1  0  0  0  0
 10  4  1  0  0  0  0
 13  6  1  0  0  0  0
 15  1  1  0  0  0  0
 16 21  1  0  0  0  0
 16 15  2  0  0  0  0
 17 16  1  0  0  0  0
 18 17  2  0  0  0  0
 18 19  1  0  0  0  0
 19 20  2  0  0  0  0
 20 15  1  0  0  0  0
 22 17  1  0  0  0  0
 23 19  1  0  0  0  0
 24 25  2  0  0  0  0
 25 27  1  0  0  0  0
 25 26  1  0  0  0  0
 27 28  1  0  0  0  0
 29 30  1  0  0  0  0
 29 27  1  0  0  0  0
 31 24  1  0  0  0  0
 31 29  2  0  0  0  0
M  END
>  <minimizedAffinity>
-5.05587339

$$$$

 OpenBabel03272508393D

 31 33  0  0  1  0  0  0  0  0999 V2000
   37.7230   25.6570   33.7340 N   0  0  0  0  0  0  0  0  0  0  0  0
   38.0610   24.5680   34.6290 C   0  0  0  0  0  0  0  0  0  0  0  0
   38.0540   24.9620   36.0610 C   0  0  2  0  0  0  0  0  0  0  0  0
   38.5020   26.2730   36.3670 N   0  0  0  0  0  0  0  0  0  0  0  0
   37.8820   27.2500   35.4630 C   0  0  0  0  0  0  0  0  0  0  0  0
   38.4050   26.8680   34.1020 C   0  0  0  0  0  0  0  0  0  0  0  0
   37.3020   23.7770   34.4550 H   0  0  0  0  0  0  0  0  0  0  0  0
   39.0820   24.1510   34.3880 H   0  0  0  0  0  0  0  0  0  0  0  0
   36.9720   24.9230   36.3880 H   0  0  0  0  0  0  0  0  0  0  0  0
   39.5280   26.3290   36.1400 H   0  0  0  0  0  0  0  0  0  0  0  0
   36.7860   26.9970   35.4970 H   0  0  0  0  0  0  0  0  0  0  0  0
   38.1000   28.2760   35.7670 H   0  0  0  0  0  0  0  0  0  0  0  0
   38.1490   27.6540   33.3780 H   0  0  0  0  0  0  0  0  0  0  0  0
   39.5070   26.6810   34.1380 H   0  0  0  0  0  0  0  0  0  0  0  0
   36.8290   25.5310   32.6320 C   0  0  0  0  0  0  0  0  0  0  0  0
   36.2550   26.6130   31.9720 C   0  0  0  0  0  0  0  0  0  0  0  0
   35.3940   26.3680   30.9060 C   0  0  0  0  0  0  0  0  0  0  0  0
   35.1510   25.0680   30.5550 N   0  0  0  0  0  0  0  0  0  0  0  0
   35.7270   24.0430   31.2190 C   0  0  0  0  0  0  0  0  0  0  0  0
   36.5640   24.2470   32.2560 N   0  0  0  0  0  0  0  0  0  0  0  0
   36.4910   27.5950   32.3010 H   0  0  0  0  0  0  0  0  0  0  0  0
   34.9430   27.2050   30.3850 H   0  0  0  0  0  0  0  0  0  0  0  0
   35.5050   23.0190   30.9060 H   0  0  0  0  0  0  0  0  0  0  0  0
   38.7900   23.9690   36.8720 C   0  0  0  0  0  0  0  0  0  0  0  0
   38.4470   23.5320   38.1580 C   0  0  0  0  0  0  0  0  0  0  0  0
   37.5790   23.8800   38.7230 H   0  0  0  0  0  0  0  0  0  0  0  0
   39.3610   22.6400   38.5340 N   0  0  0  0  0  0  0  0  0  0  0  0
   39.3200   22.1630   39.4760 H   0  0  0  0  0  0  0  0  0  0  0  0
   40.2830   22.4740   37.5590 C   0  0  0  0  0  0  0  0  0  0  0  0
   41.1320   21.8130   37.5990 H   0  0  0  0  0  0  0  0  0  0  0  0
   39.9130   23.3010   36.5450 N   0  0  0  0  0  0  0  0  0  0  0  0
  1  6  1  0  0  0  0
  1  2  1  0  0  0  0
  2  3  1  0  0  0  0
  3  4  1  0  0  0  0
  3  9  1  1  0  0  0
  3 24  1  0  0  0  0
  5 11  1  0  0  0  0
  5 12  1  0  0  0  0
  5  4  1  0  0  0  0
  6 14  1  0  0  0  0
  6  5  1  0  0  0  0
  7  2  1  0  0  0  0
  8  2  1  0  0  0  0
 10  4  1  0  0  0  0
 13  6  1  0  0  0  0
 15  1  1  0  0  0  0
 16 21  1  0  0  0  0
 16 15  2  0  0  0  0
 17 16  1  0  0  0  0
 18 17  2  0  0  0  0
 18 19  1  0  0  0  0
 19 20  2  0  0  0  0
 20 15  1  0  0  0  0
 22 17  1  0  0  0  0
 23 19  1  0  0  0  0
 24 25  2  0  0  0  0
 25 27  1  0  0  0  0
 25 26  1  0  0  0  0
 27 28  1  0  0  0  0
 29 30  1  0  0  0  0
 29 27  1  0  0  0  0
 31 24  1  0  0  0  0
 31 29  2  0  0  0  0
M  END
>  <minimizedAffinity>
-4.98133564

$$$$

 OpenBabel03272508393D

 31 33  0  0  1  0  0  0  0  0999 V2000
   38.7080   25.4560   35.2320 N   0  0  0  0  0  0  0  0  0  0  0  0
   37.7860   25.2030   34.1430 C   0  0  0  0  0  0  0  0  0  0  0  0
   38.2110   25.8160   32.8580 C   0  0  2  0  0  0  0  0  0  0  0  0
   38.8630   27.0740   32.9340 N   0  0  0  0  0  0  0  0  0  0  0  0
   39.9010   27.0510   33.9720 C   0  0  0  0  0  0  0  0  0  0  0  0
   39.1320   26.8300   35.2490 C   0  0  0  0  0  0  0  0  0  0  0  0
   37.7330   24.1000   34.0310 H   0  0  0  0  0  0  0  0  0  0  0  0
   36.7550   25.5920   34.3890 H   0  0  0  0  0  0  0  0  0  0  0  0
   38.9670   25.1050   32.4110 H   0  0  0  0  0  0  0  0  0  0  0  0
   38.1660   27.7830   33.2830 H   0  0  0  0  0  0  0  0  0  0  0  0
   40.4860   26.1160   33.7530 H   0  0  0  0  0  0  0  0  0  0  0  0
   40.5090   27.9580   33.9540 H   0  0  0  0  0  0  0  0  0  0  0  0
   39.7990   26.9850   36.1090 H   0  0  0  0  0  0  0  0  0  0  0  0
   38.2360   27.4980   35.2950 H   0  0  0  0  0  0  0  0  0  0  0  0
   39.1320   24.4630   36.1610 C   0  0  0  0  0  0  0  0  0  0  0  0
   38.4500   24.1580   37.3350 C   0  0  0  0  0  0  0  0  0  0  0  0
   38.9610   23.1660   38.1670 C   0  0  0  0  0  0  0  0  0  0  0  0
   40.1140   22.5340   37.7910 N   0  0  0  0  0  0  0  0  0  0  0  0
   40.7480   22.8580   36.6430 C   0  0  0  0  0  0  0  0  0  0  0  0
   40.2810   23.8130   35.8160 N   0  0  0  0  0  0  0  0  0  0  0  0
   37.5600   24.6910   37.5610 H   0  0  0  0  0  0  0  0  0  0  0  0
   38.4360   22.9210   39.0840 H   0  0  0  0  0  0  0  0  0  0  0  0
   41.6690   22.3280   36.3810 H   0  0  0  0  0  0  0  0  0  0  0  0
   37.0710   25.8880   31.9190 C   0  0  0  0  0  0  0  0  0  0  0  0
   36.8730   26.8600   30.9310 C   0  0  0  0  0  0  0  0  0  0  0  0
   37.5490   27.6960   30.7340 H   0  0  0  0  0  0  0  0  0  0  0  0
   35.7340   26.5670   30.3060 N   0  0  0  0  0  0  0  0  0  0  0  0
   35.3650   27.1600   29.5120 H   0  0  0  0  0  0  0  0  0  0  0  0
   35.1810   25.4540   30.8360 C   0  0  0  0  0  0  0  0  0  0  0  0
   34.2590   24.9950   30.5200 H   0  0  0  0  0  0  0  0  0  0  0  0
   36.0200   25.0510   31.8280 N   0  0  0  0  0  0  0  0  0  0  0  0
  1  6  1  0  0  0  0
  1 15  1  0  0  0  0
  2  8  1  0  0  0  0
  2  1  1  0  0  0  0
  3  9  1  6  0  0  0
  3  4  1  0  0  0  0
  3  2  1  0  0  0  0
  4 10  1  0  0  0  0
  4  5  1  0  0  0  0
  5  6  1  0  0  0  0
  6 14  1  0  0  0  0
  6 13  1  0  0  0  0
  7  2  1  0  0  0  0
 11  5  1  0  0  0  0
 12  5  1  0  0  0  0
 15 16  1  0  0  0  0
 16 21  1  0  0  0  0
 16 17  2  0  0  0  0
 17 22  1  0  0  0  0
 18 17  1  0  0  0  0
 19 18  2  0  0  0  0
 20 15  2  0  0  0  0
 20 19  1  0  0  0  0
 23 19  1  0  0  0  0
 24  3  1  0  0  0  0
 25 24  2  0  0  0  0
 26 25  1  0  0  0  0
 27 29  1  0  0  0  0
 27 25  1  0  0  0  0
 28 27  1  0  0  0  0
 29 31  2  0  0  0  0
 30 29  1  0  0  0  0
 31 24  1  0  0  0  0
M  END
>  <minimizedAffinity>
-4.66200256

$$$$

 OpenBabel03272508393D

 31 33  0  0  1  0  0  0  0  0999 V2000
   38.4270   24.8560   35.8590 N   0  0  0  0  0  0  0  0  0  0  0  0
   39.5830   24.0240   35.5920 C   0  0  0  0  0  0  0  0  0  0  0  0
   39.4590   22.6510   36.1450 C   0  0  2  0  0  0  0  0  0  0  0  0
   38.7840   22.5190   37.3860 N   0  0  0  0  0  0  0  0  0  0  0  0
   37.5320   23.2860   37.3720 C   0  0  0  0  0  0  0  0  0  0  0  0
   37.9840   24.7160   37.2200 C   0  0  0  0  0  0  0  0  0  0  0  0
   39.6820   23.9750   34.4880 H   0  0  0  0  0  0  0  0  0  0  0  0
   40.5200   24.4870   36.0190 H   0  0  0  0  0  0  0  0  0  0  0  0
   38.8420   22.0700   35.3970 H   0  0  0  0  0  0  0  0  0  0  0  0
   39.3650   22.9900   38.1260 H   0  0  0  0  0  0  0  0  0  0  0  0
   37.0320   22.9770   36.4130 H   0  0  0  0  0  0  0  0  0  0  0  0
   36.9280   23.0880   38.2600 H   0  0  0  0  0  0  0  0  0  0  0  0
   37.1320   25.3890   37.3870 H   0  0  0  0  0  0  0  0  0  0  0  0
   38.8320   24.9400   37.9140 H   0  0  0  0  0  0  0  0  0  0  0  0
   37.8160   25.7010   34.8890 C   0  0  0  0  0  0  0  0  0  0  0  0
   37.4090   27.0070   35.1450 C   0  0  0  0  0  0  0  0  0  0  0  0
   36.8220   27.7400   34.1170 C   0  0  0  0  0  0  0  0  0  0  0  0
   36.6720   27.1400   32.8970 N   0  0  0  0  0  0  0  0  0  0  0  0
   37.0800   25.8700   32.6860 C   0  0  0  0  0  0  0  0  0  0  0  0
   37.6510   25.1330   33.6600 N   0  0  0  0  0  0  0  0  0  0  0  0
   37.5580   27.4070   36.1180 H   0  0  0  0  0  0  0  0  0  0  0  0
   36.5020   28.7580   34.3080 H   0  0  0  0  0  0  0  0  0  0  0  0
   36.9410   25.4280   31.6950 H   0  0  0  0  0  0  0  0  0  0  0  0
   40.7850   22.0010   36.2140 C   0  0  0  0  0  0  0  0  0  0  0  0
   41.4140   21.5260   37.3710 C   0  0  0  0  0  0  0  0  0  0  0  0
   40.9920   21.5800   38.3780 H   0  0  0  0  0  0  0  0  0  0  0  0
   42.5880   21.0140   37.0060 N   0  0  0  0  0  0  0  0  0  0  0  0
   43.2540   20.5890   37.7090 H   0  0  0  0  0  0  0  0  0  0  0  0
   42.7550   21.1320   35.6700 C   0  0  0  0  0  0  0  0  0  0  0  0
   43.6140   20.8010   35.1100 H   0  0  0  0  0  0  0  0  0  0  0  0
   41.6340   21.7420   35.2020 N   0  0  0  0  0  0  0  0  0  0  0  0
  1  6  1  0  0  0  0
  2  1  1  0  0  0  0
  2  8  1  0  0  0  0
  2  3  1  0  0  0  0
  3  9  1  6  0  0  0
  3 24  1  0  0  0  0
  3  4  1  0  0  0  0
  4 10  1  0  0  0  0
  5  4  1  0  0  0  0
  5 12  1  0  0  0  0
  6  5  1  0  0  0  0
  6 13  1  0  0  0  0
  6 14  1  0  0  0  0
  7  2  1  0  0  0  0
 11  5  1  0  0  0  0
 15 16  1  0  0  0  0
 15  1  1  0  0  0  0
 16 21  1  0  0  0  0
 17 22  1  0  0  0  0
 17 16  2  0  0  0  0
 18 17  1  0  0  0  0
 19 18  2  0  0  0  0
 19 20  1  0  0  0  0
 20 15  2  0  0  0  0
 23 19  1  0  0  0  0
 24 25  2  0  0  0  0
 25 26  1  0  0  0  0
 27 25  1  0  0  0  0
 27 28  1  0  0  0  0
 29 27  1  0  0  0  0
 30 29  1  0  0  0  0
 31 29  2  0  0  0  0
 31 24  1  0  0  0  0
M  END
>  <minimizedAffinity>
-4.53718948

$$$$

 OpenBabel03272508393D

 31 33  0  0  1  0  0  0  0  0999 V2000
   37.5120   25.2390   33.3730 N   0  0  0  0  0  0  0  0  0  0  0  0
   37.7890   25.0400   34.7810 C   0  0  0  0  0  0  0  0  0  0  0  0
   39.0630   24.3180   35.0330 C   0  0  2  0  0  0  0  0  0  0  0  0
   39.4180   23.3030   34.1070 N   0  0  0  0  0  0  0  0  0  0  0  0
   39.2510   23.7850   32.7310 C   0  0  0  0  0  0  0  0  0  0  0  0
   37.7710   24.0460   32.6140 C   0  0  0  0  0  0  0  0  0  0  0  0
   37.8360   26.0510   35.2350 H   0  0  0  0  0  0  0  0  0  0  0  0
   36.9570   24.4590   35.2770 H   0  0  0  0  0  0  0  0  0  0  0  0
   39.8790   25.0970   34.9620 H   0  0  0  0  0  0  0  0  0  0  0  0
   38.7160   22.5230   34.1930 H   0  0  0  0  0  0  0  0  0  0  0  0
   39.7800   24.7770   32.7210 H   0  0  0  0  0  0  0  0  0  0  0  0
   39.6500   23.0730   32.0040 H   0  0  0  0  0  0  0  0  0  0  0  0
   37.5140   24.2320   31.5620 H   0  0  0  0  0  0  0  0  0  0  0  0
   37.1830   23.1960   33.0400 H   0  0  0  0  0  0  0  0  0  0  0  0
   37.0420   26.4670   32.8220 C   0  0  0  0  0  0  0  0  0  0  0  0
   36.7700   27.6020   33.5800 C   0  0  0  0  0  0  0  0  0  0  0  0
   36.3150   28.7460   32.9310 C   0  0  0  0  0  0  0  0  0  0  0  0
   36.1560   28.7020   31.5730 N   0  0  0  0  0  0  0  0  0  0  0  0
   36.4310   27.5810   30.8710 C   0  0  0  0  0  0  0  0  0  0  0  0
   36.8730   26.4570   31.4700 N   0  0  0  0  0  0  0  0  0  0  0  0
   36.9170   27.5620   34.6300 H   0  0  0  0  0  0  0  0  0  0  0  0
   36.1000   29.6360   33.5130 H   0  0  0  0  0  0  0  0  0  0  0  0
   36.2900   27.5890   29.7870 H   0  0  0  0  0  0  0  0  0  0  0  0
   39.0890   23.7840   36.4110 C   0  0  0  0  0  0  0  0  0  0  0  0
   39.9560   22.7990   36.9000 C   0  0  0  0  0  0  0  0  0  0  0  0
   40.7280   22.2990   36.3100 H   0  0  0  0  0  0  0  0  0  0  0  0
   39.6550   22.6040   38.1830 N   0  0  0  0  0  0  0  0  0  0  0  0
   40.1750   21.9010   38.7770 H   0  0  0  0  0  0  0  0  0  0  0  0
   38.6370   23.4120   38.5540 C   0  0  0  0  0  0  0  0  0  0  0  0
   38.1950   23.4600   39.5350 H   0  0  0  0  0  0  0  0  0  0  0  0
   38.3030   24.1300   37.4480 N   0  0  0  0  0  0  0  0  0  0  0  0
  1  2  1  0  0  0  0
  2  3  1  0  0  0  0
  2  7  1  0  0  0  0
  2  8  1  0  0  0  0
  3  9  1  6  0  0  0
  3 24  1  0  0  0  0
  4 10  1  0  0  0  0
  4  3  1  0  0  0  0
  5  4  1  0  0  0  0
  6  5  1  0  0  0  0
  6 14  1  0  0  0  0
  6  1  1  0  0  0  0
 11  5  1  0  0  0  0
 12  5  1  0  0  0  0
 13  6  1  0  0  0  0
 15  1  1  0  0  0  0
 15 16  1  0  0  0  0
 16 21  1  0  0  0  0
 17 22  1  0  0  0  0
 17 16  2  0  0  0  0
 18 17  1  0  0  0  0
 19 20  1  0  0  0  0
 19 18  2  0  0  0  0
 20 15  2  0  0  0  0
 23 19  1  0  0  0  0
 24 25  2  0  0  0  0
 24 31  1  0  0  0  0
 25 27  1  0  0  0  0
 26 25  1  0  0  0  0
 27 29  1  0  0  0  0
 27 28  1  0  0  0  0
 29 30  1  0  0  0  0
 31 29  2  0  0  0  0
M  END
>  <minimizedAffinity>
-4.52438784

$$$$

 OpenBabel03272508393D

 31 33  0  0  1  0  0  0  0  0999 V2000
   37.3850   25.6560   32.4750 N   0  0  0  0  0  0  0  0  0  0  0  0
   37.4780   27.0080   31.9620 C   0  0  0  0  0  0  0  0  0  0  0  0
   36.2990   27.4120   31.1540 C   0  0  2  0  0  0  0  0  0  0  0  0
   35.6970   26.4080   30.3520 N   0  0  0  0  0  0  0  0  0  0  0  0
   35.5120   25.1760   31.1290 C   0  0  0  0  0  0  0  0  0  0  0  0
   36.9150   24.7450   31.4670 C   0  0  0  0  0  0  0  0  0  0  0  0
   37.5700   27.6710   32.8470 H   0  0  0  0  0  0  0  0  0  0  0  0
   38.3980   27.1330   31.3190 H   0  0  0  0  0  0  0  0  0  0  0  0
   35.5070   27.7260   31.8970 H   0  0  0  0  0  0  0  0  0  0  0  0
   36.3820   26.1360   29.6000 H   0  0  0  0  0  0  0  0  0  0  0  0
   35.0170   25.5220   32.0780 H   0  0  0  0  0  0  0  0  0  0  0  0
   34.9250   24.4370   30.5780 H   0  0  0  0  0  0  0  0  0  0  0  0
   36.8960   23.7300   31.8870 H   0  0  0  0  0  0  0  0  0  0  0  0
   37.5780   24.8070   30.5680 H   0  0  0  0  0  0  0  0  0  0  0  0
   37.7200   25.2890   33.8100 C   0  0  0  0  0  0  0  0  0  0  0  0
   37.7600   26.1850   34.8740 C   0  0  0  0  0  0  0  0  0  0  0  0
   38.1010   25.7100   36.1370 C   0  0  0  0  0  0  0  0  0  0  0  0
   38.3820   24.3790   36.2750 N   0  0  0  0  0  0  0  0  0  0  0  0
   38.3330   23.5390   35.2180 C   0  0  0  0  0  0  0  0  0  0  0  0
   38.0070   23.9670   33.9820 N   0  0  0  0  0  0  0  0  0  0  0  0
   37.5290   27.2050   34.6910 H   0  0  0  0  0  0  0  0  0  0  0  0
   38.1340   26.4010   36.9720 H   0  0  0  0  0  0  0  0  0  0  0  0
   38.5660   22.4810   35.3730 H   0  0  0  0  0  0  0  0  0  0  0  0
   36.6190   28.5980   30.3310 C   0  0  0  0  0  0  0  0  0  0  0  0
   36.1600   29.9030   30.5460 C   0  0  0  0  0  0  0  0  0  0  0  0
   35.4980   30.2050   31.3620 H   0  0  0  0  0  0  0  0  0  0  0  0
   36.6760   30.6710   29.5880 N   0  0  0  0  0  0  0  0  0  0  0  0
   36.4740   31.7070   29.5340 H   0  0  0  0  0  0  0  0  0  0  0  0
   37.4480   29.9320   28.7600 C   0  0  0  0  0  0  0  0  0  0  0  0
   37.9850   30.3000   27.9020 H   0  0  0  0  0  0  0  0  0  0  0  0
   37.3990   28.6590   29.2350 N   0  0  0  0  0  0  0  0  0  0  0  0
  1 15  1  0  0  0  0
  2  1  1  0  0  0  0
  2  7  1  0  0  0  0
  3  9  1  1  0  0  0
  3  2  1  0  0  0  0
  4  5  1  0  0  0  0
  4  3  1  0  0  0  0
  5  6  1  0  0  0  0
  5 11  1  0  0  0  0
  6 13  1  0  0  0  0
  6  1  1  0  0  0  0
  8  2  1  0  0  0  0
 10  4  1  0  0  0  0
 12  5  1  0  0  0  0
 14  6  1  0  0  0  0
 15 20  2  0  0  0  0
 15 16  1  0  0  0  0
 16 17  2  0  0  0  0
 17 18  1  0  0  0  0
 17 22  1  0  0  0  0
 19 23  1  0  0  0  0
 19 18  2  0  0  0  0
 20 19  1  0  0  0  0
 21 16  1  0  0  0  0
 24 25  2  0  0  0  0
 24  3  1  0  0  0  0
 25 26  1  0  0  0  0
 27 25  1  0  0  0  0
 28 27  1  0  0  0  0
 29 31  2  0  0  0  0
 29 27  1  0  0  0  0
 30 29  1  0  0  0  0
 31 24  1  0  0  0  0
M  END
>  <minimizedAffinity>
-4.52005196

$$$$

 OpenBabel03272508393D

 31 33  0  0  1  0  0  0  0  0999 V2000
   37.6730   26.9560   33.7500 N   0  0  0  0  0  0  0  0  0  0  0  0
   37.3840   26.0710   34.8610 C   0  0  0  0  0  0  0  0  0  0  0  0
   38.5370   25.8870   35.7800 C   0  0  2  0  0  0  0  0  0  0  0  0
   39.8280   25.8590   35.1910 N   0  0  0  0  0  0  0  0  0  0  0  0
   39.9780   26.9650   34.2370 C   0  0  0  0  0  0  0  0  0  0  0  0
   38.9570   26.6670   33.1700 C   0  0  0  0  0  0  0  0  0  0  0  0
   36.5370   26.5300   35.4110 H   0  0  0  0  0  0  0  0  0  0  0  0
   37.0670   25.0520   34.4930 H   0  0  0  0  0  0  0  0  0  0  0  0
   38.5320   26.7850   36.4660 H   0  0  0  0  0  0  0  0  0  0  0  0
   39.8960   24.9950   34.5940 H   0  0  0  0  0  0  0  0  0  0  0  0
   39.6300   27.8690   34.8080 H   0  0  0  0  0  0  0  0  0  0  0  0
   41.0060   27.0490   33.8760 H   0  0  0  0  0  0  0  0  0  0  0  0
   39.1170   27.3340   32.3120 H   0  0  0  0  0  0  0  0  0  0  0  0
   38.9980   25.5900   32.8700 H   0  0  0  0  0  0  0  0  0  0  0  0
   36.7890   27.9780   33.2980 C   0  0  0  0  0  0  0  0  0  0  0  0
   35.9780   28.7310   34.1430 C   0  0  0  0  0  0  0  0  0  0  0  0
   35.1540   29.7040   33.5870 C   0  0  0  0  0  0  0  0  0  0  0  0
   35.1790   29.8780   32.2300 N   0  0  0  0  0  0  0  0  0  0  0  0
   35.9790   29.1280   31.4420 C   0  0  0  0  0  0  0  0  0  0  0  0
   36.7890   28.1770   31.9490 N   0  0  0  0  0  0  0  0  0  0  0  0
   36.0120   28.5400   35.1870 H   0  0  0  0  0  0  0  0  0  0  0  0
   34.5190   30.2950   34.2370 H   0  0  0  0  0  0  0  0  0  0  0  0
   35.9680   29.2990   30.3620 H   0  0  0  0  0  0  0  0  0  0  0  0
   38.3360   24.6910   36.6250 C   0  0  0  0  0  0  0  0  0  0  0  0
   38.4880   23.3590   36.2230 C   0  0  0  0  0  0  0  0  0  0  0  0
   38.7780   23.0400   35.2180 H   0  0  0  0  0  0  0  0  0  0  0  0
   38.2170   22.5900   37.2760 N   0  0  0  0  0  0  0  0  0  0  0  0
   38.2620   21.5350   37.2230 H   0  0  0  0  0  0  0  0  0  0  0  0
   37.8960   23.3540   38.3430 C   0  0  0  0  0  0  0  0  0  0  0  0
   37.6340   22.9920   39.3240 H   0  0  0  0  0  0  0  0  0  0  0  0
   37.9760   24.6440   37.9220 N   0  0  0  0  0  0  0  0  0  0  0  0
  1  2  1  0  0  0  0
  2  7  1  0  0  0  0
  2  3  1  0  0  0  0
  3  9  1  1  0  0  0
  3 24  1  0  0  0  0
  4  3  1  0  0  0  0
  5 11  1  0  0  0  0
  5  4  1  0  0  0  0
  6  1  1  0  0  0  0
  6  5  1  0  0  0  0
  8  2  1  0  0  0  0
 10  4  1  0  0  0  0
 12  5  1  0  0  0  0
 13  6  1  0  0  0  0
 14  6  1  0  0  0  0
 15  1  1  0  0  0  0
 15 16  1  0  0  0  0
 16 21  1  0  0  0  0
 17 16  2  0  0  0  0
 17 22  1  0  0  0  0
 18 17  1  0  0  0  0
 19 20  1  0  0  0  0
 19 18  2  0  0  0  0
 20 15  2  0  0  0  0
 23 19  1  0  0  0  0
 24 31  1  0  0  0  0
 25 24  2  0  0  0  0
 25 27  1  0  0  0  0
 26 25  1  0  0  0  0
 27 29  1  0  0  0  0
 28 27  1  0  0  0  0
 29 30  1  0  0  0  0
 31 29  2  0  0  0  0
M  END
>  <minimizedAffinity>
-4.49830341

$$$$

 OpenBabel03272508393D

 31 33  0  0  1  0  0  0  0  0999 V2000
   38.4480   23.6150   34.3380 N   0  0  0  0  0  0  0  0  0  0  0  0
   38.0950   24.8520   33.6710 C   0  0  0  0  0  0  0  0  0  0  0  0
   37.0080   24.6900   32.6710 C   0  0  2  0  0  0  0  0  0  0  0  0
   36.9910   23.4780   31.9340 N   0  0  0  0  0  0  0  0  0  0  0  0
   37.1690   22.3300   32.8320 C   0  0  0  0  0  0  0  0  0  0  0  0
   38.5500   22.5260   33.4030 C   0  0  0  0  0  0  0  0  0  0  0  0
   37.7690   25.5520   34.4670 H   0  0  0  0  0  0  0  0  0  0  0  0
   38.9890   25.2950   33.1430 H   0  0  0  0  0  0  0  0  0  0  0  0
   36.0420   24.7060   33.2570 H   0  0  0  0  0  0  0  0  0  0  0  0
   37.8450   23.4570   31.3190 H   0  0  0  0  0  0  0  0  0  0  0  0
   36.4240   22.5090   33.6560 H   0  0  0  0  0  0  0  0  0  0  0  0
   37.0190   21.3830   32.3100 H   0  0  0  0  0  0  0  0  0  0  0  0
   38.8540   21.6210   33.9450 H   0  0  0  0  0  0  0  0  0  0  0  0
   39.2790   22.7920   32.5980 H   0  0  0  0  0  0  0  0  0  0  0  0
   38.6660   23.5030   35.7420 C   0  0  0  0  0  0  0  0  0  0  0  0
   39.7420   22.8260   36.3080 C   0  0  0  0  0  0  0  0  0  0  0  0
   39.8510   22.7840   37.6950 C   0  0  0  0  0  0  0  0  0  0  0  0
   38.8920   23.4120   38.4400 N   0  0  0  0  0  0  0  0  0  0  0  0
   37.8620   24.0600   37.8550 C   0  0  0  0  0  0  0  0  0  0  0  0
   37.7270   24.1190   36.5150 N   0  0  0  0  0  0  0  0  0  0  0  0
   40.4480   22.3620   35.6650 H   0  0  0  0  0  0  0  0  0  0  0  0
   40.6870   22.2590   38.1440 H   0  0  0  0  0  0  0  0  0  0  0  0
   37.1160   24.5490   38.4890 H   0  0  0  0  0  0  0  0  0  0  0  0
   36.9790   25.8470   31.7500 C   0  0  0  0  0  0  0  0  0  0  0  0
   35.8800   26.2750   30.9950 C   0  0  0  0  0  0  0  0  0  0  0  0
   34.8980   25.7970   30.9970 H   0  0  0  0  0  0  0  0  0  0  0  0
   36.2650   27.3450   30.3020 N   0  0  0  0  0  0  0  0  0  0  0  0
   35.6060   27.8540   29.6500 H   0  0  0  0  0  0  0  0  0  0  0  0
   37.5590   27.6340   30.5670 C   0  0  0  0  0  0  0  0  0  0  0  0
   38.1230   28.4490   30.1430 H   0  0  0  0  0  0  0  0  0  0  0  0
   37.9790   26.7000   31.4610 N   0  0  0  0  0  0  0  0  0  0  0  0
  1 15  1  0  0  0  0
  2  1  1  0  0  0  0
  2  7  1  0  0  0  0
  3  9  1  1  0  0  0
  3  2  1  0  0  0  0
  4  3  1  0  0  0  0
  4  5  1  0  0  0  0
  5  6  1  0  0  0  0
  5 11  1  0  0  0  0
  6 13  1  0  0  0  0
  6  1  1  0  0  0  0
  8  2  1  0  0  0  0
 10  4  1  0  0  0  0
 12  5  1  0  0  0  0
 14  6  1  0  0  0  0
 15 16  2  0  0  0  0
 15 20  1  0  0  0  0
 16 17  1  0  0  0  0
 17 22  1  0  0  0  0
 17 18  2  0  0  0  0
 19 18  1  0  0  0  0
 19 23  1  0  0  0  0
 20 19  2  0  0  0  0
 21 16  1  0  0  0  0
 24  3  1  0  0  0  0
 25 26  1  0  0  0  0
 25 24  2  0  0  0  0
 27 29  1  0  0  0  0
 27 25  1  0  0  0  0
 28 27  1  0  0  0  0
 29 31  2  0  0  0  0
 30 29  1  0  0  0  0
 31 24  1  0  0  0  0
M  END
>  <minimizedAffinity>
-4.4837904

$$$$

 OpenBabel03272508393D

 31 33  0  0  1  0  0  0  0  0999 V2000
   36.0810   28.7930   32.8890 N   0  0  0  0  0  0  0  0  0  0  0  0
   35.6610   29.2620   34.1940 C   0  0  0  0  0  0  0  0  0  0  0  0
   34.5700   30.2690   34.1340 C   0  0  2  0  0  0  0  0  0  0  0  0
   34.6010   31.1820   33.0480 N   0  0  0  0  0  0  0  0  0  0  0  0
   34.8440   30.4700   31.7880 C   0  0  0  0  0  0  0  0  0  0  0  0
   36.2210   29.8830   31.9620 C   0  0  0  0  0  0  0  0  0  0  0  0
   35.3120   28.3660   34.7480 H   0  0  0  0  0  0  0  0  0  0  0  0
   36.5270   29.7200   34.7550 H   0  0  0  0  0  0  0  0  0  0  0  0
   33.6120   29.6810   34.0140 H   0  0  0  0  0  0  0  0  0  0  0  0
   35.4470   31.7980   33.1630 H   0  0  0  0  0  0  0  0  0  0  0  0
   34.1030   29.6240   31.8030 H   0  0  0  0  0  0  0  0  0  0  0  0
   34.7320   31.1300   30.9250 H   0  0  0  0  0  0  0  0  0  0  0  0
   36.5750   29.4880   31.0000 H   0  0  0  0  0  0  0  0  0  0  0  0
   36.9270   30.6430   32.3810 H   0  0  0  0  0  0  0  0  0  0  0  0
   36.3210   27.4240   32.5760 C   0  0  0  0  0  0  0  0  0  0  0  0
   37.1930   26.6070   33.2910 C   0  0  0  0  0  0  0  0  0  0  0  0
   37.3470   25.2830   32.8910 C   0  0  0  0  0  0  0  0  0  0  0  0
   36.6330   24.8440   31.8110 N   0  0  0  0  0  0  0  0  0  0  0  0
   35.7970   25.6660   31.1420 C   0  0  0  0  0  0  0  0  0  0  0  0
   35.6250   26.9540   31.5020 N   0  0  0  0  0  0  0  0  0  0  0  0
   37.7140   27.0180   34.1190 H   0  0  0  0  0  0  0  0  0  0  0  0
   38.0240   24.6390   33.4430 H   0  0  0  0  0  0  0  0  0  0  0  0
   35.2450   25.2740   30.2830 H   0  0  0  0  0  0  0  0  0  0  0  0
   34.4740   31.0020   35.4150 C   0  0  0  0  0  0  0  0  0  0  0  0
   35.5370   31.5810   36.1180 C   0  0  0  0  0  0  0  0  0  0  0  0
   36.5820   31.5600   35.7980 H   0  0  0  0  0  0  0  0  0  0  0  0
   35.0310   32.1420   37.2150 N   0  0  0  0  0  0  0  0  0  0  0  0
   35.6420   32.6480   37.9150 H   0  0  0  0  0  0  0  0  0  0  0  0
   33.6930   31.9570   37.2610 C   0  0  0  0  0  0  0  0  0  0  0  0
   33.0340   32.3070   38.0380 H   0  0  0  0  0  0  0  0  0  0  0  0
   33.3700   31.2530   36.1440 N   0  0  0  0  0  0  0  0  0  0  0  0
  1  2  1  0  0  0  0
  2  7  1  0  0  0  0
  2  8  1  0  0  0  0
  3  9  1  6  0  0  0
  3  2  1  0  0  0  0
  3 24  1  0  0  0  0
  4 10  1  0  0  0  0
  4  3  1  0  0  0  0
  5 11  1  0  0  0  0
  5  6  1  0  0  0  0
  5  4  1  0  0  0  0
  6 14  1  0  0  0  0
  6  1  1  0  0  0  0
 12  5  1  0  0  0  0
 13  6  1  0  0  0  0
 15  1  1  0  0  0  0
 15 16  1  0  0  0  0
 16 21  1  0  0  0  0
 17 16  2  0  0  0  0
 17 22  1  0  0  0  0
 18 17  1  0  0  0  0
 19 20  1  0  0  0  0
 19 18  2  0  0  0  0
 20 15  2  0  0  0  0
 23 19  1  0  0  0  0
 24 25  2  0  0  0  0
 24 31  1  0  0  0  0
 25 27  1  0  0  0  0
 26 25  1  0  0  0  0
 27 29  1  0  0  0  0
 27 28  1  0  0  0  0
 29 30  1  0  0  0  0
 31 29  2  0  0  0  0
M  END
>  <minimizedAffinity>
-4.48176575

$$$$
