
 OpenBabel03272510193D

 35 38  0  0  0  0  0  0  0  0999 V2000
   37.2370   29.3070   50.9700 Br  0  0  0  0  0  0  0  0  0  0  0  0
   35.9130   29.3180   49.6000 C   0  0  0  0  0  0  0  0  0  0  0  0
   35.9680   30.2470   48.5760 C   0  0  0  0  0  0  0  0  0  0  0  0
   34.9830   30.2030   47.6180 C   0  0  0  0  0  0  0  0  0  0  0  0
   33.9500   29.2710   47.6420 C   0  0  0  0  0  0  0  0  0  0  0  0
   33.9240   28.3720   48.6590 C   0  0  0  0  0  0  0  0  0  0  0  0
   34.9070   28.4060   49.6280 C   0  0  0  0  0  0  0  0  0  0  0  0
   34.9700   30.8990   46.7960 H   0  0  0  0  0  0  0  0  0  0  0  0
   33.1430   27.6170   48.7370 H   0  0  0  0  0  0  0  0  0  0  0  0
   34.8710   27.6910   50.4230 H   0  0  0  0  0  0  0  0  0  0  0  0
   37.9740   33.1680   49.4700 C   0  0  0  0  0  0  0  0  0  0  0  0
   39.0060   33.1650   48.4790 C   0  0  0  0  0  0  0  0  0  0  0  0
   38.9880   32.1600   47.5290 C   0  0  0  0  0  0  0  0  0  0  0  0
   37.9910   31.2230   47.5790 N   0  0  0  0  0  0  0  0  0  0  0  0
   37.0310   31.2400   48.5130 C   0  0  0  0  0  0  0  0  0  0  0  0
   37.0250   32.2230   49.4670 N   0  0  0  0  0  0  0  0  0  0  0  0
   37.9130   33.9030   50.2350 H   0  0  0  0  0  0  0  0  0  0  0  0
   39.7480   33.9430   48.5190 H   0  0  0  0  0  0  0  0  0  0  0  0
   39.7550   32.1320   46.7670 H   0  0  0  0  0  0  0  0  0  0  0  0
   32.9060   29.2220   46.6260 C   0  0  0  0  0  0  0  0  0  0  0  0
   32.3030   28.0770   46.1670 C   0  0  0  0  0  0  0  0  0  0  0  0
   31.3160   28.0770   45.2030 C   0  0  0  0  0  0  0  0  0  0  0  0
   30.9110   29.2280   44.6790 N   0  0  0  0  0  0  0  0  0  0  0  0
   31.4860   30.3790   45.1110 C   0  0  0  0  0  0  0  0  0  0  0  0
   32.4390   30.3520   46.0430 N   0  0  0  0  0  0  0  0  0  0  0  0
   32.6300   27.1280   46.5950 H   0  0  0  0  0  0  0  0  0  0  0  0
   30.8530   27.1660   44.8550 H   0  0  0  0  0  0  0  0  0  0  0  0
   31.1730   31.7460   44.6490 C   0  0  0  0  0  0  0  0  0  0  0  0
   31.6390   32.9070   45.2750 C   0  0  0  0  0  0  0  0  0  0  0  0
   32.2600   32.9910   46.1390 H   0  0  0  0  0  0  0  0  0  0  0  0
   31.1450   33.9600   44.5700 N   0  0  0  0  0  0  0  0  0  0  0  0
   31.3140   34.9610   44.7870 H   0  0  0  0  0  0  0  0  0  0  0  0
   30.4000   33.4920   43.5410 C   0  0  0  0  0  0  0  0  0  0  0  0
   29.8580   34.0370   42.7780 H   0  0  0  0  0  0  0  0  0  0  0  0
   30.4250   32.1470   43.6010 N   0  0  0  0  0  0  0  0  0  0  0  0
  2  7  1  0  0  0  0
  2  1  1  0  0  0  0
  3  2  2  0  0  0  0
  4  5  2  0  0  0  0
  4  3  1  0  0  0  0
  5  6  1  0  0  0  0
  6  9  1  0  0  0  0
  6  7  2  0  0  0  0
  7 10  1  0  0  0  0
  8  4  1  0  0  0  0
 11 17  1  0  0  0  0
 12 18  1  0  0  0  0
 12 11  2  0  0  0  0
 13 14  2  0  0  0  0
 13 12  1  0  0  0  0
 14 15  1  0  0  0  0
 15  3  1  0  0  0  0
 15 16  2  0  0  0  0
 16 11  1  0  0  0  0
 19 13  1  0  0  0  0
 20  5  1  0  0  0  0
 21 26  1  0  0  0  0
 21 20  1  0  0  0  0
 22 21  2  0  0  0  0
 23 24  2  0  0  0  0
 23 22  1  0  0  0  0
 24 25  1  0  0  0  0
 25 20  2  0  0  0  0
 27 22  1  0  0  0  0
 28 24  1  0  0  0  0
 28 29  2  0  0  0  0
 29 30  1  0  0  0  0
 31 32  1  0  0  0  0
 31 29  1  0  0  0  0
 33 35  2  0  0  0  0
 33 31  1  0  0  0  0
 34 33  1  0  0  0  0
 35 28  1  0  0  0  0
M  END
>  <minimizedAffinity>
-6.53757477

>  <minimizedRMSD>
0.207769766

$$$$
