
 OpenBabel03272500463D

 31 34  0  0  1  0  0  0  0  0999 V2000
   33.4610   29.0060   47.3820 C   0  0  0  0  0  0  0  0  0  0  0  0
   34.1210   29.2380   46.1860 C   0  0  0  0  0  0  0  0  0  0  0  0
   35.2770   29.9850   46.4750 C   0  0  0  0  0  0  0  0  0  0  0  0
   35.2850   30.1830   47.7990 N   0  0  0  0  0  0  0  0  0  0  0  0
   34.2180   29.6000   48.2890 N   0  0  0  0  0  0  0  0  0  0  0  0
   33.7870   28.8900   45.2000 H   0  0  0  0  0  0  0  0  0  0  0  0
   35.9930   30.3150   45.7240 H   0  0  0  0  0  0  0  0  0  0  0  0
   32.0180   27.2530   48.4530 C   0  0  0  0  0  0  0  0  0  0  0  0
   32.2310   28.2690   47.4880 C   0  0  0  0  0  0  0  0  0  0  0  0
   31.1830   28.5350   46.6280 C   0  0  0  0  0  0  0  0  0  0  0  0
   30.0280   27.8250   46.7470 N   0  0  0  0  0  0  0  0  0  0  0  0
   29.8750   26.8690   47.6810 C   0  0  0  0  0  0  0  0  0  0  0  0
   30.8830   26.5720   48.5530 N   0  0  0  0  0  0  0  0  0  0  0  0
   32.8740   27.0720   49.1190 H   0  0  0  0  0  0  0  0  0  0  0  0
   31.2550   29.2970   45.8570 H   0  0  0  0  0  0  0  0  0  0  0  0
   28.9480   26.2990   47.7760 H   0  0  0  0  0  0  0  0  0  0  0  0
   36.2900   30.9050   48.5470 C   0  0  1  0  0  0  0  0  0  0  0  0
   37.4460   30.0650   49.1690 C   0  0  0  0  0  0  0  0  0  0  0  0
   37.6560   31.0190   48.0360 C   0  0  2  0  0  0  0  0  0  0  0  0
   35.8890   31.6550   49.2790 H   0  0  0  0  0  0  0  0  0  0  0  0
   37.3580   28.9720   48.9340 H   0  0  0  0  0  0  0  0  0  0  0  0
   37.7500   30.2830   50.1940 H   0  0  0  0  0  0  0  0  0  0  0  0
   37.8770   30.5280   47.0650 H   0  0  0  0  0  0  0  0  0  0  0  0
   38.4330   32.2740   48.2890 C   0  0  0  0  0  0  0  0  0  0  0  0
   39.2190   32.9240   47.3340 C   0  0  0  0  0  0  0  0  0  0  0  0
   39.4020   32.6550   46.2930 H   0  0  0  0  0  0  0  0  0  0  0  0
   39.7750   34.0180   47.8970 N   0  0  0  0  0  0  0  0  0  0  0  0
   40.4160   34.6950   47.4050 H   0  0  0  0  0  0  0  0  0  0  0  0
   39.3560   34.0680   49.1810 C   0  0  0  0  0  0  0  0  0  0  0  0
   39.6100   34.8200   49.9300 H   0  0  0  0  0  0  0  0  0  0  0  0
   38.5430   33.0170   49.4280 N   0  0  0  0  0  0  0  0  0  0  0  0
  1  9  1  0  0  0  0
  1  5  2  0  0  0  0
  2  3  2  0  0  0  0
  2  1  1  0  0  0  0
  3  4  1  0  0  0  0
  4  5  1  0  0  0  0
  4 17  1  0  0  0  0
  6  2  1  0  0  0  0
  7  3  1  0  0  0  0
  8 13  1  0  0  0  0
  8 14  1  0  0  0  0
  9  8  2  0  0  0  0
 10 11  2  0  0  0  0
 10  9  1  0  0  0  0
 11 12  1  0  0  0  0
 12 16  1  0  0  0  0
 12 13  2  0  0  0  0
 15 10  1  0  0  0  0
 17 18  1  0  0  0  0
 17 20  1  1  0  0  0
 18 22  1  0  0  0  0
 19 23  1  6  0  0  0
 19 24  1  0  0  0  0
 19 17  1  0  0  0  0
 19 18  1  0  0  0  0
 21 18  1  0  0  0  0
 24 31  1  0  0  0  0
 25 27  1  0  0  0  0
 25 24  2  0  0  0  0
 26 25  1  0  0  0  0
 27 29  1  0  0  0  0
 28 27  1  0  0  0  0
 29 31  2  0  0  0  0
 29 30  1  0  0  0  0
M  END
>  <minimizedAffinity>
-5.18098259

>  <minimizedRMSD>
4.05429506

$$$$
