
 OpenBabel03272500293D

 27 29  0  0  0  0  0  0  0  0999 V2000
   36.4060   30.4030   46.4190 Cl  0  0  0  0  0  0  0  0  0  0  0  0
   36.8310   30.4790   48.1200 C   0  0  0  0  0  0  0  0  0  0  0  0
   38.0490   31.0730   48.4230 C   0  0  0  0  0  0  0  0  0  0  0  0
   38.4060   31.1430   49.7650 C   0  0  0  0  0  0  0  0  0  0  0  0
   37.5580   30.6340   50.7170 C   0  0  0  0  0  0  0  0  0  0  0  0
   36.3780   30.0640   50.3510 C   0  0  0  0  0  0  0  0  0  0  0  0
   35.9660   29.9620   49.0550 C   0  0  0  0  0  0  0  0  0  0  0  0
   39.3570   31.6040   50.0340 H   0  0  0  0  0  0  0  0  0  0  0  0
   37.8210   30.6810   51.7660 H   0  0  0  0  0  0  0  0  0  0  0  0
   35.7300   29.6700   51.1360 H   0  0  0  0  0  0  0  0  0  0  0  0
   39.9730   33.4570   46.4510 C   0  0  0  0  0  0  0  0  0  0  0  0
   40.5310   32.6850   45.4230 C   0  0  0  0  0  0  0  0  0  0  0  0
   40.2320   31.3220   45.4170 C   0  0  0  0  0  0  0  0  0  0  0  0
   39.4290   30.8340   46.3980 N   0  0  0  0  0  0  0  0  0  0  0  0
   38.9180   31.6020   47.3620 C   0  0  0  0  0  0  0  0  0  0  0  0
   39.1900   32.9190   47.3880 N   0  0  0  0  0  0  0  0  0  0  0  0
   40.1500   34.5220   46.5340 H   0  0  0  0  0  0  0  0  0  0  0  0
   41.1590   33.1830   44.6900 H   0  0  0  0  0  0  0  0  0  0  0  0
   40.6470   30.7240   44.6450 H   0  0  0  0  0  0  0  0  0  0  0  0
   34.6960   29.3480   48.6770 C   0  0  0  0  0  0  0  0  0  0  0  0
   33.8040   28.8050   49.5790 C   0  0  0  0  0  0  0  0  0  0  0  0
   33.8450   28.7220   50.6680 H   0  0  0  0  0  0  0  0  0  0  0  0
   32.7370   28.3230   48.9140 N   0  0  0  0  0  0  0  0  0  0  0  0
   31.8450   27.8420   49.1660 H   0  0  0  0  0  0  0  0  0  0  0  0
   32.9470   28.5560   47.6030 C   0  0  0  0  0  0  0  0  0  0  0  0
   32.3960   28.3620   46.6800 H   0  0  0  0  0  0  0  0  0  0  0  0
   34.1340   29.1780   47.4500 N   0  0  0  0  0  0  0  0  0  0  0  0
  1  2  1  0  0  0  0
  2  3  2  0  0  0  0
  2  7  1  0  0  0  0
  3  4  1  0  0  0  0
  4  8  1  0  0  0  0
  4  5  2  0  0  0  0
  5  9  1  0  0  0  0
  6  5  1  0  0  0  0
  6 10  1  0  0  0  0
  7  6  2  0  0  0  0
 11 17  1  0  0  0  0
 11 16  1  0  0  0  0
 12 11  2  0  0  0  0
 13 12  1  0  0  0  0
 13 14  2  0  0  0  0
 14 15  1  0  0  0  0
 15 16  2  0  0  0  0
 15  3  1  0  0  0  0
 18 12  1  0  0  0  0
 19 13  1  0  0  0  0
 20  7  1  0  0  0  0
 20 21  2  0  0  0  0
 21 22  1  0  0  0  0
 23 24  1  0  0  0  0
 23 21  1  0  0  0  0
 25 23  1  0  0  0  0
 26 25  1  0  0  0  0
 27 25  2  0  0  0  0
 27 20  1  0  0  0  0
M  END
>  <minimizedAffinity>
-6.27286291

>  <minimizedRMSD>
0.214957133

$$$$
