
 OpenBabel03272510193D

 35 38  0  0  0  0  0  0  0  0999 V2000
   37.4450   29.1580   50.8190 Br  0  0  0  0  0  0  0  0  0  0  0  0
   36.0430   29.3090   49.5380 C   0  0  0  0  0  0  0  0  0  0  0  0
   36.0420   30.3380   48.6130 C   0  0  0  0  0  0  0  0  0  0  0  0
   35.0030   30.3920   47.7150 C   0  0  0  0  0  0  0  0  0  0  0  0
   33.9680   29.4620   47.7050 C   0  0  0  0  0  0  0  0  0  0  0  0
   33.9970   28.4630   48.6240 C   0  0  0  0  0  0  0  0  0  0  0  0
   35.0350   28.3980   49.5320 C   0  0  0  0  0  0  0  0  0  0  0  0
   34.9450   31.1680   46.9710 H   0  0  0  0  0  0  0  0  0  0  0  0
   33.2180   27.7030   48.6710 H   0  0  0  0  0  0  0  0  0  0  0  0
   35.0420   27.6050   50.2500 H   0  0  0  0  0  0  0  0  0  0  0  0
   38.0170   33.2540   49.5890 C   0  0  0  0  0  0  0  0  0  0  0  0
   39.0780   33.2610   48.6290 C   0  0  0  0  0  0  0  0  0  0  0  0
   39.0890   32.2640   47.6700 C   0  0  0  0  0  0  0  0  0  0  0  0
   38.0920   31.3250   47.6840 N   0  0  0  0  0  0  0  0  0  0  0  0
   37.1060   31.3330   48.5900 C   0  0  0  0  0  0  0  0  0  0  0  0
   37.0700   32.3080   49.5500 N   0  0  0  0  0  0  0  0  0  0  0  0
   37.9330   33.9830   50.3580 H   0  0  0  0  0  0  0  0  0  0  0  0
   39.8170   34.0390   48.6970 H   0  0  0  0  0  0  0  0  0  0  0  0
   39.8780   32.2420   46.9310 H   0  0  0  0  0  0  0  0  0  0  0  0
   32.8650   29.5160   46.7530 C   0  0  0  0  0  0  0  0  0  0  0  0
   31.9690   28.5020   46.5230 C   0  0  0  0  0  0  0  0  0  0  0  0
   30.9380   28.5980   45.6110 C   0  0  0  0  0  0  0  0  0  0  0  0
   30.7830   29.7160   44.9100 N   0  0  0  0  0  0  0  0  0  0  0  0
   31.6520   30.7380   45.1140 C   0  0  0  0  0  0  0  0  0  0  0  0
   32.6410   30.6210   46.0010 N   0  0  0  0  0  0  0  0  0  0  0  0
   32.0900   27.5820   47.0970 H   0  0  0  0  0  0  0  0  0  0  0  0
   30.2420   27.7890   45.4450 H   0  0  0  0  0  0  0  0  0  0  0  0
   31.6420   32.0480   44.4340 C   0  0  0  0  0  0  0  0  0  0  0  0
   32.4630   32.3710   43.3490 C   0  0  0  0  0  0  0  0  0  0  0  0
   33.1880   31.7580   42.8610 H   0  0  0  0  0  0  0  0  0  0  0  0
   32.1720   33.6520   43.0000 N   0  0  0  0  0  0  0  0  0  0  0  0
   32.6160   34.1810   42.2250 H   0  0  0  0  0  0  0  0  0  0  0  0
   31.2090   34.1250   43.8250 C   0  0  0  0  0  0  0  0  0  0  0  0
   30.7330   35.0980   43.8440 H   0  0  0  0  0  0  0  0  0  0  0  0
   30.8970   33.1420   44.6910 N   0  0  0  0  0  0  0  0  0  0  0  0
  2  1  1  0  0  0  0
  3  2  2  0  0  0  0
  4  3  1  0  0  0  0
  5  4  2  0  0  0  0
  5  6  1  0  0  0  0
  6  9  1  0  0  0  0
  6  7  2  0  0  0  0
  7  2  1  0  0  0  0
  7 10  1  0  0  0  0
  8  4  1  0  0  0  0
 11 17  1  0  0  0  0
 12 18  1  0  0  0  0
 12 11  2  0  0  0  0
 13 14  2  0  0  0  0
 13 12  1  0  0  0  0
 14 15  1  0  0  0  0
 15  3  1  0  0  0  0
 15 16  2  0  0  0  0
 16 11  1  0  0  0  0
 19 13  1  0  0  0  0
 20  5  1  0  0  0  0
 21 20  1  0  0  0  0
 21 26  1  0  0  0  0
 22 21  2  0  0  0  0
 23 24  2  0  0  0  0
 23 22  1  0  0  0  0
 24 25  1  0  0  0  0
 25 20  2  0  0  0  0
 27 22  1  0  0  0  0
 28 35  1  0  0  0  0
 28 24  1  0  0  0  0
 29 28  2  0  0  0  0
 30 29  1  0  0  0  0
 31 29  1  0  0  0  0
 31 33  1  0  0  0  0
 32 31  1  0  0  0  0
 33 34  1  0  0  0  0
 33 35  2  0  0  0  0
M  END
>  <minimizedAffinity>
-6.39178801

>  <minimizedRMSD>
0.49257794

$$$$
