
 OpenBabel03262523233D

 32 34  0  0  1  0  0  0  0  0999 V2000
   38.5580   22.6990   35.9370 C   0  0  0  0  0  0  0  0  0  0  0  0
   39.9080   22.5740   35.5780 C   0  0  0  0  0  0  0  0  0  0  0  0
   40.2090   22.0030   34.3350 C   0  0  0  0  0  0  0  0  0  0  0  0
   39.1750   21.6000   33.5470 N   0  0  0  0  0  0  0  0  0  0  0  0
   37.8820   21.7370   33.9310 C   0  0  0  0  0  0  0  0  0  0  0  0
   37.5740   22.2810   35.1140 N   0  0  0  0  0  0  0  0  0  0  0  0
   36.8390   21.2890   33.0480 N   0  0  0  0  0  0  0  0  0  0  0  0
   35.7140   20.5340   33.5880 C   0  0  0  0  0  0  0  0  0  0  0  0
   35.1610   19.5340   32.5960 C   0  0  0  0  0  0  0  0  0  0  0  0
   36.1950   19.2810   31.5370 C   0  0  0  0  0  0  0  0  0  0  0  0
   36.2890   20.5850   30.7570 C   0  0  0  0  0  0  0  0  0  0  0  0
   36.9330   21.6030   31.6350 C   0  0  1  0  0  0  0  0  0  0  0  0
   38.2370   23.1300   36.8820 H   0  0  0  0  0  0  0  0  0  0  0  0
   40.6690   22.9170   36.2550 H   0  0  0  0  0  0  0  0  0  0  0  0
   41.2400   21.8910   34.0240 H   0  0  0  0  0  0  0  0  0  0  0  0
   34.9350   21.1810   34.0410 H   0  0  0  0  0  0  0  0  0  0  0  0
   36.1390   19.9260   34.4360 H   0  0  0  0  0  0  0  0  0  0  0  0
   34.8370   18.5980   33.0920 H   0  0  0  0  0  0  0  0  0  0  0  0
   34.2950   20.0190   32.0990 H   0  0  0  0  0  0  0  0  0  0  0  0
   35.9790   18.4140   30.9020 H   0  0  0  0  0  0  0  0  0  0  0  0
   37.1760   19.1660   32.0330 H   0  0  0  0  0  0  0  0  0  0  0  0
   35.2250   20.9110   30.6020 H   0  0  0  0  0  0  0  0  0  0  0  0
   36.7350   20.4730   29.7700 H   0  0  0  0  0  0  0  0  0  0  0  0
   38.0370   21.5230   31.4050 H   0  0  0  0  0  0  0  0  0  0  0  0
   36.5680   22.9930   31.3090 C   0  0  0  0  0  0  0  0  0  0  0  0
   37.3440   23.9660   30.6700 C   0  0  0  0  0  0  0  0  0  0  0  0
   38.3510   23.7150   30.3540 H   0  0  0  0  0  0  0  0  0  0  0  0
   36.6250   25.1000   30.5720 N   0  0  0  0  0  0  0  0  0  0  0  0
   37.1070   25.9080   30.1060 H   0  0  0  0  0  0  0  0  0  0  0  0
   35.4310   24.8580   31.1300 C   0  0  0  0  0  0  0  0  0  0  0  0
   34.7150   25.6770   31.1370 H   0  0  0  0  0  0  0  0  0  0  0  0
   35.3920   23.5910   31.5750 N   0  0  0  0  0  0  0  0  0  0  0  0
  1 13  1  0  0  0  0
  2  1  1  0  0  0  0
  2 14  1  0  0  0  0
  3  2  2  0  0  0  0
  4  5  2  0  0  0  0
  4  3  1  0  0  0  0
  5  6  1  0  0  0  0
  6  1  2  0  0  0  0
  7  8  1  0  0  0  0
  7  5  1  0  0  0  0
  8 16  1  0  0  0  0
  8 17  1  0  0  0  0
  9 18  1  0  0  0  0
  9  8  1  0  0  0  0
 10 21  1  0  0  0  0
 10  9  1  0  0  0  0
 11 10  1  0  0  0  0
 11 12  1  0  0  0  0
 12 24  1  6  0  0  0
 12  7  1  0  0  0  0
 15  3  1  0  0  0  0
 19  9  1  0  0  0  0
 20 10  1  0  0  0  0
 22 11  1  0  0  0  0
 23 11  1  0  0  0  0
 25 32  1  0  0  0  0
 25 12  1  0  0  0  0
 26 25  2  0  0  0  0
 27 26  1  0  0  0  0
 28 26  1  0  0  0  0
 28 30  1  0  0  0  0
 29 28  1  0  0  0  0
 30 31  1  0  0  0  0
 30 32  2  0  0  0  0
M  END
>  <minimizedAffinity>
-4.88534355

$$$$

 OpenBabel03262523233D

 32 34  0  0  1  0  0  0  0  0999 V2000
   37.0240   26.0310   33.1340 C   0  0  0  0  0  0  0  0  0  0  0  0
   36.6490   24.9720   32.2950 C   0  0  0  0  0  0  0  0  0  0  0  0
   37.4630   23.8330   32.2660 C   0  0  0  0  0  0  0  0  0  0  0  0
   38.5740   23.8190   33.0530 N   0  0  0  0  0  0  0  0  0  0  0  0
   38.9030   24.8640   33.8510 C   0  0  0  0  0  0  0  0  0  0  0  0
   38.1370   25.9600   33.8930 N   0  0  0  0  0  0  0  0  0  0  0  0
   40.0910   24.7820   34.6560 N   0  0  0  0  0  0  0  0  0  0  0  0
   40.9880   25.9300   34.7360 C   0  0  0  0  0  0  0  0  0  0  0  0
   42.4330   25.5220   34.9220 C   0  0  0  0  0  0  0  0  0  0  0  0
   42.5870   24.0850   34.5110 C   0  0  0  0  0  0  0  0  0  0  0  0
   41.8240   23.2900   35.5630 C   0  0  0  0  0  0  0  0  0  0  0  0
   40.3680   23.5520   35.3750 C   0  0  1  0  0  0  0  0  0  0  0  0
   36.4490   26.9500   33.2170 H   0  0  0  0  0  0  0  0  0  0  0  0
   35.7560   25.0570   31.7030 H   0  0  0  0  0  0  0  0  0  0  0  0
   37.2050   22.9960   31.6300 H   0  0  0  0  0  0  0  0  0  0  0  0
   40.6500   26.6940   35.4650 H   0  0  0  0  0  0  0  0  0  0  0  0
   40.9340   26.4250   33.7250 H   0  0  0  0  0  0  0  0  0  0  0  0
   43.1240   26.1870   34.3680 H   0  0  0  0  0  0  0  0  0  0  0  0
   42.6460   25.5760   36.0100 H   0  0  0  0  0  0  0  0  0  0  0  0
   43.6280   23.7620   34.4000 H   0  0  0  0  0  0  0  0  0  0  0  0
   42.0290   23.9330   33.5700 H   0  0  0  0  0  0  0  0  0  0  0  0
   42.1160   23.7500   36.5450 H   0  0  0  0  0  0  0  0  0  0  0  0
   42.1060   22.2400   35.6070 H   0  0  0  0  0  0  0  0  0  0  0  0
   40.0180   22.7360   34.6740 H   0  0  0  0  0  0  0  0  0  0  0  0
   39.5660   23.3840   36.5980 C   0  0  0  0  0  0  0  0  0  0  0  0
   39.9320   22.7620   37.7960 C   0  0  0  0  0  0  0  0  0  0  0  0
   40.9240   22.3310   37.8860 H   0  0  0  0  0  0  0  0  0  0  0  0
   38.8980   22.8310   38.6560 N   0  0  0  0  0  0  0  0  0  0  0  0
   39.0560   22.3940   39.5970 H   0  0  0  0  0  0  0  0  0  0  0  0
   37.9060   23.4760   38.0270 C   0  0  0  0  0  0  0  0  0  0  0  0
   36.9820   23.6220   38.5820 H   0  0  0  0  0  0  0  0  0  0  0  0
   38.3040   23.8110   36.7880 N   0  0  0  0  0  0  0  0  0  0  0  0
  1 13  1  0  0  0  0
  1  6  1  0  0  0  0
  2  1  2  0  0  0  0
  3  2  1  0  0  0  0
  3  4  2  0  0  0  0
  4  5  1  0  0  0  0
  5  6  2  0  0  0  0
  5  7  1  0  0  0  0
  7  8  1  0  0  0  0
  7 12  1  0  0  0  0
  8  9  1  0  0  0  0
  8 16  1  0  0  0  0
  9 19  1  0  0  0  0
 10  9  1  0  0  0  0
 10 11  1  0  0  0  0
 11 23  1  0  0  0  0
 11 22  1  0  0  0  0
 12 24  1  6  0  0  0
 12 11  1  0  0  0  0
 12 25  1  0  0  0  0
 14  2  1  0  0  0  0
 15  3  1  0  0  0  0
 17  8  1  0  0  0  0
 18  9  1  0  0  0  0
 20 10  1  0  0  0  0
 21 10  1  0  0  0  0
 25 32  1  0  0  0  0
 25 26  2  0  0  0  0
 26 27  1  0  0  0  0
 26 28  1  0  0  0  0
 28 29  1  0  0  0  0
 30 31  1  0  0  0  0
 30 28  1  0  0  0  0
 32 30  2  0  0  0  0
M  END
>  <minimizedAffinity>
-4.69207478

$$$$

 OpenBabel03262523233D

 32 34  0  0  1  0  0  0  0  0999 V2000
   37.0710   27.0340   34.3320 C   0  0  0  0  0  0  0  0  0  0  0  0
   38.0460   27.2720   33.3520 C   0  0  0  0  0  0  0  0  0  0  0  0
   39.1410   26.4030   33.2860 C   0  0  0  0  0  0  0  0  0  0  0  0
   39.1990   25.3750   34.1780 N   0  0  0  0  0  0  0  0  0  0  0  0
   38.2360   25.1790   35.1120 C   0  0  0  0  0  0  0  0  0  0  0  0
   37.1820   25.9980   35.1900 N   0  0  0  0  0  0  0  0  0  0  0  0
   38.3610   24.0730   36.0230 N   0  0  0  0  0  0  0  0  0  0  0  0
   38.0750   24.2720   37.4400 C   0  0  0  0  0  0  0  0  0  0  0  0
   38.9150   23.3800   38.3280 C   0  0  0  0  0  0  0  0  0  0  0  0
   40.1020   22.8970   37.5450 C   0  0  0  0  0  0  0  0  0  0  0  0
   39.5250   21.9580   36.4930 C   0  0  0  0  0  0  0  0  0  0  0  0
   38.7690   22.7810   35.5060 C   0  0  1  0  0  0  0  0  0  0  0  0
   36.1900   27.6590   34.4520 H   0  0  0  0  0  0  0  0  0  0  0  0
   37.9290   28.1050   32.6830 H   0  0  0  0  0  0  0  0  0  0  0  0
   39.9130   26.5560   32.5430 H   0  0  0  0  0  0  0  0  0  0  0  0
   36.9920   24.2310   37.6730 H   0  0  0  0  0  0  0  0  0  0  0  0
   38.3990   25.3280   37.6670 H   0  0  0  0  0  0  0  0  0  0  0  0
   39.2150   23.8950   39.2620 H   0  0  0  0  0  0  0  0  0  0  0  0
   38.2950   22.4910   38.5680 H   0  0  0  0  0  0  0  0  0  0  0  0
   40.8790   22.4280   38.1600 H   0  0  0  0  0  0  0  0  0  0  0  0
   40.5140   23.7510   36.9800 H   0  0  0  0  0  0  0  0  0  0  0  0
   38.7730   21.3300   37.0420 H   0  0  0  0  0  0  0  0  0  0  0  0
   40.2580   21.2770   36.0660 H   0  0  0  0  0  0  0  0  0  0  0  0
   39.5240   23.0290   34.7010 H   0  0  0  0  0  0  0  0  0  0  0  0
   37.6920   22.0490   34.8160 C   0  0  0  0  0  0  0  0  0  0  0  0
   37.5080   21.8720   33.4410 C   0  0  0  0  0  0  0  0  0  0  0  0
   38.2220   22.3090   32.7510 H   0  0  0  0  0  0  0  0  0  0  0  0
   36.3960   21.1380   33.2420 N   0  0  0  0  0  0  0  0  0  0  0  0
   36.1530   20.9370   32.2420 H   0  0  0  0  0  0  0  0  0  0  0  0
   35.8890   20.8580   34.4510 C   0  0  0  0  0  0  0  0  0  0  0  0
   34.9780   20.2640   34.4780 H   0  0  0  0  0  0  0  0  0  0  0  0
   36.6660   21.4040   35.4020 N   0  0  0  0  0  0  0  0  0  0  0  0
  1 13  1  0  0  0  0
  1  6  1  0  0  0  0
  2  1  2  0  0  0  0
  3  2  1  0  0  0  0
  3  4  2  0  0  0  0
  4  5  1  0  0  0  0
  5  6  2  0  0  0  0
  5  7  1  0  0  0  0
  7  8  1  0  0  0  0
  8 17  1  0  0  0  0
  8 16  1  0  0  0  0
  8  9  1  0  0  0  0
  9 19  1  0  0  0  0
  9 18  1  0  0  0  0
 10 20  1  0  0  0  0
 10  9  1  0  0  0  0
 11 22  1  0  0  0  0
 11 10  1  0  0  0  0
 12 24  1  6  0  0  0
 12  7  1  0  0  0  0
 12 11  1  0  0  0  0
 14  2  1  0  0  0  0
 15  3  1  0  0  0  0
 21 10  1  0  0  0  0
 23 11  1  0  0  0  0
 25 32  1  0  0  0  0
 25 12  1  0  0  0  0
 26 25  2  0  0  0  0
 27 26  1  0  0  0  0
 28 26  1  0  0  0  0
 28 30  1  0  0  0  0
 29 28  1  0  0  0  0
 30 31  1  0  0  0  0
 30 32  2  0  0  0  0
M  END
>  <minimizedAffinity>
-4.60773849

$$$$

 OpenBabel03262523233D

 32 34  0  0  1  0  0  0  0  0999 V2000
   36.0290   25.3740   31.7900 C   0  0  0  0  0  0  0  0  0  0  0  0
   36.2240   24.2960   30.9140 C   0  0  0  0  0  0  0  0  0  0  0  0
   37.3970   23.5440   31.0440 C   0  0  0  0  0  0  0  0  0  0  0  0
   38.2850   23.9020   32.0130 N   0  0  0  0  0  0  0  0  0  0  0  0
   38.0600   24.9510   32.8400 C   0  0  0  0  0  0  0  0  0  0  0  0
   36.9450   25.6820   32.7320 N   0  0  0  0  0  0  0  0  0  0  0  0
   39.0400   25.2740   33.8420 N   0  0  0  0  0  0  0  0  0  0  0  0
   39.4160   26.6660   34.0610 C   0  0  0  0  0  0  0  0  0  0  0  0
   40.8560   26.8140   34.5020 C   0  0  0  0  0  0  0  0  0  0  0  0
   41.6010   25.5600   34.1450 C   0  0  0  0  0  0  0  0  0  0  0  0
   41.0270   24.4850   35.0590 C   0  0  0  0  0  0  0  0  0  0  0  0
   39.6330   24.1980   34.6160 C   0  0  1  0  0  0  0  0  0  0  0  0
   35.1470   26.0080   31.7580 H   0  0  0  0  0  0  0  0  0  0  0  0
   35.4760   24.0760   30.1740 H   0  0  0  0  0  0  0  0  0  0  0  0
   37.5810   22.7050   30.3850 H   0  0  0  0  0  0  0  0  0  0  0  0
   38.7000   27.2120   34.7080 H   0  0  0  0  0  0  0  0  0  0  0  0
   39.3500   27.1580   33.0480 H   0  0  0  0  0  0  0  0  0  0  0  0
   41.3290   27.7160   34.0670 H   0  0  0  0  0  0  0  0  0  0  0  0
   40.8470   26.8860   35.6090 H   0  0  0  0  0  0  0  0  0  0  0  0
   42.6910   25.6520   34.2220 H   0  0  0  0  0  0  0  0  0  0  0  0
   41.3070   25.2610   33.1230 H   0  0  0  0  0  0  0  0  0  0  0  0
   40.9570   24.9690   36.0700 H   0  0  0  0  0  0  0  0  0  0  0  0
   41.6700   23.6130   35.1660 H   0  0  0  0  0  0  0  0  0  0  0  0
   39.7360   23.3490   33.8770 H   0  0  0  0  0  0  0  0  0  0  0  0
   38.7590   23.6820   35.6830 C   0  0  0  0  0  0  0  0  0  0  0  0
   38.1470   22.4270   35.7700 C   0  0  0  0  0  0  0  0  0  0  0  0
   38.3060   21.7050   34.9760 H   0  0  0  0  0  0  0  0  0  0  0  0
   37.4340   22.3700   36.9110 N   0  0  0  0  0  0  0  0  0  0  0  0
   36.9260   21.4690   37.0880 H   0  0  0  0  0  0  0  0  0  0  0  0
   37.5850   23.5490   37.5290 C   0  0  0  0  0  0  0  0  0  0  0  0
   37.0700   23.6790   38.4780 H   0  0  0  0  0  0  0  0  0  0  0  0
   38.3820   24.3430   36.7930 N   0  0  0  0  0  0  0  0  0  0  0  0
  1  6  1  0  0  0  0
  2  3  1  0  0  0  0
  2  1  2  0  0  0  0
  3  4  2  0  0  0  0
  4  5  1  0  0  0  0
  5  7  1  0  0  0  0
  6  5  2  0  0  0  0
  7  8  1  0  0  0  0
  7 12  1  0  0  0  0
  8  9  1  0  0  0  0
  8 16  1  0  0  0  0
  9 19  1  0  0  0  0
 10 20  1  0  0  0  0
 10  9  1  0  0  0  0
 10 11  1  0  0  0  0
 11 23  1  0  0  0  0
 11 22  1  0  0  0  0
 12 24  1  6  0  0  0
 12 11  1  0  0  0  0
 12 25  1  0  0  0  0
 13  1  1  0  0  0  0
 14  2  1  0  0  0  0
 15  3  1  0  0  0  0
 17  8  1  0  0  0  0
 18  9  1  0  0  0  0
 21 10  1  0  0  0  0
 25 26  2  0  0  0  0
 25 32  1  0  0  0  0
 26 28  1  0  0  0  0
 27 26  1  0  0  0  0
 28 29  1  0  0  0  0
 28 30  1  0  0  0  0
 30 31  1  0  0  0  0
 32 30  2  0  0  0  0
M  END
>  <minimizedAffinity>
-4.59605169

$$$$

 OpenBabel03262523233D

 32 34  0  0  1  0  0  0  0  0999 V2000
   39.0220   21.0380   32.6780 C   0  0  0  0  0  0  0  0  0  0  0  0
   37.6770   20.7080   32.4590 C   0  0  0  0  0  0  0  0  0  0  0  0
   36.7260   21.1660   33.3790 C   0  0  0  0  0  0  0  0  0  0  0  0
   37.1620   21.9050   34.4370 N   0  0  0  0  0  0  0  0  0  0  0  0
   38.4720   22.2020   34.6150 C   0  0  0  0  0  0  0  0  0  0  0  0
   39.3950   21.7740   33.7460 N   0  0  0  0  0  0  0  0  0  0  0  0
   38.8630   22.9870   35.7550 N   0  0  0  0  0  0  0  0  0  0  0  0
   40.0350   22.5970   36.5310 C   0  0  0  0  0  0  0  0  0  0  0  0
   39.9050   22.9560   37.9950 C   0  0  0  0  0  0  0  0  0  0  0  0
   38.4540   23.1810   38.3100 C   0  0  0  0  0  0  0  0  0  0  0  0
   38.0800   24.4560   37.5660 C   0  0  0  0  0  0  0  0  0  0  0  0
   38.0760   24.1540   36.1060 C   0  0  1  0  0  0  0  0  0  0  0  0
   39.8230   20.7240   32.0130 H   0  0  0  0  0  0  0  0  0  0  0  0
   37.4110   20.1210   31.5990 H   0  0  0  0  0  0  0  0  0  0  0  0
   35.6790   20.9300   33.2420 H   0  0  0  0  0  0  0  0  0  0  0  0
   40.9880   22.9380   36.0770 H   0  0  0  0  0  0  0  0  0  0  0  0
   40.0620   21.4700   36.4900 H   0  0  0  0  0  0  0  0  0  0  0  0
   40.3580   22.1860   38.6490 H   0  0  0  0  0  0  0  0  0  0  0  0
   40.4250   23.9270   38.1350 H   0  0  0  0  0  0  0  0  0  0  0  0
   38.2340   23.2290   39.3830 H   0  0  0  0  0  0  0  0  0  0  0  0
   37.8670   22.3790   37.8270 H   0  0  0  0  0  0  0  0  0  0  0  0
   38.9330   25.1630   37.7520 H   0  0  0  0  0  0  0  0  0  0  0  0
   37.1800   24.9350   37.9440 H   0  0  0  0  0  0  0  0  0  0  0  0
   37.0110   23.8500   35.8790 H   0  0  0  0  0  0  0  0  0  0  0  0
   38.3360   25.3250   35.2510 C   0  0  0  0  0  0  0  0  0  0  0  0
   39.5480   25.9900   35.0380 C   0  0  0  0  0  0  0  0  0  0  0  0
   40.4410   25.6370   35.5430 H   0  0  0  0  0  0  0  0  0  0  0  0
   39.3400   27.0100   34.1820 N   0  0  0  0  0  0  0  0  0  0  0  0
   40.1840   27.5860   33.9440 H   0  0  0  0  0  0  0  0  0  0  0  0
   38.0390   26.9950   33.8630 C   0  0  0  0  0  0  0  0  0  0  0  0
   37.6920   27.7610   33.1720 H   0  0  0  0  0  0  0  0  0  0  0  0
   37.4300   25.9830   34.5030 N   0  0  0  0  0  0  0  0  0  0  0  0
  1  6  1  0  0  0  0
  2  1  2  0  0  0  0
  2  3  1  0  0  0  0
  3  4  2  0  0  0  0
  4  5  1  0  0  0  0
  5  7  1  0  0  0  0
  6  5  2  0  0  0  0
  7 12  1  0  0  0  0
  7  8  1  0  0  0  0
  8  9  1  0  0  0  0
  9 19  1  0  0  0  0
  9 10  1  0  0  0  0
  9 18  1  0  0  0  0
 10 20  1  0  0  0  0
 11 22  1  0  0  0  0
 11 23  1  0  0  0  0
 11 10  1  0  0  0  0
 12 24  1  6  0  0  0
 12 11  1  0  0  0  0
 13  1  1  0  0  0  0
 14  2  1  0  0  0  0
 15  3  1  0  0  0  0
 16  8  1  0  0  0  0
 17  8  1  0  0  0  0
 21 10  1  0  0  0  0
 25 12  1  0  0  0  0
 26 25  2  0  0  0  0
 26 27  1  0  0  0  0
 28 26  1  0  0  0  0
 29 28  1  0  0  0  0
 30 28  1  0  0  0  0
 30 32  2  0  0  0  0
 31 30  1  0  0  0  0
 32 25  1  0  0  0  0
M  END
>  <minimizedAffinity>
-4.59239531

$$$$

 OpenBabel03262523233D

 32 34  0  0  1  0  0  0  0  0999 V2000
   37.2410   21.2900   32.6040 C   0  0  0  0  0  0  0  0  0  0  0  0
   38.4300   20.6350   32.2530 C   0  0  0  0  0  0  0  0  0  0  0  0
   39.6430   21.2770   32.5280 C   0  0  0  0  0  0  0  0  0  0  0  0
   39.6000   22.5040   33.1190 N   0  0  0  0  0  0  0  0  0  0  0  0
   38.4290   23.1040   33.4430 C   0  0  0  0  0  0  0  0  0  0  0  0
   37.2600   22.5060   33.1890 N   0  0  0  0  0  0  0  0  0  0  0  0
   38.4570   24.4000   34.0660 N   0  0  0  0  0  0  0  0  0  0  0  0
   37.5330   25.4360   33.6170 C   0  0  0  0  0  0  0  0  0  0  0  0
   38.1150   26.8260   33.7490 C   0  0  0  0  0  0  0  0  0  0  0  0
   39.6090   26.7160   33.8620 C   0  0  0  0  0  0  0  0  0  0  0  0
   39.8560   26.0640   35.2160 C   0  0  0  0  0  0  0  0  0  0  0  0
   39.4080   24.6450   35.1340 C   0  0  1  0  0  0  0  0  0  0  0  0
   36.2570   20.8620   32.4270 H   0  0  0  0  0  0  0  0  0  0  0  0
   38.3820   19.6670   31.7890 H   0  0  0  0  0  0  0  0  0  0  0  0
   40.5800   20.8020   32.2700 H   0  0  0  0  0  0  0  0  0  0  0  0
   36.5220   25.3380   34.0620 H   0  0  0  0  0  0  0  0  0  0  0  0
   37.3990   25.2600   32.5110 H   0  0  0  0  0  0  0  0  0  0  0  0
   37.8090   27.4820   32.9110 H   0  0  0  0  0  0  0  0  0  0  0  0
   37.7440   27.2400   34.7100 H   0  0  0  0  0  0  0  0  0  0  0  0
   40.1360   27.6690   33.7400 H   0  0  0  0  0  0  0  0  0  0  0  0
   39.9580   25.9800   33.1160 H   0  0  0  0  0  0  0  0  0  0  0  0
   39.1590   26.5880   35.9240 H   0  0  0  0  0  0  0  0  0  0  0  0
   40.8660   26.2130   35.5950 H   0  0  0  0  0  0  0  0  0  0  0  0
   40.3310   24.0700   34.8210 H   0  0  0  0  0  0  0  0  0  0  0  0
   39.0110   24.0660   36.4290 C   0  0  0  0  0  0  0  0  0  0  0  0
   39.6370   23.0440   37.1500 C   0  0  0  0  0  0  0  0  0  0  0  0
   40.5340   22.5860   36.7470 H   0  0  0  0  0  0  0  0  0  0  0  0
   38.9430   22.8230   38.2840 N   0  0  0  0  0  0  0  0  0  0  0  0
   39.3200   22.0720   38.9120 H   0  0  0  0  0  0  0  0  0  0  0  0
   37.9090   23.6760   38.2830 C   0  0  0  0  0  0  0  0  0  0  0  0
   37.2350   23.6350   39.1360 H   0  0  0  0  0  0  0  0  0  0  0  0
   37.9460   24.4260   37.1690 N   0  0  0  0  0  0  0  0  0  0  0  0
  1  6  1  0  0  0  0
  2  3  1  0  0  0  0
  2  1  2  0  0  0  0
  3  4  2  0  0  0  0
  4  5  1  0  0  0  0
  5  7  1  0  0  0  0
  6  5  2  0  0  0  0
  7 12  1  0  0  0  0
  8  9  1  0  0  0  0
  8 16  1  0  0  0  0
  8  7  1  0  0  0  0
  9 10  1  0  0  0  0
  9 19  1  0  0  0  0
 10 11  1  0  0  0  0
 11 23  1  0  0  0  0
 11 22  1  0  0  0  0
 12 24  1  6  0  0  0
 12 11  1  0  0  0  0
 12 25  1  0  0  0  0
 13  1  1  0  0  0  0
 14  2  1  0  0  0  0
 15  3  1  0  0  0  0
 17  8  1  0  0  0  0
 18  9  1  0  0  0  0
 20 10  1  0  0  0  0
 21 10  1  0  0  0  0
 25 26  2  0  0  0  0
 25 32  1  0  0  0  0
 26 28  1  0  0  0  0
 27 26  1  0  0  0  0
 28 29  1  0  0  0  0
 30 28  1  0  0  0  0
 30 31  1  0  0  0  0
 32 30  2  0  0  0  0
M  END
>  <minimizedAffinity>
-4.56368351

$$$$

 OpenBabel03262523233D

 32 34  0  0  1  0  0  0  0  0999 V2000
   37.3400   25.5690   31.2050 C   0  0  0  0  0  0  0  0  0  0  0  0
   36.0130   26.0030   31.0690 C   0  0  0  0  0  0  0  0  0  0  0  0
   35.0010   25.0360   31.0560 C   0  0  0  0  0  0  0  0  0  0  0  0
   35.3620   23.7280   31.1740 N   0  0  0  0  0  0  0  0  0  0  0  0
   36.6560   23.3490   31.3040 C   0  0  0  0  0  0  0  0  0  0  0  0
   37.6370   24.2580   31.3200 N   0  0  0  0  0  0  0  0  0  0  0  0
   36.9660   21.9500   31.4250 N   0  0  0  0  0  0  0  0  0  0  0  0
   38.0820   21.3910   30.6680 C   0  0  0  0  0  0  0  0  0  0  0  0
   37.8500   19.9480   30.2780 C   0  0  0  0  0  0  0  0  0  0  0  0
   36.3800   19.6520   30.3710 C   0  0  0  0  0  0  0  0  0  0  0  0
   36.0590   19.7050   31.8590 C   0  0  0  0  0  0  0  0  0  0  0  0
   36.1570   21.1250   32.3020 C   0  0  1  0  0  0  0  0  0  0  0  0
   38.1850   26.2530   31.2260 H   0  0  0  0  0  0  0  0  0  0  0  0
   35.8080   27.0540   30.9810 H   0  0  0  0  0  0  0  0  0  0  0  0
   33.9660   25.3340   30.9510 H   0  0  0  0  0  0  0  0  0  0  0  0
   39.0640   21.5630   31.1540 H   0  0  0  0  0  0  0  0  0  0  0  0
   38.1110   21.9720   29.7030 H   0  0  0  0  0  0  0  0  0  0  0  0
   38.2560   19.7230   29.2730 H   0  0  0  0  0  0  0  0  0  0  0  0
   38.3580   19.3220   31.0410 H   0  0  0  0  0  0  0  0  0  0  0  0
   36.0850   18.7070   29.9000 H   0  0  0  0  0  0  0  0  0  0  0  0
   35.8290   20.4980   29.9230 H   0  0  0  0  0  0  0  0  0  0  0  0
   36.8960   19.1470   32.3580 H   0  0  0  0  0  0  0  0  0  0  0  0
   35.1340   19.1970   32.1250 H   0  0  0  0  0  0  0  0  0  0  0  0
   35.1100   21.5360   32.1820 H   0  0  0  0  0  0  0  0  0  0  0  0
   36.4760   21.2860   33.7310 C   0  0  0  0  0  0  0  0  0  0  0  0
   35.7660   20.8060   34.8370 C   0  0  0  0  0  0  0  0  0  0  0  0
   34.8580   20.2360   34.6750 H   0  0  0  0  0  0  0  0  0  0  0  0
   36.4080   21.1790   35.9610 N   0  0  0  0  0  0  0  0  0  0  0  0
   35.9660   20.8750   36.8620 H   0  0  0  0  0  0  0  0  0  0  0  0
   37.4890   21.8750   35.5830 C   0  0  0  0  0  0  0  0  0  0  0  0
   38.1300   22.2580   36.3740 H   0  0  0  0  0  0  0  0  0  0  0  0
   37.5350   21.9410   34.2420 N   0  0  0  0  0  0  0  0  0  0  0  0
  1 13  1  0  0  0  0
  1  6  1  0  0  0  0
  2  1  2  0  0  0  0
  3  2  1  0  0  0  0
  3  4  2  0  0  0  0
  4  5  1  0  0  0  0
  5  6  2  0  0  0  0
  5  7  1  0  0  0  0
  7 12  1  0  0  0  0
  8 16  1  0  0  0  0
  8  7  1  0  0  0  0
  9 10  1  0  0  0  0
  9  8  1  0  0  0  0
  9 19  1  0  0  0  0
 10 11  1  0  0  0  0
 11 23  1  0  0  0  0
 11 12  1  0  0  0  0
 11 22  1  0  0  0  0
 12 24  1  6  0  0  0
 12 25  1  0  0  0  0
 14  2  1  0  0  0  0
 15  3  1  0  0  0  0
 17  8  1  0  0  0  0
 18  9  1  0  0  0  0
 20 10  1  0  0  0  0
 21 10  1  0  0  0  0
 25 32  1  0  0  0  0
 25 26  2  0  0  0  0
 26 28  1  0  0  0  0
 27 26  1  0  0  0  0
 28 29  1  0  0  0  0
 30 28  1  0  0  0  0
 30 31  1  0  0  0  0
 32 30  2  0  0  0  0
M  END
>  <minimizedAffinity>
-4.53153896

$$$$

 OpenBabel03262523233D

 32 34  0  0  1  0  0  0  0  0999 V2000
   42.4030   22.1990   35.7960 C   0  0  0  0  0  0  0  0  0  0  0  0
   41.9710   21.5330   36.9510 C   0  0  0  0  0  0  0  0  0  0  0  0
   40.7740   21.9510   37.5450 C   0  0  0  0  0  0  0  0  0  0  0  0
   40.0970   22.9830   36.9680 N   0  0  0  0  0  0  0  0  0  0  0  0
   40.5490   23.6020   35.8500 C   0  0  0  0  0  0  0  0  0  0  0  0
   41.6900   23.2170   35.2680 N   0  0  0  0  0  0  0  0  0  0  0  0
   39.7840   24.6850   35.2940 N   0  0  0  0  0  0  0  0  0  0  0  0
   40.4670   25.8940   34.8450 C   0  0  0  0  0  0  0  0  0  0  0  0
   39.6170   27.1340   35.0130 C   0  0  0  0  0  0  0  0  0  0  0  0
   38.5240   26.8410   36.0000 C   0  0  0  0  0  0  0  0  0  0  0  0
   37.6140   25.8420   35.2960 C   0  0  0  0  0  0  0  0  0  0  0  0
   38.3430   24.5470   35.1910 C   0  0  1  0  0  0  0  0  0  0  0  0
   43.3190   21.9390   35.2710 H   0  0  0  0  0  0  0  0  0  0  0  0
   42.5600   20.7260   37.3470 H   0  0  0  0  0  0  0  0  0  0  0  0
   40.4100   21.4600   38.4380 H   0  0  0  0  0  0  0  0  0  0  0  0
   40.9040   25.7940   33.8300 H   0  0  0  0  0  0  0  0  0  0  0  0
   41.3430   26.0210   35.5440 H   0  0  0  0  0  0  0  0  0  0  0  0
   40.2230   28.0110   35.3140 H   0  0  0  0  0  0  0  0  0  0  0  0
   39.1320   27.3260   34.0330 H   0  0  0  0  0  0  0  0  0  0  0  0
   37.9920   27.7320   36.3540 H   0  0  0  0  0  0  0  0  0  0  0  0
   38.9640   26.2870   36.8480 H   0  0  0  0  0  0  0  0  0  0  0  0
   37.4970   26.2390   34.2520 H   0  0  0  0  0  0  0  0  0  0  0  0
   36.6160   25.7810   35.7270 H   0  0  0  0  0  0  0  0  0  0  0  0
   38.0520   23.9760   36.1230 H   0  0  0  0  0  0  0  0  0  0  0  0
   37.9060   23.7030   34.0660 C   0  0  0  0  0  0  0  0  0  0  0  0
   37.6300   24.0880   32.7500 C   0  0  0  0  0  0  0  0  0  0  0  0
   37.7380   25.1300   32.4710 H   0  0  0  0  0  0  0  0  0  0  0  0
   37.2610   23.0000   32.0470 N   0  0  0  0  0  0  0  0  0  0  0  0
   37.0270   23.1650   31.0370 H   0  0  0  0  0  0  0  0  0  0  0  0
   37.2990   21.9570   32.8870 C   0  0  0  0  0  0  0  0  0  0  0  0
   37.0270   20.9850   32.4810 H   0  0  0  0  0  0  0  0  0  0  0  0
   37.6870   22.3750   34.1040 N   0  0  0  0  0  0  0  0  0  0  0  0
  1  2  1  0  0  0  0
  2 14  1  0  0  0  0
  2  3  2  0  0  0  0
  3 15  1  0  0  0  0
  4  3  1  0  0  0  0
  5  4  2  0  0  0  0
  6  1  2  0  0  0  0
  6  5  1  0  0  0  0
  7  5  1  0  0  0  0
  8  9  1  0  0  0  0
  8  7  1  0  0  0  0
  8 17  1  0  0  0  0
  9 18  1  0  0  0  0
  9 10  1  0  0  0  0
 10 20  1  0  0  0  0
 10 21  1  0  0  0  0
 11 23  1  0  0  0  0
 11 10  1  0  0  0  0
 12  7  1  0  0  0  0
 12 11  1  0  0  0  0
 12 24  1  1  0  0  0
 13  1  1  0  0  0  0
 16  8  1  0  0  0  0
 19  9  1  0  0  0  0
 22 11  1  0  0  0  0
 25 32  1  0  0  0  0
 25 12  1  0  0  0  0
 26 25  2  0  0  0  0
 27 26  1  0  0  0  0
 28 26  1  0  0  0  0
 28 30  1  0  0  0  0
 29 28  1  0  0  0  0
 30 32  2  0  0  0  0
 31 30  1  0  0  0  0
M  END
>  <minimizedAffinity>
-4.52586317

$$$$

 OpenBabel03262523233D

 32 34  0  0  1  0  0  0  0  0999 V2000
   35.4740   29.2800   31.5590 C   0  0  0  0  0  0  0  0  0  0  0  0
   36.2830   29.6110   30.4630 C   0  0  0  0  0  0  0  0  0  0  0  0
   37.5820   29.0890   30.4200 C   0  0  0  0  0  0  0  0  0  0  0  0
   37.9860   28.2910   31.4460 N   0  0  0  0  0  0  0  0  0  0  0  0
   37.1740   27.9950   32.4900 C   0  0  0  0  0  0  0  0  0  0  0  0
   35.9300   28.4830   32.5480 N   0  0  0  0  0  0  0  0  0  0  0  0
   37.6660   27.1450   33.5400 N   0  0  0  0  0  0  0  0  0  0  0  0
   37.4080   27.4970   34.9320 C   0  0  0  0  0  0  0  0  0  0  0  0
   38.5170   27.0470   35.8570 C   0  0  0  0  0  0  0  0  0  0  0  0
   39.7520   26.7910   35.0420 C   0  0  0  0  0  0  0  0  0  0  0  0
   39.4250   25.5600   34.2050 C   0  0  0  0  0  0  0  0  0  0  0  0
   38.4110   25.9510   33.1860 C   0  0  1  0  0  0  0  0  0  0  0  0
   34.4550   29.6420   31.6710 H   0  0  0  0  0  0  0  0  0  0  0  0
   35.8920   30.2480   29.6910 H   0  0  0  0  0  0  0  0  0  0  0  0
   38.2340   29.3240   29.5890 H   0  0  0  0  0  0  0  0  0  0  0  0
   36.3980   27.1920   35.2760 H   0  0  0  0  0  0  0  0  0  0  0  0
   37.4160   28.6240   34.9640 H   0  0  0  0  0  0  0  0  0  0  0  0
   38.7000   27.7790   36.6680 H   0  0  0  0  0  0  0  0  0  0  0  0
   38.2010   26.0740   36.2890 H   0  0  0  0  0  0  0  0  0  0  0  0
   40.6640   26.6750   35.6390 H   0  0  0  0  0  0  0  0  0  0  0  0
   39.8640   27.6160   34.3160 H   0  0  0  0  0  0  0  0  0  0  0  0
   38.9210   24.8500   34.9150 H   0  0  0  0  0  0  0  0  0  0  0  0
   40.3040   25.0510   33.8160 H   0  0  0  0  0  0  0  0  0  0  0  0
   39.0160   26.2590   32.2820 H   0  0  0  0  0  0  0  0  0  0  0  0
   37.5640   24.8370   32.7250 C   0  0  0  0  0  0  0  0  0  0  0  0
   37.6680   23.4800   33.0460 C   0  0  0  0  0  0  0  0  0  0  0  0
   38.4550   23.1540   33.7170 H   0  0  0  0  0  0  0  0  0  0  0  0
   36.6920   22.8060   32.4080 N   0  0  0  0  0  0  0  0  0  0  0  0
   36.6680   21.7700   32.5730 H   0  0  0  0  0  0  0  0  0  0  0  0
   35.9910   23.7040   31.7020 C   0  0  0  0  0  0  0  0  0  0  0  0
   35.1540   23.3280   31.1180 H   0  0  0  0  0  0  0  0  0  0  0  0
   36.5120   24.9290   31.8900 N   0  0  0  0  0  0  0  0  0  0  0  0
  1 13  1  0  0  0  0
  1  6  1  0  0  0  0
  2  1  2  0  0  0  0
  3  2  1  0  0  0  0
  3  4  2  0  0  0  0
  4  5  1  0  0  0  0
  5  6  2  0  0  0  0
  5  7  1  0  0  0  0
  7  8  1  0  0  0  0
  8 17  1  0  0  0  0
  8 16  1  0  0  0  0
  8  9  1  0  0  0  0
  9 19  1  0  0  0  0
  9 18  1  0  0  0  0
 10 20  1  0  0  0  0
 10  9  1  0  0  0  0
 11 22  1  0  0  0  0
 11 10  1  0  0  0  0
 12 24  1  6  0  0  0
 12  7  1  0  0  0  0
 12 11  1  0  0  0  0
 14  2  1  0  0  0  0
 15  3  1  0  0  0  0
 21 10  1  0  0  0  0
 23 11  1  0  0  0  0
 25 26  2  0  0  0  0
 25 12  1  0  0  0  0
 26 27  1  0  0  0  0
 28 29  1  0  0  0  0
 28 26  1  0  0  0  0
 30 32  2  0  0  0  0
 30 28  1  0  0  0  0
 31 30  1  0  0  0  0
 32 25  1  0  0  0  0
M  END
>  <minimizedAffinity>
-4.52374458

$$$$
