
 OpenBabel03272510333D

 27 29  0  0  0  0  0  0  0  0999 V2000
   35.9300   30.0390   47.8990 C   0  0  0  0  0  0  0  0  0  0  0  0
   35.1630   30.0220   46.7670 C   0  0  0  0  0  0  0  0  0  0  0  0
   34.1160   29.1330   46.6090 C   0  0  0  0  0  0  0  0  0  0  0  0
   33.8630   28.2480   47.6460 C   0  0  0  0  0  0  0  0  0  0  0  0
   34.6160   28.2390   48.8000 C   0  0  0  0  0  0  0  0  0  0  0  0
   35.6540   29.1420   48.9190 C   0  0  0  0  0  0  0  0  0  0  0  0
   35.3350   30.7030   45.9330 H   0  0  0  0  0  0  0  0  0  0  0  0
   33.4890   29.0940   45.7210 H   0  0  0  0  0  0  0  0  0  0  0  0
   33.0540   27.5130   47.6000 H   0  0  0  0  0  0  0  0  0  0  0  0
   34.4030   27.5440   49.5910 H   0  0  0  0  0  0  0  0  0  0  0  0
   37.9330   32.8370   49.0710 C   0  0  0  0  0  0  0  0  0  0  0  0
   39.0090   32.8900   48.1900 C   0  0  0  0  0  0  0  0  0  0  0  0
   39.0440   31.9320   47.1630 C   0  0  0  0  0  0  0  0  0  0  0  0
   38.0360   31.0350   47.1040 N   0  0  0  0  0  0  0  0  0  0  0  0
   37.0080   31.0100   47.9730 C   0  0  0  0  0  0  0  0  0  0  0  0
   36.9590   31.9220   48.9640 N   0  0  0  0  0  0  0  0  0  0  0  0
   37.9730   33.6070   49.8390 H   0  0  0  0  0  0  0  0  0  0  0  0
   39.8250   33.5800   48.2000 H   0  0  0  0  0  0  0  0  0  0  0  0
   39.8330   31.8740   46.4160 H   0  0  0  0  0  0  0  0  0  0  0  0
   36.4780   29.1740   50.1230 C   0  0  0  0  0  0  0  0  0  0  0  0
   35.9230   29.6360   51.3020 C   0  0  0  0  0  0  0  0  0  0  0  0
   34.9120   30.0070   51.5130 H   0  0  0  0  0  0  0  0  0  0  0  0
   36.8680   29.5700   52.2620 N   0  0  0  0  0  0  0  0  0  0  0  0
   36.7880   29.8390   53.2660 H   0  0  0  0  0  0  0  0  0  0  0  0
   38.0110   29.0750   51.7110 C   0  0  0  0  0  0  0  0  0  0  0  0
   38.9760   28.8860   52.1870 H   0  0  0  0  0  0  0  0  0  0  0  0
   37.7710   28.8340   50.4080 N   0  0  0  0  0  0  0  0  0  0  0  0
  1 15  1  0  0  0  0
  1  6  1  0  0  0  0
  2  1  2  0  0  0  0
  3  2  1  0  0  0  0
  3  4  2  0  0  0  0
  4  5  1  0  0  0  0
  5  6  2  0  0  0  0
  5 10  1  0  0  0  0
  6 20  1  0  0  0  0
  7  2  1  0  0  0  0
  8  3  1  0  0  0  0
  9  4  1  0  0  0  0
 11 17  1  0  0  0  0
 12 18  1  0  0  0  0
 12 11  2  0  0  0  0
 13 12  1  0  0  0  0
 14 13  2  0  0  0  0
 14 15  1  0  0  0  0
 15 16  2  0  0  0  0
 16 11  1  0  0  0  0
 19 13  1  0  0  0  0
 20 27  1  0  0  0  0
 20 21  2  0  0  0  0
 21 22  1  0  0  0  0
 21 23  1  0  0  0  0
 23 24  1  0  0  0  0
 25 26  1  0  0  0  0
 25 23  1  0  0  0  0
 27 25  2  0  0  0  0
M  END
>  <minimizedAffinity>
-4.75981855

>  <minimizedRMSD>
0.803467453

$$$$
