
 OpenBabel03272508173D

 24 26  0  0  0  0  0  0  0  0999 V2000
   36.6460   30.8370   47.7490 C   0  0  0  0  0  0  0  0  0  0  0  0
   37.1960   30.8810   46.4750 C   0  0  0  0  0  0  0  0  0  0  0  0
   36.3210   30.4260   45.4660 C   0  0  0  0  0  0  0  0  0  0  0  0
   35.0750   29.9970   45.7560 N   0  0  0  0  0  0  0  0  0  0  0  0
   34.5880   29.9730   47.0160 C   0  0  0  0  0  0  0  0  0  0  0  0
   35.3870   30.3960   48.0070 N   0  0  0  0  0  0  0  0  0  0  0  0
   36.5790   30.3900   44.4170 H   0  0  0  0  0  0  0  0  0  0  0  0
   33.6060   29.6430   47.3190 H   0  0  0  0  0  0  0  0  0  0  0  0
   37.4840   31.4180   48.8670 C   0  0  0  0  0  0  0  0  0  0  0  0
   37.0520   31.3990   50.2400 C   0  0  0  0  0  0  0  0  0  0  0  0
   37.9720   30.2910   49.8020 C   0  0  0  0  0  0  0  0  0  0  0  0
   38.3690   32.0290   48.5300 H   0  0  0  0  0  0  0  0  0  0  0  0
   36.0130   31.0670   50.4740 H   0  0  0  0  0  0  0  0  0  0  0  0
   37.4330   32.1220   50.9830 H   0  0  0  0  0  0  0  0  0  0  0  0
   39.0290   30.3140   50.0210 H   0  0  0  0  0  0  0  0  0  0  0  0
   37.5480   29.2880   49.6420 H   0  0  0  0  0  0  0  0  0  0  0  0
   38.5130   31.3170   46.1110 C   0  0  0  0  0  0  0  0  0  0  0  0
   39.5200   30.4420   45.7860 C   0  0  0  0  0  0  0  0  0  0  0  0
   39.5070   29.3440   45.7470 H   0  0  0  0  0  0  0  0  0  0  0  0
   40.6610   31.0700   45.4790 N   0  0  0  0  0  0  0  0  0  0  0  0
   41.5840   30.6780   45.1970 H   0  0  0  0  0  0  0  0  0  0  0  0
   40.3800   32.3730   45.6110 C   0  0  0  0  0  0  0  0  0  0  0  0
   40.9920   33.2470   45.4680 H   0  0  0  0  0  0  0  0  0  0  0  0
   39.1050   32.4980   45.9850 N   0  0  0  0  0  0  0  0  0  0  0  0
  1  6  1  0  0  0  0
  1  9  1  0  0  0  0
  2  1  2  0  0  0  0
  3  4  2  0  0  0  0
  3  2  1  0  0  0  0
  4  5  1  0  0  0  0
  5  8  1  0  0  0  0
  5  6  2  0  0  0  0
  7  3  1  0  0  0  0
  9 11  1  0  0  0  0
  9 10  1  0  0  0  0
 10 13  1  0  0  0  0
 10 14  1  0  0  0  0
 11 15  1  0  0  0  0
 11 10  1  0  0  0  0
 12  9  1  0  0  0  0
 16 11  1  0  0  0  0
 17  2  1  0  0  0  0
 18 17  2  0  0  0  0
 19 18  1  0  0  0  0
 20 22  1  0  0  0  0
 20 18  1  0  0  0  0
 21 20  1  0  0  0  0
 22 24  2  0  0  0  0
 23 22  1  0  0  0  0
 24 17  1  0  0  0  0
M  END
>  <minimizedAffinity>
-4.6207757

>  <minimizedRMSD>
5.23035765

$$$$
