
 OpenBabel03272510323D

 27 29  0  0  0  0  0  0  0  0999 V2000
   35.8030   29.9370   47.8470 C   0  0  0  0  0  0  0  0  0  0  0  0
   34.9600   29.9090   46.7700 C   0  0  0  0  0  0  0  0  0  0  0  0
   33.8320   29.1100   46.7480 C   0  0  0  0  0  0  0  0  0  0  0  0
   33.5780   28.3280   47.8640 C   0  0  0  0  0  0  0  0  0  0  0  0
   34.4060   28.3330   48.9660 C   0  0  0  0  0  0  0  0  0  0  0  0
   35.5240   29.1450   48.9480 C   0  0  0  0  0  0  0  0  0  0  0  0
   35.1310   30.5110   45.8770 H   0  0  0  0  0  0  0  0  0  0  0  0
   33.1430   29.0650   45.9080 H   0  0  0  0  0  0  0  0  0  0  0  0
   32.7080   27.6680   47.9280 H   0  0  0  0  0  0  0  0  0  0  0  0
   34.1900   27.7180   49.8200 H   0  0  0  0  0  0  0  0  0  0  0  0
   38.0880   32.6530   48.6330 C   0  0  0  0  0  0  0  0  0  0  0  0
   39.1260   32.5130   47.7160 C   0  0  0  0  0  0  0  0  0  0  0  0
   39.0340   31.4510   46.8010 C   0  0  0  0  0  0  0  0  0  0  0  0
   37.9510   30.6480   46.8760 N   0  0  0  0  0  0  0  0  0  0  0  0
   36.9630   30.8100   47.7760 C   0  0  0  0  0  0  0  0  0  0  0  0
   37.0360   31.8230   48.6610 N   0  0  0  0  0  0  0  0  0  0  0  0
   38.2280   33.4940   49.3100 H   0  0  0  0  0  0  0  0  0  0  0  0
   39.9980   33.1230   47.6220 H   0  0  0  0  0  0  0  0  0  0  0  0
   39.7820   31.2420   46.0400 H   0  0  0  0  0  0  0  0  0  0  0  0
   36.4300   29.1870   50.0910 C   0  0  0  0  0  0  0  0  0  0  0  0
   35.9750   29.7090   51.2880 C   0  0  0  0  0  0  0  0  0  0  0  0
   34.9920   30.1230   51.5540 H   0  0  0  0  0  0  0  0  0  0  0  0
   36.9810   29.6430   52.1840 N   0  0  0  0  0  0  0  0  0  0  0  0
   36.9800   29.9480   53.1790 H   0  0  0  0  0  0  0  0  0  0  0  0
   38.0650   29.0870   51.5730 C   0  0  0  0  0  0  0  0  0  0  0  0
   39.0540   28.8800   51.9890 H   0  0  0  0  0  0  0  0  0  0  0  0
   37.7270   28.8110   50.3000 N   0  0  0  0  0  0  0  0  0  0  0  0
  1  6  1  0  0  0  0
  2  1  2  0  0  0  0
  3  2  1  0  0  0  0
  3  4  2  0  0  0  0
  4  9  1  0  0  0  0
  4  5  1  0  0  0  0
  5 10  1  0  0  0  0
  6  5  2  0  0  0  0
  6 20  1  0  0  0  0
  7  2  1  0  0  0  0
  8  3  1  0  0  0  0
 11 16  1  0  0  0  0
 11 17  1  0  0  0  0
 12 11  2  0  0  0  0
 13 14  2  0  0  0  0
 13 12  1  0  0  0  0
 14 15  1  0  0  0  0
 15  1  1  0  0  0  0
 15 16  2  0  0  0  0
 18 12  1  0  0  0  0
 19 13  1  0  0  0  0
 20 27  1  0  0  0  0
 20 21  2  0  0  0  0
 21 22  1  0  0  0  0
 21 23  1  0  0  0  0
 23 24  1  0  0  0  0
 25 26  1  0  0  0  0
 25 23  1  0  0  0  0
 27 25  2  0  0  0  0
M  END
>  <minimizedAffinity>
-4.67609453

>  <minimizedRMSD>
1.04480827

$$$$
