
     RDKit          3D

 27 29  0  0  0  0  0  0  0  0999 V2000
   38.0198   33.0969   49.4720 C   0  0  0  0  0  0  0  0  0  0  0  0
   38.9730   33.2028   48.4629 C   0  0  0  0  0  0  0  0  0  0  0  0
   38.9495   32.2250   47.4547 C   0  0  0  0  0  0  0  0  0  0  0  0
   38.0095   31.2592   47.5373 N   0  0  0  0  0  0  0  0  0  0  0  0
   37.1013   31.1843   48.5266 C   0  0  0  0  0  0  0  0  0  0  0  0
   37.1095   32.1142   49.5022 N   0  0  0  0  0  0  0  0  0  0  0  0
   36.0948   30.1381   48.6038 C   0  0  0  0  0  0  0  0  0  0  0  0
   35.2882   29.9486   47.5163 C   0  0  0  0  0  0  0  0  0  0  0  0
   34.3038   28.9781   47.4991 C   0  0  0  0  0  0  0  0  0  0  0  0
   34.1567   28.1926   48.6317 C   0  0  0  0  0  0  0  0  0  0  0  0
   34.9533   28.3576   49.7450 C   0  0  0  0  0  0  0  0  0  0  0  0
   35.9257   29.3385   49.7225 C   0  0  0  0  0  0  0  0  0  0  0  0
   38.0989   33.8874   50.2168 H   0  0  0  0  0  0  0  0  0  0  0  0
   39.7316   33.9476   48.3598 H   0  0  0  0  0  0  0  0  0  0  0  0
   39.6428   32.2035   46.6172 H   0  0  0  0  0  0  0  0  0  0  0  0
   35.3775   30.5484   46.6099 H   0  0  0  0  0  0  0  0  0  0  0  0
   33.6472   28.8035   46.6503 H   0  0  0  0  0  0  0  0  0  0  0  0
   33.4029   27.4034   48.7000 H   0  0  0  0  0  0  0  0  0  0  0  0
   34.8222   27.7369   50.6122 H   0  0  0  0  0  0  0  0  0  0  0  0
   36.7922   29.5531   50.8771 C   0  0  0  0  0  0  0  0  0  0  0  0
   38.1389   29.7852   50.6682 C   0  0  0  0  0  0  0  0  0  0  0  0
   38.7132   29.8426   49.7337 H   0  0  0  0  0  0  0  0  0  0  0  0
   38.7261   29.9511   51.8711 N   0  0  0  0  0  0  0  0  0  0  0  0
   39.7279   30.1425   52.0793 H   0  0  0  0  0  0  0  0  0  0  0  0
   37.7730   29.8277   52.8370 C   0  0  0  0  0  0  0  0  0  0  0  0
   37.8830   29.9010   53.9216 H   0  0  0  0  0  0  0  0  0  0  0  0
   36.5970   29.5852   52.2283 N   0  0  0  0  0  0  0  0  0  0  0  0
  1  6  2  0
  2  1  1  0
  3  4  1  0
  3  2  2  0
  4  5  2  0
  5  7  1  0
  5  6  1  0
  7 12  1  0
  8  7  2  0
  9  8  1  0
  9 10  2  0
 10 11  1  0
 12 11  2  0
  1 13  1  0
  2 14  1  0
  3 15  1  0
  8 16  1  0
  9 17  1  0
 10 18  1  0
 11 19  1  0
 20 21  2  0
 21 22  1  0
 21 23  1  0
 23 24  1  0
 23 25  1  0
 25 26  1  0
 25 27  2  0
 27 20  1  0
 12 20  1  0
M  ISO  8  13  14  14  14  15  14  16  14  17  14  18  14  19  14  22  15
M  ISO  2  24   5  26  14
M  END
>  <DihAtoms>  (1) 
6,11,19,20

>  <DihDeg>  (1) 
-116.94695006450956

$$$$
