
 OpenBabel03272504003D

 23 24  0  0  0  0  0  0  0  0999 V2000
   38.4000   26.4520   36.1060 C   0  0  0  0  0  0  0  0  0  0  0  0
   39.1820   26.4820   36.9260 H   0  0  0  0  0  0  0  0  0  0  0  0
   37.7160   27.2640   36.3890 H   0  0  0  0  0  0  0  0  0  0  0  0
   39.1500   26.7180   34.8740 C   0  0  0  0  0  0  0  0  0  0  0  0
   40.5340   26.7830   34.7880 C   0  0  0  0  0  0  0  0  0  0  0  0
   41.1530   27.0550   33.5770 C   0  0  0  0  0  0  0  0  0  0  0  0
   40.3410   27.2490   32.5080 N   0  0  0  0  0  0  0  0  0  0  0  0
   38.9930   27.1880   32.5850 C   0  0  0  0  0  0  0  0  0  0  0  0
   38.4260   26.9240   33.7630 N   0  0  0  0  0  0  0  0  0  0  0  0
   41.0890   26.6120   35.6960 H   0  0  0  0  0  0  0  0  0  0  0  0
   42.2260   27.1060   33.5070 H   0  0  0  0  0  0  0  0  0  0  0  0
   38.3810   27.3520   31.6900 H   0  0  0  0  0  0  0  0  0  0  0  0
   37.7470   25.1180   36.1460 C   0  0  0  0  0  0  0  0  0  0  0  0
   37.7050   24.7490   35.0800 H   0  0  0  0  0  0  0  0  0  0  0  0
   36.6680   25.2100   36.4220 H   0  0  0  0  0  0  0  0  0  0  0  0
   38.4530   24.1410   37.0120 C   0  0  0  0  0  0  0  0  0  0  0  0
   38.1830   23.6940   38.2900 C   0  0  0  0  0  0  0  0  0  0  0  0
   37.3420   24.0350   38.8730 H   0  0  0  0  0  0  0  0  0  0  0  0
   39.1550   22.8200   38.5620 N   0  0  0  0  0  0  0  0  0  0  0  0
   39.2470   22.2900   39.4640 H   0  0  0  0  0  0  0  0  0  0  0  0
   40.0210   22.6750   37.5580 C   0  0  0  0  0  0  0  0  0  0  0  0
   40.9020   22.0740   37.4270 H   0  0  0  0  0  0  0  0  0  0  0  0
   39.5750   23.5100   36.5840 N   0  0  0  0  0  0  0  0  0  0  0  0
  1 13  1  0  0  0  0
  1  3  1  0  0  0  0
  1  2  1  0  0  0  0
  4  1  1  0  0  0  0
  5  4  1  0  0  0  0
  5 10  1  0  0  0  0
  6  5  2  0  0  0  0
  7  8  2  0  0  0  0
  7  6  1  0  0  0  0
  8  9  1  0  0  0  0
  9  4  2  0  0  0  0
 11  6  1  0  0  0  0
 12  8  1  0  0  0  0
 13 15  1  0  0  0  0
 13 16  1  0  0  0  0
 14 13  1  0  0  0  0
 16 17  2  0  0  0  0
 17 19  1  0  0  0  0
 17 18  1  0  0  0  0
 19 20  1  0  0  0  0
 21 19  1  0  0  0  0
 22 21  1  0  0  0  0
 23 16  1  0  0  0  0
 23 21  2  0  0  0  0
M  END
>  <minimizedAffinity>
-4.13716936

$$$$

 OpenBabel03272504003D

 23 24  0  0  0  0  0  0  0  0999 V2000
   38.4480   25.9320   35.7360 C   0  0  0  0  0  0  0  0  0  0  0  0
   39.3280   25.4390   35.2190 H   0  0  0  0  0  0  0  0  0  0  0  0
   38.9310   26.6770   36.3850 H   0  0  0  0  0  0  0  0  0  0  0  0
   37.6640   26.5220   34.6470 C   0  0  0  0  0  0  0  0  0  0  0  0
   37.0590   27.7700   34.6940 C   0  0  0  0  0  0  0  0  0  0  0  0
   36.3230   28.2380   33.6150 C   0  0  0  0  0  0  0  0  0  0  0  0
   36.2350   27.4190   32.5370 N   0  0  0  0  0  0  0  0  0  0  0  0
   36.8220   26.2030   32.4850 C   0  0  0  0  0  0  0  0  0  0  0  0
   37.5230   25.7800   33.5380 N   0  0  0  0  0  0  0  0  0  0  0  0
   37.1890   28.3440   35.5970 H   0  0  0  0  0  0  0  0  0  0  0  0
   35.8520   29.2050   33.6490 H   0  0  0  0  0  0  0  0  0  0  0  0
   36.7210   25.5790   31.5890 H   0  0  0  0  0  0  0  0  0  0  0  0
   37.7280   24.8870   36.5100 C   0  0  0  0  0  0  0  0  0  0  0  0
   37.0200   24.3860   35.7890 H   0  0  0  0  0  0  0  0  0  0  0  0
   37.0400   25.3480   37.2600 H   0  0  0  0  0  0  0  0  0  0  0  0
   38.6310   23.8900   37.1370 C   0  0  0  0  0  0  0  0  0  0  0  0
   38.6460   23.3420   38.4040 C   0  0  0  0  0  0  0  0  0  0  0  0
   37.9300   23.5980   39.1690 H   0  0  0  0  0  0  0  0  0  0  0  0
   39.6830   22.5020   38.4060 N   0  0  0  0  0  0  0  0  0  0  0  0
   39.9770   21.9160   39.2260 H   0  0  0  0  0  0  0  0  0  0  0  0
   40.3300   22.4710   37.2390 C   0  0  0  0  0  0  0  0  0  0  0  0
   41.1860   21.9270   36.8860 H   0  0  0  0  0  0  0  0  0  0  0  0
   39.6640   23.3480   36.4430 N   0  0  0  0  0  0  0  0  0  0  0  0
  1  3  1  0  0  0  0
  1 13  1  0  0  0  0
  2  1  1  0  0  0  0
  4  5  1  0  0  0  0
  4  1  1  0  0  0  0
  5 10  1  0  0  0  0
  6 11  1  0  0  0  0
  6  5  2  0  0  0  0
  7  6  1  0  0  0  0
  8  7  2  0  0  0  0
  8  9  1  0  0  0  0
  9  4  2  0  0  0  0
 12  8  1  0  0  0  0
 13 16  1  0  0  0  0
 13 15  1  0  0  0  0
 14 13  1  0  0  0  0
 16 17  2  0  0  0  0
 17 19  1  0  0  0  0
 17 18  1  0  0  0  0
 19 20  1  0  0  0  0
 21 19  1  0  0  0  0
 22 21  1  0  0  0  0
 23 16  1  0  0  0  0
 23 21  2  0  0  0  0
M  END
>  <minimizedAffinity>
-4.1342206

$$$$

 OpenBabel03272504003D

 23 24  0  0  0  0  0  0  0  0999 V2000
   38.8800   26.2160   35.5390 C   0  0  0  0  0  0  0  0  0  0  0  0
   39.9300   26.6380   35.4700 H   0  0  0  0  0  0  0  0  0  0  0  0
   38.5780   26.4800   36.5630 H   0  0  0  0  0  0  0  0  0  0  0  0
   38.1290   26.9300   34.5020 C   0  0  0  0  0  0  0  0  0  0  0  0
   38.4550   26.9380   33.1530 C   0  0  0  0  0  0  0  0  0  0  0  0
   37.6880   27.6560   32.2470 C   0  0  0  0  0  0  0  0  0  0  0  0
   36.6270   28.3350   32.7500 N   0  0  0  0  0  0  0  0  0  0  0  0
   36.3050   28.3310   34.0630 C   0  0  0  0  0  0  0  0  0  0  0  0
   37.0590   27.6300   34.9100 N   0  0  0  0  0  0  0  0  0  0  0  0
   39.3180   26.3660   32.8550 H   0  0  0  0  0  0  0  0  0  0  0  0
   37.9390   27.6650   31.2000 H   0  0  0  0  0  0  0  0  0  0  0  0
   35.4350   28.8960   34.4190 H   0  0  0  0  0  0  0  0  0  0  0  0
   38.9620   24.7470   35.3310 C   0  0  0  0  0  0  0  0  0  0  0  0
   39.9160   24.5570   34.7600 H   0  0  0  0  0  0  0  0  0  0  0  0
   38.1710   24.3990   34.6230 H   0  0  0  0  0  0  0  0  0  0  0  0
   38.9450   23.9710   36.5970 C   0  0  0  0  0  0  0  0  0  0  0  0
   39.7150   22.9070   37.0240 C   0  0  0  0  0  0  0  0  0  0  0  0
   40.5010   22.4680   36.4300 H   0  0  0  0  0  0  0  0  0  0  0  0
   39.2550   22.6150   38.2430 N   0  0  0  0  0  0  0  0  0  0  0  0
   39.6270   21.8470   38.8540 H   0  0  0  0  0  0  0  0  0  0  0  0
   38.2530   23.4090   38.6250 C   0  0  0  0  0  0  0  0  0  0  0  0
   37.6570   23.4650   39.5160 H   0  0  0  0  0  0  0  0  0  0  0  0
   38.0610   24.2610   37.5840 N   0  0  0  0  0  0  0  0  0  0  0  0
  1  3  1  0  0  0  0
  2  1  1  0  0  0  0
  4  9  1  0  0  0  0
  4  1  1  0  0  0  0
  5  4  2  0  0  0  0
  6  7  2  0  0  0  0
  6  5  1  0  0  0  0
  7  8  1  0  0  0  0
  8 12  1  0  0  0  0
  8  9  2  0  0  0  0
 10  5  1  0  0  0  0
 11  6  1  0  0  0  0
 13  1  1  0  0  0  0
 13 16  1  0  0  0  0
 14 13  1  0  0  0  0
 15 13  1  0  0  0  0
 16 17  2  0  0  0  0
 16 23  1  0  0  0  0
 17 19  1  0  0  0  0
 18 17  1  0  0  0  0
 19 21  1  0  0  0  0
 19 20  1  0  0  0  0
 21 22  1  0  0  0  0
 23 21  2  0  0  0  0
M  END
>  <minimizedAffinity>
-3.9151597

$$$$

 OpenBabel03272504003D

 23 24  0  0  0  0  0  0  0  0999 V2000
   38.6510   22.4340   34.1910 C   0  0  0  0  0  0  0  0  0  0  0  0
   38.8260   21.5400   34.8650 H   0  0  0  0  0  0  0  0  0  0  0  0
   39.5350   22.4260   33.5380 H   0  0  0  0  0  0  0  0  0  0  0  0
   37.4000   22.1270   33.4900 C   0  0  0  0  0  0  0  0  0  0  0  0
   36.9540   22.7780   32.3480 C   0  0  0  0  0  0  0  0  0  0  0  0
   35.7470   22.4250   31.7620 C   0  0  0  0  0  0  0  0  0  0  0  0
   35.0470   21.4290   32.3600 N   0  0  0  0  0  0  0  0  0  0  0  0
   35.4770   20.7920   33.4720 C   0  0  0  0  0  0  0  0  0  0  0  0
   36.6410   21.1520   34.0130 N   0  0  0  0  0  0  0  0  0  0  0  0
   37.5840   23.5560   31.9490 H   0  0  0  0  0  0  0  0  0  0  0  0
   35.3980   22.9280   30.8760 H   0  0  0  0  0  0  0  0  0  0  0  0
   34.8740   19.9920   33.9170 H   0  0  0  0  0  0  0  0  0  0  0  0
   38.5880   23.6470   35.0470 C   0  0  0  0  0  0  0  0  0  0  0  0
   37.5670   24.1010   34.8860 H   0  0  0  0  0  0  0  0  0  0  0  0
   39.2780   24.4400   34.6690 H   0  0  0  0  0  0  0  0  0  0  0  0
   38.8150   23.3650   36.4870 C   0  0  0  0  0  0  0  0  0  0  0  0
   39.8070   22.6530   37.1310 C   0  0  0  0  0  0  0  0  0  0  0  0
   40.6200   22.1680   36.6140 H   0  0  0  0  0  0  0  0  0  0  0  0
   39.5020   22.7320   38.4290 N   0  0  0  0  0  0  0  0  0  0  0  0
   40.0610   22.2940   39.2020 H   0  0  0  0  0  0  0  0  0  0  0  0
   38.3940   23.4380   38.6610 C   0  0  0  0  0  0  0  0  0  0  0  0
   37.8640   23.7030   39.5570 H   0  0  0  0  0  0  0  0  0  0  0  0
   37.9640   23.8340   37.4350 N   0  0  0  0  0  0  0  0  0  0  0  0
  1  2  1  0  0  0  0
  1 13  1  0  0  0  0
  3  1  1  0  0  0  0
  4  9  1  0  0  0  0
  4  1  1  0  0  0  0
  5  4  2  0  0  0  0
  6  5  1  0  0  0  0
  6  7  2  0  0  0  0
  7  8  1  0  0  0  0
  8 12  1  0  0  0  0
  8  9  2  0  0  0  0
 10  5  1  0  0  0  0
 11  6  1  0  0  0  0
 13 16  1  0  0  0  0
 14 13  1  0  0  0  0
 15 13  1  0  0  0  0
 16 17  2  0  0  0  0
 16 23  1  0  0  0  0
 17 19  1  0  0  0  0
 18 17  1  0  0  0  0
 19 21  1  0  0  0  0
 19 20  1  0  0  0  0
 21 22  1  0  0  0  0
 23 21  2  0  0  0  0
M  END
>  <minimizedAffinity>
-3.90127516

$$$$

 OpenBabel03272504003D

 23 24  0  0  0  0  0  0  0  0999 V2000
   37.8500   26.5380   35.6400 C   0  0  0  0  0  0  0  0  0  0  0  0
   38.5530   27.3700   35.9510 H   0  0  0  0  0  0  0  0  0  0  0  0
   37.2160   26.4080   36.5290 H   0  0  0  0  0  0  0  0  0  0  0  0
   37.1340   27.0750   34.4790 C   0  0  0  0  0  0  0  0  0  0  0  0
   36.4470   28.2810   34.4640 C   0  0  0  0  0  0  0  0  0  0  0  0
   35.7860   28.7000   33.3180 C   0  0  0  0  0  0  0  0  0  0  0  0
   35.8510   27.8780   32.2410 N   0  0  0  0  0  0  0  0  0  0  0  0
   36.5190   26.7030   32.2510 C   0  0  0  0  0  0  0  0  0  0  0  0
   37.1460   26.3260   33.3660 N   0  0  0  0  0  0  0  0  0  0  0  0
   36.4550   28.8620   35.3710 H   0  0  0  0  0  0  0  0  0  0  0  0
   35.2510   29.6350   33.3030 H   0  0  0  0  0  0  0  0  0  0  0  0
   36.5430   26.0740   31.3530 H   0  0  0  0  0  0  0  0  0  0  0  0
   38.6690   25.3330   35.3470 C   0  0  0  0  0  0  0  0  0  0  0  0
   39.7150   25.6990   35.1360 H   0  0  0  0  0  0  0  0  0  0  0  0
   38.3650   24.8690   34.3770 H   0  0  0  0  0  0  0  0  0  0  0  0
   38.6740   24.3400   36.4510 C   0  0  0  0  0  0  0  0  0  0  0  0
   39.2740   23.1010   36.5600 C   0  0  0  0  0  0  0  0  0  0  0  0
   39.8720   22.6600   35.7780 H   0  0  0  0  0  0  0  0  0  0  0  0
   38.9360   22.6600   37.7740 N   0  0  0  0  0  0  0  0  0  0  0  0
   39.2320   21.7370   38.1780 H   0  0  0  0  0  0  0  0  0  0  0  0
   38.1700   23.5200   38.4460 C   0  0  0  0  0  0  0  0  0  0  0  0
   37.7230   23.5010   39.4230 H   0  0  0  0  0  0  0  0  0  0  0  0
   38.0060   24.5770   37.6080 N   0  0  0  0  0  0  0  0  0  0  0  0
  1  2  1  0  0  0  0
  1  3  1  0  0  0  0
  4  1  1  0  0  0  0
  5  4  1  0  0  0  0
  5 10  1  0  0  0  0
  6  5  2  0  0  0  0
  7  8  2  0  0  0  0
  7  6  1  0  0  0  0
  8  9  1  0  0  0  0
  9  4  2  0  0  0  0
 11  6  1  0  0  0  0
 12  8  1  0  0  0  0
 13  1  1  0  0  0  0
 13 16  1  0  0  0  0
 14 13  1  0  0  0  0
 15 13  1  0  0  0  0
 16 17  2  0  0  0  0
 16 23  1  0  0  0  0
 17 19  1  0  0  0  0
 18 17  1  0  0  0  0
 19 20  1  0  0  0  0
 19 21  1  0  0  0  0
 21 22  1  0  0  0  0
 23 21  2  0  0  0  0
M  END
>  <minimizedAffinity>
-3.85905433

$$$$

 OpenBabel03272504003D

 23 24  0  0  0  0  0  0  0  0999 V2000
   39.2980   24.0710   34.3290 C   0  0  0  0  0  0  0  0  0  0  0  0
   39.2320   23.9290   33.2070 H   0  0  0  0  0  0  0  0  0  0  0  0
   40.3820   24.0900   34.5100 H   0  0  0  0  0  0  0  0  0  0  0  0
   38.6380   25.3570   34.5760 C   0  0  0  0  0  0  0  0  0  0  0  0
   37.4890   25.7930   33.9310 C   0  0  0  0  0  0  0  0  0  0  0  0
   36.9450   27.0350   34.2240 C   0  0  0  0  0  0  0  0  0  0  0  0
   37.5900   27.7780   35.1570 N   0  0  0  0  0  0  0  0  0  0  0  0
   38.7090   27.3580   35.7890 C   0  0  0  0  0  0  0  0  0  0  0  0
   39.2090   26.1590   35.4870 N   0  0  0  0  0  0  0  0  0  0  0  0
   37.0520   25.1280   33.2050 H   0  0  0  0  0  0  0  0  0  0  0  0
   36.0540   27.3770   33.7240 H   0  0  0  0  0  0  0  0  0  0  0  0
   39.1920   27.9970   36.5380 H   0  0  0  0  0  0  0  0  0  0  0  0
   38.6340   22.9100   34.9770 C   0  0  0  0  0  0  0  0  0  0  0  0
   39.1540   21.9870   34.5920 H   0  0  0  0  0  0  0  0  0  0  0  0
   37.5890   22.7860   34.6010 H   0  0  0  0  0  0  0  0  0  0  0  0
   38.6800   22.9570   36.4600 C   0  0  0  0  0  0  0  0  0  0  0  0
   39.7080   22.7130   37.3490 C   0  0  0  0  0  0  0  0  0  0  0  0
   40.7030   22.4310   37.0410 H   0  0  0  0  0  0  0  0  0  0  0  0
   39.1740   22.9050   38.5570 N   0  0  0  0  0  0  0  0  0  0  0  0
   39.6940   22.8010   39.4630 H   0  0  0  0  0  0  0  0  0  0  0  0
   37.8870   23.2530   38.5080 C   0  0  0  0  0  0  0  0  0  0  0  0
   37.1570   23.4810   39.2610 H   0  0  0  0  0  0  0  0  0  0  0  0
   37.5800   23.2830   37.1850 N   0  0  0  0  0  0  0  0  0  0  0  0
  1  3  1  0  0  0  0
  1  4  1  0  0  0  0
  1 13  1  0  0  0  0
  2  1  1  0  0  0  0
  4  9  1  0  0  0  0
  5  6  1  0  0  0  0
  5  4  2  0  0  0  0
  6  7  2  0  0  0  0
  7  8  1  0  0  0  0
  8 12  1  0  0  0  0
  9  8  2  0  0  0  0
 10  5  1  0  0  0  0
 11  6  1  0  0  0  0
 13 16  1  0  0  0  0
 14 13  1  0  0  0  0
 15 13  1  0  0  0  0
 16 23  1  0  0  0  0
 16 17  2  0  0  0  0
 17 19  1  0  0  0  0
 18 17  1  0  0  0  0
 19 20  1  0  0  0  0
 21 19  1  0  0  0  0
 21 22  1  0  0  0  0
 23 21  2  0  0  0  0
M  END
>  <minimizedAffinity>
-3.8557179

$$$$

 OpenBabel03272504003D

 23 24  0  0  0  0  0  0  0  0999 V2000
   38.3690   22.5540   34.1120 C   0  0  0  0  0  0  0  0  0  0  0  0
   37.8120   21.8330   34.7870 H   0  0  0  0  0  0  0  0  0  0  0  0
   39.2110   21.9480   33.7480 H   0  0  0  0  0  0  0  0  0  0  0  0
   37.4010   22.9000   33.0660 C   0  0  0  0  0  0  0  0  0  0  0  0
   36.5670   21.9930   32.4280 C   0  0  0  0  0  0  0  0  0  0  0  0
   35.6910   22.4150   31.4390 C   0  0  0  0  0  0  0  0  0  0  0  0
   35.7010   23.7390   31.1410 N   0  0  0  0  0  0  0  0  0  0  0  0
   36.5100   24.6270   31.7590 C   0  0  0  0  0  0  0  0  0  0  0  0
   37.3420   24.1920   32.7070 N   0  0  0  0  0  0  0  0  0  0  0  0
   36.6360   20.9630   32.7380 H   0  0  0  0  0  0  0  0  0  0  0  0
   35.0430   21.7140   30.9420 H   0  0  0  0  0  0  0  0  0  0  0  0
   36.4790   25.6880   31.4820 H   0  0  0  0  0  0  0  0  0  0  0  0
   38.8130   23.7060   34.9390 C   0  0  0  0  0  0  0  0  0  0  0  0
   38.0350   24.5120   34.8080 H   0  0  0  0  0  0  0  0  0  0  0  0
   39.7330   24.1730   34.5110 H   0  0  0  0  0  0  0  0  0  0  0  0
   38.9850   23.3700   36.3740 C   0  0  0  0  0  0  0  0  0  0  0  0
   39.9230   22.5920   37.0230 C   0  0  0  0  0  0  0  0  0  0  0  0
   40.7260   22.0830   36.5120 H   0  0  0  0  0  0  0  0  0  0  0  0
   39.5860   22.6460   38.3130 N   0  0  0  0  0  0  0  0  0  0  0  0
   40.1010   22.1580   39.0860 H   0  0  0  0  0  0  0  0  0  0  0  0
   38.5060   23.3980   38.5370 C   0  0  0  0  0  0  0  0  0  0  0  0
   37.9640   23.6610   39.4260 H   0  0  0  0  0  0  0  0  0  0  0  0
   38.1310   23.8510   37.3130 N   0  0  0  0  0  0  0  0  0  0  0  0
  1  2  1  0  0  0  0
  1 13  1  0  0  0  0
  3  1  1  0  0  0  0
  4  1  1  0  0  0  0
  5 10  1  0  0  0  0
  5  4  2  0  0  0  0
  6  5  1  0  0  0  0
  7  6  2  0  0  0  0
  7  8  1  0  0  0  0
  8  9  2  0  0  0  0
  9  4  1  0  0  0  0
 11  6  1  0  0  0  0
 12  8  1  0  0  0  0
 13 16  1  0  0  0  0
 14 13  1  0  0  0  0
 15 13  1  0  0  0  0
 16 17  2  0  0  0  0
 16 23  1  0  0  0  0
 17 19  1  0  0  0  0
 18 17  1  0  0  0  0
 19 21  1  0  0  0  0
 19 20  1  0  0  0  0
 21 22  1  0  0  0  0
 23 21  2  0  0  0  0
M  END
>  <minimizedAffinity>
-3.81172776

$$$$

 OpenBabel03272504003D

 23 24  0  0  0  0  0  0  0  0999 V2000
   38.4720   24.0100   34.3890 C   0  0  0  0  0  0  0  0  0  0  0  0
   39.5420   23.9860   34.0170 H   0  0  0  0  0  0  0  0  0  0  0  0
   38.0110   23.1610   33.8630 H   0  0  0  0  0  0  0  0  0  0  0  0
   38.5800   23.8160   35.8380 C   0  0  0  0  0  0  0  0  0  0  0  0
   37.7300   24.3820   36.7770 C   0  0  0  0  0  0  0  0  0  0  0  0
   37.9210   24.1490   38.1320 C   0  0  0  0  0  0  0  0  0  0  0  0
   38.9660   23.3550   38.4720 N   0  0  0  0  0  0  0  0  0  0  0  0
   39.7980   22.8010   37.5610 C   0  0  0  0  0  0  0  0  0  0  0  0
   39.5880   23.0410   36.2660 N   0  0  0  0  0  0  0  0  0  0  0  0
   36.9290   24.9980   36.4050 H   0  0  0  0  0  0  0  0  0  0  0  0
   37.2640   24.5880   38.8630 H   0  0  0  0  0  0  0  0  0  0  0  0
   40.6280   22.1640   37.8880 H   0  0  0  0  0  0  0  0  0  0  0  0
   37.8790   25.3140   33.9910 C   0  0  0  0  0  0  0  0  0  0  0  0
   38.7320   26.0500   33.9340 H   0  0  0  0  0  0  0  0  0  0  0  0
   37.2420   25.7290   34.8090 H   0  0  0  0  0  0  0  0  0  0  0  0
   37.1470   25.2590   32.7000 C   0  0  0  0  0  0  0  0  0  0  0  0
   36.7410   26.2600   31.8400 C   0  0  0  0  0  0  0  0  0  0  0  0
   36.9250   27.3070   32.0190 H   0  0  0  0  0  0  0  0  0  0  0  0
   36.1250   25.6260   30.8390 N   0  0  0  0  0  0  0  0  0  0  0  0
   35.6930   26.0990   30.0080 H   0  0  0  0  0  0  0  0  0  0  0  0
   36.1070   24.3010   30.9950 C   0  0  0  0  0  0  0  0  0  0  0  0
   35.7110   23.4950   30.4060 H   0  0  0  0  0  0  0  0  0  0  0  0
   36.7520   24.0750   32.1700 N   0  0  0  0  0  0  0  0  0  0  0  0
  1  4  1  0  0  0  0
  2  1  1  0  0  0  0
  3  1  1  0  0  0  0
  4  9  2  0  0  0  0
  4  5  1  0  0  0  0
  5  6  2  0  0  0  0
  6  7  1  0  0  0  0
  6 11  1  0  0  0  0
  8 12  1  0  0  0  0
  8  7  2  0  0  0  0
  9  8  1  0  0  0  0
 10  5  1  0  0  0  0
 13  1  1  0  0  0  0
 13 15  1  0  0  0  0
 14 13  1  0  0  0  0
 16 13  1  0  0  0  0
 17 18  1  0  0  0  0
 17 16  2  0  0  0  0
 19 21  1  0  0  0  0
 19 17  1  0  0  0  0
 20 19  1  0  0  0  0
 21 23  2  0  0  0  0
 22 21  1  0  0  0  0
 23 16  1  0  0  0  0
M  END
>  <minimizedAffinity>
-3.69793558

$$$$

 OpenBabel03272504003D

 23 24  0  0  0  0  0  0  0  0999 V2000
   36.4840   22.4580   32.0190 C   0  0  0  0  0  0  0  0  0  0  0  0
   37.5720   22.2740   31.7600 H   0  0  0  0  0  0  0  0  0  0  0  0
   36.4180   22.1110   33.0600 H   0  0  0  0  0  0  0  0  0  0  0  0
   36.3120   23.9070   31.8700 C   0  0  0  0  0  0  0  0  0  0  0  0
   37.1070   24.8650   32.4820 C   0  0  0  0  0  0  0  0  0  0  0  0
   36.8560   26.2160   32.2910 C   0  0  0  0  0  0  0  0  0  0  0  0
   35.8100   26.5340   31.4890 N   0  0  0  0  0  0  0  0  0  0  0  0
   35.0320   25.6050   30.8900 C   0  0  0  0  0  0  0  0  0  0  0  0
   35.2980   24.3140   31.0920 N   0  0  0  0  0  0  0  0  0  0  0  0
   37.9150   24.5090   33.1010 H   0  0  0  0  0  0  0  0  0  0  0  0
   37.4720   26.9620   32.7650 H   0  0  0  0  0  0  0  0  0  0  0  0
   34.1980   25.9140   30.2490 H   0  0  0  0  0  0  0  0  0  0  0  0
   35.6500   21.6460   31.0950 C   0  0  0  0  0  0  0  0  0  0  0  0
   36.1430   21.7050   30.0830 H   0  0  0  0  0  0  0  0  0  0  0  0
   34.6590   22.1320   30.9210 H   0  0  0  0  0  0  0  0  0  0  0  0
   35.4990   20.2330   31.5250 C   0  0  0  0  0  0  0  0  0  0  0  0
   34.4200   19.5500   32.0500 C   0  0  0  0  0  0  0  0  0  0  0  0
   33.4600   20.0060   32.2290 H   0  0  0  0  0  0  0  0  0  0  0  0
   34.8630   18.3060   32.2480 N   0  0  0  0  0  0  0  0  0  0  0  0
   34.2860   17.5220   32.6420 H   0  0  0  0  0  0  0  0  0  0  0  0
   36.1380   18.1440   31.8900 C   0  0  0  0  0  0  0  0  0  0  0  0
   36.8060   17.3030   31.9070 H   0  0  0  0  0  0  0  0  0  0  0  0
   36.5350   19.3610   31.4360 N   0  0  0  0  0  0  0  0  0  0  0  0
  1  3  1  0  0  0  0
  2  1  1  0  0  0  0
  4  1  1  0  0  0  0
  4  5  1  0  0  0  0
  5 10  1  0  0  0  0
  6  5  2  0  0  0  0
  6 11  1  0  0  0  0
  7  6  1  0  0  0  0
  8  9  1  0  0  0  0
  8  7  2  0  0  0  0
  9  4  2  0  0  0  0
 12  8  1  0  0  0  0
 13 16  1  0  0  0  0
 13  1  1  0  0  0  0
 14 13  1  0  0  0  0
 15 13  1  0  0  0  0
 16 17  2  0  0  0  0
 17 18  1  0  0  0  0
 17 19  1  0  0  0  0
 19 20  1  0  0  0  0
 21 22  1  0  0  0  0
 21 19  1  0  0  0  0
 23 16  1  0  0  0  0
 23 21  2  0  0  0  0
M  END
>  <minimizedAffinity>
-3.67027569

$$$$
