
 OpenBabel03262523583D

 31 34  0  0  0  0  0  0  0  0999 V2000
   38.5880   26.8400   35.8170 C   0  0  0  0  0  0  0  0  0  0  0  0
   38.6120   25.4780   35.4530 C   0  0  0  0  0  0  0  0  0  0  0  0
   37.8500   25.1090   34.3480 C   0  0  0  0  0  0  0  0  0  0  0  0
   37.1230   26.0590   33.6760 N   0  0  0  0  0  0  0  0  0  0  0  0
   37.1360   27.3610   34.0720 C   0  0  0  0  0  0  0  0  0  0  0  0
   37.8670   27.7260   35.1340 N   0  0  0  0  0  0  0  0  0  0  0  0
   39.1990   27.0450   36.6770 H   0  0  0  0  0  0  0  0  0  0  0  0
   37.7160   24.1420   33.8910 H   0  0  0  0  0  0  0  0  0  0  0  0
   38.9080   23.7540   37.2180 C   0  0  0  0  0  3  0  0  0  0  0  0
   39.3240   24.3930   36.0690 C   0  0  0  0  0  0  0  0  0  0  0  0
   40.5050   23.9440   35.4900 C   0  0  0  0  0  0  0  0  0  0  0  0
   40.8790   24.4140   34.5800 H   0  0  0  0  0  0  0  0  0  0  0  0
   41.2690   22.9120   35.9930 C   0  0  0  0  0  0  0  0  0  0  0  0
   42.4130   22.3330   35.6050 N   0  0  0  0  0  0  0  0  0  0  0  0
   42.9780   22.5970   34.7610 H   0  0  0  0  0  0  0  0  0  0  0  0
   42.7030   21.3550   36.4900 C   0  0  0  0  0  0  0  0  0  0  0  0
   43.5650   20.6750   36.4840 H   0  0  0  0  0  0  0  0  0  0  0  0
   41.7390   21.2820   37.4840 C   0  0  0  0  0  3  0  0  0  0  0  0
   40.8400   22.2820   37.1440 C   0  0  0  0  0  0  0  0  0  0  0  0
   39.6770   22.7220   37.7170 C   0  0  0  0  0  3  0  0  0  0  0  0
   38.1180   27.8520   31.1350 Br  0  0  0  0  0  0  0  0  0  0  0  0
   36.6820   28.7140   32.0560 C   0  0  0  0  0  0  0  0  0  0  0  0
   36.3740   28.3780   33.3690 C   0  0  0  0  0  0  0  0  0  0  0  0
   35.3280   29.0460   33.9580 C   0  0  0  0  0  0  0  0  0  0  0  0
   34.5820   30.0220   33.3100 C   0  0  0  0  0  0  0  0  0  0  0  0
   34.9150   30.3280   32.0150 C   0  0  0  0  0  0  0  0  0  0  0  0
   35.9750   29.6640   31.3930 C   0  0  0  0  0  0  0  0  0  0  0  0
   35.0460   28.8230   34.9790 H   0  0  0  0  0  0  0  0  0  0  0  0
   33.7670   30.5490   33.7550 H   0  0  0  0  0  0  0  0  0  0  0  0
   34.3900   31.0770   31.4290 H   0  0  0  0  0  0  0  0  0  0  0  0
   36.2170   29.9240   30.3700 H   0  0  0  0  0  0  0  0  0  0  0  0
  1  7  1  0  0  0  0
  2  1  1  0  0  0  0
  2 10  1  0  0  0  0
  3  2  2  0  0  0  0
  4  5  2  0  0  0  0
  4  3  1  0  0  0  0
  5  6  1  0  0  0  0
  6  1  2  0  0  0  0
  8  3  1  0  0  0  0
  9 20  1  0  0  0  0
 10  9  2  0  0  0  0
 11 13  2  0  0  0  0
 11 10  1  0  0  0  0
 12 11  1  0  0  0  0
 13 19  1  0  0  0  0
 14 13  1  0  0  0  0
 14 16  1  0  0  0  0
 15 14  1  0  0  0  0
 16 18  2  0  0  0  0
 17 16  1  0  0  0  0
 19 18  1  0  0  0  0
 19 20  2  0  0  0  0
 21 22  1  0  0  0  0
 22 23  1  0  0  0  0
 23 24  2  0  0  0  0
 23  5  1  0  0  0  0
 24 28  1  0  0  0  0
 25 29  1  0  0  0  0
 25 24  1  0  0  0  0
 26 25  2  0  0  0  0
 27 26  1  0  0  0  0
 27 22  2  0  0  0  0
 30 26  1  0  0  0  0
 31 27  1  0  0  0  0
M  END
>  <minimizedAffinity>
-5.8855052

$$$$

 OpenBabel03262523583D

 31 34  0  0  0  0  0  0  0  0999 V2000
   37.0030   25.6120   32.7330 C   0  0  0  0  0  0  0  0  0  0  0  0
   36.2370   26.4540   31.8990 C   0  0  0  0  0  0  0  0  0  0  0  0
   35.4110   25.8310   30.9660 C   0  0  0  0  0  0  0  0  0  0  0  0
   35.3780   24.4610   30.8960 N   0  0  0  0  0  0  0  0  0  0  0  0
   36.1400   23.6980   31.7260 C   0  0  0  0  0  0  0  0  0  0  0  0
   36.9370   24.2870   32.6270 N   0  0  0  0  0  0  0  0  0  0  0  0
   37.6130   26.1650   33.4230 H   0  0  0  0  0  0  0  0  0  0  0  0
   34.7450   26.2610   30.2360 H   0  0  0  0  0  0  0  0  0  0  0  0
   35.9000   28.6680   32.9730 C   0  0  0  0  0  3  0  0  0  0  0  0
   36.1830   27.8880   31.8720 C   0  0  0  0  0  0  0  0  0  0  0  0
   36.4250   28.5520   30.6750 C   0  0  0  0  0  0  0  0  0  0  0  0
   36.6540   27.9830   29.7730 H   0  0  0  0  0  0  0  0  0  0  0  0
   36.4000   29.9230   30.5330 C   0  0  0  0  0  0  0  0  0  0  0  0
   36.5980   30.7500   29.4970 N   0  0  0  0  0  0  0  0  0  0  0  0
   36.8310   30.4590   28.5170 H   0  0  0  0  0  0  0  0  0  0  0  0
   36.4430   32.0150   29.9430 C   0  0  0  0  0  0  0  0  0  0  0  0
   36.5340   32.9470   29.3690 H   0  0  0  0  0  0  0  0  0  0  0  0
   36.1360   32.0330   31.2950 C   0  0  0  0  0  3  0  0  0  0  0  0
   36.1150   30.6910   31.6440 C   0  0  0  0  0  0  0  0  0  0  0  0
   35.8760   30.0410   32.8240 C   0  0  0  0  0  3  0  0  0  0  0  0
   38.6270   22.4630   30.2700 Br  0  0  0  0  0  0  0  0  0  0  0  0
   37.1440   21.5440   31.0520 C   0  0  0  0  0  0  0  0  0  0  0  0
   36.1130   22.2470   31.6640 C   0  0  0  0  0  0  0  0  0  0  0  0
   35.0850   21.5100   32.2010 C   0  0  0  0  0  0  0  0  0  0  0  0
   35.0350   20.1230   32.1570 C   0  0  0  0  0  0  0  0  0  0  0  0
   36.0690   19.4640   31.5450 C   0  0  0  0  0  0  0  0  0  0  0  0
   37.1270   20.1890   30.9910 C   0  0  0  0  0  0  0  0  0  0  0  0
   34.2570   22.0080   32.6890 H   0  0  0  0  0  0  0  0  0  0  0  0
   34.2420   19.5380   32.5690 H   0  0  0  0  0  0  0  0  0  0  0  0
   36.1160   18.3820   31.4620 H   0  0  0  0  0  0  0  0  0  0  0  0
   37.9320   19.6430   30.5140 H   0  0  0  0  0  0  0  0  0  0  0  0
  1  7  1  0  0  0  0
  2  1  2  0  0  0  0
  3  2  1  0  0  0  0
  4  3  2  0  0  0  0
  4  5  1  0  0  0  0
  5  6  2  0  0  0  0
  6  1  1  0  0  0  0
  8  3  1  0  0  0  0
 10  2  1  0  0  0  0
 10  9  2  0  0  0  0
 11 10  1  0  0  0  0
 12 11  1  0  0  0  0
 13 11  2  0  0  0  0
 13 19  1  0  0  0  0
 14 16  1  0  0  0  0
 14 13  1  0  0  0  0
 15 14  1  0  0  0  0
 16 18  2  0  0  0  0
 17 16  1  0  0  0  0
 18 19  1  0  0  0  0
 19 20  2  0  0  0  0
 20  9  1  0  0  0  0
 21 22  1  0  0  0  0
 22 23  1  0  0  0  0
 23  5  1  0  0  0  0
 23 24  2  0  0  0  0
 24 28  1  0  0  0  0
 25 24  1  0  0  0  0
 25 29  1  0  0  0  0
 26 25  2  0  0  0  0
 27 22  2  0  0  0  0
 27 26  1  0  0  0  0
 30 26  1  0  0  0  0
 31 27  1  0  0  0  0
M  END
>  <minimizedAffinity>
-5.81715298

$$$$

 OpenBabel03262523583D

 31 34  0  0  0  0  0  0  0  0999 V2000
   38.5750   27.1880   35.1490 C   0  0  0  0  0  0  0  0  0  0  0  0
   37.6540   26.9500   34.1080 C   0  0  0  0  0  0  0  0  0  0  0  0
   37.5390   25.6370   33.6570 C   0  0  0  0  0  0  0  0  0  0  0  0
   38.3090   24.6540   34.2270 N   0  0  0  0  0  0  0  0  0  0  0  0
   39.1830   24.9410   35.2300 C   0  0  0  0  0  0  0  0  0  0  0  0
   39.3000   26.2010   35.6700 N   0  0  0  0  0  0  0  0  0  0  0  0
   38.6060   28.2220   35.4400 H   0  0  0  0  0  0  0  0  0  0  0  0
   36.9120   25.2230   32.8860 H   0  0  0  0  0  0  0  0  0  0  0  0
   36.8070   28.0860   32.0670 C   0  0  0  0  0  3  0  0  0  0  0  0
   36.7980   27.8830   33.4310 C   0  0  0  0  0  0  0  0  0  0  0  0
   35.8990   28.6390   34.1740 C   0  0  0  0  0  0  0  0  0  0  0  0
   35.8500   28.5180   35.2570 H   0  0  0  0  0  0  0  0  0  0  0  0
   35.0310   29.5630   33.6310 C   0  0  0  0  0  0  0  0  0  0  0  0
   34.1050   30.3800   34.1510 N   0  0  0  0  0  0  0  0  0  0  0  0
   33.8600   30.4610   35.1680 H   0  0  0  0  0  0  0  0  0  0  0  0
   33.5490   31.0750   33.1350 C   0  0  0  0  0  0  0  0  0  0  0  0
   32.7570   31.8330   33.1920 H   0  0  0  0  0  0  0  0  0  0  0  0
   34.1140   30.7170   31.9200 C   0  0  0  0  0  3  0  0  0  0  0  0
   35.0510   29.7550   32.2650 C   0  0  0  0  0  0  0  0  0  0  0  0
   35.9360   29.0120   31.5290 C   0  0  0  0  0  3  0  0  0  0  0  0
   37.8480   23.6130   37.7360 Br  0  0  0  0  0  0  0  0  0  0  0  0
   39.5530   23.2230   36.9650 C   0  0  0  0  0  0  0  0  0  0  0  0
   40.0020   23.9110   35.8440 C   0  0  0  0  0  0  0  0  0  0  0  0
   41.2390   23.5700   35.3540 C   0  0  0  0  0  0  0  0  0  0  0  0
   42.0420   22.5890   35.9200 C   0  0  0  0  0  0  0  0  0  0  0  0
   41.5680   21.9320   37.0260 C   0  0  0  0  0  0  0  0  0  0  0  0
   40.3120   22.2590   37.5450 C   0  0  0  0  0  0  0  0  0  0  0  0
   41.6360   24.0740   34.4820 H   0  0  0  0  0  0  0  0  0  0  0  0
   43.0060   22.3150   35.5510 H   0  0  0  0  0  0  0  0  0  0  0  0
   42.1240   21.1520   37.5370 H   0  0  0  0  0  0  0  0  0  0  0  0
   39.9600   21.7250   38.4190 H   0  0  0  0  0  0  0  0  0  0  0  0
  1  7  1  0  0  0  0
  1  6  1  0  0  0  0
  2  1  2  0  0  0  0
  3  2  1  0  0  0  0
  3  4  2  0  0  0  0
  4  5  1  0  0  0  0
  5  6  2  0  0  0  0
  5 23  1  0  0  0  0
  8  3  1  0  0  0  0
  9 10  1  0  0  0  0
 10  2  1  0  0  0  0
 10 11  2  0  0  0  0
 11 12  1  0  0  0  0
 13 14  1  0  0  0  0
 13 11  1  0  0  0  0
 14 15  1  0  0  0  0
 16 17  1  0  0  0  0
 16 14  1  0  0  0  0
 18 19  1  0  0  0  0
 18 16  2  0  0  0  0
 19 13  2  0  0  0  0
 20  9  2  0  0  0  0
 20 19  1  0  0  0  0
 22 27  1  0  0  0  0
 22 21  1  0  0  0  0
 23 22  2  0  0  0  0
 24 23  1  0  0  0  0
 24 25  2  0  0  0  0
 25 26  1  0  0  0  0
 26 30  1  0  0  0  0
 26 27  2  0  0  0  0
 27 31  1  0  0  0  0
 28 24  1  0  0  0  0
 29 25  1  0  0  0  0
M  END
>  <minimizedAffinity>
-5.80215359

$$$$

 OpenBabel03262523583D

 31 34  0  0  0  0  0  0  0  0999 V2000
   35.2250   25.1170   31.0570 C   0  0  0  0  0  0  0  0  0  0  0  0
   36.2610   24.3200   31.5880 C   0  0  0  0  0  0  0  0  0  0  0  0
   37.2600   24.9800   32.2980 C   0  0  0  0  0  0  0  0  0  0  0  0
   37.2010   26.3430   32.4480 N   0  0  0  0  0  0  0  0  0  0  0  0
   36.1770   27.0630   31.9140 C   0  0  0  0  0  0  0  0  0  0  0  0
   35.2100   26.4370   31.2290 N   0  0  0  0  0  0  0  0  0  0  0  0
   34.4940   24.5370   30.5240 H   0  0  0  0  0  0  0  0  0  0  0  0
   38.1360   24.5870   32.7870 H   0  0  0  0  0  0  0  0  0  0  0  0
   37.5500   22.2940   30.9530 C   0  0  0  0  0  3  0  0  0  0  0  0
   36.4380   22.8980   31.5010 C   0  0  0  0  0  0  0  0  0  0  0  0
   35.4440   22.0610   31.9920 C   0  0  0  0  0  0  0  0  0  0  0  0
   34.5430   22.4860   32.4370 H   0  0  0  0  0  0  0  0  0  0  0  0
   35.5080   20.6840   31.9620 C   0  0  0  0  0  0  0  0  0  0  0  0
   34.6830   19.7100   32.3680 N   0  0  0  0  0  0  0  0  0  0  0  0
   33.7500   19.8490   32.8280 H   0  0  0  0  0  0  0  0  0  0  0  0
   35.2660   18.5260   32.0810 C   0  0  0  0  0  0  0  0  0  0  0  0
   34.8760   17.5180   32.2750 H   0  0  0  0  0  0  0  0  0  0  0  0
   36.4980   18.7130   31.4730 C   0  0  0  0  0  3  0  0  0  0  0  0
   36.6260   20.0930   31.4100 C   0  0  0  0  0  0  0  0  0  0  0  0
   37.6080   20.9150   30.9250 C   0  0  0  0  0  3  0  0  0  0  0  0
   37.3770   28.6420   29.4860 Br  0  0  0  0  0  0  0  0  0  0  0  0
   36.5860   29.3500   31.0760 C   0  0  0  0  0  0  0  0  0  0  0  0
   36.0990   28.5050   32.0660 C   0  0  0  0  0  0  0  0  0  0  0  0
   35.5480   29.0950   33.1780 C   0  0  0  0  0  0  0  0  0  0  0  0
   35.4590   30.4700   33.3490 C   0  0  0  0  0  0  0  0  0  0  0  0
   35.9510   31.2730   32.3520 C   0  0  0  0  0  0  0  0  0  0  0  0
   36.5170   30.6980   31.2110 C   0  0  0  0  0  0  0  0  0  0  0  0
   35.1530   28.4830   33.9780 H   0  0  0  0  0  0  0  0  0  0  0  0
   35.0340   30.9420   34.2070 H   0  0  0  0  0  0  0  0  0  0  0  0
   35.9260   32.3570   32.3980 H   0  0  0  0  0  0  0  0  0  0  0  0
   36.8980   31.3550   30.4380 H   0  0  0  0  0  0  0  0  0  0  0  0
  1  6  2  0  0  0  0
  1  2  1  0  0  0  0
  2  3  2  0  0  0  0
  3  4  1  0  0  0  0
  3  8  1  0  0  0  0
  5 23  1  0  0  0  0
  5  4  2  0  0  0  0
  6  5  1  0  0  0  0
  7  1  1  0  0  0  0
  9 10  1  0  0  0  0
 10  2  1  0  0  0  0
 10 11  2  0  0  0  0
 11 12  1  0  0  0  0
 13 11  1  0  0  0  0
 13 14  1  0  0  0  0
 14 15  1  0  0  0  0
 16 17  1  0  0  0  0
 16 14  1  0  0  0  0
 18 16  2  0  0  0  0
 19 18  1  0  0  0  0
 19 13  2  0  0  0  0
 20  9  2  0  0  0  0
 20 19  1  0  0  0  0
 21 22  1  0  0  0  0
 22 27  2  0  0  0  0
 22 23  1  0  0  0  0
 23 24  2  0  0  0  0
 24 25  1  0  0  0  0
 24 28  1  0  0  0  0
 25 29  1  0  0  0  0
 26 30  1  0  0  0  0
 26 25  2  0  0  0  0
 27 26  1  0  0  0  0
 31 27  1  0  0  0  0
M  END
>  <minimizedAffinity>
-5.7844944

$$$$

 OpenBabel03262523583D

 31 34  0  0  0  0  0  0  0  0999 V2000
   37.4020   25.8850   33.7070 C   0  0  0  0  0  0  0  0  0  0  0  0
   37.3640   27.1820   34.2610 C   0  0  0  0  0  0  0  0  0  0  0  0
   38.1950   27.4230   35.3520 C   0  0  0  0  0  0  0  0  0  0  0  0
   38.9930   26.4160   35.8340 N   0  0  0  0  0  0  0  0  0  0  0  0
   38.9880   25.1820   35.2610 C   0  0  0  0  0  0  0  0  0  0  0  0
   38.1930   24.9410   34.2100 N   0  0  0  0  0  0  0  0  0  0  0  0
   36.7350   25.7780   32.8710 H   0  0  0  0  0  0  0  0  0  0  0  0
   38.3350   28.3220   35.9300 H   0  0  0  0  0  0  0  0  0  0  0  0
   35.9080   29.1380   34.7310 C   0  0  0  0  0  3  0  0  0  0  0  0
   36.5800   28.3130   33.8540 C   0  0  0  0  0  0  0  0  0  0  0  0
   36.4760   28.6140   32.5010 C   0  0  0  0  0  0  0  0  0  0  0  0
   36.9880   27.9940   31.7640 H   0  0  0  0  0  0  0  0  0  0  0  0
   35.7510   29.6740   31.9980 C   0  0  0  0  0  0  0  0  0  0  0  0
   35.5220   30.1340   30.7610 N   0  0  0  0  0  0  0  0  0  0  0  0
   35.8970   29.7180   29.8730 H   0  0  0  0  0  0  0  0  0  0  0  0
   34.7270   31.2200   30.8640 C   0  0  0  0  0  0  0  0  0  0  0  0
   34.3390   31.8510   30.0530 H   0  0  0  0  0  0  0  0  0  0  0  0
   34.4200   31.4890   32.1900 C   0  0  0  0  0  3  0  0  0  0  0  0
   35.0840   30.4910   32.8880 C   0  0  0  0  0  0  0  0  0  0  0  0
   35.1840   30.1980   34.2220 C   0  0  0  0  0  3  0  0  0  0  0  0
   37.7880   23.7090   37.7540 Br  0  0  0  0  0  0  0  0  0  0  0  0
   39.4400   23.3540   36.8590 C   0  0  0  0  0  0  0  0  0  0  0  0
   39.8290   24.1080   35.7580 C   0  0  0  0  0  0  0  0  0  0  0  0
   41.0310   23.7880   35.1730 C   0  0  0  0  0  0  0  0  0  0  0  0
   41.8540   22.7660   35.6270 C   0  0  0  0  0  0  0  0  0  0  0  0
   41.4380   22.0440   36.7160 C   0  0  0  0  0  0  0  0  0  0  0  0
   40.2200   22.3480   37.3290 C   0  0  0  0  0  0  0  0  0  0  0  0
   41.3810   24.3430   34.3130 H   0  0  0  0  0  0  0  0  0  0  0  0
   42.7900   22.5070   35.1830 H   0  0  0  0  0  0  0  0  0  0  0  0
   42.0140   21.2280   37.1410 H   0  0  0  0  0  0  0  0  0  0  0  0
   39.9140   21.7620   38.1880 H   0  0  0  0  0  0  0  0  0  0  0  0
  1  6  2  0  0  0  0
  1  2  1  0  0  0  0
  2  3  2  0  0  0  0
  3  4  1  0  0  0  0
  3  8  1  0  0  0  0
  5 23  1  0  0  0  0
  5  4  2  0  0  0  0
  6  5  1  0  0  0  0
  7  1  1  0  0  0  0
 10  2  1  0  0  0  0
 10  9  2  0  0  0  0
 11 10  1  0  0  0  0
 12 11  1  0  0  0  0
 13 11  2  0  0  0  0
 13 19  1  0  0  0  0
 14 16  1  0  0  0  0
 14 13  1  0  0  0  0
 15 14  1  0  0  0  0
 16 18  2  0  0  0  0
 17 16  1  0  0  0  0
 18 19  1  0  0  0  0
 19 20  2  0  0  0  0
 20  9  1  0  0  0  0
 22 27  1  0  0  0  0
 22 21  1  0  0  0  0
 23 22  2  0  0  0  0
 24 25  2  0  0  0  0
 24 23  1  0  0  0  0
 25 26  1  0  0  0  0
 26 30  1  0  0  0  0
 26 27  2  0  0  0  0
 27 31  1  0  0  0  0
 28 24  1  0  0  0  0
 29 25  1  0  0  0  0
M  END
>  <minimizedAffinity>
-5.774014

$$$$

 OpenBabel03262523583D

 31 34  0  0  0  0  0  0  0  0999 V2000
   35.2600   28.7640   32.5980 C   0  0  0  0  0  0  0  0  0  0  0  0
   35.6220   29.0170   33.9370 C   0  0  0  0  0  0  0  0  0  0  0  0
   36.5270   28.1340   34.5210 C   0  0  0  0  0  0  0  0  0  0  0  0
   37.0160   27.0800   33.7910 N   0  0  0  0  0  0  0  0  0  0  0  0
   36.6310   26.8830   32.5000 C   0  0  0  0  0  0  0  0  0  0  0  0
   35.7620   27.7280   31.9300 N   0  0  0  0  0  0  0  0  0  0  0  0
   34.5610   29.4860   32.2190 H   0  0  0  0  0  0  0  0  0  0  0  0
   36.9430   28.1260   35.5150 H   0  0  0  0  0  0  0  0  0  0  0  0
   36.0420   30.9080   35.4920 C   0  0  0  0  0  3  0  0  0  0  0  0
   35.1860   30.0740   34.8040 C   0  0  0  0  0  0  0  0  0  0  0  0
   33.8230   30.2890   34.9770 C   0  0  0  0  0  0  0  0  0  0  0  0
   33.1010   29.6590   34.4570 H   0  0  0  0  0  0  0  0  0  0  0  0
   33.2920   31.2730   35.7840 C   0  0  0  0  0  0  0  0  0  0  0  0
   32.0420   31.6460   36.0880 N   0  0  0  0  0  0  0  0  0  0  0  0
   31.1640   31.2020   35.7220 H   0  0  0  0  0  0  0  0  0  0  0  0
   32.1170   32.6880   36.9440 C   0  0  0  0  0  0  0  0  0  0  0  0
   31.2880   33.2460   37.3990 H   0  0  0  0  0  0  0  0  0  0  0  0
   33.4370   33.0140   37.2160 C   0  0  0  0  0  3  0  0  0  0  0  0
   34.1620   32.1000   36.4660 C   0  0  0  0  0  0  0  0  0  0  0  0
   35.5040   31.8920   36.2980 C   0  0  0  0  0  3  0  0  0  0  0  0
   39.2730   27.5590   30.9540 Br  0  0  0  0  0  0  0  0  0  0  0  0
   38.3070   25.9090   30.9700 C   0  0  0  0  0  0  0  0  0  0  0  0
   37.1410   25.7740   31.7140 C   0  0  0  0  0  0  0  0  0  0  0  0
   36.5070   24.5560   31.6700 C   0  0  0  0  0  0  0  0  0  0  0  0
   36.9740   23.4780   30.9280 C   0  0  0  0  0  0  0  0  0  0  0  0
   38.1260   23.6490   30.2050 C   0  0  0  0  0  0  0  0  0  0  0  0
   38.7900   24.8780   30.2330 C   0  0  0  0  0  0  0  0  0  0  0  0
   35.5960   24.3960   32.2310 H   0  0  0  0  0  0  0  0  0  0  0  0
   36.4910   22.5260   30.8840 H   0  0  0  0  0  0  0  0  0  0  0  0
   38.5650   22.8640   29.5960 H   0  0  0  0  0  0  0  0  0  0  0  0
   39.6990   24.9860   29.6530 H   0  0  0  0  0  0  0  0  0  0  0  0
  1  2  1  0  0  0  0
  2  3  2  0  0  0  0
  2 10  1  0  0  0  0
  3  8  1  0  0  0  0
  4  3  1  0  0  0  0
  5  4  2  0  0  0  0
  6  5  1  0  0  0  0
  6  1  2  0  0  0  0
  7  1  1  0  0  0  0
  9 20  1  0  0  0  0
 10 11  1  0  0  0  0
 10  9  2  0  0  0  0
 11 13  2  0  0  0  0
 12 11  1  0  0  0  0
 13 14  1  0  0  0  0
 13 19  1  0  0  0  0
 14 16  1  0  0  0  0
 15 14  1  0  0  0  0
 16 18  2  0  0  0  0
 16 17  1  0  0  0  0
 19 18  1  0  0  0  0
 20 19  2  0  0  0  0
 21 22  1  0  0  0  0
 22 23  1  0  0  0  0
 23  5  1  0  0  0  0
 24 23  2  0  0  0  0
 24 28  1  0  0  0  0
 25 24  1  0  0  0  0
 26 27  1  0  0  0  0
 26 25  2  0  0  0  0
 27 22  2  0  0  0  0
 29 25  1  0  0  0  0
 30 26  1  0  0  0  0
 31 27  1  0  0  0  0
M  END
>  <minimizedAffinity>
-5.76938868

$$$$

 OpenBabel03262523583D

 31 34  0  0  0  0  0  0  0  0999 V2000
   37.0580   25.6120   32.7010 C   0  0  0  0  0  0  0  0  0  0  0  0
   36.2710   26.4450   31.8790 C   0  0  0  0  0  0  0  0  0  0  0  0
   35.4130   25.8130   30.9820 C   0  0  0  0  0  0  0  0  0  0  0  0
   35.3710   24.4430   30.9330 N   0  0  0  0  0  0  0  0  0  0  0  0
   36.1550   23.6880   31.7500 C   0  0  0  0  0  0  0  0  0  0  0  0
   36.9820   24.2860   32.6170 N   0  0  0  0  0  0  0  0  0  0  0  0
   37.6920   26.1730   33.3640 H   0  0  0  0  0  0  0  0  0  0  0  0
   34.7270   26.2360   30.2660 H   0  0  0  0  0  0  0  0  0  0  0  0
   36.5100   28.6220   30.7060 C   0  0  0  0  0  3  0  0  0  0  0  0
   36.2220   27.8790   31.8320 C   0  0  0  0  0  0  0  0  0  0  0  0
   35.8670   28.5830   32.9770 C   0  0  0  0  0  0  0  0  0  0  0  0
   35.6290   28.0450   33.8960 H   0  0  0  0  0  0  0  0  0  0  0  0
   35.7880   29.9580   33.0470 C   0  0  0  0  0  0  0  0  0  0  0  0
   35.4750   30.8190   34.0240 N   0  0  0  0  0  0  0  0  0  0  0  0
   35.2080   30.5610   35.0060 H   0  0  0  0  0  0  0  0  0  0  0  0
   35.5650   32.0680   33.5200 C   0  0  0  0  0  0  0  0  0  0  0  0
   35.3760   33.0180   34.0370 H   0  0  0  0  0  0  0  0  0  0  0  0
   35.9440   32.0410   32.1860 C   0  0  0  0  0  3  0  0  0  0  0  0
   36.0790   30.6870   31.9120 C   0  0  0  0  0  0  0  0  0  0  0  0
   36.4290   29.9980   30.7820 C   0  0  0  0  0  3  0  0  0  0  0  0
   38.6120   22.4170   30.2750 Br  0  0  0  0  0  0  0  0  0  0  0  0
   37.1370   21.5190   31.0940 C   0  0  0  0  0  0  0  0  0  0  0  0
   36.1190   22.2370   31.7110 C   0  0  0  0  0  0  0  0  0  0  0  0
   35.0950   21.5140   32.2750 C   0  0  0  0  0  0  0  0  0  0  0  0
   35.0370   20.1270   32.2540 C   0  0  0  0  0  0  0  0  0  0  0  0
   36.0580   19.4520   31.6350 C   0  0  0  0  0  0  0  0  0  0  0  0
   37.1110   20.1620   31.0540 C   0  0  0  0  0  0  0  0  0  0  0  0
   34.2780   22.0230   32.7690 H   0  0  0  0  0  0  0  0  0  0  0  0
   34.2480   19.5530   32.6870 H   0  0  0  0  0  0  0  0  0  0  0  0
   36.0970   18.3690   31.5690 H   0  0  0  0  0  0  0  0  0  0  0  0
   37.9050   19.6050   30.5720 H   0  0  0  0  0  0  0  0  0  0  0  0
  1  7  1  0  0  0  0
  2  1  2  0  0  0  0
  3  2  1  0  0  0  0
  4  3  2  0  0  0  0
  4  5  1  0  0  0  0
  5  6  2  0  0  0  0
  6  1  1  0  0  0  0
  8  3  1  0  0  0  0
  9 20  2  0  0  0  0
  9 10  1  0  0  0  0
 10  2  1  0  0  0  0
 10 11  2  0  0  0  0
 11 13  1  0  0  0  0
 11 12  1  0  0  0  0
 13 14  1  0  0  0  0
 14 15  1  0  0  0  0
 16 14  1  0  0  0  0
 16 17  1  0  0  0  0
 18 16  2  0  0  0  0
 19 18  1  0  0  0  0
 19 13  2  0  0  0  0
 20 19  1  0  0  0  0
 21 22  1  0  0  0  0
 22 23  1  0  0  0  0
 23  5  1  0  0  0  0
 23 24  2  0  0  0  0
 24 28  1  0  0  0  0
 25 24  1  0  0  0  0
 25 29  1  0  0  0  0
 26 25  2  0  0  0  0
 27 22  2  0  0  0  0
 27 26  1  0  0  0  0
 30 26  1  0  0  0  0
 31 27  1  0  0  0  0
M  END
>  <minimizedAffinity>
-5.749825

$$$$

 OpenBabel03262523583D

 31 34  0  0  0  0  0  0  0  0999 V2000
   37.9270   27.5090   35.3200 C   0  0  0  0  0  0  0  0  0  0  0  0
   37.2460   27.3040   34.1020 C   0  0  0  0  0  0  0  0  0  0  0  0
   37.2940   26.0210   33.5630 C   0  0  0  0  0  0  0  0  0  0  0  0
   37.9840   25.0340   34.2200 N   0  0  0  0  0  0  0  0  0  0  0  0
   38.6240   25.2880   35.3930 C   0  0  0  0  0  0  0  0  0  0  0  0
   38.5830   26.5190   35.9200 N   0  0  0  0  0  0  0  0  0  0  0  0
   37.8440   28.5220   35.6700 H   0  0  0  0  0  0  0  0  0  0  0  0
   36.8550   25.6340   32.6580 H   0  0  0  0  0  0  0  0  0  0  0  0
   36.6850   28.4500   31.9700 C   0  0  0  0  0  3  0  0  0  0  0  0
   36.4950   28.2450   33.3200 C   0  0  0  0  0  0  0  0  0  0  0  0
   35.5110   29.0080   33.9390 C   0  0  0  0  0  0  0  0  0  0  0  0
   35.3180   28.8860   35.0060 H   0  0  0  0  0  0  0  0  0  0  0  0
   34.7300   29.9390   33.2890 C   0  0  0  0  0  0  0  0  0  0  0  0
   33.7510   30.7640   33.6830 N   0  0  0  0  0  0  0  0  0  0  0  0
   33.3740   30.8450   34.6590 H   0  0  0  0  0  0  0  0  0  0  0  0
   33.3400   31.4640   32.6050 C   0  0  0  0  0  0  0  0  0  0  0  0
   32.5530   32.2290   32.5580 H   0  0  0  0  0  0  0  0  0  0  0  0
   34.0560   31.1030   31.4740 C   0  0  0  0  0  3  0  0  0  0  0  0
   34.9330   30.1330   31.9380 C   0  0  0  0  0  0  0  0  0  0  0  0
   35.9000   29.3840   31.3230 C   0  0  0  0  0  3  0  0  0  0  0  0
   41.4250   24.6570   34.1340 Br  0  0  0  0  0  0  0  0  0  0  0  0
   40.6180   23.8560   35.6710 C   0  0  0  0  0  0  0  0  0  0  0  0
   39.3570   24.2530   36.1010 C   0  0  0  0  0  0  0  0  0  0  0  0
   38.8480   23.6260   37.2130 C   0  0  0  0  0  0  0  0  0  0  0  0
   39.5280   22.6350   37.9090 C   0  0  0  0  0  0  0  0  0  0  0  0
   40.7680   22.2680   37.4550 C   0  0  0  0  0  0  0  0  0  0  0  0
   41.3090   22.8900   36.3270 C   0  0  0  0  0  0  0  0  0  0  0  0
   37.8710   23.8970   37.5900 H   0  0  0  0  0  0  0  0  0  0  0  0
   39.1440   22.1390   38.7740 H   0  0  0  0  0  0  0  0  0  0  0  0
   41.3720   21.5040   37.9340 H   0  0  0  0  0  0  0  0  0  0  0  0
   42.2910   22.5830   35.9900 H   0  0  0  0  0  0  0  0  0  0  0  0
  1  7  1  0  0  0  0
  1  6  1  0  0  0  0
  2  1  2  0  0  0  0
  3  2  1  0  0  0  0
  3  4  2  0  0  0  0
  4  5  1  0  0  0  0
  5  6  2  0  0  0  0
  5 23  1  0  0  0  0
  8  3  1  0  0  0  0
  9 10  1  0  0  0  0
 10 11  2  0  0  0  0
 10  2  1  0  0  0  0
 11 12  1  0  0  0  0
 13 14  1  0  0  0  0
 13 11  1  0  0  0  0
 14 15  1  0  0  0  0
 16 14  1  0  0  0  0
 17 16  1  0  0  0  0
 18 19  1  0  0  0  0
 18 16  2  0  0  0  0
 19 13  2  0  0  0  0
 20 19  1  0  0  0  0
 20  9  2  0  0  0  0
 21 22  1  0  0  0  0
 22 23  2  0  0  0  0
 22 27  1  0  0  0  0
 23 24  1  0  0  0  0
 24 28  1  0  0  0  0
 24 25  2  0  0  0  0
 25 29  1  0  0  0  0
 26 25  1  0  0  0  0
 26 30  1  0  0  0  0
 27 26  2  0  0  0  0
 31 27  1  0  0  0  0
M  END
>  <minimizedAffinity>
-5.72546005

$$$$

 OpenBabel03262523583D

 31 34  0  0  0  0  0  0  0  0999 V2000
   35.9730   28.9680   32.3450 C   0  0  0  0  0  0  0  0  0  0  0  0
   35.9540   28.9600   33.7550 C   0  0  0  0  0  0  0  0  0  0  0  0
   36.6610   27.9400   34.3880 C   0  0  0  0  0  0  0  0  0  0  0  0
   37.3280   27.0080   33.6350 N   0  0  0  0  0  0  0  0  0  0  0  0
   37.3120   27.0630   32.2750 C   0  0  0  0  0  0  0  0  0  0  0  0
   36.6350   28.0400   31.6570 N   0  0  0  0  0  0  0  0  0  0  0  0
   35.4060   29.7820   31.9320 H   0  0  0  0  0  0  0  0  0  0  0  0
   36.7870   27.7350   35.4380 H   0  0  0  0  0  0  0  0  0  0  0  0
   35.9620   30.7990   35.4250 C   0  0  0  0  0  3  0  0  0  0  0  0
   35.2990   29.8700   34.6530 C   0  0  0  0  0  0  0  0  0  0  0  0
   33.9140   29.8280   34.7670 C   0  0  0  0  0  0  0  0  0  0  0  0
   33.3390   29.1120   34.1790 H   0  0  0  0  0  0  0  0  0  0  0  0
   33.1820   30.6530   35.5950 C   0  0  0  0  0  0  0  0  0  0  0  0
   31.8730   30.7780   35.8540 N   0  0  0  0  0  0  0  0  0  0  0  0
   31.1060   30.2090   35.4220 H   0  0  0  0  0  0  0  0  0  0  0  0
   31.7250   31.7640   36.7650 C   0  0  0  0  0  0  0  0  0  0  0  0
   30.7910   32.1380   37.2070 H   0  0  0  0  0  0  0  0  0  0  0  0
   32.9520   32.3030   37.1210 C   0  0  0  0  0  3  0  0  0  0  0  0
   33.8600   31.5780   36.3620 C   0  0  0  0  0  0  0  0  0  0  0  0
   35.2240   31.6220   36.2520 C   0  0  0  0  0  3  0  0  0  0  0  0
   35.5120   24.6580   31.3790 Br  0  0  0  0  0  0  0  0  0  0  0  0
   37.3580   24.9570   30.9850 C   0  0  0  0  0  0  0  0  0  0  0  0
   38.0150   26.0850   31.4650 C   0  0  0  0  0  0  0  0  0  0  0  0
   39.3420   26.2240   31.1370 C   0  0  0  0  0  0  0  0  0  0  0  0
   40.0380   25.3040   30.3630 C   0  0  0  0  0  0  0  0  0  0  0  0
   39.3590   24.2040   29.9080 C   0  0  0  0  0  0  0  0  0  0  0  0
   38.0080   24.0390   30.2270 C   0  0  0  0  0  0  0  0  0  0  0  0
   39.9000   27.0830   31.4830 H   0  0  0  0  0  0  0  0  0  0  0  0
   41.0690   25.4000   30.1010 H   0  0  0  0  0  0  0  0  0  0  0  0
   39.8200   23.4330   29.2980 H   0  0  0  0  0  0  0  0  0  0  0  0
   37.4940   23.1610   29.8550 H   0  0  0  0  0  0  0  0  0  0  0  0
  1  2  1  0  0  0  0
  2  3  2  0  0  0  0
  2 10  1  0  0  0  0
  3  8  1  0  0  0  0
  4  3  1  0  0  0  0
  5  4  2  0  0  0  0
  6  5  1  0  0  0  0
  6  1  2  0  0  0  0
  7  1  1  0  0  0  0
  9 20  1  0  0  0  0
 10 11  1  0  0  0  0
 10  9  2  0  0  0  0
 11 13  2  0  0  0  0
 12 11  1  0  0  0  0
 13 14  1  0  0  0  0
 13 19  1  0  0  0  0
 14 16  1  0  0  0  0
 15 14  1  0  0  0  0
 16 18  2  0  0  0  0
 16 17  1  0  0  0  0
 19 18  1  0  0  0  0
 20 19  2  0  0  0  0
 22 21  1  0  0  0  0
 22 23  1  0  0  0  0
 23  5  1  0  0  0  0
 24 23  2  0  0  0  0
 24 28  1  0  0  0  0
 25 24  1  0  0  0  0
 26 27  1  0  0  0  0
 26 25  2  0  0  0  0
 27 22  2  0  0  0  0
 29 25  1  0  0  0  0
 30 26  1  0  0  0  0
 31 27  1  0  0  0  0
M  END
>  <minimizedAffinity>
-5.6835866

$$$$
