
     RDKit          3D

 51 54  0  0  0  0  0  0  0  0999 V2000
   37.4294   31.3173   45.3874 C   0  0  2  0  0  0  0  0  0  0  0  0
   38.3441   30.8318   44.3634 C   0  0  0  0  0  0  0  0  0  0  0  0
   39.6642   30.3162   44.9348 C   0  0  0  0  0  0  0  0  0  0  0  0
   40.3743   31.3351   45.7664 C   0  0  0  0  0  0  0  0  0  0  0  0
   39.4512   32.2216   46.5713 C   0  0  0  0  0  0  0  0  0  0  0  0
   38.0719   31.5830   46.7222 C   0  0  2  0  0  0  0  0  0  0  0  0
   36.2490   30.4818   45.6324 C   0  0  0  0  0  0  0  0  0  0  0  0
   35.8696   29.6850   44.5465 C   0  0  0  0  0  0  0  0  0  0  0  0
   34.7677   28.8656   44.7310 C   0  0  0  0  0  0  0  0  0  0  0  0
   34.1164   28.8710   45.9305 N   0  0  0  0  0  0  0  0  0  0  0  0
   34.5138   29.6537   46.9490 C   0  0  0  0  0  0  0  0  0  0  0  0
   35.5511   30.4172   46.7598 N   0  0  0  0  0  0  0  0  0  0  0  0
   38.2198   30.5345   47.6263 N   0  0  0  0  0  0  0  0  0  0  0  0
   37.6465   30.7589   49.2068 S   0  0  1  0  0  0  0  0  0  0  0  0
   38.9079   30.9660   50.0532 O   0  0  0  0  0  0  0  0  0  0  0  0
   36.7721   31.9214   49.3501 O   0  0  0  0  0  0  0  0  0  0  0  0
   36.9206   29.3769   49.8240 O   0  0  0  0  0  0  0  0  0  0  0  0
   36.7829   29.4190   51.2017 C   0  0  0  0  0  0  0  0  0  0  0  0
   37.7506   28.6384   51.7830 F   0  0  0  0  0  0  0  0  0  0  0  0
   37.0326   30.7035   51.5995 F   0  0  0  0  0  0  0  0  0  0  0  0
   35.5033   29.1079   51.6435 F   0  0  0  0  0  0  0  0  0  0  0  0
   37.0099   32.3093   45.0375 H   0  0  0  0  0  0  0  0  0  0  0  0
   38.6759   31.6688   43.6678 H   0  0  0  0  0  0  0  0  0  0  0  0
   38.0241   30.0386   43.6739 H   0  0  0  0  0  0  0  0  0  0  0  0
   40.3087   30.1485   44.0403 H   0  0  0  0  0  0  0  0  0  0  0  0
   39.5756   29.3252   45.4011 H   0  0  0  0  0  0  0  0  0  0  0  0
   41.0121   30.7784   46.5132 H   0  0  0  0  0  0  0  0  0  0  0  0
   41.0808   31.9782   45.1998 H   0  0  0  0  0  0  0  0  0  0  0  0
   39.8203   32.4458   47.5863 H   0  0  0  0  0  0  0  0  0  0  0  0
   39.2909   33.1725   46.0181 H   0  0  0  0  0  0  0  0  0  0  0  0
   37.4532   32.3648   47.2266 H   0  0  0  0  0  0  0  0  0  0  0  0
   36.2153   29.5330   43.5467 H   0  0  0  0  0  0  0  0  0  0  0  0
   34.3049   28.1855   44.0606 H   0  0  0  0  0  0  0  0  0  0  0  0
   33.9867   29.6505   47.9015 H   0  0  0  0  0  0  0  0  0  0  0  0
   39.1180   30.0422   47.6680 H   0  0  0  0  0  0  0  0  0  0  0  0
   39.1716   30.4024   50.8235 H   0  0  0  0  0  0  0  0  0  0  0  0
   36.2496   34.1004   49.1117 C   0  0  0  0  0  0  0  0  0  0  0  0
   36.4137   33.0425   50.0193 C   0  0  0  0  0  0  0  0  0  0  0  0
   36.1802   33.3713   51.3341 C   0  0  0  0  0  0  0  0  0  0  0  0
   36.3329   32.4857   51.9586 H   0  0  0  0  0  0  0  0  0  0  0  0
   35.8162   34.6205   51.7518 C   0  0  0  0  0  0  0  0  0  0  0  0
   35.5645   35.0541   52.9933 N   0  0  0  0  0  0  0  0  0  0  0  0
   35.5998   34.5136   53.8815 H   0  0  0  0  0  0  0  0  0  0  0  0
   35.2434   36.3641   52.9007 C   0  0  0  0  0  0  0  0  0  0  0  0
   34.9753   37.0655   53.6920 H   0  0  0  0  0  0  0  0  0  0  0  0
   35.2947   36.7524   51.5904 C   0  0  0  0  0  0  0  0  0  0  0  0
   35.6585   35.6558   50.8378 C   0  0  0  0  0  0  0  0  0  0  0  0
   35.8805   35.3820   49.5020 C   0  0  0  0  0  0  0  0  0  0  0  0
   36.3805   34.0798   48.0197 H   0  0  0  0  0  0  0  0  0  0  0  0
   35.1018   37.7172   51.1409 H   0  0  0  0  0  0  0  0  0  0  0  0
   35.7405   36.2222   48.8656 H   0  0  0  0  0  0  0  0  0  0  0  0
  1  7  1  0
  1  6  1  0
  2  3  1  0
  2  1  1  0
  3  4  1  0
  4  5  1  0
  5  6  1  0
  6 13  1  0
  7 12  2  0
  8  9  2  0
  8  7  1  0
  9 10  1  0
 10 11  2  0
 12 11  1  0
 13 14  1  0
 14 16  1  6
 14 17  1  0
 14 15  1  0
 17 18  1  0
 18 20  1  0
 18 21  1  0
 18 19  1  0
  1 22  1  6
  2 23  1  0
  2 24  1  0
  3 25  1  0
  3 26  1  0
  4 27  1  0
  4 28  1  0
  5 29  1  0
  5 30  1  0
  6 31  1  1
  8 32  1  0
  9 33  1  0
 11 34  1  0
 13 35  1  0
 15 36  1  0
 37 38  2  0
 38 39  1  0
 39 40  1  0
 39 41  2  0
 41 42  1  0
 42 43  1  0
 42 44  1  0
 44 45  1  0
 44 46  2  0
 46 47  1  0
 47 48  2  0
 48 37  1  0
 47 41  1  0
 37 49  1  0
 46 50  1  0
 48 51  1  0
 16 38  1  0
M  ISO  8  22  13  23  13  24  13  25  13  26  13  27  13  28  13  29  13
M  ISO  8  30  13  31  13  32  14  33  14  34  14  35   5  36   3  40  15
M  ISO  2  43   5  45  14
M  END
>  <DihAtoms>  (1) 
13,15,37,36

>  <DihDeg>  (1) 
86.97151767686746

$$$$
