REMARK  Name = 
REMARK  3 active torsions:
REMARK  status: ('A' for Active; 'I' for Inactive)
REMARK    1  A    between atoms: N_1  and  C_7
REMARK    2  A    between atoms: C_6  and  O_13
REMARK    3  A    between atoms: O_13  and  C_27
REMARK                            x       y       z     vdW  Elec       q    Type
REMARK                         _______ _______ _______ _____ _____    ______ ____
ROOT
ATOM      1  N   UNL     1      35.970  29.630  48.872  0.00  0.00    +0.000 N 
ATOM      2  C   UNL     1      36.558  28.854  49.944  0.00  0.00    +0.000 C 
ATOM      3  C   UNL     1      37.044  29.575  51.112  0.00  0.00    +0.000 C 
ATOM      4  C   UNL     1      37.430  30.988  50.974  0.00  0.00    +0.000 C 
ATOM      5  C   UNL     1      36.822  31.682  49.792  0.00  0.00    +0.000 C 
ATOM      6  C   UNL     1      36.846  30.757  48.570  0.00  0.00    +0.000 C 
ATOM      7  H   UNL     1      35.753  28.122  50.244  0.00  0.00    +0.000 HD
ATOM      8  H   UNL     1      37.352  28.198  49.520  0.00  0.00    +0.000 HD
ATOM      9  H   UNL     1      36.284  29.508  51.943  0.00  0.00    +0.000 HD
ATOM     10  H   UNL     1      37.933  29.033  51.549  0.00  0.00    +0.000 HD
ATOM     11  H   UNL     1      38.550  31.105  50.910  0.00  0.00    +0.000 HD
ATOM     12  H   UNL     1      37.148  31.595  51.868  0.00  0.00    +0.000 HD
ATOM     13  H   UNL     1      37.351  32.630  49.583  0.00  0.00    +0.000 HD
ATOM     14  H   UNL     1      35.773  31.912  50.013  0.00  0.00    +0.000 HD
ATOM     15  H   UNL     1      36.482  31.356  47.739  0.00  0.00    +0.000 HD
ENDROOT
BRANCH   1  16
ATOM     16  C   UNL     1      34.738  29.331  48.225  0.00  0.00    +0.000 A 
ATOM     17  C   UNL     1      34.250  30.007  47.110  0.00  0.00    +0.000 A 
ATOM     18  C   UNL     1      33.033  29.613  46.570  0.00  0.00    +0.000 A 
ATOM     19  N   UNL     1      32.374  28.585  47.156  0.00  0.00    +0.000 NA
ATOM     20  C   UNL     1      32.879  27.955  48.235  0.00  0.00    +0.000 A 
ATOM     21  N   UNL     1      34.058  28.332  48.763  0.00  0.00    +0.000 NA
ATOM     22  H   UNL     1      34.825  30.800  46.710  0.00  0.00    +0.000 HD
ATOM     23  H   UNL     1      32.719  30.180  45.709  0.00  0.00    +0.000 HD
ATOM     24  H   UNL     1      32.313  27.128  48.678  0.00  0.00    +0.000 HD
ENDBRANCH   1  16
BRANCH   6  25
ATOM     25  O   UNL     1      38.169  30.348  48.464  0.00  0.00    +0.000 OA
BRANCH  25  27
ATOM     26  C   UNL     1      40.031  31.436  47.808  0.00  0.00    +0.000 A 
ATOM     27  C   UNL     1      38.931  30.704  47.374  0.00  0.00    +0.000 A 
ATOM     28  C   UNL     1      38.803  30.478  46.034  0.00  0.00    +0.000 A 
ATOM     29  H   UNL     1      37.946  29.915  45.771  0.00  0.00    +0.000 HD
ATOM     30  C   UNL     1      39.737  30.963  45.144  0.00  0.00    +0.000 A 
ATOM     31  N   UNL     1      39.732  30.812  43.797  0.00  0.00    +0.000 N 
ATOM     32  H   UNL     1      39.041  30.316  43.198  0.00  0.00    +0.000 HD
ATOM     33  C   UNL     1      40.832  31.442  43.295  0.00  0.00    +0.000 A 
ATOM     34  H   UNL     1      41.141  31.521  42.254  0.00  0.00    +0.000 HD
ATOM     35  C   UNL     1      41.523  31.991  44.376  0.00  0.00    +0.000 A 
ATOM     36  C   UNL     1      40.852  31.701  45.548  0.00  0.00    +0.000 A 
ATOM     37  C   UNL     1      40.979  31.929  46.904  0.00  0.00    +0.000 A 
ENDBRANCH  25  27
ENDBRANCH   6  25
TORSDOF 3
