
 OpenBabel03272510123D

 38 42  0  0  0  0  0  0  0  0999 V2000
   36.7720   29.6650   49.9740 O   0  0  0  0  0  0  0  0  0  0  0  0
   32.9060   28.2530   49.0970 C   0  0  0  0  0  0  0  0  0  0  0  0
   33.1210   29.0860   50.1390 C   0  0  0  0  0  0  0  0  0  0  0  0
   34.3440   29.5950   50.4970 C   0  0  0  0  0  0  0  0  0  0  0  0
   35.4580   29.2610   49.7760 C   0  0  0  0  0  0  0  0  0  0  0  0
   35.2420   28.3950   48.6920 C   0  0  0  0  0  0  0  0  0  0  0  0
   34.0120   27.9220   48.3810 N   0  0  0  0  0  0  0  0  0  0  0  0
   32.3050   29.4100   50.7720 H   0  0  0  0  0  0  0  0  0  0  0  0
   34.5290   30.2610   51.3280 H   0  0  0  0  0  0  0  0  0  0  0  0
   36.0060   28.0170   48.0000 H   0  0  0  0  0  0  0  0  0  0  0  0
   30.4660   27.8040   49.5480 C   0  0  0  0  0  0  0  0  0  0  0  0
   31.6090   27.7300   48.7380 C   0  0  0  0  0  0  0  0  0  0  0  0
   31.4510   27.1030   47.5120 C   0  0  0  0  0  0  0  0  0  0  0  0
   30.2290   26.6050   47.1610 N   0  0  0  0  0  0  0  0  0  0  0  0
   29.1710   26.7090   47.9840 C   0  0  0  0  0  0  0  0  0  0  0  0
   29.2890   27.3080   49.1740 N   0  0  0  0  0  0  0  0  0  0  0  0
   30.5680   28.2860   50.5010 H   0  0  0  0  0  0  0  0  0  0  0  0
   32.2710   26.9930   46.8150 H   0  0  0  0  0  0  0  0  0  0  0  0
   28.2800   26.2600   47.5500 H   0  0  0  0  0  0  0  0  0  0  0  0
   37.4240   30.5200   49.1130 C   0  0  0  0  0  0  0  0  0  0  0  0
   38.1680   31.5330   49.7210 C   0  0  0  0  0  0  0  0  0  0  0  0
   38.7460   32.2840   48.7020 C   0  0  0  0  0  0  0  0  0  0  0  0
   38.3440   31.7180   47.5390 N   0  0  0  0  0  0  0  0  0  0  0  0
   37.5730   30.6880   47.7870 N   0  0  0  0  0  0  0  0  0  0  0  0
   38.3650   31.8220   50.7510 H   0  0  0  0  0  0  0  0  0  0  0  0
   39.4000   33.1650   48.7860 H   0  0  0  0  0  0  0  0  0  0  0  0
   39.9530   32.8190   45.9890 C   0  0  0  0  0  3  0  0  0  0  0  0
   38.7360   32.2130   46.2630 C   0  0  0  0  0  0  0  0  0  0  0  0
   37.7680   32.0360   45.2780 C   0  0  0  0  0  0  0  0  0  0  0  0
   36.8120   31.5740   45.4360 H   0  0  0  0  0  0  0  0  0  0  0  0
   38.0360   32.4810   43.9860 C   0  0  0  0  0  0  0  0  0  0  0  0
   37.3660   32.4850   42.7980 N   0  0  0  0  0  0  0  0  0  0  0  0
   36.4010   32.0710   42.7520 H   0  0  0  0  0  0  0  0  0  0  0  0
   38.1310   33.0620   41.8530 C   0  0  0  0  0  0  0  0  0  0  0  0
   37.8170   33.1840   40.8180 H   0  0  0  0  0  0  0  0  0  0  0  0
   39.3410   33.4620   42.3780 C   0  0  0  0  0  3  0  0  0  0  0  0
   39.2540   33.0840   43.7240 C   0  0  0  0  0  0  0  0  0  0  0  0
   40.2250   33.2630   44.7090 C   0  0  0  0  0  3  0  0  0  0  0  0
  2  3  1  0  0  0  0
  3  4  2  0  0  0  0
  3  8  1  0  0  0  0
  4  9  1  0  0  0  0
  5  1  1  0  0  0  0
  5  4  1  0  0  0  0
  6  5  2  0  0  0  0
  7  6  1  0  0  0  0
  7  2  2  0  0  0  0
 10  6  1  0  0  0  0
 11 17  1  0  0  0  0
 12  2  1  0  0  0  0
 12 11  2  0  0  0  0
 13 12  1  0  0  0  0
 14 13  2  0  0  0  0
 14 15  1  0  0  0  0
 15 16  2  0  0  0  0
 16 11  1  0  0  0  0
 18 13  1  0  0  0  0
 19 15  1  0  0  0  0
 20 21  1  0  0  0  0
 20  1  1  0  0  0  0
 21 25  1  0  0  0  0
 22 26  1  0  0  0  0
 22 21  2  0  0  0  0
 23 24  1  0  0  0  0
 23 22  1  0  0  0  0
 24 20  2  0  0  0  0
 27 28  1  0  0  0  0
 28 23  1  0  0  0  0
 29 30  1  0  0  0  0
 29 28  2  0  0  0  0
 31 29  1  0  0  0  0
 32 31  1  0  0  0  0
 33 32  1  0  0  0  0
 34 36  2  0  0  0  0
 34 32  1  0  0  0  0
 35 34  1  0  0  0  0
 36 37  1  0  0  0  0
 37 31  2  0  0  0  0
 37 38  1  0  0  0  0
 38 27  2  0  0  0  0
M  END
>  <minimizedAffinity>
-6.32784939

>  <minimizedRMSD>
2.24758649

$$$$
