
 OpenBabel03272510163D

 31 34  0  0  0  0  0  0  0  0999 V2000
   37.3220   29.3370   51.0310 Br  0  0  0  0  0  0  0  0  0  0  0  0
   35.9670   29.3400   49.6710 C   0  0  0  0  0  0  0  0  0  0  0  0
   35.9970   30.2620   48.6490 C   0  0  0  0  0  0  0  0  0  0  0  0
   34.9870   30.2000   47.7070 C   0  0  0  0  0  0  0  0  0  0  0  0
   33.9650   29.2670   47.7500 C   0  0  0  0  0  0  0  0  0  0  0  0
   33.9700   28.3680   48.7800 C   0  0  0  0  0  0  0  0  0  0  0  0
   34.9700   28.4100   49.7340 C   0  0  0  0  0  0  0  0  0  0  0  0
   34.9700   30.9030   46.8870 H   0  0  0  0  0  0  0  0  0  0  0  0
   33.2030   27.6260   48.8580 H   0  0  0  0  0  0  0  0  0  0  0  0
   34.9270   27.6780   50.5280 H   0  0  0  0  0  0  0  0  0  0  0  0
   32.2620   28.0970   46.3370 C   0  0  0  0  0  3  0  0  0  0  0  0
   32.9280   29.2310   46.7520 C   0  0  0  0  0  0  0  0  0  0  0  0
   32.5210   30.3900   46.1240 C   0  0  0  0  0  0  0  0  0  0  0  0
   33.0270   31.3130   46.4260 H   0  0  0  0  0  0  0  0  0  0  0  0
   31.5470   30.5050   45.1560 C   0  0  0  0  0  0  0  0  0  0  0  0
   31.0560   31.5490   44.4690 N   0  0  0  0  0  0  0  0  0  0  0  0
   31.3910   32.5300   44.5950 H   0  0  0  0  0  0  0  0  0  0  0  0
   30.0990   31.0270   43.6460 C   0  0  0  0  0  0  0  0  0  0  0  0
   29.5810   31.7310   43.0010 H   0  0  0  0  0  0  0  0  0  0  0  0
   30.0080   29.6660   43.8340 C   0  0  0  0  0  3  0  0  0  0  0  0
   30.9270   29.3030   44.7980 C   0  0  0  0  0  0  0  0  0  0  0  0
   31.2740   28.1040   45.3770 C   0  0  0  0  0  3  0  0  0  0  0  0
   37.9980   33.2000   49.4600 C   0  0  0  0  0  0  0  0  0  0  0  0
   39.0200   33.1910   48.4860 C   0  0  0  0  0  0  0  0  0  0  0  0
   39.0040   32.1630   47.5560 C   0  0  0  0  0  0  0  0  0  0  0  0
   38.0210   31.2150   47.6130 N   0  0  0  0  0  0  0  0  0  0  0  0
   37.0540   31.2600   48.5670 C   0  0  0  0  0  0  0  0  0  0  0  0
   37.0520   32.2610   49.4900 N   0  0  0  0  0  0  0  0  0  0  0  0
   37.9610   33.9880   50.2210 H   0  0  0  0  0  0  0  0  0  0  0  0
   39.7770   33.9620   48.4800 H   0  0  0  0  0  0  0  0  0  0  0  0
   39.7600   32.1020   46.7850 H   0  0  0  0  0  0  0  0  0  0  0  0
  2  7  1  0  0  0  0
  2  1  1  0  0  0  0
  3  2  2  0  0  0  0
  4  5  2  0  0  0  0
  4  3  1  0  0  0  0
  5  6  1  0  0  0  0
  6  9  1  0  0  0  0
  6  7  2  0  0  0  0
  7 10  1  0  0  0  0
  8  4  1  0  0  0  0
 11 12  1  0  0  0  0
 12  5  1  0  0  0  0
 13 14  1  0  0  0  0
 13 12  2  0  0  0  0
 15 13  1  0  0  0  0
 16 17  1  0  0  0  0
 16 15  1  0  0  0  0
 18 20  2  0  0  0  0
 18 16  1  0  0  0  0
 19 18  1  0  0  0  0
 20 21  1  0  0  0  0
 21 15  2  0  0  0  0
 21 22  1  0  0  0  0
 22 11  2  0  0  0  0
 23 28  1  0  0  0  0
 23 29  1  0  0  0  0
 24 23  2  0  0  0  0
 25 26  2  0  0  0  0
 25 24  1  0  0  0  0
 26 27  1  0  0  0  0
 27  3  1  0  0  0  0
 27 28  2  0  0  0  0
 30 24  1  0  0  0  0
 31 25  1  0  0  0  0
M  END
>  <minimizedAffinity>
-6.22090816

>  <minimizedRMSD>
0.587285638

$$$$
