
     RDKit          3D

 34 37  0  0  0  0  0  0  0  0999 V2000
   37.9833   33.1646   49.4323 C   0  0  0  0  0  0  0  0  0  0  0  0
   39.0165   33.1641   48.4730 C   0  0  0  0  0  0  0  0  0  0  0  0
   39.0098   32.1276   47.5423 C   0  0  0  0  0  0  0  0  0  0  0  0
   38.0246   31.1741   47.5951 N   0  0  0  0  0  0  0  0  0  0  0  0
   37.0514   31.2244   48.5436 C   0  0  0  0  0  0  0  0  0  0  0  0
   37.0487   32.2167   49.4431 N   0  0  0  0  0  0  0  0  0  0  0  0
   37.2649   29.3550   51.0518 Br  0  0  0  0  0  0  0  0  0  0  0  0
   35.9523   29.3160   49.6632 C   0  0  0  0  0  0  0  0  0  0  0  0
   36.0009   30.2234   48.6114 C   0  0  0  0  0  0  0  0  0  0  0  0
   35.0195   30.1260   47.6544 C   0  0  0  0  0  0  0  0  0  0  0  0
   34.0040   29.1799   47.6936 C   0  0  0  0  0  0  0  0  0  0  0  0
   33.9877   28.3010   48.7462 C   0  0  0  0  0  0  0  0  0  0  0  0
   34.9743   28.3783   49.7332 C   0  0  0  0  0  0  0  0  0  0  0  0
   38.0566   33.9930   50.1133 H   0  0  0  0  0  0  0  0  0  0  0  0
   39.6866   31.9244   46.7293 H   0  0  0  0  0  0  0  0  0  0  0  0
   35.0113   30.8085   46.8144 H   0  0  0  0  0  0  0  0  0  0  0  0
   33.2358   29.0934   46.9567 H   0  0  0  0  0  0  0  0  0  0  0  0
   33.2337   27.5280   48.8613 H   0  0  0  0  0  0  0  0  0  0  0  0
   34.9378   27.6724   50.5543 H   0  0  0  0  0  0  0  0  0  0  0  0
   39.9516   35.4643   48.3882 C   0  0  0  0  0  0  0  0  0  0  0  0
   40.0979   34.0946   48.3118 C   0  0  0  0  0  0  0  0  0  0  0  0
   41.3774   33.6110   48.0629 C   0  0  0  0  0  0  0  0  0  0  0  0
   41.5489   32.5361   47.9934 H   0  0  0  0  0  0  0  0  0  0  0  0
   42.4867   34.4113   47.8918 C   0  0  0  0  0  0  0  0  0  0  0  0
   43.7803   34.1601   47.6483 N   0  0  0  0  0  0  0  0  0  0  0  0
   44.2086   33.2091   47.5352 H   0  0  0  0  0  0  0  0  0  0  0  0
   44.4253   35.3443   47.5747 C   0  0  0  0  0  0  0  0  0  0  0  0
   45.4931   35.5188   47.3888 H   0  0  0  0  0  0  0  0  0  0  0  0
   43.5490   36.4013   47.7718 C   0  0  0  0  0  0  0  0  0  0  0  0
   42.3254   35.7793   47.9709 C   0  0  0  0  0  0  0  0  0  0  0  0
   41.0669   36.2599   48.2159 C   0  0  0  0  0  0  0  0  0  0  0  0
   38.9577   35.8890   48.5835 H   0  0  0  0  0  0  0  0  0  0  0  0
   43.7607   37.4657   47.7724 H   0  0  0  0  0  0  0  0  0  0  0  0
   40.8806   37.3333   48.2893 H   0  0  0  0  0  0  0  0  0  0  0  0
  1  6  2  0
  2  1  1  0
  3  4  1  0
  3  2  2  0
  4  5  2  0
  5  9  1  0
  5  6  1  0
  8 13  2  0
  8  7  1  0
  9  8  1  0
 10 11  1  0
 10  9  2  0
 11 12  2  0
 12 13  1  0
  1 14  1  0
  3 15  1  0
 10 16  1  0
 11 17  1  0
 12 18  1  0
 13 19  1  0
 20 21  2  0
 21 22  1  0
 22 23  1  0
 22 24  2  0
 24 25  1  0
 25 26  1  0
 25 27  1  0
 27 28  1  0
 27 29  2  0
 29 30  1  0
 30 31  2  0
 31 20  1  0
 30 24  1  0
 20 32  1  0
 29 33  1  0
 31 34  1  0
  2 21  1  0
M  ISO  8  14  14  15  14  16  14  17  14  18  14  19  14  23  15  26   5
M  ISO  1  28  14
M  END
>  <DihAtoms>  (1) 
0,1,20,19

>  <DihDeg>  (1) 
-148.85424646440788

$$$$
