
 OpenBabel03272501183D

 33 36  0  0  0  0  0  0  0  0999 V2000
   37.9090   31.0630   47.8270 C   0  0  0  0  0  0  0  0  0  0  0  0
   36.9190   31.1230   48.7750 C   0  0  0  0  0  0  0  0  0  0  0  0
   36.9930   32.2290   49.6330 C   0  0  0  0  0  0  0  0  0  0  0  0
   38.0090   33.1830   49.5090 C   0  0  0  0  0  0  0  0  0  0  0  0
   38.9680   33.0220   48.5040 C   0  0  0  0  0  0  0  0  0  0  0  0
   38.9190   31.9460   47.6480 C   0  0  0  0  0  0  0  0  0  0  0  0
   36.2470   32.3500   50.4090 H   0  0  0  0  0  0  0  0  0  0  0  0
   38.0090   34.0160   50.2040 H   0  0  0  0  0  0  0  0  0  0  0  0
   39.7210   33.8010   48.4720 H   0  0  0  0  0  0  0  0  0  0  0  0
   34.7440   30.2030   48.0930 C   0  0  0  0  0  0  0  0  0  0  0  0
   35.8710   30.1490   48.9110 C   0  0  0  0  0  0  0  0  0  0  0  0
   35.9320   29.1200   49.8510 C   0  0  0  0  0  0  0  0  0  0  0  0
   34.8930   28.2360   49.9150 N   0  0  0  0  0  0  0  0  0  0  0  0
   33.8180   28.3300   49.0960 C   0  0  0  0  0  0  0  0  0  0  0  0
   33.7450   29.3140   48.1860 N   0  0  0  0  0  0  0  0  0  0  0  0
   34.7230   31.0150   47.3670 H   0  0  0  0  0  0  0  0  0  0  0  0
   36.7820   29.0260   50.5160 H   0  0  0  0  0  0  0  0  0  0  0  0
   32.9970   27.6270   49.1490 H   0  0  0  0  0  0  0  0  0  0  0  0
   37.9070   29.9830   46.9240 O   0  0  0  0  0  0  0  0  0  0  0  0
   38.1380   29.0470   47.2180 H   0  0  0  0  0  0  0  0  0  0  0  0
   39.8870   31.8320   46.6760 O   0  0  0  0  0  0  0  0  0  0  0  0
   40.1240   33.4390   45.0820 C   0  0  0  0  0  3  0  0  0  0  0  0
   39.6040   32.1730   45.3660 C   0  0  0  0  0  0  0  0  0  0  0  0
   38.9310   31.4850   44.3800 C   0  0  0  0  0  0  0  0  0  0  0  0
   38.5820   30.5340   44.7170 H   0  0  0  0  0  0  0  0  0  0  0  0
   38.7890   32.0680   43.1390 C   0  0  0  0  0  0  0  0  0  0  0  0
   38.1710   31.5620   42.0580 N   0  0  0  0  0  0  0  0  0  0  0  0
   37.6880   30.6400   41.9610 H   0  0  0  0  0  0  0  0  0  0  0  0
   38.2900   32.4860   41.0920 C   0  0  0  0  0  0  0  0  0  0  0  0
   37.9310   32.4740   40.0610 H   0  0  0  0  0  0  0  0  0  0  0  0
   38.9800   33.5990   41.5210 C   0  0  0  0  0  3  0  0  0  0  0  0
   39.2990   33.3180   42.8490 C   0  0  0  0  0  0  0  0  0  0  0  0
   39.9750   34.0230   43.8200 C   0  0  0  0  0  3  0  0  0  0  0  0
  1  2  1  0  0  0  0
  2 11  1  0  0  0  0
  2  3  2  0  0  0  0
  3  7  1  0  0  0  0
  4  3  1  0  0  0  0
  4  8  1  0  0  0  0
  5  4  2  0  0  0  0
  6  1  2  0  0  0  0
  6  5  1  0  0  0  0
  9  5  1  0  0  0  0
 10 15  2  0  0  0  0
 10 11  1  0  0  0  0
 11 12  2  0  0  0  0
 12 13  1  0  0  0  0
 12 17  1  0  0  0  0
 14 18  1  0  0  0  0
 14 13  2  0  0  0  0
 15 14  1  0  0  0  0
 16 10  1  0  0  0  0
 19 20  1  0  0  0  0
 19  1  1  0  0  0  0
 21  6  1  0  0  0  0
 22 23  1  0  0  0  0
 23 21  1  0  0  0  0
 24 25  1  0  0  0  0
 24 23  2  0  0  0  0
 26 24  1  0  0  0  0
 27 26  1  0  0  0  0
 28 27  1  0  0  0  0
 29 31  2  0  0  0  0
 29 27  1  0  0  0  0
 30 29  1  0  0  0  0
 31 32  1  0  0  0  0
 32 26  2  0  0  0  0
 32 33  1  0  0  0  0
 33 22  2  0  0  0  0
M  END
>  <minimizedAffinity>
-6.02491093

>  <minimizedRMSD>
3.1578548

$$$$
