
 OpenBabel03272502583D

 37 40  0  0  1  0  0  0  0  0999 V2000
   35.7680   29.5730   48.9460 N   0  0  0  0  0  0  0  0  0  0  0  0
   36.5830   28.7510   49.8160 C   0  0  0  0  0  0  0  0  0  0  0  0
   37.1010   29.3620   51.0330 C   0  0  0  0  0  0  0  0  0  0  0  0
   37.2650   30.8230   51.0880 C   0  0  0  0  0  0  0  0  0  0  0  0
   36.4280   31.5770   50.0980 C   0  0  0  0  0  0  0  0  0  0  0  0
   36.4340   30.8550   48.7470 C   0  0  1  0  0  0  0  0  0  0  0  0
   35.9310   27.8660   50.0710 H   0  0  0  0  0  0  0  0  0  0  0  0
   37.4050   28.2970   49.2170 H   0  0  0  0  0  0  0  0  0  0  0  0
   36.4630   29.0570   51.9120 H   0  0  0  0  0  0  0  0  0  0  0  0
   38.1030   28.9090   51.2880 H   0  0  0  0  0  0  0  0  0  0  0  0
   38.3420   31.1230   50.9350 H   0  0  0  0  0  0  0  0  0  0  0  0
   37.0110   31.2420   52.0910 H   0  0  0  0  0  0  0  0  0  0  0  0
   36.7900   32.6170   49.9950 H   0  0  0  0  0  0  0  0  0  0  0  0
   35.3920   31.6050   50.4550 H   0  0  0  0  0  0  0  0  0  0  0  0
   35.8930   31.5040   48.0630 H   0  0  0  0  0  0  0  0  0  0  0  0
   34.5210   29.1810   48.3820 C   0  0  0  0  0  0  0  0  0  0  0  0
   34.0280   29.6420   47.1640 C   0  0  0  0  0  0  0  0  0  0  0  0
   32.7960   29.1770   46.7240 C   0  0  0  0  0  0  0  0  0  0  0  0
   32.1280   28.2930   47.5030 N   0  0  0  0  0  0  0  0  0  0  0  0
   32.6380   27.8700   48.6760 C   0  0  0  0  0  0  0  0  0  0  0  0
   33.8310   28.3170   49.1090 N   0  0  0  0  0  0  0  0  0  0  0  0
   34.6110   30.3320   46.6140 H   0  0  0  0  0  0  0  0  0  0  0  0
   32.4800   29.5750   45.7740 H   0  0  0  0  0  0  0  0  0  0  0  0
   32.0640   27.1550   49.2760 H   0  0  0  0  0  0  0  0  0  0  0  0
   37.7790   30.6790   48.4480 O   0  0  0  0  0  0  0  0  0  0  0  0
   38.2500   30.2910   46.2760 C   0  0  0  0  0  3  0  0  0  0  0  0
   38.3240   31.2230   47.3060 C   0  0  0  0  0  0  0  0  0  0  0  0
   38.8860   32.4350   47.0310 C   0  0  0  0  0  0  0  0  0  0  0  0
   38.9120   33.0980   47.8570 H   0  0  0  0  0  0  0  0  0  0  0  0
   39.3640   32.7220   45.7700 C   0  0  0  0  0  0  0  0  0  0  0  0
   39.9420   33.8780   45.3620 N   0  0  0  0  0  0  0  0  0  0  0  0
   40.1290   34.7430   45.9090 H   0  0  0  0  0  0  0  0  0  0  0  0
   40.2680   33.7480   44.0450 C   0  0  0  0  0  0  0  0  0  0  0  0
   40.7470   34.4820   43.3980 H   0  0  0  0  0  0  0  0  0  0  0  0
   39.8750   32.4700   43.6460 C   0  0  0  0  0  3  0  0  0  0  0  0
   39.3030   31.8080   44.7150 C   0  0  0  0  0  0  0  0  0  0  0  0
   38.7340   30.5820   44.9960 C   0  0  0  0  0  3  0  0  0  0  0  0
  1  2  1  0  0  0  0
  2  7  1  0  0  0  0
  2  3  1  0  0  0  0
  3  4  1  0  0  0  0
  3 10  1  0  0  0  0
  3  9  1  0  0  0  0
  4 12  1  0  0  0  0
  5 14  1  0  0  0  0
  5  4  1  0  0  0  0
  6 15  1  6  0  0  0
  6  1  1  0  0  0  0
  6  5  1  0  0  0  0
  8  2  1  0  0  0  0
 11  4  1  0  0  0  0
 13  5  1  0  0  0  0
 16  1  1  0  0  0  0
 16 21  1  0  0  0  0
 17 16  2  0  0  0  0
 18 17  1  0  0  0  0
 18 19  2  0  0  0  0
 19 20  1  0  0  0  0
 20 21  2  0  0  0  0
 20 24  1  0  0  0  0
 22 17  1  0  0  0  0
 23 18  1  0  0  0  0
 25  6  1  0  0  0  0
 26 27  1  0  0  0  0
 27 25  1  0  0  0  0
 28 27  2  0  0  0  0
 28 29  1  0  0  0  0
 30 28  1  0  0  0  0
 31 30  1  0  0  0  0
 31 32  1  0  0  0  0
 33 31  1  0  0  0  0
 34 33  1  0  0  0  0
 35 33  2  0  0  0  0
 35 36  1  0  0  0  0
 36 37  1  0  0  0  0
 36 30  2  0  0  0  0
 37 26  2  0  0  0  0
M  END
>  <minimizedAffinity>
-6.25604296

>  <minimizedRMSD>
0.945978999

$$$$
