
 OpenBabel03272501183D

 33 36  0  0  0  0  0  0  0  0999 V2000
   38.9980   31.7440   47.6120 C   0  0  0  0  0  0  0  0  0  0  0  0
   38.1620   32.0690   48.6500 C   0  0  0  0  0  0  0  0  0  0  0  0
   38.3160   33.3730   49.1420 C   0  0  0  0  0  0  0  0  0  0  0  0
   39.2560   34.2540   48.5970 C   0  0  0  0  0  0  0  0  0  0  0  0
   40.0580   33.8150   47.5380 C   0  0  0  0  0  0  0  0  0  0  0  0
   39.9280   32.5410   47.0360 C   0  0  0  0  0  0  0  0  0  0  0  0
   37.6920   33.7080   49.9620 H   0  0  0  0  0  0  0  0  0  0  0  0
   39.3240   35.2490   49.0230 H   0  0  0  0  0  0  0  0  0  0  0  0
   40.7610   34.5550   47.1710 H   0  0  0  0  0  0  0  0  0  0  0  0
   36.0290   30.8560   48.5190 C   0  0  0  0  0  0  0  0  0  0  0  0
   37.1930   31.1730   49.2160 C   0  0  0  0  0  0  0  0  0  0  0  0
   37.3680   30.5860   50.4700 C   0  0  0  0  0  0  0  0  0  0  0  0
   36.3980   29.7460   50.9360 N   0  0  0  0  0  0  0  0  0  0  0  0
   35.2820   29.4680   50.2180 C   0  0  0  0  0  0  0  0  0  0  0  0
   35.1000   30.0230   49.0110 N   0  0  0  0  0  0  0  0  0  0  0  0
   35.9170   31.3260   47.5430 H   0  0  0  0  0  0  0  0  0  0  0  0
   38.2520   30.7940   51.0620 H   0  0  0  0  0  0  0  0  0  0  0  0
   34.5160   28.8000   50.5910 H   0  0  0  0  0  0  0  0  0  0  0  0
   38.9080   30.4530   47.0580 O   0  0  0  0  0  0  0  0  0  0  0  0
   39.2230   29.6390   47.5610 H   0  0  0  0  0  0  0  0  0  0  0  0
   40.7410   32.1580   45.9920 O   0  0  0  0  0  0  0  0  0  0  0  0
   40.5330   31.0280   44.0270 C   0  0  0  0  0  3  0  0  0  0  0  0
   40.2880   32.2360   44.6890 C   0  0  0  0  0  0  0  0  0  0  0  0
   39.6740   33.2630   44.0060 C   0  0  0  0  0  0  0  0  0  0  0  0
   39.5410   34.1300   44.6170 H   0  0  0  0  0  0  0  0  0  0  0  0
   39.3180   33.0700   42.6900 C   0  0  0  0  0  0  0  0  0  0  0  0
   38.7160   33.9430   41.8630 N   0  0  0  0  0  0  0  0  0  0  0  0
   38.4090   34.9210   42.0670 H   0  0  0  0  0  0  0  0  0  0  0  0
   38.5760   33.3100   40.6880 C   0  0  0  0  0  0  0  0  0  0  0  0
   38.1370   33.6580   39.7510 H   0  0  0  0  0  0  0  0  0  0  0  0
   39.0780   32.0270   40.7260 C   0  0  0  0  0  3  0  0  0  0  0  0
   39.5570   31.8820   42.0270 C   0  0  0  0  0  0  0  0  0  0  0  0
   40.1700   30.8410   42.6900 C   0  0  0  0  0  3  0  0  0  0  0  0
  1  2  1  0  0  0  0
  2  3  2  0  0  0  0
  2 11  1  0  0  0  0
  3  7  1  0  0  0  0
  4  8  1  0  0  0  0
  4  3  1  0  0  0  0
  5  4  2  0  0  0  0
  6  5  1  0  0  0  0
  6  1  2  0  0  0  0
  9  5  1  0  0  0  0
 10 15  2  0  0  0  0
 10 11  1  0  0  0  0
 11 12  2  0  0  0  0
 12 13  1  0  0  0  0
 12 17  1  0  0  0  0
 14 18  1  0  0  0  0
 14 13  2  0  0  0  0
 15 14  1  0  0  0  0
 16 10  1  0  0  0  0
 19 20  1  0  0  0  0
 19  1  1  0  0  0  0
 21  6  1  0  0  0  0
 22 23  1  0  0  0  0
 23 21  1  0  0  0  0
 24 25  1  0  0  0  0
 24 23  2  0  0  0  0
 26 24  1  0  0  0  0
 27 28  1  0  0  0  0
 27 26  1  0  0  0  0
 29 31  2  0  0  0  0
 29 27  1  0  0  0  0
 30 29  1  0  0  0  0
 31 32  1  0  0  0  0
 32 33  1  0  0  0  0
 32 26  2  0  0  0  0
 33 22  2  0  0  0  0
M  END
>  <minimizedAffinity>
-6.16389894

>  <minimizedRMSD>
2.98407459

$$$$
