
 OpenBabel03272510163D

 31 34  0  0  0  0  0  0  0  0999 V2000
   37.3220   29.3370   51.0320 Br  0  0  0  0  0  0  0  0  0  0  0  0
   35.9670   29.3400   49.6710 C   0  0  0  0  0  0  0  0  0  0  0  0
   35.9980   30.2620   48.6490 C   0  0  0  0  0  0  0  0  0  0  0  0
   34.9870   30.2000   47.7070 C   0  0  0  0  0  0  0  0  0  0  0  0
   33.9650   29.2670   47.7500 C   0  0  0  0  0  0  0  0  0  0  0  0
   33.9710   28.3680   48.7800 C   0  0  0  0  0  0  0  0  0  0  0  0
   34.9710   28.4100   49.7340 C   0  0  0  0  0  0  0  0  0  0  0  0
   34.9710   30.9030   46.8870 H   0  0  0  0  0  0  0  0  0  0  0  0
   33.2030   27.6260   48.8580 H   0  0  0  0  0  0  0  0  0  0  0  0
   34.9270   27.6790   50.5280 H   0  0  0  0  0  0  0  0  0  0  0  0
   32.2640   28.0970   46.3350 C   0  0  0  0  0  3  0  0  0  0  0  0
   32.9280   29.2320   46.7520 C   0  0  0  0  0  0  0  0  0  0  0  0
   32.5210   30.3910   46.1250 C   0  0  0  0  0  0  0  0  0  0  0  0
   33.0260   31.3140   46.4280 H   0  0  0  0  0  0  0  0  0  0  0  0
   31.5470   30.5070   45.1580 C   0  0  0  0  0  0  0  0  0  0  0  0
   31.0540   31.5510   44.4720 N   0  0  0  0  0  0  0  0  0  0  0  0
   31.3890   32.5320   44.5990 H   0  0  0  0  0  0  0  0  0  0  0  0
   30.0980   31.0300   43.6490 C   0  0  0  0  0  0  0  0  0  0  0  0
   29.5790   31.7350   43.0050 H   0  0  0  0  0  0  0  0  0  0  0  0
   30.0080   29.6680   43.8350 C   0  0  0  0  0  3  0  0  0  0  0  0
   30.9270   29.3050   44.7980 C   0  0  0  0  0  0  0  0  0  0  0  0
   31.2760   28.1050   45.3760 C   0  0  0  0  0  3  0  0  0  0  0  0
   37.9980   33.2010   49.4600 C   0  0  0  0  0  0  0  0  0  0  0  0
   39.0200   33.1910   48.4860 C   0  0  0  0  0  0  0  0  0  0  0  0
   39.0050   32.1630   47.5560 C   0  0  0  0  0  0  0  0  0  0  0  0
   38.0210   31.2160   47.6140 N   0  0  0  0  0  0  0  0  0  0  0  0
   37.0540   31.2600   48.5680 C   0  0  0  0  0  0  0  0  0  0  0  0
   37.0530   32.2610   49.4900 N   0  0  0  0  0  0  0  0  0  0  0  0
   37.9620   33.9880   50.2210 H   0  0  0  0  0  0  0  0  0  0  0  0
   39.7780   33.9620   48.4800 H   0  0  0  0  0  0  0  0  0  0  0  0
   39.7610   32.1020   46.7850 H   0  0  0  0  0  0  0  0  0  0  0  0
  2  7  1  0  0  0  0
  2  1  1  0  0  0  0
  3  2  2  0  0  0  0
  4  5  2  0  0  0  0
  4  3  1  0  0  0  0
  5  6  1  0  0  0  0
  6  9  1  0  0  0  0
  6  7  2  0  0  0  0
  7 10  1  0  0  0  0
  8  4  1  0  0  0  0
 11 12  1  0  0  0  0
 12  5  1  0  0  0  0
 13 14  1  0  0  0  0
 13 12  2  0  0  0  0
 15 13  1  0  0  0  0
 16 17  1  0  0  0  0
 16 15  1  0  0  0  0
 18 20  2  0  0  0  0
 18 16  1  0  0  0  0
 19 18  1  0  0  0  0
 20 21  1  0  0  0  0
 21 15  2  0  0  0  0
 21 22  1  0  0  0  0
 22 11  2  0  0  0  0
 23 28  1  0  0  0  0
 23 29  1  0  0  0  0
 24 23  2  0  0  0  0
 25 26  2  0  0  0  0
 25 24  1  0  0  0  0
 26 27  1  0  0  0  0
 27  3  1  0  0  0  0
 27 28  2  0  0  0  0
 30 24  1  0  0  0  0
 31 25  1  0  0  0  0
M  END
>  <minimizedAffinity>
-6.2212863

>  <minimizedRMSD>
1.13882601

$$$$
