
 OpenBabel03262521083D

 48 51  0  0  1  0  0  0  0  0999 V2000
   37.5960   31.6280   45.4140 C   0  0  2  0  0  0  0  0  0  0  0  0
   38.5980   31.2730   44.4190 C   0  0  0  0  0  0  0  0  0  0  0  0
   39.9290   30.8430   45.0360 C   0  0  0  0  0  0  0  0  0  0  0  0
   40.5060   31.8760   45.9480 C   0  0  0  0  0  0  0  0  0  0  0  0
   39.4720   32.6410   46.7430 C   0  0  0  0  0  0  0  0  0  0  0  0
   38.1480   31.8810   46.7920 C   0  0  2  0  0  0  0  0  0  0  0  0
   37.1100   32.5970   45.0890 H   0  0  0  0  0  0  0  0  0  0  0  0
   38.8900   32.1680   43.7810 H   0  0  0  0  0  0  0  0  0  0  0  0
   38.3820   30.4910   43.6790 H   0  0  0  0  0  0  0  0  0  0  0  0
   40.6290   30.7740   44.1700 H   0  0  0  0  0  0  0  0  0  0  0  0
   39.9050   29.8260   45.4520 H   0  0  0  0  0  0  0  0  0  0  0  0
   41.1530   31.3390   46.7020 H   0  0  0  0  0  0  0  0  0  0  0  0
   41.1820   32.6040   45.4500 H   0  0  0  0  0  0  0  0  0  0  0  0
   39.7700   32.8450   47.7850 H   0  0  0  0  0  0  0  0  0  0  0  0
   39.2570   33.6000   46.2250 H   0  0  0  0  0  0  0  0  0  0  0  0
   37.4390   32.5820   47.2980 H   0  0  0  0  0  0  0  0  0  0  0  0
   36.4830   30.6850   45.5590 C   0  0  0  0  0  0  0  0  0  0  0  0
   36.2470   29.8920   44.4310 C   0  0  0  0  0  0  0  0  0  0  0  0
   35.2130   28.9740   44.5210 C   0  0  0  0  0  0  0  0  0  0  0  0
   34.4880   28.8840   45.6750 N   0  0  0  0  0  0  0  0  0  0  0  0
   34.7480   29.6670   46.7360 C   0  0  0  0  0  0  0  0  0  0  0  0
   35.7230   30.5240   46.6360 N   0  0  0  0  0  0  0  0  0  0  0  0
   36.6670   29.8020   43.4530 H   0  0  0  0  0  0  0  0  0  0  0  0
   34.8570   28.2770   43.8050 H   0  0  0  0  0  0  0  0  0  0  0  0
   34.1640   29.5880   47.6510 H   0  0  0  0  0  0  0  0  0  0  0  0
   38.3420   30.8060   47.6540 N   0  0  0  0  0  0  0  0  0  0  0  0
   39.2630   30.3550   47.6820 H   0  0  0  0  0  0  0  0  0  0  0  0
   37.7530   30.9390   49.2400 S   0  0  1  0  0  0  0  0  0  0  0  0
   38.9700   31.3520   50.0750 O   0  0  0  0  0  0  0  0  0  0  0  0
   39.3290   30.8420   50.8450 H   0  0  0  0  0  0  0  0  0  0  0  0
   36.7010   31.9430   49.3880 O   0  0  0  0  0  0  0  0  0  0  0  0
   36.9210   33.2820   51.1860 C   0  0  0  0  0  3  0  0  0  0  0  0
   36.2200   33.0550   49.9920 C   0  0  0  0  0  0  0  0  0  0  0  0
   35.2400   33.9800   49.7150 C   0  0  0  0  0  0  0  0  0  0  0  0
   34.7560   33.7180   48.7690 H   0  0  0  0  0  0  0  0  0  0  0  0
   34.9510   35.0450   50.5210 C   0  0  0  0  0  0  0  0  0  0  0  0
   34.0290   36.0020   50.3550 N   0  0  0  0  0  0  0  0  0  0  0  0
   33.3530   36.1130   49.5720 H   0  0  0  0  0  0  0  0  0  0  0  0
   34.1240   36.8340   51.4160 C   0  0  0  0  0  0  0  0  0  0  0  0
   33.5440   37.7300   51.6420 H   0  0  0  0  0  0  0  0  0  0  0  0
   35.1130   36.3950   52.2510 C   0  0  0  0  0  3  0  0  0  0  0  0
   35.6560   35.2540   51.7000 C   0  0  0  0  0  0  0  0  0  0  0  0
   36.6520   34.3540   52.0290 C   0  0  0  0  0  3  0  0  0  0  0  0
   37.2680   29.4590   49.8660 O   0  0  0  0  0  0  0  0  0  0  0  0
   37.2090   29.4610   51.2500 C   0  0  0  0  0  0  0  0  0  0  0  0
   37.8610   28.3550   51.7380 F   0  0  0  0  0  0  0  0  0  0  0  0
   37.9130   30.5480   51.6880 F   0  0  0  0  0  0  0  0  0  0  0  0
   35.9210   29.5920   51.7540 F   0  0  0  0  0  0  0  0  0  0  0  0
  1  7  1  6  0  0  0
  1 17  1  0  0  0  0
  1  6  1  0  0  0  0
  2  3  1  0  0  0  0
  2  1  1  0  0  0  0
  3 11  1  0  0  0  0
  3  4  1  0  0  0  0
  4 12  1  0  0  0  0
  4  5  1  0  0  0  0
  5  6  1  0  0  0  0
  5 14  1  0  0  0  0
  6 16  1  1  0  0  0
  6 26  1  0  0  0  0
  8  2  1  0  0  0  0
  9  2  1  0  0  0  0
 10  3  1  0  0  0  0
 13  4  1  0  0  0  0
 15  5  1  0  0  0  0
 17 22  1  0  0  0  0
 18 19  1  0  0  0  0
 18 17  2  0  0  0  0
 19 20  2  0  0  0  0
 20 21  1  0  0  0  0
 21 25  1  0  0  0  0
 22 21  2  0  0  0  0
 23 18  1  0  0  0  0
 24 19  1  0  0  0  0
 26 27  1  0  0  0  0
 26 28  1  0  0  0  0
 28 31  1  1  0  0  0
 28 44  1  0  0  0  0
 28 29  1  0  0  0  0
 29 30  1  0  0  0  0
 31 33  1  0  0  0  0
 32 43  1  0  0  0  0
 33 32  2  0  0  0  0
 34 33  1  0  0  0  0
 34 36  2  0  0  0  0
 35 34  1  0  0  0  0
 36 42  1  0  0  0  0
 37 36  1  0  0  0  0
 37 39  1  0  0  0  0
 38 37  1  0  0  0  0
 39 40  1  0  0  0  0
 39 41  2  0  0  0  0
 42 43  2  0  0  0  0
 42 41  1  0  0  0  0
 44 45  1  0  0  0  0
 45 47  1  0  0  0  0
 45 46  1  0  0  0  0
 45 48  1  0  0  0  0
M  END
>  <minimizedAffinity>
4.82430935

>  <minimizedRMSD>
0.622617245

$$$$
