
 OpenBabel03262521083D

 48 51  0  0  1  0  0  0  0  0999 V2000
   37.5590   31.6590   45.4540 C   0  0  2  0  0  0  0  0  0  0  0  0
   38.5550   31.3430   44.4400 C   0  0  0  0  0  0  0  0  0  0  0  0
   39.8960   30.9070   45.0310 C   0  0  0  0  0  0  0  0  0  0  0  0
   40.4720   31.9190   45.9680 C   0  0  0  0  0  0  0  0  0  0  0  0
   39.4390   32.6510   46.7940 C   0  0  0  0  0  0  0  0  0  0  0  0
   38.1220   31.8770   46.8330 C   0  0  2  0  0  0  0  0  0  0  0  0
   37.0610   32.6330   45.1610 H   0  0  0  0  0  0  0  0  0  0  0  0
   38.8320   32.2590   43.8250 H   0  0  0  0  0  0  0  0  0  0  0  0
   38.3390   30.5800   43.6790 H   0  0  0  0  0  0  0  0  0  0  0  0
   40.5880   30.8710   44.1570 H   0  0  0  0  0  0  0  0  0  0  0  0
   39.8850   29.8790   45.4170 H   0  0  0  0  0  0  0  0  0  0  0  0
   41.1320   31.3660   46.6990 H   0  0  0  0  0  0  0  0  0  0  0  0
   41.1360   32.6670   45.4840 H   0  0  0  0  0  0  0  0  0  0  0  0
   39.7450   32.8270   47.8380 H   0  0  0  0  0  0  0  0  0  0  0  0
   39.2100   33.6230   46.3060 H   0  0  0  0  0  0  0  0  0  0  0  0
   37.4120   32.5570   47.3660 H   0  0  0  0  0  0  0  0  0  0  0  0
   36.4560   30.7020   45.5820 C   0  0  0  0  0  0  0  0  0  0  0  0
   36.2440   29.9100   44.4490 C   0  0  0  0  0  0  0  0  0  0  0  0
   35.2210   28.9790   44.5220 C   0  0  0  0  0  0  0  0  0  0  0  0
   34.4830   28.8760   45.6660 N   0  0  0  0  0  0  0  0  0  0  0  0
   34.7200   29.6590   46.7340 C   0  0  0  0  0  0  0  0  0  0  0  0
   35.6850   30.5280   46.6490 N   0  0  0  0  0  0  0  0  0  0  0  0
   36.6780   29.8290   43.4750 H   0  0  0  0  0  0  0  0  0  0  0  0
   34.8830   28.2800   43.7990 H   0  0  0  0  0  0  0  0  0  0  0  0
   34.1250   29.5690   47.6410 H   0  0  0  0  0  0  0  0  0  0  0  0
   38.3350   30.7800   47.6620 N   0  0  0  0  0  0  0  0  0  0  0  0
   39.2500   30.3170   47.6450 H   0  0  0  0  0  0  0  0  0  0  0  0
   37.8060   30.8810   49.2710 S   0  0  1  0  0  0  0  0  0  0  0  0
   39.0240   31.3920   50.0500 O   0  0  0  0  0  0  0  0  0  0  0  0
   39.4530   30.9170   50.8060 H   0  0  0  0  0  0  0  0  0  0  0  0
   36.6890   31.8050   49.4600 O   0  0  0  0  0  0  0  0  0  0  0  0
   36.8880   33.2630   51.1670 C   0  0  0  0  0  3  0  0  0  0  0  0
   36.1890   32.9440   49.9920 C   0  0  0  0  0  0  0  0  0  0  0  0
   35.1920   33.8310   49.6590 C   0  0  0  0  0  0  0  0  0  0  0  0
   34.7090   33.4980   48.7350 H   0  0  0  0  0  0  0  0  0  0  0  0
   34.8840   34.9410   50.3950 C   0  0  0  0  0  0  0  0  0  0  0  0
   33.9430   35.8670   50.1720 N   0  0  0  0  0  0  0  0  0  0  0  0
   33.2630   35.9140   49.3860 H   0  0  0  0  0  0  0  0  0  0  0  0
   34.0250   36.7690   51.1750 C   0  0  0  0  0  0  0  0  0  0  0  0
   33.4290   37.6660   51.3450 H   0  0  0  0  0  0  0  0  0  0  0  0
   35.0260   36.4040   52.0330 C   0  0  0  0  0  3  0  0  0  0  0  0
   35.5880   35.2390   51.5560 C   0  0  0  0  0  0  0  0  0  0  0  0
   36.6020   34.3820   51.9390 C   0  0  0  0  0  3  0  0  0  0  0  0
   37.4620   29.3750   49.9260 O   0  0  0  0  0  0  0  0  0  0  0  0
   37.2570   29.4240   51.2950 C   0  0  0  0  0  0  0  0  0  0  0  0
   37.8410   28.3310   51.8850 F   0  0  0  0  0  0  0  0  0  0  0  0
   37.9230   30.5200   51.7690 F   0  0  0  0  0  0  0  0  0  0  0  0
   35.9250   29.5830   51.6550 F   0  0  0  0  0  0  0  0  0  0  0  0
  1  7  1  6  0  0  0
  1 17  1  0  0  0  0
  1  6  1  0  0  0  0
  2  3  1  0  0  0  0
  2  1  1  0  0  0  0
  3 11  1  0  0  0  0
  3  4  1  0  0  0  0
  4 12  1  0  0  0  0
  4  5  1  0  0  0  0
  5  6  1  0  0  0  0
  5 14  1  0  0  0  0
  6 16  1  1  0  0  0
  6 26  1  0  0  0  0
  8  2  1  0  0  0  0
  9  2  1  0  0  0  0
 10  3  1  0  0  0  0
 13  4  1  0  0  0  0
 15  5  1  0  0  0  0
 17 22  1  0  0  0  0
 18 19  1  0  0  0  0
 18 17  2  0  0  0  0
 19 20  2  0  0  0  0
 20 21  1  0  0  0  0
 21 25  1  0  0  0  0
 22 21  2  0  0  0  0
 23 18  1  0  0  0  0
 24 19  1  0  0  0  0
 26 28  1  0  0  0  0
 27 26  1  0  0  0  0
 28 31  1  1  0  0  0
 28 44  1  0  0  0  0
 28 29  1  0  0  0  0
 29 30  1  0  0  0  0
 31 33  1  0  0  0  0
 32 43  1  0  0  0  0
 33 32  2  0  0  0  0
 34 33  1  0  0  0  0
 34 36  2  0  0  0  0
 35 34  1  0  0  0  0
 36 42  1  0  0  0  0
 37 36  1  0  0  0  0
 37 39  1  0  0  0  0
 38 37  1  0  0  0  0
 39 40  1  0  0  0  0
 39 41  2  0  0  0  0
 42 43  2  0  0  0  0
 42 41  1  0  0  0  0
 44 45  1  0  0  0  0
 45 48  1  0  0  0  0
 45 47  1  0  0  0  0
 45 46  1  0  0  0  0
M  END
>  <minimizedAffinity>
5.03257275

>  <minimizedRMSD>
0.594829619

$$$$
