
 OpenBabel03272502583D

 37 40  0  0  1  0  0  0  0  0999 V2000
   35.8920   29.6650   48.8740 N   0  0  0  0  0  0  0  0  0  0  0  0
   36.6610   28.8380   49.7810 C   0  0  0  0  0  0  0  0  0  0  0  0
   37.1580   29.4560   51.0020 C   0  0  0  0  0  0  0  0  0  0  0  0
   37.3580   30.9130   51.0400 C   0  0  0  0  0  0  0  0  0  0  0  0
   36.5690   31.6710   50.0150 C   0  0  0  0  0  0  0  0  0  0  0  0
   36.5960   30.9270   48.6750 C   0  0  1  0  0  0  0  0  0  0  0  0
   35.9800   27.9740   50.0300 H   0  0  0  0  0  0  0  0  0  0  0  0
   37.4880   28.3540   49.2130 H   0  0  0  0  0  0  0  0  0  0  0  0
   36.4880   29.1800   51.8670 H   0  0  0  0  0  0  0  0  0  0  0  0
   38.1410   28.9820   51.2940 H   0  0  0  0  0  0  0  0  0  0  0  0
   38.4460   31.1830   50.9140 H   0  0  0  0  0  0  0  0  0  0  0  0
   37.0850   31.3540   52.0290 H   0  0  0  0  0  0  0  0  0  0  0  0
   36.9600   32.7000   49.9060 H   0  0  0  0  0  0  0  0  0  0  0  0
   35.5240   31.7300   50.3400 H   0  0  0  0  0  0  0  0  0  0  0  0
   36.0910   31.5780   47.9650 H   0  0  0  0  0  0  0  0  0  0  0  0
   34.6530   29.2960   48.2800 C   0  0  0  0  0  0  0  0  0  0  0  0
   34.1440   29.8520   47.1100 C   0  0  0  0  0  0  0  0  0  0  0  0
   32.9220   29.3990   46.6310 C   0  0  0  0  0  0  0  0  0  0  0  0
   32.2780   28.4320   47.3290 N   0  0  0  0  0  0  0  0  0  0  0  0
   32.8030   27.9180   48.4580 C   0  0  0  0  0  0  0  0  0  0  0  0
   33.9880   28.3530   48.9270 N   0  0  0  0  0  0  0  0  0  0  0  0
   34.7080   30.6030   46.6220 H   0  0  0  0  0  0  0  0  0  0  0  0
   32.5910   29.8740   45.7220 H   0  0  0  0  0  0  0  0  0  0  0  0
   32.2500   27.1380   48.9920 H   0  0  0  0  0  0  0  0  0  0  0  0
   37.9440   30.7130   48.4180 O   0  0  0  0  0  0  0  0  0  0  0  0
   39.1040   32.3170   47.3400 C   0  0  0  0  0  3  0  0  0  0  0  0
   38.4970   31.0730   47.2100 C   0  0  0  0  0  0  0  0  0  0  0  0
   38.5500   30.4620   45.9910 C   0  0  0  0  0  0  0  0  0  0  0  0
   38.0700   29.5170   45.9600 H   0  0  0  0  0  0  0  0  0  0  0  0
   39.1850   31.0630   44.9270 C   0  0  0  0  0  0  0  0  0  0  0  0
   39.3110   30.5700   43.6700 N   0  0  0  0  0  0  0  0  0  0  0  0
   38.9610   29.6700   43.2830 H   0  0  0  0  0  0  0  0  0  0  0  0
   40.0070   31.4760   42.9260 C   0  0  0  0  0  0  0  0  0  0  0  0
   40.2880   31.4060   41.8760 H   0  0  0  0  0  0  0  0  0  0  0  0
   40.3120   32.5510   43.7630 C   0  0  0  0  0  3  0  0  0  0  0  0
   39.8040   32.3120   45.0250 C   0  0  0  0  0  0  0  0  0  0  0  0
   39.7500   32.9280   46.2580 C   0  0  0  0  0  3  0  0  0  0  0  0
  1  2  1  0  0  0  0
  2  7  1  0  0  0  0
  2  3  1  0  0  0  0
  3  4  1  0  0  0  0
  3 10  1  0  0  0  0
  3  9  1  0  0  0  0
  4 12  1  0  0  0  0
  5 14  1  0  0  0  0
  5  4  1  0  0  0  0
  6 15  1  6  0  0  0
  6  1  1  0  0  0  0
  6  5  1  0  0  0  0
  8  2  1  0  0  0  0
 11  4  1  0  0  0  0
 13  5  1  0  0  0  0
 16  1  1  0  0  0  0
 16 21  1  0  0  0  0
 17 16  2  0  0  0  0
 18 17  1  0  0  0  0
 18 19  2  0  0  0  0
 19 20  1  0  0  0  0
 20 21  2  0  0  0  0
 20 24  1  0  0  0  0
 22 17  1  0  0  0  0
 23 18  1  0  0  0  0
 25  6  1  0  0  0  0
 27 26  1  0  0  0  0
 27 25  1  0  0  0  0
 28 27  2  0  0  0  0
 29 28  1  0  0  0  0
 30 36  2  0  0  0  0
 30 28  1  0  0  0  0
 31 30  1  0  0  0  0
 32 31  1  0  0  0  0
 33 31  1  0  0  0  0
 33 35  2  0  0  0  0
 34 33  1  0  0  0  0
 35 36  1  0  0  0  0
 36 37  1  0  0  0  0
 37 26  2  0  0  0  0
M  END
>  <minimizedAffinity>
-6.36785746

>  <minimizedRMSD>
0.660014391

$$$$
