
 OpenBabel03262522053D

 43 47  0  0  1  0  0  0  0  0999 V2000
   37.7200   31.8070   49.6920 C   0  0  0  0  0  0  0  0  0  0  0  0
   36.7270   32.3230   50.2920 O   0  0  0  0  0  0  0  0  0  0  0  0
   34.4960   29.0760   48.7560 C   0  0  2  0  0  0  0  0  0  0  0  0
   35.1280   28.3580   49.9000 C   0  0  0  0  0  0  0  0  0  0  0  0
   36.2640   29.1370   50.3900 N   0  0  0  0  0  0  0  0  0  0  0  0
   37.2100   29.8750   51.1780 C   0  0  0  0  0  0  0  0  0  0  0  0
   37.4160   30.0730   52.3880 O   0  0  0  0  0  0  0  0  0  0  0  0
   37.9400   30.3850   50.0470 C   0  0  1  0  0  0  0  0  0  0  0  0
   37.1130   29.3720   49.2640 C   0  0  2  0  0  0  0  0  0  0  0  0
   35.9070   30.0700   48.1110 S   0  0  0  0  0  0  0  0  0  0  0  0
   34.4400   28.2460   50.7730 H   0  0  0  0  0  0  0  0  0  0  0  0
   35.4760   27.3430   49.5940 H   0  0  0  0  0  0  0  0  0  0  0  0
   38.9960   30.1340   49.8660 H   0  0  0  0  0  0  0  0  0  0  0  0
   37.6670   28.4960   48.8810 H   0  0  0  0  0  0  0  0  0  0  0  0
   33.2900   29.8970   49.0630 C   0  0  0  0  0  0  0  0  0  0  0  0
   32.9940   29.7180   50.1190 H   0  0  0  0  0  0  0  0  0  0  0  0
   33.4520   31.0000   48.9820 H   0  0  0  0  0  0  0  0  0  0  0  0
   32.4230   29.6380   48.3920 H   0  0  0  0  0  0  0  0  0  0  0  0
   34.2130   28.0520   47.6450 C   0  0  0  0  0  0  0  0  0  0  0  0
   34.8680   27.1810   47.7040 H   0  0  0  0  0  0  0  0  0  0  0  0
   33.1260   27.7890   47.7890 H   0  0  0  0  0  0  0  0  0  0  0  0
   34.2530   28.7100   46.4140 O   0  0  0  0  0  0  0  0  0  0  0  0
   34.8530   28.1460   45.8340 H   0  0  0  0  0  0  0  0  0  0  0  0
   38.5410   32.5330   48.7730 C   0  0  0  0  0  0  0  0  0  0  0  0
   39.1210   33.7060   49.2010 C   0  0  0  0  0  0  0  0  0  0  0  0
   39.9300   34.4180   48.2890 C   0  0  0  0  0  0  0  0  0  0  0  0
   40.0920   33.9020   47.0310 N   0  0  0  0  0  0  0  0  0  0  0  0
   39.5170   32.7690   46.6580 C   0  0  0  0  0  0  0  0  0  0  0  0
   38.7400   32.0730   47.5130 N   0  0  0  0  0  0  0  0  0  0  0  0
   38.9750   34.0900   50.2050 H   0  0  0  0  0  0  0  0  0  0  0  0
   40.4140   35.3460   48.5650 H   0  0  0  0  0  0  0  0  0  0  0  0
   40.5650   31.1860   45.0560 C   0  0  0  0  0  3  0  0  0  0  0  0
   39.7380   32.2830   45.2970 C   0  0  0  0  0  0  0  0  0  0  0  0
   39.0890   32.9670   44.2660 C   0  0  0  0  0  0  0  0  0  0  0  0
   38.4490   33.8180   44.4600 H   0  0  0  0  0  0  0  0  0  0  0  0
   39.2820   32.5270   42.9560 C   0  0  0  0  0  0  0  0  0  0  0  0
   38.7590   33.0350   41.8300 N   0  0  0  0  0  0  0  0  0  0  0  0
   38.1120   33.8460   41.6930 H   0  0  0  0  0  0  0  0  0  0  0  0
   39.2080   32.3010   40.7700 C   0  0  0  0  0  0  0  0  0  0  0  0
   39.0440   32.3560   39.7050 H   0  0  0  0  0  0  0  0  0  0  0  0
   40.0270   31.3290   41.3140 C   0  0  0  0  0  3  0  0  0  0  0  0
   40.0960   31.4400   42.6880 C   0  0  0  0  0  0  0  0  0  0  0  0
   40.7270   30.7820   43.7240 C   0  0  0  0  0  3  0  0  0  0  0  0
  1  8  1  0  0  0  0
  1  2  2  0  0  0  0
  3 19  1  6  0  0  0
  3 15  1  0  0  0  0
  3  4  1  0  0  0  0
  4  5  1  0  0  0  0
  4 11  1  0  0  0  0
  5  6  1  0  0  0  0
  6  7  2  0  0  0  0
  8 13  1  1  0  0  0
  8  6  1  0  0  0  0
  9 14  1  6  0  0  0
  9  8  1  0  0  0  0
  9  5  1  0  0  0  0
 10  3  1  0  0  0  0
 10  9  1  0  0  0  0
 12  4  1  0  0  0  0
 15 16  1  0  0  0  0
 17 15  1  0  0  0  0
 18 15  1  0  0  0  0
 19 20  1  0  0  0  0
 19 21  1  0  0  0  0
 22 19  1  0  0  0  0
 23 22  1  0  0  0  0
 24 25  1  0  0  0  0
 24  1  1  0  0  0  0
 25 30  1  0  0  0  0
 26 31  1  0  0  0  0
 26 25  2  0  0  0  0
 27 26  1  0  0  0  0
 28 27  2  0  0  0  0
 28 29  1  0  0  0  0
 29 24  2  0  0  0  0
 32 33  1  0  0  0  0
 33 28  1  0  0  0  0
 34 35  1  0  0  0  0
 34 33  2  0  0  0  0
 36 34  1  0  0  0  0
 37 36  1  0  0  0  0
 38 37  1  0  0  0  0
 39 41  2  0  0  0  0
 39 37  1  0  0  0  0
 40 39  1  0  0  0  0
 41 42  1  0  0  0  0
 42 36  2  0  0  0  0
 42 43  1  0  0  0  0
 43 32  2  0  0  0  0
M  END
>  <minimizedAffinity>
-6.52209377

>  <minimizedRMSD>
0.506365359

$$$$
