
     RDKit          3D

 51 55  0  0  0  0  0  0  0  0999 V2000
   37.7739   31.7482   47.6559 C   0  0  0  0  0  0  0  0  0  0  0  0
   37.9280   32.5346   48.8110 C   0  0  0  0  0  0  0  0  0  0  0  0
   38.9395   33.4805   48.8835 C   0  0  0  0  0  0  0  0  0  0  0  0
   39.7513   33.5923   47.7889 C   0  0  0  0  0  0  0  0  0  0  0  0
   39.5776   32.8172   46.6853 C   0  0  0  0  0  0  0  0  0  0  0  0
   38.5980   31.8880   46.5915 N   0  0  0  0  0  0  0  0  0  0  0  0
   36.7020   30.7886   47.6552 C   0  0  0  0  0  0  0  0  0  0  0  0
   36.2096   30.3839   46.6038 O   0  0  0  0  0  0  0  0  0  0  0  0
   37.0199   29.6287   49.8119 C   0  0  0  0  0  0  0  0  0  0  0  0
   36.1296   30.2337   48.8929 C   0  0  0  0  0  0  0  0  0  0  0  0
   34.7687   30.2789   49.1924 C   0  0  0  0  0  0  0  0  0  0  0  0
   34.3371   29.7344   50.3700 N   0  0  0  0  0  0  0  0  0  0  0  0
   35.2076   29.1622   51.2310 C   0  0  0  0  0  0  0  0  0  0  0  0
   36.5216   29.1108   50.9569 N   0  0  0  0  0  0  0  0  0  0  0  0
   40.6686   32.9783   45.2334 S   0  0  0  0  0  0  0  0  0  0  0  0
   39.5597   32.9281   43.7930 C   0  0  0  0  0  0  0  0  0  0  0  0
   38.7773   29.7950   42.3425 C   0  0  1  0  0  0  0  0  0  0  0  0
   38.7909   31.2927   42.0808 C   0  0  0  0  0  0  0  0  0  0  0  0
   39.9378   31.7221   42.9699 C   0  0  2  0  0  0  0  0  0  0  0  0
   40.3081   30.6606   43.7457 O   0  0  0  0  0  0  0  0  0  0  0  0
   39.2520   29.7620   43.7871 C   0  0  0  0  0  0  0  0  0  0  0  0
   37.5091   29.2644   42.2145 O   0  0  0  0  0  0  0  0  0  0  0  0
   37.2616   32.4128   49.6560 H   0  0  0  0  0  0  0  0  0  0  0  0
   39.1164   34.1159   49.7332 H   0  0  0  0  0  0  0  0  0  0  0  0
   40.5773   34.3067   47.7447 H   0  0  0  0  0  0  0  0  0  0  0  0
   38.0802   29.5587   49.6460 H   0  0  0  0  0  0  0  0  0  0  0  0
   34.1160   30.7467   48.4716 H   0  0  0  0  0  0  0  0  0  0  0  0
   34.7455   28.7642   52.1333 H   0  0  0  0  0  0  0  0  0  0  0  0
   38.4985   32.9530   44.0481 H   0  0  0  0  0  0  0  0  0  0  0  0
   39.8196   33.8246   43.1712 H   0  0  0  0  0  0  0  0  0  0  0  0
   39.5657   29.2960   41.7432 H   0  0  0  0  0  0  0  0  0  0  0  0
   39.0570   31.4271   41.0112 H   0  0  0  0  0  0  0  0  0  0  0  0
   37.8403   31.7328   42.3799 H   0  0  0  0  0  0  0  0  0  0  0  0
   40.8065   31.9780   42.3226 H   0  0  0  0  0  0  0  0  0  0  0  0
   39.5676   28.7720   44.1171 H   0  0  0  0  0  0  0  0  0  0  0  0
   38.4160   30.1602   44.3911 H   0  0  0  0  0  0  0  0  0  0  0  0
   37.0122   28.4256   40.0825 C   0  0  0  0  0  0  0  0  0  0  0  0
   37.1146   28.2109   41.4472 C   0  0  0  0  0  0  0  0  0  0  0  0
   36.8116   26.9526   41.9300 C   0  0  0  0  0  0  0  0  0  0  0  0
   36.8836   26.7646   42.9778 H   0  0  0  0  0  0  0  0  0  0  0  0
   36.4094   25.8768   41.1525 C   0  0  0  0  0  0  0  0  0  0  0  0
   36.0791   24.6065   41.4375 N   0  0  0  0  0  0  0  0  0  0  0  0
   36.0601   24.1461   42.3774 H   0  0  0  0  0  0  0  0  0  0  0  0
   35.7633   23.9996   40.2581 C   0  0  0  0  0  0  0  0  0  0  0  0
   35.4516   22.9652   40.1345 H   0  0  0  0  0  0  0  0  0  0  0  0
   35.9055   24.9261   39.2299 C   0  0  0  0  0  0  0  0  0  0  0  0
   36.3149   26.1221   39.7819 C   0  0  0  0  0  0  0  0  0  0  0  0
   36.6092   27.3606   39.2733 C   0  0  0  0  0  0  0  0  0  0  0  0
   37.2228   29.3634   39.5962 H   0  0  0  0  0  0  0  0  0  0  0  0
   35.7290   24.7568   38.1653 H   0  0  0  0  0  0  0  0  0  0  0  0
   36.5316   27.5426   38.1924 H   0  0  0  0  0  0  0  0  0  0  0  0
  1  2  2  0
  2  3  1  0
  4  3  2  0
  5  4  1  0
  6  5  2  0
  6  1  1  0
  7  1  1  0
  7 10  1  0
  8  7  2  0
  9 14  2  0
 10 11  2  0
 10  9  1  0
 11 12  1  0
 12 13  2  0
 14 13  1  0
 15  5  1  0
 16 15  1  0
 17 22  1  0
 17 21  1  0
 18 17  1  0
 18 19  1  0
 19 20  1  0
 19 16  1  0
 20 21  1  0
  2 23  1  0
  3 24  1  0
  4 25  1  0
  9 26  1  0
 11 27  1  0
 13 28  1  0
 16 29  1  0
 16 30  1  0
 17 31  1  6
 18 32  1  0
 18 33  1  0
 19 34  1  6
 21 35  1  0
 21 36  1  0
 37 38  2  0
 38 39  1  0
 39 40  1  0
 39 41  2  0
 41 42  1  0
 42 43  1  0
 42 44  1  0
 44 45  1  0
 44 46  2  0
 46 47  1  0
 47 48  2  0
 48 37  1  0
 47 41  1  0
 37 49  1  0
 46 50  1  0
 48 51  1  0
 22 38  1  0
M  ISO  8  23  14  24  14  25  14  26  14  27  14  28  14  29   8  30   8
M  ISO  8  31  13  32  13  33  13  34  13  35  13  36  13  40  15  43   5
M  ISO  1  45  14
M  END
>  <DihAtoms>  (1) 
16,21,37,36

>  <DihDeg>  (1) 
179.99996355365406

$$$$
