REMARK  Name = 
REMARK  2 active torsions:
REMARK  status: ('A' for Active; 'I' for Inactive)
REMARK    1  A    between atoms: C_2  and  C_21
REMARK    2  A    between atoms: C_5  and  C_9
REMARK                            x       y       z     vdW  Elec       q    Type
REMARK                         _______ _______ _______ _____ _____    ______ ____
ROOT
ATOM      1  C   UNL     1      37.983  33.165  49.432  0.00  0.00    +0.000 A 
ATOM      2  C   UNL     1      39.017  33.164  48.473  0.00  0.00    +0.000 A 
ATOM      3  C   UNL     1      39.010  32.128  47.542  0.00  0.00    +0.000 A 
ATOM      4  N   UNL     1      38.025  31.174  47.595  0.00  0.00    +0.000 NA
ATOM      5  C   UNL     1      37.051  31.224  48.544  0.00  0.00    +0.000 A 
ATOM      6  N   UNL     1      37.049  32.217  49.443  0.00  0.00    +0.000 NA
ATOM      7  H   UNL     1      38.057  33.993  50.113  0.00  0.00    +0.000 HD
ATOM      8  H   UNL     1      39.687  31.924  46.729  0.00  0.00    +0.000 HD
ENDROOT
BRANCH   2  10
ATOM      9  C   UNL     1      39.947  35.368  47.803  0.00  0.00    +0.000 A 
ATOM     10  C   UNL     1      40.098  34.095  48.312  0.00  0.00    +0.000 A 
ATOM     11  C   UNL     1      41.382  33.713  48.683  0.00  0.00    +0.000 A 
ATOM     12  H   UNL     1      41.557  32.717  49.091  0.00  0.00    +0.000 HD
ATOM     13  C   UNL     1      42.492  34.523  48.572  0.00  0.00    +0.000 A 
ATOM     14  N   UNL     1      43.790  34.359  48.862  0.00  0.00    +0.000 N 
ATOM     15  H   UNL     1      44.223  33.493  49.266  0.00  0.00    +0.000 HD
ATOM     16  C   UNL     1      44.433  35.503  48.543  0.00  0.00    +0.000 A 
ATOM     17  H   UNL     1      45.503  35.725  48.648  0.00  0.00    +0.000 HD
ATOM     18  C   UNL     1      43.551  36.444  48.031  0.00  0.00    +0.000 A 
ATOM     19  C   UNL     1      42.326  35.794  48.062  0.00  0.00    +0.000 A 
ATOM     20  C   UNL     1      41.063  36.174  47.695  0.00  0.00    +0.000 A 
ENDBRANCH   2  10
BRANCH   5  23
ATOM     21 BR   UNL     1      37.265  29.355  51.052  0.00  0.00    +0.000 Br
ATOM     22  C   UNL     1      35.952  29.316  49.663  0.00  0.00    +0.000 A 
ATOM     23  C   UNL     1      36.001  30.223  48.611  0.00  0.00    +0.000 A 
ATOM     24  C   UNL     1      35.020  30.126  47.654  0.00  0.00    +0.000 A 
ATOM     25  C   UNL     1      34.004  29.180  47.694  0.00  0.00    +0.000 A 
ATOM     26  C   UNL     1      33.988  28.301  48.746  0.00  0.00    +0.000 A 
ATOM     27  C   UNL     1      34.974  28.378  49.733  0.00  0.00    +0.000 A 
ATOM     28  H   UNL     1      35.011  30.808  46.814  0.00  0.00    +0.000 HD
ATOM     29  H   UNL     1      33.236  29.093  46.957  0.00  0.00    +0.000 HD
ATOM     30  H   UNL     1      33.234  27.528  48.861  0.00  0.00    +0.000 HD
ATOM     31  H   UNL     1      34.938  27.672  50.554  0.00  0.00    +0.000 HD
ENDBRANCH   5  23
TORSDOF 2
