
 OpenBabel03272502593D

 37 40  0  0  1  0  0  0  0  0999 V2000
   35.8950   29.7690   48.8200 N   0  0  0  0  0  0  0  0  0  0  0  0
   36.5910   28.8900   49.7370 C   0  0  0  0  0  0  0  0  0  0  0  0
   37.0370   29.4520   51.0040 C   0  0  0  0  0  0  0  0  0  0  0  0
   37.2730   30.9010   51.1030 C   0  0  0  0  0  0  0  0  0  0  0  0
   36.5630   31.7160   50.0640 C   0  0  0  0  0  0  0  0  0  0  0  0
   36.6430   31.0160   48.7030 C   0  0  1  0  0  0  0  0  0  0  0  0
   35.8730   28.0380   49.9190 H   0  0  0  0  0  0  0  0  0  0  0  0
   37.4330   28.4020   49.1980 H   0  0  0  0  0  0  0  0  0  0  0  0
   36.3130   29.1680   51.8210 H   0  0  0  0  0  0  0  0  0  0  0  0
   37.9890   28.9410   51.3310 H   0  0  0  0  0  0  0  0  0  0  0  0
   38.3730   31.1440   51.0460 H   0  0  0  0  0  0  0  0  0  0  0  0
   36.9590   31.3170   52.0910 H   0  0  0  0  0  0  0  0  0  0  0  0
   36.9870   32.7360   50.0130 H   0  0  0  0  0  0  0  0  0  0  0  0
   35.5030   31.7940   50.3350 H   0  0  0  0  0  0  0  0  0  0  0  0
   36.1950   31.7050   47.9900 H   0  0  0  0  0  0  0  0  0  0  0  0
   34.6800   29.4560   48.1480 C   0  0  0  0  0  0  0  0  0  0  0  0
   34.2060   30.1280   47.0240 C   0  0  0  0  0  0  0  0  0  0  0  0
   33.0050   29.7190   46.4590 C   0  0  0  0  0  0  0  0  0  0  0  0
   32.3480   28.6810   47.0300 N   0  0  0  0  0  0  0  0  0  0  0  0
   32.8400   28.0550   48.1170 C   0  0  0  0  0  0  0  0  0  0  0  0
   34.0030   28.4460   48.6700 N   0  0  0  0  0  0  0  0  0  0  0  0
   34.7780   30.9290   46.6380 H   0  0  0  0  0  0  0  0  0  0  0  0
   32.7010   30.2840   45.5930 H   0  0  0  0  0  0  0  0  0  0  0  0
   32.2760   27.2200   48.5470 H   0  0  0  0  0  0  0  0  0  0  0  0
   37.9970   30.7720   48.5120 O   0  0  0  0  0  0  0  0  0  0  0  0
   39.0340   32.3060   47.2250 C   0  0  0  0  0  3  0  0  0  0  0  0
   38.5860   30.9910   47.2870 C   0  0  0  0  0  0  0  0  0  0  0  0
   38.7920   30.1940   46.1980 C   0  0  0  0  0  0  0  0  0  0  0  0
   38.4280   29.2070   46.3090 H   0  0  0  0  0  0  0  0  0  0  0  0
   39.4260   30.6840   45.0760 C   0  0  0  0  0  0  0  0  0  0  0  0
   39.6940   30.0080   43.9320 N   0  0  0  0  0  0  0  0  0  0  0  0
   39.4770   29.0180   43.6930 H   0  0  0  0  0  0  0  0  0  0  0  0
   40.3290   30.8560   43.0760 C   0  0  0  0  0  0  0  0  0  0  0  0
   40.6890   30.6460   42.0680 H   0  0  0  0  0  0  0  0  0  0  0  0
   40.4480   32.0860   43.7240 C   0  0  0  0  0  3  0  0  0  0  0  0
   39.8870   31.9990   44.9840 C   0  0  0  0  0  0  0  0  0  0  0  0
   39.6770   32.8030   46.0860 C   0  0  0  0  0  3  0  0  0  0  0  0
  1  2  1  0  0  0  0
  2  7  1  0  0  0  0
  2  3  1  0  0  0  0
  3  4  1  0  0  0  0
  3 10  1  0  0  0  0
  3  9  1  0  0  0  0
  4 12  1  0  0  0  0
  5 14  1  0  0  0  0
  5  4  1  0  0  0  0
  6 15  1  6  0  0  0
  6  1  1  0  0  0  0
  6  5  1  0  0  0  0
  8  2  1  0  0  0  0
 11  4  1  0  0  0  0
 13  5  1  0  0  0  0
 16 21  1  0  0  0  0
 16  1  1  0  0  0  0
 17 16  2  0  0  0  0
 18 17  1  0  0  0  0
 18 19  2  0  0  0  0
 19 20  1  0  0  0  0
 20 24  1  0  0  0  0
 20 21  2  0  0  0  0
 22 17  1  0  0  0  0
 23 18  1  0  0  0  0
 25  6  1  0  0  0  0
 26 27  1  0  0  0  0
 27 25  1  0  0  0  0
 28 29  1  0  0  0  0
 28 27  2  0  0  0  0
 30 28  1  0  0  0  0
 31 30  1  0  0  0  0
 32 31  1  0  0  0  0
 33 35  2  0  0  0  0
 33 31  1  0  0  0  0
 34 33  1  0  0  0  0
 35 36  1  0  0  0  0
 36 30  2  0  0  0  0
 36 37  1  0  0  0  0
 37 26  2  0  0  0  0
M  END
>  <minimizedAffinity>
-6.34841204

>  <minimizedRMSD>
0.530126929

$$$$
