
 OpenBabel03262522153D

 48 52  0  0  1  0  0  0  0  0999 V2000
   39.6950   32.8320   43.8070 C   0  0  0  0  0  0  0  0  0  0  0  0
   38.6270   32.8920   44.0260 H   0  0  0  0  0  0  0  0  0  0  0  0
   39.9980   33.6970   43.1600 H   0  0  0  0  0  0  0  0  0  0  0  0
   38.8230   29.7880   42.2240 C   0  0  1  0  0  0  0  0  0  0  0  0
   39.0360   31.2740   41.9810 C   0  0  0  0  0  0  0  0  0  0  0  0
   40.0680   31.5860   43.0430 C   0  0  2  0  0  0  0  0  0  0  0  0
   40.1970   30.4980   43.8580 O   0  0  0  0  0  0  0  0  0  0  0  0
   39.0590   29.7160   43.7240 C   0  0  0  0  0  0  0  0  0  0  0  0
   39.6390   29.2030   41.7510 H   0  0  0  0  0  0  0  0  0  0  0  0
   39.4800   31.3700   40.9670 H   0  0  0  0  0  0  0  0  0  0  0  0
   38.1020   31.8150   42.1310 H   0  0  0  0  0  0  0  0  0  0  0  0
   41.0490   31.7430   42.5430 H   0  0  0  0  0  0  0  0  0  0  0  0
   39.2120   28.7010   44.0910 H   0  0  0  0  0  0  0  0  0  0  0  0
   38.1850   30.2050   44.1930 H   0  0  0  0  0  0  0  0  0  0  0  0
   37.5420   29.3930   41.8940 O   0  0  0  0  0  0  0  0  0  0  0  0
   37.0690   27.1290   42.2770 C   0  0  0  0  0  3  0  0  0  0  0  0
   36.7660   28.4600   42.5120 C   0  0  0  0  0  0  0  0  0  0  0  0
   35.7060   28.7460   43.3510 C   0  0  0  0  0  0  0  0  0  0  0  0
   35.4550   29.7650   43.5450 H   0  0  0  0  0  0  0  0  0  0  0  0
   34.9140   27.8000   43.9820 C   0  0  0  0  0  0  0  0  0  0  0  0
   33.8620   27.8850   44.8150 N   0  0  0  0  0  0  0  0  0  0  0  0
   33.4020   28.7530   45.1760 H   0  0  0  0  0  0  0  0  0  0  0  0
   33.4860   26.6110   45.1190 C   0  0  0  0  0  0  0  0  0  0  0  0
   32.6640   26.3250   45.7710 H   0  0  0  0  0  0  0  0  0  0  0  0
   34.3300   25.7280   44.4530 C   0  0  0  0  0  3  0  0  0  0  0  0
   35.2400   26.4680   43.7280 C   0  0  0  0  0  0  0  0  0  0  0  0
   36.2880   26.1530   42.9000 C   0  0  0  0  0  3  0  0  0  0  0  0
   40.7590   32.9100   45.2790 S   0  0  0  0  0  0  0  0  0  0  0  0
   37.7860   31.7470   47.6390 C   0  0  0  0  0  0  0  0  0  0  0  0
   37.9070   32.5610   48.7800 C   0  0  0  0  0  0  0  0  0  0  0  0
   38.9200   33.5040   48.8610 C   0  0  0  0  0  0  0  0  0  0  0  0
   39.7650   33.5870   47.7900 C   0  0  0  0  0  0  0  0  0  0  0  0
   39.6230   32.7870   46.7000 C   0  0  0  0  0  0  0  0  0  0  0  0
   38.6430   31.8590   46.5980 N   0  0  0  0  0  0  0  0  0  0  0  0
   37.2140   32.4610   49.6060 H   0  0  0  0  0  0  0  0  0  0  0  0
   39.0720   34.1590   49.7010 H   0  0  0  0  0  0  0  0  0  0  0  0
   40.5950   34.2980   47.7550 H   0  0  0  0  0  0  0  0  0  0  0  0
   36.7100   30.7920   47.6270 C   0  0  0  0  0  0  0  0  0  0  0  0
   36.2210   30.3960   46.5710 O   0  0  0  0  0  0  0  0  0  0  0  0
   37.0140   29.6170   49.7780 C   0  0  0  0  0  0  0  0  0  0  0  0
   36.1310   30.2310   48.8590 C   0  0  0  0  0  0  0  0  0  0  0  0
   34.7680   30.2800   49.1520 C   0  0  0  0  0  0  0  0  0  0  0  0
   34.3290   29.7290   50.3250 N   0  0  0  0  0  0  0  0  0  0  0  0
   35.1940   29.1480   51.1860 C   0  0  0  0  0  0  0  0  0  0  0  0
   36.5090   29.0930   50.9170 N   0  0  0  0  0  0  0  0  0  0  0  0
   38.0740   29.5430   49.6160 H   0  0  0  0  0  0  0  0  0  0  0  0
   34.1200   30.7560   48.4330 H   0  0  0  0  0  0  0  0  0  0  0  0
   34.7260   28.7460   52.0830 H   0  0  0  0  0  0  0  0  0  0  0  0
  1  2  1  0  0  0  0
  1 28  1  0  0  0  0
  3  1  1  0  0  0  0
  4  9  1  6  0  0  0
  4  8  1  0  0  0  0
  5 11  1  0  0  0  0
  5  4  1  0  0  0  0
  5  6  1  0  0  0  0
  6 12  1  6  0  0  0
  6  1  1  0  0  0  0
  6  7  1  0  0  0  0
  8  7  1  0  0  0  0
  8 13  1  0  0  0  0
  8 14  1  0  0  0  0
 10  5  1  0  0  0  0
 15  4  1  0  0  0  0
 15 17  1  0  0  0  0
 16 17  2  0  0  0  0
 16 27  1  0  0  0  0
 17 18  1  0  0  0  0
 18 19  1  0  0  0  0
 18 20  2  0  0  0  0
 20 21  1  0  0  0  0
 21 23  1  0  0  0  0
 21 22  1  0  0  0  0
 23 24  1  0  0  0  0
 25 23  2  0  0  0  0
 26 20  1  0  0  0  0
 26 25  1  0  0  0  0
 27 26  2  0  0  0  0
 28 33  1  0  0  0  0
 29 30  1  0  0  0  0
 30 31  2  0  0  0  0
 30 35  1  0  0  0  0
 31 36  1  0  0  0  0
 32 31  1  0  0  0  0
 33 32  2  0  0  0  0
 34 33  1  0  0  0  0
 34 29  2  0  0  0  0
 37 32  1  0  0  0  0
 38 29  1  0  0  0  0
 38 41  1  0  0  0  0
 39 38  2  0  0  0  0
 40 45  1  0  0  0  0
 41 42  1  0  0  0  0
 41 40  2  0  0  0  0
 42 43  2  0  0  0  0
 43 44  1  0  0  0  0
 44 48  1  0  0  0  0
 45 44  2  0  0  0  0
 46 40  1  0  0  0  0
 47 42  1  0  0  0  0
M  END
>  <minimizedAffinity>
-5.51007271

>  <minimizedRMSD>
2.16615057

$$$$
