
 OpenBabel03262522153D

 48 52  0  0  1  0  0  0  0  0999 V2000
   39.3960   33.0320   43.9210 C   0  0  0  0  0  0  0  0  0  0  0  0
   38.3500   32.8590   44.1870 H   0  0  0  0  0  0  0  0  0  0  0  0
   39.4650   33.8860   43.1970 H   0  0  0  0  0  0  0  0  0  0  0  0
   39.2470   29.7170   42.6870 C   0  0  1  0  0  0  0  0  0  0  0  0
   39.0500   31.1750   42.3000 C   0  0  0  0  0  0  0  0  0  0  0  0
   40.0310   31.8480   43.2360 C   0  0  2  0  0  0  0  0  0  0  0  0
   40.4900   30.9200   44.1260 O   0  0  0  0  0  0  0  0  0  0  0  0
   39.5880   29.8660   44.1610 C   0  0  0  0  0  0  0  0  0  0  0  0
   40.1550   29.3120   42.1950 H   0  0  0  0  0  0  0  0  0  0  0  0
   39.3880   31.2730   41.2470 H   0  0  0  0  0  0  0  0  0  0  0  0
   38.0190   31.4740   42.4850 H   0  0  0  0  0  0  0  0  0  0  0  0
   40.9030   32.1950   42.6390 H   0  0  0  0  0  0  0  0  0  0  0  0
   40.0240   28.9670   44.5980 H   0  0  0  0  0  0  0  0  0  0  0  0
   38.6490   30.1650   44.6620 H   0  0  0  0  0  0  0  0  0  0  0  0
   38.0940   28.9790   42.5060 O   0  0  0  0  0  0  0  0  0  0  0  0
   36.5890   27.2070   42.8030 C   0  0  0  0  0  3  0  0  0  0  0  0
   37.8990   27.6550   42.7580 C   0  0  0  0  0  0  0  0  0  0  0  0
   38.9070   26.7340   42.9710 C   0  0  0  0  0  0  0  0  0  0  0  0
   39.9230   27.0570   42.9410 H   0  0  0  0  0  0  0  0  0  0  0  0
   38.7110   25.3850   43.2280 C   0  0  0  0  0  0  0  0  0  0  0  0
   39.5490   24.3600   43.4550 N   0  0  0  0  0  0  0  0  0  0  0  0
   40.5950   24.3850   43.4850 H   0  0  0  0  0  0  0  0  0  0  0  0
   38.7810   23.2490   43.6470 C   0  0  0  0  0  0  0  0  0  0  0  0
   39.1480   22.2470   43.8550 H   0  0  0  0  0  0  0  0  0  0  0  0
   37.4430   23.6110   43.5330 C   0  0  0  0  0  3  0  0  0  0  0  0
   37.3820   24.9630   43.2670 C   0  0  0  0  0  0  0  0  0  0  0  0
   36.3610   25.8530   43.0600 C   0  0  0  0  0  3  0  0  0  0  0  0
   40.4540   33.4820   45.3290 S   0  0  0  0  0  0  0  0  0  0  0  0
   37.7760   31.8520   47.7650 C   0  0  0  0  0  0  0  0  0  0  0  0
   37.9550   32.5300   48.9840 C   0  0  0  0  0  0  0  0  0  0  0  0
   38.9180   33.5210   49.0980 C   0  0  0  0  0  0  0  0  0  0  0  0
   39.6560   33.7870   47.9800 C   0  0  0  0  0  0  0  0  0  0  0  0
   39.4600   33.1160   46.8130 C   0  0  0  0  0  0  0  0  0  0  0  0
   38.5270   32.1440   46.6790 N   0  0  0  0  0  0  0  0  0  0  0  0
   37.3470   32.2860   49.8470 H   0  0  0  0  0  0  0  0  0  0  0  0
   39.1100   34.0790   49.9980 H   0  0  0  0  0  0  0  0  0  0  0  0
   40.4390   34.5500   47.9650 H   0  0  0  0  0  0  0  0  0  0  0  0
   36.7580   30.8370   47.7240 C   0  0  0  0  0  0  0  0  0  0  0  0
   36.3380   30.3980   46.6550 O   0  0  0  0  0  0  0  0  0  0  0  0
   37.0270   29.6210   49.8570 C   0  0  0  0  0  0  0  0  0  0  0  0
   36.1590   30.2610   48.9390 C   0  0  0  0  0  0  0  0  0  0  0  0
   34.7950   30.3180   49.2190 C   0  0  0  0  0  0  0  0  0  0  0  0
   34.3370   29.7510   50.3770 N   0  0  0  0  0  0  0  0  0  0  0  0
   35.1870   29.1460   51.2370 C   0  0  0  0  0  0  0  0  0  0  0  0
   36.5040   29.0830   50.9810 N   0  0  0  0  0  0  0  0  0  0  0  0
   38.0880   29.5400   49.7050 H   0  0  0  0  0  0  0  0  0  0  0  0
   34.1590   30.8120   48.5010 H   0  0  0  0  0  0  0  0  0  0  0  0
   34.7040   28.7330   52.1220 H   0  0  0  0  0  0  0  0  0  0  0  0
  1  2  1  0  0  0  0
  1 28  1  0  0  0  0
  3  1  1  0  0  0  0
  4  9  1  6  0  0  0
  4  8  1  0  0  0  0
  5 11  1  0  0  0  0
  5  4  1  0  0  0  0
  5  6  1  0  0  0  0
  6 12  1  6  0  0  0
  6  1  1  0  0  0  0
  6  7  1  0  0  0  0
  7  8  1  0  0  0  0
  8 13  1  0  0  0  0
  8 14  1  0  0  0  0
 10  5  1  0  0  0  0
 15  4  1  0  0  0  0
 15 17  1  0  0  0  0
 16 27  1  0  0  0  0
 17 16  2  0  0  0  0
 17 18  1  0  0  0  0
 18 20  2  0  0  0  0
 19 18  1  0  0  0  0
 20 26  1  0  0  0  0
 20 21  1  0  0  0  0
 21 22  1  0  0  0  0
 21 23  1  0  0  0  0
 23 24  1  0  0  0  0
 25 23  2  0  0  0  0
 26 25  1  0  0  0  0
 27 26  2  0  0  0  0
 28 33  1  0  0  0  0
 29 30  1  0  0  0  0
 30 31  2  0  0  0  0
 30 35  1  0  0  0  0
 31 36  1  0  0  0  0
 32 31  1  0  0  0  0
 33 32  2  0  0  0  0
 34 33  1  0  0  0  0
 34 29  2  0  0  0  0
 37 32  1  0  0  0  0
 38 29  1  0  0  0  0
 38 41  1  0  0  0  0
 39 38  2  0  0  0  0
 40 45  1  0  0  0  0
 41 42  1  0  0  0  0
 41 40  2  0  0  0  0
 42 43  2  0  0  0  0
 43 44  1  0  0  0  0
 44 48  1  0  0  0  0
 45 44  2  0  0  0  0
 46 40  1  0  0  0  0
 47 42  1  0  0  0  0
M  END
>  <minimizedAffinity>
-5.95312929

>  <minimizedRMSD>
2.10628343

$$$$
