REMARK  Name = 
REMARK  2 active torsions:
REMARK  status: ('A' for Active; 'I' for Inactive)
REMARK    1  A    between atoms: C_5  and  C_9
REMARK    2  A    between atoms: C_11  and  C_21
REMARK                            x       y       z     vdW  Elec       q    Type
REMARK                         _______ _______ _______ _____ _____    ______ ____
ROOT
ATOM      1 BR   UNL     1      37.273  29.358  51.058  0.00  0.00    +0.000 Br
ATOM      2  C   UNL     1      35.954  29.317  49.663  0.00  0.00    +0.000 A 
ATOM      3  C   UNL     1      36.005  30.214  48.619  0.00  0.00    +0.000 A 
ATOM      4  C   UNL     1      35.020  30.121  47.653  0.00  0.00    +0.000 A 
ATOM      5  C   UNL     1      34.004  29.181  47.692  0.00  0.00    +0.000 A 
ATOM      6  C   UNL     1      33.989  28.308  48.744  0.00  0.00    +0.000 A 
ATOM      7  C   UNL     1      34.963  28.381  49.723  0.00  0.00    +0.000 A 
ATOM      8  H   UNL     1      35.020  30.803  46.816  0.00  0.00    +0.000 HD
ATOM      9  H   UNL     1      33.225  27.562  48.820  0.00  0.00    +0.000 HD
ATOM     10  H   UNL     1      34.904  27.669  50.533  0.00  0.00    +0.000 HD
ENDROOT
BRANCH   5  12
ATOM     11  C   UNL     1      33.234  29.159  45.311  0.00  0.00    +0.000 A 
ATOM     12  C   UNL     1      32.994  29.113  46.669  0.00  0.00    +0.000 A 
ATOM     13  C   UNL     1      31.662  28.991  47.007  0.00  0.00    +0.000 A 
ATOM     14  H   UNL     1      31.432  28.951  48.076  0.00  0.00    +0.000 HD
ATOM     15  C   UNL     1      30.595  28.916  46.139  0.00  0.00    +0.000 A 
ATOM     16  N   UNL     1      29.270  28.798  46.322  0.00  0.00    +0.000 N 
ATOM     17  H   UNL     1      28.823  28.741  47.264  0.00  0.00    +0.000 HD
ATOM     18  C   UNL     1      28.728  28.775  45.070  0.00  0.00    +0.000 A 
ATOM     19  H   UNL     1      27.646  28.683  45.014  0.00  0.00    +0.000 HD
ATOM     20  C   UNL     1      29.724  28.879  44.124  0.00  0.00    +0.000 A 
ATOM     21  C   UNL     1      30.933  28.971  44.782  0.00  0.00    +0.000 A 
ATOM     22  C   UNL     1      32.238  29.092  44.361  0.00  0.00    +0.000 A 
ENDBRANCH   5  12
BRANCH   3  27
ATOM     23  C   UNL     1      37.983  33.167  49.433  0.00  0.00    +0.000 A 
ATOM     24  C   UNL     1      39.011  33.160  48.465  0.00  0.00    +0.000 A 
ATOM     25  C   UNL     1      39.007  32.129  47.538  0.00  0.00    +0.000 A 
ATOM     26  N   UNL     1      38.029  31.176  47.593  0.00  0.00    +0.000 NA
ATOM     27  C   UNL     1      37.056  31.218  48.541  0.00  0.00    +0.000 A 
ATOM     28  N   UNL     1      37.043  32.222  49.460  0.00  0.00    +0.000 NA
ATOM     29  H   UNL     1      37.937  33.957  50.191  0.00  0.00    +0.000 HD
ATOM     30  H   UNL     1      39.764  33.936  48.461  0.00  0.00    +0.000 HD
ATOM     31  H   UNL     1      39.768  32.070  46.772  0.00  0.00    +0.000 HD
ENDBRANCH   3  27
TORSDOF 2
