
 OpenBabel03272502593D

 37 40  0  0  1  0  0  0  0  0999 V2000
   35.7650   29.5710   48.9450 N   0  0  0  0  0  0  0  0  0  0  0  0
   36.5800   28.7500   49.8160 C   0  0  0  0  0  0  0  0  0  0  0  0
   37.0980   29.3620   51.0310 C   0  0  0  0  0  0  0  0  0  0  0  0
   37.2640   30.8230   51.0860 C   0  0  0  0  0  0  0  0  0  0  0  0
   36.4270   31.5760   50.0960 C   0  0  0  0  0  0  0  0  0  0  0  0
   36.4320   30.8530   48.7440 C   0  0  1  0  0  0  0  0  0  0  0  0
   35.9280   27.8650   50.0710 H   0  0  0  0  0  0  0  0  0  0  0  0
   37.4010   28.2950   49.2160 H   0  0  0  0  0  0  0  0  0  0  0  0
   36.4610   29.0570   51.9110 H   0  0  0  0  0  0  0  0  0  0  0  0
   38.1000   28.9080   51.2870 H   0  0  0  0  0  0  0  0  0  0  0  0
   38.3400   31.1210   50.9320 H   0  0  0  0  0  0  0  0  0  0  0  0
   37.0100   31.2420   52.0890 H   0  0  0  0  0  0  0  0  0  0  0  0
   36.7890   32.6160   49.9910 H   0  0  0  0  0  0  0  0  0  0  0  0
   35.3900   31.6050   50.4520 H   0  0  0  0  0  0  0  0  0  0  0  0
   35.8910   31.5010   48.0600 H   0  0  0  0  0  0  0  0  0  0  0  0
   34.5180   29.1800   48.3820 C   0  0  0  0  0  0  0  0  0  0  0  0
   34.0250   29.6400   47.1640 C   0  0  0  0  0  0  0  0  0  0  0  0
   32.7930   29.1760   46.7240 C   0  0  0  0  0  0  0  0  0  0  0  0
   32.1240   28.2920   47.5030 N   0  0  0  0  0  0  0  0  0  0  0  0
   32.6350   27.8700   48.6770 C   0  0  0  0  0  0  0  0  0  0  0  0
   33.8280   28.3160   49.1090 N   0  0  0  0  0  0  0  0  0  0  0  0
   34.6080   30.3300   46.6130 H   0  0  0  0  0  0  0  0  0  0  0  0
   32.4760   29.5740   45.7740 H   0  0  0  0  0  0  0  0  0  0  0  0
   32.0610   27.1540   49.2760 H   0  0  0  0  0  0  0  0  0  0  0  0
   37.7770   30.6760   48.4450 O   0  0  0  0  0  0  0  0  0  0  0  0
   38.2490   30.2900   46.2750 C   0  0  0  0  0  3  0  0  0  0  0  0
   38.3220   31.2210   47.3050 C   0  0  0  0  0  0  0  0  0  0  0  0
   38.8840   32.4340   47.0300 C   0  0  0  0  0  0  0  0  0  0  0  0
   38.9100   33.0960   47.8560 H   0  0  0  0  0  0  0  0  0  0  0  0
   39.3630   32.7210   45.7700 C   0  0  0  0  0  0  0  0  0  0  0  0
   39.9410   33.8770   45.3620 N   0  0  0  0  0  0  0  0  0  0  0  0
   40.1260   34.7430   45.9100 H   0  0  0  0  0  0  0  0  0  0  0  0
   40.2680   33.7480   44.0460 C   0  0  0  0  0  0  0  0  0  0  0  0
   40.7480   34.4830   43.4010 H   0  0  0  0  0  0  0  0  0  0  0  0
   39.8760   32.4700   43.6460 C   0  0  0  0  0  3  0  0  0  0  0  0
   39.3040   31.8080   44.7150 C   0  0  0  0  0  0  0  0  0  0  0  0
   38.7350   30.5810   44.9950 C   0  0  0  0  0  3  0  0  0  0  0  0
  1  2  1  0  0  0  0
  2  7  1  0  0  0  0
  2  3  1  0  0  0  0
  3  4  1  0  0  0  0
  3 10  1  0  0  0  0
  3  9  1  0  0  0  0
  4 12  1  0  0  0  0
  5 14  1  0  0  0  0
  5  4  1  0  0  0  0
  6 15  1  6  0  0  0
  6  1  1  0  0  0  0
  6  5  1  0  0  0  0
  8  2  1  0  0  0  0
 11  4  1  0  0  0  0
 13  5  1  0  0  0  0
 16  1  1  0  0  0  0
 16 21  1  0  0  0  0
 17 16  2  0  0  0  0
 18 17  1  0  0  0  0
 18 19  2  0  0  0  0
 19 20  1  0  0  0  0
 20 21  2  0  0  0  0
 20 24  1  0  0  0  0
 22 17  1  0  0  0  0
 23 18  1  0  0  0  0
 25  6  1  0  0  0  0
 26 27  1  0  0  0  0
 27 25  1  0  0  0  0
 28 27  2  0  0  0  0
 28 29  1  0  0  0  0
 30 28  1  0  0  0  0
 31 30  1  0  0  0  0
 31 32  1  0  0  0  0
 33 31  1  0  0  0  0
 34 33  1  0  0  0  0
 35 33  2  0  0  0  0
 35 36  1  0  0  0  0
 36 37  1  0  0  0  0
 36 30  2  0  0  0  0
 37 26  2  0  0  0  0
M  END
>  <minimizedAffinity>
-6.25653982

>  <minimizedRMSD>
0.897739708

$$$$
