
 OpenBabel03272504433D

 48 51  0  0  0  0  0  0  0  0999 V2000
   39.0020   26.7240   33.1870 C   0  0  0  0  0  0  0  0  0  0  0  0
   40.0500   27.0050   32.9460 H   0  0  0  0  0  0  0  0  0  0  0  0
   38.8790   27.0940   34.2490 H   0  0  0  0  0  0  0  0  0  0  0  0
   36.7030   27.9920   34.5850 Cl  0  0  0  0  0  0  0  0  0  0  0  0
   37.0100   28.1450   32.8510 C   0  0  0  0  0  0  0  0  0  0  0  0
   36.1640   28.8770   32.0950 C   0  0  0  0  0  0  0  0  0  0  0  0
   36.3900   29.0060   30.7420 C   0  0  0  0  0  0  0  0  0  0  0  0
   37.4960   28.3720   30.1840 C   0  0  0  0  0  0  0  0  0  0  0  0
   38.3310   27.6270   31.0380 C   0  0  0  0  0  0  0  0  0  0  0  0
   38.1180   27.4950   32.3630 C   0  0  0  0  0  0  0  0  0  0  0  0
   35.6910   29.6050   30.1460 H   0  0  0  0  0  0  0  0  0  0  0  0
   37.5860   28.5320   29.1230 H   0  0  0  0  0  0  0  0  0  0  0  0
   39.0760   27.2400   30.4430 H   0  0  0  0  0  0  0  0  0  0  0  0
   34.0260   31.3030   33.8690 C   0  0  0  0  0  0  0  0  0  0  0  0
   32.7400   30.6630   33.7370 C   0  0  0  0  0  0  0  0  0  0  0  0
   32.6710   29.4380   33.0490 C   0  0  0  0  0  0  0  0  0  0  0  0
   33.8120   28.9100   32.5390 N   0  0  0  0  0  0  0  0  0  0  0  0
   35.0090   29.5370   32.6810 C   0  0  0  0  0  0  0  0  0  0  0  0
   35.1000   30.7070   33.3340 N   0  0  0  0  0  0  0  0  0  0  0  0
   34.1010   32.2320   34.3870 H   0  0  0  0  0  0  0  0  0  0  0  0
   31.8850   31.1290   34.1580 H   0  0  0  0  0  0  0  0  0  0  0  0
   31.4020   28.8560   32.9460 N   0  0  0  0  0  0  0  0  0  0  0  0
   30.6830   28.9900   33.6790 H   0  0  0  0  0  0  0  0  0  0  0  0
   31.1290   28.2630   32.1240 H   0  0  0  0  0  0  0  0  0  0  0  0
   38.9230   25.2580   33.1870 C   0  0  0  0  0  0  0  0  0  0  0  0
   38.7210   24.8610   32.1500 H   0  0  0  0  0  0  0  0  0  0  0  0
   39.8710   24.7590   33.4810 H   0  0  0  0  0  0  0  0  0  0  0  0
   37.9580   24.8070   34.0480 O   0  0  0  0  0  0  0  0  0  0  0  0
   40.0590   24.7690   35.6210 O   0  0  0  0  0  0  0  0  0  0  0  0
   38.6370   24.2940   35.4820 P   0  0  2  0  0  0  0  0  0  0  0  0
   38.5850   22.5670   35.4340 O   0  0  0  0  0  0  0  0  0  0  0  0
   36.4490   21.3240   35.4180 C   0  0  0  0  0  3  0  0  0  0  0  0
   37.5860   21.8240   34.8480 C   0  0  0  0  0  0  0  0  0  0  0  0
   37.8340   21.5850   33.4890 C   0  0  0  0  0  0  0  0  0  0  0  0
   38.7210   21.9470   32.9450 H   0  0  0  0  0  0  0  0  0  0  0  0
   36.9580   20.8580   32.7090 C   0  0  0  0  0  0  0  0  0  0  0  0
   36.9430   20.4840   31.4040 N   0  0  0  0  0  0  0  0  0  0  0  0
   37.6940   20.7250   30.7120 H   0  0  0  0  0  0  0  0  0  0  0  0
   35.8390   19.7680   31.1420 C   0  0  0  0  0  0  0  0  0  0  0  0
   35.6170   19.3620   30.1540 H   0  0  0  0  0  0  0  0  0  0  0  0
   35.1270   19.6890   32.3320 C   0  0  0  0  0  3  0  0  0  0  0  0
   35.8130   20.3670   33.3260 C   0  0  0  0  0  0  0  0  0  0  0  0
   35.5520   20.5920   34.6650 C   0  0  0  0  0  3  0  0  0  0  0  0
   37.7700   24.7490   36.8140 O   0  0  0  0  0  0  0  0  0  0  0  0
   38.1410   24.0170   37.9190 C   0  0  0  0  0  0  0  0  0  0  0  0
   37.2930   22.9330   38.1410 F   0  0  0  0  0  0  0  0  0  0  0  0
   39.3960   23.4750   37.7550 F   0  0  0  0  0  0  0  0  0  0  0  0
   38.1180   24.8220   39.0510 F   0  0  0  0  0  0  0  0  0  0  0  0
  1  3  1  0  0  0  0
  2  1  1  0  0  0  0
  5  4  1  0  0  0  0
  6 18  1  0  0  0  0
  6  5  2  0  0  0  0
  7  6  1  0  0  0  0
  8  7  2  0  0  0  0
  8  9  1  0  0  0  0
  9 10  2  0  0  0  0
 10  5  1  0  0  0  0
 10  1  1  0  0  0  0
 11  7  1  0  0  0  0
 12  8  1  0  0  0  0
 13  9  1  0  0  0  0
 14 20  1  0  0  0  0
 15 14  1  0  0  0  0
 15 21  1  0  0  0  0
 16 15  2  0  0  0  0
 17 18  2  0  0  0  0
 17 16  1  0  0  0  0
 18 19  1  0  0  0  0
 19 14  2  0  0  0  0
 22 16  1  0  0  0  0
 22 23  1  0  0  0  0
 24 22  1  0  0  0  0
 25  1  1  0  0  0  0
 25 27  1  0  0  0  0
 25 28  1  0  0  0  0
 26 25  1  0  0  0  0
 28 30  1  0  0  0  0
 30 29  2  1  0  0  0
 30 44  1  0  0  0  0
 31 30  1  0  0  0  0
 33 32  1  0  0  0  0
 33 31  1  0  0  0  0
 34 33  2  0  0  0  0
 35 34  1  0  0  0  0
 36 42  2  0  0  0  0
 36 34  1  0  0  0  0
 37 36  1  0  0  0  0
 38 37  1  0  0  0  0
 39 37  1  0  0  0  0
 39 41  2  0  0  0  0
 40 39  1  0  0  0  0
 41 42  1  0  0  0  0
 42 43  1  0  0  0  0
 43 32  2  0  0  0  0
 44 45  1  0  0  0  0
 45 46  1  0  0  0  0
 45 48  1  0  0  0  0
 47 45  1  0  0  0  0
M  END
>  <minimizedAffinity>
-6.80896521

$$$$

 OpenBabel03272504433D

 48 51  0  0  0  0  0  0  0  0999 V2000
   37.1560   28.0800   33.6830 C   0  0  0  0  0  0  0  0  0  0  0  0
   38.0740   28.5760   34.0680 H   0  0  0  0  0  0  0  0  0  0  0  0
   37.0840   28.4710   32.6240 H   0  0  0  0  0  0  0  0  0  0  0  0
   38.8580   26.9310   35.8350 Cl  0  0  0  0  0  0  0  0  0  0  0  0
   38.1620   25.9830   34.5150 C   0  0  0  0  0  0  0  0  0  0  0  0
   38.4020   24.6560   34.4590 C   0  0  0  0  0  0  0  0  0  0  0  0
   37.8680   23.9040   33.4360 C   0  0  0  0  0  0  0  0  0  0  0  0
   37.0840   24.5380   32.4780 C   0  0  0  0  0  0  0  0  0  0  0  0
   36.8780   25.9250   32.6050 C   0  0  0  0  0  0  0  0  0  0  0  0
   37.3980   26.6700   33.6010 C   0  0  0  0  0  0  0  0  0  0  0  0
   38.0750   22.8270   33.4090 H   0  0  0  0  0  0  0  0  0  0  0  0
   36.7120   23.8680   31.7220 H   0  0  0  0  0  0  0  0  0  0  0  0
   36.2860   26.2010   31.8090 H   0  0  0  0  0  0  0  0  0  0  0  0
   41.2690   23.1140   36.1940 C   0  0  0  0  0  0  0  0  0  0  0  0
   40.6490   22.7440   37.4440 C   0  0  0  0  0  0  0  0  0  0  0  0
   39.2870   23.0400   37.6270 C   0  0  0  0  0  0  0  0  0  0  0  0
   38.6130   23.6610   36.6270 N   0  0  0  0  0  0  0  0  0  0  0  0
   39.2230   23.9960   35.4610 C   0  0  0  0  0  0  0  0  0  0  0  0
   40.5240   23.7240   35.2620 N   0  0  0  0  0  0  0  0  0  0  0  0
   42.3000   22.8990   36.0340 H   0  0  0  0  0  0  0  0  0  0  0  0
   41.2330   22.2610   38.1870 H   0  0  0  0  0  0  0  0  0  0  0  0
   38.7300   22.6620   38.8550 N   0  0  0  0  0  0  0  0  0  0  0  0
   39.0740   21.8350   39.3740 H   0  0  0  0  0  0  0  0  0  0  0  0
   37.9450   23.2000   39.2970 H   0  0  0  0  0  0  0  0  0  0  0  0
   36.0160   28.5920   34.4540 C   0  0  0  0  0  0  0  0  0  0  0  0
   35.0380   28.3360   33.9530 H   0  0  0  0  0  0  0  0  0  0  0  0
   35.9220   28.1420   35.4650 H   0  0  0  0  0  0  0  0  0  0  0  0
   36.1000   29.9480   34.6330 O   0  0  0  0  0  0  0  0  0  0  0  0
   33.4990   29.8840   34.9770 O   0  0  0  0  0  0  0  0  0  0  0  0
   34.6230   30.6730   34.3620 P   0  0  2  0  0  0  0  0  0  0  0  0
   34.4410   30.7360   32.6440 O   0  0  0  0  0  0  0  0  0  0  0  0
   36.3200   31.8580   31.4970 C   0  0  0  0  0  3  0  0  0  0  0  0
   35.4780   30.8100   31.7430 C   0  0  0  0  0  0  0  0  0  0  0  0
   35.6320   29.6210   31.0160 C   0  0  0  0  0  0  0  0  0  0  0  0
   35.0020   28.7270   31.1450 H   0  0  0  0  0  0  0  0  0  0  0  0
   36.6140   29.4790   30.0570 C   0  0  0  0  0  0  0  0  0  0  0  0
   36.9830   28.4710   29.2260 N   0  0  0  0  0  0  0  0  0  0  0  0
   36.5130   27.5340   29.1900 H   0  0  0  0  0  0  0  0  0  0  0  0
   38.0240   28.8530   28.4710 C   0  0  0  0  0  0  0  0  0  0  0  0
   38.4890   28.2020   27.7290 H   0  0  0  0  0  0  0  0  0  0  0  0
   38.3250   30.1580   28.8430 C   0  0  0  0  0  3  0  0  0  0  0  0
   37.4500   30.5680   29.8360 C   0  0  0  0  0  0  0  0  0  0  0  0
   37.3140   31.7480   30.5420 C   0  0  0  0  0  3  0  0  0  0  0  0
   34.5580   32.2380   34.8940 O   0  0  0  0  0  0  0  0  0  0  0  0
   35.4710   32.4560   35.9000 C   0  0  0  0  0  0  0  0  0  0  0  0
   35.2530   33.6660   36.5550 F   0  0  0  0  0  0  0  0  0  0  0  0
   35.3760   31.4870   36.8740 F   0  0  0  0  0  0  0  0  0  0  0  0
   36.7570   32.4740   35.3760 F   0  0  0  0  0  0  0  0  0  0  0  0
  1  2  1  0  0  0  0
  1 25  1  0  0  0  0
  3  1  1  0  0  0  0
  5  4  1  0  0  0  0
  6  5  1  0  0  0  0
  6 18  1  0  0  0  0
  7  6  2  0  0  0  0
  8  9  2  0  0  0  0
  8  7  1  0  0  0  0
  9 10  1  0  0  0  0
 10  1  1  0  0  0  0
 10  5  2  0  0  0  0
 11  7  1  0  0  0  0
 12  8  1  0  0  0  0
 13  9  1  0  0  0  0
 14 15  1  0  0  0  0
 15 16  2  0  0  0  0
 15 21  1  0  0  0  0
 16 22  1  0  0  0  0
 17 16  1  0  0  0  0
 18 17  2  0  0  0  0
 19 18  1  0  0  0  0
 19 14  2  0  0  0  0
 20 14  1  0  0  0  0
 22 24  1  0  0  0  0
 22 23  1  0  0  0  0
 25 28  1  0  0  0  0
 25 27  1  0  0  0  0
 26 25  1  0  0  0  0
 30 28  1  0  0  0  0
 30 44  1  0  0  0  0
 30 29  2  1  0  0  0
 31 30  1  0  0  0  0
 32 33  1  0  0  0  0
 33 31  1  0  0  0  0
 34 35  1  0  0  0  0
 34 33  2  0  0  0  0
 36 34  1  0  0  0  0
 37 36  1  0  0  0  0
 38 37  1  0  0  0  0
 39 41  2  0  0  0  0
 39 37  1  0  0  0  0
 40 39  1  0  0  0  0
 41 42  1  0  0  0  0
 42 36  2  0  0  0  0
 42 43  1  0  0  0  0
 43 32  2  0  0  0  0
 44 45  1  0  0  0  0
 45 46  1  0  0  0  0
 45 47  1  0  0  0  0
 48 45  1  0  0  0  0
M  END
>  <minimizedAffinity>
-6.5880971

$$$$

 OpenBabel03272504433D

 48 51  0  0  0  0  0  0  0  0999 V2000
   39.7210   27.1060   31.9410 C   0  0  0  0  0  0  0  0  0  0  0  0
   40.1660   27.6660   32.7920 H   0  0  0  0  0  0  0  0  0  0  0  0
   40.5920   27.0000   31.2260 H   0  0  0  0  0  0  0  0  0  0  0  0
   39.6210   26.7270   34.8900 Cl  0  0  0  0  0  0  0  0  0  0  0  0
   39.2860   25.4460   33.7180 C   0  0  0  0  0  0  0  0  0  0  0  0
   38.9620   24.2140   34.1640 C   0  0  0  0  0  0  0  0  0  0  0  0
   38.6990   23.2060   33.2640 C   0  0  0  0  0  0  0  0  0  0  0  0
   38.7730   23.4860   31.9030 C   0  0  0  0  0  0  0  0  0  0  0  0
   39.1160   24.7960   31.5170 C   0  0  0  0  0  0  0  0  0  0  0  0
   39.3760   25.7890   32.3900 C   0  0  0  0  0  0  0  0  0  0  0  0
   38.4380   22.2110   33.6470 H   0  0  0  0  0  0  0  0  0  0  0  0
   38.5500   22.6360   31.2810 H   0  0  0  0  0  0  0  0  0  0  0  0
   39.1220   24.7970   30.4870 H   0  0  0  0  0  0  0  0  0  0  0  0
   37.9320   24.2300   37.7060 C   0  0  0  0  0  0  0  0  0  0  0  0
   38.8670   23.2770   38.2540 C   0  0  0  0  0  0  0  0  0  0  0  0
   39.7990   22.6800   37.3860 C   0  0  0  0  0  0  0  0  0  0  0  0
   39.7800   23.0220   36.0730 N   0  0  0  0  0  0  0  0  0  0  0  0
   38.8880   23.9230   35.5870 C   0  0  0  0  0  0  0  0  0  0  0  0
   37.9890   24.5070   36.3960 N   0  0  0  0  0  0  0  0  0  0  0  0
   37.2180   24.6950   38.3460 H   0  0  0  0  0  0  0  0  0  0  0  0
   38.8280   23.0530   39.2900 H   0  0  0  0  0  0  0  0  0  0  0  0
   40.6840   21.7630   37.9630 N   0  0  0  0  0  0  0  0  0  0  0  0
   40.9960   21.8550   38.9460 H   0  0  0  0  0  0  0  0  0  0  0  0
   41.0660   20.9470   37.4250 H   0  0  0  0  0  0  0  0  0  0  0  0
   38.7050   27.9670   31.3230 C   0  0  0  0  0  0  0  0  0  0  0  0
   39.1460   28.9560   31.0070 H   0  0  0  0  0  0  0  0  0  0  0  0
   38.2810   27.5540   30.3840 H   0  0  0  0  0  0  0  0  0  0  0  0
   37.6490   28.1830   32.1690 O   0  0  0  0  0  0  0  0  0  0  0  0
   36.2170   29.5500   30.4460 O   0  0  0  0  0  0  0  0  0  0  0  0
   36.2240   28.3200   31.3140 P   0  0  2  0  0  0  0  0  0  0  0  0
   34.9730   28.4180   32.5020 O   0  0  0  0  0  0  0  0  0  0  0  0
   35.8430   30.2890   33.8620 C   0  0  0  0  0  3  0  0  0  0  0  0
   34.9080   29.3590   33.5040 C   0  0  0  0  0  0  0  0  0  0  0  0
   33.6970   29.2970   34.2090 C   0  0  0  0  0  0  0  0  0  0  0  0
   32.8870   28.5830   33.9920 H   0  0  0  0  0  0  0  0  0  0  0  0
   33.4230   30.1530   35.2560 C   0  0  0  0  0  0  0  0  0  0  0  0
   32.3660   30.3150   36.0910 N   0  0  0  0  0  0  0  0  0  0  0  0
   31.4910   29.7360   36.0540 H   0  0  0  0  0  0  0  0  0  0  0  0
   32.6080   31.3110   36.9560 C   0  0  0  0  0  0  0  0  0  0  0  0
   31.8950   31.6180   37.7220 H   0  0  0  0  0  0  0  0  0  0  0  0
   33.8740   31.7990   36.6530 C   0  0  0  0  0  3  0  0  0  0  0  0
   34.4010   31.0840   35.5890 C   0  0  0  0  0  0  0  0  0  0  0  0
   35.6000   31.1600   34.9060 C   0  0  0  0  0  3  0  0  0  0  0  0
   35.8870   26.9900   30.3910 O   0  0  0  0  0  0  0  0  0  0  0  0
   35.5430   25.9160   31.1810 C   0  0  0  0  0  0  0  0  0  0  0  0
   35.9690   24.7060   30.6360 F   0  0  0  0  0  0  0  0  0  0  0  0
   36.1450   25.9960   32.4160 F   0  0  0  0  0  0  0  0  0  0  0  0
   34.1630   25.8600   31.3300 F   0  0  0  0  0  0  0  0  0  0  0  0
  1 10  1  0  0  0  0
  1  2  1  0  0  0  0
  3  1  1  0  0  0  0
  5  6  1  0  0  0  0
  5  4  1  0  0  0  0
  6 18  1  0  0  0  0
  7 11  1  0  0  0  0
  7  6  2  0  0  0  0
  8  7  1  0  0  0  0
  9  8  2  0  0  0  0
  9 10  1  0  0  0  0
 10  5  2  0  0  0  0
 12  8  1  0  0  0  0
 13  9  1  0  0  0  0
 14 15  1  0  0  0  0
 14 20  1  0  0  0  0
 15 21  1  0  0  0  0
 16 22  1  0  0  0  0
 16 15  2  0  0  0  0
 17 16  1  0  0  0  0
 18 17  2  0  0  0  0
 18 19  1  0  0  0  0
 19 14  2  0  0  0  0
 22 23  1  0  0  0  0
 24 22  1  0  0  0  0
 25  1  1  0  0  0  0
 25 28  1  0  0  0  0
 26 25  1  0  0  0  0
 27 25  1  0  0  0  0
 30 29  2  6  0  0  0
 30 28  1  0  0  0  0
 30 31  1  0  0  0  0
 31 33  1  0  0  0  0
 32 43  1  0  0  0  0
 33 32  2  0  0  0  0
 33 34  1  0  0  0  0
 34 36  2  0  0  0  0
 35 34  1  0  0  0  0
 36 42  1  0  0  0  0
 36 37  1  0  0  0  0
 37 39  1  0  0  0  0
 38 37  1  0  0  0  0
 39 40  1  0  0  0  0
 41 39  2  0  0  0  0
 42 41  1  0  0  0  0
 43 42  2  0  0  0  0
 44 45  1  0  0  0  0
 44 30  1  0  0  0  0
 45 48  1  0  0  0  0
 45 47  1  0  0  0  0
 46 45  1  0  0  0  0
M  END
>  <minimizedAffinity>
-6.40457344

$$$$

 OpenBabel03272504433D

 48 51  0  0  0  0  0  0  0  0999 V2000
   40.7710   26.1640   34.9650 C   0  0  0  0  0  0  0  0  0  0  0  0
   41.5390   26.7290   34.3940 H   0  0  0  0  0  0  0  0  0  0  0  0
   40.9160   26.5380   36.0230 H   0  0  0  0  0  0  0  0  0  0  0  0
   40.6100   27.2240   32.1910 Cl  0  0  0  0  0  0  0  0  0  0  0  0
   39.2260   27.1080   33.2850 C   0  0  0  0  0  0  0  0  0  0  0  0
   38.0130   27.5190   32.8570 C   0  0  0  0  0  0  0  0  0  0  0  0
   36.9250   27.4350   33.6980 C   0  0  0  0  0  0  0  0  0  0  0  0
   37.1060   26.9230   34.9790 C   0  0  0  0  0  0  0  0  0  0  0  0
   38.4020   26.5160   35.3500 C   0  0  0  0  0  0  0  0  0  0  0  0
   39.4720   26.5940   34.5350 C   0  0  0  0  0  0  0  0  0  0  0  0
   35.9480   27.7740   33.3310 H   0  0  0  0  0  0  0  0  0  0  0  0
   36.1990   26.8980   35.5590 H   0  0  0  0  0  0  0  0  0  0  0  0
   38.3280   26.1770   36.3200 H   0  0  0  0  0  0  0  0  0  0  0  0
   38.1810   27.9820   29.2020 C   0  0  0  0  0  0  0  0  0  0  0  0
   37.3930   29.1830   29.0550 C   0  0  0  0  0  0  0  0  0  0  0  0
   36.8480   29.7700   30.2110 C   0  0  0  0  0  0  0  0  0  0  0  0
   37.0810   29.1850   31.4130 N   0  0  0  0  0  0  0  0  0  0  0  0
   37.8270   28.0550   31.5190 C   0  0  0  0  0  0  0  0  0  0  0  0
   38.3590   27.4770   30.4300 N   0  0  0  0  0  0  0  0  0  0  0  0
   38.6030   27.5220   28.3390 H   0  0  0  0  0  0  0  0  0  0  0  0
   37.2480   29.5900   28.0860 H   0  0  0  0  0  0  0  0  0  0  0  0
   36.0920   30.9320   30.0180 N   0  0  0  0  0  0  0  0  0  0  0  0
   36.2980   31.5910   29.2460 H   0  0  0  0  0  0  0  0  0  0  0  0
   35.2890   31.1820   30.6460 H   0  0  0  0  0  0  0  0  0  0  0  0
   41.1330   24.7420   34.9140 C   0  0  0  0  0  0  0  0  0  0  0  0
   40.5140   24.1910   34.1490 H   0  0  0  0  0  0  0  0  0  0  0  0
   42.1790   24.5590   34.5900 H   0  0  0  0  0  0  0  0  0  0  0  0
   40.9910   24.1440   36.1380 O   0  0  0  0  0  0  0  0  0  0  0  0
   40.4180   21.6710   36.8060 O   0  0  0  0  0  0  0  0  0  0  0  0
   39.9130   22.8740   36.0550 P   0  0  2  0  0  0  0  0  0  0  0  0
   39.7510   22.5070   34.3740 O   0  0  0  0  0  0  0  0  0  0  0  0
   37.6240   21.4540   33.6850 C   0  0  0  0  0  3  0  0  0  0  0  0
   38.5590   22.4510   33.6890 C   0  0  0  0  0  0  0  0  0  0  0  0
   38.3410   23.6000   32.9150 C   0  0  0  0  0  0  0  0  0  0  0  0
   39.0360   24.4520   32.8560 H   0  0  0  0  0  0  0  0  0  0  0  0
   37.2040   23.7510   32.1480 C   0  0  0  0  0  0  0  0  0  0  0  0
   36.7440   24.7280   31.3250 N   0  0  0  0  0  0  0  0  0  0  0  0
   37.2530   25.6240   31.1300 H   0  0  0  0  0  0  0  0  0  0  0  0
   35.5570   24.3750   30.8080 C   0  0  0  0  0  0  0  0  0  0  0  0
   34.9980   25.0100   30.1180 H   0  0  0  0  0  0  0  0  0  0  0  0
   35.2560   23.1220   31.3280 C   0  0  0  0  0  3  0  0  0  0  0  0
   36.2770   22.7140   32.1700 C   0  0  0  0  0  0  0  0  0  0  0  0
   36.4760   21.5750   32.9270 C   0  0  0  0  0  3  0  0  0  0  0  0
   38.3990   23.2680   36.5930 O   0  0  0  0  0  0  0  0  0  0  0  0
   38.4160   23.5710   37.9360 C   0  0  0  0  0  0  0  0  0  0  0  0
   39.6500   23.2940   38.5210 F   0  0  0  0  0  0  0  0  0  0  0  0
   38.2030   24.9150   38.1430 F   0  0  0  0  0  0  0  0  0  0  0  0
   37.4470   22.8310   38.6010 F   0  0  0  0  0  0  0  0  0  0  0  0
  1  3  1  0  0  0  0
  2  1  1  0  0  0  0
  4  5  1  0  0  0  0
  5 10  1  0  0  0  0
  6  5  2  0  0  0  0
  6  7  1  0  0  0  0
  7  8  2  0  0  0  0
  8  9  1  0  0  0  0
  8 12  1  0  0  0  0
  9 13  1  0  0  0  0
 10  1  1  0  0  0  0
 10  9  2  0  0  0  0
 11  7  1  0  0  0  0
 14 19  1  0  0  0  0
 15 14  2  0  0  0  0
 15 16  1  0  0  0  0
 16 17  2  0  0  0  0
 17 18  1  0  0  0  0
 18  6  1  0  0  0  0
 19 18  2  0  0  0  0
 20 14  1  0  0  0  0
 21 15  1  0  0  0  0
 22 16  1  0  0  0  0
 22 24  1  0  0  0  0
 23 22  1  0  0  0  0
 25  1  1  0  0  0  0
 25 28  1  0  0  0  0
 26 25  1  0  0  0  0
 27 25  1  0  0  0  0
 30 28  1  0  0  0  0
 30 44  1  0  0  0  0
 30 29  2  1  0  0  0
 31 30  1  0  0  0  0
 32 33  1  0  0  0  0
 33 31  1  0  0  0  0
 34 33  2  0  0  0  0
 35 34  1  0  0  0  0
 36 42  2  0  0  0  0
 36 34  1  0  0  0  0
 37 36  1  0  0  0  0
 38 37  1  0  0  0  0
 39 37  1  0  0  0  0
 39 41  2  0  0  0  0
 40 39  1  0  0  0  0
 41 42  1  0  0  0  0
 42 43  1  0  0  0  0
 43 32  2  0  0  0  0
 44 45  1  0  0  0  0
 45 47  1  0  0  0  0
 45 46  1  0  0  0  0
 45 48  1  0  0  0  0
M  END
>  <minimizedAffinity>
-6.31353426

$$$$

 OpenBabel03272504433D

 48 51  0  0  0  0  0  0  0  0999 V2000
   36.9950   26.0730   31.9710 C   0  0  0  0  0  0  0  0  0  0  0  0
   36.2000   26.8320   31.8050 H   0  0  0  0  0  0  0  0  0  0  0  0
   37.6770   26.2230   31.0800 H   0  0  0  0  0  0  0  0  0  0  0  0
   39.9350   25.6490   31.8200 Cl  0  0  0  0  0  0  0  0  0  0  0  0
   39.1030   26.3020   33.2370 C   0  0  0  0  0  0  0  0  0  0  0  0
   39.8250   26.6370   34.3280 C   0  0  0  0  0  0  0  0  0  0  0  0
   39.1910   27.1460   35.4400 C   0  0  0  0  0  0  0  0  0  0  0  0
   37.8090   27.3060   35.4090 C   0  0  0  0  0  0  0  0  0  0  0  0
   37.1280   26.9350   34.2340 C   0  0  0  0  0  0  0  0  0  0  0  0
   37.7380   26.4350   33.1420 C   0  0  0  0  0  0  0  0  0  0  0  0
   39.7960   27.4120   36.3160 H   0  0  0  0  0  0  0  0  0  0  0  0
   37.4080   27.7110   36.3220 H   0  0  0  0  0  0  0  0  0  0  0  0
   36.1310   27.1230   34.4110 H   0  0  0  0  0  0  0  0  0  0  0  0
   43.4350   27.1420   33.7710 C   0  0  0  0  0  0  0  0  0  0  0  0
   43.9720   26.0170   34.5000 C   0  0  0  0  0  0  0  0  0  0  0  0
   43.0730   25.1470   35.1420 C   0  0  0  0  0  0  0  0  0  0  0  0
   41.7430   25.4000   35.0520 N   0  0  0  0  0  0  0  0  0  0  0  0
   41.2680   26.4660   34.3580 C   0  0  0  0  0  0  0  0  0  0  0  0
   42.1070   27.3110   33.7360 N   0  0  0  0  0  0  0  0  0  0  0  0
   44.1000   27.8130   33.2770 H   0  0  0  0  0  0  0  0  0  0  0  0
   45.0230   25.8760   34.5320 H   0  0  0  0  0  0  0  0  0  0  0  0
   43.6390   24.0720   35.8370 N   0  0  0  0  0  0  0  0  0  0  0  0
   44.5290   23.6380   35.5320 H   0  0  0  0  0  0  0  0  0  0  0  0
   43.1870   23.6640   36.6920 H   0  0  0  0  0  0  0  0  0  0  0  0
   36.3720   24.7470   31.8700 C   0  0  0  0  0  0  0  0  0  0  0  0
   36.1590   24.3180   32.8910 H   0  0  0  0  0  0  0  0  0  0  0  0
   35.3790   24.7570   31.3740 H   0  0  0  0  0  0  0  0  0  0  0  0
   37.1570   23.8770   31.1600 O   0  0  0  0  0  0  0  0  0  0  0  0
   36.3700   22.2690   33.0790 O   0  0  0  0  0  0  0  0  0  0  0  0
   37.4270   22.4800   32.0290 P   0  0  2  0  0  0  0  0  0  0  0  0
   38.9750   22.6820   32.7710 O   0  0  0  0  0  0  0  0  0  0  0  0
   40.2320   22.1070   34.8190 C   0  0  0  0  0  3  0  0  0  0  0  0
   39.2060   22.6880   34.1270 C   0  0  0  0  0  0  0  0  0  0  0  0
   38.2210   23.3980   34.8280 C   0  0  0  0  0  0  0  0  0  0  0  0
   37.3600   23.8980   34.3560 H   0  0  0  0  0  0  0  0  0  0  0  0
   38.2600   23.5290   36.2010 C   0  0  0  0  0  0  0  0  0  0  0  0
   37.4650   24.1430   37.1140 N   0  0  0  0  0  0  0  0  0  0  0  0
   36.5930   24.6760   36.8730 H   0  0  0  0  0  0  0  0  0  0  0  0
   37.9580   23.9660   38.3490 C   0  0  0  0  0  0  0  0  0  0  0  0
   37.4810   24.3740   39.2410 H   0  0  0  0  0  0  0  0  0  0  0  0
   39.1140   23.2080   38.2090 C   0  0  0  0  0  3  0  0  0  0  0  0
   39.3200   22.9240   36.8680 C   0  0  0  0  0  0  0  0  0  0  0  0
   40.2990   22.2190   36.1950 C   0  0  0  0  0  3  0  0  0  0  0  0
   37.5400   21.1310   31.0780 O   0  0  0  0  0  0  0  0  0  0  0  0
   36.2970   20.5900   30.8400 C   0  0  0  0  0  0  0  0  0  0  0  0
   35.3230   21.5710   30.6560 F   0  0  0  0  0  0  0  0  0  0  0  0
   36.2940   19.8470   29.6810 F   0  0  0  0  0  0  0  0  0  0  0  0
   35.9130   19.7960   31.9120 F   0  0  0  0  0  0  0  0  0  0  0  0
  1 10  1  0  0  0  0
  2  1  1  0  0  0  0
  3  1  1  0  0  0  0
  4  5  1  0  0  0  0
  5  6  1  0  0  0  0
  6 18  1  0  0  0  0
  6  7  2  0  0  0  0
  7 11  1  0  0  0  0
  8  7  1  0  0  0  0
  8 12  1  0  0  0  0
  9 13  1  0  0  0  0
  9  8  2  0  0  0  0
 10  5  2  0  0  0  0
 10  9  1  0  0  0  0
 14 15  1  0  0  0  0
 15 21  1  0  0  0  0
 15 16  2  0  0  0  0
 16 22  1  0  0  0  0
 17 16  1  0  0  0  0
 18 17  2  0  0  0  0
 19 14  2  0  0  0  0
 19 18  1  0  0  0  0
 20 14  1  0  0  0  0
 22 24  1  0  0  0  0
 23 22  1  0  0  0  0
 25  1  1  0  0  0  0
 25 26  1  0  0  0  0
 27 25  1  0  0  0  0
 28 25  1  0  0  0  0
 28 30  1  0  0  0  0
 30 31  1  0  0  0  0
 30 29  2  1  0  0  0
 31 33  1  0  0  0  0
 32 43  1  0  0  0  0
 33 32  2  0  0  0  0
 33 34  1  0  0  0  0
 34 36  2  0  0  0  0
 35 34  1  0  0  0  0
 36 42  1  0  0  0  0
 36 37  1  0  0  0  0
 37 39  1  0  0  0  0
 38 37  1  0  0  0  0
 39 40  1  0  0  0  0
 41 39  2  0  0  0  0
 42 41  1  0  0  0  0
 43 42  2  0  0  0  0
 44 30  1  0  0  0  0
 45 44  1  0  0  0  0
 45 48  1  0  0  0  0
 46 45  1  0  0  0  0
 47 45  1  0  0  0  0
M  END
>  <minimizedAffinity>
-6.28681183

$$$$

 OpenBabel03272504433D

 48 51  0  0  0  0  0  0  0  0999 V2000
   36.7930   24.6860   31.0830 C   0  0  0  0  0  0  0  0  0  0  0  0
   37.7080   25.2990   31.2310 H   0  0  0  0  0  0  0  0  0  0  0  0
   36.9340   24.2700   30.0400 H   0  0  0  0  0  0  0  0  0  0  0  0
   38.9160   24.7900   33.1640 Cl  0  0  0  0  0  0  0  0  0  0  0  0
   37.7470   23.4720   33.0100 C   0  0  0  0  0  0  0  0  0  0  0  0
   37.8020   22.4400   33.8790 C   0  0  0  0  0  0  0  0  0  0  0  0
   36.8990   21.4050   33.7720 C   0  0  0  0  0  0  0  0  0  0  0  0
   35.9430   21.4510   32.7620 C   0  0  0  0  0  0  0  0  0  0  0  0
   35.9500   22.5620   31.8960 C   0  0  0  0  0  0  0  0  0  0  0  0
   36.8300   23.5780   31.9920 C   0  0  0  0  0  0  0  0  0  0  0  0
   36.9600   20.5760   34.4880 H   0  0  0  0  0  0  0  0  0  0  0  0
   35.2840   20.6000   32.7610 H   0  0  0  0  0  0  0  0  0  0  0  0
   35.1830   22.4080   31.2280 H   0  0  0  0  0  0  0  0  0  0  0  0
   40.9980   22.0360   35.6730 C   0  0  0  0  0  0  0  0  0  0  0  0
   40.5820   22.3430   37.0210 C   0  0  0  0  0  0  0  0  0  0  0  0
   39.2330   22.6720   37.2450 C   0  0  0  0  0  0  0  0  0  0  0  0
   38.3810   22.6880   36.1890 N   0  0  0  0  0  0  0  0  0  0  0  0
   38.8030   22.3930   34.9320 C   0  0  0  0  0  0  0  0  0  0  0  0
   40.0860   22.0760   34.6930 N   0  0  0  0  0  0  0  0  0  0  0  0
   42.0160   21.7830   35.4820 H   0  0  0  0  0  0  0  0  0  0  0  0
   41.2990   22.3130   37.8020 H   0  0  0  0  0  0  0  0  0  0  0  0
   38.8780   22.9620   38.5670 N   0  0  0  0  0  0  0  0  0  0  0  0
   39.3610   22.5190   39.3680 H   0  0  0  0  0  0  0  0  0  0  0  0
   38.1090   23.6390   38.7980 H   0  0  0  0  0  0  0  0  0  0  0  0
   35.6420   25.5980   31.0750 C   0  0  0  0  0  0  0  0  0  0  0  0
   35.5540   26.1340   30.0870 H   0  0  0  0  0  0  0  0  0  0  0  0
   34.6640   25.0840   31.1860 H   0  0  0  0  0  0  0  0  0  0  0  0
   35.7220   26.5140   32.0900 O   0  0  0  0  0  0  0  0  0  0  0  0
   37.8030   28.1080   32.2100 O   0  0  0  0  0  0  0  0  0  0  0  0
   36.4560   27.9170   31.5660 P   0  0  2  0  0  0  0  0  0  0  0  0
   35.3900   29.2000   32.0170 O   0  0  0  0  0  0  0  0  0  0  0  0
   35.6080   29.7360   34.4190 C   0  0  0  0  0  3  0  0  0  0  0  0
   35.5780   30.0430   33.0870 C   0  0  0  0  0  0  0  0  0  0  0  0
   35.7520   31.3760   32.6860 C   0  0  0  0  0  0  0  0  0  0  0  0
   35.7430   31.7160   31.6390 H   0  0  0  0  0  0  0  0  0  0  0  0
   35.9560   32.3880   33.6020 C   0  0  0  0  0  0  0  0  0  0  0  0
   36.1500   33.7270   33.5000 N   0  0  0  0  0  0  0  0  0  0  0  0
   36.1770   34.2530   32.5930 H   0  0  0  0  0  0  0  0  0  0  0  0
   36.3000   34.2660   34.7200 C   0  0  0  0  0  0  0  0  0  0  0  0
   36.4690   35.3310   34.8810 H   0  0  0  0  0  0  0  0  0  0  0  0
   36.1970   33.2200   35.6300 C   0  0  0  0  0  3  0  0  0  0  0  0
   35.9800   32.0340   34.9470 C   0  0  0  0  0  0  0  0  0  0  0  0
   35.8100   30.7270   35.3610 C   0  0  0  0  0  3  0  0  0  0  0  0
   36.6120   27.9970   29.9220 O   0  0  0  0  0  0  0  0  0  0  0  0
   37.6320   28.8480   29.5640 C   0  0  0  0  0  0  0  0  0  0  0  0
   37.5960   30.0430   30.2810 F   0  0  0  0  0  0  0  0  0  0  0  0
   38.8610   28.2920   29.8370 F   0  0  0  0  0  0  0  0  0  0  0  0
   37.5420   29.1530   28.2120 F   0  0  0  0  0  0  0  0  0  0  0  0
  1  2  1  0  0  0  0
  1 10  1  0  0  0  0
  3  1  1  0  0  0  0
  5  4  1  0  0  0  0
  5  6  1  0  0  0  0
  6 18  1  0  0  0  0
  7  6  2  0  0  0  0
  7 11  1  0  0  0  0
  8  7  1  0  0  0  0
  9 10  1  0  0  0  0
  9  8  2  0  0  0  0
 10  5  2  0  0  0  0
 12  8  1  0  0  0  0
 13  9  1  0  0  0  0
 14 15  1  0  0  0  0
 15 16  2  0  0  0  0
 15 21  1  0  0  0  0
 16 22  1  0  0  0  0
 17 16  1  0  0  0  0
 18 17  2  0  0  0  0
 19 18  1  0  0  0  0
 19 14  2  0  0  0  0
 20 14  1  0  0  0  0
 22 24  1  0  0  0  0
 22 23  1  0  0  0  0
 25  1  1  0  0  0  0
 25 27  1  0  0  0  0
 25 28  1  0  0  0  0
 26 25  1  0  0  0  0
 30 31  1  0  0  0  0
 30 28  1  0  0  0  0
 30 29  2  1  0  0  0
 31 33  1  0  0  0  0
 32 43  1  0  0  0  0
 33 32  2  0  0  0  0
 34 33  1  0  0  0  0
 34 36  2  0  0  0  0
 35 34  1  0  0  0  0
 36 42  1  0  0  0  0
 37 36  1  0  0  0  0
 37 39  1  0  0  0  0
 38 37  1  0  0  0  0
 39 40  1  0  0  0  0
 39 41  2  0  0  0  0
 42 43  2  0  0  0  0
 42 41  1  0  0  0  0
 44 30  1  0  0  0  0
 45 47  1  0  0  0  0
 45 44  1  0  0  0  0
 45 46  1  0  0  0  0
 48 45  1  0  0  0  0
M  END
>  <minimizedAffinity>
-6.25619459

$$$$

 OpenBabel03272504433D

 48 51  0  0  0  0  0  0  0  0999 V2000
   36.6740   28.2680   34.4380 C   0  0  0  0  0  0  0  0  0  0  0  0
   36.4790   28.3130   35.5310 H   0  0  0  0  0  0  0  0  0  0  0  0
   37.5680   28.9500   34.3120 H   0  0  0  0  0  0  0  0  0  0  0  0
   38.3670   26.9010   36.4660 Cl  0  0  0  0  0  0  0  0  0  0  0  0
   37.8860   26.1720   34.9290 C   0  0  0  0  0  0  0  0  0  0  0  0
   38.2990   24.9210   34.6360 C   0  0  0  0  0  0  0  0  0  0  0  0
   37.9330   24.3390   33.4420 C   0  0  0  0  0  0  0  0  0  0  0  0
   37.1370   25.0640   32.5600 C   0  0  0  0  0  0  0  0  0  0  0  0
   36.7470   26.3630   32.9370 C   0  0  0  0  0  0  0  0  0  0  0  0
   37.1000   26.9410   34.1030 C   0  0  0  0  0  0  0  0  0  0  0  0
   38.2790   23.3220   33.2230 H   0  0  0  0  0  0  0  0  0  0  0  0
   36.9050   24.5260   31.6570 H   0  0  0  0  0  0  0  0  0  0  0  0
   36.1770   26.7270   32.1610 H   0  0  0  0  0  0  0  0  0  0  0  0
   41.1640   23.1560   36.1440 C   0  0  0  0  0  0  0  0  0  0  0  0
   40.5820   22.7350   37.3960 C   0  0  0  0  0  0  0  0  0  0  0  0
   39.2430   23.0760   37.6590 C   0  0  0  0  0  0  0  0  0  0  0  0
   38.5560   23.7850   36.7280 N   0  0  0  0  0  0  0  0  0  0  0  0
   39.1310   24.1670   35.5580 C   0  0  0  0  0  0  0  0  0  0  0  0
   40.4080   23.8520   35.2850 N   0  0  0  0  0  0  0  0  0  0  0  0
   42.1770   22.9070   35.9260 H   0  0  0  0  0  0  0  0  0  0  0  0
   41.1750   22.1830   38.0820 H   0  0  0  0  0  0  0  0  0  0  0  0
   38.7230   22.6470   38.8850 N   0  0  0  0  0  0  0  0  0  0  0  0
   39.0510   21.7760   39.3380 H   0  0  0  0  0  0  0  0  0  0  0  0
   37.9820   23.1890   39.3940 H   0  0  0  0  0  0  0  0  0  0  0  0
   35.5230   28.8700   33.7540 C   0  0  0  0  0  0  0  0  0  0  0  0
   35.8560   29.5750   32.9400 H   0  0  0  0  0  0  0  0  0  0  0  0
   34.8840   28.1330   33.2220 H   0  0  0  0  0  0  0  0  0  0  0  0
   34.7080   29.5340   34.6330 O   0  0  0  0  0  0  0  0  0  0  0  0
   33.4050   29.8660   32.3790 O   0  0  0  0  0  0  0  0  0  0  0  0
   33.4400   30.2600   33.8320 P   0  0  2  0  0  0  0  0  0  0  0  0
   33.7030   31.9610   33.9840 O   0  0  0  0  0  0  0  0  0  0  0  0
   35.7670   32.5160   32.7450 C   0  0  0  0  0  3  0  0  0  0  0  0
   34.9120   32.5920   33.8090 C   0  0  0  0  0  0  0  0  0  0  0  0
   35.2500   33.4010   34.9030 C   0  0  0  0  0  0  0  0  0  0  0  0
   34.6260   33.5250   35.8020 H   0  0  0  0  0  0  0  0  0  0  0  0
   36.4240   34.1260   34.9340 C   0  0  0  0  0  0  0  0  0  0  0  0
   36.9910   34.9670   35.8360 N   0  0  0  0  0  0  0  0  0  0  0  0
   36.5600   35.2200   36.7590 H   0  0  0  0  0  0  0  0  0  0  0  0
   38.1670   35.4160   35.3730 C   0  0  0  0  0  0  0  0  0  0  0  0
   38.8000   36.1070   35.9330 H   0  0  0  0  0  0  0  0  0  0  0  0
   38.3500   34.8340   34.1250 C   0  0  0  0  0  3  0  0  0  0  0  0
   37.2670   34.0200   33.8330 C   0  0  0  0  0  0  0  0  0  0  0  0
   36.9510   33.2280   32.7460 C   0  0  0  0  0  3  0  0  0  0  0  0
   31.9690   29.9530   34.5230 O   0  0  0  0  0  0  0  0  0  0  0  0
   32.1040   29.6680   35.8630 C   0  0  0  0  0  0  0  0  0  0  0  0
   30.8930   29.7720   36.5460 F   0  0  0  0  0  0  0  0  0  0  0  0
   32.5240   28.3710   36.0540 F   0  0  0  0  0  0  0  0  0  0  0  0
   33.0060   30.5480   36.4470 F   0  0  0  0  0  0  0  0  0  0  0  0
  1  2  1  0  0  0  0
  3  1  1  0  0  0  0
  5  4  1  0  0  0  0
  6  5  1  0  0  0  0
  6 18  1  0  0  0  0
  7  6  2  0  0  0  0
  8  9  2  0  0  0  0
  8  7  1  0  0  0  0
  9 10  1  0  0  0  0
 10  1  1  0  0  0  0
 10  5  2  0  0  0  0
 11  7  1  0  0  0  0
 12  8  1  0  0  0  0
 13  9  1  0  0  0  0
 14 15  1  0  0  0  0
 15 16  2  0  0  0  0
 15 21  1  0  0  0  0
 16 22  1  0  0  0  0
 17 16  1  0  0  0  0
 18 17  2  0  0  0  0
 19 18  1  0  0  0  0
 19 14  2  0  0  0  0
 20 14  1  0  0  0  0
 22 23  1  0  0  0  0
 22 24  1  0  0  0  0
 25  1  1  0  0  0  0
 25 28  1  0  0  0  0
 26 25  1  0  0  0  0
 27 25  1  0  0  0  0
 30 29  2  6  0  0  0
 30 31  1  0  0  0  0
 30 44  1  0  0  0  0
 30 28  1  0  0  0  0
 32 43  2  0  0  0  0
 32 33  1  0  0  0  0
 33 31  1  0  0  0  0
 33 34  2  0  0  0  0
 34 36  1  0  0  0  0
 34 35  1  0  0  0  0
 36 37  1  0  0  0  0
 37 38  1  0  0  0  0
 39 37  1  0  0  0  0
 39 40  1  0  0  0  0
 41 39  2  0  0  0  0
 42 41  1  0  0  0  0
 42 36  2  0  0  0  0
 43 42  1  0  0  0  0
 44 45  1  0  0  0  0
 45 47  1  0  0  0  0
 45 48  1  0  0  0  0
 45 46  1  0  0  0  0
M  END
>  <minimizedAffinity>
-6.2127862

$$$$

 OpenBabel03272504433D

 48 51  0  0  0  0  0  0  0  0999 V2000
   37.0480   26.9140   34.6610 C   0  0  0  0  0  0  0  0  0  0  0  0
   36.7500   27.6620   35.4270 H   0  0  0  0  0  0  0  0  0  0  0  0
   36.1760   26.1930   34.6590 H   0  0  0  0  0  0  0  0  0  0  0  0
   35.5690   29.4880   34.4720 Cl  0  0  0  0  0  0  0  0  0  0  0  0
   36.4410   28.7490   33.1230 C   0  0  0  0  0  0  0  0  0  0  0  0
   36.4510   29.3720   31.9260 C   0  0  0  0  0  0  0  0  0  0  0  0
   37.1240   28.8090   30.8650 C   0  0  0  0  0  0  0  0  0  0  0  0
   37.7860   27.6000   31.0570 C   0  0  0  0  0  0  0  0  0  0  0  0
   37.7300   27.0130   32.3350 C   0  0  0  0  0  0  0  0  0  0  0  0
   37.0730   27.5550   33.3790 C   0  0  0  0  0  0  0  0  0  0  0  0
   37.1200   29.3310   29.9000 H   0  0  0  0  0  0  0  0  0  0  0  0
   38.2830   27.2420   30.1710 H   0  0  0  0  0  0  0  0  0  0  0  0
   38.2690   26.1380   32.2710 H   0  0  0  0  0  0  0  0  0  0  0  0
   35.6540   32.9730   31.8610 C   0  0  0  0  0  0  0  0  0  0  0  0
   34.3250   32.9360   31.2970 C   0  0  0  0  0  0  0  0  0  0  0  0
   33.7730   31.6850   30.9690 C   0  0  0  0  0  0  0  0  0  0  0  0
   34.5090   30.5670   31.1940 N   0  0  0  0  0  0  0  0  0  0  0  0
   35.7570   30.6340   31.7270 C   0  0  0  0  0  0  0  0  0  0  0  0
   36.3050   31.8180   32.0490 N   0  0  0  0  0  0  0  0  0  0  0  0
   36.0910   33.9110   32.1170 H   0  0  0  0  0  0  0  0  0  0  0  0
   33.8030   33.8470   31.1460 H   0  0  0  0  0  0  0  0  0  0  0  0
   32.4840   31.7000   30.4260 N   0  0  0  0  0  0  0  0  0  0  0  0
   31.7960   32.4310   30.6810 H   0  0  0  0  0  0  0  0  0  0  0  0
   32.1630   30.9740   29.7380 H   0  0  0  0  0  0  0  0  0  0  0  0
   38.2380   26.2150   35.1610 C   0  0  0  0  0  0  0  0  0  0  0  0
   39.0780   26.2500   34.4090 H   0  0  0  0  0  0  0  0  0  0  0  0
   38.6780   26.6750   36.0710 H   0  0  0  0  0  0  0  0  0  0  0  0
   37.9580   24.9110   35.4770 O   0  0  0  0  0  0  0  0  0  0  0  0
   40.5820   24.8870   35.4580 O   0  0  0  0  0  0  0  0  0  0  0  0
   39.3620   24.0470   35.7250 P   0  0  2  0  0  0  0  0  0  0  0  0
   39.2960   22.7190   34.6220 O   0  0  0  0  0  0  0  0  0  0  0  0
   38.2050   23.2320   32.4650 C   0  0  0  0  0  3  0  0  0  0  0  0
   38.3440   22.5530   33.6430 C   0  0  0  0  0  0  0  0  0  0  0  0
   37.4290   21.5380   33.9620 C   0  0  0  0  0  0  0  0  0  0  0  0
   37.4610   20.9390   34.8850 H   0  0  0  0  0  0  0  0  0  0  0  0
   36.3910   21.2060   33.1160 C   0  0  0  0  0  0  0  0  0  0  0  0
   35.3870   20.2940   33.1670 N   0  0  0  0  0  0  0  0  0  0  0  0
   35.2370   19.6250   33.9600 H   0  0  0  0  0  0  0  0  0  0  0  0
   34.6270   20.3820   32.0640 C   0  0  0  0  0  0  0  0  0  0  0  0
   33.7600   19.7430   31.8890 H   0  0  0  0  0  0  0  0  0  0  0  0
   35.1770   21.3920   31.2840 C   0  0  0  0  0  3  0  0  0  0  0  0
   36.2840   21.9210   31.9280 C   0  0  0  0  0  0  0  0  0  0  0  0
   37.1750   22.9240   31.5970 C   0  0  0  0  0  3  0  0  0  0  0  0
   39.4640   23.3900   37.2400 O   0  0  0  0  0  0  0  0  0  0  0  0
   38.2740   23.5260   37.9180 C   0  0  0  0  0  0  0  0  0  0  0  0
   38.2840   22.8490   39.1360 F   0  0  0  0  0  0  0  0  0  0  0  0
   38.0310   24.8440   38.2320 F   0  0  0  0  0  0  0  0  0  0  0  0
   37.2310   23.0220   37.1520 F   0  0  0  0  0  0  0  0  0  0  0  0
  1 25  1  0  0  0  0
  1  2  1  0  0  0  0
  3  1  1  0  0  0  0
  5 10  1  0  0  0  0
  5  4  1  0  0  0  0
  6  5  2  0  0  0  0
  7  8  2  0  0  0  0
  7  6  1  0  0  0  0
  8  9  1  0  0  0  0
  9 10  2  0  0  0  0
 10  1  1  0  0  0  0
 11  7  1  0  0  0  0
 12  8  1  0  0  0  0
 13  9  1  0  0  0  0
 14 19  1  0  0  0  0
 14 20  1  0  0  0  0
 15 14  2  0  0  0  0
 16 17  2  0  0  0  0
 16 15  1  0  0  0  0
 17 18  1  0  0  0  0
 18  6  1  0  0  0  0
 18 19  2  0  0  0  0
 21 15  1  0  0  0  0
 22 23  1  0  0  0  0
 22 16  1  0  0  0  0
 24 22  1  0  0  0  0
 25 28  1  0  0  0  0
 25 27  1  0  0  0  0
 26 25  1  0  0  0  0
 28 30  1  0  0  0  0
 30 29  2  6  0  0  0
 30 44  1  0  0  0  0
 31 30  1  0  0  0  0
 32 33  1  0  0  0  0
 33 34  2  0  0  0  0
 33 31  1  0  0  0  0
 34 35  1  0  0  0  0
 36 37  1  0  0  0  0
 36 34  1  0  0  0  0
 37 38  1  0  0  0  0
 39 37  1  0  0  0  0
 40 39  1  0  0  0  0
 41 42  1  0  0  0  0
 41 39  2  0  0  0  0
 42 36  2  0  0  0  0
 43 42  1  0  0  0  0
 43 32  2  0  0  0  0
 44 45  1  0  0  0  0
 45 47  1  0  0  0  0
 45 46  1  0  0  0  0
 48 45  1  0  0  0  0
M  END
>  <minimizedAffinity>
-6.20116949

$$$$

 OpenBabel03272504433D

 48 51  0  0  0  0  0  0  0  0999 V2000
   36.7590   28.1430   34.2570 C   0  0  0  0  0  0  0  0  0  0  0  0
   36.3470   28.2040   35.2870 H   0  0  0  0  0  0  0  0  0  0  0  0
   37.7030   28.7630   34.3250 H   0  0  0  0  0  0  0  0  0  0  0  0
   38.4360   26.8700   36.3580 Cl  0  0  0  0  0  0  0  0  0  0  0  0
   37.9320   26.0570   34.8710 C   0  0  0  0  0  0  0  0  0  0  0  0
   38.3180   24.7820   34.6550 C   0  0  0  0  0  0  0  0  0  0  0  0
   37.9340   24.1360   33.5000 C   0  0  0  0  0  0  0  0  0  0  0  0
   37.1480   24.8200   32.5790 C   0  0  0  0  0  0  0  0  0  0  0  0
   36.7860   26.1480   32.8770 C   0  0  0  0  0  0  0  0  0  0  0  0
   37.1570   26.7890   34.0030 C   0  0  0  0  0  0  0  0  0  0  0  0
   38.2590   23.0990   33.3430 H   0  0  0  0  0  0  0  0  0  0  0  0
   36.9000   24.2320   31.7120 H   0  0  0  0  0  0  0  0  0  0  0  0
   36.2190   26.4750   32.0820 H   0  0  0  0  0  0  0  0  0  0  0  0
   41.1810   23.1300   36.2900 C   0  0  0  0  0  0  0  0  0  0  0  0
   40.5700   22.7150   37.5300 C   0  0  0  0  0  0  0  0  0  0  0  0
   39.2140   23.0220   37.7420 C   0  0  0  0  0  0  0  0  0  0  0  0
   38.5380   23.6940   36.7760 N   0  0  0  0  0  0  0  0  0  0  0  0
   39.1410   24.0700   35.6180 C   0  0  0  0  0  0  0  0  0  0  0  0
   40.4350   23.7880   35.3930 N   0  0  0  0  0  0  0  0  0  0  0  0
   42.2080   22.9070   36.1090 H   0  0  0  0  0  0  0  0  0  0  0  0
   41.1550   22.1940   38.2450 H   0  0  0  0  0  0  0  0  0  0  0  0
   38.6660   22.6000   38.9590 N   0  0  0  0  0  0  0  0  0  0  0  0
   39.0040   21.7480   39.4390 H   0  0  0  0  0  0  0  0  0  0  0  0
   37.8930   23.1300   39.4320 H   0  0  0  0  0  0  0  0  0  0  0  0
   35.8150   28.8170   33.3580 C   0  0  0  0  0  0  0  0  0  0  0  0
   36.3110   29.6700   32.8110 H   0  0  0  0  0  0  0  0  0  0  0  0
   35.4310   28.1670   32.5430 H   0  0  0  0  0  0  0  0  0  0  0  0
   34.7210   29.2830   34.0380 O   0  0  0  0  0  0  0  0  0  0  0  0
   33.4910   31.2630   32.8320 O   0  0  0  0  0  0  0  0  0  0  0  0
   34.5570   30.9300   33.8410 P   0  0  2  0  0  0  0  0  0  0  0  0
   36.0970   31.4910   33.2910 O   0  0  0  0  0  0  0  0  0  0  0  0
   36.4670   33.6530   32.1540 C   0  0  0  0  0  3  0  0  0  0  0  0
   36.2980   32.2980   32.1950 C   0  0  0  0  0  0  0  0  0  0  0  0
   36.3200   31.5670   30.9980 C   0  0  0  0  0  0  0  0  0  0  0  0
   36.1930   30.4750   30.9340 H   0  0  0  0  0  0  0  0  0  0  0  0
   36.5100   32.1810   29.7780 C   0  0  0  0  0  0  0  0  0  0  0  0
   36.5760   31.7360   28.4970 N   0  0  0  0  0  0  0  0  0  0  0  0
   36.4790   30.7290   28.2160 H   0  0  0  0  0  0  0  0  0  0  0  0
   36.7790   32.7650   27.6600 C   0  0  0  0  0  0  0  0  0  0  0  0
   36.8650   32.6420   26.5800 H   0  0  0  0  0  0  0  0  0  0  0  0
   36.8440   33.9080   28.4470 C   0  0  0  0  0  3  0  0  0  0  0  0
   36.6770   33.5620   29.7780 C   0  0  0  0  0  0  0  0  0  0  0  0
   36.6580   34.2980   30.9480 C   0  0  0  0  0  3  0  0  0  0  0  0
   34.2480   31.7290   35.2550 O   0  0  0  0  0  0  0  0  0  0  0  0
   35.4080   31.9440   35.9640 C   0  0  0  0  0  0  0  0  0  0  0  0
   35.1570   32.2690   37.2960 F   0  0  0  0  0  0  0  0  0  0  0  0
   36.1830   30.8070   36.0030 F   0  0  0  0  0  0  0  0  0  0  0  0
   36.1270   32.9860   35.3930 F   0  0  0  0  0  0  0  0  0  0  0  0
  1  3  1  0  0  0  0
  1  2  1  0  0  0  0
  5  4  1  0  0  0  0
  6  5  1  0  0  0  0
  6 18  1  0  0  0  0
  7  6  2  0  0  0  0
  8  9  2  0  0  0  0
  8  7  1  0  0  0  0
  9 10  1  0  0  0  0
 10  1  1  0  0  0  0
 10  5  2  0  0  0  0
 11  7  1  0  0  0  0
 12  8  1  0  0  0  0
 13  9  1  0  0  0  0
 14 15  1  0  0  0  0
 15 16  2  0  0  0  0
 15 21  1  0  0  0  0
 16 22  1  0  0  0  0
 17 16  1  0  0  0  0
 18 17  2  0  0  0  0
 19 18  1  0  0  0  0
 19 14  2  0  0  0  0
 20 14  1  0  0  0  0
 22 24  1  0  0  0  0
 22 23  1  0  0  0  0
 25 28  1  0  0  0  0
 25  1  1  0  0  0  0
 26 25  1  0  0  0  0
 27 25  1  0  0  0  0
 30 29  2  6  0  0  0
 30 28  1  0  0  0  0
 30 44  1  0  0  0  0
 31 30  1  0  0  0  0
 32 33  1  0  0  0  0
 33 31  1  0  0  0  0
 34 33  2  0  0  0  0
 35 34  1  0  0  0  0
 36 42  2  0  0  0  0
 36 34  1  0  0  0  0
 37 36  1  0  0  0  0
 38 37  1  0  0  0  0
 39 41  2  0  0  0  0
 39 37  1  0  0  0  0
 40 39  1  0  0  0  0
 41 42  1  0  0  0  0
 42 43  1  0  0  0  0
 43 32  2  0  0  0  0
 44 45  1  0  0  0  0
 45 47  1  0  0  0  0
 45 46  1  0  0  0  0
 48 45  1  0  0  0  0
M  END
>  <minimizedAffinity>
-6.17696333

$$$$
