
 OpenBabel03272508563D

 43 47  0  0  1  0  0  0  0  0999 V2000
   39.1280   31.4890   43.4150 C   0  0  0  0  0  0  0  0  0  0  0  0
   40.1200   30.5480   43.5710 C   0  0  0  0  0  0  0  0  0  0  0  0
   40.8420   30.1900   42.4560 C   0  0  0  0  0  0  0  0  0  0  0  0
   40.5350   30.7870   41.2530 C   0  0  0  0  0  0  0  0  0  0  0  0
   39.5400   31.7310   41.0910 C   0  0  0  0  0  0  0  0  0  0  0  0
   38.8590   32.0500   42.2150 N   0  0  0  0  0  0  0  0  0  0  0  0
   40.3630   30.0770   44.5130 H   0  0  0  0  0  0  0  0  0  0  0  0
   41.6410   29.4440   42.5440 H   0  0  0  0  0  0  0  0  0  0  0  0
   41.1270   30.4790   40.3920 H   0  0  0  0  0  0  0  0  0  0  0  0
   38.3390   31.8820   44.6020 C   0  0  0  0  0  0  0  0  0  0  0  0
   37.1880   32.3550   44.4800 O   0  0  0  0  0  0  0  0  0  0  0  0
   38.9250   31.7070   45.8980 N   0  0  0  0  0  0  0  0  0  0  0  0
   39.9250   31.5120   46.0530 H   0  0  0  0  0  0  0  0  0  0  0  0
   38.4260   31.1540   48.2750 C   0  0  2  0  0  0  0  0  0  0  0  0
   38.6840   32.6170   48.2180 C   0  0  0  0  0  0  0  0  0  0  0  0
   38.0690   31.8110   47.0580 C   0  0  1  0  0  0  0  0  0  0  0  0
   39.3380   30.5210   48.3360 H   0  0  0  0  0  0  0  0  0  0  0  0
   38.0140   33.2570   48.8250 H   0  0  0  0  0  0  0  0  0  0  0  0
   39.7140   32.9490   48.1520 H   0  0  0  0  0  0  0  0  0  0  0  0
   37.0070   32.1090   46.8740 H   0  0  0  0  0  0  0  0  0  0  0  0
   35.0610   30.2250   49.5470 C   0  0  0  0  0  0  0  0  0  0  0  0
   35.3870   29.5890   50.7850 C   0  0  0  0  0  0  0  0  0  0  0  0
   36.7850   29.4980   51.1680 C   0  0  0  0  0  0  0  0  0  0  0  0
   37.7320   30.0250   50.3300 N   0  0  0  0  0  0  0  0  0  0  0  0
   37.3400   30.6160   49.1680 C   0  0  0  0  0  0  0  0  0  0  0  0
   36.0200   30.7340   48.7440 N   0  0  0  0  0  0  0  0  0  0  0  0
   34.0080   30.2590   49.3160 H   0  0  0  0  0  0  0  0  0  0  0  0
   34.6330   29.1810   51.4360 H   0  0  0  0  0  0  0  0  0  0  0  0
   37.0220   29.0200   52.0920 H   0  0  0  0  0  0  0  0  0  0  0  0
   39.2140   32.3400   39.8120 C   0  0  0  0  0  0  0  0  0  0  0  0
   38.6150   33.4400   39.7830 O   0  0  0  0  0  0  0  0  0  0  0  0
   40.6840   32.0510   37.7740 C   0  0  0  0  0  3  0  0  0  0  0  0
   39.5560   31.7170   38.5380 C   0  0  0  0  0  0  0  0  0  0  0  0
   38.7600   30.7300   38.0000 C   0  0  0  0  0  0  0  0  0  0  0  0
   37.8770   30.4680   38.6020 H   0  0  0  0  0  0  0  0  0  0  0  0
   38.9430   30.0480   36.8220 C   0  0  0  0  0  0  0  0  0  0  0  0
   38.2320   29.0820   36.2220 N   0  0  0  0  0  0  0  0  0  0  0  0
   37.3510   28.6710   36.6020 H   0  0  0  0  0  0  0  0  0  0  0  0
   38.9240   28.8110   35.0730 C   0  0  0  0  0  0  0  0  0  0  0  0
   38.5970   28.0550   34.3470 H   0  0  0  0  0  0  0  0  0  0  0  0
   40.0420   29.6070   34.9820 C   0  0  0  0  0  3  0  0  0  0  0  0
   40.0690   30.4220   36.1210 C   0  0  0  0  0  0  0  0  0  0  0  0
   40.9350   31.3950   36.5620 C   0  0  0  0  0  3  0  0  0  0  0  0
  1  2  1  0  0  0  0
  1 10  1  0  0  0  0
  2  7  1  0  0  0  0
  3  8  1  0  0  0  0
  3  2  2  0  0  0  0
  4  3  1  0  0  0  0
  5  4  2  0  0  0  0
  5  6  1  0  0  0  0
  6  1  2  0  0  0  0
  9  4  1  0  0  0  0
 10 12  1  0  0  0  0
 11 10  2  0  0  0  0
 12 13  1  0  0  0  0
 12 16  1  0  0  0  0
 14 17  1  6  0  0  0
 14 25  1  0  0  0  0
 15 14  1  0  0  0  0
 15 18  1  0  0  0  0
 16 20  1  6  0  0  0
 16 15  1  0  0  0  0
 16 14  1  0  0  0  0
 19 15  1  0  0  0  0
 21 22  1  0  0  0  0
 22 23  2  0  0  0  0
 22 28  1  0  0  0  0
 23 29  1  0  0  0  0
 24 23  1  0  0  0  0
 25 24  2  0  0  0  0
 26 25  1  0  0  0  0
 26 21  2  0  0  0  0
 27 21  1  0  0  0  0
 30  5  1  0  0  0  0
 31 30  2  0  0  0  0
 32 33  1  0  0  0  0
 33 30  1  0  0  0  0
 34 33  2  0  0  0  0
 34 35  1  0  0  0  0
 36 34  1  0  0  0  0
 37 38  1  0  0  0  0
 37 36  1  0  0  0  0
 39 37  1  0  0  0  0
 40 39  1  0  0  0  0
 41 39  2  0  0  0  0
 41 42  1  0  0  0  0
 42 43  1  0  0  0  0
 42 36  2  0  0  0  0
 43 32  2  0  0  0  0
M  END
>  <minimizedAffinity>
-4.95369864

>  <minimizedRMSD>
0.714663386

$$$$
