REMARK  Name = 
REMARK  5 active torsions:
REMARK  status: ('A' for Active; 'I' for Inactive)
REMARK    1  A    between atoms: C_1  and  C_8
REMARK    2  A    between atoms: C_3  and  N_12
REMARK    3  A    between atoms: C_10  and  C_13
REMARK    4  A    between atoms: C_17  and  C_19
REMARK    5  A    between atoms: C_19  and  C_33
REMARK                            x       y       z     vdW  Elec       q    Type
REMARK                         _______ _______ _______ _____ _____    ______ ____
ROOT
ATOM      1  C   UNL     1      39.142  31.514  43.294  0.00  0.00    +0.000 A 
ATOM      2  C   UNL     1      40.153  30.591  43.439  0.00  0.00    +0.000 A 
ATOM      3  C   UNL     1      40.857  30.232  42.314  0.00  0.00    +0.000 A 
ATOM      4  C   UNL     1      40.515  30.810  41.111  0.00  0.00    +0.000 A 
ATOM      5  C   UNL     1      39.502  31.736  40.959  0.00  0.00    +0.000 A 
ATOM      6  N   UNL     1      38.839  32.057  42.093  0.00  0.00    +0.000 NA
ATOM      7  H   UNL     1      40.423  30.135  44.381  0.00  0.00    +0.000 HD
ATOM      8  H   UNL     1      41.670  29.500  42.393  0.00  0.00    +0.000 HD
ATOM      9  H   UNL     1      41.094  30.501  40.241  0.00  0.00    +0.000 HD
ENDROOT
BRANCH   1  10
ATOM     10  C   UNL     1      38.372  31.908  44.493  0.00  0.00    +0.000 C 
ATOM     11  O   UNL     1      37.254  32.458  44.386  0.00  0.00    +0.000 OA
ATOM     12  N   UNL     1      38.937  31.644  45.783  0.00  0.00    +0.000 N 
ATOM     13  H   UNL     1      39.922  31.379  45.934  0.00  0.00    +0.000 HD
BRANCH  12  16
ATOM     14  C   UNL     1      38.444  31.113  48.166  0.00  0.00    +0.000 C 
ATOM     15  C   UNL     1      38.693  32.577  48.093  0.00  0.00    +0.000 C 
ATOM     16  C   UNL     1      38.082  31.755  46.943  0.00  0.00    +0.000 C 
ATOM     17  H   UNL     1      39.360  30.487  48.233  0.00  0.00    +0.000 HD
ATOM     18  H   UNL     1      38.020  33.220  48.694  0.00  0.00    +0.000 HD
ATOM     19  H   UNL     1      39.721  32.915  48.022  0.00  0.00    +0.000 HD
ATOM     20  H   UNL     1      37.018  32.044  46.757  0.00  0.00    +0.000 HD
BRANCH  14  25
ATOM     21  C   UNL     1      35.081  30.261  49.495  0.00  0.00    +0.000 A 
ATOM     22  C   UNL     1      35.416  29.556  50.694  0.00  0.00    +0.000 A 
ATOM     23  C   UNL     1      36.819  29.393  51.030  0.00  0.00    +0.000 A 
ATOM     24  N   UNL     1      37.763  29.920  50.189  0.00  0.00    +0.000 NA
ATOM     25  C   UNL     1      37.363  30.578  49.066  0.00  0.00    +0.000 A 
ATOM     26  N   UNL     1      36.037  30.768  48.688  0.00  0.00    +0.000 NA
ATOM     27  H   UNL     1      34.025  30.347  49.298  0.00  0.00    +0.000 HD
ATOM     28  H   UNL     1      34.664  29.149  51.348  0.00  0.00    +0.000 HD
ATOM     29  H   UNL     1      37.062  28.864  51.925  0.00  0.00    +0.000 HD
ENDBRANCH  14  25
ENDBRANCH  12  16
ENDBRANCH   1  10
BRANCH   5  30
ATOM     30  C   UNL     1      39.139  32.324  39.680  0.00  0.00    +0.000 C 
ATOM     31  O   UNL     1      38.846  33.541  39.618  0.00  0.00    +0.000 OA
BRANCH  30  33
ATOM     32  C   UNL     1      39.353  30.173  38.367  0.00  0.00    +0.000 A 
ATOM     33  C   UNL     1      39.098  31.550  38.445  0.00  0.00    +0.000 A 
ATOM     34  C   UNL     1      38.791  32.154  37.245  0.00  0.00    +0.000 A 
ATOM     35  H   UNL     1      38.588  33.234  37.309  0.00  0.00    +0.000 HD
ATOM     36  C   UNL     1      38.708  31.571  36.004  0.00  0.00    +0.000 A 
ATOM     37  N   UNL     1      38.419  32.071  34.793  0.00  0.00    +0.000 N 
ATOM     38  H   UNL     1      38.194  33.071  34.602  0.00  0.00    +0.000 HD
ATOM     39  C   UNL     1      38.496  30.995  33.952  0.00  0.00    +0.000 A 
ATOM     40  H   UNL     1      38.312  31.070  32.872  0.00  0.00    +0.000 HD
ATOM     41  C   UNL     1      38.829  29.857  34.650  0.00  0.00    +0.000 A 
ATOM     42  C   UNL     1      38.969  30.219  35.996  0.00  0.00    +0.000 A 
ATOM     43  C   UNL     1      39.286  29.512  37.133  0.00  0.00    +0.000 A 
ENDBRANCH  30  33
ENDBRANCH   5  30
TORSDOF 5
