
     RDKit          3D

 46 50  0  0  0  0  0  0  0  0999 V2000
   38.4444   31.1131   48.1655 C   0  0  2  0  0  0  0  0  0  0  0  0
   38.6930   32.5767   48.0930 C   0  0  0  0  0  0  0  0  0  0  0  0
   38.0817   31.7549   46.9428 C   0  0  1  0  0  0  0  0  0  0  0  0
   35.0813   30.2614   49.4947 C   0  0  0  0  0  0  0  0  0  0  0  0
   35.4155   29.5560   50.6937 C   0  0  0  0  0  0  0  0  0  0  0  0
   36.8189   29.3931   51.0304 C   0  0  0  0  0  0  0  0  0  0  0  0
   37.7628   29.9196   50.1889 N   0  0  0  0  0  0  0  0  0  0  0  0
   37.3630   30.5782   49.0659 C   0  0  0  0  0  0  0  0  0  0  0  0
   36.0369   30.7679   48.6884 N   0  0  0  0  0  0  0  0  0  0  0  0
   38.3722   31.9076   44.4935 C   0  0  0  0  0  0  0  0  0  0  0  0
   37.2540   32.4578   44.3864 O   0  0  0  0  0  0  0  0  0  0  0  0
   38.9373   31.6439   45.7829 N   0  0  0  0  0  0  0  0  0  0  0  0
   39.1419   31.5139   43.2941 C   0  0  0  0  0  0  0  0  0  0  0  0
   40.1528   30.5914   43.4387 C   0  0  0  0  0  0  0  0  0  0  0  0
   40.8566   30.2320   42.3141 C   0  0  0  0  0  0  0  0  0  0  0  0
   40.5148   30.8101   41.1109 C   0  0  0  0  0  0  0  0  0  0  0  0
   39.5017   31.7357   40.9595 C   0  0  0  0  0  0  0  0  0  0  0  0
   38.8389   32.0571   42.0934 N   0  0  0  0  0  0  0  0  0  0  0  0
   39.1388   32.3241   39.6803 C   0  0  0  0  0  0  0  0  0  0  0  0
   38.8456   33.5405   39.6179 O   0  0  0  0  0  0  0  0  0  0  0  0
   39.3602   30.4866   48.2328 H   0  0  0  0  0  0  0  0  0  0  0  0
   38.0202   33.2200   48.6940 H   0  0  0  0  0  0  0  0  0  0  0  0
   39.7205   32.9152   48.0222 H   0  0  0  0  0  0  0  0  0  0  0  0
   37.0180   32.0436   46.7565 H   0  0  0  0  0  0  0  0  0  0  0  0
   34.0250   30.3467   49.2979 H   0  0  0  0  0  0  0  0  0  0  0  0
   34.6640   29.1495   51.3483 H   0  0  0  0  0  0  0  0  0  0  0  0
   37.0619   28.8644   51.9249 H   0  0  0  0  0  0  0  0  0  0  0  0
   39.9223   31.3790   45.9343 H   0  0  0  0  0  0  0  0  0  0  0  0
   40.4232   30.1348   44.3809 H   0  0  0  0  0  0  0  0  0  0  0  0
   41.6705   29.4997   42.3934 H   0  0  0  0  0  0  0  0  0  0  0  0
   41.0940   30.5010   40.2412 H   0  0  0  0  0  0  0  0  0  0  0  0
   40.2011   31.3495   37.6016 C   0  0  0  0  0  0  0  0  0  0  0  0
   39.0979   31.5505   38.4450 C   0  0  0  0  0  0  0  0  0  0  0  0
   37.9298   30.9499   38.0277 C   0  0  0  0  0  0  0  0  0  0  0  0
   37.0665   31.1061   38.6926 H   0  0  0  0  0  0  0  0  0  0  0  0
   37.7278   30.1916   36.9007 C   0  0  0  0  0  0  0  0  0  0  0  0
   36.6400   29.5725   36.4161 N   0  0  0  0  0  0  0  0  0  0  0  0
   35.7014   29.5802   36.8714 H   0  0  0  0  0  0  0  0  0  0  0  0
   37.0693   28.9821   35.2594 C   0  0  0  0  0  0  0  0  0  0  0  0
   36.4084   28.3890   34.6142 H   0  0  0  0  0  0  0  0  0  0  0  0
   38.4038   29.2429   35.0489 C   0  0  0  0  0  0  0  0  0  0  0  0
   38.8491   30.0329   36.1166 C   0  0  0  0  0  0  0  0  0  0  0  0
   40.0672   30.5861   36.4344 C   0  0  0  0  0  0  0  0  0  0  0  0
   41.1430   31.8086   37.8997 H   0  0  0  0  0  0  0  0  0  0  0  0
   39.0147   28.9017   34.2085 H   0  0  0  0  0  0  0  0  0  0  0  0
   40.9323   30.4433   35.7939 H   0  0  0  0  0  0  0  0  0  0  0  0
  1  8  1  0
  2  1  1  0
  3  2  1  0
  3  1  1  0
  4  5  2  0
  5  6  1  0
  7  6  2  0
  8  7  1  0
  9  8  2  0
  9  4  1  0
 10 12  1  0
 11 10  2  0
 12  3  1  0
 13 14  2  0
 13 10  1  0
 15 14  1  0
 16 15  2  0
 17 16  1  0
 17 18  2  0
 18 13  1  0
 19 17  1  0
 20 19  2  0
  1 21  1  6
  2 22  1  0
  2 23  1  0
  3 24  1  6
  4 25  1  0
  5 26  1  0
  6 27  1  0
 12 28  1  0
 14 29  1  0
 15 30  1  0
 16 31  1  0
 32 33  2  0
 33 34  1  0
 34 35  1  0
 34 36  2  0
 36 37  1  0
 37 38  1  0
 37 39  1  0
 39 40  1  0
 39 41  2  0
 41 42  1  0
 42 43  2  0
 43 32  1  0
 42 36  1  0
 32 44  1  0
 41 45  1  0
 43 46  1  0
 19 33  1  0
M  ISO  8  21  13  22  13  23  13  24  13  25  14  26  14  27  14  29  14
M  ISO  5  30  14  31  14  35  15  38   5  40  14
M  END
>  <DihAtoms>  (1) 
16,18,32,31

>  <DihDeg>  (1) 
17.31637231944001

$$$$
