
 OpenBabel03272508563D

 43 47  0  0  1  0  0  0  0  0999 V2000
   39.1560   31.4770   43.3850 C   0  0  0  0  0  0  0  0  0  0  0  0
   40.1390   30.5260   43.5370 C   0  0  0  0  0  0  0  0  0  0  0  0
   40.8520   30.1590   42.4200 C   0  0  0  0  0  0  0  0  0  0  0  0
   40.5460   30.7580   41.2170 C   0  0  0  0  0  0  0  0  0  0  0  0
   39.5600   31.7130   41.0590 C   0  0  0  0  0  0  0  0  0  0  0  0
   38.8870   32.0400   42.1850 N   0  0  0  0  0  0  0  0  0  0  0  0
   40.3810   30.0530   44.4780 H   0  0  0  0  0  0  0  0  0  0  0  0
   41.6440   29.4050   42.5040 H   0  0  0  0  0  0  0  0  0  0  0  0
   41.1300   30.4430   40.3540 H   0  0  0  0  0  0  0  0  0  0  0  0
   38.3770   31.8790   44.5750 C   0  0  0  0  0  0  0  0  0  0  0  0
   37.2600   32.4290   44.4560 O   0  0  0  0  0  0  0  0  0  0  0  0
   38.9310   31.6230   45.8710 N   0  0  0  0  0  0  0  0  0  0  0  0
   39.9150   31.3590   46.0320 H   0  0  0  0  0  0  0  0  0  0  0  0
   38.4230   31.1140   48.2560 C   0  0  2  0  0  0  0  0  0  0  0  0
   38.6670   32.5790   48.1700 C   0  0  0  0  0  0  0  0  0  0  0  0
   38.0670   31.7420   47.0240 C   0  0  1  0  0  0  0  0  0  0  0  0
   39.3410   30.4930   48.3360 H   0  0  0  0  0  0  0  0  0  0  0  0
   37.9860   33.2250   48.7600 H   0  0  0  0  0  0  0  0  0  0  0  0
   39.6940   32.9200   48.1030 H   0  0  0  0  0  0  0  0  0  0  0  0
   37.0040   32.0250   46.8270 H   0  0  0  0  0  0  0  0  0  0  0  0
   35.0580   30.2000   49.5380 C   0  0  0  0  0  0  0  0  0  0  0  0
   35.3850   29.5700   50.7800 C   0  0  0  0  0  0  0  0  0  0  0  0
   36.7830   29.4800   51.1610 C   0  0  0  0  0  0  0  0  0  0  0  0
   37.7300   30.0000   50.3190 N   0  0  0  0  0  0  0  0  0  0  0  0
   37.3380   30.5840   49.1540 C   0  0  0  0  0  0  0  0  0  0  0  0
   36.0170   30.7020   48.7310 N   0  0  0  0  0  0  0  0  0  0  0  0
   34.0060   30.2350   49.3090 H   0  0  0  0  0  0  0  0  0  0  0  0
   34.6310   29.1680   51.4340 H   0  0  0  0  0  0  0  0  0  0  0  0
   37.0200   29.0070   52.0890 H   0  0  0  0  0  0  0  0  0  0  0  0
   39.2340   32.3230   39.7800 C   0  0  0  0  0  0  0  0  0  0  0  0
   38.6230   33.4170   39.7530 O   0  0  0  0  0  0  0  0  0  0  0  0
   40.7250   32.0520   37.7550 C   0  0  0  0  0  3  0  0  0  0  0  0
   39.5900   31.7100   38.5060 C   0  0  0  0  0  0  0  0  0  0  0  0
   38.8020   30.7250   37.9530 C   0  0  0  0  0  0  0  0  0  0  0  0
   37.9140   30.4570   38.5450 H   0  0  0  0  0  0  0  0  0  0  0  0
   38.9990   30.0510   36.7720 C   0  0  0  0  0  0  0  0  0  0  0  0
   38.2950   29.0880   36.1580 N   0  0  0  0  0  0  0  0  0  0  0  0
   37.4120   28.6710   36.5280 H   0  0  0  0  0  0  0  0  0  0  0  0
   38.9980   28.8260   35.0150 C   0  0  0  0  0  0  0  0  0  0  0  0
   38.6810   28.0740   34.2810 H   0  0  0  0  0  0  0  0  0  0  0  0
   40.1160   29.6260   34.9400 C   0  0  0  0  0  3  0  0  0  0  0  0
   40.1300   30.4330   36.0850 C   0  0  0  0  0  0  0  0  0  0  0  0
   40.9890   31.4050   36.5410 C   0  0  0  0  0  3  0  0  0  0  0  0
  1  2  1  0  0  0  0
  1 10  1  0  0  0  0
  2  7  1  0  0  0  0
  3  8  1  0  0  0  0
  3  2  2  0  0  0  0
  4  3  1  0  0  0  0
  5  4  2  0  0  0  0
  5  6  1  0  0  0  0
  6  1  2  0  0  0  0
  9  4  1  0  0  0  0
 10 12  1  0  0  0  0
 11 10  2  0  0  0  0
 12 13  1  0  0  0  0
 12 16  1  0  0  0  0
 14 17  1  6  0  0  0
 14 25  1  0  0  0  0
 15 14  1  0  0  0  0
 15 18  1  0  0  0  0
 16 20  1  6  0  0  0
 16 15  1  0  0  0  0
 16 14  1  0  0  0  0
 19 15  1  0  0  0  0
 21 22  1  0  0  0  0
 22 23  2  0  0  0  0
 22 28  1  0  0  0  0
 23 29  1  0  0  0  0
 24 23  1  0  0  0  0
 25 24  2  0  0  0  0
 26 25  1  0  0  0  0
 26 21  2  0  0  0  0
 27 21  1  0  0  0  0
 30  5  1  0  0  0  0
 31 30  2  0  0  0  0
 32 33  1  0  0  0  0
 33 30  1  0  0  0  0
 34 33  2  0  0  0  0
 34 35  1  0  0  0  0
 36 34  1  0  0  0  0
 37 38  1  0  0  0  0
 37 36  1  0  0  0  0
 39 37  1  0  0  0  0
 40 39  1  0  0  0  0
 41 39  2  0  0  0  0
 41 42  1  0  0  0  0
 42 43  1  0  0  0  0
 42 36  2  0  0  0  0
 43 32  2  0  0  0  0
M  END
>  <minimizedAffinity>
-4.96822977

>  <minimizedRMSD>
0.709581673

$$$$
