
     RDKit          3D

 51 56  0  0  0  0  0  0  0  0999 V2000
   36.2444   30.1839   46.8630 C   0  0  0  0  0  0  0  0  0  0  0  0
   37.0812   30.7688   47.8116 C   0  0  0  0  0  0  0  0  0  0  0  0
   38.0568   31.6824   47.4383 C   0  0  0  0  0  0  0  0  0  0  0  0
   38.1468   31.9725   46.0835 C   0  0  0  0  0  0  0  0  0  0  0  0
   39.0231   32.8333   45.4784 N   0  0  0  0  0  0  0  0  0  0  0  0
   38.7414   32.7887   44.1661 C   0  0  0  0  0  0  0  0  0  0  0  0
   37.7505   31.9563   43.9321 N   0  0  0  0  0  0  0  0  0  0  0  0
   37.3425   31.4185   45.1131 C   0  0  0  0  0  0  0  0  0  0  0  0
   36.3654   30.4997   45.5183 C   0  0  0  0  0  0  0  0  0  0  0  0
   37.5091   30.1514   51.4855 C   0  0  0  0  0  0  0  0  0  0  0  0
   37.8011   30.5905   50.2070 C   0  0  0  0  0  0  0  0  0  0  0  0
   36.8819   30.3618   49.1891 C   0  0  0  0  0  0  0  0  0  0  0  0
   35.7322   29.7095   49.5175 N   0  0  0  0  0  0  0  0  0  0  0  0
   35.4530   29.2847   50.7616 C   0  0  0  0  0  0  0  0  0  0  0  0
   36.3385   29.5075   51.7310 N   0  0  0  0  0  0  0  0  0  0  0  0
   39.4578   33.5613   43.2355 O   0  0  0  0  0  0  0  0  0  0  0  0
   39.5626   31.8593   41.7261 N   0  0  0  0  0  0  0  0  0  0  0  0
   39.2064   33.2787   41.8641 C   0  0  1  0  0  0  0  0  0  0  0  0
   37.7984   33.4460   41.5210 C   0  0  0  0  0  0  0  0  0  0  0  0
   37.6307   33.1318   40.1599 O   0  0  0  0  0  0  0  0  0  0  0  0
   38.0668   31.8991   39.7880 C   0  0  0  0  0  0  0  0  0  0  0  0
   39.4344   31.5516   40.3193 C   0  0  2  0  0  0  0  0  0  0  0  0
   35.4834   29.4772   47.1206 H   0  0  0  0  0  0  0  0  0  0  0  0
   38.6955   32.1276   48.1763 H   0  0  0  0  0  0  0  0  0  0  0  0
   39.7528   33.3977   45.9639 H   0  0  0  0  0  0  0  0  0  0  0  0
   35.7375   30.0701   44.7476 H   0  0  0  0  0  0  0  0  0  0  0  0
   38.2807   30.3709   52.2198 H   0  0  0  0  0  0  0  0  0  0  0  0
   38.7212   31.1101   49.9558 H   0  0  0  0  0  0  0  0  0  0  0  0
   34.5264   28.7687   50.9837 H   0  0  0  0  0  0  0  0  0  0  0  0
   40.5691   31.7962   41.9726 H   0  0  0  0  0  0  0  0  0  0  0  0
   39.8189   33.9109   41.2174 H   0  0  0  0  0  0  0  0  0  0  0  0
   36.9865   32.9743   41.9999 H   0  0  0  0  0  0  0  0  0  0  0  0
   37.5841   34.5592   41.5486 H   0  0  0  0  0  0  0  0  0  0  0  0
   38.1339   31.8768   38.6897 H   0  0  0  0  0  0  0  0  0  0  0  0
   37.3203   31.1316   40.0733 H   0  0  0  0  0  0  0  0  0  0  0  0
   40.2663   31.9334   39.7064 H   0  0  0  0  0  0  0  0  0  0  0  0
   39.5994   29.4249   41.5365 C   0  0  0  0  0  0  0  0  0  0  0  0
   39.4659   30.0406   40.2920 C   0  0  0  0  0  0  0  0  0  0  0  0
   39.3742   29.2625   39.1559 C   0  0  0  0  0  0  0  0  0  0  0  0
   39.2722   29.7909   38.2193 H   0  0  0  0  0  0  0  0  0  0  0  0
   39.4188   27.8825   39.2955 C   0  0  0  0  0  0  0  0  0  0  0  0
   39.3528   26.9165   38.3817 N   0  0  0  0  0  0  0  0  0  0  0  0
   39.2502   27.0723   37.3508 H   0  0  0  0  0  0  0  0  0  0  0  0
   39.4375   25.7127   38.9795 C   0  0  0  0  0  0  0  0  0  0  0  0
   39.4103   24.7597   38.4724 H   0  0  0  0  0  0  0  0  0  0  0  0
   39.5627   25.9231   40.3318 C   0  0  0  0  0  0  0  0  0  0  0  0
   39.5527   27.2903   40.5488 C   0  0  0  0  0  0  0  0  0  0  0  0
   39.6459   28.0498   41.6966 C   0  0  0  0  0  0  0  0  0  0  0  0
   39.6732   30.0182   42.4435 H   0  0  0  0  0  0  0  0  0  0  0  0
   39.6519   25.1528   41.0775 H   0  0  0  0  0  0  0  0  0  0  0  0
   39.7486   27.5795   42.6545 H   0  0  0  0  0  0  0  0  0  0  0  0
  1  2  2  0
  2 12  1  0
  3  2  1  0
  4  3  2  0
  5  4  1  0
  6  5  1  0
  7  6  2  0
  7  8  1  0
  8  9  2  0
  8  4  1  0
  9  1  1  0
 10 15  2  0
 11 10  1  0
 12 13  1  0
 12 11  2  0
 13 14  2  0
 14 15  1  0
 16  6  1  0
 17 18  1  0
 18 16  1  0
 19 18  1  0
 20 19  1  0
 21 20  1  0
 21 22  1  0
 22 17  1  0
  1 23  1  0
  3 24  1  0
  5 25  1  0
  9 26  1  0
 10 27  1  0
 11 28  1  0
 14 29  1  0
 17 30  1  0
 18 31  1  6
 19 32  1  0
 19 33  1  0
 21 34  1  0
 21 35  1  0
 22 36  1  6
 37 38  2  0
 38 39  1  0
 39 40  1  0
 39 41  2  0
 41 42  1  0
 42 43  1  0
 42 44  1  0
 44 45  1  0
 44 46  2  0
 46 47  1  0
 47 48  2  0
 48 37  1  0
 47 41  1  0
 37 49  1  0
 46 50  1  0
 48 51  1  0
 22 38  1  0
M  ISO  8  23  14  24  14  25   9  26  14  27  14  28  14  29  14  30   5
M  ISO  8  31  13  32  13  33  13  34  13  35  13  36  13  40  15  43   5
M  ISO  1  45  14
M  END
>  <DihAtoms>  (1) 
20,21,37,36

>  <DihDeg>  (1) 
-72.07229537769724

$$$$
