
 OpenBabel03272507493D

 49 54  0  0  1  0  0  0  0  0999 V2000
   37.5540   27.4180   31.4290 N   0  0  0  0  0  0  0  0  0  0  0  0
   36.9340   26.1690   31.1420 C   0  0  0  0  0  0  0  0  0  0  0  0
   37.0310   25.1240   32.1870 C   0  0  0  0  0  0  0  0  0  0  0  0
   38.2930   25.0370   32.9230 C   0  0  1  0  0  0  0  0  0  0  0  0
   38.9390   26.4180   33.1370 C   0  0  0  0  0  0  0  0  0  0  0  0
   38.9190   27.1390   31.7770 C   0  0  0  0  0  0  0  0  0  0  0  0
   35.8620   26.3890   30.9130 H   0  0  0  0  0  0  0  0  0  0  0  0
   37.3470   25.7890   30.1640 H   0  0  0  0  0  0  0  0  0  0  0  0
   36.7440   24.1460   31.7660 H   0  0  0  0  0  0  0  0  0  0  0  0
   36.2540   25.4820   32.9410 H   0  0  0  0  0  0  0  0  0  0  0  0
   39.0830   24.4510   32.3770 H   0  0  0  0  0  0  0  0  0  0  0  0
   38.3730   27.0130   33.8640 H   0  0  0  0  0  0  0  0  0  0  0  0
   39.9900   26.2490   33.3830 H   0  0  0  0  0  0  0  0  0  0  0  0
   39.4600   26.5110   31.0500 H   0  0  0  0  0  0  0  0  0  0  0  0
   39.4390   28.1130   31.8670 H   0  0  0  0  0  0  0  0  0  0  0  0
   38.0520   23.0770   34.3760 C   0  0  0  0  0  0  0  0  0  0  0  0
   38.1780   24.4530   34.2820 C   0  0  0  0  0  0  0  0  0  0  0  0
   38.1780   25.2980   35.3600 C   0  0  0  0  0  0  0  0  0  0  0  0
   38.0410   24.7300   36.6240 C   0  0  0  0  0  0  0  0  0  0  0  0
   37.9140   23.3640   36.7260 C   0  0  0  0  0  0  0  0  0  0  0  0
   37.9150   22.5050   35.6300 C   0  0  0  0  0  0  0  0  0  0  0  0
   37.7860   22.9870   38.0700 O   0  0  0  0  0  0  0  0  0  0  0  0
   38.1680   24.1410   38.8050 C   0  0  0  0  0  0  0  0  0  0  0  0
   37.9940   25.2250   37.9290 O   0  0  0  0  0  0  0  0  0  0  0  0
   38.0510   22.3190   33.6060 H   0  0  0  0  0  0  0  0  0  0  0  0
   38.2780   26.3470   35.2500 H   0  0  0  0  0  0  0  0  0  0  0  0
   37.8090   21.4220   35.7850 H   0  0  0  0  0  0  0  0  0  0  0  0
   37.3650   24.2420   39.5930 H   0  0  0  0  0  0  0  0  0  0  0  0
   39.1620   24.0690   39.2530 H   0  0  0  0  0  0  0  0  0  0  0  0
   36.9660   28.7220   31.3890 C   0  0  0  0  0  0  0  0  0  0  0  0
   36.9690   29.5840   30.3000 C   0  0  0  0  0  0  0  0  0  0  0  0
   36.3380   30.8170   30.4580 C   0  0  0  0  0  0  0  0  0  0  0  0
   35.7590   31.1110   31.6510 N   0  0  0  0  0  0  0  0  0  0  0  0
   35.7720   30.2550   32.6890 C   0  0  0  0  0  0  0  0  0  0  0  0
   36.3720   29.0730   32.5500 N   0  0  0  0  0  0  0  0  0  0  0  0
   37.4640   29.1990   29.4470 H   0  0  0  0  0  0  0  0  0  0  0  0
   36.3580   31.4600   29.5960 H   0  0  0  0  0  0  0  0  0  0  0  0
   35.8500   31.3320   34.8960 C   0  0  0  0  0  3  0  0  0  0  0  0
   35.1310   30.6300   33.9460 C   0  0  0  0  0  0  0  0  0  0  0  0
   33.8150   30.2700   34.1550 C   0  0  0  0  0  0  0  0  0  0  0  0
   33.2580   29.7240   33.4130 H   0  0  0  0  0  0  0  0  0  0  0  0
   33.1730   30.6020   35.3240 C   0  0  0  0  0  0  0  0  0  0  0  0
   31.9250   30.3770   35.7630 N   0  0  0  0  0  0  0  0  0  0  0  0
   31.1320   29.8810   35.3020 H   0  0  0  0  0  0  0  0  0  0  0  0
   31.7470   30.8990   36.9910 C   0  0  0  0  0  0  0  0  0  0  0  0
   30.9120   30.9360   37.6810 H   0  0  0  0  0  0  0  0  0  0  0  0
   32.9720   31.4800   37.3170 C   0  0  0  0  0  3  0  0  0  0  0  0
   33.8730   31.3000   36.2770 C   0  0  0  0  0  0  0  0  0  0  0  0
   35.1970   31.6690   36.0830 C   0  0  0  0  0  3  0  0  0  0  0  0
  1  6  1  0  0  0  0
  2  1  1  0  0  0  0
  2  3  1  0  0  0  0
  3  4  1  0  0  0  0
  3 10  1  0  0  0  0
  4 11  1  6  0  0  0
  4  5  1  0  0  0  0
  4 17  1  0  0  0  0
  5 13  1  0  0  0  0
  5 12  1  0  0  0  0
  6 15  1  0  0  0  0
  6  5  1  0  0  0  0
  7  2  1  0  0  0  0
  8  2  1  0  0  0  0
  9  3  1  0  0  0  0
 14  6  1  0  0  0  0
 16 21  1  0  0  0  0
 17 16  2  0  0  0  0
 17 18  1  0  0  0  0
 18 19  2  0  0  0  0
 19 20  1  0  0  0  0
 19 24  1  0  0  0  0
 20 22  1  0  0  0  0
 21 27  1  0  0  0  0
 21 20  2  0  0  0  0
 22 23  1  0  0  0  0
 23 29  1  0  0  0  0
 23 28  1  0  0  0  0
 24 23  1  0  0  0  0
 25 16  1  0  0  0  0
 26 18  1  0  0  0  0
 30  1  1  0  0  0  0
 30 35  1  0  0  0  0
 31 32  1  0  0  0  0
 31 30  2  0  0  0  0
 32 33  2  0  0  0  0
 33 34  1  0  0  0  0
 34 39  1  0  0  0  0
 35 34  2  0  0  0  0
 36 31  1  0  0  0  0
 37 32  1  0  0  0  0
 38 49  1  0  0  0  0
 39 40  1  0  0  0  0
 39 38  2  0  0  0  0
 40 42  2  0  0  0  0
 41 40  1  0  0  0  0
 42 43  1  0  0  0  0
 42 48  1  0  0  0  0
 43 45  1  0  0  0  0
 44 43  1  0  0  0  0
 45 47  2  0  0  0  0
 45 46  1  0  0  0  0
 48 47  1  0  0  0  0
 49 48  2  0  0  0  0
M  END
>  <minimizedAffinity>
-6.98488855

$$$$

 OpenBabel03272507493D

 49 54  0  0  1  0  0  0  0  0999 V2000
   36.6390   28.6700   31.8270 N   0  0  0  0  0  0  0  0  0  0  0  0
   36.5670   30.0030   31.3320 C   0  0  0  0  0  0  0  0  0  0  0  0
   35.9670   31.0150   32.2340 C   0  0  0  0  0  0  0  0  0  0  0  0
   34.8230   30.5880   33.0410 C   0  0  1  0  0  0  0  0  0  0  0  0
   34.9380   29.1180   33.4830 C   0  0  0  0  0  0  0  0  0  0  0  0
   35.3120   28.3010   32.2330 C   0  0  0  0  0  0  0  0  0  0  0  0
   37.6090   30.3010   31.0580 H   0  0  0  0  0  0  0  0  0  0  0  0
   36.0230   29.9830   30.3450 H   0  0  0  0  0  0  0  0  0  0  0  0
   35.7370   31.9320   31.6660 H   0  0  0  0  0  0  0  0  0  0  0  0
   36.8180   31.1980   32.9700 H   0  0  0  0  0  0  0  0  0  0  0  0
   33.8480   30.6260   32.4810 H   0  0  0  0  0  0  0  0  0  0  0  0
   35.7220   28.9900   34.2390 H   0  0  0  0  0  0  0  0  0  0  0  0
   33.9390   28.7900   33.7800 H   0  0  0  0  0  0  0  0  0  0  0  0
   34.5340   28.4680   31.4700 H   0  0  0  0  0  0  0  0  0  0  0  0
   35.3370   27.2230   32.4890 H   0  0  0  0  0  0  0  0  0  0  0  0
   35.6510   31.2990   35.2360 C   0  0  0  0  0  0  0  0  0  0  0  0
   34.6340   31.3520   34.2980 C   0  0  0  0  0  0  0  0  0  0  0  0
   33.4640   32.0430   34.4750 C   0  0  0  0  0  0  0  0  0  0  0  0
   33.2960   32.7300   35.6740 C   0  0  0  0  0  0  0  0  0  0  0  0
   34.3010   32.6810   36.6120 C   0  0  0  0  0  0  0  0  0  0  0  0
   35.4900   31.9800   36.4330 C   0  0  0  0  0  0  0  0  0  0  0  0
   33.9470   33.4280   37.7440 O   0  0  0  0  0  0  0  0  0  0  0  0
   32.8290   34.2010   37.3300 C   0  0  0  0  0  0  0  0  0  0  0  0
   32.2880   33.5240   36.2240 O   0  0  0  0  0  0  0  0  0  0  0  0
   36.6110   30.8040   35.2030 H   0  0  0  0  0  0  0  0  0  0  0  0
   32.7070   32.0620   33.7340 H   0  0  0  0  0  0  0  0  0  0  0  0
   36.2520   31.9840   37.2250 H   0  0  0  0  0  0  0  0  0  0  0  0
   32.0840   34.0780   38.1690 H   0  0  0  0  0  0  0  0  0  0  0  0
   33.0630   35.2530   37.1520 H   0  0  0  0  0  0  0  0  0  0  0  0
   37.7920   27.8270   31.9180 C   0  0  0  0  0  0  0  0  0  0  0  0
   38.8110   27.7380   30.9790 C   0  0  0  0  0  0  0  0  0  0  0  0
   39.8550   26.8550   31.2510 C   0  0  0  0  0  0  0  0  0  0  0  0
   39.8260   26.1370   32.4040 N   0  0  0  0  0  0  0  0  0  0  0  0
   38.8250   26.2470   33.2960 C   0  0  0  0  0  0  0  0  0  0  0  0
   37.8210   27.0870   33.0470 N   0  0  0  0  0  0  0  0  0  0  0  0
   38.6790   28.3650   30.1370 H   0  0  0  0  0  0  0  0  0  0  0  0
   40.6280   26.8100   30.5040 H   0  0  0  0  0  0  0  0  0  0  0  0
   37.8400   25.5900   35.4490 C   0  0  0  0  0  3  0  0  0  0  0  0
   38.8510   25.4480   34.5180 C   0  0  0  0  0  0  0  0  0  0  0  0
   39.8940   24.5640   34.7120 C   0  0  0  0  0  0  0  0  0  0  0  0
   40.6800   24.4550   33.9840 H   0  0  0  0  0  0  0  0  0  0  0  0
   39.9590   23.7920   35.8470 C   0  0  0  0  0  0  0  0  0  0  0  0
   40.8460   22.8770   36.2660 N   0  0  0  0  0  0  0  0  0  0  0  0
   41.7180   22.5310   35.8110 H   0  0  0  0  0  0  0  0  0  0  0  0
   40.4880   22.3740   37.4620 C   0  0  0  0  0  0  0  0  0  0  0  0
   40.9170   21.6360   38.1290 H   0  0  0  0  0  0  0  0  0  0  0  0
   39.3020   23.0300   37.7900 C   0  0  0  0  0  3  0  0  0  0  0  0
   38.9610   23.9220   36.7820 C   0  0  0  0  0  0  0  0  0  0  0  0
   37.9060   24.8060   36.6020 C   0  0  0  0  0  3  0  0  0  0  0  0
  1 30  1  0  0  0  0
  1  6  1  0  0  0  0
  2  1  1  0  0  0  0
  2  3  1  0  0  0  0
  3 10  1  0  0  0  0
  3  4  1  0  0  0  0
  4 11  1  6  0  0  0
  4  5  1  0  0  0  0
  4 17  1  0  0  0  0
  5 13  1  0  0  0  0
  5 12  1  0  0  0  0
  6 15  1  0  0  0  0
  6  5  1  0  0  0  0
  7  2  1  0  0  0  0
  8  2  1  0  0  0  0
  9  3  1  0  0  0  0
 14  6  1  0  0  0  0
 16 21  1  0  0  0  0
 17 18  1  0  0  0  0
 17 16  2  0  0  0  0
 18 19  2  0  0  0  0
 19 24  1  0  0  0  0
 19 20  1  0  0  0  0
 20 22  1  0  0  0  0
 21 20  2  0  0  0  0
 21 27  1  0  0  0  0
 23 22  1  0  0  0  0
 23 28  1  0  0  0  0
 24 23  1  0  0  0  0
 25 16  1  0  0  0  0
 26 18  1  0  0  0  0
 29 23  1  0  0  0  0
 30 35  1  0  0  0  0
 31 32  1  0  0  0  0
 31 30  2  0  0  0  0
 32 33  2  0  0  0  0
 33 34  1  0  0  0  0
 34 39  1  0  0  0  0
 35 34  2  0  0  0  0
 36 31  1  0  0  0  0
 37 32  1  0  0  0  0
 38 49  1  0  0  0  0
 39 40  1  0  0  0  0
 39 38  2  0  0  0  0
 40 42  2  0  0  0  0
 41 40  1  0  0  0  0
 42 43  1  0  0  0  0
 42 48  1  0  0  0  0
 43 45  1  0  0  0  0
 44 43  1  0  0  0  0
 45 47  2  0  0  0  0
 45 46  1  0  0  0  0
 48 47  1  0  0  0  0
 49 48  2  0  0  0  0
M  END
>  <minimizedAffinity>
-6.79575014

$$$$

 OpenBabel03272507493D

 49 54  0  0  1  0  0  0  0  0999 V2000
   37.2390   27.1170   30.8260 N   0  0  0  0  0  0  0  0  0  0  0  0
   37.1860   28.2690   29.9910 C   0  0  0  0  0  0  0  0  0  0  0  0
   36.7860   29.5400   30.6380 C   0  0  0  0  0  0  0  0  0  0  0  0
   35.7400   29.4640   31.6590 C   0  0  1  0  0  0  0  0  0  0  0  0
   35.8180   28.1620   32.4770 C   0  0  0  0  0  0  0  0  0  0  0  0
   35.9600   27.0070   31.4700 C   0  0  0  0  0  0  0  0  0  0  0  0
   38.1970   28.3740   29.5260 H   0  0  0  0  0  0  0  0  0  0  0  0
   36.5100   28.0400   29.1190 H   0  0  0  0  0  0  0  0  0  0  0  0
   36.5400   30.2910   29.8680 H   0  0  0  0  0  0  0  0  0  0  0  0
   37.7410   29.8260   31.1900 H   0  0  0  0  0  0  0  0  0  0  0  0
   34.7010   29.4500   31.2270 H   0  0  0  0  0  0  0  0  0  0  0  0
   36.6890   28.1630   33.1430 H   0  0  0  0  0  0  0  0  0  0  0  0
   34.8510   28.0300   32.9680 H   0  0  0  0  0  0  0  0  0  0  0  0
   35.0960   27.0420   30.7860 H   0  0  0  0  0  0  0  0  0  0  0  0
   35.9490   26.0400   32.0110 H   0  0  0  0  0  0  0  0  0  0  0  0
   36.1650   31.8100   32.2320 C   0  0  0  0  0  0  0  0  0  0  0  0
   35.7780   30.5520   32.6660 C   0  0  0  0  0  0  0  0  0  0  0  0
   35.4570   30.2550   33.9640 C   0  0  0  0  0  0  0  0  0  0  0  0
   35.5270   31.2860   34.8980 C   0  0  0  0  0  0  0  0  0  0  0  0
   35.9110   32.5370   34.4760 C   0  0  0  0  0  0  0  0  0  0  0  0
   36.2370   32.8400   33.1570 C   0  0  0  0  0  0  0  0  0  0  0  0
   35.9230   33.4320   35.5540 O   0  0  0  0  0  0  0  0  0  0  0  0
   35.2170   32.7590   36.5870 C   0  0  0  0  0  0  0  0  0  0  0  0
   35.2890   31.3920   36.2700 O   0  0  0  0  0  0  0  0  0  0  0  0
   36.4260   32.1610   31.2450 H   0  0  0  0  0  0  0  0  0  0  0  0
   35.1640   29.2800   34.2600 H   0  0  0  0  0  0  0  0  0  0  0  0
   36.5370   33.8630   32.8890 H   0  0  0  0  0  0  0  0  0  0  0  0
   35.8640   32.9040   37.5010 H   0  0  0  0  0  0  0  0  0  0  0  0
   34.2050   33.1380   36.7490 H   0  0  0  0  0  0  0  0  0  0  0  0
   38.3350   26.2170   31.0140 C   0  0  0  0  0  0  0  0  0  0  0  0
   39.2530   25.8380   30.0440 C   0  0  0  0  0  0  0  0  0  0  0  0
   40.2560   24.9480   30.4260 C   0  0  0  0  0  0  0  0  0  0  0  0
   40.2860   24.5000   31.7080 N   0  0  0  0  0  0  0  0  0  0  0  0
   39.3810   24.8860   32.6260 C   0  0  0  0  0  0  0  0  0  0  0  0
   38.4180   25.7370   32.2740 N   0  0  0  0  0  0  0  0  0  0  0  0
   39.0870   26.2790   29.0970 H   0  0  0  0  0  0  0  0  0  0  0  0
   40.9510   24.6760   29.6510 H   0  0  0  0  0  0  0  0  0  0  0  0
   40.6020   23.6910   34.3920 C   0  0  0  0  0  3  0  0  0  0  0  0
   39.4670   24.3700   33.9890 C   0  0  0  0  0  0  0  0  0  0  0  0
   38.4030   24.5740   34.8460 C   0  0  0  0  0  0  0  0  0  0  0  0
   37.5210   25.1030   34.5280 H   0  0  0  0  0  0  0  0  0  0  0  0
   38.4410   24.1050   36.1370 C   0  0  0  0  0  0  0  0  0  0  0  0
   37.5600   24.1700   37.1470 N   0  0  0  0  0  0  0  0  0  0  0  0
   36.6130   24.6060   37.1820 H   0  0  0  0  0  0  0  0  0  0  0  0
   38.0420   23.5590   38.2450 C   0  0  0  0  0  0  0  0  0  0  0  0
   37.6580   23.3920   39.2440 H   0  0  0  0  0  0  0  0  0  0  0  0
   39.3020   23.0910   37.8740 C   0  0  0  0  0  3  0  0  0  0  0  0
   39.5620   23.4290   36.5530 C   0  0  0  0  0  0  0  0  0  0  0  0
   40.6390   23.2150   35.7050 C   0  0  0  0  0  3  0  0  0  0  0  0
  1 30  1  0  0  0  0
  1  6  1  0  0  0  0
  2  3  1  0  0  0  0
  2  1  1  0  0  0  0
  3 10  1  0  0  0  0
  3  4  1  0  0  0  0
  4 11  1  6  0  0  0
  4  5  1  0  0  0  0
  4 17  1  0  0  0  0
  5 13  1  0  0  0  0
  5 12  1  0  0  0  0
  6 15  1  0  0  0  0
  6  5  1  0  0  0  0
  7  2  1  0  0  0  0
  8  2  1  0  0  0  0
  9  3  1  0  0  0  0
 14  6  1  0  0  0  0
 16 17  2  0  0  0  0
 16 21  1  0  0  0  0
 17 18  1  0  0  0  0
 18 26  1  0  0  0  0
 18 19  2  0  0  0  0
 19 24  1  0  0  0  0
 20 19  1  0  0  0  0
 20 22  1  0  0  0  0
 21 20  2  0  0  0  0
 22 23  1  0  0  0  0
 23 29  1  0  0  0  0
 23 28  1  0  0  0  0
 24 23  1  0  0  0  0
 25 16  1  0  0  0  0
 27 21  1  0  0  0  0
 30 35  1  0  0  0  0
 31 32  1  0  0  0  0
 31 30  2  0  0  0  0
 32 33  2  0  0  0  0
 33 34  1  0  0  0  0
 34 39  1  0  0  0  0
 35 34  2  0  0  0  0
 36 31  1  0  0  0  0
 37 32  1  0  0  0  0
 38 49  1  0  0  0  0
 39 38  2  0  0  0  0
 39 40  1  0  0  0  0
 40 42  2  0  0  0  0
 41 40  1  0  0  0  0
 42 48  1  0  0  0  0
 42 43  1  0  0  0  0
 43 44  1  0  0  0  0
 43 45  1  0  0  0  0
 45 46  1  0  0  0  0
 47 45  2  0  0  0  0
 48 47  1  0  0  0  0
 49 48  2  0  0  0  0
M  END
>  <minimizedAffinity>
-6.79083633

$$$$

 OpenBabel03272507493D

 49 54  0  0  1  0  0  0  0  0999 V2000
   37.5450   26.6430   31.1870 N   0  0  0  0  0  0  0  0  0  0  0  0
   36.7900   25.4480   31.3530 C   0  0  0  0  0  0  0  0  0  0  0  0
   37.1870   24.5610   32.4710 C   0  0  0  0  0  0  0  0  0  0  0  0
   38.6200   24.4340   32.7400 C   0  0  1  0  0  0  0  0  0  0  0  0
   39.3810   25.7450   32.4740 C   0  0  0  0  0  0  0  0  0  0  0  0
   38.9260   26.2590   31.0960 C   0  0  0  0  0  0  0  0  0  0  0  0
   35.7210   25.7570   31.4650 H   0  0  0  0  0  0  0  0  0  0  0  0
   36.8070   24.8840   30.3770 H   0  0  0  0  0  0  0  0  0  0  0  0
   36.7120   23.5730   32.3520 H   0  0  0  0  0  0  0  0  0  0  0  0
   36.7490   25.1150   33.3670 H   0  0  0  0  0  0  0  0  0  0  0  0
   39.1300   23.6860   32.0720 H   0  0  0  0  0  0  0  0  0  0  0  0
   39.1450   26.5020   33.2320 H   0  0  0  0  0  0  0  0  0  0  0  0
   40.4400   25.4910   32.3770 H   0  0  0  0  0  0  0  0  0  0  0  0
   39.1360   25.4730   30.3530 H   0  0  0  0  0  0  0  0  0  0  0  0
   39.5010   27.1670   30.8310 H   0  0  0  0  0  0  0  0  0  0  0  0
   40.2780   23.7570   34.4140 C   0  0  0  0  0  0  0  0  0  0  0  0
   38.9580   24.0710   34.1380 C   0  0  0  0  0  0  0  0  0  0  0  0
   37.9530   24.0420   35.0690 C   0  0  0  0  0  0  0  0  0  0  0  0
   38.2890   23.6710   36.3680 C   0  0  0  0  0  0  0  0  0  0  0  0
   39.5970   23.3560   36.6500 C   0  0  0  0  0  0  0  0  0  0  0  0
   40.6190   23.3870   35.7050 C   0  0  0  0  0  0  0  0  0  0  0  0
   39.7340   23.0090   38.0010 O   0  0  0  0  0  0  0  0  0  0  0  0
   38.5230   23.4390   38.6070 C   0  0  0  0  0  0  0  0  0  0  0  0
   37.5850   23.5220   37.5650 O   0  0  0  0  0  0  0  0  0  0  0  0
   41.1480   23.7570   33.7730 H   0  0  0  0  0  0  0  0  0  0  0  0
   36.9530   24.2900   34.8210 H   0  0  0  0  0  0  0  0  0  0  0  0
   41.6440   23.1230   36.0000 H   0  0  0  0  0  0  0  0  0  0  0  0
   38.2080   22.5620   39.2440 H   0  0  0  0  0  0  0  0  0  0  0  0
   38.6270   24.3510   39.2020 H   0  0  0  0  0  0  0  0  0  0  0  0
   37.0600   27.9880   31.1180 C   0  0  0  0  0  0  0  0  0  0  0  0
   37.2870   28.8830   30.0800 C   0  0  0  0  0  0  0  0  0  0  0  0
   36.7240   30.1530   30.1970 C   0  0  0  0  0  0  0  0  0  0  0  0
   35.9930   30.4500   31.3030 N   0  0  0  0  0  0  0  0  0  0  0  0
   35.7910   29.5600   32.2920 C   0  0  0  0  0  0  0  0  0  0  0  0
   36.3230   28.3430   32.1920 N   0  0  0  0  0  0  0  0  0  0  0  0
   37.8770   28.4920   29.2940 H   0  0  0  0  0  0  0  0  0  0  0  0
   36.9180   30.8210   29.3770 H   0  0  0  0  0  0  0  0  0  0  0  0
   33.7330   29.4000   33.6250 C   0  0  0  0  0  3  0  0  0  0  0  0
   34.9950   29.9390   33.4560 C   0  0  0  0  0  0  0  0  0  0  0  0
   35.5270   30.8330   34.3640 C   0  0  0  0  0  0  0  0  0  0  0  0
   36.5110   31.2500   34.2290 H   0  0  0  0  0  0  0  0  0  0  0  0
   34.8130   31.2170   35.4740 C   0  0  0  0  0  0  0  0  0  0  0  0
   35.0980   32.0520   36.4850 N   0  0  0  0  0  0  0  0  0  0  0  0
   35.9550   32.6180   36.6650 H   0  0  0  0  0  0  0  0  0  0  0  0
   34.0750   32.1140   37.3570 C   0  0  0  0  0  0  0  0  0  0  0  0
   33.9040   32.6540   38.2810 H   0  0  0  0  0  0  0  0  0  0  0  0
   33.1040   31.2590   36.8380 C   0  0  0  0  0  3  0  0  0  0  0  0
   33.5580   30.6910   35.6560 C   0  0  0  0  0  0  0  0  0  0  0  0
   33.0080   29.7920   34.7530 C   0  0  0  0  0  3  0  0  0  0  0  0
  1  2  1  0  0  0  0
  2  7  1  0  0  0  0
  2  3  1  0  0  0  0
  3  4  1  0  0  0  0
  3 10  1  0  0  0  0
  4 11  1  6  0  0  0
  4 17  1  0  0  0  0
  5  4  1  0  0  0  0
  5 12  1  0  0  0  0
  6  1  1  0  0  0  0
  6  5  1  0  0  0  0
  8  2  1  0  0  0  0
  9  3  1  0  0  0  0
 13  5  1  0  0  0  0
 14  6  1  0  0  0  0
 15  6  1  0  0  0  0
 16 21  1  0  0  0  0
 17 16  2  0  0  0  0
 17 18  1  0  0  0  0
 18 19  2  0  0  0  0
 19 20  1  0  0  0  0
 19 24  1  0  0  0  0
 20 22  1  0  0  0  0
 21 27  1  0  0  0  0
 21 20  2  0  0  0  0
 22 23  1  0  0  0  0
 23 29  1  0  0  0  0
 23 28  1  0  0  0  0
 24 23  1  0  0  0  0
 25 16  1  0  0  0  0
 26 18  1  0  0  0  0
 30  1  1  0  0  0  0
 30 35  1  0  0  0  0
 31 32  1  0  0  0  0
 31 30  2  0  0  0  0
 32 33  2  0  0  0  0
 33 34  1  0  0  0  0
 34 39  1  0  0  0  0
 35 34  2  0  0  0  0
 36 31  1  0  0  0  0
 37 32  1  0  0  0  0
 38 49  1  0  0  0  0
 39 38  2  0  0  0  0
 39 40  1  0  0  0  0
 40 42  2  0  0  0  0
 41 40  1  0  0  0  0
 42 48  1  0  0  0  0
 42 43  1  0  0  0  0
 43 44  1  0  0  0  0
 43 45  1  0  0  0  0
 45 46  1  0  0  0  0
 47 45  2  0  0  0  0
 48 47  1  0  0  0  0
 49 48  2  0  0  0  0
M  END
>  <minimizedAffinity>
-6.74565458

$$$$

 OpenBabel03272507493D

 49 54  0  0  1  0  0  0  0  0999 V2000
   37.3240   26.2140   33.9790 N   0  0  0  0  0  0  0  0  0  0  0  0
   37.3970   25.8960   35.3650 C   0  0  0  0  0  0  0  0  0  0  0  0
   38.6960   25.3860   35.8620 C   0  0  0  0  0  0  0  0  0  0  0  0
   39.4360   24.4850   34.9780 C   0  0  1  0  0  0  0  0  0  0  0  0
   39.2560   24.8490   33.4930 C   0  0  0  0  0  0  0  0  0  0  0  0
   37.7470   25.0470   33.2580 C   0  0  0  0  0  0  0  0  0  0  0  0
   37.1070   26.8220   35.9220 H   0  0  0  0  0  0  0  0  0  0  0  0
   36.5700   25.1680   35.6030 H   0  0  0  0  0  0  0  0  0  0  0  0
   38.5660   24.9460   36.8650 H   0  0  0  0  0  0  0  0  0  0  0  0
   39.3110   26.3440   35.9180 H   0  0  0  0  0  0  0  0  0  0  0  0
   39.0850   23.4180   35.0390 H   0  0  0  0  0  0  0  0  0  0  0  0
   39.7800   25.7790   33.2450 H   0  0  0  0  0  0  0  0  0  0  0  0
   39.5480   23.9730   32.9070 H   0  0  0  0  0  0  0  0  0  0  0  0
   37.2320   24.1160   33.5460 H   0  0  0  0  0  0  0  0  0  0  0  0
   37.5620   25.2420   32.1840 H   0  0  0  0  0  0  0  0  0  0  0  0
   41.4370   23.4030   35.8930 C   0  0  0  0  0  0  0  0  0  0  0  0
   40.9040   24.4730   35.1940 C   0  0  0  0  0  0  0  0  0  0  0  0
   41.6450   25.5230   34.7170 C   0  0  0  0  0  0  0  0  0  0  0  0
   43.0160   25.5040   34.9570 C   0  0  0  0  0  0  0  0  0  0  0  0
   43.5540   24.4460   35.6510 C   0  0  0  0  0  0  0  0  0  0  0  0
   42.8010   23.3790   36.1350 C   0  0  0  0  0  0  0  0  0  0  0  0
   44.9380   24.6090   35.7910 O   0  0  0  0  0  0  0  0  0  0  0  0
   45.2730   25.6410   34.8740 C   0  0  0  0  0  0  0  0  0  0  0  0
   44.0830   26.3520   34.6500 O   0  0  0  0  0  0  0  0  0  0  0  0
   40.9590   22.5240   36.3010 H   0  0  0  0  0  0  0  0  0  0  0  0
   41.2020   26.3250   34.1850 H   0  0  0  0  0  0  0  0  0  0  0  0
   43.2960   22.5660   36.6830 H   0  0  0  0  0  0  0  0  0  0  0  0
   45.9430   26.3290   35.4690 H   0  0  0  0  0  0  0  0  0  0  0  0
   45.7690   25.2820   33.9690 H   0  0  0  0  0  0  0  0  0  0  0  0
   36.9120   27.4470   33.3800 C   0  0  0  0  0  0  0  0  0  0  0  0
   37.2080   27.8630   32.0890 C   0  0  0  0  0  0  0  0  0  0  0  0
   36.7110   29.1020   31.6870 C   0  0  0  0  0  0  0  0  0  0  0  0
   35.9730   29.8310   32.5640 N   0  0  0  0  0  0  0  0  0  0  0  0
   35.7020   29.4000   33.8090 C   0  0  0  0  0  0  0  0  0  0  0  0
   36.1720   28.2180   34.2050 N   0  0  0  0  0  0  0  0  0  0  0  0
   37.7940   27.1760   31.5370 H   0  0  0  0  0  0  0  0  0  0  0  0
   36.9580   29.3940   30.6810 H   0  0  0  0  0  0  0  0  0  0  0  0
   33.5760   29.9120   34.9290 C   0  0  0  0  0  3  0  0  0  0  0  0
   34.9020   30.2300   34.7060 C   0  0  0  0  0  0  0  0  0  0  0  0
   35.4970   31.3190   35.3120 C   0  0  0  0  0  0  0  0  0  0  0  0
   36.5300   31.5630   35.1360 H   0  0  0  0  0  0  0  0  0  0  0  0
   34.7810   32.1270   36.1620 C   0  0  0  0  0  0  0  0  0  0  0  0
   35.1170   33.2210   36.8620 N   0  0  0  0  0  0  0  0  0  0  0  0
   36.0290   33.7250   36.9220 H   0  0  0  0  0  0  0  0  0  0  0  0
   34.0670   33.6800   37.5690 C   0  0  0  0  0  0  0  0  0  0  0  0
   33.9190   34.5150   38.2430 H   0  0  0  0  0  0  0  0  0  0  0  0
   33.0240   32.8030   37.2760 C   0  0  0  0  0  3  0  0  0  0  0  0
   33.4620   31.8240   36.3940 C   0  0  0  0  0  0  0  0  0  0  0  0
   32.8490   30.7340   35.7930 C   0  0  0  0  0  3  0  0  0  0  0  0
  1  2  1  0  0  0  0
  2  8  1  0  0  0  0
  2  3  1  0  0  0  0
  2  7  1  0  0  0  0
  3 10  1  0  0  0  0
  3  9  1  0  0  0  0
  4 11  1  1  0  0  0
  4 17  1  0  0  0  0
  4  3  1  0  0  0  0
  5  4  1  0  0  0  0
  6  5  1  0  0  0  0
  6 14  1  0  0  0  0
  6  1  1  0  0  0  0
 12  5  1  0  0  0  0
 13  5  1  0  0  0  0
 15  6  1  0  0  0  0
 16 21  1  0  0  0  0
 16 25  1  0  0  0  0
 17 16  2  0  0  0  0
 18 19  2  0  0  0  0
 18 17  1  0  0  0  0
 19 20  1  0  0  0  0
 20 22  1  0  0  0  0
 20 21  2  0  0  0  0
 21 27  1  0  0  0  0
 23 28  1  0  0  0  0
 23 22  1  0  0  0  0
 24 23  1  0  0  0  0
 24 19  1  0  0  0  0
 26 18  1  0  0  0  0
 29 23  1  0  0  0  0
 30  1  1  0  0  0  0
 30 35  1  0  0  0  0
 31 30  2  0  0  0  0
 32 31  1  0  0  0  0
 32 33  2  0  0  0  0
 33 34  1  0  0  0  0
 34 35  2  0  0  0  0
 34 39  1  0  0  0  0
 36 31  1  0  0  0  0
 37 32  1  0  0  0  0
 38 49  1  0  0  0  0
 39 38  2  0  0  0  0
 39 40  1  0  0  0  0
 40 42  2  0  0  0  0
 41 40  1  0  0  0  0
 42 48  1  0  0  0  0
 42 43  1  0  0  0  0
 43 44  1  0  0  0  0
 43 45  1  0  0  0  0
 45 46  1  0  0  0  0
 47 45  2  0  0  0  0
 48 47  1  0  0  0  0
 49 48  2  0  0  0  0
M  END
>  <minimizedAffinity>
-6.72659206

$$$$

 OpenBabel03272507493D

 49 54  0  0  1  0  0  0  0  0999 V2000
   36.7510   27.7390   33.7990 N   0  0  0  0  0  0  0  0  0  0  0  0
   37.2590   27.4640   35.1000 C   0  0  0  0  0  0  0  0  0  0  0  0
   38.7090   27.1720   35.1980 C   0  0  0  0  0  0  0  0  0  0  0  0
   39.3000   26.3800   34.1190 C   0  0  1  0  0  0  0  0  0  0  0  0
   38.6550   26.6810   32.7550 C   0  0  0  0  0  0  0  0  0  0  0  0
   37.1290   26.6370   32.9590 C   0  0  0  0  0  0  0  0  0  0  0  0
   36.9990   28.3440   35.7390 H   0  0  0  0  0  0  0  0  0  0  0  0
   36.6560   26.6210   35.5420 H   0  0  0  0  0  0  0  0  0  0  0  0
   38.9360   26.7370   36.1860 H   0  0  0  0  0  0  0  0  0  0  0  0
   39.1590   28.2150   35.1030 H   0  0  0  0  0  0  0  0  0  0  0  0
   39.1500   25.2720   34.2510 H   0  0  0  0  0  0  0  0  0  0  0  0
   38.9370   27.6760   32.3920 H   0  0  0  0  0  0  0  0  0  0  0  0
   38.9020   25.8500   32.0890 H   0  0  0  0  0  0  0  0  0  0  0  0
   36.8670   25.6440   33.3570 H   0  0  0  0  0  0  0  0  0  0  0  0
   36.6210   26.7790   31.9850 H   0  0  0  0  0  0  0  0  0  0  0  0
   41.1290   27.4420   32.8800 C   0  0  0  0  0  0  0  0  0  0  0  0
   40.7520   26.6010   33.9140 C   0  0  0  0  0  0  0  0  0  0  0  0
   41.6370   25.9480   34.7320 C   0  0  0  0  0  0  0  0  0  0  0  0
   42.9950   26.1490   34.5020 C   0  0  0  0  0  0  0  0  0  0  0  0
   43.3780   26.9820   33.4770 C   0  0  0  0  0  0  0  0  0  0  0  0
   42.4790   27.6460   32.6460 C   0  0  0  0  0  0  0  0  0  0  0  0
   44.7760   27.0530   33.4040 O   0  0  0  0  0  0  0  0  0  0  0  0
   45.2290   26.4910   34.6270 C   0  0  0  0  0  0  0  0  0  0  0  0
   44.1740   25.6860   35.0890 O   0  0  0  0  0  0  0  0  0  0  0  0
   40.5290   28.0130   32.1870 H   0  0  0  0  0  0  0  0  0  0  0  0
   41.3120   25.3110   35.5140 H   0  0  0  0  0  0  0  0  0  0  0  0
   42.8550   28.2970   31.8450 H   0  0  0  0  0  0  0  0  0  0  0  0
   46.0520   25.7830   34.3160 H   0  0  0  0  0  0  0  0  0  0  0  0
   45.5870   27.2320   35.3470 H   0  0  0  0  0  0  0  0  0  0  0  0
   36.0010   28.8800   33.3700 C   0  0  0  0  0  0  0  0  0  0  0  0
   35.6300   29.1660   32.0630 C   0  0  0  0  0  0  0  0  0  0  0  0
   34.8960   30.3310   31.8480 C   0  0  0  0  0  0  0  0  0  0  0  0
   34.5830   31.1180   32.9100 N   0  0  0  0  0  0  0  0  0  0  0  0
   34.9570   30.8130   34.1660 C   0  0  0  0  0  0  0  0  0  0  0  0
   35.6590   29.7030   34.3840 N   0  0  0  0  0  0  0  0  0  0  0  0
   35.9540   28.4490   31.3550 H   0  0  0  0  0  0  0  0  0  0  0  0
   34.6240   30.5230   30.8240 H   0  0  0  0  0  0  0  0  0  0  0  0
   33.7090   31.2570   36.2350 C   0  0  0  0  0  3  0  0  0  0  0  0
   34.5900   31.7000   35.2670 C   0  0  0  0  0  0  0  0  0  0  0  0
   35.1370   32.9670   35.3110 C   0  0  0  0  0  0  0  0  0  0  0  0
   35.8240   33.3080   34.5550 H   0  0  0  0  0  0  0  0  0  0  0  0
   34.8190   33.8340   36.3290 C   0  0  0  0  0  0  0  0  0  0  0  0
   35.2060   35.0910   36.5960 N   0  0  0  0  0  0  0  0  0  0  0  0
   35.8580   35.7170   36.0750 H   0  0  0  0  0  0  0  0  0  0  0  0
   34.6230   35.5430   37.7220 C   0  0  0  0  0  0  0  0  0  0  0  0
   34.6650   36.4760   38.2700 H   0  0  0  0  0  0  0  0  0  0  0  0
   33.8290   34.4860   38.1660 C   0  0  0  0  0  3  0  0  0  0  0  0
   33.9450   33.4090   37.2990 C   0  0  0  0  0  0  0  0  0  0  0  0
   33.3860   32.1390   37.2690 C   0  0  0  0  0  3  0  0  0  0  0  0
  1  2  1  0  0  0  0
  2  3  1  0  0  0  0
  2  8  1  0  0  0  0
  2  7  1  0  0  0  0
  3  9  1  0  0  0  0
  4 11  1  1  0  0  0
  4  3  1  0  0  0  0
  5  6  1  0  0  0  0
  5  4  1  0  0  0  0
  6 14  1  0  0  0  0
  6  1  1  0  0  0  0
 10  3  1  0  0  0  0
 12  5  1  0  0  0  0
 13  5  1  0  0  0  0
 15  6  1  0  0  0  0
 16 17  1  0  0  0  0
 17  4  1  0  0  0  0
 17 18  2  0  0  0  0
 18 26  1  0  0  0  0
 19 18  1  0  0  0  0
 19 24  1  0  0  0  0
 20 19  2  0  0  0  0
 21 16  2  0  0  0  0
 21 20  1  0  0  0  0
 22 20  1  0  0  0  0
 22 23  1  0  0  0  0
 23 24  1  0  0  0  0
 23 29  1  0  0  0  0
 25 16  1  0  0  0  0
 27 21  1  0  0  0  0
 28 23  1  0  0  0  0
 30  1  1  0  0  0  0
 30 35  1  0  0  0  0
 31 30  2  0  0  0  0
 32 31  1  0  0  0  0
 32 33  2  0  0  0  0
 33 34  1  0  0  0  0
 34 35  2  0  0  0  0
 34 39  1  0  0  0  0
 36 31  1  0  0  0  0
 37 32  1  0  0  0  0
 38 49  1  0  0  0  0
 39 40  1  0  0  0  0
 39 38  2  0  0  0  0
 40 42  2  0  0  0  0
 41 40  1  0  0  0  0
 42 43  1  0  0  0  0
 42 48  1  0  0  0  0
 43 45  1  0  0  0  0
 44 43  1  0  0  0  0
 45 47  2  0  0  0  0
 45 46  1  0  0  0  0
 48 47  1  0  0  0  0
 49 48  2  0  0  0  0
M  END
>  <minimizedAffinity>
-6.6546998

$$$$

 OpenBabel03272507493D

 49 54  0  0  1  0  0  0  0  0999 V2000
   37.0250   28.2120   31.7510 N   0  0  0  0  0  0  0  0  0  0  0  0
   36.7710   29.3740   30.9680 C   0  0  0  0  0  0  0  0  0  0  0  0
   36.3170   30.5800   31.6990 C   0  0  0  0  0  0  0  0  0  0  0  0
   35.3990   30.3710   32.8190 C   0  0  1  0  0  0  0  0  0  0  0  0
   35.6910   29.0630   33.5760 C   0  0  0  0  0  0  0  0  0  0  0  0
   35.8390   27.9540   32.5180 C   0  0  0  0  0  0  0  0  0  0  0  0
   37.7110   29.5940   30.4060 H   0  0  0  0  0  0  0  0  0  0  0  0
   36.0310   29.0990   30.1630 H   0  0  0  0  0  0  0  0  0  0  0  0
   35.9190   31.3210   30.9860 H   0  0  0  0  0  0  0  0  0  0  0  0
   37.2930   30.9480   32.1600 H   0  0  0  0  0  0  0  0  0  0  0  0
   34.3260   30.2620   32.4960 H   0  0  0  0  0  0  0  0  0  0  0  0
   36.6240   29.1350   34.1490 H   0  0  0  0  0  0  0  0  0  0  0  0
   34.7990   28.8190   34.1590 H   0  0  0  0  0  0  0  0  0  0  0  0
   34.9080   27.9190   31.9280 H   0  0  0  0  0  0  0  0  0  0  0  0
   35.9820   26.9780   33.0220 H   0  0  0  0  0  0  0  0  0  0  0  0
   35.5640   31.0270   35.1750 C   0  0  0  0  0  0  0  0  0  0  0  0
   35.4360   31.4300   33.8560 C   0  0  0  0  0  0  0  0  0  0  0  0
   35.3170   32.7370   33.4630 C   0  0  0  0  0  0  0  0  0  0  0  0
   35.3250   33.7130   34.4560 C   0  0  0  0  0  0  0  0  0  0  0  0
   35.4510   33.3210   35.7690 C   0  0  0  0  0  0  0  0  0  0  0  0
   35.5730   31.9930   36.1690 C   0  0  0  0  0  0  0  0  0  0  0  0
   35.4380   34.4390   36.6140 O   0  0  0  0  0  0  0  0  0  0  0  0
   35.6270   35.5480   35.7460 C   0  0  0  0  0  0  0  0  0  0  0  0
   35.2320   35.1060   34.4720 O   0  0  0  0  0  0  0  0  0  0  0  0
   35.6770   30.0400   35.5990 H   0  0  0  0  0  0  0  0  0  0  0  0
   35.2200   33.0090   32.4430 H   0  0  0  0  0  0  0  0  0  0  0  0
   35.6710   31.7510   37.2360 H   0  0  0  0  0  0  0  0  0  0  0  0
   34.8440   36.2920   36.0770 H   0  0  0  0  0  0  0  0  0  0  0  0
   36.6320   35.9760   35.7900 H   0  0  0  0  0  0  0  0  0  0  0  0
   38.2190   27.4230   31.7920 C   0  0  0  0  0  0  0  0  0  0  0  0
   39.2090   27.3940   30.8190 C   0  0  0  0  0  0  0  0  0  0  0  0
   40.3020   26.5590   31.0450 C   0  0  0  0  0  0  0  0  0  0  0  0
   40.3460   25.8250   32.1880 N   0  0  0  0  0  0  0  0  0  0  0  0
   39.3700   25.8760   33.1120 C   0  0  0  0  0  0  0  0  0  0  0  0
   38.3200   26.6700   32.9080 N   0  0  0  0  0  0  0  0  0  0  0  0
   39.0200   28.0260   29.9920 H   0  0  0  0  0  0  0  0  0  0  0  0
   41.0510   26.5600   30.2720 H   0  0  0  0  0  0  0  0  0  0  0  0
   40.5620   24.2270   34.4900 C   0  0  0  0  0  3  0  0  0  0  0  0
   39.4740   25.0630   34.3210 C   0  0  0  0  0  0  0  0  0  0  0  0
   38.4760   25.1520   35.2710 C   0  0  0  0  0  0  0  0  0  0  0  0
   37.6300   25.8040   35.1360 H   0  0  0  0  0  0  0  0  0  0  0  0
   38.5340   24.4050   36.4230 C   0  0  0  0  0  0  0  0  0  0  0  0
   37.7120   24.3100   37.4790 N   0  0  0  0  0  0  0  0  0  0  0  0
   36.8100   24.7990   37.6720 H   0  0  0  0  0  0  0  0  0  0  0  0
   38.1890   23.4340   38.3820 C   0  0  0  0  0  0  0  0  0  0  0  0
   37.8410   23.0780   39.3440 H   0  0  0  0  0  0  0  0  0  0  0  0
   39.3830   22.9660   37.8350 C   0  0  0  0  0  3  0  0  0  0  0  0
   39.6090   23.5700   36.6050 C   0  0  0  0  0  0  0  0  0  0  0  0
   40.6210   23.4680   35.6610 C   0  0  0  0  0  3  0  0  0  0  0  0
  1 30  1  0  0  0  0
  1  6  1  0  0  0  0
  2  3  1  0  0  0  0
  2  1  1  0  0  0  0
  3 10  1  0  0  0  0
  3  4  1  0  0  0  0
  4 11  1  6  0  0  0
  4  5  1  0  0  0  0
  4 17  1  0  0  0  0
  5 12  1  0  0  0  0
  5 13  1  0  0  0  0
  6 15  1  0  0  0  0
  6  5  1  0  0  0  0
  7  2  1  0  0  0  0
  8  2  1  0  0  0  0
  9  3  1  0  0  0  0
 14  6  1  0  0  0  0
 16 25  1  0  0  0  0
 16 21  1  0  0  0  0
 17 16  2  0  0  0  0
 18 17  1  0  0  0  0
 18 19  2  0  0  0  0
 19 24  1  0  0  0  0
 19 20  1  0  0  0  0
 20 21  2  0  0  0  0
 20 22  1  0  0  0  0
 21 27  1  0  0  0  0
 23 29  1  0  0  0  0
 23 28  1  0  0  0  0
 23 22  1  0  0  0  0
 24 23  1  0  0  0  0
 26 18  1  0  0  0  0
 30 35  1  0  0  0  0
 31 32  1  0  0  0  0
 31 30  2  0  0  0  0
 32 33  2  0  0  0  0
 33 34  1  0  0  0  0
 34 39  1  0  0  0  0
 35 34  2  0  0  0  0
 36 31  1  0  0  0  0
 37 32  1  0  0  0  0
 38 49  1  0  0  0  0
 39 38  2  0  0  0  0
 39 40  1  0  0  0  0
 40 42  2  0  0  0  0
 41 40  1  0  0  0  0
 42 48  1  0  0  0  0
 42 43  1  0  0  0  0
 43 44  1  0  0  0  0
 43 45  1  0  0  0  0
 45 46  1  0  0  0  0
 47 45  2  0  0  0  0
 48 47  1  0  0  0  0
 49 48  2  0  0  0  0
M  END
>  <minimizedAffinity>
-6.63589907

$$$$

 OpenBabel03272507493D

 49 54  0  0  1  0  0  0  0  0999 V2000
   38.2370   26.6920   32.1730 N   0  0  0  0  0  0  0  0  0  0  0  0
   39.2090   26.0010   31.3970 C   0  0  0  0  0  0  0  0  0  0  0  0
   39.0410   24.5340   31.2750 C   0  0  0  0  0  0  0  0  0  0  0  0
   38.5710   23.8200   32.4620 C   0  0  1  0  0  0  0  0  0  0  0  0
   37.5760   24.6540   33.2880 C   0  0  0  0  0  0  0  0  0  0  0  0
   38.1940   26.0530   33.4580 C   0  0  0  0  0  0  0  0  0  0  0  0
   39.2070   26.4760   30.3840 H   0  0  0  0  0  0  0  0  0  0  0  0
   40.2290   26.2480   31.8090 H   0  0  0  0  0  0  0  0  0  0  0  0
   39.9650   24.0840   30.8750 H   0  0  0  0  0  0  0  0  0  0  0  0
   38.1950   24.4640   30.5130 H   0  0  0  0  0  0  0  0  0  0  0  0
   39.3950   23.5830   33.1910 H   0  0  0  0  0  0  0  0  0  0  0  0
   36.6130   24.7510   32.7710 H   0  0  0  0  0  0  0  0  0  0  0  0
   37.5310   24.2110   34.2860 H   0  0  0  0  0  0  0  0  0  0  0  0
   39.1760   25.9350   33.9460 H   0  0  0  0  0  0  0  0  0  0  0  0
   37.5430   26.6700   34.1090 H   0  0  0  0  0  0  0  0  0  0  0  0
   38.0280   21.9920   30.9210 C   0  0  0  0  0  0  0  0  0  0  0  0
   37.8620   22.5480   32.1790 C   0  0  0  0  0  0  0  0  0  0  0  0
   37.0700   22.0070   33.1570 C   0  0  0  0  0  0  0  0  0  0  0  0
   36.3920   20.8280   32.8590 C   0  0  0  0  0  0  0  0  0  0  0  0
   36.5490   20.2700   31.6120 C   0  0  0  0  0  0  0  0  0  0  0  0
   37.3550   20.8190   30.6180 C   0  0  0  0  0  0  0  0  0  0  0  0
   35.7910   19.0970   31.5050 O   0  0  0  0  0  0  0  0  0  0  0  0
   35.4230   18.7830   32.8410 C   0  0  0  0  0  0  0  0  0  0  0  0
   35.5180   19.9900   33.5540 O   0  0  0  0  0  0  0  0  0  0  0  0
   38.6280   22.3170   30.0840 H   0  0  0  0  0  0  0  0  0  0  0  0
   36.9680   22.4610   34.1090 H   0  0  0  0  0  0  0  0  0  0  0  0
   37.4350   20.3190   29.6420 H   0  0  0  0  0  0  0  0  0  0  0  0
   34.3210   18.5450   32.7720 H   0  0  0  0  0  0  0  0  0  0  0  0
   35.9870   17.9520   33.2700 H   0  0  0  0  0  0  0  0  0  0  0  0
   37.4360   27.8130   31.7850 C   0  0  0  0  0  0  0  0  0  0  0  0
   37.3780   28.3710   30.5150 C   0  0  0  0  0  0  0  0  0  0  0  0
   36.5310   29.4640   30.3360 C   0  0  0  0  0  0  0  0  0  0  0  0
   35.8140   29.9230   31.3950 N   0  0  0  0  0  0  0  0  0  0  0  0
   35.8910   29.3590   32.6140 C   0  0  0  0  0  0  0  0  0  0  0  0
   36.6970   28.3150   32.7980 N   0  0  0  0  0  0  0  0  0  0  0  0
   38.0000   27.8940   29.8050 H   0  0  0  0  0  0  0  0  0  0  0  0
   36.5090   29.8730   29.3400 H   0  0  0  0  0  0  0  0  0  0  0  0
   33.7610   29.5540   33.8220 C   0  0  0  0  0  3  0  0  0  0  0  0
   35.0950   29.8980   33.7130 C   0  0  0  0  0  0  0  0  0  0  0  0
   35.7000   30.7440   34.6210 C   0  0  0  0  0  0  0  0  0  0  0  0
   36.7400   31.0090   34.5330 H   0  0  0  0  0  0  0  0  0  0  0  0
   34.9880   31.2740   35.6700 C   0  0  0  0  0  0  0  0  0  0  0  0
   35.3350   32.1020   36.6680 N   0  0  0  0  0  0  0  0  0  0  0  0
   36.2540   32.5460   36.8810 H   0  0  0  0  0  0  0  0  0  0  0  0
   34.2840   32.3480   37.4730 C   0  0  0  0  0  0  0  0  0  0  0  0
   34.1430   32.9460   38.3650 H   0  0  0  0  0  0  0  0  0  0  0  0
   33.2300   31.6200   36.9240 C   0  0  0  0  0  3  0  0  0  0  0  0
   33.6620   30.9420   35.7920 C   0  0  0  0  0  0  0  0  0  0  0  0
   33.0380   30.0930   34.8890 C   0  0  0  0  0  3  0  0  0  0  0  0
  1  6  1  0  0  0  0
  2  8  1  0  0  0  0
  2  1  1  0  0  0  0
  3  2  1  0  0  0  0
  3  4  1  0  0  0  0
  4 11  1  1  0  0  0
  4  5  1  0  0  0  0
  5  6  1  0  0  0  0
  5 13  1  0  0  0  0
  6 14  1  0  0  0  0
  6 15  1  0  0  0  0
  7  2  1  0  0  0  0
  9  3  1  0  0  0  0
 10  3  1  0  0  0  0
 12  5  1  0  0  0  0
 16 17  1  0  0  0  0
 17  4  1  0  0  0  0
 17 18  2  0  0  0  0
 18 26  1  0  0  0  0
 19 18  1  0  0  0  0
 19 24  1  0  0  0  0
 20 19  2  0  0  0  0
 21 16  2  0  0  0  0
 21 20  1  0  0  0  0
 22 20  1  0  0  0  0
 22 23  1  0  0  0  0
 23 29  1  0  0  0  0
 23 24  1  0  0  0  0
 25 16  1  0  0  0  0
 27 21  1  0  0  0  0
 28 23  1  0  0  0  0
 30  1  1  0  0  0  0
 30 35  1  0  0  0  0
 31 30  2  0  0  0  0
 32 31  1  0  0  0  0
 32 33  2  0  0  0  0
 33 34  1  0  0  0  0
 34 35  2  0  0  0  0
 34 39  1  0  0  0  0
 36 31  1  0  0  0  0
 37 32  1  0  0  0  0
 38 49  1  0  0  0  0
 39 38  2  0  0  0  0
 39 40  1  0  0  0  0
 40 42  2  0  0  0  0
 41 40  1  0  0  0  0
 42 48  1  0  0  0  0
 42 43  1  0  0  0  0
 43 44  1  0  0  0  0
 43 45  1  0  0  0  0
 45 46  1  0  0  0  0
 47 45  2  0  0  0  0
 48 47  1  0  0  0  0
 49 48  2  0  0  0  0
M  END
>  <minimizedAffinity>
-6.58235788

$$$$

 OpenBabel03272507493D

 49 54  0  0  1  0  0  0  0  0999 V2000
   36.2630   27.5870   32.5830 N   0  0  0  0  0  0  0  0  0  0  0  0
   36.7800   28.2740   33.7180 C   0  0  0  0  0  0  0  0  0  0  0  0
   35.8080   29.0510   34.5230 C   0  0  0  0  0  0  0  0  0  0  0  0
   34.7580   29.7600   33.7910 C   0  0  1  0  0  0  0  0  0  0  0  0
   34.2970   28.9890   32.5410 C   0  0  0  0  0  0  0  0  0  0  0  0
   35.5670   28.5560   31.7860 C   0  0  0  0  0  0  0  0  0  0  0  0
   37.2840   27.5070   34.3560 H   0  0  0  0  0  0  0  0  0  0  0  0
   37.6250   28.9360   33.3730 H   0  0  0  0  0  0  0  0  0  0  0  0
   36.3470   29.7280   35.2080 H   0  0  0  0  0  0  0  0  0  0  0  0
   35.2810   28.2240   35.1040 H   0  0  0  0  0  0  0  0  0  0  0  0
   35.0950   30.7540   33.3860 H   0  0  0  0  0  0  0  0  0  0  0  0
   33.7230   28.0960   32.8140 H   0  0  0  0  0  0  0  0  0  0  0  0
   33.7790   29.7020   31.8940 H   0  0  0  0  0  0  0  0  0  0  0  0
   36.1500   29.4620   31.5510 H   0  0  0  0  0  0  0  0  0  0  0  0
   35.2830   28.0570   30.8390 H   0  0  0  0  0  0  0  0  0  0  0  0
   33.6140   30.8310   35.6770 C   0  0  0  0  0  0  0  0  0  0  0  0
   33.5190   30.0050   34.5690 C   0  0  0  0  0  0  0  0  0  0  0  0
   32.3620   29.3880   34.1700 C   0  0  0  0  0  0  0  0  0  0  0  0
   31.2180   29.6100   34.9310 C   0  0  0  0  0  0  0  0  0  0  0  0
   31.3040   30.4270   36.0340 C   0  0  0  0  0  0  0  0  0  0  0  0
   32.4790   31.0550   36.4390 C   0  0  0  0  0  0  0  0  0  0  0  0
   30.0570   30.5240   36.6660 O   0  0  0  0  0  0  0  0  0  0  0  0
   29.1340   29.9990   35.7230 C   0  0  0  0  0  0  0  0  0  0  0  0
   29.8900   29.1830   34.8640 O   0  0  0  0  0  0  0  0  0  0  0  0
   34.4580   31.3740   36.0760 H   0  0  0  0  0  0  0  0  0  0  0  0
   32.3270   28.7630   33.3150 H   0  0  0  0  0  0  0  0  0  0  0  0
   32.4760   31.6960   37.3320 H   0  0  0  0  0  0  0  0  0  0  0  0
   28.4880   29.3010   36.3310 H   0  0  0  0  0  0  0  0  0  0  0  0
   28.5360   30.7620   35.2190 H   0  0  0  0  0  0  0  0  0  0  0  0
   36.3920   26.1980   32.2630 C   0  0  0  0  0  0  0  0  0  0  0  0
   35.7180   25.5310   31.2480 C   0  0  0  0  0  0  0  0  0  0  0  0
   35.9820   24.1710   31.0920 C   0  0  0  0  0  0  0  0  0  0  0  0
   36.8720   23.5730   31.9270 N   0  0  0  0  0  0  0  0  0  0  0  0
   37.5090   24.2470   32.9010 C   0  0  0  0  0  0  0  0  0  0  0  0
   37.2660   25.5470   33.0600 N   0  0  0  0  0  0  0  0  0  0  0  0
   35.0600   26.1440   30.6910 H   0  0  0  0  0  0  0  0  0  0  0  0
   35.4440   23.6840   30.2970 H   0  0  0  0  0  0  0  0  0  0  0  0
   39.3600   22.6610   33.2130 C   0  0  0  0  0  3  0  0  0  0  0  0
   38.4550   23.5480   33.7660 C   0  0  0  0  0  0  0  0  0  0  0  0
   38.4210   23.7920   35.1240 C   0  0  0  0  0  0  0  0  0  0  0  0
   37.7150   24.4840   35.5520 H   0  0  0  0  0  0  0  0  0  0  0  0
   39.2930   23.1560   35.9750 C   0  0  0  0  0  0  0  0  0  0  0  0
   39.4610   23.2180   37.3050 N   0  0  0  0  0  0  0  0  0  0  0  0
   38.9510   23.7810   38.0200 H   0  0  0  0  0  0  0  0  0  0  0  0
   40.4560   22.4020   37.7010 C   0  0  0  0  0  0  0  0  0  0  0  0
   40.8980   22.1620   38.6600 H   0  0  0  0  0  0  0  0  0  0  0  0
   40.9210   21.8050   36.5290 C   0  0  0  0  0  3  0  0  0  0  0  0
   40.1980   22.2730   35.4410 C   0  0  0  0  0  0  0  0  0  0  0  0
   40.2460   22.0150   34.0780 C   0  0  0  0  0  3  0  0  0  0  0  0
  1  2  1  0  0  0  0
  2  7  1  0  0  0  0
  2  3  1  0  0  0  0
  3 10  1  0  0  0  0
  3  9  1  0  0  0  0
  4 11  1  6  0  0  0
  4  3  1  0  0  0  0
  4 17  1  0  0  0  0
  5 12  1  0  0  0  0
  5  4  1  0  0  0  0
  6  5  1  0  0  0  0
  6  1  1  0  0  0  0
  8  2  1  0  0  0  0
 13  5  1  0  0  0  0
 14  6  1  0  0  0  0
 15  6  1  0  0  0  0
 16 25  1  0  0  0  0
 16 21  1  0  0  0  0
 17 16  2  0  0  0  0
 18 17  1  0  0  0  0
 18 19  2  0  0  0  0
 19 20  1  0  0  0  0
 20 21  2  0  0  0  0
 20 22  1  0  0  0  0
 21 27  1  0  0  0  0
 23 28  1  0  0  0  0
 23 22  1  0  0  0  0
 24 19  1  0  0  0  0
 24 23  1  0  0  0  0
 26 18  1  0  0  0  0
 29 23  1  0  0  0  0
 30  1  1  0  0  0  0
 30 35  1  0  0  0  0
 31 30  2  0  0  0  0
 32 31  1  0  0  0  0
 32 33  2  0  0  0  0
 33 34  1  0  0  0  0
 34 35  2  0  0  0  0
 34 39  1  0  0  0  0
 36 31  1  0  0  0  0
 37 32  1  0  0  0  0
 38 39  2  0  0  0  0
 38 49  1  0  0  0  0
 39 40  1  0  0  0  0
 40 41  1  0  0  0  0
 40 42  2  0  0  0  0
 42 43  1  0  0  0  0
 43 45  1  0  0  0  0
 43 44  1  0  0  0  0
 45 46  1  0  0  0  0
 47 45  2  0  0  0  0
 48 42  1  0  0  0  0
 48 47  1  0  0  0  0
 49 48  2  0  0  0  0
M  END
>  <minimizedAffinity>
-6.52218342

$$$$
