
 OpenBabel03272510283D

 48 53  0  0  1  0  0  0  0  0999 V2000
   38.5970   24.9120   32.4880 N   0  0  0  0  0  0  0  0  0  0  0  0
   38.3270   24.7990   31.0460 C   0  0  1  0  0  0  0  0  0  0  0  0
   36.9500   24.3560   30.8590 C   0  0  0  0  0  0  0  0  0  0  0  0
   36.8250   23.0560   31.3820 O   0  0  0  0  0  0  0  0  0  0  0  0
   37.1960   22.9130   32.6830 C   0  0  0  0  0  0  0  0  0  0  0  0
   38.5120   23.5680   33.0140 C   0  0  2  0  0  0  0  0  0  0  0  0
   39.5850   25.2210   32.5660 H   0  0  0  0  0  0  0  0  0  0  0  0
   39.0090   24.0930   30.5650 H   0  0  0  0  0  0  0  0  0  0  0  0
   36.0880   24.8590   31.1990 H   0  0  0  0  0  0  0  0  0  0  0  0
   36.8080   24.1920   29.7460 H   0  0  0  0  0  0  0  0  0  0  0  0
   37.3110   21.8380   32.8890 H   0  0  0  0  0  0  0  0  0  0  0  0
   36.3890   23.2760   33.3490 H   0  0  0  0  0  0  0  0  0  0  0  0
   39.3940   22.9480   32.7870 H   0  0  0  0  0  0  0  0  0  0  0  0
   37.9150   25.0130   34.9090 C   0  0  0  0  0  3  0  0  0  0  0  0
   38.4470   23.7870   34.5080 C   0  0  0  0  0  0  0  0  0  0  0  0
   38.8660   22.8850   35.4660 C   0  0  0  0  0  0  0  0  0  0  0  0
   39.2710   21.9530   35.1010 H   0  0  0  0  0  0  0  0  0  0  0  0
   38.7410   23.2340   36.8020 C   0  0  0  0  0  0  0  0  0  0  0  0
   39.0610   22.5640   37.9070 N   0  0  0  0  0  0  0  0  0  0  0  0
   39.4850   21.6060   37.9250 H   0  0  0  0  0  0  0  0  0  0  0  0
   38.7610   23.3000   38.9940 C   0  0  0  0  0  0  0  0  0  0  0  0
   38.9170   22.9950   40.0190 H   0  0  0  0  0  0  0  0  0  0  0  0
   38.2250   24.4890   38.5610 C   0  0  0  0  0  3  0  0  0  0  0  0
   38.2070   24.4650   37.1770 C   0  0  0  0  0  0  0  0  0  0  0  0
   37.7810   25.3800   36.2370 C   0  0  0  0  0  3  0  0  0  0  0  0
   38.5350   26.1190   30.5570 O   0  0  0  0  0  0  0  0  0  0  0  0
   34.9530   30.4000   32.4900 C   0  0  0  0  0  0  0  0  0  0  0  0
   35.3940   29.9260   33.7240 C   0  0  0  0  0  0  0  0  0  0  0  0
   36.2930   28.8720   33.8050 C   0  0  0  0  0  0  0  0  0  0  0  0
   36.7210   28.3280   32.6020 C   0  0  0  0  0  0  0  0  0  0  0  0
   37.5960   27.2910   32.4260 N   0  0  0  0  0  0  0  0  0  0  0  0
   37.7040   27.1150   31.0990 C   0  0  0  0  0  0  0  0  0  0  0  0
   36.9500   27.9770   30.4540 N   0  0  0  0  0  0  0  0  0  0  0  0
   36.3110   28.7640   31.3610 C   0  0  0  0  0  0  0  0  0  0  0  0
   35.4030   29.8300   31.3080 C   0  0  0  0  0  0  0  0  0  0  0  0
   34.2610   31.2110   32.3960 H   0  0  0  0  0  0  0  0  0  0  0  0
   36.6280   28.5140   34.7600 H   0  0  0  0  0  0  0  0  0  0  0  0
   38.0710   26.7610   33.1890 H   0  0  0  0  0  0  0  0  0  0  0  0
   35.0880   30.1670   30.3280 H   0  0  0  0  0  0  0  0  0  0  0  0
   34.9680   32.0030   36.8170 C   0  0  0  0  0  0  0  0  0  0  0  0
   35.5850   31.4370   35.7160 C   0  0  0  0  0  0  0  0  0  0  0  0
   34.8540   30.5810   34.8990 C   0  0  0  0  0  0  0  0  0  0  0  0
   33.5560   30.3460   35.2390 N   0  0  0  0  0  0  0  0  0  0  0  0
   32.9620   30.8980   36.3110 C   0  0  0  0  0  0  0  0  0  0  0  0
   33.6690   31.7180   37.0870 N   0  0  0  0  0  0  0  0  0  0  0  0
   35.6110   32.6590   37.4000 H   0  0  0  0  0  0  0  0  0  0  0  0
   36.6200   31.6320   35.4530 H   0  0  0  0  0  0  0  0  0  0  0  0
   31.9260   30.6870   36.5490 H   0  0  0  0  0  0  0  0  0  0  0  0
  1  7  1  0  0  0  0
  1  6  1  0  0  0  0
  2  8  1  6  0  0  0
  2  1  1  0  0  0  0
  3  2  1  0  0  0  0
  3  9  1  0  0  0  0
  3  4  1  0  0  0  0
  4  5  1  0  0  0  0
  5 11  1  0  0  0  0
  5  6  1  0  0  0  0
  5 12  1  0  0  0  0
  6 13  1  6  0  0  0
  6 15  1  0  0  0  0
 10  3  1  0  0  0  0
 14 25  1  0  0  0  0
 15 14  2  0  0  0  0
 15 16  1  0  0  0  0
 16 18  2  0  0  0  0
 17 16  1  0  0  0  0
 18 24  1  0  0  0  0
 18 19  1  0  0  0  0
 19 20  1  0  0  0  0
 19 21  1  0  0  0  0
 21 22  1  0  0  0  0
 23 21  2  0  0  0  0
 24 23  1  0  0  0  0
 25 24  2  0  0  0  0
 26  2  1  0  0  0  0
 26 32  1  0  0  0  0
 27 28  1  0  0  0  0
 28 29  2  0  0  0  0
 28 42  1  0  0  0  0
 29 37  1  0  0  0  0
 30 29  1  0  0  0  0
 31 30  1  0  0  0  0
 31 38  1  0  0  0  0
 32 31  1  0  0  0  0
 33 32  2  0  0  0  0
 33 34  1  0  0  0  0
 34 30  2  0  0  0  0
 35 34  1  0  0  0  0
 35 27  2  0  0  0  0
 36 27  1  0  0  0  0
 39 35  1  0  0  0  0
 40 45  1  0  0  0  0
 40 46  1  0  0  0  0
 41 40  2  0  0  0  0
 42 43  2  0  0  0  0
 42 41  1  0  0  0  0
 43 44  1  0  0  0  0
 44 48  1  0  0  0  0
 44 45  2  0  0  0  0
 47 41  1  0  0  0  0
M  END
>  <minimizedAffinity>
-7.25648642

$$$$

 OpenBabel03272510283D

 48 53  0  0  1  0  0  0  0  0999 V2000
   36.8520   28.9530   30.7950 N   0  0  0  0  0  0  0  0  0  0  0  0
   37.2340   28.6990   29.3980 C   0  0  1  0  0  0  0  0  0  0  0  0
   37.9630   29.8570   28.8920 C   0  0  0  0  0  0  0  0  0  0  0  0
   37.0870   30.9570   28.8630 O   0  0  0  0  0  0  0  0  0  0  0  0
   36.4860   31.2550   30.0460 C   0  0  0  0  0  0  0  0  0  0  0  0
   35.9160   30.0550   30.7570 C   0  0  2  0  0  0  0  0  0  0  0  0
   36.3340   28.1080   31.1030 H   0  0  0  0  0  0  0  0  0  0  0  0
   36.3590   28.5130   28.7700 H   0  0  0  0  0  0  0  0  0  0  0  0
   38.8580   30.2460   29.2910 H   0  0  0  0  0  0  0  0  0  0  0  0
   38.1600   29.6660   27.7920 H   0  0  0  0  0  0  0  0  0  0  0  0
   35.6450   31.9350   29.8400 H   0  0  0  0  0  0  0  0  0  0  0  0
   37.1880   31.8110   30.6980 H   0  0  0  0  0  0  0  0  0  0  0  0
   34.9080   29.7660   30.4190 H   0  0  0  0  0  0  0  0  0  0  0  0
   35.7730   29.4500   33.1330 C   0  0  0  0  0  3  0  0  0  0  0  0
   35.8360   30.4880   32.2030 C   0  0  0  0  0  0  0  0  0  0  0  0
   35.8210   31.7960   32.6440 C   0  0  0  0  0  0  0  0  0  0  0  0
   35.8710   32.5590   31.8810 H   0  0  0  0  0  0  0  0  0  0  0  0
   35.7440   32.0320   34.0080 C   0  0  0  0  0  0  0  0  0  0  0  0
   35.7130   33.1760   34.6900 N   0  0  0  0  0  0  0  0  0  0  0  0
   35.7450   34.1300   34.2600 H   0  0  0  0  0  0  0  0  0  0  0  0
   35.6330   32.9210   36.0100 C   0  0  0  0  0  0  0  0  0  0  0  0
   35.5950   33.6690   36.7890 H   0  0  0  0  0  0  0  0  0  0  0  0
   35.6140   31.5570   36.1740 C   0  0  0  0  0  3  0  0  0  0  0  0
   35.6810   30.9800   34.9180 C   0  0  0  0  0  0  0  0  0  0  0  0
   35.6960   29.6650   34.5000 C   0  0  0  0  0  3  0  0  0  0  0  0
   38.0590   27.5420   29.4750 O   0  0  0  0  0  0  0  0  0  0  0  0
   40.2540   26.3270   34.8220 C   0  0  0  0  0  0  0  0  0  0  0  0
   39.1620   25.4610   34.8450 C   0  0  0  0  0  0  0  0  0  0  0  0
   38.2950   25.3760   33.7650 C   0  0  0  0  0  0  0  0  0  0  0  0
   38.5780   26.1910   32.6780 C   0  0  0  0  0  0  0  0  0  0  0  0
   37.8750   26.2830   31.5070 N   0  0  0  0  0  0  0  0  0  0  0  0
   38.5150   27.1950   30.7580 C   0  0  0  0  0  0  0  0  0  0  0  0
   39.5630   27.6670   31.3980 N   0  0  0  0  0  0  0  0  0  0  0  0
   39.6440   27.0600   32.6120 C   0  0  0  0  0  0  0  0  0  0  0  0
   40.5040   27.1270   33.7170 C   0  0  0  0  0  0  0  0  0  0  0  0
   40.9400   26.4150   35.6400 H   0  0  0  0  0  0  0  0  0  0  0  0
   37.4580   24.7050   33.7910 H   0  0  0  0  0  0  0  0  0  0  0  0
   37.0160   25.7410   31.2700 H   0  0  0  0  0  0  0  0  0  0  0  0
   41.3400   27.8120   33.6570 H   0  0  0  0  0  0  0  0  0  0  0  0
   37.9310   24.1290   38.1280 C   0  0  0  0  0  0  0  0  0  0  0  0
   38.0070   24.9390   37.0090 C   0  0  0  0  0  0  0  0  0  0  0  0
   38.9820   24.6780   36.0520 C   0  0  0  0  0  0  0  0  0  0  0  0
   39.8170   23.6260   36.2780 N   0  0  0  0  0  0  0  0  0  0  0  0
   39.7380   22.8410   37.3670 C   0  0  0  0  0  0  0  0  0  0  0  0
   38.8010   23.0980   38.2780 N   0  0  0  0  0  0  0  0  0  0  0  0
   37.1410   24.4030   38.8230 H   0  0  0  0  0  0  0  0  0  0  0  0
   37.3370   25.7760   36.8380 H   0  0  0  0  0  0  0  0  0  0  0  0
   40.4200   22.0110   37.5110 H   0  0  0  0  0  0  0  0  0  0  0  0
  1  7  1  0  0  0  0
  2  8  1  6  0  0  0
  2 26  1  0  0  0  0
  2  1  1  0  0  0  0
  3  9  1  0  0  0  0
  3  2  1  0  0  0  0
  4  3  1  0  0  0  0
  4  5  1  0  0  0  0
  5 12  1  0  0  0  0
  5  6  1  0  0  0  0
  6 13  1  6  0  0  0
  6  1  1  0  0  0  0
  6 15  1  0  0  0  0
 10  3  1  0  0  0  0
 11  5  1  0  0  0  0
 14 25  1  0  0  0  0
 15 16  1  0  0  0  0
 15 14  2  0  0  0  0
 16 18  2  0  0  0  0
 17 16  1  0  0  0  0
 18 19  1  0  0  0  0
 18 24  1  0  0  0  0
 19 21  1  0  0  0  0
 20 19  1  0  0  0  0
 21 23  2  0  0  0  0
 21 22  1  0  0  0  0
 24 23  1  0  0  0  0
 25 24  2  0  0  0  0
 26 32  1  0  0  0  0
 27 28  1  0  0  0  0
 27 36  1  0  0  0  0
 28 42  1  0  0  0  0
 29 37  1  0  0  0  0
 29 28  2  0  0  0  0
 30 29  1  0  0  0  0
 31 30  1  0  0  0  0
 32 33  2  0  0  0  0
 32 31  1  0  0  0  0
 33 34  1  0  0  0  0
 34 30  2  0  0  0  0
 34 35  1  0  0  0  0
 35 27  2  0  0  0  0
 38 31  1  0  0  0  0
 39 35  1  0  0  0  0
 40 45  1  0  0  0  0
 40 46  1  0  0  0  0
 41 40  2  0  0  0  0
 42 43  2  0  0  0  0
 42 41  1  0  0  0  0
 43 44  1  0  0  0  0
 44 48  1  0  0  0  0
 44 45  2  0  0  0  0
 47 41  1  0  0  0  0
M  END
>  <minimizedAffinity>
-6.99818659

$$$$

 OpenBabel03272510283D

 48 53  0  0  1  0  0  0  0  0999 V2000
   37.2020   25.5920   32.5550 N   0  0  0  0  0  0  0  0  0  0  0  0
   37.0690   25.4690   31.0950 C   0  0  1  0  0  0  0  0  0  0  0  0
   36.8650   24.0650   30.7580 C   0  0  0  0  0  0  0  0  0  0  0  0
   38.0250   23.3500   31.1060 O   0  0  0  0  0  0  0  0  0  0  0  0
   38.4210   23.4740   32.4010 C   0  0  0  0  0  0  0  0  0  0  0  0
   38.4200   24.8950   32.9030 C   0  0  2  0  0  0  0  0  0  0  0  0
   37.3510   26.6020   32.7400 H   0  0  0  0  0  0  0  0  0  0  0  0
   37.9550   25.8460   30.5790 H   0  0  0  0  0  0  0  0  0  0  0  0
   36.0720   23.4580   31.0960 H   0  0  0  0  0  0  0  0  0  0  0  0
   36.8590   23.9980   29.6260 H   0  0  0  0  0  0  0  0  0  0  0  0
   39.4550   23.1060   32.4790 H   0  0  0  0  0  0  0  0  0  0  0  0
   37.8040   22.8200   33.0480 H   0  0  0  0  0  0  0  0  0  0  0  0
   39.3350   25.4580   32.6630 H   0  0  0  0  0  0  0  0  0  0  0  0
   38.2250   25.9530   35.1110 C   0  0  0  0  0  3  0  0  0  0  0  0
   38.3190   24.7540   34.4040 C   0  0  0  0  0  0  0  0  0  0  0  0
   38.3140   23.5580   35.0950 C   0  0  0  0  0  0  0  0  0  0  0  0
   38.3900   22.6610   34.4990 H   0  0  0  0  0  0  0  0  0  0  0  0
   38.2150   23.5940   36.4780 C   0  0  0  0  0  0  0  0  0  0  0  0
   38.1890   22.6070   37.3710 N   0  0  0  0  0  0  0  0  0  0  0  0
   38.2430   21.5870   37.1380 H   0  0  0  0  0  0  0  0  0  0  0  0
   38.0830   23.1150   38.6140 C   0  0  0  0  0  0  0  0  0  0  0  0
   38.0400   22.5350   39.5240 H   0  0  0  0  0  0  0  0  0  0  0  0
   38.0400   24.4850   38.5050 C   0  0  0  0  0  3  0  0  0  0  0  0
   38.1240   24.8040   37.1610 C   0  0  0  0  0  0  0  0  0  0  0  0
   38.1260   26.0100   36.4910 C   0  0  0  0  0  3  0  0  0  0  0  0
   35.9280   26.2630   30.7900 O   0  0  0  0  0  0  0  0  0  0  0  0
   36.1450   31.9090   32.5120 C   0  0  0  0  0  0  0  0  0  0  0  0
   35.6010   31.3590   33.6720 C   0  0  0  0  0  0  0  0  0  0  0  0
   35.3490   29.9980   33.7670 C   0  0  0  0  0  0  0  0  0  0  0  0
   35.6660   29.2300   32.6560 C   0  0  0  0  0  0  0  0  0  0  0  0
   35.5080   27.8770   32.5110 N   0  0  0  0  0  0  0  0  0  0  0  0
   35.9450   27.5810   31.2770 C   0  0  0  0  0  0  0  0  0  0  0  0
   36.3580   28.6650   30.6580 N   0  0  0  0  0  0  0  0  0  0  0  0
   36.2020   29.7300   31.4910 C   0  0  0  0  0  0  0  0  0  0  0  0
   36.4480   31.1080   31.4210 C   0  0  0  0  0  0  0  0  0  0  0  0
   36.3510   32.9540   32.4090 H   0  0  0  0  0  0  0  0  0  0  0  0
   34.9310   29.5840   34.6650 H   0  0  0  0  0  0  0  0  0  0  0  0
   35.1220   27.2310   33.2330 H   0  0  0  0  0  0  0  0  0  0  0  0
   36.8710   31.4920   30.5010 H   0  0  0  0  0  0  0  0  0  0  0  0
   34.8600   32.8700   37.0240 C   0  0  0  0  0  0  0  0  0  0  0  0
   35.1450   31.9020   36.0770 C   0  0  0  0  0  0  0  0  0  0  0  0
   35.3080   32.2830   34.7500 C   0  0  0  0  0  0  0  0  0  0  0  0
   35.1760   33.6070   34.4570 N   0  0  0  0  0  0  0  0  0  0  0  0
   34.9000   34.5440   35.3810 C   0  0  0  0  0  0  0  0  0  0  0  0
   34.7450   34.1700   36.6500 N   0  0  0  0  0  0  0  0  0  0  0  0
   34.7480   32.4850   38.0350 H   0  0  0  0  0  0  0  0  0  0  0  0
   35.2480   30.8480   36.3210 H   0  0  0  0  0  0  0  0  0  0  0  0
   34.8030   35.5880   35.1090 H   0  0  0  0  0  0  0  0  0  0  0  0
  1  7  1  0  0  0  0
  1  6  1  0  0  0  0
  2  8  1  6  0  0  0
  2  1  1  0  0  0  0
  3  2  1  0  0  0  0
  3  9  1  0  0  0  0
  3  4  1  0  0  0  0
  4  5  1  0  0  0  0
  5 11  1  0  0  0  0
  5  6  1  0  0  0  0
  5 12  1  0  0  0  0
  6 13  1  6  0  0  0
  6 15  1  0  0  0  0
 10  3  1  0  0  0  0
 14 25  1  0  0  0  0
 15 16  1  0  0  0  0
 15 14  2  0  0  0  0
 16 18  2  0  0  0  0
 17 16  1  0  0  0  0
 18 24  1  0  0  0  0
 18 19  1  0  0  0  0
 19 21  1  0  0  0  0
 20 19  1  0  0  0  0
 21 22  1  0  0  0  0
 23 21  2  0  0  0  0
 24 23  1  0  0  0  0
 25 24  2  0  0  0  0
 26  2  1  0  0  0  0
 26 32  1  0  0  0  0
 27 28  1  0  0  0  0
 28 29  2  0  0  0  0
 28 42  1  0  0  0  0
 29 37  1  0  0  0  0
 30 29  1  0  0  0  0
 31 30  1  0  0  0  0
 31 38  1  0  0  0  0
 32 31  1  0  0  0  0
 33 32  2  0  0  0  0
 33 34  1  0  0  0  0
 34 30  2  0  0  0  0
 35 34  1  0  0  0  0
 35 27  2  0  0  0  0
 36 27  1  0  0  0  0
 39 35  1  0  0  0  0
 40 46  1  0  0  0  0
 41 47  1  0  0  0  0
 41 40  2  0  0  0  0
 42 41  1  0  0  0  0
 43 42  2  0  0  0  0
 43 44  1  0  0  0  0
 44 45  2  0  0  0  0
 45 40  1  0  0  0  0
 48 44  1  0  0  0  0
M  END
>  <minimizedAffinity>
-6.96822309

$$$$

 OpenBabel03272510283D

 48 53  0  0  1  0  0  0  0  0999 V2000
   37.3030   28.9720   30.9920 N   0  0  0  0  0  0  0  0  0  0  0  0
   37.7490   28.7000   29.6170 C   0  0  1  0  0  0  0  0  0  0  0  0
   38.2180   29.9460   29.0190 C   0  0  0  0  0  0  0  0  0  0  0  0
   37.1260   30.8250   28.9080 O   0  0  0  0  0  0  0  0  0  0  0  0
   36.4590   31.0760   30.0670 C   0  0  0  0  0  0  0  0  0  0  0  0
   36.1530   29.8400   30.8720 C   0  0  2  0  0  0  0  0  0  0  0  0
   36.9750   28.0610   31.3670 H   0  0  0  0  0  0  0  0  0  0  0  0
   36.9430   28.2820   29.0090 H   0  0  0  0  0  0  0  0  0  0  0  0
   39.0030   30.5480   29.3840 H   0  0  0  0  0  0  0  0  0  0  0  0
   38.4660   29.7160   27.9370 H   0  0  0  0  0  0  0  0  0  0  0  0
   35.4950   31.5410   29.8120 H   0  0  0  0  0  0  0  0  0  0  0  0
   37.0170   31.8190   30.6700 H   0  0  0  0  0  0  0  0  0  0  0  0
   35.2350   29.3150   30.5610 H   0  0  0  0  0  0  0  0  0  0  0  0
   35.8430   29.3740   33.2630 C   0  0  0  0  0  3  0  0  0  0  0  0
   35.9620   30.3560   32.2800 C   0  0  0  0  0  0  0  0  0  0  0  0
   35.9010   31.6870   32.6400 C   0  0  0  0  0  0  0  0  0  0  0  0
   35.9980   32.4050   31.8390 H   0  0  0  0  0  0  0  0  0  0  0  0
   35.7220   32.0020   33.9780 C   0  0  0  0  0  0  0  0  0  0  0  0
   35.6290   33.1820   34.5870 N   0  0  0  0  0  0  0  0  0  0  0  0
   35.6820   34.1110   34.1040 H   0  0  0  0  0  0  0  0  0  0  0  0
   35.4560   33.0050   35.9100 C   0  0  0  0  0  0  0  0  0  0  0  0
   35.3520   33.7960   36.6390 H   0  0  0  0  0  0  0  0  0  0  0  0
   35.4390   31.6520   36.1540 C   0  0  0  0  0  3  0  0  0  0  0  0
   35.6040   31.0030   34.9430 C   0  0  0  0  0  0  0  0  0  0  0  0
   35.6630   29.6670   34.6050 C   0  0  0  0  0  3  0  0  0  0  0  0
   38.8030   27.7580   29.7820 O   0  0  0  0  0  0  0  0  0  0  0  0
   37.8250   23.5010   33.7580 C   0  0  0  0  0  0  0  0  0  0  0  0
   38.5640   24.3690   34.5610 C   0  0  0  0  0  0  0  0  0  0  0  0
   39.0470   25.5700   34.0600 C   0  0  0  0  0  0  0  0  0  0  0  0
   38.7530   25.8490   32.7330 C   0  0  0  0  0  0  0  0  0  0  0  0
   39.1180   26.9600   32.0200 N   0  0  0  0  0  0  0  0  0  0  0  0
   38.6160   26.7930   30.7860 C   0  0  0  0  0  0  0  0  0  0  0  0
   37.9700   25.6510   30.6990 N   0  0  0  0  0  0  0  0  0  0  0  0
   38.0290   25.0220   31.9040 C   0  0  0  0  0  0  0  0  0  0  0  0
   37.5530   23.8160   32.4350 C   0  0  0  0  0  0  0  0  0  0  0  0
   37.4410   22.5690   34.1160 H   0  0  0  0  0  0  0  0  0  0  0  0
   39.6140   26.2320   34.6860 H   0  0  0  0  0  0  0  0  0  0  0  0
   39.6740   27.7620   32.3890 H   0  0  0  0  0  0  0  0  0  0  0  0
   36.9840   23.1720   31.7770 H   0  0  0  0  0  0  0  0  0  0  0  0
   39.9960   22.7790   37.6410 C   0  0  0  0  0  0  0  0  0  0  0  0
   39.8670   23.1310   36.3090 C   0  0  0  0  0  0  0  0  0  0  0  0
   38.8050   23.9410   35.9250 C   0  0  0  0  0  0  0  0  0  0  0  0
   37.9410   24.3450   36.8980 N   0  0  0  0  0  0  0  0  0  0  0  0
   38.0710   24.0010   38.1910 C   0  0  0  0  0  0  0  0  0  0  0  0
   39.0920   23.2240   38.5500 N   0  0  0  0  0  0  0  0  0  0  0  0
   40.8540   22.1450   37.8530 H   0  0  0  0  0  0  0  0  0  0  0  0
   40.5620   22.8040   35.5410 H   0  0  0  0  0  0  0  0  0  0  0  0
   37.3630   24.3430   38.9370 H   0  0  0  0  0  0  0  0  0  0  0  0
  1  7  1  0  0  0  0
  2  8  1  6  0  0  0
  2 26  1  0  0  0  0
  2  1  1  0  0  0  0
  3  9  1  0  0  0  0
  3  2  1  0  0  0  0
  4  3  1  0  0  0  0
  4  5  1  0  0  0  0
  5 12  1  0  0  0  0
  5  6  1  0  0  0  0
  6 13  1  6  0  0  0
  6  1  1  0  0  0  0
  6 15  1  0  0  0  0
 10  3  1  0  0  0  0
 11  5  1  0  0  0  0
 14 25  1  0  0  0  0
 15 16  1  0  0  0  0
 15 14  2  0  0  0  0
 16 18  2  0  0  0  0
 17 16  1  0  0  0  0
 18 19  1  0  0  0  0
 18 24  1  0  0  0  0
 19 21  1  0  0  0  0
 20 19  1  0  0  0  0
 21 23  2  0  0  0  0
 21 22  1  0  0  0  0
 24 23  1  0  0  0  0
 25 24  2  0  0  0  0
 26 32  1  0  0  0  0
 27 36  1  0  0  0  0
 27 28  1  0  0  0  0
 28 42  1  0  0  0  0
 29 28  2  0  0  0  0
 29 37  1  0  0  0  0
 30 29  1  0  0  0  0
 31 38  1  0  0  0  0
 31 30  1  0  0  0  0
 32 31  1  0  0  0  0
 33 32  2  0  0  0  0
 33 34  1  0  0  0  0
 34 35  1  0  0  0  0
 34 30  2  0  0  0  0
 35 27  2  0  0  0  0
 39 35  1  0  0  0  0
 40 46  1  0  0  0  0
 40 45  1  0  0  0  0
 41 40  2  0  0  0  0
 42 41  1  0  0  0  0
 42 43  2  0  0  0  0
 43 44  1  0  0  0  0
 44 45  2  0  0  0  0
 44 48  1  0  0  0  0
 47 41  1  0  0  0  0
M  END
>  <minimizedAffinity>
-6.66843176

$$$$

 OpenBabel03272510283D

 48 53  0  0  1  0  0  0  0  0999 V2000
   34.2820   30.8320   34.0630 N   0  0  0  0  0  0  0  0  0  0  0  0
   34.0960   30.0280   32.8460 C   0  0  1  0  0  0  0  0  0  0  0  0
   33.1940   30.7370   31.9460 C   0  0  0  0  0  0  0  0  0  0  0  0
   31.9290   30.8180   32.5570 O   0  0  0  0  0  0  0  0  0  0  0  0
   31.9130   31.3890   33.7920 C   0  0  0  0  0  0  0  0  0  0  0  0
   32.9910   30.8760   34.7120 C   0  0  2  0  0  0  0  0  0  0  0  0
   34.9230   30.2840   34.6690 H   0  0  0  0  0  0  0  0  0  0  0  0
   33.6860   29.0420   33.0770 H   0  0  0  0  0  0  0  0  0  0  0  0
   33.3530   31.6990   31.5450 H   0  0  0  0  0  0  0  0  0  0  0  0
   33.0020   30.0490   31.0660 H   0  0  0  0  0  0  0  0  0  0  0  0
   30.9480   31.1530   34.2650 H   0  0  0  0  0  0  0  0  0  0  0  0
   31.9570   32.4920   33.6990 H   0  0  0  0  0  0  0  0  0  0  0  0
   32.7290   29.9440   35.2370 H   0  0  0  0  0  0  0  0  0  0  0  0
   34.4180   32.0590   36.3240 C   0  0  0  0  0  3  0  0  0  0  0  0
   33.1560   31.9770   35.7340 C   0  0  0  0  0  0  0  0  0  0  0  0
   32.1740   32.8720   36.1080 C   0  0  0  0  0  0  0  0  0  0  0  0
   31.2160   32.7630   35.6210 H   0  0  0  0  0  0  0  0  0  0  0  0
   32.4810   33.8290   37.0640 C   0  0  0  0  0  0  0  0  0  0  0  0
   31.7340   34.7950   37.5950 N   0  0  0  0  0  0  0  0  0  0  0  0
   30.7330   34.9830   37.3480 H   0  0  0  0  0  0  0  0  0  0  0  0
   32.4550   35.4900   38.4950 C   0  0  0  0  0  0  0  0  0  0  0  0
   32.0930   36.3280   39.0730 H   0  0  0  0  0  0  0  0  0  0  0  0
   33.7150   34.9430   38.5370 C   0  0  0  0  0  3  0  0  0  0  0  0
   33.7480   33.8910   37.6390 C   0  0  0  0  0  0  0  0  0  0  0  0
   34.7440   33.0070   37.2800 C   0  0  0  0  0  3  0  0  0  0  0  0
   35.4090   29.9180   32.3080 O   0  0  0  0  0  0  0  0  0  0  0  0
   38.6460   25.1750   33.6930 C   0  0  0  0  0  0  0  0  0  0  0  0
   38.1540   25.4690   34.9640 C   0  0  0  0  0  0  0  0  0  0  0  0
   37.3060   26.5470   35.1700 C   0  0  0  0  0  0  0  0  0  0  0  0
   36.9810   27.3030   34.0520 C   0  0  0  0  0  0  0  0  0  0  0  0
   36.1710   28.4050   34.0040 N   0  0  0  0  0  0  0  0  0  0  0  0
   36.1540   28.8000   32.7210 C   0  0  0  0  0  0  0  0  0  0  0  0
   36.9030   28.0110   31.9830 N   0  0  0  0  0  0  0  0  0  0  0  0
   37.4440   27.0500   32.7800 C   0  0  0  0  0  0  0  0  0  0  0  0
   38.2990   25.9550   32.6000 C   0  0  0  0  0  0  0  0  0  0  0  0
   39.3020   24.3510   33.5030 H   0  0  0  0  0  0  0  0  0  0  0  0
   36.9310   26.7650   36.1520 H   0  0  0  0  0  0  0  0  0  0  0  0
   35.6770   28.8310   34.8190 H   0  0  0  0  0  0  0  0  0  0  0  0
   38.6580   25.7630   31.5960 H   0  0  0  0  0  0  0  0  0  0  0  0
   39.9790   22.9330   37.0380 C   0  0  0  0  0  0  0  0  0  0  0  0
   39.6580   23.7200   35.9470 C   0  0  0  0  0  0  0  0  0  0  0  0
   38.5870   24.6010   36.0420 C   0  0  0  0  0  0  0  0  0  0  0  0
   37.9070   24.6370   37.2220 N   0  0  0  0  0  0  0  0  0  0  0  0
   38.2240   23.8700   38.2800 C   0  0  0  0  0  0  0  0  0  0  0  0
   39.2510   23.0290   38.1800 N   0  0  0  0  0  0  0  0  0  0  0  0
   40.8290   22.2730   36.8780 H   0  0  0  0  0  0  0  0  0  0  0  0
   40.2070   23.6830   35.0100 H   0  0  0  0  0  0  0  0  0  0  0  0
   37.6580   23.9280   39.2030 H   0  0  0  0  0  0  0  0  0  0  0  0
  1  7  1  0  0  0  0
  1  6  1  0  0  0  0
  2  8  1  1  0  0  0
  2  1  1  0  0  0  0
  3  4  1  0  0  0  0
  3  2  1  0  0  0  0
  4  5  1  0  0  0  0
  5 11  1  0  0  0  0
  5  6  1  0  0  0  0
  6 13  1  1  0  0  0
  6 15  1  0  0  0  0
  9  3  1  0  0  0  0
 10  3  1  0  0  0  0
 12  5  1  0  0  0  0
 14 25  1  0  0  0  0
 15 16  1  0  0  0  0
 15 14  2  0  0  0  0
 16 18  2  0  0  0  0
 17 16  1  0  0  0  0
 18 19  1  0  0  0  0
 18 24  1  0  0  0  0
 19 21  1  0  0  0  0
 20 19  1  0  0  0  0
 21 23  2  0  0  0  0
 21 22  1  0  0  0  0
 24 23  1  0  0  0  0
 25 24  2  0  0  0  0
 26 32  1  0  0  0  0
 26  2  1  0  0  0  0
 27 28  1  0  0  0  0
 28 29  2  0  0  0  0
 28 42  1  0  0  0  0
 29 37  1  0  0  0  0
 30 29  1  0  0  0  0
 31 30  1  0  0  0  0
 31 38  1  0  0  0  0
 32 31  1  0  0  0  0
 33 32  2  0  0  0  0
 33 34  1  0  0  0  0
 34 30  2  0  0  0  0
 35 34  1  0  0  0  0
 35 27  2  0  0  0  0
 36 27  1  0  0  0  0
 39 35  1  0  0  0  0
 40 45  1  0  0  0  0
 41 42  1  0  0  0  0
 41 40  2  0  0  0  0
 42 43  2  0  0  0  0
 43 44  1  0  0  0  0
 44 48  1  0  0  0  0
 45 44  2  0  0  0  0
 46 40  1  0  0  0  0
 47 41  1  0  0  0  0
M  END
>  <minimizedAffinity>
-6.65024233

$$$$

 OpenBabel03272510283D

 48 53  0  0  1  0  0  0  0  0999 V2000
   35.7370   29.3300   34.4070 N   0  0  0  0  0  0  0  0  0  0  0  0
   35.8710   28.3020   33.3650 C   0  0  1  0  0  0  0  0  0  0  0  0
   35.3810   28.8450   32.1020 C   0  0  0  0  0  0  0  0  0  0  0  0
   34.0020   29.0940   32.2300 O   0  0  0  0  0  0  0  0  0  0  0  0
   33.6490   29.9040   33.2640 C   0  0  0  0  0  0  0  0  0  0  0  0
   34.3170   29.5510   34.5680 C   0  0  2  0  0  0  0  0  0  0  0  0
   36.0900   28.8940   35.2800 H   0  0  0  0  0  0  0  0  0  0  0  0
   35.3100   27.3990   33.6180 H   0  0  0  0  0  0  0  0  0  0  0  0
   35.7560   29.6980   31.6100 H   0  0  0  0  0  0  0  0  0  0  0  0
   35.4130   27.9990   31.3480 H   0  0  0  0  0  0  0  0  0  0  0  0
   32.5650   29.8040   33.4210 H   0  0  0  0  0  0  0  0  0  0  0  0
   33.8320   30.9620   32.9940 H   0  0  0  0  0  0  0  0  0  0  0  0
   33.8080   28.7550   35.1340 H   0  0  0  0  0  0  0  0  0  0  0  0
   35.4900   31.4140   35.6560 C   0  0  0  0  0  3  0  0  0  0  0  0
   34.2560   30.8300   35.3700 C   0  0  0  0  0  0  0  0  0  0  0  0
   33.0990   31.4340   35.8210 C   0  0  0  0  0  0  0  0  0  0  0  0
   32.1720   30.9390   35.5720 H   0  0  0  0  0  0  0  0  0  0  0  0
   33.2080   32.6100   36.5480 C   0  0  0  0  0  0  0  0  0  0  0  0
   32.2710   33.3840   37.0910 N   0  0  0  0  0  0  0  0  0  0  0  0
   31.2400   33.2000   37.0440 H   0  0  0  0  0  0  0  0  0  0  0  0
   32.8440   34.4330   37.7110 C   0  0  0  0  0  0  0  0  0  0  0  0
   32.3130   35.2160   38.2340 H   0  0  0  0  0  0  0  0  0  0  0  0
   34.2050   34.3220   37.5540 C   0  0  0  0  0  3  0  0  0  0  0  0
   34.4520   33.1740   36.8220 C   0  0  0  0  0  0  0  0  0  0  0  0
   35.6200   32.5880   36.3800 C   0  0  0  0  0  3  0  0  0  0  0  0
   37.2690   28.0380   33.3250 O   0  0  0  0  0  0  0  0  0  0  0  0
   38.8640   23.6060   36.8890 C   0  0  0  0  0  0  0  0  0  0  0  0
   39.8980   23.5070   35.9600 C   0  0  0  0  0  0  0  0  0  0  0  0
   39.9710   24.3720   34.8770 C   0  0  0  0  0  0  0  0  0  0  0  0
   38.9690   25.3260   34.7780 C   0  0  0  0  0  0  0  0  0  0  0  0
   38.8260   26.2810   33.8060 N   0  0  0  0  0  0  0  0  0  0  0  0
   37.7170   26.9690   34.1200 C   0  0  0  0  0  0  0  0  0  0  0  0
   37.1720   26.4960   35.2190 N   0  0  0  0  0  0  0  0  0  0  0  0
   37.9280   25.4590   35.6700 C   0  0  0  0  0  0  0  0  0  0  0  0
   37.8790   24.5730   36.7550 C   0  0  0  0  0  0  0  0  0  0  0  0
   38.7810   22.9530   37.7330 H   0  0  0  0  0  0  0  0  0  0  0  0
   40.7720   24.2890   34.1680 H   0  0  0  0  0  0  0  0  0  0  0  0
   39.4680   26.4220   32.9960 H   0  0  0  0  0  0  0  0  0  0  0  0
   37.0580   24.6850   37.4520 H   0  0  0  0  0  0  0  0  0  0  0  0
   42.0750   20.8810   37.5190 C   0  0  0  0  0  0  0  0  0  0  0  0
   41.1180   21.8760   37.4220 C   0  0  0  0  0  0  0  0  0  0  0  0
   40.8700   22.4550   36.1820 C   0  0  0  0  0  0  0  0  0  0  0  0
   41.5950   22.0010   35.1220 N   0  0  0  0  0  0  0  0  0  0  0  0
   42.5240   21.0330   35.2220 C   0  0  0  0  0  0  0  0  0  0  0  0
   42.7550   20.4850   36.4130 N   0  0  0  0  0  0  0  0  0  0  0  0
   42.2050   20.4840   38.5230 H   0  0  0  0  0  0  0  0  0  0  0  0
   40.5450   22.2300   38.2740 H   0  0  0  0  0  0  0  0  0  0  0  0
   43.0810   20.6990   34.3540 H   0  0  0  0  0  0  0  0  0  0  0  0
  1  6  1  0  0  0  0
  1  7  1  0  0  0  0
  2  8  1  1  0  0  0
  2  1  1  0  0  0  0
  3  4  1  0  0  0  0
  3  2  1  0  0  0  0
  4  5  1  0  0  0  0
  5 11  1  0  0  0  0
  5  6  1  0  0  0  0
  6 13  1  1  0  0  0
  6 15  1  0  0  0  0
  9  3  1  0  0  0  0
 10  3  1  0  0  0  0
 12  5  1  0  0  0  0
 14 25  1  0  0  0  0
 15 14  2  0  0  0  0
 15 16  1  0  0  0  0
 16 18  2  0  0  0  0
 17 16  1  0  0  0  0
 18 24  1  0  0  0  0
 18 19  1  0  0  0  0
 19 21  1  0  0  0  0
 20 19  1  0  0  0  0
 21 22  1  0  0  0  0
 23 21  2  0  0  0  0
 24 23  1  0  0  0  0
 25 24  2  0  0  0  0
 26  2  1  0  0  0  0
 26 32  1  0  0  0  0
 27 36  1  0  0  0  0
 28 42  1  0  0  0  0
 28 27  2  0  0  0  0
 29 28  1  0  0  0  0
 30 29  2  0  0  0  0
 30 34  1  0  0  0  0
 31 32  1  0  0  0  0
 31 30  1  0  0  0  0
 32 33  2  0  0  0  0
 33 34  1  0  0  0  0
 34 35  2  0  0  0  0
 35 27  1  0  0  0  0
 35 39  1  0  0  0  0
 37 29  1  0  0  0  0
 38 31  1  0  0  0  0
 40 46  1  0  0  0  0
 41 40  1  0  0  0  0
 41 47  1  0  0  0  0
 42 41  2  0  0  0  0
 43 44  2  0  0  0  0
 43 42  1  0  0  0  0
 44 45  1  0  0  0  0
 45 40  2  0  0  0  0
 48 44  1  0  0  0  0
M  END
>  <minimizedAffinity>
-6.63303757

$$$$

 OpenBabel03272510283D

 48 53  0  0  1  0  0  0  0  0999 V2000
   39.0300   23.9760   34.8880 N   0  0  0  0  0  0  0  0  0  0  0  0
   40.1720   24.6310   35.5450 C   0  0  1  0  0  0  0  0  0  0  0  0
   41.2760   23.6800   35.6280 C   0  0  0  0  0  0  0  0  0  0  0  0
   40.8910   22.6250   36.4750 O   0  0  0  0  0  0  0  0  0  0  0  0
   39.7420   21.9870   36.1280 C   0  0  0  0  0  0  0  0  0  0  0  0
   38.6100   22.9210   35.7830 C   0  0  2  0  0  0  0  0  0  0  0  0
   38.2750   24.6870   34.8610 H   0  0  0  0  0  0  0  0  0  0  0  0
   39.9120   24.9800   36.5470 H   0  0  0  0  0  0  0  0  0  0  0  0
   41.7430   23.2040   34.8120 H   0  0  0  0  0  0  0  0  0  0  0  0
   42.1000   24.1870   36.2190 H   0  0  0  0  0  0  0  0  0  0  0  0
   39.4110   21.3860   36.9880 H   0  0  0  0  0  0  0  0  0  0  0  0
   39.9390   21.2750   35.3020 H   0  0  0  0  0  0  0  0  0  0  0  0
   38.0410   23.2810   36.6550 H   0  0  0  0  0  0  0  0  0  0  0  0
   36.6120   21.5040   35.5870 C   0  0  0  0  0  3  0  0  0  0  0  0
   37.6930   22.0830   34.9210 C   0  0  0  0  0  0  0  0  0  0  0  0
   37.8520   21.8640   33.5670 C   0  0  0  0  0  0  0  0  0  0  0  0
   38.7050   22.3350   33.1020 H   0  0  0  0  0  0  0  0  0  0  0  0
   36.9220   21.0680   32.9130 C   0  0  0  0  0  0  0  0  0  0  0  0
   36.8410   20.7020   31.6360 N   0  0  0  0  0  0  0  0  0  0  0  0
   37.5180   20.9830   30.8880 H   0  0  0  0  0  0  0  0  0  0  0  0
   35.7620   19.9160   31.4520 C   0  0  0  0  0  0  0  0  0  0  0  0
   35.4590   19.4810   30.5100 H   0  0  0  0  0  0  0  0  0  0  0  0
   35.1300   19.7790   32.6640 C   0  0  0  0  0  3  0  0  0  0  0  0
   35.8520   20.5000   33.6000 C   0  0  0  0  0  0  0  0  0  0  0  0
   35.6740   20.7070   34.9520 C   0  0  0  0  0  3  0  0  0  0  0  0
   40.4740   25.7260   34.6880 O   0  0  0  0  0  0  0  0  0  0  0  0
   35.9640   28.5200   32.0930 C   0  0  0  0  0  0  0  0  0  0  0  0
   35.6210   28.7630   33.4220 C   0  0  0  0  0  0  0  0  0  0  0  0
   36.4080   28.2870   34.4610 C   0  0  0  0  0  0  0  0  0  0  0  0
   37.5390   27.5680   34.1030 C   0  0  0  0  0  0  0  0  0  0  0  0
   38.4610   27.0020   34.9420 N   0  0  0  0  0  0  0  0  0  0  0  0
   39.3710   26.4110   34.1510 C   0  0  0  0  0  0  0  0  0  0  0  0
   39.0630   26.5780   32.8840 N   0  0  0  0  0  0  0  0  0  0  0  0
   37.9150   27.3040   32.8050 C   0  0  0  0  0  0  0  0  0  0  0  0
   37.1030   27.7960   31.7740 C   0  0  0  0  0  0  0  0  0  0  0  0
   35.3770   28.8740   31.2700 H   0  0  0  0  0  0  0  0  0  0  0  0
   36.1360   28.4800   35.4810 H   0  0  0  0  0  0  0  0  0  0  0  0
   38.4370   27.0390   35.9840 H   0  0  0  0  0  0  0  0  0  0  0  0
   37.4070   27.5850   30.7570 H   0  0  0  0  0  0  0  0  0  0  0  0
   32.9850   31.0010   34.8730 C   0  0  0  0  0  0  0  0  0  0  0  0
   34.1890   30.3300   34.7560 C   0  0  0  0  0  0  0  0  0  0  0  0
   34.4040   29.5180   33.6480 C   0  0  0  0  0  0  0  0  0  0  0  0
   33.4000   29.4290   32.7320 N   0  0  0  0  0  0  0  0  0  0  0  0
   32.2320   30.0840   32.8500 C   0  0  0  0  0  0  0  0  0  0  0  0
   32.0350   30.8600   33.9140 N   0  0  0  0  0  0  0  0  0  0  0  0
   32.9010   31.6140   35.7680 H   0  0  0  0  0  0  0  0  0  0  0  0
   34.9830   30.4080   35.4930 H   0  0  0  0  0  0  0  0  0  0  0  0
   31.4570   29.9880   32.0990 H   0  0  0  0  0  0  0  0  0  0  0  0
  1  2  1  0  0  0  0
  1  6  1  0  0  0  0
  2  3  1  0  0  0  0
  2  8  1  1  0  0  0
  3 10  1  0  0  0  0
  3  4  1  0  0  0  0
  5  4  1  0  0  0  0
  5 11  1  0  0  0  0
  6  5  1  0  0  0  0
  6 13  1  1  0  0  0
  7  1  1  0  0  0  0
  9  3  1  0  0  0  0
 12  5  1  0  0  0  0
 15 14  2  0  0  0  0
 15  6  1  0  0  0  0
 16 15  1  0  0  0  0
 17 16  1  0  0  0  0
 18 16  2  0  0  0  0
 18 24  1  0  0  0  0
 19 18  1  0  0  0  0
 20 19  1  0  0  0  0
 21 19  1  0  0  0  0
 21 23  2  0  0  0  0
 22 21  1  0  0  0  0
 23 24  1  0  0  0  0
 24 25  2  0  0  0  0
 25 14  1  0  0  0  0
 26  2  1  0  0  0  0
 27 28  1  0  0  0  0
 28 42  1  0  0  0  0
 28 29  2  0  0  0  0
 29 37  1  0  0  0  0
 30 29  1  0  0  0  0
 30 31  1  0  0  0  0
 31 38  1  0  0  0  0
 32 26  1  0  0  0  0
 32 31  1  0  0  0  0
 33 32  2  0  0  0  0
 34 33  1  0  0  0  0
 34 30  2  0  0  0  0
 35 27  2  0  0  0  0
 35 34  1  0  0  0  0
 36 27  1  0  0  0  0
 39 35  1  0  0  0  0
 40 46  1  0  0  0  0
 41 40  1  0  0  0  0
 41 47  1  0  0  0  0
 42 41  2  0  0  0  0
 43 44  2  0  0  0  0
 43 42  1  0  0  0  0
 44 45  1  0  0  0  0
 45 40  2  0  0  0  0
 48 44  1  0  0  0  0
M  END
>  <minimizedAffinity>
-6.56225634

$$$$

 OpenBabel03272510283D

 48 53  0  0  1  0  0  0  0  0999 V2000
   37.8500   27.7130   32.3380 N   0  0  0  0  0  0  0  0  0  0  0  0
   38.0540   28.1890   30.9610 C   0  0  1  0  0  0  0  0  0  0  0  0
   38.4000   27.0510   30.1170 C   0  0  0  0  0  0  0  0  0  0  0  0
   39.6410   26.5420   30.5420 O   0  0  0  0  0  0  0  0  0  0  0  0
   39.7100   26.1970   31.8560 C   0  0  0  0  0  0  0  0  0  0  0  0
   39.1370   27.2330   32.7880 C   0  0  2  0  0  0  0  0  0  0  0  0
   37.6140   28.5560   32.8950 H   0  0  0  0  0  0  0  0  0  0  0  0
   38.8470   28.9390   30.9100 H   0  0  0  0  0  0  0  0  0  0  0  0
   37.8060   26.1940   29.9610 H   0  0  0  0  0  0  0  0  0  0  0  0
   38.6400   27.4660   29.0900 H   0  0  0  0  0  0  0  0  0  0  0  0
   40.7710   26.0770   32.1220 H   0  0  0  0  0  0  0  0  0  0  0  0
   39.2330   25.2090   32.0120 H   0  0  0  0  0  0  0  0  0  0  0  0
   39.8400   28.0380   33.0540 H   0  0  0  0  0  0  0  0  0  0  0  0
   38.6640   27.2180   35.1980 C   0  0  0  0  0  3  0  0  0  0  0  0
   38.7970   26.4540   34.0380 C   0  0  0  0  0  0  0  0  0  0  0  0
   38.6160   25.0870   34.1020 C   0  0  0  0  0  0  0  0  0  0  0  0
   38.7310   24.5450   33.1750 H   0  0  0  0  0  0  0  0  0  0  0  0
   38.3060   24.5190   35.3280 C   0  0  0  0  0  0  0  0  0  0  0  0
   38.0840   23.2500   35.6640 N   0  0  0  0  0  0  0  0  0  0  0  0
   38.1150   22.4400   35.0000 H   0  0  0  0  0  0  0  0  0  0  0  0
   37.8180   23.1630   36.9810 C   0  0  0  0  0  0  0  0  0  0  0  0
   37.6000   22.2500   37.5160 H   0  0  0  0  0  0  0  0  0  0  0  0
   37.8710   24.4330   37.5050 C   0  0  0  0  0  3  0  0  0  0  0  0
   38.1800   25.3020   36.4730 C   0  0  0  0  0  0  0  0  0  0  0  0
   38.3560   26.6690   36.4320 C   0  0  0  0  0  3  0  0  0  0  0  0
   36.7970   28.7530   30.6070 O   0  0  0  0  0  0  0  0  0  0  0  0
   33.2800   30.3560   35.0730 C   0  0  0  0  0  0  0  0  0  0  0  0
   34.0610   31.5080   35.0010 C   0  0  0  0  0  0  0  0  0  0  0  0
   35.0770   31.6250   34.0630 C   0  0  0  0  0  0  0  0  0  0  0  0
   35.2650   30.5420   33.2150 C   0  0  0  0  0  0  0  0  0  0  0  0
   36.1960   30.4220   32.2190 N   0  0  0  0  0  0  0  0  0  0  0  0
   36.0030   29.2110   31.6730 C   0  0  0  0  0  0  0  0  0  0  0  0
   35.0160   28.5830   32.2730 N   0  0  0  0  0  0  0  0  0  0  0  0
   34.5190   29.3860   33.2510 C   0  0  0  0  0  0  0  0  0  0  0  0
   33.4980   29.2940   34.2080 C   0  0  0  0  0  0  0  0  0  0  0  0
   32.4900   30.2370   35.7860 H   0  0  0  0  0  0  0  0  0  0  0  0
   35.6720   32.5160   34.0140 H   0  0  0  0  0  0  0  0  0  0  0  0
   36.9010   31.1450   31.9570 H   0  0  0  0  0  0  0  0  0  0  0  0
   32.9160   28.3810   34.2290 H   0  0  0  0  0  0  0  0  0  0  0  0
   34.2300   33.9570   37.8360 C   0  0  0  0  0  0  0  0  0  0  0  0
   34.6240   32.9490   36.9740 C   0  0  0  0  0  0  0  0  0  0  0  0
   33.7600   32.5540   35.9580 C   0  0  0  0  0  0  0  0  0  0  0  0
   32.5590   33.1920   35.8730 N   0  0  0  0  0  0  0  0  0  0  0  0
   32.1820   34.1710   36.7140 C   0  0  0  0  0  0  0  0  0  0  0  0
   33.0150   34.5430   37.6830 N   0  0  0  0  0  0  0  0  0  0  0  0
   34.9650   34.2030   38.5990 H   0  0  0  0  0  0  0  0  0  0  0  0
   35.5840   32.4470   37.0500 H   0  0  0  0  0  0  0  0  0  0  0  0
   31.2170   34.6560   36.6130 H   0  0  0  0  0  0  0  0  0  0  0  0
  1  6  1  0  0  0  0
  1  7  1  0  0  0  0
  2  8  1  6  0  0  0
  2  1  1  0  0  0  0
  3  4  1  0  0  0  0
  3  2  1  0  0  0  0
  4  5  1  0  0  0  0
  5 12  1  0  0  0  0
  5 11  1  0  0  0  0
  5  6  1  0  0  0  0
  6 13  1  1  0  0  0
  6 15  1  0  0  0  0
  9  3  1  0  0  0  0
 10  3  1  0  0  0  0
 14 25  1  0  0  0  0
 15 16  1  0  0  0  0
 15 14  2  0  0  0  0
 16 18  2  0  0  0  0
 17 16  1  0  0  0  0
 18 19  1  0  0  0  0
 18 24  1  0  0  0  0
 19 21  1  0  0  0  0
 20 19  1  0  0  0  0
 21 23  2  0  0  0  0
 21 22  1  0  0  0  0
 24 23  1  0  0  0  0
 25 24  2  0  0  0  0
 26  2  1  0  0  0  0
 26 32  1  0  0  0  0
 27 36  1  0  0  0  0
 28 27  1  0  0  0  0
 28 42  1  0  0  0  0
 29 28  2  0  0  0  0
 30 34  2  0  0  0  0
 30 29  1  0  0  0  0
 31 30  1  0  0  0  0
 32 31  1  0  0  0  0
 32 33  2  0  0  0  0
 33 34  1  0  0  0  0
 34 35  1  0  0  0  0
 35 39  1  0  0  0  0
 35 27  2  0  0  0  0
 37 29  1  0  0  0  0
 38 31  1  0  0  0  0
 40 46  1  0  0  0  0
 41 47  1  0  0  0  0
 41 40  2  0  0  0  0
 42 41  1  0  0  0  0
 43 42  2  0  0  0  0
 43 44  1  0  0  0  0
 44 45  2  0  0  0  0
 45 40  1  0  0  0  0
 48 44  1  0  0  0  0
M  END
>  <minimizedAffinity>
-6.48426104

$$$$

 OpenBabel03272510283D

 48 53  0  0  1  0  0  0  0  0999 V2000
   35.3710   28.3860   32.1460 N   0  0  0  0  0  0  0  0  0  0  0  0
   36.0940   27.9120   30.9560 C   0  0  1  0  0  0  0  0  0  0  0  0
   37.4060   28.5480   30.9190 C   0  0  0  0  0  0  0  0  0  0  0  0
   37.2260   29.9310   30.7420 O   0  0  0  0  0  0  0  0  0  0  0  0
   36.4310   30.5390   31.6620 C   0  0  0  0  0  0  0  0  0  0  0  0
   35.1470   29.7990   31.9390 C   0  0  2  0  0  0  0  0  0  0  0  0
   34.4470   27.9120   32.1220 H   0  0  0  0  0  0  0  0  0  0  0  0
   35.5480   28.1420   30.0380 H   0  0  0  0  0  0  0  0  0  0  0  0
   38.1490   28.4740   31.6640 H   0  0  0  0  0  0  0  0  0  0  0  0
   37.8950   28.2320   29.9460 H   0  0  0  0  0  0  0  0  0  0  0  0
   36.1520   31.5300   31.2720 H   0  0  0  0  0  0  0  0  0  0  0  0
   37.0000   30.7170   32.5950 H   0  0  0  0  0  0  0  0  0  0  0  0
   34.3370   30.0180   31.2260 H   0  0  0  0  0  0  0  0  0  0  0  0
   35.5820   31.2250   33.8910 C   0  0  0  0  0  3  0  0  0  0  0  0
   34.7310   30.2860   33.3080 C   0  0  0  0  0  0  0  0  0  0  0  0
   33.6040   29.8760   33.9920 C   0  0  0  0  0  0  0  0  0  0  0  0
   32.9810   29.1470   33.4940 H   0  0  0  0  0  0  0  0  0  0  0  0
   33.3580   30.4170   35.2450 C   0  0  0  0  0  0  0  0  0  0  0  0
   32.3630   30.2000   36.1020 N   0  0  0  0  0  0  0  0  0  0  0  0
   31.5660   29.5400   35.9410 H   0  0  0  0  0  0  0  0  0  0  0  0
   32.5360   30.9530   37.2060 C   0  0  0  0  0  0  0  0  0  0  0  0
   31.8740   30.9710   38.0600 H   0  0  0  0  0  0  0  0  0  0  0  0
   33.6900   31.6810   37.0410 C   0  0  0  0  0  3  0  0  0  0  0  0
   34.2230   31.3530   35.8070 C   0  0  0  0  0  0  0  0  0  0  0  0
   35.3540   31.7770   35.1410 C   0  0  0  0  0  3  0  0  0  0  0  0
   36.1870   26.5060   31.1530 O   0  0  0  0  0  0  0  0  0  0  0  0
   38.9180   24.9840   36.1640 C   0  0  0  0  0  0  0  0  0  0  0  0
   39.6180   24.1570   35.2870 C   0  0  0  0  0  0  0  0  0  0  0  0
   39.3310   24.1490   33.9300 C   0  0  0  0  0  0  0  0  0  0  0  0
   38.3220   25.0020   33.5050 C   0  0  0  0  0  0  0  0  0  0  0  0
   37.8630   25.1690   32.2260 N   0  0  0  0  0  0  0  0  0  0  0  0
   36.8870   26.0880   32.2980 C   0  0  0  0  0  0  0  0  0  0  0  0
   36.7200   26.4910   33.5380 N   0  0  0  0  0  0  0  0  0  0  0  0
   37.6050   25.8340   34.3350 C   0  0  0  0  0  0  0  0  0  0  0  0
   37.9150   25.8230   35.7020 C   0  0  0  0  0  0  0  0  0  0  0  0
   39.1170   25.0120   37.2160 H   0  0  0  0  0  0  0  0  0  0  0  0
   39.8760   23.5090   33.2620 H   0  0  0  0  0  0  0  0  0  0  0  0
   38.2190   24.6690   31.3830 H   0  0  0  0  0  0  0  0  0  0  0  0
   37.3470   26.4810   36.3460 H   0  0  0  0  0  0  0  0  0  0  0  0
   41.4250   21.5290   37.2610 C   0  0  0  0  0  0  0  0  0  0  0  0
   40.3710   22.2710   36.7580 C   0  0  0  0  0  0  0  0  0  0  0  0
   40.6380   23.3090   35.8730 C   0  0  0  0  0  0  0  0  0  0  0  0
   41.9420   23.5370   35.5490 N   0  0  0  0  0  0  0  0  0  0  0  0
   42.9620   22.8130   36.0400 C   0  0  0  0  0  0  0  0  0  0  0  0
   42.6970   21.8210   36.8880 N   0  0  0  0  0  0  0  0  0  0  0  0
   41.1270   20.7380   37.9450 H   0  0  0  0  0  0  0  0  0  0  0  0
   39.3350   22.0800   37.0220 H   0  0  0  0  0  0  0  0  0  0  0  0
   43.9870   23.0250   35.7580 H   0  0  0  0  0  0  0  0  0  0  0  0
  2  8  1  6  0  0  0
  2 26  1  0  0  0  0
  2  1  1  0  0  0  0
  3  2  1  0  0  0  0
  3  9  1  0  0  0  0
  4  3  1  0  0  0  0
  4  5  1  0  0  0  0
  5  6  1  0  0  0  0
  5 12  1  0  0  0  0
  6 13  1  6  0  0  0
  6  1  1  0  0  0  0
  6 15  1  0  0  0  0
  7  1  1  0  0  0  0
 10  3  1  0  0  0  0
 11  5  1  0  0  0  0
 14 25  1  0  0  0  0
 15 14  2  0  0  0  0
 15 16  1  0  0  0  0
 16 18  2  0  0  0  0
 17 16  1  0  0  0  0
 18 24  1  0  0  0  0
 18 19  1  0  0  0  0
 19 21  1  0  0  0  0
 20 19  1  0  0  0  0
 21 22  1  0  0  0  0
 23 21  2  0  0  0  0
 24 23  1  0  0  0  0
 25 24  2  0  0  0  0
 26 32  1  0  0  0  0
 27 36  1  0  0  0  0
 28 42  1  0  0  0  0
 28 27  2  0  0  0  0
 29 28  1  0  0  0  0
 30 29  2  0  0  0  0
 30 34  1  0  0  0  0
 31 32  1  0  0  0  0
 31 30  1  0  0  0  0
 32 33  2  0  0  0  0
 33 34  1  0  0  0  0
 34 35  2  0  0  0  0
 35 27  1  0  0  0  0
 35 39  1  0  0  0  0
 37 29  1  0  0  0  0
 38 31  1  0  0  0  0
 40 46  1  0  0  0  0
 41 47  1  0  0  0  0
 41 40  2  0  0  0  0
 42 41  1  0  0  0  0
 43 42  2  0  0  0  0
 43 44  1  0  0  0  0
 44 45  2  0  0  0  0
 45 40  1  0  0  0  0
 48 44  1  0  0  0  0
M  END
>  <minimizedAffinity>
-6.48219442

$$$$
