
 OpenBabel03272510253D

 48 53  0  0  1  0  0  0  0  0999 V2000
   39.6890   31.8640   41.8300 N   0  0  0  0  0  0  0  0  0  0  0  0
   39.2990   33.2770   41.9490 C   0  0  1  0  0  0  0  0  0  0  0  0
   37.8980   33.4120   41.5680 C   0  0  0  0  0  0  0  0  0  0  0  0
   37.7730   33.0860   40.2050 O   0  0  0  0  0  0  0  0  0  0  0  0
   38.2440   31.8600   39.8540 C   0  0  0  0  0  0  0  0  0  0  0  0
   39.6040   31.5450   40.4230 C   0  0  2  0  0  0  0  0  0  0  0  0
   40.6890   31.8230   42.1040 H   0  0  0  0  0  0  0  0  0  0  0  0
   39.9160   33.9170   41.3140 H   0  0  0  0  0  0  0  0  0  0  0  0
   37.0830   32.9270   42.0290 H   0  0  0  0  0  0  0  0  0  0  0  0
   37.6600   34.5210   41.5820 H   0  0  0  0  0  0  0  0  0  0  0  0
   38.3410   31.8320   38.7580 H   0  0  0  0  0  0  0  0  0  0  0  0
   37.5060   31.0790   40.1240 H   0  0  0  0  0  0  0  0  0  0  0  0
   40.4430   31.9390   39.8290 H   0  0  0  0  0  0  0  0  0  0  0  0
   40.7990   29.4920   39.8000 C   0  0  0  0  0  3  0  0  0  0  0  0
   39.6670   30.0350   40.4070 C   0  0  0  0  0  0  0  0  0  0  0  0
   38.7110   29.1910   40.9360 C   0  0  0  0  0  0  0  0  0  0  0  0
   37.8550   29.6650   41.3950 H   0  0  0  0  0  0  0  0  0  0  0  0
   38.9140   27.8220   40.8430 C   0  0  0  0  0  0  0  0  0  0  0  0
   38.1640   26.8050   41.2630 N   0  0  0  0  0  0  0  0  0  0  0  0
   37.2470   26.9000   41.7590 H   0  0  0  0  0  0  0  0  0  0  0  0
   38.7600   25.6370   40.9530 C   0  0  0  0  0  0  0  0  0  0  0  0
   38.3690   24.6560   41.1780 H   0  0  0  0  0  0  0  0  0  0  0  0
   39.9400   25.9260   40.3100 C   0  0  0  0  0  3  0  0  0  0  0  0
   40.0520   27.3030   40.2320 C   0  0  0  0  0  0  0  0  0  0  0  0
   41.0200   28.1280   39.6970 C   0  0  0  0  0  3  0  0  0  0  0  0
   39.5090   33.5730   43.3250 O   0  0  0  0  0  0  0  0  0  0  0  0
   36.2270   30.1960   46.8900 C   0  0  0  0  0  0  0  0  0  0  0  0
   37.0560   30.7690   47.8530 C   0  0  0  0  0  0  0  0  0  0  0  0
   38.0430   31.6770   47.4970 C   0  0  0  0  0  0  0  0  0  0  0  0
   38.1520   31.9760   46.1460 C   0  0  0  0  0  0  0  0  0  0  0  0
   39.0420   32.8340   45.5560 N   0  0  0  0  0  0  0  0  0  0  0  0
   38.7750   32.8000   44.2410 C   0  0  0  0  0  0  0  0  0  0  0  0
   37.7820   31.9760   43.9890 N   0  0  0  0  0  0  0  0  0  0  0  0
   37.3560   31.4340   45.1620 C   0  0  0  0  0  0  0  0  0  0  0  0
   36.3660   30.5200   45.5490 C   0  0  0  0  0  0  0  0  0  0  0  0
   35.4570   29.4930   47.1340 H   0  0  0  0  0  0  0  0  0  0  0  0
   38.6770   32.1130   48.2460 H   0  0  0  0  0  0  0  0  0  0  0  0
   39.7700   33.3900   46.0550 H   0  0  0  0  0  0  0  0  0  0  0  0
   35.7450   30.1000   44.7680 H   0  0  0  0  0  0  0  0  0  0  0  0
   37.4300   30.1330   51.5300 C   0  0  0  0  0  0  0  0  0  0  0  0
   37.7400   30.5790   50.2580 C   0  0  0  0  0  0  0  0  0  0  0  0
   36.8370   30.3540   49.2250 C   0  0  0  0  0  0  0  0  0  0  0  0
   35.6840   29.6960   49.5320 N   0  0  0  0  0  0  0  0  0  0  0  0
   35.3880   29.2650   50.7700 C   0  0  0  0  0  0  0  0  0  0  0  0
   36.2580   29.4860   51.7540 N   0  0  0  0  0  0  0  0  0  0  0  0
   38.1900   30.3510   52.2760 H   0  0  0  0  0  0  0  0  0  0  0  0
   38.6620   31.1030   50.0230 H   0  0  0  0  0  0  0  0  0  0  0  0
   34.4590   28.7450   50.9750 H   0  0  0  0  0  0  0  0  0  0  0  0
  1  2  1  0  0  0  0
  1  7  1  0  0  0  0
  2  8  1  6  0  0  0
  2 26  1  0  0  0  0
  3 10  1  0  0  0  0
  3  2  1  0  0  0  0
  3  9  1  0  0  0  0
  4  3  1  0  0  0  0
  5 12  1  0  0  0  0
  5  4  1  0  0  0  0
  5  6  1  0  0  0  0
  6 13  1  6  0  0  0
  6  1  1  0  0  0  0
 11  5  1  0  0  0  0
 14 15  1  0  0  0  0
 15  6  1  0  0  0  0
 15 16  2  0  0  0  0
 16 17  1  0  0  0  0
 18 16  1  0  0  0  0
 18 19  1  0  0  0  0
 19 20  1  0  0  0  0
 21 22  1  0  0  0  0
 21 19  1  0  0  0  0
 23 21  2  0  0  0  0
 24 23  1  0  0  0  0
 24 18  2  0  0  0  0
 25 14  2  0  0  0  0
 25 24  1  0  0  0  0
 26 32  1  0  0  0  0
 27 36  1  0  0  0  0
 27 28  1  0  0  0  0
 28 42  1  0  0  0  0
 29 28  2  0  0  0  0
 29 37  1  0  0  0  0
 30 29  1  0  0  0  0
 31 38  1  0  0  0  0
 31 30  1  0  0  0  0
 32 31  1  0  0  0  0
 33 32  2  0  0  0  0
 33 34  1  0  0  0  0
 34 35  1  0  0  0  0
 34 30  2  0  0  0  0
 35 27  2  0  0  0  0
 39 35  1  0  0  0  0
 40 45  1  0  0  0  0
 40 46  1  0  0  0  0
 41 40  2  0  0  0  0
 42 43  2  0  0  0  0
 42 41  1  0  0  0  0
 43 44  1  0  0  0  0
 44 48  1  0  0  0  0
 44 45  2  0  0  0  0
 47 41  1  0  0  0  0
M  END
>  <minimizedAffinity>
-6.24309969

>  <minimizedRMSD>
0.206469595

$$$$
