
 OpenBabel03272510253D

 48 53  0  0  1  0  0  0  0  0999 V2000
   39.3220   30.8100   42.4190 N   0  0  0  0  0  0  0  0  0  0  0  0
   39.6320   32.1690   41.9500 C   0  0  1  0  0  0  0  0  0  0  0  0
   39.0050   32.3710   40.6480 C   0  0  0  0  0  0  0  0  0  0  0  0
   39.6020   31.4940   39.7250 O   0  0  0  0  0  0  0  0  0  0  0  0
   39.5710   30.1780   40.0670 C   0  0  0  0  0  0  0  0  0  0  0  0
   39.9760   29.9110   41.4940 C   0  0  2  0  0  0  0  0  0  0  0  0
   39.7940   30.7150   43.3390 H   0  0  0  0  0  0  0  0  0  0  0  0
   40.7090   32.3280   41.8670 H   0  0  0  0  0  0  0  0  0  0  0  0
   37.9730   32.3040   40.4430 H   0  0  0  0  0  0  0  0  0  0  0  0
   39.3390   33.3890   40.2790 H   0  0  0  0  0  0  0  0  0  0  0  0
   40.2860   29.6420   39.4250 H   0  0  0  0  0  0  0  0  0  0  0  0
   38.5720   29.7540   39.8470 H   0  0  0  0  0  0  0  0  0  0  0  0
   41.0640   29.8340   41.6470 H   0  0  0  0  0  0  0  0  0  0  0  0
   38.1760   28.2860   41.1080 C   0  0  0  0  0  3  0  0  0  0  0  0
   39.3470   28.5740   41.8100 C   0  0  0  0  0  0  0  0  0  0  0  0
   39.8390   27.6540   42.7140 C   0  0  0  0  0  0  0  0  0  0  0  0
   40.7490   27.9290   43.2280 H   0  0  0  0  0  0  0  0  0  0  0  0
   39.1440   26.4670   42.8940 C   0  0  0  0  0  0  0  0  0  0  0  0
   39.3950   25.4280   43.6870 N   0  0  0  0  0  0  0  0  0  0  0  0
   40.2130   25.3540   44.3390 H   0  0  0  0  0  0  0  0  0  0  0  0
   38.4430   24.4890   43.5300 C   0  0  0  0  0  0  0  0  0  0  0  0
   38.4020   23.5460   44.0520 H   0  0  0  0  0  0  0  0  0  0  0  0
   37.5480   24.9530   42.5940 C   0  0  0  0  0  3  0  0  0  0  0  0
   37.9770   26.2020   42.1820 C   0  0  0  0  0  0  0  0  0  0  0  0
   37.4670   27.1060   41.2730 C   0  0  0  0  0  3  0  0  0  0  0  0
   39.0690   33.0100   42.9500 O   0  0  0  0  0  0  0  0  0  0  0  0
   35.8430   30.1770   47.0070 C   0  0  0  0  0  0  0  0  0  0  0  0
   36.8660   30.6330   47.8370 C   0  0  0  0  0  0  0  0  0  0  0  0
   37.9160   31.3860   47.3300 C   0  0  0  0  0  0  0  0  0  0  0  0
   37.8860   31.6530   45.9680 C   0  0  0  0  0  0  0  0  0  0  0  0
   38.8020   32.3670   45.2440 N   0  0  0  0  0  0  0  0  0  0  0  0
   38.3610   32.3600   43.9760 C   0  0  0  0  0  0  0  0  0  0  0  0
   37.2360   31.6860   43.8790 N   0  0  0  0  0  0  0  0  0  0  0  0
   36.8970   31.2230   45.1120 C   0  0  0  0  0  0  0  0  0  0  0  0
   35.8480   30.4650   45.6500 C   0  0  0  0  0  0  0  0  0  0  0  0
   35.0210   29.5950   47.3690 H   0  0  0  0  0  0  0  0  0  0  0  0
   38.6980   31.7330   47.9770 H   0  0  0  0  0  0  0  0  0  0  0  0
   39.6610   32.8170   45.6270 H   0  0  0  0  0  0  0  0  0  0  0  0
   35.0750   30.1310   44.9700 H   0  0  0  0  0  0  0  0  0  0  0  0
   37.5760   30.1300   51.4850 C   0  0  0  0  0  0  0  0  0  0  0  0
   37.7670   30.5300   50.1750 C   0  0  0  0  0  0  0  0  0  0  0  0
   36.7750   30.2680   49.2370 C   0  0  0  0  0  0  0  0  0  0  0  0
   35.6570   29.6210   49.6710 N   0  0  0  0  0  0  0  0  0  0  0  0
   35.4760   29.2340   50.9460 C   0  0  0  0  0  0  0  0  0  0  0  0
   36.4320   29.4900   51.8380 N   0  0  0  0  0  0  0  0  0  0  0  0
   38.4000   30.3750   52.1510 H   0  0  0  0  0  0  0  0  0  0  0  0
   38.6620   31.0460   49.8390 H   0  0  0  0  0  0  0  0  0  0  0  0
   34.5720   28.7210   51.2540 H   0  0  0  0  0  0  0  0  0  0  0  0
  1  7  1  0  0  0  0
  2  8  1  6  0  0  0
  2  1  1  0  0  0  0
  2 26  1  0  0  0  0
  3  2  1  0  0  0  0
  4  5  1  0  0  0  0
  4  3  1  0  0  0  0
  5  6  1  0  0  0  0
  6 13  1  1  0  0  0
  6 15  1  0  0  0  0
  6  1  1  0  0  0  0
  9  3  1  0  0  0  0
 10  3  1  0  0  0  0
 11  5  1  0  0  0  0
 12  5  1  0  0  0  0
 14 25  2  0  0  0  0
 14 15  1  0  0  0  0
 15 16  2  0  0  0  0
 16 18  1  0  0  0  0
 16 17  1  0  0  0  0
 18 19  1  0  0  0  0
 19 20  1  0  0  0  0
 21 19  1  0  0  0  0
 21 22  1  0  0  0  0
 23 21  2  0  0  0  0
 24 23  1  0  0  0  0
 24 18  2  0  0  0  0
 25 24  1  0  0  0  0
 26 32  1  0  0  0  0
 27 36  1  0  0  0  0
 27 28  1  0  0  0  0
 28 42  1  0  0  0  0
 29 28  2  0  0  0  0
 29 37  1  0  0  0  0
 30 29  1  0  0  0  0
 31 38  1  0  0  0  0
 31 30  1  0  0  0  0
 32 31  1  0  0  0  0
 33 32  2  0  0  0  0
 33 34  1  0  0  0  0
 34 35  1  0  0  0  0
 34 30  2  0  0  0  0
 35 27  2  0  0  0  0
 39 35  1  0  0  0  0
 40 45  1  0  0  0  0
 40 46  1  0  0  0  0
 41 40  2  0  0  0  0
 42 43  2  0  0  0  0
 42 41  1  0  0  0  0
 43 44  1  0  0  0  0
 44 48  1  0  0  0  0
 44 45  2  0  0  0  0
 47 41  1  0  0  0  0
M  END
>  <minimizedAffinity>
-6.25465488

>  <minimizedRMSD>
1.77180088

$$$$
