
 OpenBabel03272510263D

 48 53  0  0  1  0  0  0  0  0999 V2000
   39.6700   31.7870   42.0340 N   0  0  0  0  0  0  0  0  0  0  0  0
   39.4080   33.2340   42.0300 C   0  0  1  0  0  0  0  0  0  0  0  0
   38.0660   33.4680   41.5090 C   0  0  0  0  0  0  0  0  0  0  0  0
   38.0340   33.0630   40.1630 O   0  0  0  0  0  0  0  0  0  0  0  0
   38.4160   31.7780   39.9310 C   0  0  0  0  0  0  0  0  0  0  0  0
   39.6820   31.3820   40.6460 C   0  0  2  0  0  0  0  0  0  0  0  0
   40.6330   31.6750   42.4040 H   0  0  0  0  0  0  0  0  0  0  0  0
   40.1380   33.7720   41.4210 H   0  0  0  0  0  0  0  0  0  0  0  0
   37.1710   33.0900   41.9170 H   0  0  0  0  0  0  0  0  0  0  0  0
   37.9350   34.5920   41.4350 H   0  0  0  0  0  0  0  0  0  0  0  0
   38.6080   31.6680   38.8530 H   0  0  0  0  0  0  0  0  0  0  0  0
   37.5850   31.0870   40.1750 H   0  0  0  0  0  0  0  0  0  0  0  0
   40.6060   31.6580   40.1130 H   0  0  0  0  0  0  0  0  0  0  0  0
   38.8480   29.3730   41.7870 C   0  0  0  0  0  3  0  0  0  0  0  0
   39.6020   29.8750   40.7260 C   0  0  0  0  0  0  0  0  0  0  0  0
   40.2050   28.9970   39.8470 C   0  0  0  0  0  0  0  0  0  0  0  0
   40.7770   29.4400   39.0440 H   0  0  0  0  0  0  0  0  0  0  0  0
   40.0380   27.6360   40.0550 C   0  0  0  0  0  0  0  0  0  0  0  0
   40.5020   26.5910   39.3720 N   0  0  0  0  0  0  0  0  0  0  0  0
   41.1040   26.6540   38.5160 H   0  0  0  0  0  0  0  0  0  0  0  0
   40.0820   25.4460   39.9430 C   0  0  0  0  0  0  0  0  0  0  0  0
   40.3130   24.4510   39.5910 H   0  0  0  0  0  0  0  0  0  0  0  0
   39.3190   25.7770   41.0370 C   0  0  0  0  0  3  0  0  0  0  0  0
   39.2800   27.1590   41.1220 C   0  0  0  0  0  0  0  0  0  0  0  0
   38.6690   28.0180   42.0110 C   0  0  0  0  0  3  0  0  0  0  0  0
   39.5200   33.6030   43.4000 O   0  0  0  0  0  0  0  0  0  0  0  0
   36.2120   30.2220   46.9380 C   0  0  0  0  0  0  0  0  0  0  0  0
   37.0500   30.7760   47.9050 C   0  0  0  0  0  0  0  0  0  0  0  0
   38.0460   31.6770   47.5560 C   0  0  0  0  0  0  0  0  0  0  0  0
   38.1540   31.9900   46.2080 C   0  0  0  0  0  0  0  0  0  0  0  0
   39.0510   32.8440   45.6250 N   0  0  0  0  0  0  0  0  0  0  0  0
   38.7810   32.8280   44.3100 C   0  0  0  0  0  0  0  0  0  0  0  0
   37.7780   32.0170   44.0530 N   0  0  0  0  0  0  0  0  0  0  0  0
   37.3490   31.4670   45.2200 C   0  0  0  0  0  0  0  0  0  0  0  0
   36.3510   30.5590   45.6000 C   0  0  0  0  0  0  0  0  0  0  0  0
   35.4360   29.5250   47.1770 H   0  0  0  0  0  0  0  0  0  0  0  0
   38.6850   32.0990   48.3080 H   0  0  0  0  0  0  0  0  0  0  0  0
   39.7860   33.3880   46.1280 H   0  0  0  0  0  0  0  0  0  0  0  0
   35.7230   30.1540   44.8170 H   0  0  0  0  0  0  0  0  0  0  0  0
   37.4230   30.1050   51.5760 C   0  0  0  0  0  0  0  0  0  0  0  0
   37.7340   30.5620   50.3080 C   0  0  0  0  0  0  0  0  0  0  0  0
   36.8300   30.3490   49.2730 C   0  0  0  0  0  0  0  0  0  0  0  0
   35.6760   29.6910   49.5740 N   0  0  0  0  0  0  0  0  0  0  0  0
   35.3780   29.2490   50.8080 C   0  0  0  0  0  0  0  0  0  0  0  0
   36.2490   29.4580   51.7940 N   0  0  0  0  0  0  0  0  0  0  0  0
   38.1830   30.3150   52.3240 H   0  0  0  0  0  0  0  0  0  0  0  0
   38.6570   31.0860   50.0780 H   0  0  0  0  0  0  0  0  0  0  0  0
   34.4480   28.7290   51.0090 H   0  0  0  0  0  0  0  0  0  0  0  0
  1  7  1  0  0  0  0
  2  8  1  6  0  0  0
  2  1  1  0  0  0  0
  2 26  1  0  0  0  0
  3  9  1  0  0  0  0
  3  2  1  0  0  0  0
  4  3  1  0  0  0  0
  5  4  1  0  0  0  0
  5 12  1  0  0  0  0
  5  6  1  0  0  0  0
  6 13  1  6  0  0  0
  6 15  1  0  0  0  0
  6  1  1  0  0  0  0
 10  3  1  0  0  0  0
 11  5  1  0  0  0  0
 14 25  1  0  0  0  0
 15 14  2  0  0  0  0
 16 18  2  0  0  0  0
 16 15  1  0  0  0  0
 17 16  1  0  0  0  0
 18 24  1  0  0  0  0
 19 21  1  0  0  0  0
 19 18  1  0  0  0  0
 20 19  1  0  0  0  0
 21 23  2  0  0  0  0
 22 21  1  0  0  0  0
 23 24  1  0  0  0  0
 24 25  2  0  0  0  0
 26 32  1  0  0  0  0
 27 36  1  0  0  0  0
 27 28  1  0  0  0  0
 28 42  1  0  0  0  0
 29 28  2  0  0  0  0
 29 37  1  0  0  0  0
 30 29  1  0  0  0  0
 31 38  1  0  0  0  0
 31 30  1  0  0  0  0
 32 31  1  0  0  0  0
 33 32  2  0  0  0  0
 33 34  1  0  0  0  0
 34 35  1  0  0  0  0
 34 30  2  0  0  0  0
 35 27  2  0  0  0  0
 39 35  1  0  0  0  0
 40 45  1  0  0  0  0
 40 46  1  0  0  0  0
 41 40  2  0  0  0  0
 42 43  2  0  0  0  0
 42 41  1  0  0  0  0
 43 44  1  0  0  0  0
 44 48  1  0  0  0  0
 44 45  2  0  0  0  0
 47 41  1  0  0  0  0
M  END
>  <minimizedAffinity>
-6.27755117

>  <minimizedRMSD>
0.478209227

$$$$
