
 OpenBabel03272510253D

 48 53  0  0  1  0  0  0  0  0999 V2000
   39.6680   31.9010   41.8210 N   0  0  0  0  0  0  0  0  0  0  0  0
   39.2820   33.3140   41.9590 C   0  0  1  0  0  0  0  0  0  0  0  0
   37.8770   33.4550   41.5940 C   0  0  0  0  0  0  0  0  0  0  0  0
   37.7380   33.1450   40.2290 O   0  0  0  0  0  0  0  0  0  0  0  0
   38.2030   31.9220   39.8590 C   0  0  0  0  0  0  0  0  0  0  0  0
   39.5680   31.5980   40.4110 C   0  0  2  0  0  0  0  0  0  0  0  0
   40.6710   31.8560   42.0840 H   0  0  0  0  0  0  0  0  0  0  0  0
   39.8930   33.9600   41.3250 H   0  0  0  0  0  0  0  0  0  0  0  0
   37.0660   32.9660   42.0580 H   0  0  0  0  0  0  0  0  0  0  0  0
   37.6410   34.5640   41.6240 H   0  0  0  0  0  0  0  0  0  0  0  0
   38.2880   31.9060   38.7620 H   0  0  0  0  0  0  0  0  0  0  0  0
   37.4660   31.1390   40.1290 H   0  0  0  0  0  0  0  0  0  0  0  0
   40.4020   31.9980   39.8130 H   0  0  0  0  0  0  0  0  0  0  0  0
   40.9080   29.5410   40.4750 C   0  0  0  0  0  3  0  0  0  0  0  0
   39.6290   30.0880   40.3780 C   0  0  0  0  0  0  0  0  0  0  0  0
   38.5390   29.2500   40.2620 C   0  0  0  0  0  0  0  0  0  0  0  0
   37.5720   29.7260   40.1900 H   0  0  0  0  0  0  0  0  0  0  0  0
   38.7590   27.8790   40.2460 C   0  0  0  0  0  0  0  0  0  0  0  0
   37.9020   26.8650   40.1460 N   0  0  0  0  0  0  0  0  0  0  0  0
   36.8630   26.9650   40.0580 H   0  0  0  0  0  0  0  0  0  0  0  0
   38.5700   25.6960   40.1740 C   0  0  0  0  0  0  0  0  0  0  0  0
   38.1190   24.7170   40.1090 H   0  0  0  0  0  0  0  0  0  0  0  0
   39.9090   25.9800   40.2970 C   0  0  0  0  0  3  0  0  0  0  0  0
   40.0460   27.3570   40.3440 C   0  0  0  0  0  0  0  0  0  0  0  0
   41.1490   28.1760   40.4600 C   0  0  0  0  0  3  0  0  0  0  0  0
   39.5070   33.5940   43.3360 O   0  0  0  0  0  0  0  0  0  0  0  0
   36.2360   30.1990   46.8950 C   0  0  0  0  0  0  0  0  0  0  0  0
   37.0630   30.7740   47.8600 C   0  0  0  0  0  0  0  0  0  0  0  0
   38.0460   31.6870   47.5050 C   0  0  0  0  0  0  0  0  0  0  0  0
   38.1540   31.9880   46.1550 C   0  0  0  0  0  0  0  0  0  0  0  0
   39.0410   32.8500   45.5670 N   0  0  0  0  0  0  0  0  0  0  0  0
   38.7750   32.8170   44.2510 C   0  0  0  0  0  0  0  0  0  0  0  0
   37.7860   31.9890   43.9980 N   0  0  0  0  0  0  0  0  0  0  0  0
   37.3610   31.4440   45.1690 C   0  0  0  0  0  0  0  0  0  0  0  0
   36.3750   30.5250   45.5550 C   0  0  0  0  0  0  0  0  0  0  0  0
   35.4700   29.4920   47.1380 H   0  0  0  0  0  0  0  0  0  0  0  0
   38.6770   32.1250   48.2550 H   0  0  0  0  0  0  0  0  0  0  0  0
   39.7660   33.4090   46.0670 H   0  0  0  0  0  0  0  0  0  0  0  0
   35.7560   30.1030   44.7730 H   0  0  0  0  0  0  0  0  0  0  0  0
   37.4370   30.1350   51.5360 C   0  0  0  0  0  0  0  0  0  0  0  0
   37.7460   30.5840   50.2640 C   0  0  0  0  0  0  0  0  0  0  0  0
   36.8450   30.3570   49.2310 C   0  0  0  0  0  0  0  0  0  0  0  0
   35.6940   29.6940   49.5360 N   0  0  0  0  0  0  0  0  0  0  0  0
   35.3980   29.2610   50.7740 C   0  0  0  0  0  0  0  0  0  0  0  0
   36.2680   29.4830   51.7580 N   0  0  0  0  0  0  0  0  0  0  0  0
   38.1960   30.3550   52.2830 H   0  0  0  0  0  0  0  0  0  0  0  0
   38.6670   31.1110   50.0310 H   0  0  0  0  0  0  0  0  0  0  0  0
   34.4710   28.7370   50.9780 H   0  0  0  0  0  0  0  0  0  0  0  0
  1  2  1  0  0  0  0
  1  7  1  0  0  0  0
  2  8  1  6  0  0  0
  2 26  1  0  0  0  0
  3 10  1  0  0  0  0
  3  2  1  0  0  0  0
  3  9  1  0  0  0  0
  4  3  1  0  0  0  0
  5 12  1  0  0  0  0
  5  4  1  0  0  0  0
  5  6  1  0  0  0  0
  6 13  1  6  0  0  0
  6  1  1  0  0  0  0
 11  5  1  0  0  0  0
 15  6  1  0  0  0  0
 15 14  2  0  0  0  0
 16 15  1  0  0  0  0
 17 16  1  0  0  0  0
 18 16  2  0  0  0  0
 18 24  1  0  0  0  0
 19 21  1  0  0  0  0
 19 18  1  0  0  0  0
 20 19  1  0  0  0  0
 21 23  2  0  0  0  0
 22 21  1  0  0  0  0
 23 24  1  0  0  0  0
 24 25  2  0  0  0  0
 25 14  1  0  0  0  0
 26 32  1  0  0  0  0
 27 36  1  0  0  0  0
 27 28  1  0  0  0  0
 28 42  1  0  0  0  0
 29 28  2  0  0  0  0
 29 37  1  0  0  0  0
 30 29  1  0  0  0  0
 31 38  1  0  0  0  0
 31 30  1  0  0  0  0
 32 31  1  0  0  0  0
 33 32  2  0  0  0  0
 33 34  1  0  0  0  0
 34 35  1  0  0  0  0
 34 30  2  0  0  0  0
 35 27  2  0  0  0  0
 39 35  1  0  0  0  0
 40 45  1  0  0  0  0
 40 46  1  0  0  0  0
 41 40  2  0  0  0  0
 42 43  2  0  0  0  0
 42 41  1  0  0  0  0
 43 44  1  0  0  0  0
 44 48  1  0  0  0  0
 44 45  2  0  0  0  0
 47 41  1  0  0  0  0
M  END
>  <minimizedAffinity>
-6.22848272

>  <minimizedRMSD>
0.155525088

$$$$
