
 OpenBabel03272510253D

 48 53  0  0  1  0  0  0  0  0999 V2000
   39.6730   31.8970   41.8200 N   0  0  0  0  0  0  0  0  0  0  0  0
   39.2860   33.3100   41.9560 C   0  0  1  0  0  0  0  0  0  0  0  0
   37.8810   33.4500   41.5890 C   0  0  0  0  0  0  0  0  0  0  0  0
   37.7430   33.1370   40.2240 O   0  0  0  0  0  0  0  0  0  0  0  0
   38.2100   31.9140   39.8570 C   0  0  0  0  0  0  0  0  0  0  0  0
   39.5740   31.5920   40.4100 C   0  0  2  0  0  0  0  0  0  0  0  0
   40.6760   31.8540   42.0840 H   0  0  0  0  0  0  0  0  0  0  0  0
   39.8970   33.9560   41.3210 H   0  0  0  0  0  0  0  0  0  0  0  0
   37.0700   32.9600   42.0520 H   0  0  0  0  0  0  0  0  0  0  0  0
   37.6440   34.5580   41.6160 H   0  0  0  0  0  0  0  0  0  0  0  0
   38.2970   31.8960   38.7600 H   0  0  0  0  0  0  0  0  0  0  0  0
   37.4740   31.1310   40.1270 H   0  0  0  0  0  0  0  0  0  0  0  0
   40.4090   31.9910   39.8130 H   0  0  0  0  0  0  0  0  0  0  0  0
   40.5120   29.5030   41.3000 C   0  0  0  0  0  3  0  0  0  0  0  0
   39.6370   30.0820   40.3800 C   0  0  0  0  0  0  0  0  0  0  0  0
   38.9100   29.2720   39.5320 C   0  0  0  0  0  0  0  0  0  0  0  0
   38.2480   29.7730   38.8390 H   0  0  0  0  0  0  0  0  0  0  0  0
   39.0780   27.8980   39.6250 C   0  0  0  0  0  0  0  0  0  0  0  0
   38.5110   26.9060   38.9400 N   0  0  0  0  0  0  0  0  0  0  0  0
   37.8060   27.0330   38.1760 H   0  0  0  0  0  0  0  0  0  0  0  0
   38.9800   25.7210   39.3760 C   0  0  0  0  0  0  0  0  0  0  0  0
   38.6870   24.7550   38.9920 H   0  0  0  0  0  0  0  0  0  0  0  0
   39.8830   25.9700   40.3810 C   0  0  0  0  0  3  0  0  0  0  0  0
   39.9570   27.3420   40.5510 C   0  0  0  0  0  0  0  0  0  0  0  0
   40.6920   28.1340   41.4090 C   0  0  0  0  0  3  0  0  0  0  0  0
   39.5080   33.5930   43.3330 O   0  0  0  0  0  0  0  0  0  0  0  0
   36.2380   30.1990   46.8930 C   0  0  0  0  0  0  0  0  0  0  0  0
   37.0640   30.7750   47.8570 C   0  0  0  0  0  0  0  0  0  0  0  0
   38.0480   31.6880   47.5020 C   0  0  0  0  0  0  0  0  0  0  0  0
   38.1560   31.9880   46.1520 C   0  0  0  0  0  0  0  0  0  0  0  0
   39.0420   32.8500   45.5630 N   0  0  0  0  0  0  0  0  0  0  0  0
   38.7770   32.8160   44.2480 C   0  0  0  0  0  0  0  0  0  0  0  0
   37.7880   31.9880   43.9950 N   0  0  0  0  0  0  0  0  0  0  0  0
   37.3630   31.4440   45.1670 C   0  0  0  0  0  0  0  0  0  0  0  0
   36.3770   30.5250   45.5520 C   0  0  0  0  0  0  0  0  0  0  0  0
   35.4720   29.4930   47.1370 H   0  0  0  0  0  0  0  0  0  0  0  0
   38.6790   32.1260   48.2520 H   0  0  0  0  0  0  0  0  0  0  0  0
   39.7680   33.4090   46.0630 H   0  0  0  0  0  0  0  0  0  0  0  0
   35.7580   30.1020   44.7710 H   0  0  0  0  0  0  0  0  0  0  0  0
   37.4380   30.1400   51.5340 C   0  0  0  0  0  0  0  0  0  0  0  0
   37.7470   30.5880   50.2630 C   0  0  0  0  0  0  0  0  0  0  0  0
   36.8470   30.3580   49.2290 C   0  0  0  0  0  0  0  0  0  0  0  0
   35.6970   29.6940   49.5340 N   0  0  0  0  0  0  0  0  0  0  0  0
   35.4020   29.2610   50.7720 C   0  0  0  0  0  0  0  0  0  0  0  0
   36.2700   29.4860   51.7570 N   0  0  0  0  0  0  0  0  0  0  0  0
   38.1960   30.3620   52.2820 H   0  0  0  0  0  0  0  0  0  0  0  0
   38.6670   31.1170   50.0290 H   0  0  0  0  0  0  0  0  0  0  0  0
   34.4750   28.7360   50.9760 H   0  0  0  0  0  0  0  0  0  0  0  0
  1  2  1  0  0  0  0
  1  7  1  0  0  0  0
  2  8  1  6  0  0  0
  2 26  1  0  0  0  0
  3 10  1  0  0  0  0
  3  2  1  0  0  0  0
  3  9  1  0  0  0  0
  4  3  1  0  0  0  0
  5 12  1  0  0  0  0
  5  4  1  0  0  0  0
  5  6  1  0  0  0  0
  6 13  1  6  0  0  0
  6  1  1  0  0  0  0
 11  5  1  0  0  0  0
 14 25  1  0  0  0  0
 15  6  1  0  0  0  0
 15 14  2  0  0  0  0
 16 18  2  0  0  0  0
 16 15  1  0  0  0  0
 17 16  1  0  0  0  0
 18 24  1  0  0  0  0
 19 21  1  0  0  0  0
 19 18  1  0  0  0  0
 20 19  1  0  0  0  0
 21 23  2  0  0  0  0
 22 21  1  0  0  0  0
 23 24  1  0  0  0  0
 24 25  2  0  0  0  0
 26 32  1  0  0  0  0
 27 36  1  0  0  0  0
 27 28  1  0  0  0  0
 28 42  1  0  0  0  0
 29 28  2  0  0  0  0
 29 37  1  0  0  0  0
 30 29  1  0  0  0  0
 31 38  1  0  0  0  0
 31 30  1  0  0  0  0
 32 31  1  0  0  0  0
 33 32  2  0  0  0  0
 33 34  1  0  0  0  0
 34 35  1  0  0  0  0
 34 30  2  0  0  0  0
 35 27  2  0  0  0  0
 39 35  1  0  0  0  0
 40 45  1  0  0  0  0
 40 46  1  0  0  0  0
 41 40  2  0  0  0  0
 42 43  2  0  0  0  0
 42 41  1  0  0  0  0
 43 44  1  0  0  0  0
 44 48  1  0  0  0  0
 44 45  2  0  0  0  0
 47 41  1  0  0  0  0
M  END
>  <minimizedAffinity>
-6.23997164

>  <minimizedRMSD>
0.179545686

$$$$
