
 OpenBabel03272507123D

 43 48  0  0  0  0  0  0  0  0999 V2000
   37.0430   29.6170   50.2620 C   0  0  0  0  0  0  0  0  0  0  0  0
   37.6760   29.0050   51.1620 O   0  0  0  0  0  0  0  0  0  0  0  0
   37.5810   30.7230   49.5040 C   0  0  0  0  0  0  0  0  0  0  0  0
   37.5170   31.9750   50.0880 C   0  0  0  0  0  0  0  0  0  0  0  0
   38.0210   33.0730   49.3970 C   0  0  0  0  0  0  0  0  0  0  0  0
   38.5570   32.8280   48.1580 N   0  0  0  0  0  0  0  0  0  0  0  0
   38.6090   31.6130   47.6140 C   0  0  0  0  0  0  0  0  0  0  0  0
   38.1170   30.5700   48.2970 N   0  0  0  0  0  0  0  0  0  0  0  0
   37.0890   32.1440   51.0650 H   0  0  0  0  0  0  0  0  0  0  0  0
   37.9750   34.0480   49.8440 H   0  0  0  0  0  0  0  0  0  0  0  0
   39.9750   32.3400   45.6990 C   0  0  0  0  0  0  0  0  0  0  0  0
   39.1820   31.3940   46.3050 C   0  0  0  0  0  0  0  0  0  0  0  0
   38.9750   30.2380   45.5850 C   0  0  0  0  0  0  0  0  0  0  0  0
   38.3600   29.4460   46.0000 H   0  0  0  0  0  0  0  0  0  0  0  0
   39.5210   30.0200   44.3290 C   0  0  0  0  0  0  0  0  0  0  0  0
   39.5110   29.0440   43.4080 N   0  0  0  0  0  0  0  0  0  0  0  0
   38.9950   28.1390   43.5230 H   0  0  0  0  0  0  0  0  0  0  0  0
   40.2480   29.3930   42.3300 C   0  0  0  0  0  0  0  0  0  0  0  0
   40.4220   28.8080   41.4340 H   0  0  0  0  0  0  0  0  0  0  0  0
   40.7770   30.6600   42.5410 C   0  0  0  0  0  0  0  0  0  0  0  0
   40.3160   31.0270   43.7800 C   0  0  0  0  0  0  0  0  0  0  0  0
   40.5490   32.2050   44.4680 C   0  0  0  0  0  0  0  0  0  0  0  0
   35.6790   29.1920   49.9570 C   0  0  0  0  0  0  0  0  0  0  0  0
   34.6100   29.6810   50.6320 C   0  0  0  0  0  0  0  0  0  0  0  0
   33.4750   29.0690   50.0910 C   0  0  0  0  0  0  0  0  0  0  0  0
   33.9560   28.2180   49.0850 C   0  0  0  0  0  0  0  0  0  0  0  0
   35.2460   28.3430   49.0660 O   0  0  0  0  0  0  0  0  0  0  0  0
   34.5950   30.4100   51.4450 H   0  0  0  0  0  0  0  0  0  0  0  0
   32.4830   29.2750   50.4420 H   0  0  0  0  0  0  0  0  0  0  0  0
   33.5260   26.4210   47.4140 C   0  0  0  0  0  0  0  0  0  0  0  0
   33.0590   27.3910   48.2760 C   0  0  0  0  0  0  0  0  0  0  0  0
   31.7150   27.6320   48.4170 C   0  0  0  0  0  0  0  0  0  0  0  0
   30.8370   26.8630   47.6630 C   0  0  0  0  0  0  0  0  0  0  0  0
   29.4900   26.8850   47.6040 N   0  0  0  0  0  0  0  0  0  0  0  0
   29.1140   25.9550   46.7310 N   0  0  0  0  0  0  0  0  0  0  0  0
   30.2140   25.3500   46.2410 C   0  0  0  0  0  0  0  0  0  0  0  0
   31.3470   25.9070   46.8170 C   0  0  0  0  0  0  0  0  0  0  0  0
   32.6920   25.6610   46.6700 C   0  0  0  0  0  0  0  0  0  0  0  0
   34.6160   26.3220   47.3860 H   0  0  0  0  0  0  0  0  0  0  0  0
   31.2610   28.3840   49.0810 H   0  0  0  0  0  0  0  0  0  0  0  0
   28.8240   27.5030   48.1330 H   0  0  0  0  0  0  0  0  0  0  0  0
   30.2800   24.5410   45.5030 H   0  0  0  0  0  0  0  0  0  0  0  0
   33.0700   24.9030   45.9970 H   0  0  0  0  0  0  0  0  0  0  0  0
  1  2  2  0  0  0  0
  3  4  1  0  0  0  0
  3  1  1  0  0  0  0
  4  9  1  0  0  0  0
  5 10  1  0  0  0  0
  5  4  2  0  0  0  0
  6  5  1  0  0  0  0
  7  6  2  0  0  0  0
  7  8  1  0  0  0  0
  8  3  2  0  0  0  0
 11 12  1  0  0  0  0
 12  7  1  0  0  0  0
 13 14  1  0  0  0  0
 13 12  2  0  0  0  0
 15 13  1  0  0  0  0
 16 17  1  0  0  0  0
 16 15  1  0  0  0  0
 18 20  2  0  0  0  0
 18 16  1  0  0  0  0
 19 18  1  0  0  0  0
 20 21  1  0  0  0  0
 21 15  2  0  0  0  0
 21 22  1  0  0  0  0
 22 11  2  0  0  0  0
 23  1  1  0  0  0  0
 23 24  2  0  0  0  0
 24 28  1  0  0  0  0
 25 29  1  0  0  0  0
 25 24  1  0  0  0  0
 26 25  2  0  0  0  0
 27 26  1  0  0  0  0
 27 23  1  0  0  0  0
 30 31  1  0  0  0  0
 31 32  2  0  0  0  0
 31 26  1  0  0  0  0
 32 40  1  0  0  0  0
 33 32  1  0  0  0  0
 34 33  1  0  0  0  0
 34 41  1  0  0  0  0
 35 34  1  0  0  0  0
 36 35  2  0  0  0  0
 36 37  1  0  0  0  0
 37 33  2  0  0  0  0
 38 37  1  0  0  0  0
 38 30  2  0  0  0  0
 39 30  1  0  0  0  0
 42 36  1  0  0  0  0
 43 38  1  0  0  0  0
M  END
>  <minimizedAffinity>
-7.91147757

>  <minimizedRMSD>
0.861716807

$$$$
