
 OpenBabel03272510253D

 48 53  0  0  1  0  0  0  0  0999 V2000
   39.6770   31.7220   42.1870 N   0  0  0  0  0  0  0  0  0  0  0  0
   39.5120   33.1810   42.1070 C   0  0  1  0  0  0  0  0  0  0  0  0
   38.2290   33.4760   41.4780 C   0  0  0  0  0  0  0  0  0  0  0  0
   38.2690   33.0150   40.1490 O   0  0  0  0  0  0  0  0  0  0  0  0
   38.5810   31.7000   39.9980 C   0  0  0  0  0  0  0  0  0  0  0  0
   39.7630   31.2570   40.8210 C   0  0  2  0  0  0  0  0  0  0  0  0
   40.6020   31.5670   42.6330 H   0  0  0  0  0  0  0  0  0  0  0  0
   40.3180   33.6450   41.5340 H   0  0  0  0  0  0  0  0  0  0  0  0
   37.2840   33.1730   41.8320 H   0  0  0  0  0  0  0  0  0  0  0  0
   38.1780   34.6010   41.3500 H   0  0  0  0  0  0  0  0  0  0  0  0
   38.8430   31.5300   38.9430 H   0  0  0  0  0  0  0  0  0  0  0  0
   37.6910   31.0740   40.2050 H   0  0  0  0  0  0  0  0  0  0  0  0
   40.7390   31.4510   40.3490 H   0  0  0  0  0  0  0  0  0  0  0  0
   40.1290   29.1940   42.1020 C   0  0  0  0  0  3  0  0  0  0  0  0
   39.5790   29.7630   40.9530 C   0  0  0  0  0  0  0  0  0  0  0  0
   38.9260   28.9560   40.0430 C   0  0  0  0  0  0  0  0  0  0  0  0
   38.5190   29.4490   39.1720 H   0  0  0  0  0  0  0  0  0  0  0  0
   38.8390   27.5970   40.3080 C   0  0  0  0  0  0  0  0  0  0  0  0
   38.2750   26.6130   39.6110 N   0  0  0  0  0  0  0  0  0  0  0  0
   37.7800   26.7340   38.6960 H   0  0  0  0  0  0  0  0  0  0  0  0
   38.4370   25.4420   40.2570 C   0  0  0  0  0  0  0  0  0  0  0  0
   38.0770   24.4840   39.9130 H   0  0  0  0  0  0  0  0  0  0  0  0
   39.1340   25.6940   41.4140 C   0  0  0  0  0  3  0  0  0  0  0  0
   39.3960   27.0520   41.4620 C   0  0  0  0  0  0  0  0  0  0  0  0
   40.0540   27.8400   42.3850 C   0  0  0  0  0  3  0  0  0  0  0  0
   39.5480   33.6020   43.4660 O   0  0  0  0  0  0  0  0  0  0  0  0
   36.2050   30.2340   46.9840 C   0  0  0  0  0  0  0  0  0  0  0  0
   37.0480   30.7730   47.9540 C   0  0  0  0  0  0  0  0  0  0  0  0
   38.0530   31.6670   47.6100 C   0  0  0  0  0  0  0  0  0  0  0  0
   38.1650   31.9870   46.2640 C   0  0  0  0  0  0  0  0  0  0  0  0
   39.0700   32.8350   45.6870 N   0  0  0  0  0  0  0  0  0  0  0  0
   38.8010   32.8290   44.3710 C   0  0  0  0  0  0  0  0  0  0  0  0
   37.7900   32.0300   44.1090 N   0  0  0  0  0  0  0  0  0  0  0  0
   37.3560   31.4770   45.2730 C   0  0  0  0  0  0  0  0  0  0  0  0
   36.3490   30.5770   45.6470 C   0  0  0  0  0  0  0  0  0  0  0  0
   35.4230   29.5420   47.2180 H   0  0  0  0  0  0  0  0  0  0  0  0
   38.6960   32.0780   48.3650 H   0  0  0  0  0  0  0  0  0  0  0  0
   39.8110   33.3690   46.1930 H   0  0  0  0  0  0  0  0  0  0  0  0
   35.7170   30.1820   44.8620 H   0  0  0  0  0  0  0  0  0  0  0  0
   37.4100   30.0850   51.6220 C   0  0  0  0  0  0  0  0  0  0  0  0
   37.7250   30.5480   50.3570 C   0  0  0  0  0  0  0  0  0  0  0  0
   36.8240   30.3410   49.3190 C   0  0  0  0  0  0  0  0  0  0  0  0
   35.6680   29.6840   49.6140 N   0  0  0  0  0  0  0  0  0  0  0  0
   35.3660   29.2370   50.8460 C   0  0  0  0  0  0  0  0  0  0  0  0
   36.2350   29.4400   51.8340 N   0  0  0  0  0  0  0  0  0  0  0  0
   38.1690   30.2900   52.3740 H   0  0  0  0  0  0  0  0  0  0  0  0
   38.6500   31.0710   50.1330 H   0  0  0  0  0  0  0  0  0  0  0  0
   34.4340   28.7180   51.0410 H   0  0  0  0  0  0  0  0  0  0  0  0
  1  7  1  0  0  0  0
  2  8  1  6  0  0  0
  2  1  1  0  0  0  0
  2 26  1  0  0  0  0
  3  9  1  0  0  0  0
  3  2  1  0  0  0  0
  4  3  1  0  0  0  0
  5  4  1  0  0  0  0
  5 12  1  0  0  0  0
  5  6  1  0  0  0  0
  6 13  1  6  0  0  0
  6 15  1  0  0  0  0
  6  1  1  0  0  0  0
 10  3  1  0  0  0  0
 11  5  1  0  0  0  0
 14 25  1  0  0  0  0
 15 14  2  0  0  0  0
 16 18  2  0  0  0  0
 16 15  1  0  0  0  0
 17 16  1  0  0  0  0
 18 24  1  0  0  0  0
 19 21  1  0  0  0  0
 19 18  1  0  0  0  0
 20 19  1  0  0  0  0
 21 23  2  0  0  0  0
 22 21  1  0  0  0  0
 23 24  1  0  0  0  0
 24 25  2  0  0  0  0
 26 32  1  0  0  0  0
 27 36  1  0  0  0  0
 27 28  1  0  0  0  0
 28 42  1  0  0  0  0
 29 28  2  0  0  0  0
 29 37  1  0  0  0  0
 30 29  1  0  0  0  0
 31 38  1  0  0  0  0
 31 30  1  0  0  0  0
 32 31  1  0  0  0  0
 33 32  2  0  0  0  0
 33 34  1  0  0  0  0
 34 35  1  0  0  0  0
 34 30  2  0  0  0  0
 35 27  2  0  0  0  0
 39 35  1  0  0  0  0
 40 45  1  0  0  0  0
 40 46  1  0  0  0  0
 41 40  2  0  0  0  0
 42 43  2  0  0  0  0
 42 41  1  0  0  0  0
 43 44  1  0  0  0  0
 44 48  1  0  0  0  0
 44 45  2  0  0  0  0
 47 41  1  0  0  0  0
M  END
>  <minimizedAffinity>
-6.28062248

>  <minimizedRMSD>
0.622311175

$$$$
