REMARK  Name = 
REMARK  4 active torsions:
REMARK  status: ('A' for Active; 'I' for Inactive)
REMARK    1  A    between atoms: C_2  and  C_12
REMARK    2  A    between atoms: C_6  and  O_16
REMARK    3  A    between atoms: O_16  and  C_18
REMARK    4  A    between atoms: C_22  and  C_38
REMARK                            x       y       z     vdW  Elec       q    Type
REMARK                         _______ _______ _______ _____ _____    ______ ____
ROOT
ATOM      1  N   UNL     1      39.563  31.859  41.726  0.00  0.00    +0.000 NA
ATOM      2  C   UNL     1      39.206  33.279  41.864  0.00  0.00    +0.000 C 
ATOM      3  C   UNL     1      37.798  33.446  41.521  0.00  0.00    +0.000 C 
ATOM      4  O   UNL     1      37.631  33.132  40.160  0.00  0.00    +0.000 OA
ATOM      5  C   UNL     1      38.067  31.899  39.788  0.00  0.00    +0.000 C 
ATOM      6  C   UNL     1      39.434  31.552  40.319  0.00  0.00    +0.000 C 
ATOM      7  H   UNL     1      40.569  31.796  41.973  0.00  0.00    +0.000 HD
ATOM      8  H   UNL     1      39.819  33.911  41.217  0.00  0.00    +0.000 HD
ATOM      9  H   UNL     1      36.986  32.974  42.000  0.00  0.00    +0.000 HD
ATOM     10  H   UNL     1      37.584  34.559  41.549  0.00  0.00    +0.000 HD
ATOM     11  H   UNL     1      38.134  31.877  38.690  0.00  0.00    +0.000 HD
ATOM     12  H   UNL     1      37.320  31.132  40.073  0.00  0.00    +0.000 HD
ATOM     13  H   UNL     1      40.266  31.933  39.706  0.00  0.00    +0.000 HD
ENDROOT
BRANCH   6  15
ATOM     14  C   UNL     1      38.746  29.448  39.255  0.00  0.00    +0.000 A 
ATOM     15  C   UNL     1      39.466  30.041  40.292  0.00  0.00    +0.000 A 
ATOM     16  C   UNL     1      40.137  29.241  41.195  0.00  0.00    +0.000 A 
ATOM     17  H   UNL     1      40.678  29.752  41.978  0.00  0.00    +0.000 HD
ATOM     18  C   UNL     1      40.070  27.865  41.036  0.00  0.00    +0.000 A 
ATOM     19  N   UNL     1      40.613  26.882  41.751  0.00  0.00    +0.000 N 
ATOM     20  H   UNL     1      41.213  27.018  42.599  0.00  0.00    +0.000 HD
ATOM     21  C   UNL     1      40.276  25.690  41.223  0.00  0.00    +0.000 A 
ATOM     22  H   UNL     1      40.582  24.727  41.606  0.00  0.00    +0.000 HD
ATOM     23  C   UNL     1      39.485  25.925  40.124  0.00  0.00    +0.000 A 
ATOM     24  C   UNL     1      39.344  27.296  39.992  0.00  0.00    +0.000 A 
ATOM     25  C   UNL     1      38.667  28.077  39.078  0.00  0.00    +0.000 A 
ENDBRANCH   6  15
BRANCH   2  26
ATOM     26  O   UNL     1      39.458  33.561  43.236  0.00  0.00    +0.000 OA
BRANCH  26  32
ATOM     27  C   UNL     1      36.244  30.184  46.863  0.00  0.00    +0.000 A 
ATOM     28  C   UNL     1      37.081  30.769  47.812  0.00  0.00    +0.000 A 
ATOM     29  C   UNL     1      38.057  31.682  47.438  0.00  0.00    +0.000 A 
ATOM     30  C   UNL     1      38.147  31.973  46.084  0.00  0.00    +0.000 A 
ATOM     31  N   UNL     1      39.023  32.833  45.478  0.00  0.00    +0.000 N 
ATOM     32  C   UNL     1      38.741  32.789  44.166  0.00  0.00    +0.000 A 
ATOM     33  N   UNL     1      37.751  31.956  43.932  0.00  0.00    +0.000 NA
ATOM     34  C   UNL     1      37.343  31.419  45.113  0.00  0.00    +0.000 A 
ATOM     35  C   UNL     1      36.365  30.500  45.518  0.00  0.00    +0.000 A 
ATOM     36  H   UNL     1      35.483  29.477  47.121  0.00  0.00    +0.000 HD
ATOM     37  H   UNL     1      38.696  32.128  48.176  0.00  0.00    +0.000 HD
ATOM     38  H   UNL     1      39.753  33.398  45.964  0.00  0.00    +0.000 HD
ATOM     39  H   UNL     1      35.737  30.070  44.748  0.00  0.00    +0.000 HD
BRANCH  28  42
ATOM     40  C   UNL     1      37.509  30.151  51.486  0.00  0.00    +0.000 A 
ATOM     41  C   UNL     1      37.801  30.590  50.207  0.00  0.00    +0.000 A 
ATOM     42  C   UNL     1      36.882  30.362  49.189  0.00  0.00    +0.000 A 
ATOM     43  N   UNL     1      35.732  29.709  49.517  0.00  0.00    +0.000 NA
ATOM     44  C   UNL     1      35.453  29.285  50.762  0.00  0.00    +0.000 A 
ATOM     45  N   UNL     1      36.339  29.508  51.731  0.00  0.00    +0.000 NA
ATOM     46  H   UNL     1      38.281  30.371  52.220  0.00  0.00    +0.000 HD
ATOM     47  H   UNL     1      38.721  31.110  49.956  0.00  0.00    +0.000 HD
ATOM     48  H   UNL     1      34.526  28.769  50.984  0.00  0.00    +0.000 HD
ENDBRANCH  28  42
ENDBRANCH  26  32
ENDBRANCH   2  26
TORSDOF 4
