
 OpenBabel03272501473D

 23 25  0  0  0  0  0  0  0  0999 V2000
   38.8160   32.5280   48.2840 C   0  0  0  0  0  0  0  0  0  0  0  0
   38.3540   31.2480   48.0770 C   0  0  0  0  0  0  0  0  0  0  0  0
   38.5600   30.6310   46.8630 C   0  0  0  0  0  0  0  0  0  0  0  0
   38.2070   29.6320   46.6810 H   0  0  0  0  0  0  0  0  0  0  0  0
   39.2220   31.2750   45.8530 C   0  0  0  0  0  0  0  0  0  0  0  0
   39.5530   30.9010   44.5830 N   0  0  0  0  0  0  0  0  0  0  0  0
   39.3400   29.9720   44.1170 H   0  0  0  0  0  0  0  0  0  0  0  0
   40.2220   31.9210   43.9670 C   0  0  0  0  0  0  0  0  0  0  0  0
   40.6040   31.9020   42.9570 H   0  0  0  0  0  0  0  0  0  0  0  0
   40.3360   32.9900   44.8490 C   0  0  0  0  0  0  0  0  0  0  0  0
   39.7100   32.5570   45.9950 C   0  0  0  0  0  0  0  0  0  0  0  0
   39.4840   33.1290   47.2110 C   0  0  0  0  0  0  0  0  0  0  0  0
   37.2020   30.1140   51.4850 C   0  0  0  0  0  0  0  0  0  0  0  0
   37.9670   30.8050   50.5350 C   0  0  0  0  0  0  0  0  0  0  0  0
   37.6570   30.6080   49.1820 C   0  0  0  0  0  0  0  0  0  0  0  0
   36.6310   29.7580   48.8810 N   0  0  0  0  0  0  0  0  0  0  0  0
   35.9200   29.1140   49.8430 C   0  0  0  0  0  0  0  0  0  0  0  0
   36.2000   29.2850   51.1520 N   0  0  0  0  0  0  0  0  0  0  0  0
   34.8930   28.2700   49.3570 N   0  0  0  0  0  0  0  0  0  0  0  0
   37.4600   30.2820   52.5360 H   0  0  0  0  0  0  0  0  0  0  0  0
   38.7730   31.4730   50.7760 H   0  0  0  0  0  0  0  0  0  0  0  0
   34.0020   28.5330   49.8530 H   0  0  0  0  0  0  0  0  0  0  0  0
   35.0260   27.5170   48.6230 H   0  0  0  0  0  0  0  0  0  0  0  0
  2  1  1  0  0  0  0
  2 15  1  0  0  0  0
  3  2  2  0  0  0  0
  4  3  1  0  0  0  0
  5 11  2  0  0  0  0
  5  3  1  0  0  0  0
  6  5  1  0  0  0  0
  7  6  1  0  0  0  0
  8  6  1  0  0  0  0
  8 10  2  0  0  0  0
  9  8  1  0  0  0  0
 10 11  1  0  0  0  0
 11 12  1  0  0  0  0
 12  1  2  0  0  0  0
 13 20  1  0  0  0  0
 14 21  1  0  0  0  0
 14 13  2  0  0  0  0
 15 14  1  0  0  0  0
 16 15  2  0  0  0  0
 16 17  1  0  0  0  0
 17 18  2  0  0  0  0
 18 13  1  0  0  0  0
 19 17  1  0  0  0  0
 19 22  1  0  0  0  0
 23 19  1  0  0  0  0
M  END
>  <minimizedAffinity>
-6.29896593

>  <minimizedRMSD>
0.59428364

$$$$
