
 OpenBabel03272505533D

 47 51  0  0  1  0  0  0  0  0999 V2000
   37.5880   25.9900   33.7510 N   0  0  2  0  0  0  0  0  0  0  0  0
   36.7990   27.2210   33.7520 C   0  0  0  0  0  0  0  0  0  0  0  0
   37.2570   28.0450   34.9400 C   0  0  0  0  0  0  0  0  0  0  0  0
   38.1490   27.1070   35.6650 C   0  0  0  0  0  0  0  0  0  0  0  0
   38.7430   26.2370   34.5360 C   0  0  1  0  0  0  0  0  0  0  0  0
   35.7220   27.0510   33.7090 H   0  0  0  0  0  0  0  0  0  0  0  0
   37.1360   27.7810   32.8380 H   0  0  0  0  0  0  0  0  0  0  0  0
   36.3340   28.2380   35.5460 H   0  0  0  0  0  0  0  0  0  0  0  0
   37.7600   28.9930   34.6450 H   0  0  0  0  0  0  0  0  0  0  0  0
   38.9290   27.6630   36.2100 H   0  0  0  0  0  0  0  0  0  0  0  0
   37.6030   26.4810   36.4010 H   0  0  0  0  0  0  0  0  0  0  0  0
   39.4860   26.9430   34.1570 H   0  0  0  0  0  0  0  0  0  0  0  0
   37.0560   29.4150   29.6700 C   0  0  0  0  0  0  0  0  0  0  0  0
   38.3920   29.4930   29.2200 C   0  0  0  0  0  0  0  0  0  0  0  0
   39.2420   28.4480   29.5800 C   0  0  0  0  0  0  0  0  0  0  0  0
   38.7380   27.4320   30.3320 N   0  0  0  0  0  0  0  0  0  0  0  0
   37.4730   27.4030   30.7320 C   0  0  0  0  0  0  0  0  0  0  0  0
   36.6280   28.3900   30.4050 N   0  0  0  0  0  0  0  0  0  0  0  0
   37.0050   26.3170   31.5150 N   0  0  0  0  0  0  0  0  0  0  0  0
   35.6110   25.8950   31.4820 C   0  0  0  0  0  0  0  0  0  0  0  0
   35.5310   24.4320   31.1700 C   0  0  0  0  0  0  0  0  0  0  0  0
   36.6830   23.7070   31.3160 N   0  0  0  0  0  0  0  0  0  0  0  0
   37.7650   24.1460   32.1580 C   0  0  0  0  0  0  0  0  0  0  0  0
   37.8910   25.5710   32.3900 C   0  0  2  0  0  0  0  0  0  0  0  0
   36.4440   30.2540   29.3600 H   0  0  0  0  0  0  0  0  0  0  0  0
   38.8320   30.2680   28.6290 H   0  0  0  0  0  0  0  0  0  0  0  0
   40.2990   28.3640   29.3100 H   0  0  0  0  0  0  0  0  0  0  0  0
   35.1510   26.4480   30.6040 H   0  0  0  0  0  0  0  0  0  0  0  0
   35.0260   26.2380   32.3350 H   0  0  0  0  0  0  0  0  0  0  0  0
   34.7420   24.0230   31.8660 H   0  0  0  0  0  0  0  0  0  0  0  0
   35.1020   24.2570   30.1620 H   0  0  0  0  0  0  0  0  0  0  0  0
   36.8790   22.9040   30.7240 H   0  0  0  0  0  0  0  0  0  0  0  0
   38.6690   23.8490   31.5200 H   0  0  0  0  0  0  0  0  0  0  0  0
   37.8130   23.4140   32.9490 H   0  0  0  0  0  0  0  0  0  0  0  0
   38.9360   25.9570   32.1860 H   0  0  0  0  0  0  0  0  0  0  0  0
   38.4680   24.6220   36.3460 C   0  0  0  0  0  3  0  0  0  0  0  0
   39.2710   25.0930   35.3210 C   0  0  0  0  0  0  0  0  0  0  0  0
   40.4750   24.4360   35.1640 C   0  0  0  0  0  0  0  0  0  0  0  0
   41.0910   24.8160   34.3580 H   0  0  0  0  0  0  0  0  0  0  0  0
   40.8530   23.3840   35.9700 C   0  0  0  0  0  0  0  0  0  0  0  0
   42.0140   22.6760   35.8950 N   0  0  0  0  0  0  0  0  0  0  0  0
   42.7970   22.8120   35.2230 H   0  0  0  0  0  0  0  0  0  0  0  0
   41.9820   21.7560   36.8500 C   0  0  0  0  0  0  0  0  0  0  0  0
   42.7360   21.0220   37.0780 H   0  0  0  0  0  0  0  0  0  0  0  0
   40.7740   21.8840   37.5450 C   0  0  0  0  0  3  0  0  0  0  0  0
   40.0460   22.9350   36.9780 C   0  0  0  0  0  0  0  0  0  0  0  0
   38.8340   23.5700   37.1620 C   0  0  0  0  0  3  0  0  0  0  0  0
  1  2  1  6  0  0  0
  1  5  1  0  0  0  0
  2  3  1  0  0  0  0
  3  8  1  0  0  0  0
  3  4  1  0  0  0  0
  4 10  1  0  0  0  0
  4 11  1  0  0  0  0
  5 12  1  6  0  0  0
  5 37  1  0  0  0  0
  5  4  1  0  0  0  0
  6  2  1  0  0  0  0
  7  2  1  0  0  0  0
  9  3  1  0  0  0  0
 13 18  1  0  0  0  0
 14 15  1  0  0  0  0
 14 13  2  0  0  0  0
 15 16  2  0  0  0  0
 16 17  1  0  0  0  0
 17 19  1  0  0  0  0
 18 17  2  0  0  0  0
 19 24  1  0  0  0  0
 20 19  1  0  0  0  0
 20 29  1  0  0  0  0
 21 22  1  0  0  0  0
 21 20  1  0  0  0  0
 21 30  1  0  0  0  0
 22 23  1  0  0  0  0
 23 24  1  0  0  0  0
 23 34  1  0  0  0  0
 24 35  1  6  0  0  0
 24  1  1  0  0  0  0
 25 13  1  0  0  0  0
 26 14  1  0  0  0  0
 27 15  1  0  0  0  0
 28 20  1  0  0  0  0
 31 21  1  0  0  0  0
 32 22  1  0  0  0  0
 33 23  1  0  0  0  0
 36 47  1  0  0  0  0
 37 36  2  0  0  0  0
 38 37  1  0  0  0  0
 38 40  2  0  0  0  0
 39 38  1  0  0  0  0
 40 46  1  0  0  0  0
 41 40  1  0  0  0  0
 41 43  1  0  0  0  0
 42 41  1  0  0  0  0
 43 44  1  0  0  0  0
 43 45  2  0  0  0  0
 46 47  2  0  0  0  0
 46 45  1  0  0  0  0
M  END
>  <minimizedAffinity>
-6.50715065

$$$$

 OpenBabel03272505533D

 47 51  0  0  1  0  0  0  0  0999 V2000
   37.2520   27.9590   33.0500 N   0  0  2  0  0  0  0  0  0  0  0  0
   38.4240   27.1010   33.2180 C   0  0  0  0  0  0  0  0  0  0  0  0
   38.6230   26.9020   34.7090 C   0  0  0  0  0  0  0  0  0  0  0  0
   37.6500   27.8530   35.2990 C   0  0  0  0  0  0  0  0  0  0  0  0
   36.5110   27.8890   34.2570 C   0  0  1  0  0  0  0  0  0  0  0  0
   39.3090   27.4600   32.6890 H   0  0  0  0  0  0  0  0  0  0  0  0
   38.1120   26.1010   32.8100 H   0  0  0  0  0  0  0  0  0  0  0  0
   39.6690   27.2470   34.9210 H   0  0  0  0  0  0  0  0  0  0  0  0
   38.4640   25.8500   35.0320 H   0  0  0  0  0  0  0  0  0  0  0  0
   37.3010   27.4870   36.2770 H   0  0  0  0  0  0  0  0  0  0  0  0
   38.0790   28.8660   35.4490 H   0  0  0  0  0  0  0  0  0  0  0  0
   36.0240   26.9440   34.5120 H   0  0  0  0  0  0  0  0  0  0  0  0
   37.8580   23.0830   30.9220 C   0  0  0  0  0  0  0  0  0  0  0  0
   36.5620   22.5560   31.1050 C   0  0  0  0  0  0  0  0  0  0  0  0
   35.5280   23.4720   31.2960 C   0  0  0  0  0  0  0  0  0  0  0  0
   35.8290   24.7990   31.2940 N   0  0  0  0  0  0  0  0  0  0  0  0
   37.0660   25.2480   31.1170 C   0  0  0  0  0  0  0  0  0  0  0  0
   38.0830   24.3960   30.9310 N   0  0  0  0  0  0  0  0  0  0  0  0
   37.3190   26.6420   31.1230 N   0  0  0  0  0  0  0  0  0  0  0  0
   38.4270   27.2230   30.3770 C   0  0  0  0  0  0  0  0  0  0  0  0
   37.9200   28.3100   29.4790 C   0  0  0  0  0  0  0  0  0  0  0  0
   36.6670   28.7950   29.7460 N   0  0  0  0  0  0  0  0  0  0  0  0
   36.0540   28.6670   31.0410 C   0  0  0  0  0  0  0  0  0  0  0  0
   36.4860   27.5640   31.8770 C   0  0  2  0  0  0  0  0  0  0  0  0
   38.6190   22.3240   30.7790 H   0  0  0  0  0  0  0  0  0  0  0  0
   36.2770   21.5250   31.1160 H   0  0  0  0  0  0  0  0  0  0  0  0
   34.4750   23.2210   31.4520 H   0  0  0  0  0  0  0  0  0  0  0  0
   38.8070   26.3890   29.7070 H   0  0  0  0  0  0  0  0  0  0  0  0
   39.2910   27.4710   30.9920 H   0  0  0  0  0  0  0  0  0  0  0  0
   38.6720   29.1460   29.5720 H   0  0  0  0  0  0  0  0  0  0  0  0
   37.9900   28.0170   28.4110 H   0  0  0  0  0  0  0  0  0  0  0  0
   36.0650   29.1350   29.0010 H   0  0  0  0  0  0  0  0  0  0  0  0
   34.9720   28.4350   30.7460 H   0  0  0  0  0  0  0  0  0  0  0  0
   35.9630   29.6790   31.4040 H   0  0  0  0  0  0  0  0  0  0  0  0
   35.6210   26.9540   32.2770 H   0  0  0  0  0  0  0  0  0  0  0  0
   34.4670   29.2240   34.3010 C   0  0  0  0  0  3  0  0  0  0  0  0
   35.7970   29.1230   34.6720 C   0  0  0  0  0  0  0  0  0  0  0  0
   36.2970   30.1980   35.3800 C   0  0  0  0  0  0  0  0  0  0  0  0
   37.3380   30.1040   35.6630 H   0  0  0  0  0  0  0  0  0  0  0  0
   35.5260   31.2950   35.6980 C   0  0  0  0  0  0  0  0  0  0  0  0
   35.9250   32.3980   36.3890 N   0  0  0  0  0  0  0  0  0  0  0  0
   36.8670   32.5910   36.7870 H   0  0  0  0  0  0  0  0  0  0  0  0
   34.8820   33.2130   36.4750 C   0  0  0  0  0  0  0  0  0  0  0  0
   34.8400   34.1770   36.9550 H   0  0  0  0  0  0  0  0  0  0  0  0
   33.7980   32.6120   35.8230 C   0  0  0  0  0  3  0  0  0  0  0  0
   34.2150   31.3750   35.3220 C   0  0  0  0  0  0  0  0  0  0  0  0
   33.6830   30.3160   34.6110 C   0  0  0  0  0  3  0  0  0  0  0  0
  1  2  1  1  0  0  0
  1  5  1  0  0  0  0
  2  3  1  0  0  0  0
  3  8  1  0  0  0  0
  3  9  1  0  0  0  0
  3  4  1  0  0  0  0
  4 11  1  0  0  0  0
  4 10  1  0  0  0  0
  5 12  1  1  0  0  0
  5 37  1  0  0  0  0
  5  4  1  0  0  0  0
  6  2  1  0  0  0  0
  7  2  1  0  0  0  0
 13 18  2  0  0  0  0
 13 14  1  0  0  0  0
 14 26  1  0  0  0  0
 14 15  2  0  0  0  0
 15 27  1  0  0  0  0
 16 15  1  0  0  0  0
 17 19  1  0  0  0  0
 17 16  2  0  0  0  0
 18 17  1  0  0  0  0
 19 24  1  0  0  0  0
 20 29  1  0  0  0  0
 20 19  1  0  0  0  0
 21 30  1  0  0  0  0
 21 22  1  0  0  0  0
 21 20  1  0  0  0  0
 22 23  1  0  0  0  0
 23 34  1  0  0  0  0
 23 24  1  0  0  0  0
 24 35  1  1  0  0  0
 24  1  1  0  0  0  0
 25 13  1  0  0  0  0
 28 20  1  0  0  0  0
 31 21  1  0  0  0  0
 32 22  1  0  0  0  0
 33 23  1  0  0  0  0
 36 47  2  0  0  0  0
 36 37  1  0  0  0  0
 37 38  2  0  0  0  0
 38 39  1  0  0  0  0
 38 40  1  0  0  0  0
 40 41  1  0  0  0  0
 41 43  1  0  0  0  0
 41 42  1  0  0  0  0
 43 44  1  0  0  0  0
 45 43  2  0  0  0  0
 46 40  2  0  0  0  0
 46 45  1  0  0  0  0
 47 46  1  0  0  0  0
M  END
>  <minimizedAffinity>
-6.20070076

$$$$

 OpenBabel03272505533D

 47 51  0  0  1  0  0  0  0  0999 V2000
   38.9310   25.1050   33.1190 N   0  0  2  0  0  0  0  0  0  0  0  0
   40.3230   24.6800   33.2660 C   0  0  0  0  0  0  0  0  0  0  0  0
   41.1420   25.9230   33.5580 C   0  0  0  0  0  0  0  0  0  0  0  0
   40.1630   27.0170   33.3450 C   0  0  0  0  0  0  0  0  0  0  0  0
   38.8170   26.3730   33.7430 C   0  0  1  0  0  0  0  0  0  0  0  0
   40.6890   24.0850   32.4270 H   0  0  0  0  0  0  0  0  0  0  0  0
   40.3410   24.0680   34.2080 H   0  0  0  0  0  0  0  0  0  0  0  0
   41.9300   25.9570   32.7610 H   0  0  0  0  0  0  0  0  0  0  0  0
   41.5880   25.9200   34.5770 H   0  0  0  0  0  0  0  0  0  0  0  0
   40.4100   27.8810   33.9830 H   0  0  0  0  0  0  0  0  0  0  0  0
   40.1360   27.3690   32.2940 H   0  0  0  0  0  0  0  0  0  0  0  0
   38.9230   26.4280   34.8290 H   0  0  0  0  0  0  0  0  0  0  0  0
   39.9530   22.8130   37.8500 C   0  0  0  0  0  0  0  0  0  0  0  0
   38.8370   23.2490   38.5960 C   0  0  0  0  0  0  0  0  0  0  0  0
   37.7180   23.6630   37.8770 C   0  0  0  0  0  0  0  0  0  0  0  0
   37.7690   23.6220   36.5170 N   0  0  0  0  0  0  0  0  0  0  0  0
   38.8430   23.2040   35.8580 C   0  0  0  0  0  0  0  0  0  0  0  0
   39.9370   22.7990   36.5170 N   0  0  0  0  0  0  0  0  0  0  0  0
   38.8380   23.1830   34.4400 N   0  0  0  0  0  0  0  0  0  0  0  0
   39.6480   22.2360   33.6860 C   0  0  0  0  0  0  0  0  0  0  0  0
   38.7820   21.4800   32.7250 C   0  0  0  0  0  0  0  0  0  0  0  0
   37.5440   22.0050   32.4670 N   0  0  0  0  0  0  0  0  0  0  0  0
   37.2420   23.3970   32.6770 C   0  0  0  0  0  0  0  0  0  0  0  0
   38.0250   24.1060   33.6680 C   0  0  2  0  0  0  0  0  0  0  0  0
   40.7930   22.5040   38.4620 H   0  0  0  0  0  0  0  0  0  0  0  0
   38.7510   23.2990   39.6600 H   0  0  0  0  0  0  0  0  0  0  0  0
   36.7800   24.0260   38.3080 H   0  0  0  0  0  0  0  0  0  0  0  0
   40.0260   21.4880   34.4510 H   0  0  0  0  0  0  0  0  0  0  0  0
   40.5610   22.6660   33.2750 H   0  0  0  0  0  0  0  0  0  0  0  0
   39.3750   21.4320   31.7660 H   0  0  0  0  0  0  0  0  0  0  0  0
   38.6840   20.4150   33.0220 H   0  0  0  0  0  0  0  0  0  0  0  0
   36.7510   21.4050   32.2550 H   0  0  0  0  0  0  0  0  0  0  0  0
   36.1810   23.3250   33.1040 H   0  0  0  0  0  0  0  0  0  0  0  0
   37.0460   23.7880   31.6910 H   0  0  0  0  0  0  0  0  0  0  0  0
   37.3830   24.6650   34.4150 H   0  0  0  0  0  0  0  0  0  0  0  0
   38.0930   27.6770   31.8110 C   0  0  0  0  0  3  0  0  0  0  0  0
   37.8630   27.3320   33.1330 C   0  0  0  0  0  0  0  0  0  0  0  0
   36.7700   27.9370   33.7200 C   0  0  0  0  0  0  0  0  0  0  0  0
   36.6040   27.6570   34.7530 H   0  0  0  0  0  0  0  0  0  0  0  0
   35.9620   28.8220   33.0400 C   0  0  0  0  0  0  0  0  0  0  0  0
   34.8670   29.4670   33.5300 N   0  0  0  0  0  0  0  0  0  0  0  0
   34.4650   29.3970   34.4880 H   0  0  0  0  0  0  0  0  0  0  0  0
   34.3800   30.2230   32.5540 C   0  0  0  0  0  0  0  0  0  0  0  0
   33.5180   30.8680   32.5930 H   0  0  0  0  0  0  0  0  0  0  0  0
   35.1850   30.0530   31.4220 C   0  0  0  0  0  3  0  0  0  0  0  0
   36.2060   29.1500   31.7360 C   0  0  0  0  0  0  0  0  0  0  0  0
   37.2920   28.5620   31.1180 C   0  0  0  0  0  3  0  0  0  0  0  0
  1  2  1  1  0  0  0
  1 24  1  0  0  0  0
  1  5  1  0  0  0  0
  2  3  1  0  0  0  0
  2  7  1  0  0  0  0
  3  9  1  0  0  0  0
  4  3  1  0  0  0  0
  4  5  1  0  0  0  0
  4 10  1  0  0  0  0
  5 12  1  1  0  0  0
  6  2  1  0  0  0  0
  8  3  1  0  0  0  0
 11  4  1  0  0  0  0
 13 25  1  0  0  0  0
 13 14  1  0  0  0  0
 14 26  1  0  0  0  0
 15 27  1  0  0  0  0
 15 14  2  0  0  0  0
 16 15  1  0  0  0  0
 17 16  2  0  0  0  0
 17 18  1  0  0  0  0
 18 13  2  0  0  0  0
 19 17  1  0  0  0  0
 20 19  1  0  0  0  0
 20 28  1  0  0  0  0
 21 31  1  0  0  0  0
 21 20  1  0  0  0  0
 22 23  1  0  0  0  0
 22 21  1  0  0  0  0
 23 33  1  0  0  0  0
 23 24  1  0  0  0  0
 24 35  1  1  0  0  0
 24 19  1  0  0  0  0
 29 20  1  0  0  0  0
 30 21  1  0  0  0  0
 32 22  1  0  0  0  0
 34 23  1  0  0  0  0
 36 37  1  0  0  0  0
 37 38  2  0  0  0  0
 37  5  1  0  0  0  0
 38 39  1  0  0  0  0
 40 41  1  0  0  0  0
 40 38  1  0  0  0  0
 41 42  1  0  0  0  0
 43 44  1  0  0  0  0
 43 41  1  0  0  0  0
 45 46  1  0  0  0  0
 45 43  2  0  0  0  0
 46 40  2  0  0  0  0
 47 46  1  0  0  0  0
 47 36  2  0  0  0  0
M  END
>  <minimizedAffinity>
-6.19083118

$$$$

 OpenBabel03272505533D

 47 51  0  0  1  0  0  0  0  0999 V2000
   37.7940   24.1670   33.0060 N   0  0  2  0  0  0  0  0  0  0  0  0
   37.3920   22.7610   33.0020 C   0  0  0  0  0  0  0  0  0  0  0  0
   36.7030   22.4960   31.6770 C   0  0  0  0  0  0  0  0  0  0  0  0
   36.5760   23.8550   31.0960 C   0  0  0  0  0  0  0  0  0  0  0  0
   37.8100   24.5970   31.6550 C   0  0  1  0  0  0  0  0  0  0  0  0
   36.8110   22.4690   33.8790 H   0  0  0  0  0  0  0  0  0  0  0  0
   38.3560   22.1840   32.9710 H   0  0  0  0  0  0  0  0  0  0  0  0
   35.6890   22.0980   31.9400 H   0  0  0  0  0  0  0  0  0  0  0  0
   37.2660   21.7890   31.0280 H   0  0  0  0  0  0  0  0  0  0  0  0
   36.5900   23.8040   29.9960 H   0  0  0  0  0  0  0  0  0  0  0  0
   35.6390   24.3640   31.4010 H   0  0  0  0  0  0  0  0  0  0  0  0
   38.5690   24.1810   30.9880 H   0  0  0  0  0  0  0  0  0  0  0  0
   38.0280   24.4040   38.3500 C   0  0  0  0  0  0  0  0  0  0  0  0
   38.8060   23.2600   38.6270 C   0  0  0  0  0  0  0  0  0  0  0  0
   39.5860   22.7570   37.5870 C   0  0  0  0  0  0  0  0  0  0  0  0
   39.5500   23.3940   36.3840 N   0  0  0  0  0  0  0  0  0  0  0  0
   38.8020   24.4700   36.1710 C   0  0  0  0  0  0  0  0  0  0  0  0
   38.0400   24.9790   37.1480 N   0  0  0  0  0  0  0  0  0  0  0  0
   38.8050   25.0910   34.8970 N   0  0  0  0  0  0  0  0  0  0  0  0
   38.5400   26.5140   34.7380 C   0  0  0  0  0  0  0  0  0  0  0  0
   39.6550   27.1550   33.9690 C   0  0  0  0  0  0  0  0  0  0  0  0
   40.4890   26.3160   33.2790 N   0  0  0  0  0  0  0  0  0  0  0  0
   40.0910   24.9900   32.8860 C   0  0  0  0  0  0  0  0  0  0  0  0
   39.0710   24.3380   33.6830 C   0  0  2  0  0  0  0  0  0  0  0  0
   37.4440   24.7480   39.1960 H   0  0  0  0  0  0  0  0  0  0  0  0
   38.8670   22.7270   39.5530 H   0  0  0  0  0  0  0  0  0  0  0  0
   40.2390   21.8820   37.6440 H   0  0  0  0  0  0  0  0  0  0  0  0
   38.5710   26.9440   35.7880 H   0  0  0  0  0  0  0  0  0  0  0  0
   37.5300   26.7400   34.3990 H   0  0  0  0  0  0  0  0  0  0  0  0
   39.1500   27.8580   33.2450 H   0  0  0  0  0  0  0  0  0  0  0  0
   40.2520   27.8330   34.6130 H   0  0  0  0  0  0  0  0  0  0  0  0
   41.4710   26.5440   33.1430 H   0  0  0  0  0  0  0  0  0  0  0  0
   41.0600   24.4090   33.0760 H   0  0  0  0  0  0  0  0  0  0  0  0
   40.0670   25.0170   31.8080 H   0  0  0  0  0  0  0  0  0  0  0  0
   39.3740   23.2990   34.0150 H   0  0  0  0  0  0  0  0  0  0  0  0
   38.2020   26.7120   30.5000 C   0  0  0  0  0  3  0  0  0  0  0  0
   37.4210   26.0060   31.4000 C   0  0  0  0  0  0  0  0  0  0  0  0
   36.3750   26.7150   31.9580 C   0  0  0  0  0  0  0  0  0  0  0  0
   35.7740   26.1500   32.6600 H   0  0  0  0  0  0  0  0  0  0  0  0
   36.1240   28.0320   31.6410 C   0  0  0  0  0  0  0  0  0  0  0  0
   35.1230   28.8120   32.1340 N   0  0  0  0  0  0  0  0  0  0  0  0
   34.3910   28.5440   32.8250 H   0  0  0  0  0  0  0  0  0  0  0  0
   35.2370   30.0090   31.5730 C   0  0  0  0  0  0  0  0  0  0  0  0
   34.6110   30.8710   31.7350 H   0  0  0  0  0  0  0  0  0  0  0  0
   36.3350   29.9860   30.7050 C   0  0  0  0  0  3  0  0  0  0  0  0
   36.9070   28.7110   30.7500 C   0  0  0  0  0  0  0  0  0  0  0  0
   37.9620   28.0310   30.1730 C   0  0  0  0  0  3  0  0  0  0  0  0
  1  2  1  6  0  0  0
  1 24  1  0  0  0  0
  2  6  1  0  0  0  0
  3  8  1  0  0  0  0
  3  2  1  0  0  0  0
  4 11  1  0  0  0  0
  4  5  1  0  0  0  0
  4  3  1  0  0  0  0
  5 12  1  6  0  0  0
  5  1  1  0  0  0  0
  7  2  1  0  0  0  0
  9  3  1  0  0  0  0
 10  4  1  0  0  0  0
 13 14  1  0  0  0  0
 13 25  1  0  0  0  0
 14 26  1  0  0  0  0
 15 27  1  0  0  0  0
 15 14  2  0  0  0  0
 16 15  1  0  0  0  0
 17 16  2  0  0  0  0
 17 18  1  0  0  0  0
 18 13  2  0  0  0  0
 19 17  1  0  0  0  0
 20 19  1  0  0  0  0
 20 28  1  0  0  0  0
 21 31  1  0  0  0  0
 21 20  1  0  0  0  0
 22 21  1  0  0  0  0
 23 33  1  0  0  0  0
 23 22  1  0  0  0  0
 23 24  1  0  0  0  0
 24 35  1  1  0  0  0
 24 19  1  0  0  0  0
 29 20  1  0  0  0  0
 30 21  1  0  0  0  0
 32 22  1  0  0  0  0
 34 23  1  0  0  0  0
 36 37  1  0  0  0  0
 37  5  1  0  0  0  0
 37 38  2  0  0  0  0
 38 39  1  0  0  0  0
 40 38  1  0  0  0  0
 40 41  1  0  0  0  0
 41 42  1  0  0  0  0
 43 44  1  0  0  0  0
 43 41  1  0  0  0  0
 45 46  1  0  0  0  0
 45 43  2  0  0  0  0
 46 40  2  0  0  0  0
 47 36  2  0  0  0  0
 47 46  1  0  0  0  0
M  END
>  <minimizedAffinity>
-6.17086983

$$$$

 OpenBabel03272505533D

 47 51  0  0  1  0  0  0  0  0999 V2000
   39.1990   24.9910   34.3100 N   0  0  2  0  0  0  0  0  0  0  0  0
   38.9550   24.9740   35.7520 C   0  0  0  0  0  0  0  0  0  0  0  0
   37.8800   26.0050   36.0360 C   0  0  0  0  0  0  0  0  0  0  0  0
   37.7340   26.6950   34.7310 C   0  0  0  0  0  0  0  0  0  0  0  0
   38.0640   25.5890   33.7050 C   0  0  1  0  0  0  0  0  0  0  0  0
   39.8620   25.0910   36.3500 H   0  0  0  0  0  0  0  0  0  0  0  0
   38.4870   23.9730   35.9550 H   0  0  0  0  0  0  0  0  0  0  0  0
   38.3260   26.7050   36.7900 H   0  0  0  0  0  0  0  0  0  0  0  0
   36.9320   25.5550   36.4060 H   0  0  0  0  0  0  0  0  0  0  0  0
   36.7070   27.0750   34.6110 H   0  0  0  0  0  0  0  0  0  0  0  0
   38.4280   27.5540   34.6220 H   0  0  0  0  0  0  0  0  0  0  0  0
   37.1150   25.0480   33.7350 H   0  0  0  0  0  0  0  0  0  0  0  0
   35.9350   20.9190   35.5100 C   0  0  0  0  0  0  0  0  0  0  0  0
   35.4800   20.5620   34.2230 C   0  0  0  0  0  0  0  0  0  0  0  0
   36.2600   20.9680   33.1410 C   0  0  0  0  0  0  0  0  0  0  0  0
   37.3970   21.6740   33.3900 N   0  0  0  0  0  0  0  0  0  0  0  0
   37.7850   21.9860   34.6210 C   0  0  0  0  0  0  0  0  0  0  0  0
   37.0590   21.6130   35.6830 N   0  0  0  0  0  0  0  0  0  0  0  0
   38.9800   22.7230   34.8190 N   0  0  0  0  0  0  0  0  0  0  0  0
   39.7680   22.5910   36.0370 C   0  0  0  0  0  0  0  0  0  0  0  0
   41.1870   22.2590   35.6900 C   0  0  0  0  0  0  0  0  0  0  0  0
   41.5710   22.4760   34.3930 N   0  0  0  0  0  0  0  0  0  0  0  0
   40.8750   23.3940   33.5300 C   0  0  0  0  0  0  0  0  0  0  0  0
   39.4780   23.6500   33.8180 C   0  0  2  0  0  0  0  0  0  0  0  0
   35.2880   20.5770   36.3100 H   0  0  0  0  0  0  0  0  0  0  0  0
   34.5970   20.0110   33.9780 H   0  0  0  0  0  0  0  0  0  0  0  0
   36.0420   20.7710   32.0880 H   0  0  0  0  0  0  0  0  0  0  0  0
   39.3380   21.6890   36.5760 H   0  0  0  0  0  0  0  0  0  0  0  0
   39.6240   23.4050   36.7460 H   0  0  0  0  0  0  0  0  0  0  0  0
   41.8170   22.8950   36.3770 H   0  0  0  0  0  0  0  0  0  0  0  0
   41.4440   21.2220   35.9890 H   0  0  0  0  0  0  0  0  0  0  0  0
   42.2710   21.8900   33.9460 H   0  0  0  0  0  0  0  0  0  0  0  0
   40.8940   22.8170   32.5400 H   0  0  0  0  0  0  0  0  0  0  0  0
   41.5880   24.1790   33.3310 H   0  0  0  0  0  0  0  0  0  0  0  0
   38.8140   23.5220   32.9090 H   0  0  0  0  0  0  0  0  0  0  0  0
   39.6220   26.7830   32.2540 C   0  0  0  0  0  3  0  0  0  0  0  0
   38.3110   26.4060   32.4910 C   0  0  0  0  0  0  0  0  0  0  0  0
   37.3910   26.8500   31.5620 C   0  0  0  0  0  0  0  0  0  0  0  0
   36.3700   26.5470   31.7610 H   0  0  0  0  0  0  0  0  0  0  0  0
   37.7510   27.6150   30.4740 C   0  0  0  0  0  0  0  0  0  0  0  0
   36.9220   28.0980   29.5080 N   0  0  0  0  0  0  0  0  0  0  0  0
   35.8920   27.9710   29.4340 H   0  0  0  0  0  0  0  0  0  0  0  0
   37.6670   28.7810   28.6480 C   0  0  0  0  0  0  0  0  0  0  0  0
   37.3390   29.2990   27.7620 H   0  0  0  0  0  0  0  0  0  0  0  0
   38.9980   28.7290   29.0800 C   0  0  0  0  0  3  0  0  0  0  0  0
   39.0510   27.9770   30.2580 C   0  0  0  0  0  0  0  0  0  0  0  0
   39.9970   27.5490   31.1690 C   0  0  0  0  0  3  0  0  0  0  0  0
  1  2  1  1  0  0  0
  2  7  1  0  0  0  0
  2  3  1  0  0  0  0
  2  6  1  0  0  0  0
  3  9  1  0  0  0  0
  3  8  1  0  0  0  0
  4  3  1  0  0  0  0
  5 12  1  6  0  0  0
  5  1  1  0  0  0  0
  5  4  1  0  0  0  0
 10  4  1  0  0  0  0
 11  4  1  0  0  0  0
 13 18  1  0  0  0  0
 13 25  1  0  0  0  0
 14 13  2  0  0  0  0
 15 16  2  0  0  0  0
 15 14  1  0  0  0  0
 16 17  1  0  0  0  0
 17 19  1  0  0  0  0
 17 18  2  0  0  0  0
 19 20  1  0  0  0  0
 20 28  1  0  0  0  0
 20 29  1  0  0  0  0
 21 31  1  0  0  0  0
 21 20  1  0  0  0  0
 21 30  1  0  0  0  0
 22 21  1  0  0  0  0
 23 24  1  0  0  0  0
 23 22  1  0  0  0  0
 24 35  1  6  0  0  0
 24  1  1  0  0  0  0
 24 19  1  0  0  0  0
 26 14  1  0  0  0  0
 27 15  1  0  0  0  0
 32 22  1  0  0  0  0
 33 23  1  0  0  0  0
 34 23  1  0  0  0  0
 36 37  1  0  0  0  0
 37  5  1  0  0  0  0
 38 39  1  0  0  0  0
 38 37  2  0  0  0  0
 40 38  1  0  0  0  0
 41 40  1  0  0  0  0
 42 41  1  0  0  0  0
 43 45  2  0  0  0  0
 43 41  1  0  0  0  0
 44 43  1  0  0  0  0
 45 46  1  0  0  0  0
 46 40  2  0  0  0  0
 46 47  1  0  0  0  0
 47 36  2  0  0  0  0
M  END
>  <minimizedAffinity>
-6.10872746

$$$$

 OpenBabel03272505533D

 47 51  0  0  1  0  0  0  0  0999 V2000
   38.6600   25.1180   33.2230 N   0  0  2  0  0  0  0  0  0  0  0  0
   38.8560   23.6880   32.9840 C   0  0  0  0  0  0  0  0  0  0  0  0
   38.5740   23.4370   31.5150 C   0  0  0  0  0  0  0  0  0  0  0  0
   38.0240   24.7380   31.0600 C   0  0  0  0  0  0  0  0  0  0  0  0
   38.7440   25.7630   31.9640 C   0  0  1  0  0  0  0  0  0  0  0  0
   38.2930   23.0490   33.6670 H   0  0  0  0  0  0  0  0  0  0  0  0
   39.9590   23.5200   33.1220 H   0  0  0  0  0  0  0  0  0  0  0  0
   37.7710   22.6560   31.4930 H   0  0  0  0  0  0  0  0  0  0  0  0
   39.4760   23.1160   30.9480 H   0  0  0  0  0  0  0  0  0  0  0  0
   38.2520   24.8980   29.9940 H   0  0  0  0  0  0  0  0  0  0  0  0
   36.9240   24.8050   31.1870 H   0  0  0  0  0  0  0  0  0  0  0  0
   39.7100   25.7830   31.4540 H   0  0  0  0  0  0  0  0  0  0  0  0
   40.5890   21.8970   37.0420 C   0  0  0  0  0  0  0  0  0  0  0  0
   41.9590   21.8840   36.7030 C   0  0  0  0  0  0  0  0  0  0  0  0
   42.4260   22.9330   35.9130 C   0  0  0  0  0  0  0  0  0  0  0  0
   41.5430   23.8930   35.5230 N   0  0  0  0  0  0  0  0  0  0  0  0
   40.2610   23.8620   35.8670 C   0  0  0  0  0  0  0  0  0  0  0  0
   39.7780   22.8680   36.6240 N   0  0  0  0  0  0  0  0  0  0  0  0
   39.3880   24.8900   35.4300 N   0  0  0  0  0  0  0  0  0  0  0  0
   38.2090   25.2710   36.1960 C   0  0  0  0  0  0  0  0  0  0  0  0
   38.2300   26.7450   36.4620 C   0  0  0  0  0  0  0  0  0  0  0  0
   39.0830   27.4960   35.6970 N   0  0  0  0  0  0  0  0  0  0  0  0
   39.5660   27.0470   34.4180 C   0  0  0  0  0  0  0  0  0  0  0  0
   39.6240   25.6160   34.1940 C   0  0  2  0  0  0  0  0  0  0  0  0
   40.2850   21.0570   37.6560 H   0  0  0  0  0  0  0  0  0  0  0  0
   42.6880   21.1540   36.9850 H   0  0  0  0  0  0  0  0  0  0  0  0
   43.4550   23.0630   35.5690 H   0  0  0  0  0  0  0  0  0  0  0  0
   38.3230   24.7520   37.1990 H   0  0  0  0  0  0  0  0  0  0  0  0
   37.2770   24.8660   35.8030 H   0  0  0  0  0  0  0  0  0  0  0  0
   37.1700   27.0930   36.2890 H   0  0  0  0  0  0  0  0  0  0  0  0
   38.4010   26.9600   37.5370 H   0  0  0  0  0  0  0  0  0  0  0  0
   39.5220   28.3350   36.0680 H   0  0  0  0  0  0  0  0  0  0  0  0
   40.6530   27.4050   34.4600 H   0  0  0  0  0  0  0  0  0  0  0  0
   39.1420   27.7370   33.7060 H   0  0  0  0  0  0  0  0  0  0  0  0
   40.6340   25.2740   33.8140 H   0  0  0  0  0  0  0  0  0  0  0  0
   38.2890   27.8650   30.8090 C   0  0  0  0  0  3  0  0  0  0  0  0
   37.8800   26.9540   31.7680 C   0  0  0  0  0  0  0  0  0  0  0  0
   36.7140   27.2790   32.4320 C   0  0  0  0  0  0  0  0  0  0  0  0
   36.4070   26.5570   33.1790 H   0  0  0  0  0  0  0  0  0  0  0  0
   36.0040   28.4280   32.1600 C   0  0  0  0  0  0  0  0  0  0  0  0
   34.8500   28.8340   32.7570 N   0  0  0  0  0  0  0  0  0  0  0  0
   34.3200   28.3470   33.5090 H   0  0  0  0  0  0  0  0  0  0  0  0
   34.5000   29.9890   32.2060 C   0  0  0  0  0  0  0  0  0  0  0  0
   33.6390   30.5920   32.4380 H   0  0  0  0  0  0  0  0  0  0  0  0
   35.4550   30.3220   31.2380 C   0  0  0  0  0  3  0  0  0  0  0  0
   36.4250   29.3150   31.2090 C   0  0  0  0  0  0  0  0  0  0  0  0
   37.5890   29.0210   30.5260 C   0  0  0  0  0  3  0  0  0  0  0  0
  1  2  1  6  0  0  0
  1 24  1  0  0  0  0
  2  7  1  0  0  0  0
  2  6  1  0  0  0  0
  3  2  1  0  0  0  0
  4 11  1  0  0  0  0
  4  3  1  0  0  0  0
  4  5  1  0  0  0  0
  5 12  1  6  0  0  0
  5  1  1  0  0  0  0
  8  3  1  0  0  0  0
  9  3  1  0  0  0  0
 10  4  1  0  0  0  0
 13 25  1  0  0  0  0
 14 26  1  0  0  0  0
 14 13  1  0  0  0  0
 15 14  2  0  0  0  0
 16 17  2  0  0  0  0
 16 15  1  0  0  0  0
 17 18  1  0  0  0  0
 18 13  2  0  0  0  0
 19 17  1  0  0  0  0
 19 20  1  0  0  0  0
 20 21  1  0  0  0  0
 20 28  1  0  0  0  0
 21 31  1  0  0  0  0
 22 32  1  0  0  0  0
 22 21  1  0  0  0  0
 23 33  1  0  0  0  0
 23 22  1  0  0  0  0
 24 35  1  6  0  0  0
 24 23  1  0  0  0  0
 24 19  1  0  0  0  0
 27 15  1  0  0  0  0
 29 20  1  0  0  0  0
 30 21  1  0  0  0  0
 34 23  1  0  0  0  0
 36 37  1  0  0  0  0
 37  5  1  0  0  0  0
 37 38  2  0  0  0  0
 38 39  1  0  0  0  0
 40 38  1  0  0  0  0
 40 41  1  0  0  0  0
 41 42  1  0  0  0  0
 43 44  1  0  0  0  0
 43 41  1  0  0  0  0
 45 43  2  0  0  0  0
 46 45  1  0  0  0  0
 46 40  2  0  0  0  0
 47 36  2  0  0  0  0
 47 46  1  0  0  0  0
M  END
>  <minimizedAffinity>
-6.0351634

$$$$

 OpenBabel03272505533D

 47 51  0  0  1  0  0  0  0  0999 V2000
   37.2860   27.8530   32.9050 N   0  0  2  0  0  0  0  0  0  0  0  0
   38.4520   27.0190   33.1900 C   0  0  0  0  0  0  0  0  0  0  0  0
   38.5630   26.9030   34.6980 C   0  0  0  0  0  0  0  0  0  0  0  0
   37.5490   27.8740   35.1760 C   0  0  0  0  0  0  0  0  0  0  0  0
   36.4740   27.8400   34.0680 C   0  0  1  0  0  0  0  0  0  0  0  0
   39.3650   27.3580   32.6950 H   0  0  0  0  0  0  0  0  0  0  0  0
   38.1730   25.9950   32.8190 H   0  0  0  0  0  0  0  0  0  0  0  0
   39.5920   27.2700   34.9530 H   0  0  0  0  0  0  0  0  0  0  0  0
   38.3930   25.8680   35.0690 H   0  0  0  0  0  0  0  0  0  0  0  0
   37.1450   27.5570   36.1510 H   0  0  0  0  0  0  0  0  0  0  0  0
   37.9600   28.8980   35.2960 H   0  0  0  0  0  0  0  0  0  0  0  0
   35.9810   26.9060   34.3450 H   0  0  0  0  0  0  0  0  0  0  0  0
   38.0720   22.8820   31.0760 C   0  0  0  0  0  0  0  0  0  0  0  0
   36.7730   22.3470   31.2110 C   0  0  0  0  0  0  0  0  0  0  0  0
   35.7190   23.2560   31.2930 C   0  0  0  0  0  0  0  0  0  0  0  0
   36.0050   24.5860   31.2380 N   0  0  0  0  0  0  0  0  0  0  0  0
   37.2450   25.0430   31.1100 C   0  0  0  0  0  0  0  0  0  0  0  0
   38.2810   24.1970   31.0290 N   0  0  0  0  0  0  0  0  0  0  0  0
   37.4810   26.4400   31.0580 N   0  0  0  0  0  0  0  0  0  0  0  0
   38.6240   26.9970   30.3480 C   0  0  0  0  0  0  0  0  0  0  0  0
   38.1590   28.0280   29.3660 C   0  0  0  0  0  0  0  0  0  0  0  0
   36.8870   28.5080   29.5330 N   0  0  0  0  0  0  0  0  0  0  0  0
   36.2010   28.4390   30.7960 C   0  0  0  0  0  0  0  0  0  0  0  0
   36.5950   27.3870   31.7120 C   0  0  2  0  0  0  0  0  0  0  0  0
   38.8490   22.1280   31.0170 H   0  0  0  0  0  0  0  0  0  0  0  0
   36.5000   21.3140   31.2590 H   0  0  0  0  0  0  0  0  0  0  0  0
   34.6620   22.9990   31.4000 H   0  0  0  0  0  0  0  0  0  0  0  0
   39.0530   26.1350   29.7460 H   0  0  0  0  0  0  0  0  0  0  0  0
   39.4480   27.2890   30.9980 H   0  0  0  0  0  0  0  0  0  0  0  0
   38.8950   28.8790   29.4590 H   0  0  0  0  0  0  0  0  0  0  0  0
   38.2950   27.6810   28.3210 H   0  0  0  0  0  0  0  0  0  0  0  0
   36.3260   28.8010   28.7380 H   0  0  0  0  0  0  0  0  0  0  0  0
   35.1400   28.1770   30.4510 H   0  0  0  0  0  0  0  0  0  0  0  0
   36.0770   29.4670   31.0990 H   0  0  0  0  0  0  0  0  0  0  0  0
   35.7150   26.7860   32.0930 H   0  0  0  0  0  0  0  0  0  0  0  0
   36.3620   30.0040   35.1930 C   0  0  0  0  0  3  0  0  0  0  0  0
   35.7280   29.0870   34.3720 C   0  0  0  0  0  0  0  0  0  0  0  0
   34.4660   29.4500   33.9440 C   0  0  0  0  0  0  0  0  0  0  0  0
   33.9830   28.7230   33.3030 H   0  0  0  0  0  0  0  0  0  0  0  0
   33.8780   30.6420   34.3070 C   0  0  0  0  0  0  0  0  0  0  0  0
   32.6460   31.0880   33.9390 N   0  0  0  0  0  0  0  0  0  0  0  0
   31.9530   30.6070   33.3290 H   0  0  0  0  0  0  0  0  0  0  0  0
   32.4660   32.2750   34.5030 C   0  0  0  0  0  0  0  0  0  0  0  0
   31.6020   32.9150   34.4250 H   0  0  0  0  0  0  0  0  0  0  0  0
   33.6110   32.5880   35.2460 C   0  0  0  0  0  3  0  0  0  0  0  0
   34.5210   31.5340   35.1190 C   0  0  0  0  0  0  0  0  0  0  0  0
   35.7860   31.2010   35.5660 C   0  0  0  0  0  3  0  0  0  0  0  0
  1  2  1  1  0  0  0
  1  5  1  0  0  0  0
  2  3  1  0  0  0  0
  3  8  1  0  0  0  0
  3  9  1  0  0  0  0
  3  4  1  0  0  0  0
  4 11  1  0  0  0  0
  4 10  1  0  0  0  0
  5 12  1  1  0  0  0
  5 37  1  0  0  0  0
  5  4  1  0  0  0  0
  6  2  1  0  0  0  0
  7  2  1  0  0  0  0
 13 14  1  0  0  0  0
 14 26  1  0  0  0  0
 14 15  2  0  0  0  0
 15 27  1  0  0  0  0
 16 15  1  0  0  0  0
 17 16  2  0  0  0  0
 18 13  2  0  0  0  0
 18 17  1  0  0  0  0
 19 17  1  0  0  0  0
 19 24  1  0  0  0  0
 20 29  1  0  0  0  0
 20 19  1  0  0  0  0
 21 30  1  0  0  0  0
 21 22  1  0  0  0  0
 21 20  1  0  0  0  0
 22 23  1  0  0  0  0
 23 34  1  0  0  0  0
 23 24  1  0  0  0  0
 24 35  1  1  0  0  0
 24  1  1  0  0  0  0
 25 13  1  0  0  0  0
 28 20  1  0  0  0  0
 31 21  1  0  0  0  0
 32 22  1  0  0  0  0
 33 23  1  0  0  0  0
 36 47  1  0  0  0  0
 37 36  2  0  0  0  0
 38 40  2  0  0  0  0
 38 37  1  0  0  0  0
 39 38  1  0  0  0  0
 40 46  1  0  0  0  0
 41 40  1  0  0  0  0
 41 43  1  0  0  0  0
 42 41  1  0  0  0  0
 43 45  2  0  0  0  0
 44 43  1  0  0  0  0
 46 45  1  0  0  0  0
 46 47  2  0  0  0  0
M  END
>  <minimizedAffinity>
-6.01523161

$$$$

 OpenBabel03272505533D

 47 51  0  0  1  0  0  0  0  0999 V2000
   37.0770   26.3000   33.6630 N   0  0  2  0  0  0  0  0  0  0  0  0
   36.3530   27.5700   33.6590 C   0  0  0  0  0  0  0  0  0  0  0  0
   36.9550   28.4320   34.7520 C   0  0  0  0  0  0  0  0  0  0  0  0
   37.8610   27.4890   35.4510 C   0  0  0  0  0  0  0  0  0  0  0  0
   38.3080   26.5280   34.3280 C   0  0  1  0  0  0  0  0  0  0  0  0
   35.2690   27.4560   33.7200 H   0  0  0  0  0  0  0  0  0  0  0  0
   36.6330   28.0610   32.6870 H   0  0  0  0  0  0  0  0  0  0  0  0
   36.1000   28.7070   35.4230 H   0  0  0  0  0  0  0  0  0  0  0  0
   37.4740   29.3340   34.3580 H   0  0  0  0  0  0  0  0  0  0  0  0
   38.7130   28.0310   35.8920 H   0  0  0  0  0  0  0  0  0  0  0  0
   37.3540   26.9340   36.2670 H   0  0  0  0  0  0  0  0  0  0  0  0
   39.0480   27.1710   33.8450 H   0  0  0  0  0  0  0  0  0  0  0  0
   41.9050   26.1920   31.3500 C   0  0  0  0  0  0  0  0  0  0  0  0
   42.0730   24.8040   31.1630 C   0  0  0  0  0  0  0  0  0  0  0  0
   40.9200   24.0200   31.1690 C   0  0  0  0  0  0  0  0  0  0  0  0
   39.7190   24.6360   31.3510 N   0  0  0  0  0  0  0  0  0  0  0  0
   39.6110   25.9480   31.5230 C   0  0  0  0  0  0  0  0  0  0  0  0
   40.6990   26.7300   31.5240 N   0  0  0  0  0  0  0  0  0  0  0  0
   38.3330   26.5330   31.7090 N   0  0  0  0  0  0  0  0  0  0  0  0
   38.0550   27.9050   31.3110 C   0  0  0  0  0  0  0  0  0  0  0  0
   36.8580   27.9400   30.4100 C   0  0  0  0  0  0  0  0  0  0  0  0
   36.0630   26.8250   30.3990 N   0  0  0  0  0  0  0  0  0  0  0  0
   36.0450   25.8840   31.4880 C   0  0  0  0  0  0  0  0  0  0  0  0
   37.2370   25.7920   32.3080 C   0  0  2  0  0  0  0  0  0  0  0  0
   42.8360   26.7490   31.3360 H   0  0  0  0  0  0  0  0  0  0  0  0
   42.9920   24.2770   31.0160 H   0  0  0  0  0  0  0  0  0  0  0  0
   40.8850   22.9350   31.0370 H   0  0  0  0  0  0  0  0  0  0  0  0
   38.9480   28.2250   30.6880 H   0  0  0  0  0  0  0  0  0  0  0  0
   38.0540   28.6140   32.1390 H   0  0  0  0  0  0  0  0  0  0  0  0
   36.2520   28.8270   30.7550 H   0  0  0  0  0  0  0  0  0  0  0  0
   37.1420   28.2100   29.3720 H   0  0  0  0  0  0  0  0  0  0  0  0
   35.5640   26.5420   29.5590 H   0  0  0  0  0  0  0  0  0  0  0  0
   35.9780   24.8930   30.9160 H   0  0  0  0  0  0  0  0  0  0  0  0
   35.0510   25.9590   31.9000 H   0  0  0  0  0  0  0  0  0  0  0  0
   37.6020   24.7270   32.4300 H   0  0  0  0  0  0  0  0  0  0  0  0
   38.0730   24.9710   36.1940 C   0  0  0  0  0  3  0  0  0  0  0  0
   38.8490   25.4020   35.1310 C   0  0  0  0  0  0  0  0  0  0  0  0
   40.0410   24.7270   34.9570 C   0  0  0  0  0  0  0  0  0  0  0  0
   40.6360   25.0760   34.1220 H   0  0  0  0  0  0  0  0  0  0  0  0
   40.4330   23.6960   35.7830 C   0  0  0  0  0  0  0  0  0  0  0  0
   41.5830   22.9730   35.6940 N   0  0  0  0  0  0  0  0  0  0  0  0
   42.3470   23.0800   34.9940 H   0  0  0  0  0  0  0  0  0  0  0  0
   41.5710   22.0820   36.6760 C   0  0  0  0  0  0  0  0  0  0  0  0
   42.3250   21.3460   36.9040 H   0  0  0  0  0  0  0  0  0  0  0  0
   40.3860   22.2440   37.4040 C   0  0  0  0  0  3  0  0  0  0  0  0
   39.6530   23.2860   36.8270 C   0  0  0  0  0  0  0  0  0  0  0  0
   38.4530   23.9400   37.0300 C   0  0  0  0  0  3  0  0  0  0  0  0
  1  2  1  6  0  0  0
  1  5  1  0  0  0  0
  2  6  1  0  0  0  0
  2  3  1  0  0  0  0
  3  8  1  0  0  0  0
  3  4  1  0  0  0  0
  4 10  1  0  0  0  0
  4 11  1  0  0  0  0
  5 12  1  6  0  0  0
  5 37  1  0  0  0  0
  5  4  1  0  0  0  0
  7  2  1  0  0  0  0
  9  3  1  0  0  0  0
 13 18  1  0  0  0  0
 14 15  1  0  0  0  0
 14 13  2  0  0  0  0
 15 16  2  0  0  0  0
 16 17  1  0  0  0  0
 17 18  2  0  0  0  0
 17 19  1  0  0  0  0
 19 24  1  0  0  0  0
 20 19  1  0  0  0  0
 20 29  1  0  0  0  0
 21 30  1  0  0  0  0
 21 20  1  0  0  0  0
 22 21  1  0  0  0  0
 22 23  1  0  0  0  0
 23 34  1  0  0  0  0
 23 24  1  0  0  0  0
 24 35  1  1  0  0  0
 24  1  1  0  0  0  0
 25 13  1  0  0  0  0
 26 14  1  0  0  0  0
 27 15  1  0  0  0  0
 28 20  1  0  0  0  0
 31 21  1  0  0  0  0
 32 22  1  0  0  0  0
 33 23  1  0  0  0  0
 36 47  1  0  0  0  0
 37 36  2  0  0  0  0
 38 37  1  0  0  0  0
 38 40  2  0  0  0  0
 39 38  1  0  0  0  0
 40 46  1  0  0  0  0
 41 40  1  0  0  0  0
 41 43  1  0  0  0  0
 42 41  1  0  0  0  0
 43 44  1  0  0  0  0
 43 45  2  0  0  0  0
 46 47  2  0  0  0  0
 46 45  1  0  0  0  0
M  END
>  <minimizedAffinity>
-5.97203302

$$$$

 OpenBabel03272505533D

 47 51  0  0  1  0  0  0  0  0999 V2000
   37.7870   24.4220   33.0740 N   0  0  2  0  0  0  0  0  0  0  0  0
   36.7940   24.1750   32.0290 C   0  0  0  0  0  0  0  0  0  0  0  0
   36.4490   22.6990   32.0800 C   0  0  0  0  0  0  0  0  0  0  0  0
   37.4480   22.1620   33.0360 C   0  0  0  0  0  0  0  0  0  0  0  0
   37.6970   23.3470   33.9940 C   0  0  1  0  0  0  0  0  0  0  0  0
   37.0970   24.5340   31.0430 H   0  0  0  0  0  0  0  0  0  0  0  0
   35.8730   24.7210   32.3700 H   0  0  0  0  0  0  0  0  0  0  0  0
   36.6570   22.3060   31.0510 H   0  0  0  0  0  0  0  0  0  0  0  0
   35.3970   22.5080   32.3870 H   0  0  0  0  0  0  0  0  0  0  0  0
   37.0400   21.2850   33.5640 H   0  0  0  0  0  0  0  0  0  0  0  0
   38.3910   21.8510   32.5400 H   0  0  0  0  0  0  0  0  0  0  0  0
   36.7930   23.2600   34.6020 H   0  0  0  0  0  0  0  0  0  0  0  0
   38.0570   28.8840   30.1250 C   0  0  0  0  0  0  0  0  0  0  0  0
   36.7380   29.3650   30.2600 C   0  0  0  0  0  0  0  0  0  0  0  0
   36.0010   28.8960   31.3470 C   0  0  0  0  0  0  0  0  0  0  0  0
   36.5930   28.0150   32.1990 N   0  0  0  0  0  0  0  0  0  0  0  0
   37.8400   27.5900   32.0300 C   0  0  0  0  0  0  0  0  0  0  0  0
   38.5760   28.0200   30.9960 N   0  0  0  0  0  0  0  0  0  0  0  0
   38.4030   26.6710   32.9510 N   0  0  0  0  0  0  0  0  0  0  0  0
   39.8360   26.6240   33.2060 C   0  0  0  0  0  0  0  0  0  0  0  0
   40.0950   26.7520   34.6760 C   0  0  0  0  0  0  0  0  0  0  0  0
   39.0290   26.5400   35.5090 N   0  0  0  0  0  0  0  0  0  0  0  0
   37.8770   25.7800   35.1030 C   0  0  0  0  0  0  0  0  0  0  0  0
   37.5790   25.7270   33.6860 C   0  0  2  0  0  0  0  0  0  0  0  0
   38.5800   29.2830   29.2620 H   0  0  0  0  0  0  0  0  0  0  0  0
   36.2320   30.0550   29.6190 H   0  0  0  0  0  0  0  0  0  0  0  0
   34.9710   29.1740   31.5870 H   0  0  0  0  0  0  0  0  0  0  0  0
   40.2590   27.5550   32.7120 H   0  0  0  0  0  0  0  0  0  0  0  0
   40.3490   25.8090   32.6960 H   0  0  0  0  0  0  0  0  0  0  0  0
   40.9020   25.9960   34.9020 H   0  0  0  0  0  0  0  0  0  0  0  0
   40.5750   27.7230   34.9180 H   0  0  0  0  0  0  0  0  0  0  0  0
   38.9470   27.0320   36.3950 H   0  0  0  0  0  0  0  0  0  0  0  0
   37.0340   26.3930   35.5800 H   0  0  0  0  0  0  0  0  0  0  0  0
   37.8860   24.9060   35.7350 H   0  0  0  0  0  0  0  0  0  0  0  0
   36.5050   25.9970   33.4540 H   0  0  0  0  0  0  0  0  0  0  0  0
   40.1110   23.0110   33.8750 C   0  0  0  0  0  3  0  0  0  0  0  0
   38.9620   22.9170   34.6410 C   0  0  0  0  0  0  0  0  0  0  0  0
   39.1400   22.4220   35.9170 C   0  0  0  0  0  0  0  0  0  0  0  0
   38.2320   22.3550   36.5030 H   0  0  0  0  0  0  0  0  0  0  0  0
   40.3760   22.0480   36.3980 C   0  0  0  0  0  0  0  0  0  0  0  0
   40.6540   21.5520   37.6350 N   0  0  0  0  0  0  0  0  0  0  0  0
   39.9840   21.3760   38.4120 H   0  0  0  0  0  0  0  0  0  0  0  0
   41.9590   21.3220   37.6890 C   0  0  0  0  0  0  0  0  0  0  0  0
   42.5220   20.9280   38.5190 H   0  0  0  0  0  0  0  0  0  0  0  0
   42.5210   21.6800   36.4580 C   0  0  0  0  0  3  0  0  0  0  0  0
   41.4990   22.1480   35.6250 C   0  0  0  0  0  0  0  0  0  0  0  0
   41.3560   22.6400   34.3420 C   0  0  0  0  0  3  0  0  0  0  0  0
  1  2  1  6  0  0  0
  1 24  1  0  0  0  0
  1  5  1  0  0  0  0
  2  3  1  0  0  0  0
  2  7  1  0  0  0  0
  3  9  1  0  0  0  0
  3  4  1  0  0  0  0
  4 10  1  0  0  0  0
  4  5  1  0  0  0  0
  5 12  1  1  0  0  0
  5 37  1  0  0  0  0
  6  2  1  0  0  0  0
  8  3  1  0  0  0  0
 11  4  1  0  0  0  0
 13 14  2  0  0  0  0
 13 18  1  0  0  0  0
 14 15  1  0  0  0  0
 15 27  1  0  0  0  0
 15 16  2  0  0  0  0
 17 16  1  0  0  0  0
 17 19  1  0  0  0  0
 18 17  2  0  0  0  0
 19 20  1  0  0  0  0
 19 24  1  0  0  0  0
 20 21  1  0  0  0  0
 21 30  1  0  0  0  0
 21 31  1  0  0  0  0
 21 22  1  0  0  0  0
 22 32  1  0  0  0  0
 23 22  1  0  0  0  0
 23 33  1  0  0  0  0
 23 34  1  0  0  0  0
 24 35  1  6  0  0  0
 24 23  1  0  0  0  0
 25 13  1  0  0  0  0
 26 14  1  0  0  0  0
 28 20  1  0  0  0  0
 29 20  1  0  0  0  0
 36 47  2  0  0  0  0
 36 37  1  0  0  0  0
 37 38  2  0  0  0  0
 38 40  1  0  0  0  0
 38 39  1  0  0  0  0
 40 41  1  0  0  0  0
 41 43  1  0  0  0  0
 41 42  1  0  0  0  0
 43 44  1  0  0  0  0
 45 43  2  0  0  0  0
 46 40  2  0  0  0  0
 46 45  1  0  0  0  0
 47 46  1  0  0  0  0
M  END
>  <minimizedAffinity>
-5.95272017

$$$$
