REMARK  Name = 
REMARK  4 active torsions:
REMARK  status: ('A' for Active; 'I' for Inactive)
REMARK    1  A    between atoms: C_1  and  C_8
REMARK    2  A    between atoms: C_3  and  N_12
REMARK    3  A    between atoms: C_10  and  C_13
REMARK    4  A    between atoms: C_17  and  C_31
REMARK                            x       y       z     vdW  Elec       q    Type
REMARK                         _______ _______ _______ _____ _____    ______ ____
ROOT
ATOM      1  C   UNL     1      39.183  31.435  43.333  0.00  0.00    +0.000 A 
ATOM      2  C   UNL     1      40.145  30.474  43.482  0.00  0.00    +0.000 A 
ATOM      3  C   UNL     1      40.869  30.109  42.358  0.00  0.00    +0.000 A 
ATOM      4  C   UNL     1      40.583  30.727  41.166  0.00  0.00    +0.000 A 
ATOM      5  C   UNL     1      39.611  31.700  41.010  0.00  0.00    +0.000 A 
ATOM      6  N   UNL     1      38.942  32.012  42.136  0.00  0.00    +0.000 NA
ATOM      7  H   UNL     1      40.356  29.998  44.428  0.00  0.00    +0.000 HD
ATOM      8  H   UNL     1      41.639  29.349  42.442  0.00  0.00    +0.000 HD
ATOM      9  H   UNL     1      41.150  30.440  40.291  0.00  0.00    +0.000 HD
ENDROOT
BRANCH   5  11
ATOM     10  C   UNL     1      40.290  33.081  39.166  0.00  0.00    +0.000 A 
ATOM     11  C   UNL     1      39.287  32.367  39.776  0.00  0.00    +0.000 A 
ATOM     12  C   UNL     1      38.041  32.311  39.207  0.00  0.00    +0.000 A 
ATOM     13  H   UNL     1      37.244  31.767  39.653  0.00  0.00    +0.000 HD
ATOM     14  C   UNL     1      37.736  32.960  38.010  0.00  0.00    +0.000 A 
ATOM     15  N   UNL     1      36.628  33.049  37.283  0.00  0.00    +0.000 N 
ATOM     16  H   UNL     1      35.693  32.607  37.494  0.00  0.00    +0.000 HD
ATOM     17  C   UNL     1      36.831  33.809  36.178  0.00  0.00    +0.000 A 
ATOM     18  H   UNL     1      36.171  34.098  35.368  0.00  0.00    +0.000 HD
ATOM     19  C   UNL     1      38.170  34.206  36.251  0.00  0.00    +0.000 A 
ATOM     20  C   UNL     1      38.748  33.678  37.399  0.00  0.00    +0.000 A 
ATOM     21  C   UNL     1      39.979  33.726  37.973  0.00  0.00    +0.000 A 
ENDBRANCH   5  11
BRANCH   1  22
ATOM     22  C   UNL     1      38.402  31.841  44.515  0.00  0.00    +0.000 C 
ATOM     23  O   UNL     1      37.292  32.422  44.400  0.00  0.00    +0.000 OA
ATOM     24  N   UNL     1      38.944  31.555  45.824  0.00  0.00    +0.000 N 
ATOM     25  H   UNL     1      39.916  31.252  45.984  0.00  0.00    +0.000 HD
BRANCH  24  28
ATOM     26  C   UNL     1      38.435  31.110  48.215  0.00  0.00    +0.000 C 
ATOM     27  C   UNL     1      38.673  32.559  48.099  0.00  0.00    +0.000 C 
ATOM     28  C   UNL     1      38.054  31.708  46.959  0.00  0.00    +0.000 C 
ATOM     29  H   UNL     1      39.355  30.499  48.303  0.00  0.00    +0.000 HD
ATOM     30  H   UNL     1      39.696  32.923  47.968  0.00  0.00    +0.000 HD
ATOM     31  H   UNL     1      38.022  33.259  48.634  0.00  0.00    +0.000 HD
ATOM     32  H   UNL     1      37.001  31.999  46.748  0.00  0.00    +0.000 HD
BRANCH  26  37
ATOM     33  C   UNL     1      35.085  30.223  49.550  0.00  0.00    +0.000 A 
ATOM     34  C   UNL     1      35.419  29.550  50.769  0.00  0.00    +0.000 A 
ATOM     35  C   UNL     1      36.820  29.428  51.102  0.00  0.00    +0.000 A 
ATOM     36  N   UNL     1      37.744  29.947  50.259  0.00  0.00    +0.000 NA
ATOM     37  C   UNL     1      37.362  30.574  49.118  0.00  0.00    +0.000 A 
ATOM     38  N   UNL     1      36.043  30.725  48.742  0.00  0.00    +0.000 NA
ATOM     39  H   UNL     1      34.031  30.299  49.328  0.00  0.00    +0.000 HD
ATOM     40  H   UNL     1      34.691  29.146  51.424  0.00  0.00    +0.000 HD
ATOM     41  H   UNL     1      37.079  28.922  52.021  0.00  0.00    +0.000 HD
ENDBRANCH  26  37
ENDBRANCH  24  28
ENDBRANCH   1  22
TORSDOF 4
