REMARK  Name = 
REMARK  2 active torsions:
REMARK  status: ('A' for Active; 'I' for Inactive)
REMARK    1  A    between atoms: C_2  and  C_12
REMARK    2  A    between atoms: C_20  and  C_37
REMARK                            x       y       z     vdW  Elec       q    Type
REMARK                         _______ _______ _______ _____ _____    ______ ____
ROOT
ATOM      1  C   UNL     1      36.837  31.119  48.538  0.00  0.00    +0.000 A 
ATOM      2  N   UNL     1      36.790  32.013  49.559  0.00  0.00    +0.000 NA
ATOM      3  C   UNL     1      37.680  33.019  49.605  0.00  0.00    +0.000 A 
ATOM      4  N   UNL     1      38.661  33.219  48.674  0.00  0.00    +0.000 NA
ATOM      5  C   UNL     1      38.733  32.347  47.649  0.00  0.00    +0.000 A 
ATOM      6  C   UNL     1      39.683  32.477  46.651  0.00  0.00    +0.000 A 
ATOM      7  C   UNL     1      39.720  31.560  45.589  0.00  0.00    +0.000 A 
ATOM      8  C   UNL     1      38.789  30.518  45.555  0.00  0.00    +0.000 A 
ATOM      9  C   UNL     1      37.858  30.434  46.581  0.00  0.00    +0.000 A 
ATOM     10  C   UNL     1      37.820  31.323  47.610  0.00  0.00    +0.000 A 
ATOM     11  H   UNL     1      37.668  33.751  50.410  0.00  0.00    +0.000 HD
ATOM     12  H   UNL     1      40.354  33.314  46.772  0.00  0.00    +0.000 HD
ATOM     13  H   UNL     1      40.502  31.769  44.878  0.00  0.00    +0.000 HD
ATOM     14  H   UNL     1      38.996  29.951  44.675  0.00  0.00    +0.000 HD
ENDROOT
BRANCH   1  16
ATOM     15  C   UNL     1      35.838  28.925  49.376  0.00  0.00    +0.000 A 
ATOM     16  C   UNL     1      35.849  30.102  48.579  0.00  0.00    +0.000 A 
ATOM     17  C   UNL     1      34.768  30.320  47.702  0.00  0.00    +0.000 A 
ATOM     18  N   UNL     1      33.760  29.410  47.635  0.00  0.00    +0.000 NA
ATOM     19  C   UNL     1      33.810  28.297  48.422  0.00  0.00    +0.000 A 
ATOM     20  N   UNL     1      34.816  28.053  49.274  0.00  0.00    +0.000 NA
ATOM     21  N   UNL     1      32.734  27.340  48.280  0.00  0.00    +0.000 N 
ATOM     22  C   UNL     1      31.357  27.632  48.540  0.00  0.00    +0.000 C 
ATOM     23  C   UNL     1      30.619  26.436  48.017  0.00  0.00    +0.000 C 
ATOM     24  C   UNL     1      31.610  25.604  47.238  0.00  0.00    +0.000 C 
ATOM     25  C   UNL     1      32.909  25.940  47.846  0.00  0.00    +0.000 C 
ATOM     26  H   UNL     1      36.686  28.832  50.019  0.00  0.00    +0.000 HD
ATOM     27  H   UNL     1      34.683  31.174  47.067  0.00  0.00    +0.000 HD
ATOM     28  H   UNL     1      31.055  28.518  47.969  0.00  0.00    +0.000 HD
ATOM     29  H   UNL     1      31.238  27.736  49.638  0.00  0.00    +0.000 HD
ATOM     30  H   UNL     1      29.713  26.671  47.428  0.00  0.00    +0.000 HD
ATOM     31  H   UNL     1      30.325  25.814  48.893  0.00  0.00    +0.000 HD
ATOM     32  H   UNL     1      31.593  26.005  46.191  0.00  0.00    +0.000 HD
ATOM     33  H   UNL     1      31.343  24.533  47.261  0.00  0.00    +0.000 HD
ATOM     34  H   UNL     1      33.140  25.373  48.771  0.00  0.00    +0.000 HD
ATOM     35  H   UNL     1      33.790  25.838  47.175  0.00  0.00    +0.000 HD
ENDBRANCH   1  16
BRANCH   9  37
ATOM     36  C   UNL     1      36.651  28.707  45.036  0.00  0.00    +0.000 A 
ATOM     37  C   UNL     1      37.136  29.225  46.223  0.00  0.00    +0.000 A 
ATOM     38  C   UNL     1      36.813  28.356  47.306  0.00  0.00    +0.000 A 
ATOM     39  H   UNL     1      37.139  28.645  48.321  0.00  0.00    +0.000 HD
ATOM     40  C   UNL     1      36.126  27.161  47.264  0.00  0.00    +0.000 A 
ATOM     41  N   UNL     1      35.759  26.262  48.178  0.00  0.00    +0.000 N 
ATOM     42  H   UNL     1      35.962  26.334  49.199  0.00  0.00    +0.000 HD
ATOM     43  C   UNL     1      35.105  25.304  47.498  0.00  0.00    +0.000 A 
ATOM     44  H   UNL     1      34.673  24.428  47.923  0.00  0.00    +0.000 HD
ATOM     45  C   UNL     1      35.055  25.596  46.140  0.00  0.00    +0.000 A 
ATOM     46  C   UNL     1      35.717  26.795  46.004  0.00  0.00    +0.000 A 
ATOM     47  C   UNL     1      35.959  27.537  44.874  0.00  0.00    +0.000 A 
ENDBRANCH   9  37
TORSDOF 2
