
 OpenBabel03272510083D

 47 52  0  0  0  0  0  0  0  0999 V2000
   36.6630   30.7070   48.5380 C   0  0  0  0  0  0  0  0  0  0  0  0
   37.1500   31.0380   49.7610 N   0  0  0  0  0  0  0  0  0  0  0  0
   38.2070   31.8630   49.8560 C   0  0  0  0  0  0  0  0  0  0  0  0
   38.8510   32.4120   48.7830 N   0  0  0  0  0  0  0  0  0  0  0  0
   38.3900   32.1000   47.5550 C   0  0  0  0  0  0  0  0  0  0  0  0
   38.9690   32.6190   46.4100 C   0  0  0  0  0  0  0  0  0  0  0  0
   38.4540   32.2860   45.1470 C   0  0  0  0  0  0  0  0  0  0  0  0
   37.3550   31.4260   45.0640 C   0  0  0  0  0  0  0  0  0  0  0  0
   36.8130   30.9350   46.2430 C   0  0  0  0  0  0  0  0  0  0  0  0
   37.3100   31.2580   47.4680 C   0  0  0  0  0  0  0  0  0  0  0  0
   38.6200   32.1470   50.8220 H   0  0  0  0  0  0  0  0  0  0  0  0
   39.8110   33.2710   46.5840 H   0  0  0  0  0  0  0  0  0  0  0  0
   38.9890   32.7540   44.3370 H   0  0  0  0  0  0  0  0  0  0  0  0
   37.1340   31.3120   44.0260 H   0  0  0  0  0  0  0  0  0  0  0  0
   35.5270   28.4260   48.3830 C   0  0  0  0  0  0  0  0  0  0  0  0
   35.5410   29.8380   48.5490 C   0  0  0  0  0  0  0  0  0  0  0  0
   34.3110   30.4960   48.7430 C   0  0  0  0  0  0  0  0  0  0  0  0
   33.1570   29.7770   48.7590 N   0  0  0  0  0  0  0  0  0  0  0  0
   33.2080   28.4250   48.5890 C   0  0  0  0  0  0  0  0  0  0  0  0
   34.3570   27.7580   48.4070 N   0  0  0  0  0  0  0  0  0  0  0  0
   31.9490   27.7140   48.5710 N   0  0  0  0  0  0  0  0  0  0  0  0
   31.0270   27.6800   49.6660 C   0  0  0  0  0  0  0  0  0  0  0  0
   29.7920   27.0520   49.0920 C   0  0  0  0  0  0  0  0  0  0  0  0
   29.9800   26.9800   47.5950 C   0  0  0  0  0  0  0  0  0  0  0  0
   31.4430   26.9320   47.4250 C   0  0  0  0  0  0  0  0  0  0  0  0
   36.4960   27.9990   48.2470 H   0  0  0  0  0  0  0  0  0  0  0  0
   34.2180   31.5510   48.8810 H   0  0  0  0  0  0  0  0  0  0  0  0
   30.7950   28.7040   49.9820 H   0  0  0  0  0  0  0  0  0  0  0  0
   31.4740   27.0480   50.4600 H   0  0  0  0  0  0  0  0  0  0  0  0
   28.8450   27.5500   49.3730 H   0  0  0  0  0  0  0  0  0  0  0  0
   29.7590   25.9960   49.4440 H   0  0  0  0  0  0  0  0  0  0  0  0
   29.6070   27.9570   47.1900 H   0  0  0  0  0  0  0  0  0  0  0  0
   29.4280   26.1290   47.1600 H   0  0  0  0  0  0  0  0  0  0  0  0
   31.8830   25.9210   47.5420 H   0  0  0  0  0  0  0  0  0  0  0  0
   31.8240   27.3420   46.4640 H   0  0  0  0  0  0  0  0  0  0  0  0
   34.6610   29.4540   46.3120 C   0  0  0  0  0  3  0  0  0  0  0  0
   35.7640   30.0630   45.7430 C   0  0  0  0  0  0  0  0  0  0  0  0
   35.8640   29.7100   44.3640 C   0  0  0  0  0  0  0  0  0  0  0  0
   36.7030   30.1250   43.7790 H   0  0  0  0  0  0  0  0  0  0  0  0
   35.0290   28.8920   43.6320 C   0  0  0  0  0  0  0  0  0  0  0  0
   35.0000   28.4820   42.3630 N   0  0  0  0  0  0  0  0  0  0  0  0
   35.6950   28.7520   41.6340 H   0  0  0  0  0  0  0  0  0  0  0  0
   33.9200   27.6870   42.2670 C   0  0  0  0  0  0  0  0  0  0  0  0
   33.5960   27.1860   41.3840 H   0  0  0  0  0  0  0  0  0  0  0  0
   33.2560   27.5890   43.4840 C   0  0  0  0  0  3  0  0  0  0  0  0
   33.9810   28.3710   44.3550 C   0  0  0  0  0  0  0  0  0  0  0  0
   33.7670   28.6280   45.6860 C   0  0  0  0  0  3  0  0  0  0  0  0
  1 16  1  0  0  0  0
  1  2  1  0  0  0  0
  2  3  2  0  0  0  0
  3 11  1  0  0  0  0
  4  3  1  0  0  0  0
  5  4  2  0  0  0  0
  6 12  1  0  0  0  0
  6  5  1  0  0  0  0
  7  6  2  0  0  0  0
  8  7  1  0  0  0  0
  8  9  2  0  0  0  0
  9 10  1  0  0  0  0
 10  5  1  0  0  0  0
 10  1  2  0  0  0  0
 13  7  1  0  0  0  0
 14  8  1  0  0  0  0
 15 20  2  0  0  0  0
 15 16  1  0  0  0  0
 16 17  2  0  0  0  0
 17 18  1  0  0  0  0
 17 27  1  0  0  0  0
 19 18  2  0  0  0  0
 20 19  1  0  0  0  0
 21 19  1  0  0  0  0
 21 22  1  0  0  0  0
 22 28  1  0  0  0  0
 22 29  1  0  0  0  0
 23 30  1  0  0  0  0
 23 31  1  0  0  0  0
 23 22  1  0  0  0  0
 24 23  1  0  0  0  0
 25 34  1  0  0  0  0
 25 24  1  0  0  0  0
 25 21  1  0  0  0  0
 26 15  1  0  0  0  0
 32 24  1  0  0  0  0
 33 24  1  0  0  0  0
 35 25  1  0  0  0  0
 37  9  1  0  0  0  0
 37 36  1  0  0  0  0
 38 37  2  0  0  0  0
 39 38  1  0  0  0  0
 40 46  2  0  0  0  0
 40 38  1  0  0  0  0
 41 40  1  0  0  0  0
 42 41  1  0  0  0  0
 43 41  1  0  0  0  0
 43 45  2  0  0  0  0
 44 43  1  0  0  0  0
 45 46  1  0  0  0  0
 46 47  1  0  0  0  0
 47 36  2  0  0  0  0
M  END
>  <minimizedAffinity>
-4.71907568

>  <minimizedRMSD>
1.79316211

$$$$
