
 OpenBabel03272508533D

 41 45  0  0  1  0  0  0  0  0999 V2000
   39.1550   31.4670   43.3370 C   0  0  0  0  0  0  0  0  0  0  0  0
   40.1300   30.5190   43.4800 C   0  0  0  0  0  0  0  0  0  0  0  0
   40.8490   30.1600   42.3500 C   0  0  0  0  0  0  0  0  0  0  0  0
   40.5450   30.7720   41.1600 C   0  0  0  0  0  0  0  0  0  0  0  0
   39.5590   31.7320   41.0100 C   0  0  0  0  0  0  0  0  0  0  0  0
   38.8960   32.0380   42.1410 N   0  0  0  0  0  0  0  0  0  0  0  0
   40.3550   30.0480   44.4250 H   0  0  0  0  0  0  0  0  0  0  0  0
   41.6290   29.4100   42.4300 H   0  0  0  0  0  0  0  0  0  0  0  0
   41.1080   30.4900   40.2800 H   0  0  0  0  0  0  0  0  0  0  0  0
   39.8290   31.9410   38.6330 C   0  0  0  0  0  0  0  0  0  0  0  0
   39.2160   32.3920   39.7770 C   0  0  0  0  0  0  0  0  0  0  0  0
   38.3210   33.4280   39.7130 C   0  0  0  0  0  0  0  0  0  0  0  0
   37.8290   33.7990   40.5790 H   0  0  0  0  0  0  0  0  0  0  0  0
   37.9940   34.0610   38.5140 C   0  0  0  0  0  0  0  0  0  0  0  0
   37.1760   35.0610   38.2100 N   0  0  0  0  0  0  0  0  0  0  0  0
   36.5680   35.6090   38.8760 H   0  0  0  0  0  0  0  0  0  0  0  0
   37.2000   35.3240   36.8790 C   0  0  0  0  0  0  0  0  0  0  0  0
   36.6740   36.0540   36.2760 H   0  0  0  0  0  0  0  0  0  0  0  0
   38.1090   34.4030   36.3450 C   0  0  0  0  0  0  0  0  0  0  0  0
   38.6130   33.6050   37.3640 C   0  0  0  0  0  0  0  0  0  0  0  0
   39.5000   32.5780   37.4390 C   0  0  0  0  0  0  0  0  0  0  0  0
   38.3790   31.8660   44.5250 C   0  0  0  0  0  0  0  0  0  0  0  0
   37.2650   32.4420   44.4180 O   0  0  0  0  0  0  0  0  0  0  0  0
   38.9300   31.5800   45.8300 N   0  0  0  0  0  0  0  0  0  0  0  0
   39.9050   31.2810   45.9830 H   0  0  0  0  0  0  0  0  0  0  0  0
   38.4300   31.1110   48.2180 C   0  0  2  0  0  0  0  0  0  0  0  0
   38.6760   32.5590   48.1170 C   0  0  0  0  0  0  0  0  0  0  0  0
   38.0470   31.7250   46.9710 C   0  0  1  0  0  0  0  0  0  0  0  0
   39.3460   30.4930   48.2950 H   0  0  0  0  0  0  0  0  0  0  0  0
   39.7010   32.9180   47.9860 H   0  0  0  0  0  0  0  0  0  0  0  0
   38.0320   33.2570   48.6630 H   0  0  0  0  0  0  0  0  0  0  0  0
   36.9950   32.0250   46.7680 H   0  0  0  0  0  0  0  0  0  0  0  0
   35.0810   30.2080   49.5470 C   0  0  0  0  0  0  0  0  0  0  0  0
   35.4160   29.5410   50.7690 C   0  0  0  0  0  0  0  0  0  0  0  0
   36.8170   29.4280   51.1060 C   0  0  0  0  0  0  0  0  0  0  0  0
   37.7400   29.9500   50.2640 N   0  0  0  0  0  0  0  0  0  0  0  0
   37.3570   30.5710   49.1200 C   0  0  0  0  0  0  0  0  0  0  0  0
   36.0390   30.7130   48.7400 N   0  0  0  0  0  0  0  0  0  0  0  0
   34.0280   30.2770   49.3220 H   0  0  0  0  0  0  0  0  0  0  0  0
   34.6890   29.1340   51.4230 H   0  0  0  0  0  0  0  0  0  0  0  0
   37.0770   28.9270   52.0270 H   0  0  0  0  0  0  0  0  0  0  0  0
  1  2  1  0  0  0  0
  1 22  1  0  0  0  0
  2  7  1  0  0  0  0
  3  8  1  0  0  0  0
  3  2  2  0  0  0  0
  4  3  1  0  0  0  0
  5  4  2  0  0  0  0
  5  6  1  0  0  0  0
  6  1  2  0  0  0  0
  9  4  1  0  0  0  0
 10 11  1  0  0  0  0
 11  5  1  0  0  0  0
 12 11  2  0  0  0  0
 12 13  1  0  0  0  0
 14 12  1  0  0  0  0
 15 14  1  0  0  0  0
 15 16  1  0  0  0  0
 17 15  1  0  0  0  0
 18 17  1  0  0  0  0
 19 17  2  0  0  0  0
 19 20  1  0  0  0  0
 20 21  1  0  0  0  0
 20 14  2  0  0  0  0
 21 10  2  0  0  0  0
 22 24  1  0  0  0  0
 23 22  2  0  0  0  0
 24 25  1  0  0  0  0
 24 28  1  0  0  0  0
 26 29  1  6  0  0  0
 26 37  1  0  0  0  0
 27 26  1  0  0  0  0
 27 31  1  0  0  0  0
 28 32  1  6  0  0  0
 28 27  1  0  0  0  0
 28 26  1  0  0  0  0
 30 27  1  0  0  0  0
 33 34  1  0  0  0  0
 34 35  2  0  0  0  0
 34 40  1  0  0  0  0
 35 41  1  0  0  0  0
 36 35  1  0  0  0  0
 37 36  2  0  0  0  0
 38 37  1  0  0  0  0
 38 33  2  0  0  0  0
 39 33  1  0  0  0  0
M  END
>  <minimizedAffinity>
-5.42966032

>  <minimizedRMSD>
0.308724761

$$$$
