
 OpenBabel03272509303D

 41 44  0  0  1  0  0  0  0  0999 V2000
   36.3390   30.7420   49.0070 C   0  0  2  0  0  0  0  0  0  0  0  0
   37.2920   31.6050   49.7780 C   0  0  0  0  0  0  0  0  0  0  0  0
   38.1640   30.8230   50.7300 C   0  0  0  0  0  0  0  0  0  0  0  0
   37.3230   29.9850   51.6860 C   0  0  0  0  0  0  0  0  0  0  0  0
   36.0640   29.4310   51.0720 C   0  0  0  0  0  0  0  0  0  0  0  0
   36.2760   29.3510   49.5480 C   0  0  1  0  0  0  0  0  0  0  0  0
   35.2790   31.1220   49.0040 H   0  0  0  0  0  0  0  0  0  0  0  0
   36.6150   32.2110   50.4710 H   0  0  0  0  0  0  0  0  0  0  0  0
   37.8540   32.3380   49.2340 H   0  0  0  0  0  0  0  0  0  0  0  0
   38.6760   31.5760   51.3730 H   0  0  0  0  0  0  0  0  0  0  0  0
   38.9410   30.2200   50.2420 H   0  0  0  0  0  0  0  0  0  0  0  0
   37.9570   29.1190   51.9750 H   0  0  0  0  0  0  0  0  0  0  0  0
   37.0690   30.5520   52.5980 H   0  0  0  0  0  0  0  0  0  0  0  0
   35.2190   30.1270   51.2020 H   0  0  0  0  0  0  0  0  0  0  0  0
   35.8390   28.4420   51.4990 H   0  0  0  0  0  0  0  0  0  0  0  0
   37.2300   28.8850   49.5130 H   0  0  0  0  0  0  0  0  0  0  0  0
   36.7140   30.6810   47.5700 C   0  0  0  0  0  0  0  0  0  0  0  0
   38.0590   30.9560   47.2820 C   0  0  0  0  0  0  0  0  0  0  0  0
   38.4400   30.9000   45.9360 C   0  0  0  0  0  0  0  0  0  0  0  0
   37.4910   30.5830   44.9920 N   0  0  0  0  0  0  0  0  0  0  0  0
   36.1880   30.3210   45.3280 C   0  0  0  0  0  0  0  0  0  0  0  0
   35.8210   30.3760   46.6220 N   0  0  0  0  0  0  0  0  0  0  0  0
   38.8950   31.2040   47.9070 H   0  0  0  0  0  0  0  0  0  0  0  0
   39.4330   31.0870   45.5620 H   0  0  0  0  0  0  0  0  0  0  0  0
   35.5210   30.0810   44.5080 H   0  0  0  0  0  0  0  0  0  0  0  0
   33.9900   28.3460   49.0600 C   0  0  0  0  0  0  0  0  0  0  0  0
   33.1830   29.0100   49.8140 O   0  0  0  0  0  0  0  0  0  0  0  0
   35.3840   28.4860   48.8660 N   0  0  0  0  0  0  0  0  0  0  0  0
   35.7680   27.8490   48.1010 H   0  0  0  0  0  0  0  0  0  0  0  0
   31.8380   27.2620   48.4170 C   0  0  0  0  0  3  0  0  0  0  0  0
   33.2130   27.3180   48.3540 C   0  0  0  0  0  0  0  0  0  0  0  0
   33.7550   26.3310   47.5780 C   0  0  0  0  0  0  0  0  0  0  0  0
   34.8060   26.2380   47.4310 H   0  0  0  0  0  0  0  0  0  0  0  0
   33.0380   25.3610   46.9130 C   0  0  0  0  0  0  0  0  0  0  0  0
   33.3410   24.3190   46.1170 N   0  0  0  0  0  0  0  0  0  0  0  0
   34.3150   24.0510   45.8430 H   0  0  0  0  0  0  0  0  0  0  0  0
   32.2440   23.6780   45.7230 C   0  0  0  0  0  0  0  0  0  0  0  0
   32.2320   22.8020   45.0730 H   0  0  0  0  0  0  0  0  0  0  0  0
   31.1570   24.3060   46.2730 C   0  0  0  0  0  3  0  0  0  0  0  0
   31.6710   25.3450   47.0060 C   0  0  0  0  0  0  0  0  0  0  0  0
   31.0590   26.3020   47.7640 C   0  0  0  0  0  3  0  0  0  0  0  0
  1  7  1  1  0  0  0
  1  6  1  0  0  0  0
  1  2  1  0  0  0  0
  2  8  1  0  0  0  0
  2  3  1  0  0  0  0
  3 10  1  0  0  0  0
  3  4  1  0  0  0  0
  4 12  1  0  0  0  0
  4 13  1  0  0  0  0
  5 14  1  0  0  0  0
  5 15  1  0  0  0  0
  5  4  1  0  0  0  0
  6 16  1  6  0  0  0
  6  5  1  0  0  0  0
  9  2  1  0  0  0  0
 11  3  1  0  0  0  0
 17  1  1  0  0  0  0
 18 17  1  0  0  0  0
 18 23  1  0  0  0  0
 19 18  2  0  0  0  0
 20 21  2  0  0  0  0
 20 19  1  0  0  0  0
 21 22  1  0  0  0  0
 22 17  2  0  0  0  0
 24 19  1  0  0  0  0
 25 21  1  0  0  0  0
 26 27  2  0  0  0  0
 28 26  1  0  0  0  0
 28  6  1  0  0  0  0
 29 28  1  0  0  0  0
 31 30  1  0  0  0  0
 31 26  1  0  0  0  0
 32 31  2  0  0  0  0
 33 32  1  0  0  0  0
 34 40  2  0  0  0  0
 34 32  1  0  0  0  0
 35 34  1  0  0  0  0
 36 35  1  0  0  0  0
 37 35  1  0  0  0  0
 37 39  2  0  0  0  0
 38 37  1  0  0  0  0
 39 40  1  0  0  0  0
 40 41  1  0  0  0  0
 41 30  2  0  0  0  0
M  END
>  <minimizedAffinity>
-6.42928791

>  <minimizedRMSD>
0.639701664

$$$$
