
 OpenBabel03272510083D

 47 52  0  0  0  0  0  0  0  0999 V2000
   36.4010   30.3100   47.7260 C   0  0  0  0  0  0  0  0  0  0  0  0
   37.0230   30.4880   48.9200 N   0  0  0  0  0  0  0  0  0  0  0  0
   38.1390   31.2340   48.9860 C   0  0  0  0  0  0  0  0  0  0  0  0
   38.7160   31.8470   47.9090 N   0  0  0  0  0  0  0  0  0  0  0  0
   38.1220   31.6880   46.7100 C   0  0  0  0  0  0  0  0  0  0  0  0
   38.6250   32.2820   45.5660 C   0  0  0  0  0  0  0  0  0  0  0  0
   37.9720   32.1090   44.3360 C   0  0  0  0  0  0  0  0  0  0  0  0
   36.8130   31.3290   44.2820 C   0  0  0  0  0  0  0  0  0  0  0  0
   36.3520   30.7560   45.4590 C   0  0  0  0  0  0  0  0  0  0  0  0
   36.9820   30.9240   46.6530 C   0  0  0  0  0  0  0  0  0  0  0  0
   38.6590   31.3950   49.9280 H   0  0  0  0  0  0  0  0  0  0  0  0
   39.5230   32.8620   45.7160 H   0  0  0  0  0  0  0  0  0  0  0  0
   38.4600   32.6210   43.5230 H   0  0  0  0  0  0  0  0  0  0  0  0
   36.4880   31.3330   43.2660 H   0  0  0  0  0  0  0  0  0  0  0  0
   35.1160   28.1110   47.5650 C   0  0  0  0  0  0  0  0  0  0  0  0
   35.2280   29.5130   47.7680 C   0  0  0  0  0  0  0  0  0  0  0  0
   34.0520   30.2410   48.0390 C   0  0  0  0  0  0  0  0  0  0  0  0
   32.8570   29.5960   48.0920 N   0  0  0  0  0  0  0  0  0  0  0  0
   32.8140   28.2490   47.8830 C   0  0  0  0  0  0  0  0  0  0  0  0
   33.9080   27.5170   47.6280 N   0  0  0  0  0  0  0  0  0  0  0  0
   31.5110   27.6190   47.9070 N   0  0  0  0  0  0  0  0  0  0  0  0
   30.6420   27.6110   49.0440 C   0  0  0  0  0  0  0  0  0  0  0  0
   29.3430   27.0790   48.5140 C   0  0  0  0  0  0  0  0  0  0  0  0
   29.4570   27.0400   47.0080 C   0  0  0  0  0  0  0  0  0  0  0  0
   30.9040   26.9050   46.7660 C   0  0  0  0  0  0  0  0  0  0  0  0
   36.0480   27.6270   47.3710 H   0  0  0  0  0  0  0  0  0  0  0  0
   34.0340   31.2950   48.2090 H   0  0  0  0  0  0  0  0  0  0  0  0
   30.4910   28.6370   49.3990 H   0  0  0  0  0  0  0  0  0  0  0  0
   31.0830   26.9280   49.7990 H   0  0  0  0  0  0  0  0  0  0  0  0
   28.4450   27.6270   48.8530 H   0  0  0  0  0  0  0  0  0  0  0  0
   29.2590   26.0170   48.8380 H   0  0  0  0  0  0  0  0  0  0  0  0
   29.1280   28.0500   46.6480 H   0  0  0  0  0  0  0  0  0  0  0  0
   28.8320   26.2380   46.5780 H   0  0  0  0  0  0  0  0  0  0  0  0
   31.2830   25.8650   46.8350 H   0  0  0  0  0  0  0  0  0  0  0  0
   31.2660   27.3190   45.7990 H   0  0  0  0  0  0  0  0  0  0  0  0
   33.8440   30.2550   44.9230 C   0  0  0  0  0  3  0  0  0  0  0  0
   35.2020   30.0030   44.9870 C   0  0  0  0  0  0  0  0  0  0  0  0
   35.4830   28.6970   44.4880 C   0  0  0  0  0  0  0  0  0  0  0  0
   36.5340   28.3580   44.4790 H   0  0  0  0  0  0  0  0  0  0  0  0
   34.5950   27.7640   43.9960 C   0  0  0  0  0  0  0  0  0  0  0  0
   34.7140   26.5290   43.5060 N   0  0  0  0  0  0  0  0  0  0  0  0
   35.6150   26.0120   43.4060 H   0  0  0  0  0  0  0  0  0  0  0  0
   33.4640   26.1440   43.1940 C   0  0  0  0  0  0  0  0  0  0  0  0
   33.1920   25.2030   42.7750 H   0  0  0  0  0  0  0  0  0  0  0  0
   32.5420   27.1420   43.4880 C   0  0  0  0  0  3  0  0  0  0  0  0
   33.2850   28.1790   44.0040 C   0  0  0  0  0  0  0  0  0  0  0  0
   32.8740   29.4090   44.4570 C   0  0  0  0  0  3  0  0  0  0  0  0
  1 16  1  0  0  0  0
  1  2  1  0  0  0  0
  2  3  2  0  0  0  0
  3 11  1  0  0  0  0
  4  3  1  0  0  0  0
  5  4  2  0  0  0  0
  6 12  1  0  0  0  0
  6  5  1  0  0  0  0
  7  6  2  0  0  0  0
  8  7  1  0  0  0  0
  8  9  2  0  0  0  0
  9 10  1  0  0  0  0
 10  5  1  0  0  0  0
 10  1  2  0  0  0  0
 13  7  1  0  0  0  0
 14  8  1  0  0  0  0
 15 20  2  0  0  0  0
 15 16  1  0  0  0  0
 16 17  2  0  0  0  0
 17 18  1  0  0  0  0
 17 27  1  0  0  0  0
 19 21  1  0  0  0  0
 19 18  2  0  0  0  0
 20 19  1  0  0  0  0
 21 22  1  0  0  0  0
 22 28  1  0  0  0  0
 22 29  1  0  0  0  0
 23 31  1  0  0  0  0
 23 30  1  0  0  0  0
 23 22  1  0  0  0  0
 24 23  1  0  0  0  0
 25 34  1  0  0  0  0
 25 24  1  0  0  0  0
 25 21  1  0  0  0  0
 26 15  1  0  0  0  0
 32 24  1  0  0  0  0
 33 24  1  0  0  0  0
 35 25  1  0  0  0  0
 36 37  1  0  0  0  0
 37  9  1  0  0  0  0
 38 37  2  0  0  0  0
 39 38  1  0  0  0  0
 40 46  2  0  0  0  0
 40 38  1  0  0  0  0
 41 40  1  0  0  0  0
 42 41  1  0  0  0  0
 43 45  2  0  0  0  0
 43 41  1  0  0  0  0
 44 43  1  0  0  0  0
 45 46  1  0  0  0  0
 46 47  1  0  0  0  0
 47 36  2  0  0  0  0
M  END
>  <minimizedAffinity>
-3.87977934

>  <minimizedRMSD>
2.4928546

$$$$
