REMARK  Name = 
REMARK  3 active torsions:
REMARK  status: ('A' for Active; 'I' for Inactive)
REMARK    1  A    between atoms: C_1  and  C_7
REMARK    2  A    between atoms: C_6  and  N_15
REMARK    3  A    between atoms: C_13  and  C_31
REMARK                            x       y       z     vdW  Elec       q    Type
REMARK                         _______ _______ _______ _____ _____    ______ ____
ROOT
ATOM      1  C   UNL     1      36.076  30.688  49.066  0.00  0.00    +0.000 C 
ATOM      2  C   UNL     1      37.012  31.644  49.743  0.00  0.00    +0.000 C 
ATOM      3  C   UNL     1      38.039  30.956  50.609  0.00  0.00    +0.000 C 
ATOM      4  C   UNL     1      37.373  30.052  51.641  0.00  0.00    +0.000 C 
ATOM      5  C   UNL     1      36.120  29.378  51.149  0.00  0.00    +0.000 C 
ATOM      6  C   UNL     1      36.194  29.303  49.612  0.00  0.00    +0.000 C 
ATOM      7  H   UNL     1      34.989  30.968  49.163  0.00  0.00    +0.000 HD
ATOM      8  H   UNL     1      36.349  32.191  50.496  0.00  0.00    +0.000 HD
ATOM      9  H   UNL     1      37.449  32.420  49.147  0.00  0.00    +0.000 HD
ATOM     10  H   UNL     1      38.536  31.759  51.200  0.00  0.00    +0.000 HD
ATOM     11  H   UNL     1      38.820  30.423  50.051  0.00  0.00    +0.000 HD
ATOM     12  H   UNL     1      38.110  29.252  51.870  0.00  0.00    +0.000 HD
ATOM     13  H   UNL     1      37.154  30.602  52.573  0.00  0.00    +0.000 HD
ATOM     14  H   UNL     1      35.229  29.993  51.358  0.00  0.00    +0.000 HD
ATOM     15  H   UNL     1      36.029  28.376  51.597  0.00  0.00    +0.000 HD
ATOM     16  H   UNL     1      37.180  28.927  49.488  0.00  0.00    +0.000 HD
ENDROOT
BRANCH   1  17
ATOM     17  C   UNL     1      36.318  30.648  47.600  0.00  0.00    +0.000 A 
ATOM     18  C   UNL     1      37.572  31.116  47.180  0.00  0.00    +0.000 A 
ATOM     19  C   UNL     1      37.828  31.084  45.804  0.00  0.00    +0.000 A 
ATOM     20  N   UNL     1      36.854  30.603  44.960  0.00  0.00    +0.000 NA
ATOM     21  C   UNL     1      35.644  30.155  45.424  0.00  0.00    +0.000 A 
ATOM     22  N   UNL     1      35.397  30.187  46.747  0.00  0.00    +0.000 NA
ATOM     23  H   UNL     1      38.415  31.504  47.718  0.00  0.00    +0.000 HD
ATOM     24  H   UNL     1      38.741  31.410  45.333  0.00  0.00    +0.000 HD
ATOM     25  H   UNL     1      34.947  29.796  44.676  0.00  0.00    +0.000 HD
ENDBRANCH   1  17
BRANCH   6  28
ATOM     26  C   UNL     1      33.940  28.184  49.238  0.00  0.00    +0.000 C 
ATOM     27  O   UNL     1      33.116  28.886  49.937  0.00  0.00    +0.000 OA
ATOM     28  N   UNL     1      35.327  28.352  49.019  0.00  0.00    +0.000 N 
ATOM     29  H   UNL     1      35.727  27.662  48.310  0.00  0.00    +0.000 HD
BRANCH  26  31
ATOM     30  C   UNL     1      31.818  27.064  48.559  0.00  0.00    +0.000 A 
ATOM     31  C   UNL     1      33.193  27.073  48.633  0.00  0.00    +0.000 A 
ATOM     32  C   UNL     1      33.765  25.955  48.093  0.00  0.00    +0.000 A 
ATOM     33  H   UNL     1      34.821  25.811  48.073  0.00  0.00    +0.000 HD
ATOM     34  C   UNL     1      33.077  24.906  47.525  0.00  0.00    +0.000 A 
ATOM     35  N   UNL     1      33.412  23.738  46.947  0.00  0.00    +0.000 N 
ATOM     36  H   UNL     1      34.395  23.401  46.824  0.00  0.00    +0.000 HD
ATOM     37  C   UNL     1      32.332  23.068  46.552  0.00  0.00    +0.000 A 
ATOM     38  H   UNL     1      32.346  22.095  46.058  0.00  0.00    +0.000 HD
ATOM     39  C   UNL     1      31.225  23.808  46.873  0.00  0.00    +0.000 A 
ATOM     40  C   UNL     1      31.708  24.941  47.474  0.00  0.00    +0.000 A 
ATOM     41  C   UNL     1      31.066  26.029  47.995  0.00  0.00    +0.000 A 
ENDBRANCH  26  31
ENDBRANCH   6  28
TORSDOF 3
