
 OpenBabel03262520273D

 23 25  0  0  0  0  0  0  0  0999 V2000
   35.8250   29.0470   49.4500 C   0  0  0  0  0  0  0  0  0  0  0  0
   35.8660   30.0330   48.4870 C   0  0  0  0  0  0  0  0  0  0  0  0
   34.7780   30.1170   47.6210 C   0  0  0  0  0  0  0  0  0  0  0  0
   34.8390   30.8950   46.8820 H   0  0  0  0  0  0  0  0  0  0  0  0
   33.7180   29.2410   47.7370 C   0  0  0  0  0  0  0  0  0  0  0  0
   32.6000   29.1830   46.9910 N   0  0  0  0  0  0  0  0  0  0  0  0
   32.3280   29.7990   46.1760 H   0  0  0  0  0  0  0  0  0  0  0  0
   31.8320   28.1670   47.4600 C   0  0  0  0  0  0  0  0  0  0  0  0
   30.8640   27.8950   47.0370 H   0  0  0  0  0  0  0  0  0  0  0  0
   32.4920   27.5790   48.5260 C   0  0  0  0  0  0  0  0  0  0  0  0
   33.6770   28.2560   48.6990 C   0  0  0  0  0  0  0  0  0  0  0  0
   34.7500   28.1680   49.5600 C   0  0  0  0  0  0  0  0  0  0  0  0
   38.0670   32.8790   49.1200 C   0  0  0  0  0  0  0  0  0  0  0  0
   39.0860   32.7230   48.1670 C   0  0  0  0  0  0  0  0  0  0  0  0
   38.9950   31.6230   47.3100 C   0  0  0  0  0  0  0  0  0  0  0  0
   37.9530   30.7710   47.4300 N   0  0  0  0  0  0  0  0  0  0  0  0
   36.9870   30.9580   48.3650 C   0  0  0  0  0  0  0  0  0  0  0  0
   37.0620   32.0030   49.1880 N   0  0  0  0  0  0  0  0  0  0  0  0
   40.0330   31.4850   46.3570 N   0  0  0  0  0  0  0  0  0  0  0  0
   38.0910   33.7190   49.8110 H   0  0  0  0  0  0  0  0  0  0  0  0
   39.8640   33.4750   48.1750 H   0  0  0  0  0  0  0  0  0  0  0  0
   40.5880   30.6500   46.0450 H   0  0  0  0  0  0  0  0  0  0  0  0
   40.3310   32.3460   45.8500 H   0  0  0  0  0  0  0  0  0  0  0  0
  1 12  1  0  0  0  0
  2  1  2  0  0  0  0
  3  5  2  0  0  0  0
  3  2  1  0  0  0  0
  4  3  1  0  0  0  0
  5 11  1  0  0  0  0
  6  8  1  0  0  0  0
  6  5  1  0  0  0  0
  7  6  1  0  0  0  0
  8 10  2  0  0  0  0
  9  8  1  0  0  0  0
 10 11  1  0  0  0  0
 11 12  2  0  0  0  0
 13 18  1  0  0  0  0
 13 20  1  0  0  0  0
 14 21  1  0  0  0  0
 14 13  2  0  0  0  0
 15 16  2  0  0  0  0
 15 14  1  0  0  0  0
 16 17  1  0  0  0  0
 17  2  1  0  0  0  0
 17 18  2  0  0  0  0
 19 15  1  0  0  0  0
 22 19  1  0  0  0  0
 23 19  1  0  0  0  0
M  END
>  <minimizedAffinity>
-5.94390488

>  <minimizedRMSD>
2.6404562

$$$$
