
 OpenBabel03272506323D

 43 46  0  0  1  0  0  0  0  0999 V2000
   34.2430   29.0830   48.6210 C   0  0  1  0  0  0  0  0  0  0  0  0
   33.7080   30.0450   49.5660 C   0  0  0  0  0  0  0  0  0  0  0  0
   34.0580   29.8380   51.0270 C   0  0  0  0  0  0  0  0  0  0  0  0
   35.4460   29.3540   51.2830 C   0  0  0  0  0  0  0  0  0  0  0  0
   36.0390   28.4110   50.3040 C   0  0  0  0  0  0  0  0  0  0  0  0
   35.6810   28.7380   48.9060 C   0  0  2  0  0  0  0  0  0  0  0  0
   34.3160   29.5800   47.6030 H   0  0  0  0  0  0  0  0  0  0  0  0
   34.1970   31.0350   49.3230 H   0  0  0  0  0  0  0  0  0  0  0  0
   32.6470   30.2760   49.5230 H   0  0  0  0  0  0  0  0  0  0  0  0
   33.2750   29.1540   51.4360 H   0  0  0  0  0  0  0  0  0  0  0  0
   33.9290   30.8120   51.5510 H   0  0  0  0  0  0  0  0  0  0  0  0
   35.4120   28.8210   52.2750 H   0  0  0  0  0  0  0  0  0  0  0  0
   36.1440   30.2000   51.4600 H   0  0  0  0  0  0  0  0  0  0  0  0
   37.1270   28.4300   50.3940 H   0  0  0  0  0  0  0  0  0  0  0  0
   35.6830   27.3730   50.5220 H   0  0  0  0  0  0  0  0  0  0  0  0
   36.1180   28.0070   48.2390 H   0  0  0  0  0  0  0  0  0  0  0  0
   32.0500   27.7830   48.7190 C   0  0  0  0  0  0  0  0  0  0  0  0
   33.4250   27.8920   48.3460 C   0  0  0  0  0  0  0  0  0  0  0  0
   33.9580   26.7960   47.6980 C   0  0  0  0  0  0  0  0  0  0  0  0
   33.1780   25.6910   47.4480 N   0  0  0  0  0  0  0  0  0  0  0  0
   31.8780   25.6460   47.8250 C   0  0  0  0  0  0  0  0  0  0  0  0
   31.3230   26.7090   48.4660 N   0  0  0  0  0  0  0  0  0  0  0  0
   31.6040   28.6260   49.2290 H   0  0  0  0  0  0  0  0  0  0  0  0
   34.9920   26.7710   47.3700 H   0  0  0  0  0  0  0  0  0  0  0  0
   31.3870   24.7170   47.5650 H   0  0  0  0  0  0  0  0  0  0  0  0
   36.4550   30.0480   48.5930 C   0  0  0  0  0  0  0  0  0  0  0  0
   36.0800   30.8890   49.1810 H   0  0  0  0  0  0  0  0  0  0  0  0
   37.5320   29.9280   48.8320 H   0  0  0  0  0  0  0  0  0  0  0  0
   36.2680   30.4380   47.1350 C   0  0  0  0  0  0  0  0  0  0  0  0
   35.3200   30.9700   47.0210 H   0  0  0  0  0  0  0  0  0  0  0  0
   36.3200   29.5110   46.5290 H   0  0  0  0  0  0  0  0  0  0  0  0
   38.3940   31.7730   47.5720 C   0  0  0  0  0  0  0  0  0  0  0  0
   37.4240   31.2830   46.7300 C   0  0  0  0  0  0  0  0  0  0  0  0
   37.4770   31.5700   45.3650 C   0  0  0  0  0  0  0  0  0  0  0  0
   36.7210   31.1970   44.6620 H   0  0  0  0  0  0  0  0  0  0  0  0
   38.4660   32.3330   44.8020 C   0  0  0  0  0  0  0  0  0  0  0  0
   38.7250   32.7400   43.5400 N   0  0  0  0  0  0  0  0  0  0  0  0
   38.1550   32.5180   42.6820 H   0  0  0  0  0  0  0  0  0  0  0  0
   39.8560   33.4900   43.5540 C   0  0  0  0  0  0  0  0  0  0  0  0
   40.2630   33.9290   42.6430 H   0  0  0  0  0  0  0  0  0  0  0  0
   40.3020   33.5480   44.8460 C   0  0  0  0  0  0  0  0  0  0  0  0
   39.4340   32.8210   45.6480 C   0  0  0  0  0  0  0  0  0  0  0  0
   39.3990   32.5480   47.0040 C   0  0  0  0  0  0  0  0  0  0  0  0
  1  7  1  6  0  0  0
  1  6  1  0  0  0  0
  1  2  1  0  0  0  0
  2  3  1  0  0  0  0
  3  4  1  0  0  0  0
  3 10  1  0  0  0  0
  3 11  1  0  0  0  0
  4 13  1  0  0  0  0
  4 12  1  0  0  0  0
  5 14  1  0  0  0  0
  5 15  1  0  0  0  0
  5  4  1  0  0  0  0
  6 16  1  6  0  0  0
  6  5  1  0  0  0  0
  8  2  1  0  0  0  0
  9  2  1  0  0  0  0
 17 23  1  0  0  0  0
 18  1  1  0  0  0  0
 18 17  2  0  0  0  0
 19 18  1  0  0  0  0
 20 19  2  0  0  0  0
 20 21  1  0  0  0  0
 21 22  2  0  0  0  0
 22 17  1  0  0  0  0
 24 19  1  0  0  0  0
 25 21  1  0  0  0  0
 26 28  1  0  0  0  0
 26  6  1  0  0  0  0
 26 27  1  0  0  0  0
 29 26  1  0  0  0  0
 30 29  1  0  0  0  0
 31 29  1  0  0  0  0
 33 29  1  0  0  0  0
 33 32  2  0  0  0  0
 34 33  1  0  0  0  0
 35 34  1  0  0  0  0
 36 34  2  0  0  0  0
 36 42  1  0  0  0  0
 37 39  1  0  0  0  0
 37 36  1  0  0  0  0
 38 37  1  0  0  0  0
 39 41  2  0  0  0  0
 40 39  1  0  0  0  0
 41 42  1  0  0  0  0
 42 43  2  0  0  0  0
 43 32  1  0  0  0  0
M  END
>  <minimizedAffinity>
-5.42362499

>  <minimizedRMSD>
4.9382906

$$$$
