
 OpenBabel03272502473D

 45 49  0  0  0  0  0  0  0  0999 V2000
   34.5150   27.6610   49.4190 Cl  0  0  0  0  0  0  0  0  0  0  0  0
   33.7870   28.5810   48.1310 C   0  0  0  0  0  0  0  0  0  0  0  0
   34.2900   29.8210   47.8200 C   0  0  0  0  0  0  0  0  0  0  0  0
   33.7380   30.5700   46.8100 C   0  0  0  0  0  0  0  0  0  0  0  0
   32.6580   30.0980   46.0750 C   0  0  0  0  0  0  0  0  0  0  0  0
   32.1460   28.8600   46.3750 C   0  0  0  0  0  0  0  0  0  0  0  0
   30.7890   28.1710   45.5140 Cl  0  0  0  0  0  0  0  0  0  0  0  0
   32.7240   28.1330   47.3970 C   0  0  0  0  0  0  0  0  0  0  0  0
   34.1690   31.5370   46.6040 H   0  0  0  0  0  0  0  0  0  0  0  0
   30.8810   31.5870   45.0860 C   0  0  0  0  0  3  0  0  0  0  0  0
   32.0710   30.8950   45.0010 C   0  0  0  0  0  0  0  0  0  0  0  0
   32.7390   30.9820   43.7900 C   0  0  0  0  0  0  0  0  0  0  0  0
   33.6760   30.4490   43.6940 H   0  0  0  0  0  0  0  0  0  0  0  0
   32.2750   31.7060   42.7080 C   0  0  0  0  0  0  0  0  0  0  0  0
   32.7120   31.9480   41.4660 N   0  0  0  0  0  0  0  0  0  0  0  0
   33.5800   31.5930   41.0370 H   0  0  0  0  0  0  0  0  0  0  0  0
   31.8430   32.7430   40.8200 C   0  0  0  0  0  0  0  0  0  0  0  0
   31.8990   33.1280   39.7950 H   0  0  0  0  0  0  0  0  0  0  0  0
   30.7930   33.0400   41.6630 C   0  0  0  0  0  3  0  0  0  0  0  0
   31.0780   32.3850   42.8380 C   0  0  0  0  0  0  0  0  0  0  0  0
   30.3790   32.3240   44.0330 C   0  0  0  0  0  3  0  0  0  0  0  0
   36.5890   30.6330   50.5600 C   0  0  0  0  0  0  0  0  0  0  0  0
   37.5980   31.3510   49.9300 C   0  0  0  0  0  0  0  0  0  0  0  0
   37.4710   31.5480   48.5500 C   0  0  0  0  0  0  0  0  0  0  0  0
   36.3830   31.0330   47.9160 N   0  0  0  0  0  0  0  0  0  0  0  0
   35.4290   30.3400   48.5800 C   0  0  0  0  0  0  0  0  0  0  0  0
   35.5510   30.1560   49.8820 N   0  0  0  0  0  0  0  0  0  0  0  0
   36.7120   30.4960   51.6260 H   0  0  0  0  0  0  0  0  0  0  0  0
   38.4640   31.7590   50.4420 H   0  0  0  0  0  0  0  0  0  0  0  0
   38.4630   32.2860   47.7690 C   0  0  0  0  0  0  0  0  0  0  0  0
   39.1540   33.3750   48.2450 C   0  0  0  0  0  0  0  0  0  0  0  0
   40.0060   33.8530   47.2990 N   0  0  0  0  0  0  0  0  0  0  0  0
   39.8460   33.0630   46.2340 C   0  0  0  0  0  0  0  0  0  0  0  0
   38.9210   32.1330   46.5340 N   0  0  0  0  0  0  0  0  0  0  0  0
   40.5960   31.8260   44.2740 C   0  0  0  0  0  0  0  0  0  0  0  0
   40.1850   30.7820   44.8090 O   0  0  0  0  0  0  0  0  0  0  0  0
   40.4580   33.0680   44.9510 N   0  0  0  0  0  0  0  0  0  0  0  0
   39.1120   33.8670   49.2100 H   0  0  0  0  0  0  0  0  0  0  0  0
   40.6680   34.6390   47.2990 H   0  0  0  0  0  0  0  0  0  0  0  0
   41.0700   31.7800   43.2650 H   0  0  0  0  0  0  0  0  0  0  0  0
   40.7900   33.9670   44.5360 H   0  0  0  0  0  0  0  0  0  0  0  0
   32.1720   26.7940   47.7240 C   0  0  0  0  0  0  0  0  0  0  0  0
   33.1990   25.8490   47.8080 F   0  0  0  0  0  0  0  0  0  0  0  0
   31.3720   26.3280   46.6690 F   0  0  0  0  0  0  0  0  0  0  0  0
   31.3800   26.8060   48.8470 F   0  0  0  0  0  0  0  0  0  0  0  0
  2  1  1  0  0  0  0
  3  2  1  0  0  0  0
  3 26  1  0  0  0  0
  4  3  2  0  0  0  0
  5  6  2  0  0  0  0
  5  4  1  0  0  0  0
  6  8  1  0  0  0  0
  7  6  1  0  0  0  0
  8 42  1  0  0  0  0
  8  2  2  0  0  0  0
  9  4  1  0  0  0  0
 11 10  1  0  0  0  0
 11  5  1  0  0  0  0
 12 11  2  0  0  0  0
 13 12  1  0  0  0  0
 14 20  2  0  0  0  0
 14 12  1  0  0  0  0
 15 14  1  0  0  0  0
 16 15  1  0  0  0  0
 17 15  1  0  0  0  0
 17 19  2  0  0  0  0
 18 17  1  0  0  0  0
 19 20  1  0  0  0  0
 20 21  1  0  0  0  0
 21 10  2  0  0  0  0
 22 28  1  0  0  0  0
 23 29  1  0  0  0  0
 23 22  1  0  0  0  0
 24 23  2  0  0  0  0
 25 24  1  0  0  0  0
 25 26  2  0  0  0  0
 26 27  1  0  0  0  0
 27 22  2  0  0  0  0
 30 31  2  0  0  0  0
 30 24  1  0  0  0  0
 31 38  1  0  0  0  0
 32 39  1  0  0  0  0
 32 31  1  0  0  0  0
 33 34  2  0  0  0  0
 33 32  1  0  0  0  0
 34 30  1  0  0  0  0
 35 36  2  0  0  0  0
 35 37  1  0  0  0  0
 37 33  1  0  0  0  0
 40 35  1  0  0  0  0
 41 37  1  0  0  0  0
 42 43  1  0  0  0  0
 42 45  1  0  0  0  0
 44 42  1  0  0  0  0
M  END
>  <minimizedAffinity>
-7.10596609

>  <minimizedRMSD>
0.218526959

$$$$
