
     RDKit          3D

 36 39  0  0  0  0  0  0  0  0999 V2000
   37.3131   30.1901   51.4220 C   0  0  0  0  0  0  0  0  0  0  0  0
   38.0193   30.8153   50.3836 C   0  0  0  0  0  0  0  0  0  0  0  0
   37.6128   30.5669   49.0623 C   0  0  0  0  0  0  0  0  0  0  0  0
   36.5667   29.7409   48.8883 N   0  0  0  0  0  0  0  0  0  0  0  0
   35.8855   29.1379   49.8836 C   0  0  0  0  0  0  0  0  0  0  0  0
   36.2738   29.3738   51.1627 N   0  0  0  0  0  0  0  0  0  0  0  0
   38.2734   31.1463   47.9666 N   0  0  0  0  0  0  0  0  0  0  0  0
   38.9427   32.4449   47.9988 C   0  0  0  0  0  0  0  0  0  0  0  0
   39.2967   32.7775   46.5804 C   0  0  0  0  0  0  0  0  0  0  0  0
   38.2820   31.9344   45.8108 C   0  0  0  0  0  0  0  0  0  0  0  0
   38.4459   30.6541   46.6639 C   0  0  2  0  0  0  0  0  0  0  0  0
   37.6421   30.3954   52.4187 H   0  0  0  0  0  0  0  0  0  0  0  0
   38.8481   31.4660   50.5916 H   0  0  0  0  0  0  0  0  0  0  0  0
   35.0660   28.5003   49.5749 H   0  0  0  0  0  0  0  0  0  0  0  0
   38.3317   33.2126   48.4883 H   0  0  0  0  0  0  0  0  0  0  0  0
   39.9074   32.2705   48.5485 H   0  0  0  0  0  0  0  0  0  0  0  0
   40.3293   32.5576   46.2955 H   0  0  0  0  0  0  0  0  0  0  0  0
   39.0363   33.8574   46.4124 H   0  0  0  0  0  0  0  0  0  0  0  0
   38.5943   31.7537   44.7768 H   0  0  0  0  0  0  0  0  0  0  0  0
   37.2991   32.3889   45.9443 H   0  0  0  0  0  0  0  0  0  0  0  0
   39.5268   30.3579   46.4572 H   0  0  0  0  0  0  0  0  0  0  0  0
   37.3443   29.1391   44.9507 C   0  0  0  0  0  0  0  0  0  0  0  0
   37.6028   29.5599   46.2303 C   0  0  0  0  0  0  0  0  0  0  0  0
   36.9844   28.8193   47.2348 C   0  0  0  0  0  0  0  0  0  0  0  0
   37.1170   29.0613   48.2773 H   0  0  0  0  0  0  0  0  0  0  0  0
   36.1644   27.7317   46.9745 C   0  0  0  0  0  0  0  0  0  0  0  0
   35.4797   26.8914   47.7833 N   0  0  0  0  0  0  0  0  0  0  0  0
   35.4554   26.9287   48.8267 H   0  0  0  0  0  0  0  0  0  0  0  0
   34.8349   25.9973   46.9898 C   0  0  0  0  0  0  0  0  0  0  0  0
   34.2051   25.2034   47.4195 H   0  0  0  0  0  0  0  0  0  0  0  0
   35.0995   26.2556   45.6714 C   0  0  0  0  0  0  0  0  0  0  0  0
   35.9376   27.3483   45.6502 C   0  0  0  0  0  0  0  0  0  0  0  0
   36.5389   28.0664   44.6341 C   0  0  0  0  0  0  0  0  0  0  0  0
   37.7996   29.7087   44.1551 H   0  0  0  0  0  0  0  0  0  0  0  0
   34.7190   25.7038   44.8396 H   0  0  0  0  0  0  0  0  0  0  0  0
   36.3773   27.7878   43.6099 H   0  0  0  0  0  0  0  0  0  0  0  0
  2  1  2  0
  3  2  1  0
  4  3  2  0
  4  5  1  0
  5  6  2  0
  6  1  1  0
  7  8  1  0
  7  3  1  0
  9  8  1  0
 10  9  1  0
 10 11  1  0
 11  7  1  0
  1 12  1  0
  2 13  1  0
  5 14  1  0
  8 15  1  0
  8 16  1  0
  9 17  1  0
  9 18  1  0
 10 19  1  0
 10 20  1  0
 11 21  1  1
 22 23  2  0
 23 24  1  0
 24 25  1  0
 24 26  2  0
 26 27  1  0
 27 28  1  0
 27 29  1  0
 29 30  1  0
 29 31  2  0
 31 32  1  0
 32 33  2  0
 33 22  1  0
 32 26  1  0
 22 34  1  0
 31 35  1  0
 33 36  1  0
 11 23  1  0
M  ISO  8  12  14  13  14  14  14  15  13  16  13  17  13  18  13  19  13
M  ISO  5  20  13  21  13  25  15  28   5  30  14
M  END
>  <DihAtoms>  (1) 
9,10,22,21

>  <DihDeg>  (1) 
177.73312767663546

$$$$
