
     RDKit          3D

 47 51  0  0  0  0  0  0  0  0999 V2000
   34.0018   28.8133   48.2937 C   0  0  0  0  0  0  0  0  0  0  0  0
   34.6421   28.3441   49.4033 C   0  0  0  0  0  0  0  0  0  0  0  0
   35.8706   28.7789   49.8387 C   0  0  0  0  0  0  0  0  0  0  0  0
   36.5379   29.7480   49.1455 C   0  0  0  0  0  0  0  0  0  0  0  0
   35.8952   30.2401   48.0055 C   0  0  0  0  0  0  0  0  0  0  0  0
   34.6842   29.7842   47.6109 N   0  0  0  0  0  0  0  0  0  0  0  0
   31.9020   27.5033   48.5642 C   0  0  0  0  0  0  0  0  0  0  0  0
   32.7267   28.3660   47.8265 C   0  0  0  0  0  0  0  0  0  0  0  0
   32.2594   28.7786   46.6015 C   0  0  0  0  0  0  0  0  0  0  0  0
   31.0414   28.3466   46.1558 N   0  0  0  0  0  0  0  0  0  0  0  0
   30.2814   27.5093   46.9126 C   0  0  0  0  0  0  0  0  0  0  0  0
   30.7016   27.0727   48.1338 N   0  0  0  0  0  0  0  0  0  0  0  0
   37.7688   30.3028   49.4298 O   0  0  0  0  0  0  0  0  0  0  0  0
   38.3555   31.2698   48.6424 C   0  0  0  0  0  0  0  0  0  0  0  0
   38.4479   32.5142   49.2274 C   0  0  0  0  0  0  0  0  0  0  0  0
   39.0599   33.3610   48.3069 C   0  0  0  0  0  0  0  0  0  0  0  0
   39.3173   32.6387   47.2212 N   0  0  0  0  0  0  0  0  0  0  0  0
   38.9021   31.4399   47.4379 N   0  0  0  0  0  0  0  0  0  0  0  0
   39.9617   33.0732   46.0127 C   0  0  0  0  0  0  0  0  0  0  0  0
   40.6714   31.9372   45.3685 C   0  0  0  0  0  0  0  0  0  0  0  0
   34.1685   27.5747   49.9988 H   0  0  0  0  0  0  0  0  0  0  0  0
   36.3711   28.4019   50.7190 H   0  0  0  0  0  0  0  0  0  0  0  0
   36.3067   31.0043   47.3671 H   0  0  0  0  0  0  0  0  0  0  0  0
   32.2275   27.1520   49.5341 H   0  0  0  0  0  0  0  0  0  0  0  0
   32.7953   29.4417   45.9356 H   0  0  0  0  0  0  0  0  0  0  0  0
   29.3099   27.1613   46.5633 H   0  0  0  0  0  0  0  0  0  0  0  0
   38.1702   32.9513   50.1776 H   0  0  0  0  0  0  0  0  0  0  0  0
   39.3171   34.4140   48.3717 H   0  0  0  0  0  0  0  0  0  0  0  0
   40.7258   33.8440   46.3296 H   0  0  0  0  0  0  0  0  0  0  0  0
   39.2870   33.6244   45.3378 H   0  0  0  0  0  0  0  0  0  0  0  0
   41.4684   31.5081   46.0608 H   0  0  0  0  0  0  0  0  0  0  0  0
   41.2461   32.2741   44.4678 H   0  0  0  0  0  0  0  0  0  0  0  0
   40.0438   29.6830   44.2143 C   0  0  0  0  0  0  0  0  0  0  0  0
   39.8430   30.8017   44.9800 C   0  0  0  0  0  0  0  0  0  0  0  0
   38.5688   30.8776   45.5630 C   0  0  0  0  0  0  0  0  0  0  0  0
   38.2087   31.6942   46.2109 H   0  0  0  0  0  0  0  0  0  0  0  0
   37.5874   29.9128   45.3904 C   0  0  0  0  0  0  0  0  0  0  0  0
   36.3346   29.7244   45.8044 N   0  0  0  0  0  0  0  0  0  0  0  0
   35.8066   30.3934   46.4334 H   0  0  0  0  0  0  0  0  0  0  0  0
   35.8261   28.5884   45.3287 C   0  0  0  0  0  0  0  0  0  0  0  0
   34.8181   28.2245   45.5327 H   0  0  0  0  0  0  0  0  0  0  0  0
   36.7789   27.9646   44.5480 C   0  0  0  0  0  0  0  0  0  0  0  0
   37.8635   28.8128   44.6058 C   0  0  0  0  0  0  0  0  0  0  0  0
   39.0969   28.7049   44.0197 C   0  0  0  0  0  0  0  0  0  0  0  0
   41.0175   29.6447   43.7467 H   0  0  0  0  0  0  0  0  0  0  0  0
   36.6596   27.0262   44.0282 H   0  0  0  0  0  0  0  0  0  0  0  0
   39.3971   27.8740   43.3883 H   0  0  0  0  0  0  0  0  0  0  0  0
  1  2  2  0
  2  3  1  0
  4 13  1  0
  4  3  2  0
  5  4  1  0
  6  5  2  0
  6  1  1  0
  8  1  1  0
  8  7  2  0
  9  8  1  0
 10  9  2  0
 10 11  1  0
 11 12  2  0
 12  7  1  0
 14 15  1  0
 14 13  1  0
 16 15  2  0
 17 18  1  0
 17 16  1  0
 18 14  2  0
 19 17  1  0
 20 19  1  0
  2 21  1  0
  3 22  1  0
  5 23  1  0
  7 24  1  0
  9 25  1  0
 11 26  1  0
 15 27  1  0
 16 28  1  0
 19 29  1  0
 19 30  1  0
 20 31  1  0
 20 32  1  0
 33 34  2  0
 34 35  1  0
 35 36  1  0
 35 37  2  0
 37 38  1  0
 38 39  1  0
 38 40  1  0
 40 41  1  0
 40 42  2  0
 42 43  1  0
 43 44  2  0
 44 33  1  0
 43 37  1  0
 33 45  1  0
 42 46  1  0
 44 47  1  0
 20 34  1  0
M  ISO  8  21  14  22  14  23  14  24  14  25  14  26  14  27  14  28  14
M  ISO  7  29   8  30   8  31   8  32   8  36  15  39   5  41  14
M  END
>  <DihAtoms>  (1) 
18,19,33,32

>  <DihDeg>  (1) 
-101.33838478678366

$$$$
