REMARK  Name = 
REMARK  2 active torsions:
REMARK  status: ('A' for Active; 'I' for Inactive)
REMARK    1  A    between atoms: C_2  and  N_7
REMARK    2  A    between atoms: C_5  and  C_13
REMARK                            x       y       z     vdW  Elec       q    Type
REMARK                         _______ _______ _______ _____ _____    ______ ____
ROOT
ATOM      1  C   UNL     1      32.827  28.180  51.064  0.00  0.00    +0.000 A 
ATOM      2  C   UNL     1      33.607  28.192  49.906  0.00  0.00    +0.000 A 
ATOM      3  C   UNL     1      33.175  27.599  48.734  0.00  0.00    +0.000 A 
ATOM      4  H   UNL     1      33.802  27.622  47.848  0.00  0.00    +0.000 HD
ATOM      5  C   UNL     1      31.946  26.974  48.675  0.00  0.00    +0.000 A 
ATOM      6  N   UNL     1      31.310  26.334  47.666  0.00  0.00    +0.000 N 
ATOM      7  H   UNL     1      31.683  26.203  46.694  0.00  0.00    +0.000 HD
ATOM      8  C   UNL     1      30.120  25.894  48.122  0.00  0.00    +0.000 A 
ATOM      9  H   UNL     1      29.384  25.339  47.532  0.00  0.00    +0.000 HD
ATOM     10  C   UNL     1      29.992  26.264  49.464  0.00  0.00    +0.000 A 
ATOM     11  C   UNL     1      31.144  26.937  49.785  0.00  0.00    +0.000 A 
ATOM     12  C   UNL     1      31.602  27.535  50.938  0.00  0.00    +0.000 A 
ENDROOT
BRANCH   2  17
ATOM     13  C   UNL     1      36.640  29.766  51.268  0.00  0.00    +0.000 A 
ATOM     14  C   UNL     1      37.373  30.112  50.120  0.00  0.00    +0.000 A 
ATOM     15  C   UNL     1      36.801  29.793  48.880  0.00  0.00    +0.000 A 
ATOM     16  N   UNL     1      35.598  29.180  48.849  0.00  0.00    +0.000 NA
ATOM     17  C   UNL     1      34.921  28.861  49.973  0.00  0.00    +0.000 A 
ATOM     18  N   UNL     1      35.429  29.148  51.192  0.00  0.00    +0.000 NA
ATOM     19  H   UNL     1      37.095  30.020  52.222  0.00  0.00    +0.000 HD
ATOM     20  H   UNL     1      37.349  30.051  47.988  0.00  0.00    +0.000 HD
BRANCH  14  21
ATOM     21  N   UNL     1      38.627  30.754  50.264  0.00  0.00    +0.000 N 
ATOM     22  H   UNL     1      38.720  31.433  51.073  0.00  0.00    +0.000 HD
ATOM     23  H   UNL     1      39.444  30.597  49.632  0.00  0.00    +0.000 HD
ENDBRANCH  14  21
ENDBRANCH   2  17
TORSDOF 2
