REMARK  Name = 
REMARK  1 active torsions:
REMARK  status: ('A' for Active; 'I' for Inactive)
REMARK    1  A    between atoms: C_11  and  C_23
REMARK                            x       y       z     vdW  Elec       q    Type
REMARK                         _______ _______ _______ _____ _____    ______ ____
ROOT
ATOM      1  C   UNL     1      37.313  30.190  51.422  0.00  0.00    +0.000 A 
ATOM      2  C   UNL     1      38.019  30.815  50.384  0.00  0.00    +0.000 A 
ATOM      3  C   UNL     1      37.613  30.567  49.062  0.00  0.00    +0.000 A 
ATOM      4  N   UNL     1      36.567  29.741  48.888  0.00  0.00    +0.000 NA
ATOM      5  C   UNL     1      35.886  29.138  49.884  0.00  0.00    +0.000 A 
ATOM      6  N   UNL     1      36.274  29.374  51.163  0.00  0.00    +0.000 NA
ATOM      7  N   UNL     1      38.273  31.146  47.967  0.00  0.00    +0.000 N 
ATOM      8  C   UNL     1      38.943  32.445  47.999  0.00  0.00    +0.000 C 
ATOM      9  C   UNL     1      39.297  32.778  46.580  0.00  0.00    +0.000 C 
ATOM     10  C   UNL     1      38.282  31.934  45.811  0.00  0.00    +0.000 C 
ATOM     11  C   UNL     1      38.446  30.654  46.664  0.00  0.00    +0.000 C 
ATOM     12  H   UNL     1      37.642  30.395  52.419  0.00  0.00    +0.000 HD
ATOM     13  H   UNL     1      38.848  31.466  50.592  0.00  0.00    +0.000 HD
ATOM     14  H   UNL     1      35.066  28.500  49.575  0.00  0.00    +0.000 HD
ATOM     15  H   UNL     1      38.332  33.213  48.488  0.00  0.00    +0.000 HD
ATOM     16  H   UNL     1      39.907  32.270  48.548  0.00  0.00    +0.000 HD
ATOM     17  H   UNL     1      40.329  32.558  46.295  0.00  0.00    +0.000 HD
ATOM     18  H   UNL     1      39.036  33.857  46.412  0.00  0.00    +0.000 HD
ATOM     19  H   UNL     1      38.594  31.754  44.777  0.00  0.00    +0.000 HD
ATOM     20  H   UNL     1      37.299  32.389  45.944  0.00  0.00    +0.000 HD
ATOM     21  H   UNL     1      39.527  30.358  46.457  0.00  0.00    +0.000 HD
ENDROOT
BRANCH  11  23
ATOM     22  C   UNL     1      37.344  29.139  44.951  0.00  0.00    +0.000 A 
ATOM     23  C   UNL     1      37.603  29.560  46.230  0.00  0.00    +0.000 A 
ATOM     24  C   UNL     1      36.984  28.819  47.235  0.00  0.00    +0.000 A 
ATOM     25  H   UNL     1      37.117  29.061  48.277  0.00  0.00    +0.000 HD
ATOM     26  C   UNL     1      36.164  27.732  46.974  0.00  0.00    +0.000 A 
ATOM     27  N   UNL     1      35.480  26.891  47.783  0.00  0.00    +0.000 N 
ATOM     28  H   UNL     1      35.455  26.929  48.827  0.00  0.00    +0.000 HD
ATOM     29  C   UNL     1      34.835  25.997  46.990  0.00  0.00    +0.000 A 
ATOM     30  H   UNL     1      34.205  25.203  47.419  0.00  0.00    +0.000 HD
ATOM     31  C   UNL     1      35.099  26.256  45.671  0.00  0.00    +0.000 A 
ATOM     32  C   UNL     1      35.938  27.348  45.650  0.00  0.00    +0.000 A 
ATOM     33  C   UNL     1      36.539  28.066  44.634  0.00  0.00    +0.000 A 
ENDBRANCH  11  23
TORSDOF 1
