
 OpenBabel03272510133D

 44 48  0  0  0  0  0  0  0  0999 V2000
   38.3720   31.2790   48.7110 C   0  0  0  0  0  0  0  0  0  0  0  0
   38.4030   32.4730   49.3970 C   0  0  0  0  0  0  0  0  0  0  0  0
   38.9740   33.4220   48.5540 C   0  0  0  0  0  0  0  0  0  0  0  0
   39.2680   32.8060   47.4130 N   0  0  0  0  0  0  0  0  0  0  0  0
   38.9120   31.5740   47.5280 N   0  0  0  0  0  0  0  0  0  0  0  0
   38.1020   32.8150   50.3790 H   0  0  0  0  0  0  0  0  0  0  0  0
   39.1780   34.4770   48.7070 H   0  0  0  0  0  0  0  0  0  0  0  0
   39.8920   33.3700   46.2490 C   0  0  0  0  0  0  0  0  0  0  0  0
   40.5690   34.1920   46.6280 H   0  0  0  0  0  0  0  0  0  0  0  0
   39.1810   33.8900   45.5870 H   0  0  0  0  0  0  0  0  0  0  0  0
   40.7240   32.3470   45.5610 C   0  0  0  0  0  0  0  0  0  0  0  0
   40.7170   31.3630   46.1360 H   0  0  0  0  0  0  0  0  0  0  0  0
   41.8030   32.6440   45.5440 H   0  0  0  0  0  0  0  0  0  0  0  0
   39.6420   32.6560   43.2080 C   0  0  0  0  0  3  0  0  0  0  0  0
   40.3240   32.0050   44.2020 C   0  0  0  0  0  0  0  0  0  0  0  0
   40.7860   30.7300   43.8410 C   0  0  0  0  0  0  0  0  0  0  0  0
   41.3540   30.0460   44.4950 H   0  0  0  0  0  0  0  0  0  0  0  0
   40.5790   30.1630   42.5920 C   0  0  0  0  0  0  0  0  0  0  0  0
   40.8890   29.0160   41.9880 N   0  0  0  0  0  0  0  0  0  0  0  0
   41.4310   28.2290   42.4440 H   0  0  0  0  0  0  0  0  0  0  0  0
   40.4320   28.9810   40.7370 C   0  0  0  0  0  0  0  0  0  0  0  0
   40.5640   28.1450   40.0490 H   0  0  0  0  0  0  0  0  0  0  0  0
   39.7740   30.1660   40.4690 C   0  0  0  0  0  3  0  0  0  0  0  0
   39.8820   30.8810   41.6420 C   0  0  0  0  0  0  0  0  0  0  0  0
   39.4160   32.1290   41.9580 C   0  0  0  0  0  3  0  0  0  0  0  0
   37.8330   30.2220   49.4130 O   0  0  0  0  0  0  0  0  0  0  0  0
   34.0330   28.8050   48.2930 C   0  0  0  0  0  0  0  0  0  0  0  0
   34.6400   28.3730   49.4360 C   0  0  0  0  0  0  0  0  0  0  0  0
   35.8770   28.7880   49.8690 C   0  0  0  0  0  0  0  0  0  0  0  0
   36.5880   29.6960   49.1370 C   0  0  0  0  0  0  0  0  0  0  0  0
   35.9800   30.1480   47.9620 C   0  0  0  0  0  0  0  0  0  0  0  0
   34.7590   29.7140   47.5720 N   0  0  0  0  0  0  0  0  0  0  0  0
   34.1310   27.6540   50.0630 H   0  0  0  0  0  0  0  0  0  0  0  0
   36.3500   28.4410   50.7760 H   0  0  0  0  0  0  0  0  0  0  0  0
   36.4280   30.8630   47.2920 H   0  0  0  0  0  0  0  0  0  0  0  0
   31.9230   27.5110   48.5580 C   0  0  0  0  0  0  0  0  0  0  0  0
   32.7500   28.3780   47.8290 C   0  0  0  0  0  0  0  0  0  0  0  0
   32.2770   28.8160   46.6150 C   0  0  0  0  0  0  0  0  0  0  0  0
   31.0520   28.4030   46.1710 N   0  0  0  0  0  0  0  0  0  0  0  0
   30.2890   27.5600   46.9200 C   0  0  0  0  0  0  0  0  0  0  0  0
   30.7150   27.1000   48.1300 N   0  0  0  0  0  0  0  0  0  0  0  0
   32.2520   27.1410   49.5200 H   0  0  0  0  0  0  0  0  0  0  0  0
   32.8140   29.4840   45.9550 H   0  0  0  0  0  0  0  0  0  0  0  0
   29.3120   27.2270   46.5720 H   0  0  0  0  0  0  0  0  0  0  0  0
  1  2  1  0  0  0  0
  1 26  1  0  0  0  0
  2  6  1  0  0  0  0
  3  7  1  0  0  0  0
  3  2  2  0  0  0  0
  4  5  1  0  0  0  0
  4  3  1  0  0  0  0
  5  1  2  0  0  0  0
  8  9  1  0  0  0  0
  8  4  1  0  0  0  0
 10  8  1  0  0  0  0
 11 12  1  0  0  0  0
 11  8  1  0  0  0  0
 13 11  1  0  0  0  0
 14 15  1  0  0  0  0
 15 11  1  0  0  0  0
 16 15  2  0  0  0  0
 16 17  1  0  0  0  0
 18 16  1  0  0  0  0
 19 20  1  0  0  0  0
 19 18  1  0  0  0  0
 21 19  1  0  0  0  0
 22 21  1  0  0  0  0
 23 21  2  0  0  0  0
 23 24  1  0  0  0  0
 24 25  1  0  0  0  0
 24 18  2  0  0  0  0
 25 14  2  0  0  0  0
 27 28  1  0  0  0  0
 28 29  2  0  0  0  0
 28 33  1  0  0  0  0
 29 34  1  0  0  0  0
 30 26  1  0  0  0  0
 30 29  1  0  0  0  0
 31 30  2  0  0  0  0
 32 31  1  0  0  0  0
 32 27  2  0  0  0  0
 35 31  1  0  0  0  0
 36 42  1  0  0  0  0
 37 27  1  0  0  0  0
 37 36  2  0  0  0  0
 38 37  1  0  0  0  0
 39 38  2  0  0  0  0
 39 40  1  0  0  0  0
 40 41  2  0  0  0  0
 41 36  1  0  0  0  0
 43 38  1  0  0  0  0
 44 40  1  0  0  0  0
M  END
>  <minimizedAffinity>
-6.71011353

>  <minimizedRMSD>
1.69475567

$$$$
