
 OpenBabel03262521423D

 46 51  0  0  0  0  0  0  0  0999 V2000
   39.2660   27.1830   31.8660 C   0  0  0  0  0  0  0  0  0  0  0  0
   39.0630   27.5570   30.5730 N   0  0  0  0  0  0  0  0  0  0  0  0
   40.1060   27.9560   29.8080 C   0  0  0  0  0  0  0  0  0  0  0  0
   41.3710   28.0020   30.2750 N   0  0  0  0  0  0  0  0  0  0  0  0
   41.6160   27.6440   31.5390 C   0  0  0  0  0  0  0  0  0  0  0  0
   42.9110   27.6840   32.0020 C   0  0  0  0  0  0  0  0  0  0  0  0
   43.1910   27.3070   33.3100 C   0  0  0  0  0  0  0  0  0  0  0  0
   42.1400   26.8870   34.1490 C   0  0  0  0  0  0  0  0  0  0  0  0
   40.8760   26.8740   33.6140 C   0  0  0  0  0  0  0  0  0  0  0  0
   40.5730   27.2360   32.3390 C   0  0  0  0  0  0  0  0  0  0  0  0
   39.8060   28.2250   28.8050 H   0  0  0  0  0  0  0  0  0  0  0  0
   43.6910   28.0180   31.3150 H   0  0  0  0  0  0  0  0  0  0  0  0
   44.2380   27.3760   33.5690 H   0  0  0  0  0  0  0  0  0  0  0  0
   42.5010   26.6260   35.1260 H   0  0  0  0  0  0  0  0  0  0  0  0
   39.0670   27.2030   35.4930 C   0  0  0  0  0  3  0  0  0  0  0  0
   39.9580   26.4870   34.6740 C   0  0  0  0  0  0  0  0  0  0  0  0
   40.0240   25.1010   34.8680 C   0  0  0  0  0  0  0  0  0  0  0  0
   40.6500   24.3870   34.3310 H   0  0  0  0  0  0  0  0  0  0  0  0
   39.2450   24.4530   35.8290 C   0  0  0  0  0  0  0  0  0  0  0  0
   39.0760   23.1940   36.2520 N   0  0  0  0  0  0  0  0  0  0  0  0
   39.5940   22.3670   35.8540 H   0  0  0  0  0  0  0  0  0  0  0  0
   38.1680   23.1270   37.2380 C   0  0  0  0  0  0  0  0  0  0  0  0
   37.8840   22.2150   37.7190 H   0  0  0  0  0  0  0  0  0  0  0  0
   37.6990   24.4110   37.4970 C   0  0  0  0  0  3  0  0  0  0  0  0
   38.3910   25.1970   36.6040 C   0  0  0  0  0  0  0  0  0  0  0  0
   38.3070   26.5600   36.4340 C   0  0  0  0  0  3  0  0  0  0  0  0
   38.0130   26.6100   32.9630 S   0  0  0  0  0  0  0  0  0  0  0  0
   37.9270   23.6810   32.9340 F   0  0  0  0  0  0  0  0  0  0  0  0
   36.8860   24.2140   32.2030 C   0  0  0  0  0  0  0  0  0  0  0  0
   35.9730   23.3910   31.5740 C   0  0  0  0  0  0  0  0  0  0  0  0
   34.9280   23.9810   30.8420 C   0  0  0  0  0  0  0  0  0  0  0  0
   34.8160   25.3670   30.7520 C   0  0  0  0  0  0  0  0  0  0  0  0
   35.7700   26.1170   31.4080 C   0  0  0  0  0  0  0  0  0  0  0  0
   36.8080   25.5790   32.1360 C   0  0  0  0  0  0  0  0  0  0  0  0
   34.2290   23.3420   30.3610 H   0  0  0  0  0  0  0  0  0  0  0  0
   34.0070   25.7980   30.1840 H   0  0  0  0  0  0  0  0  0  0  0  0
   35.6300   27.1810   31.3020 H   0  0  0  0  0  0  0  0  0  0  0  0
   35.3600   21.3950   32.6940 C   0  0  0  0  0  0  0  0  0  0  0  0
   36.1430   21.9860   31.7070 C   0  0  0  0  0  0  0  0  0  0  0  0
   36.9770   21.1510   30.9870 C   0  0  0  0  0  0  0  0  0  0  0  0
   36.9950   19.8260   31.2670 N   0  0  0  0  0  0  0  0  0  0  0  0
   36.2390   19.2950   32.2110 C   0  0  0  0  0  0  0  0  0  0  0  0
   35.4020   20.0640   32.9500 N   0  0  0  0  0  0  0  0  0  0  0  0
   34.6470   21.8980   33.3590 H   0  0  0  0  0  0  0  0  0  0  0  0
   37.5650   21.6430   30.2340 H   0  0  0  0  0  0  0  0  0  0  0  0
   36.4030   18.2180   32.2760 H   0  0  0  0  0  0  0  0  0  0  0  0
  1 10  1  0  0  0  0
  1 27  1  0  0  0  0
  2  1  2  0  0  0  0
  3  4  2  0  0  0  0
  3  2  1  0  0  0  0
  4  5  1  0  0  0  0
  5  6  2  0  0  0  0
  5 10  1  0  0  0  0
  6  7  1  0  0  0  0
  7 13  1  0  0  0  0
  7  8  2  0  0  0  0
  8 14  1  0  0  0  0
  9  8  1  0  0  0  0
  9 16  1  0  0  0  0
 10  9  2  0  0  0  0
 11  3  1  0  0  0  0
 12  6  1  0  0  0  0
 15 26  1  0  0  0  0
 16 17  1  0  0  0  0
 16 15  2  0  0  0  0
 17 19  2  0  0  0  0
 18 17  1  0  0  0  0
 19 20  1  0  0  0  0
 19 25  1  0  0  0  0
 20 22  1  0  0  0  0
 21 20  1  0  0  0  0
 22 24  2  0  0  0  0
 22 23  1  0  0  0  0
 25 24  1  0  0  0  0
 26 25  2  0  0  0  0
 29 28  1  0  0  0  0
 30 39  1  0  0  0  0
 30 29  2  0  0  0  0
 31 30  1  0  0  0  0
 32 31  2  0  0  0  0
 32 33  1  0  0  0  0
 33 34  2  0  0  0  0
 34 29  1  0  0  0  0
 34 27  1  0  0  0  0
 35 31  1  0  0  0  0
 36 32  1  0  0  0  0
 37 33  1  0  0  0  0
 38 43  1  0  0  0  0
 38 44  1  0  0  0  0
 39 38  2  0  0  0  0
 40 41  2  0  0  0  0
 40 39  1  0  0  0  0
 41 42  1  0  0  0  0
 42 46  1  0  0  0  0
 42 43  2  0  0  0  0
 45 40  1  0  0  0  0
M  END
>  <minimizedAffinity>
-7.50938606

$$$$

 OpenBabel03262521423D

 46 51  0  0  0  0  0  0  0  0999 V2000
   38.6660   24.5290   35.6720 C   0  0  0  0  0  0  0  0  0  0  0  0
   37.5880   24.4170   36.4950 N   0  0  0  0  0  0  0  0  0  0  0  0
   37.6580   23.6480   37.6070 C   0  0  0  0  0  0  0  0  0  0  0  0
   38.7720   22.9700   37.9510 N   0  0  0  0  0  0  0  0  0  0  0  0
   39.8540   23.0510   37.1710 C   0  0  0  0  0  0  0  0  0  0  0  0
   40.9900   22.3640   37.5350 C   0  0  0  0  0  0  0  0  0  0  0  0
   42.1300   22.4420   36.7440 C   0  0  0  0  0  0  0  0  0  0  0  0
   42.1080   23.2260   35.5740 C   0  0  0  0  0  0  0  0  0  0  0  0
   40.9390   23.8800   35.2780 C   0  0  0  0  0  0  0  0  0  0  0  0
   39.8100   23.8250   36.0330 C   0  0  0  0  0  0  0  0  0  0  0  0
   36.7340   23.6470   38.1700 H   0  0  0  0  0  0  0  0  0  0  0  0
   40.9570   21.7700   38.4500 H   0  0  0  0  0  0  0  0  0  0  0  0
   42.9620   21.8660   37.1230 H   0  0  0  0  0  0  0  0  0  0  0  0
   43.0540   23.1930   35.0660 H   0  0  0  0  0  0  0  0  0  0  0  0
   40.8680   24.1890   32.6680 C   0  0  0  0  0  3  0  0  0  0  0  0
   41.1270   24.5520   34.0010 C   0  0  0  0  0  0  0  0  0  0  0  0
   41.6850   25.8190   34.2170 C   0  0  0  0  0  0  0  0  0  0  0  0
   41.9520   26.2710   35.1730 H   0  0  0  0  0  0  0  0  0  0  0  0
   41.9740   26.6870   33.1610 C   0  0  0  0  0  0  0  0  0  0  0  0
   42.4890   27.9160   33.0290 N   0  0  0  0  0  0  0  0  0  0  0  0
   42.8060   28.5090   33.8400 H   0  0  0  0  0  0  0  0  0  0  0  0
   42.5470   28.2860   31.7400 C   0  0  0  0  0  0  0  0  0  0  0  0
   42.9250   29.2310   31.4130 H   0  0  0  0  0  0  0  0  0  0  0  0
   42.0440   27.2510   30.9580 C   0  0  0  0  0  3  0  0  0  0  0  0
   41.7020   26.2850   31.8770 C   0  0  0  0  0  0  0  0  0  0  0  0
   41.1550   25.0450   31.6380 C   0  0  0  0  0  3  0  0  0  0  0  0
   38.7300   25.5180   34.2160 S   0  0  0  0  0  0  0  0  0  0  0  0
   38.0080   22.7860   33.4370 F   0  0  0  0  0  0  0  0  0  0  0  0
   37.2590   23.7140   32.7420 C   0  0  0  0  0  0  0  0  0  0  0  0
   36.3150   23.3080   31.8200 C   0  0  0  0  0  0  0  0  0  0  0  0
   35.5750   24.2900   31.1390 C   0  0  0  0  0  0  0  0  0  0  0  0
   35.7890   25.6440   31.3890 C   0  0  0  0  0  0  0  0  0  0  0  0
   36.7500   25.9640   32.3250 C   0  0  0  0  0  0  0  0  0  0  0  0
   37.4960   25.0340   33.0140 C   0  0  0  0  0  0  0  0  0  0  0  0
   34.8500   23.9710   30.4310 H   0  0  0  0  0  0  0  0  0  0  0  0
   35.2100   26.3800   30.8550 H   0  0  0  0  0  0  0  0  0  0  0  0
   36.8690   27.0250   32.4760 H   0  0  0  0  0  0  0  0  0  0  0  0
   35.0900   21.3430   32.3180 C   0  0  0  0  0  0  0  0  0  0  0  0
   36.1450   21.9120   31.6120 C   0  0  0  0  0  0  0  0  0  0  0  0
   36.8880   21.0670   30.8080 C   0  0  0  0  0  0  0  0  0  0  0  0
   36.5640   19.7530   30.7460 N   0  0  0  0  0  0  0  0  0  0  0  0
   35.5560   19.2430   31.4280 C   0  0  0  0  0  0  0  0  0  0  0  0
   34.7920   20.0220   32.2330 N   0  0  0  0  0  0  0  0  0  0  0  0
   34.3990   21.8550   32.9990 H   0  0  0  0  0  0  0  0  0  0  0  0
   37.6940   21.5430   30.2790 H   0  0  0  0  0  0  0  0  0  0  0  0
   35.4640   18.1730   31.2380 H   0  0  0  0  0  0  0  0  0  0  0  0
  1 10  2  0  0  0  0
  1  2  1  0  0  0  0
  2  3  2  0  0  0  0
  3  4  1  0  0  0  0
  3 11  1  0  0  0  0
  5  6  1  0  0  0  0
  5  4  2  0  0  0  0
  6 12  1  0  0  0  0
  7 13  1  0  0  0  0
  7  6  2  0  0  0  0
  8  7  1  0  0  0  0
  9  8  2  0  0  0  0
  9 10  1  0  0  0  0
 10  5  1  0  0  0  0
 14  8  1  0  0  0  0
 15 16  1  0  0  0  0
 16 17  2  0  0  0  0
 16  9  1  0  0  0  0
 17 18  1  0  0  0  0
 19 17  1  0  0  0  0
 20 19  1  0  0  0  0
 20 21  1  0  0  0  0
 22 20  1  0  0  0  0
 23 22  1  0  0  0  0
 24 22  2  0  0  0  0
 24 25  1  0  0  0  0
 25 19  2  0  0  0  0
 26 25  1  0  0  0  0
 26 15  2  0  0  0  0
 27  1  1  0  0  0  0
 29 34  1  0  0  0  0
 29 28  1  0  0  0  0
 30 29  2  0  0  0  0
 31 32  2  0  0  0  0
 31 30  1  0  0  0  0
 32 33  1  0  0  0  0
 33 37  1  0  0  0  0
 33 34  2  0  0  0  0
 34 27  1  0  0  0  0
 35 31  1  0  0  0  0
 36 32  1  0  0  0  0
 38 44  1  0  0  0  0
 39 30  1  0  0  0  0
 39 38  2  0  0  0  0
 40 39  1  0  0  0  0
 41 40  2  0  0  0  0
 41 42  1  0  0  0  0
 42 43  2  0  0  0  0
 43 38  1  0  0  0  0
 45 40  1  0  0  0  0
 46 42  1  0  0  0  0
M  END
>  <minimizedAffinity>
-7.10198927

$$$$

 OpenBabel03262521423D

 46 51  0  0  0  0  0  0  0  0999 V2000
   35.0250   32.0060   35.3030 C   0  0  0  0  0  0  0  0  0  0  0  0
   36.2720   32.5020   35.0740 N   0  0  0  0  0  0  0  0  0  0  0  0
   36.5940   33.7490   35.4930 C   0  0  0  0  0  0  0  0  0  0  0  0
   35.7200   34.5440   36.1430 N   0  0  0  0  0  0  0  0  0  0  0  0
   34.4850   34.0960   36.3880 C   0  0  0  0  0  0  0  0  0  0  0  0
   33.6040   34.9110   37.0620 C   0  0  0  0  0  0  0  0  0  0  0  0
   32.3180   34.4620   37.3370 C   0  0  0  0  0  0  0  0  0  0  0  0
   31.9310   33.1740   36.9200 C   0  0  0  0  0  0  0  0  0  0  0  0
   32.8660   32.4220   36.2530 C   0  0  0  0  0  0  0  0  0  0  0  0
   34.1310   32.8330   35.9720 C   0  0  0  0  0  0  0  0  0  0  0  0
   37.6130   34.0190   35.2480 H   0  0  0  0  0  0  0  0  0  0  0  0
   33.9500   35.9010   37.3640 H   0  0  0  0  0  0  0  0  0  0  0  0
   31.7110   35.1800   37.8700 H   0  0  0  0  0  0  0  0  0  0  0  0
   30.9150   32.9620   37.1990 H   0  0  0  0  0  0  0  0  0  0  0  0
   31.6390   30.7290   34.6590 C   0  0  0  0  0  3  0  0  0  0  0  0
   32.2220   31.1790   35.8560 C   0  0  0  0  0  0  0  0  0  0  0  0
   32.2180   30.2880   36.9380 C   0  0  0  0  0  0  0  0  0  0  0  0
   32.6220   30.4580   37.9380 H   0  0  0  0  0  0  0  0  0  0  0  0
   31.6610   29.0110   36.8400 C   0  0  0  0  0  0  0  0  0  0  0  0
   31.4990   27.9590   37.6520 N   0  0  0  0  0  0  0  0  0  0  0  0
   31.8240   27.9360   38.6540 H   0  0  0  0  0  0  0  0  0  0  0  0
   30.8760   26.9490   37.0250 C   0  0  0  0  0  0  0  0  0  0  0  0
   30.6470   26.0140   37.4920 H   0  0  0  0  0  0  0  0  0  0  0  0
   30.6000   27.3400   35.7190 C   0  0  0  0  0  3  0  0  0  0  0  0
   31.1030   28.6200   35.6490 C   0  0  0  0  0  0  0  0  0  0  0  0
   31.0930   29.4750   34.5710 C   0  0  0  0  0  3  0  0  0  0  0  0
   34.4790   30.3940   34.8480 S   0  0  0  0  0  0  0  0  0  0  0  0
   36.2900   28.0930   34.7310 F   0  0  0  0  0  0  0  0  0  0  0  0
   36.1570   28.6820   33.4910 C   0  0  0  0  0  0  0  0  0  0  0  0
   36.8320   28.1780   32.3960 C   0  0  0  0  0  0  0  0  0  0  0  0
   36.6630   28.8110   31.1520 C   0  0  0  0  0  0  0  0  0  0  0  0
   35.8320   29.9230   31.0260 C   0  0  0  0  0  0  0  0  0  0  0  0
   35.1960   30.3630   32.1680 C   0  0  0  0  0  0  0  0  0  0  0  0
   35.3340   29.7720   33.4050 C   0  0  0  0  0  0  0  0  0  0  0  0
   37.1850   28.4180   30.3140 H   0  0  0  0  0  0  0  0  0  0  0  0
   35.7180   30.3930   30.0630 H   0  0  0  0  0  0  0  0  0  0  0  0
   34.5670   31.2240   32.0070 H   0  0  0  0  0  0  0  0  0  0  0  0
   37.0170   25.8170   32.4470 C   0  0  0  0  0  0  0  0  0  0  0  0
   37.6620   27.0410   32.5920 C   0  0  0  0  0  0  0  0  0  0  0  0
   39.0090   27.0060   32.9060 C   0  0  0  0  0  0  0  0  0  0  0  0
   39.6260   25.8090   33.0530 N   0  0  0  0  0  0  0  0  0  0  0  0
   38.9850   24.6630   32.9080 C   0  0  0  0  0  0  0  0  0  0  0  0
   37.6650   24.6360   32.6020 N   0  0  0  0  0  0  0  0  0  0  0  0
   35.9600   25.6540   32.2030 H   0  0  0  0  0  0  0  0  0  0  0  0
   39.4720   27.9700   33.0100 H   0  0  0  0  0  0  0  0  0  0  0  0
   39.6600   23.8220   33.0670 H   0  0  0  0  0  0  0  0  0  0  0  0
  1 10  1  0  0  0  0
  2  1  2  0  0  0  0
  2  3  1  0  0  0  0
  3  4  2  0  0  0  0
  4  5  1  0  0  0  0
  5  6  1  0  0  0  0
  6  7  2  0  0  0  0
  6 12  1  0  0  0  0
  7 13  1  0  0  0  0
  8 14  1  0  0  0  0
  8  7  1  0  0  0  0
  9  8  2  0  0  0  0
 10  9  1  0  0  0  0
 10  5  2  0  0  0  0
 11  3  1  0  0  0  0
 15 16  1  0  0  0  0
 16  9  1  0  0  0  0
 16 17  2  0  0  0  0
 17 18  1  0  0  0  0
 19 17  1  0  0  0  0
 19 20  1  0  0  0  0
 20 21  1  0  0  0  0
 22 23  1  0  0  0  0
 22 20  1  0  0  0  0
 24 22  2  0  0  0  0
 25 24  1  0  0  0  0
 25 19  2  0  0  0  0
 26 15  2  0  0  0  0
 26 25  1  0  0  0  0
 27  1  1  0  0  0  0
 29 28  1  0  0  0  0
 30 39  1  0  0  0  0
 30 29  2  0  0  0  0
 31 30  1  0  0  0  0
 32 31  2  0  0  0  0
 32 33  1  0  0  0  0
 33 34  2  0  0  0  0
 34 29  1  0  0  0  0
 34 27  1  0  0  0  0
 35 31  1  0  0  0  0
 36 32  1  0  0  0  0
 37 33  1  0  0  0  0
 38 39  2  0  0  0  0
 38 43  1  0  0  0  0
 39 40  1  0  0  0  0
 40 45  1  0  0  0  0
 40 41  2  0  0  0  0
 42 41  1  0  0  0  0
 42 46  1  0  0  0  0
 43 42  2  0  0  0  0
 44 38  1  0  0  0  0
M  END
>  <minimizedAffinity>
-7.02135324

$$$$

 OpenBabel03262521423D

 46 51  0  0  0  0  0  0  0  0999 V2000
   36.6690   28.8570   30.4050 C   0  0  0  0  0  0  0  0  0  0  0  0
   37.3210   28.2560   29.3720 N   0  0  0  0  0  0  0  0  0  0  0  0
   38.1070   28.9870   28.5470 C   0  0  0  0  0  0  0  0  0  0  0  0
   38.2810   30.3160   28.7000 N   0  0  0  0  0  0  0  0  0  0  0  0
   37.6580   30.9470   29.7010 C   0  0  0  0  0  0  0  0  0  0  0  0
   37.8500   32.3010   29.8550 C   0  0  0  0  0  0  0  0  0  0  0  0
   37.2200   32.9750   30.8950 C   0  0  0  0  0  0  0  0  0  0  0  0
   36.3890   32.2610   31.7800 C   0  0  0  0  0  0  0  0  0  0  0  0
   36.2480   30.9140   31.5590 C   0  0  0  0  0  0  0  0  0  0  0  0
   36.8520   30.2270   30.5540 C   0  0  0  0  0  0  0  0  0  0  0  0
   38.5650   28.3890   27.7720 H   0  0  0  0  0  0  0  0  0  0  0  0
   38.5020   32.8100   29.1440 H   0  0  0  0  0  0  0  0  0  0  0  0
   37.4400   34.0330   30.9240 H   0  0  0  0  0  0  0  0  0  0  0  0
   35.9720   32.9070   32.5290 H   0  0  0  0  0  0  0  0  0  0  0  0
   35.4240   29.8550   33.8210 C   0  0  0  0  0  3  0  0  0  0  0  0
   35.2930   30.4110   32.5360 C   0  0  0  0  0  0  0  0  0  0  0  0
   33.9940   30.5350   32.0270 C   0  0  0  0  0  0  0  0  0  0  0  0
   33.6970   30.9390   31.0580 H   0  0  0  0  0  0  0  0  0  0  0  0
   32.8740   30.1280   32.7570 C   0  0  0  0  0  0  0  0  0  0  0  0
   31.5490   30.1080   32.5690 N   0  0  0  0  0  0  0  0  0  0  0  0
   31.0750   30.4570   31.6950 H   0  0  0  0  0  0  0  0  0  0  0  0
   30.9120   29.5920   33.6320 C   0  0  0  0  0  0  0  0  0  0  0  0
   29.8490   29.4850   33.6900 H   0  0  0  0  0  0  0  0  0  0  0  0
   31.8580   29.2420   34.5900 C   0  0  0  0  0  3  0  0  0  0  0  0
   33.0550   29.5910   34.0070 C   0  0  0  0  0  0  0  0  0  0  0  0
   34.3210   29.4580   34.5300 C   0  0  0  0  0  3  0  0  0  0  0  0
   35.6450   28.0280   31.5740 S   0  0  0  0  0  0  0  0  0  0  0  0
   37.7640   26.9430   33.2840 F   0  0  0  0  0  0  0  0  0  0  0  0
   37.1110   25.9350   32.6030 C   0  0  0  0  0  0  0  0  0  0  0  0
   37.4830   24.6160   32.7730 C   0  0  0  0  0  0  0  0  0  0  0  0
   36.7870   23.6250   32.0590 C   0  0  0  0  0  0  0  0  0  0  0  0
   35.7450   23.9650   31.1980 C   0  0  0  0  0  0  0  0  0  0  0  0
   35.4390   25.3050   31.0860 C   0  0  0  0  0  0  0  0  0  0  0  0
   36.0940   26.3070   31.7670 C   0  0  0  0  0  0  0  0  0  0  0  0
   37.0780   22.6120   32.1940 H   0  0  0  0  0  0  0  0  0  0  0  0
   35.2260   23.1890   30.6600 H   0  0  0  0  0  0  0  0  0  0  0  0
   34.6250   25.5060   30.4080 H   0  0  0  0  0  0  0  0  0  0  0  0
   38.1610   24.0440   34.9690 C   0  0  0  0  0  0  0  0  0  0  0  0
   38.5530   24.3360   33.6660 C   0  0  0  0  0  0  0  0  0  0  0  0
   39.9100   24.3190   33.4020 C   0  0  0  0  0  0  0  0  0  0  0  0
   40.7780   24.0260   34.3990 N   0  0  0  0  0  0  0  0  0  0  0  0
   40.3760   23.7530   35.6260 C   0  0  0  0  0  0  0  0  0  0  0  0
   39.0580   23.7550   35.9450 N   0  0  0  0  0  0  0  0  0  0  0  0
   37.1370   24.0120   35.3590 H   0  0  0  0  0  0  0  0  0  0  0  0
   40.1720   24.5490   32.3850 H   0  0  0  0  0  0  0  0  0  0  0  0
   41.2280   23.5450   36.2740 H   0  0  0  0  0  0  0  0  0  0  0  0
  1 10  1  0  0  0  0
  1 27  1  0  0  0  0
  2  1  2  0  0  0  0
  3  4  2  0  0  0  0
  3  2  1  0  0  0  0
  4  5  1  0  0  0  0
  5  6  2  0  0  0  0
  5 10  1  0  0  0  0
  6  7  1  0  0  0  0
  7 13  1  0  0  0  0
  7  8  2  0  0  0  0
  8 14  1  0  0  0  0
  9  8  1  0  0  0  0
  9 16  1  0  0  0  0
 10  9  2  0  0  0  0
 11  3  1  0  0  0  0
 12  6  1  0  0  0  0
 15 26  1  0  0  0  0
 16 15  2  0  0  0  0
 17 16  1  0  0  0  0
 17 19  2  0  0  0  0
 18 17  1  0  0  0  0
 19 25  1  0  0  0  0
 20 19  1  0  0  0  0
 20 22  1  0  0  0  0
 21 20  1  0  0  0  0
 22 23  1  0  0  0  0
 22 24  2  0  0  0  0
 25 26  2  0  0  0  0
 25 24  1  0  0  0  0
 27 34  1  0  0  0  0
 29 30  1  0  0  0  0
 29 28  1  0  0  0  0
 30 39  1  0  0  0  0
 31 35  1  0  0  0  0
 31 30  2  0  0  0  0
 32 31  1  0  0  0  0
 33 32  2  0  0  0  0
 33 34  1  0  0  0  0
 34 29  2  0  0  0  0
 36 32  1  0  0  0  0
 37 33  1  0  0  0  0
 38 44  1  0  0  0  0
 38 43  1  0  0  0  0
 39 38  2  0  0  0  0
 40 39  1  0  0  0  0
 40 41  2  0  0  0  0
 41 42  1  0  0  0  0
 42 43  2  0  0  0  0
 42 46  1  0  0  0  0
 45 40  1  0  0  0  0
M  END
>  <minimizedAffinity>
-6.90581274

$$$$

 OpenBabel03262521423D

 46 51  0  0  0  0  0  0  0  0999 V2000
   36.7910   28.8720   30.3580 C   0  0  0  0  0  0  0  0  0  0  0  0
   37.4490   28.2750   29.3270 N   0  0  0  0  0  0  0  0  0  0  0  0
   38.2340   29.0110   28.5050 C   0  0  0  0  0  0  0  0  0  0  0  0
   38.4020   30.3400   28.6610 N   0  0  0  0  0  0  0  0  0  0  0  0
   37.7730   30.9670   29.6600 C   0  0  0  0  0  0  0  0  0  0  0  0
   37.9590   32.3210   29.8180 C   0  0  0  0  0  0  0  0  0  0  0  0
   37.3230   32.9910   30.8560 C   0  0  0  0  0  0  0  0  0  0  0  0
   36.4930   32.2720   31.7380 C   0  0  0  0  0  0  0  0  0  0  0  0
   36.3580   30.9250   31.5150 C   0  0  0  0  0  0  0  0  0  0  0  0
   36.9680   30.2420   30.5100 C   0  0  0  0  0  0  0  0  0  0  0  0
   38.6970   28.4160   27.7300 H   0  0  0  0  0  0  0  0  0  0  0  0
   38.6110   32.8350   29.1090 H   0  0  0  0  0  0  0  0  0  0  0  0
   37.5390   34.0500   30.8870 H   0  0  0  0  0  0  0  0  0  0  0  0
   36.0700   32.9160   32.4870 H   0  0  0  0  0  0  0  0  0  0  0  0
   35.5300   29.8810   33.7820 C   0  0  0  0  0  3  0  0  0  0  0  0
   35.4030   30.4160   32.4880 C   0  0  0  0  0  0  0  0  0  0  0  0
   34.1070   30.5080   31.9640 C   0  0  0  0  0  0  0  0  0  0  0  0
   33.8130   30.8930   30.9860 H   0  0  0  0  0  0  0  0  0  0  0  0
   32.9870   30.0880   32.6870 C   0  0  0  0  0  0  0  0  0  0  0  0
   31.6650   30.0400   32.4850 N   0  0  0  0  0  0  0  0  0  0  0  0
   31.1940   30.3670   31.6010 H   0  0  0  0  0  0  0  0  0  0  0  0
   31.0260   29.5260   33.5480 C   0  0  0  0  0  0  0  0  0  0  0  0
   29.9660   29.3980   33.5960 H   0  0  0  0  0  0  0  0  0  0  0  0
   31.9690   29.2080   34.5210 C   0  0  0  0  0  3  0  0  0  0  0  0
   33.1650   29.5730   33.9460 C   0  0  0  0  0  0  0  0  0  0  0  0
   34.4280   29.4720   34.4840 C   0  0  0  0  0  3  0  0  0  0  0  0
   35.7680   28.0370   31.5240 S   0  0  0  0  0  0  0  0  0  0  0  0
   35.5410   25.2210   30.7440 F   0  0  0  0  0  0  0  0  0  0  0  0
   36.4000   25.3710   31.8130 C   0  0  0  0  0  0  0  0  0  0  0  0
   37.0250   24.2750   32.3740 C   0  0  0  0  0  0  0  0  0  0  0  0
   37.8930   24.4780   33.4610 C   0  0  0  0  0  0  0  0  0  0  0  0
   38.1190   25.7600   33.9610 C   0  0  0  0  0  0  0  0  0  0  0  0
   37.4550   26.8000   33.3450 C   0  0  0  0  0  0  0  0  0  0  0  0
   36.5980   26.6430   32.2780 C   0  0  0  0  0  0  0  0  0  0  0  0
   38.3700   23.6310   33.8880 H   0  0  0  0  0  0  0  0  0  0  0  0
   38.7880   25.8930   34.7960 H   0  0  0  0  0  0  0  0  0  0  0  0
   37.6720   27.7640   33.7740 H   0  0  0  0  0  0  0  0  0  0  0  0
   37.8260   22.4080   31.1560 C   0  0  0  0  0  0  0  0  0  0  0  0
   36.7520   22.9960   31.8160 C   0  0  0  0  0  0  0  0  0  0  0  0
   35.5690   22.2800   31.8490 C   0  0  0  0  0  0  0  0  0  0  0  0
   35.5110   21.0660   31.2510 N   0  0  0  0  0  0  0  0  0  0  0  0
   36.5490   20.5340   30.6320 C   0  0  0  0  0  0  0  0  0  0  0  0
   37.7330   21.1900   30.5670 N   0  0  0  0  0  0  0  0  0  0  0  0
   38.8320   22.8270   31.0300 H   0  0  0  0  0  0  0  0  0  0  0  0
   34.7630   22.7660   32.3680 H   0  0  0  0  0  0  0  0  0  0  0  0
   36.2930   19.5570   30.2220 H   0  0  0  0  0  0  0  0  0  0  0  0
  1 10  1  0  0  0  0
  1 27  1  0  0  0  0
  2  1  2  0  0  0  0
  3  4  2  0  0  0  0
  3  2  1  0  0  0  0
  4  5  1  0  0  0  0
  5  6  2  0  0  0  0
  5 10  1  0  0  0  0
  6  7  1  0  0  0  0
  7 13  1  0  0  0  0
  7  8  2  0  0  0  0
  8 14  1  0  0  0  0
  9  8  1  0  0  0  0
  9 16  1  0  0  0  0
 10  9  2  0  0  0  0
 11  3  1  0  0  0  0
 12  6  1  0  0  0  0
 15 26  1  0  0  0  0
 16 15  2  0  0  0  0
 17 16  1  0  0  0  0
 17 19  2  0  0  0  0
 18 17  1  0  0  0  0
 19 25  1  0  0  0  0
 20 19  1  0  0  0  0
 20 22  1  0  0  0  0
 21 20  1  0  0  0  0
 22 23  1  0  0  0  0
 22 24  2  0  0  0  0
 25 26  2  0  0  0  0
 25 24  1  0  0  0  0
 27 34  1  0  0  0  0
 28 29  1  0  0  0  0
 29 34  2  0  0  0  0
 29 30  1  0  0  0  0
 30 31  2  0  0  0  0
 31 35  1  0  0  0  0
 31 32  1  0  0  0  0
 32 36  1  0  0  0  0
 33 37  1  0  0  0  0
 33 32  2  0  0  0  0
 34 33  1  0  0  0  0
 38 39  1  0  0  0  0
 39 40  2  0  0  0  0
 39 30  1  0  0  0  0
 40 45  1  0  0  0  0
 41 40  1  0  0  0  0
 42 41  2  0  0  0  0
 43 42  1  0  0  0  0
 43 38  2  0  0  0  0
 44 38  1  0  0  0  0
 46 42  1  0  0  0  0
M  END
>  <minimizedAffinity>
-6.87339973

$$$$

 OpenBabel03262521423D

 46 51  0  0  0  0  0  0  0  0999 V2000
   40.6010   23.1900   35.0700 C   0  0  0  0  0  0  0  0  0  0  0  0
   41.3840   22.1040   35.3150 N   0  0  0  0  0  0  0  0  0  0  0  0
   41.3350   21.4880   36.5200 C   0  0  0  0  0  0  0  0  0  0  0  0
   40.5280   21.9070   37.5160 N   0  0  0  0  0  0  0  0  0  0  0  0
   39.7430   22.9700   37.3190 C   0  0  0  0  0  0  0  0  0  0  0  0
   38.9150   23.3840   38.3370 C   0  0  0  0  0  0  0  0  0  0  0  0
   38.0830   24.4810   38.1510 C   0  0  0  0  0  0  0  0  0  0  0  0
   38.0980   25.1600   36.9170 C   0  0  0  0  0  0  0  0  0  0  0  0
   38.9510   24.6870   35.9510 C   0  0  0  0  0  0  0  0  0  0  0  0
   39.7740   23.6160   36.1030 C   0  0  0  0  0  0  0  0  0  0  0  0
   42.0050   20.6410   36.5810 H   0  0  0  0  0  0  0  0  0  0  0  0
   38.9390   22.8260   39.2750 H   0  0  0  0  0  0  0  0  0  0  0  0
   37.4760   24.7180   39.0130 H   0  0  0  0  0  0  0  0  0  0  0  0
   37.4080   25.9830   36.9160 H   0  0  0  0  0  0  0  0  0  0  0  0
   39.6870   26.5910   34.2930 C   0  0  0  0  0  3  0  0  0  0  0  0
   38.8530   25.5820   34.8080 C   0  0  0  0  0  0  0  0  0  0  0  0
   37.6570   25.3350   34.1210 C   0  0  0  0  0  0  0  0  0  0  0  0
   36.8920   24.5970   34.3680 H   0  0  0  0  0  0  0  0  0  0  0  0
   37.3020   26.0530   32.9770 C   0  0  0  0  0  0  0  0  0  0  0  0
   36.2730   26.0640   32.1200 N   0  0  0  0  0  0  0  0  0  0  0  0
   35.4390   25.4240   32.1960 H   0  0  0  0  0  0  0  0  0  0  0  0
   36.4450   26.9880   31.1620 C   0  0  0  0  0  0  0  0  0  0  0  0
   35.7410   27.1640   30.3760 H   0  0  0  0  0  0  0  0  0  0  0  0
   37.6550   27.6380   31.3840 C   0  0  0  0  0  3  0  0  0  0  0  0
   38.1500   27.0270   32.5140 C   0  0  0  0  0  0  0  0  0  0  0  0
   39.3300   27.2910   33.1710 C   0  0  0  0  0  3  0  0  0  0  0  0
   40.5360   24.0670   33.5440 S   0  0  0  0  0  0  0  0  0  0  0  0
   38.1230   22.4050   33.5970 F   0  0  0  0  0  0  0  0  0  0  0  0
   38.7510   22.3260   32.3710 C   0  0  0  0  0  0  0  0  0  0  0  0
   38.2330   21.5380   31.3630 C   0  0  0  0  0  0  0  0  0  0  0  0
   38.9080   21.4920   30.1310 C   0  0  0  0  0  0  0  0  0  0  0  0
   40.0760   22.2260   29.9310 C   0  0  0  0  0  0  0  0  0  0  0  0
   40.5270   22.9860   30.9900 C   0  0  0  0  0  0  0  0  0  0  0  0
   39.8960   23.0600   32.2110 C   0  0  0  0  0  0  0  0  0  0  0  0
   38.5040   20.8840   29.3590 H   0  0  0  0  0  0  0  0  0  0  0  0
   40.5780   22.1750   28.9780 H   0  0  0  0  0  0  0  0  0  0  0  0
   41.4320   23.5310   30.7740 H   0  0  0  0  0  0  0  0  0  0  0  0
   37.2260   19.4680   31.9210 C   0  0  0  0  0  0  0  0  0  0  0  0
   37.0380   20.8160   31.6310 C   0  0  0  0  0  0  0  0  0  0  0  0
   35.7360   21.2820   31.6370 C   0  0  0  0  0  0  0  0  0  0  0  0
   34.7250   20.4270   31.9200 N   0  0  0  0  0  0  0  0  0  0  0  0
   34.9350   19.1520   32.1910 C   0  0  0  0  0  0  0  0  0  0  0  0
   36.1900   18.6380   32.1990 N   0  0  0  0  0  0  0  0  0  0  0  0
   38.1800   18.9290   31.9600 H   0  0  0  0  0  0  0  0  0  0  0  0
   35.6320   22.3270   31.4090 H   0  0  0  0  0  0  0  0  0  0  0  0
   33.9940   18.6390   32.3900 H   0  0  0  0  0  0  0  0  0  0  0  0
  1  2  2  0  0  0  0
  1 10  1  0  0  0  0
  2  3  1  0  0  0  0
  3 11  1  0  0  0  0
  3  4  2  0  0  0  0
  5  4  1  0  0  0  0
  5  6  1  0  0  0  0
  6 12  1  0  0  0  0
  7  6  2  0  0  0  0
  7 13  1  0  0  0  0
  8  7  1  0  0  0  0
  9 10  1  0  0  0  0
  9  8  2  0  0  0  0
 10  5  2  0  0  0  0
 14  8  1  0  0  0  0
 15 16  1  0  0  0  0
 16  9  1  0  0  0  0
 17 18  1  0  0  0  0
 17 16  2  0  0  0  0
 19 17  1  0  0  0  0
 20 21  1  0  0  0  0
 20 19  1  0  0  0  0
 22 24  2  0  0  0  0
 22 20  1  0  0  0  0
 23 22  1  0  0  0  0
 24 25  1  0  0  0  0
 25 19  2  0  0  0  0
 25 26  1  0  0  0  0
 26 15  2  0  0  0  0
 27  1  1  0  0  0  0
 29 28  1  0  0  0  0
 30 39  1  0  0  0  0
 30 29  2  0  0  0  0
 31 30  1  0  0  0  0
 32 31  2  0  0  0  0
 32 33  1  0  0  0  0
 33 34  2  0  0  0  0
 34 29  1  0  0  0  0
 34 27  1  0  0  0  0
 35 31  1  0  0  0  0
 36 32  1  0  0  0  0
 37 33  1  0  0  0  0
 38 44  1  0  0  0  0
 38 43  1  0  0  0  0
 39 40  1  0  0  0  0
 39 38  2  0  0  0  0
 40 41  2  0  0  0  0
 41 42  1  0  0  0  0
 42 43  2  0  0  0  0
 42 46  1  0  0  0  0
 45 40  1  0  0  0  0
M  END
>  <minimizedAffinity>
-6.84585285

$$$$

 OpenBabel03262521423D

 46 51  0  0  0  0  0  0  0  0999 V2000
   40.1320   25.8750   34.6090 C   0  0  0  0  0  0  0  0  0  0  0  0
   40.5440   27.0080   33.9770 N   0  0  0  0  0  0  0  0  0  0  0  0
   41.8640   27.2340   33.7790 C   0  0  0  0  0  0  0  0  0  0  0  0
   42.8170   26.3720   34.1880 N   0  0  0  0  0  0  0  0  0  0  0  0
   42.4570   25.2470   34.8140 C   0  0  0  0  0  0  0  0  0  0  0  0
   43.4360   24.3680   35.2170 C   0  0  0  0  0  0  0  0  0  0  0  0
   43.0830   23.1880   35.8610 C   0  0  0  0  0  0  0  0  0  0  0  0
   41.7230   22.9060   36.0940 C   0  0  0  0  0  0  0  0  0  0  0  0
   40.8070   23.8320   35.6630 C   0  0  0  0  0  0  0  0  0  0  0  0
   41.1210   24.9930   35.0290 C   0  0  0  0  0  0  0  0  0  0  0  0
   42.0530   28.1680   33.2660 H   0  0  0  0  0  0  0  0  0  0  0  0
   44.4750   24.6310   35.0150 H   0  0  0  0  0  0  0  0  0  0  0  0
   43.9290   22.5710   36.1330 H   0  0  0  0  0  0  0  0  0  0  0  0
   41.6010   21.9650   36.5980 H   0  0  0  0  0  0  0  0  0  0  0  0
   38.6980   23.6030   37.2160 C   0  0  0  0  0  3  0  0  0  0  0  0
   39.4920   23.3700   36.0790 C   0  0  0  0  0  0  0  0  0  0  0  0
   38.9620   22.5220   35.0970 C   0  0  0  0  0  0  0  0  0  0  0  0
   39.4260   22.2270   34.1550 H   0  0  0  0  0  0  0  0  0  0  0  0
   37.7040   21.9300   35.2350 C   0  0  0  0  0  0  0  0  0  0  0  0
   36.9360   21.1040   34.5130 N   0  0  0  0  0  0  0  0  0  0  0  0
   37.2170   20.7130   33.5750 H   0  0  0  0  0  0  0  0  0  0  0  0
   35.7760   20.8450   35.1360 C   0  0  0  0  0  0  0  0  0  0  0  0
   35.0180   20.2080   34.7320 H   0  0  0  0  0  0  0  0  0  0  0  0
   35.7580   21.5320   36.3450 C   0  0  0  0  0  3  0  0  0  0  0  0
   36.9680   22.1890   36.3640 C   0  0  0  0  0  0  0  0  0  0  0  0
   37.4650   23.0180   37.3430 C   0  0  0  0  0  3  0  0  0  0  0  0
   38.4530   25.4340   34.9030 S   0  0  0  0  0  0  0  0  0  0  0  0
   37.3520   27.9650   33.9140 F   0  0  0  0  0  0  0  0  0  0  0  0
   36.9780   26.9120   33.1050 C   0  0  0  0  0  0  0  0  0  0  0  0
   36.1840   27.1250   31.9950 C   0  0  0  0  0  0  0  0  0  0  0  0
   35.8300   26.0210   31.2000 C   0  0  0  0  0  0  0  0  0  0  0  0
   36.2700   24.7390   31.5250 C   0  0  0  0  0  0  0  0  0  0  0  0
   37.0570   24.6130   32.6500 C   0  0  0  0  0  0  0  0  0  0  0  0
   37.4280   25.6680   33.4550 C   0  0  0  0  0  0  0  0  0  0  0  0
   35.2200   26.1920   30.3480 H   0  0  0  0  0  0  0  0  0  0  0  0
   35.9850   23.9060   30.9020 H   0  0  0  0  0  0  0  0  0  0  0  0
   37.3670   23.6000   32.8490 H   0  0  0  0  0  0  0  0  0  0  0  0
   34.6680   28.8870   32.4510 C   0  0  0  0  0  0  0  0  0  0  0  0
   35.7700   28.4560   31.7190 C   0  0  0  0  0  0  0  0  0  0  0  0
   36.3200   29.3580   30.8270 C   0  0  0  0  0  0  0  0  0  0  0  0
   35.7740   30.5920   30.7080 N   0  0  0  0  0  0  0  0  0  0  0  0
   34.7280   30.9720   31.4180 C   0  0  0  0  0  0  0  0  0  0  0  0
   34.1460   30.1300   32.3070 N   0  0  0  0  0  0  0  0  0  0  0  0
   34.1070   28.3120   33.1980 H   0  0  0  0  0  0  0  0  0  0  0  0
   37.1690   28.9900   30.2800 H   0  0  0  0  0  0  0  0  0  0  0  0
   34.4470   31.9970   31.1730 H   0  0  0  0  0  0  0  0  0  0  0  0
  1 27  1  0  0  0  0
  1 10  1  0  0  0  0
  2  1  2  0  0  0  0
  3  2  1  0  0  0  0
  3  4  2  0  0  0  0
  4  5  1  0  0  0  0
  5 10  2  0  0  0  0
  5  6  1  0  0  0  0
  6  7  2  0  0  0  0
  7  8  1  0  0  0  0
  7 13  1  0  0  0  0
  8 14  1  0  0  0  0
  9 16  1  0  0  0  0
  9  8  2  0  0  0  0
 10  9  1  0  0  0  0
 11  3  1  0  0  0  0
 12  6  1  0  0  0  0
 15 26  1  0  0  0  0
 16 15  2  0  0  0  0
 17 19  2  0  0  0  0
 17 16  1  0  0  0  0
 18 17  1  0  0  0  0
 19 25  1  0  0  0  0
 20 22  1  0  0  0  0
 20 19  1  0  0  0  0
 21 20  1  0  0  0  0
 22 24  2  0  0  0  0
 23 22  1  0  0  0  0
 24 25  1  0  0  0  0
 25 26  2  0  0  0  0
 29 34  1  0  0  0  0
 29 28  1  0  0  0  0
 30 29  2  0  0  0  0
 31 32  2  0  0  0  0
 31 30  1  0  0  0  0
 32 33  1  0  0  0  0
 33 37  1  0  0  0  0
 33 34  2  0  0  0  0
 34 27  1  0  0  0  0
 35 31  1  0  0  0  0
 36 32  1  0  0  0  0
 38 44  1  0  0  0  0
 39 30  1  0  0  0  0
 39 38  2  0  0  0  0
 40 39  1  0  0  0  0
 41 40  2  0  0  0  0
 41 42  1  0  0  0  0
 42 43  2  0  0  0  0
 43 38  1  0  0  0  0
 45 40  1  0  0  0  0
 46 42  1  0  0  0  0
M  END
>  <minimizedAffinity>
-6.7894311

$$$$

 OpenBabel03262521423D

 46 51  0  0  0  0  0  0  0  0999 V2000
   40.3030   25.9370   34.4720 C   0  0  0  0  0  0  0  0  0  0  0  0
   40.7320   27.0610   33.8360 N   0  0  0  0  0  0  0  0  0  0  0  0
   42.0570   27.2880   33.6780 C   0  0  0  0  0  0  0  0  0  0  0  0
   42.9990   26.4350   34.1300 N   0  0  0  0  0  0  0  0  0  0  0  0
   42.6210   25.3190   34.7610 C   0  0  0  0  0  0  0  0  0  0  0  0
   43.5890   24.4490   35.2090 C   0  0  0  0  0  0  0  0  0  0  0  0
   43.2190   23.2770   35.8590 C   0  0  0  0  0  0  0  0  0  0  0  0
   41.8530   22.9940   36.0520 C   0  0  0  0  0  0  0  0  0  0  0  0
   40.9490   23.9110   35.5770 C   0  0  0  0  0  0  0  0  0  0  0  0
   41.2800   25.0630   34.9370 C   0  0  0  0  0  0  0  0  0  0  0  0
   42.2600   28.2150   33.1580 H   0  0  0  0  0  0  0  0  0  0  0  0
   44.6340   24.7120   35.0370 H   0  0  0  0  0  0  0  0  0  0  0  0
   44.0570   22.6680   36.1670 H   0  0  0  0  0  0  0  0  0  0  0  0
   41.7170   22.0610   36.5650 H   0  0  0  0  0  0  0  0  0  0  0  0
   38.7880   23.7050   37.0610 C   0  0  0  0  0  3  0  0  0  0  0  0
   39.6220   23.4510   35.9580 C   0  0  0  0  0  0  0  0  0  0  0  0
   39.1310   22.5780   34.9780 C   0  0  0  0  0  0  0  0  0  0  0  0
   39.6300   22.2650   34.0600 H   0  0  0  0  0  0  0  0  0  0  0  0
   37.8720   21.9830   35.0850 C   0  0  0  0  0  0  0  0  0  0  0  0
   37.1340   21.1360   34.3550 N   0  0  0  0  0  0  0  0  0  0  0  0
   37.4490   20.7250   33.4370 H   0  0  0  0  0  0  0  0  0  0  0  0
   35.9540   20.8850   34.9430 C   0  0  0  0  0  0  0  0  0  0  0  0
   35.2140   20.2340   34.5280 H   0  0  0  0  0  0  0  0  0  0  0  0
   35.8910   21.5990   36.1350 C   0  0  0  0  0  3  0  0  0  0  0  0
   37.0960   22.2630   36.1820 C   0  0  0  0  0  0  0  0  0  0  0  0
   37.5550   23.1160   37.1590 C   0  0  0  0  0  3  0  0  0  0  0  0
   38.6160   25.4950   34.7180 S   0  0  0  0  0  0  0  0  0  0  0  0
   37.2640   27.8510   35.8180 F   0  0  0  0  0  0  0  0  0  0  0  0
   36.9290   27.6610   34.4930 C   0  0  0  0  0  0  0  0  0  0  0  0
   36.0600   28.5250   33.8560 C   0  0  0  0  0  0  0  0  0  0  0  0
   35.7500   28.2910   32.5050 C   0  0  0  0  0  0  0  0  0  0  0  0
   36.3080   27.2120   31.8220 C   0  0  0  0  0  0  0  0  0  0  0  0
   37.1660   26.3970   32.5320 C   0  0  0  0  0  0  0  0  0  0  0  0
   37.4960   26.5910   33.8560 C   0  0  0  0  0  0  0  0  0  0  0  0
   35.0810   28.9590   32.0210 H   0  0  0  0  0  0  0  0  0  0  0  0
   36.0560   27.0510   30.7870 H   0  0  0  0  0  0  0  0  0  0  0  0
   37.5660   25.5820   31.9520 H   0  0  0  0  0  0  0  0  0  0  0  0
   34.1360   29.6540   34.6530 C   0  0  0  0  0  0  0  0  0  0  0  0
   35.5260   29.6060   34.6090 C   0  0  0  0  0  0  0  0  0  0  0  0
   36.2090   30.5990   35.2880 C   0  0  0  0  0  0  0  0  0  0  0  0
   35.5110   31.5510   35.9520 N   0  0  0  0  0  0  0  0  0  0  0  0
   34.1910   31.5690   35.9760 C   0  0  0  0  0  0  0  0  0  0  0  0
   33.4680   30.6230   35.3280 N   0  0  0  0  0  0  0  0  0  0  0  0
   33.4370   28.9570   34.1770 H   0  0  0  0  0  0  0  0  0  0  0  0
   37.2800   30.5280   35.2300 H   0  0  0  0  0  0  0  0  0  0  0  0
   33.8270   32.4130   36.5630 H   0  0  0  0  0  0  0  0  0  0  0  0
  1 27  1  0  0  0  0
  1 10  1  0  0  0  0
  2  1  2  0  0  0  0
  3  2  1  0  0  0  0
  3  4  2  0  0  0  0
  4  5  1  0  0  0  0
  5 10  2  0  0  0  0
  5  6  1  0  0  0  0
  6  7  2  0  0  0  0
  7  8  1  0  0  0  0
  7 13  1  0  0  0  0
  8 14  1  0  0  0  0
  9 16  1  0  0  0  0
  9  8  2  0  0  0  0
 10  9  1  0  0  0  0
 11  3  1  0  0  0  0
 12  6  1  0  0  0  0
 15 26  1  0  0  0  0
 16 15  2  0  0  0  0
 17 19  2  0  0  0  0
 17 16  1  0  0  0  0
 18 17  1  0  0  0  0
 19 25  1  0  0  0  0
 20 22  1  0  0  0  0
 20 19  1  0  0  0  0
 21 20  1  0  0  0  0
 22 24  2  0  0  0  0
 23 22  1  0  0  0  0
 24 25  1  0  0  0  0
 25 26  2  0  0  0  0
 29 28  1  0  0  0  0
 30 29  2  0  0  0  0
 30 39  1  0  0  0  0
 31 30  1  0  0  0  0
 32 31  2  0  0  0  0
 32 33  1  0  0  0  0
 33 34  2  0  0  0  0
 34 29  1  0  0  0  0
 34 27  1  0  0  0  0
 35 31  1  0  0  0  0
 36 32  1  0  0  0  0
 37 33  1  0  0  0  0
 38 43  1  0  0  0  0
 39 38  2  0  0  0  0
 39 40  1  0  0  0  0
 40 41  2  0  0  0  0
 41 42  1  0  0  0  0
 42 46  1  0  0  0  0
 43 42  2  0  0  0  0
 44 38  1  0  0  0  0
 45 40  1  0  0  0  0
M  END
>  <minimizedAffinity>
-6.73360729

$$$$

 OpenBabel03262521423D

 46 51  0  0  0  0  0  0  0  0999 V2000
   37.9420   25.9520   32.1220 C   0  0  0  0  0  0  0  0  0  0  0  0
   37.2130   26.1050   30.9820 N   0  0  0  0  0  0  0  0  0  0  0  0
   36.2220   27.0260   30.9270 C   0  0  0  0  0  0  0  0  0  0  0  0
   35.9120   27.8210   31.9720 N   0  0  0  0  0  0  0  0  0  0  0  0
   36.6020   27.7040   33.1110 C   0  0  0  0  0  0  0  0  0  0  0  0
   36.2860   28.5260   34.1680 C   0  0  0  0  0  0  0  0  0  0  0  0
   36.9970   28.4290   35.3580 C   0  0  0  0  0  0  0  0  0  0  0  0
   38.0350   27.4840   35.4680 C   0  0  0  0  0  0  0  0  0  0  0  0
   38.2900   26.7000   34.3710 C   0  0  0  0  0  0  0  0  0  0  0  0
   37.6140   26.7740   33.1940 C   0  0  0  0  0  0  0  0  0  0  0  0
   35.7250   27.0440   29.9670 H   0  0  0  0  0  0  0  0  0  0  0  0
   35.4720   29.2420   34.0340 H   0  0  0  0  0  0  0  0  0  0  0  0
   36.6670   29.1210   36.1200 H   0  0  0  0  0  0  0  0  0  0  0  0
   38.4940   27.5210   36.4390 H   0  0  0  0  0  0  0  0  0  0  0  0
   40.7250   25.7200   34.5280 C   0  0  0  0  0  3  0  0  0  0  0  0
   39.3360   25.7590   34.7420 C   0  0  0  0  0  0  0  0  0  0  0  0
   38.7740   24.6940   35.4590 C   0  0  0  0  0  0  0  0  0  0  0  0
   37.7250   24.5520   35.7210 H   0  0  0  0  0  0  0  0  0  0  0  0
   39.5520   23.6390   35.9420 C   0  0  0  0  0  0  0  0  0  0  0  0
   39.3370   22.5140   36.6350 N   0  0  0  0  0  0  0  0  0  0  0  0
   38.3870   22.2070   36.9760 H   0  0  0  0  0  0  0  0  0  0  0  0
   40.4780   21.8370   36.8360 C   0  0  0  0  0  0  0  0  0  0  0  0
   40.5300   20.9100   37.3670 H   0  0  0  0  0  0  0  0  0  0  0  0
   41.5220   22.5420   36.2450 C   0  0  0  0  0  3  0  0  0  0  0  0
   40.9040   23.6480   35.7060 C   0  0  0  0  0  0  0  0  0  0  0  0
   41.4800   24.6810   35.0040 C   0  0  0  0  0  3  0  0  0  0  0  0
   39.2780   24.8230   32.3240 S   0  0  0  0  0  0  0  0  0  0  0  0
   37.4930   22.5660   32.8800 F   0  0  0  0  0  0  0  0  0  0  0  0
   38.2010   22.3620   31.7130 C   0  0  0  0  0  0  0  0  0  0  0  0
   38.0210   21.2100   30.9730 C   0  0  0  0  0  0  0  0  0  0  0  0
   38.7630   21.0490   29.7900 C   0  0  0  0  0  0  0  0  0  0  0  0
   39.6610   22.0300   29.3720 C   0  0  0  0  0  0  0  0  0  0  0  0
   39.7810   23.1490   30.1700 C   0  0  0  0  0  0  0  0  0  0  0  0
   39.0730   23.3460   31.3350 C   0  0  0  0  0  0  0  0  0  0  0  0
   38.6190   20.1610   29.2250 H   0  0  0  0  0  0  0  0  0  0  0  0
   40.2200   21.8850   28.4620 H   0  0  0  0  0  0  0  0  0  0  0  0
   40.4880   23.8710   29.7950 H   0  0  0  0  0  0  0  0  0  0  0  0
   35.7630   20.6720   31.4460 C   0  0  0  0  0  0  0  0  0  0  0  0
   37.0890   20.2500   31.4520 C   0  0  0  0  0  0  0  0  0  0  0  0
   37.3370   18.9710   31.9170 C   0  0  0  0  0  0  0  0  0  0  0  0
   36.3020   18.2040   32.3350 N   0  0  0  0  0  0  0  0  0  0  0  0
   35.0540   18.6320   32.3160 C   0  0  0  0  0  0  0  0  0  0  0  0
   34.7500   19.8770   31.8730 N   0  0  0  0  0  0  0  0  0  0  0  0
   35.3820   21.6460   31.1160 H   0  0  0  0  0  0  0  0  0  0  0  0
   38.3720   18.6820   31.9060 H   0  0  0  0  0  0  0  0  0  0  0  0
   34.3770   17.8640   32.6920 H   0  0  0  0  0  0  0  0  0  0  0  0
  1 27  1  0  0  0  0
  1 10  1  0  0  0  0
  2  1  2  0  0  0  0
  3  2  1  0  0  0  0
  3  4  2  0  0  0  0
  4  5  1  0  0  0  0
  5 10  2  0  0  0  0
  5  6  1  0  0  0  0
  6  7  2  0  0  0  0
  7  8  1  0  0  0  0
  7 13  1  0  0  0  0
  8 14  1  0  0  0  0
  9 16  1  0  0  0  0
  9  8  2  0  0  0  0
 10  9  1  0  0  0  0
 11  3  1  0  0  0  0
 12  6  1  0  0  0  0
 15 16  2  0  0  0  0
 15 26  1  0  0  0  0
 16 17  1  0  0  0  0
 17 18  1  0  0  0  0
 17 19  2  0  0  0  0
 19 20  1  0  0  0  0
 20 22  1  0  0  0  0
 20 21  1  0  0  0  0
 22 23  1  0  0  0  0
 24 22  2  0  0  0  0
 25 19  1  0  0  0  0
 25 24  1  0  0  0  0
 26 25  2  0  0  0  0
 29 28  1  0  0  0  0
 30 39  1  0  0  0  0
 30 29  2  0  0  0  0
 31 30  1  0  0  0  0
 32 31  2  0  0  0  0
 32 33  1  0  0  0  0
 33 34  2  0  0  0  0
 34 29  1  0  0  0  0
 34 27  1  0  0  0  0
 35 31  1  0  0  0  0
 36 32  1  0  0  0  0
 37 33  1  0  0  0  0
 38 39  2  0  0  0  0
 38 43  1  0  0  0  0
 39 40  1  0  0  0  0
 40 41  2  0  0  0  0
 42 41  1  0  0  0  0
 42 46  1  0  0  0  0
 43 42  2  0  0  0  0
 44 38  1  0  0  0  0
 45 40  1  0  0  0  0
M  END
>  <minimizedAffinity>
-6.66960573

$$$$
