
     RDKit          3D

 26 28  0  0  0  0  0  0  0  0999 V2000
   36.6398   29.7661   51.2676 C   0  0  0  0  0  0  0  0  0  0  0  0
   37.3728   30.1123   50.1195 C   0  0  0  0  0  0  0  0  0  0  0  0
   36.8007   29.7925   48.8798 C   0  0  0  0  0  0  0  0  0  0  0  0
   35.5978   29.1797   48.8485 N   0  0  0  0  0  0  0  0  0  0  0  0
   34.9207   28.8613   49.9732 C   0  0  0  0  0  0  0  0  0  0  0  0
   35.4288   29.1481   51.1919 N   0  0  0  0  0  0  0  0  0  0  0  0
   38.6274   30.7541   50.2645 N   0  0  0  0  0  0  0  0  0  0  0  0
   37.0949   30.0198   52.2220 H   0  0  0  0  0  0  0  0  0  0  0  0
   37.3489   30.0507   47.9884 H   0  0  0  0  0  0  0  0  0  0  0  0
   38.7203   31.4332   51.0731 H   0  0  0  0  0  0  0  0  0  0  0  0
   39.4445   30.5968   49.6324 H   0  0  0  0  0  0  0  0  0  0  0  0
   32.6974   28.4466   50.9343 C   0  0  0  0  0  0  0  0  0  0  0  0
   33.6074   28.1915   49.9062 C   0  0  0  0  0  0  0  0  0  0  0  0
   33.2992   27.3434   48.8582 C   0  0  0  0  0  0  0  0  0  0  0  0
   34.0248   27.1623   48.0715 H   0  0  0  0  0  0  0  0  0  0  0  0
   32.0698   26.7189   48.7993 C   0  0  0  0  0  0  0  0  0  0  0  0
   31.5392   25.8619   47.8960 N   0  0  0  0  0  0  0  0  0  0  0  0
   32.0189   25.5111   47.0310 H   0  0  0  0  0  0  0  0  0  0  0  0
   30.2934   25.5369   48.2962 C   0  0  0  0  0  0  0  0  0  0  0  0
   29.6164   24.8595   47.7653 H   0  0  0  0  0  0  0  0  0  0  0  0
   30.0200   26.2071   49.4916 C   0  0  0  0  0  0  0  0  0  0  0  0
   31.1434   26.9375   49.7843 C   0  0  0  0  0  0  0  0  0  0  0  0
   31.4793   27.7872   50.8150 C   0  0  0  0  0  0  0  0  0  0  0  0
   32.8905   29.1009   51.7743 H   0  0  0  0  0  0  0  0  0  0  0  0
   29.1033   26.1569   50.0684 H   0  0  0  0  0  0  0  0  0  0  0  0
   30.7025   27.9256   51.5739 H   0  0  0  0  0  0  0  0  0  0  0  0
  2  7  1  0
  2  1  2  0
  3  2  1  0
  4  3  2  0
  4  5  1  0
  5  6  2  0
  6  1  1  0
  1  8  1  0
  3  9  1  0
  7 10  1  0
  7 11  1  0
 12 13  2  0
 13 14  1  0
 14 15  1  0
 14 16  2  0
 16 17  1  0
 17 18  1  0
 17 19  1  0
 19 20  1  0
 19 21  2  0
 21 22  1  0
 22 23  2  0
 23 12  1  0
 22 16  1  0
 12 24  1  0
 21 25  1  0
 23 26  1  0
  5 13  1  0
M  ISO  5   8  14   9  14  15  15  18   5  20  14
M  END
>  <DihAtoms>  (1) 
3,4,12,11

>  <DihDeg>  (1) 
-0.00176301618458192

$$$$
