
 OpenBabel03262520103D

 37 40  0  0  0  0  0  0  0  0999 V2000
   38.3560   27.1930   35.5520 Br  0  0  0  0  0  0  0  0  0  0  0  0
   37.8010   26.0520   34.1290 C   0  0  0  0  0  0  0  0  0  0  0  0
   37.9620   24.6920   34.2240 C   0  0  0  0  0  0  0  0  0  0  0  0
   37.5510   23.9200   33.1560 C   0  0  0  0  0  0  0  0  0  0  0  0
   36.9870   24.4420   31.9990 C   0  0  0  0  0  0  0  0  0  0  0  0
   36.8460   25.8200   31.9510 C   0  0  0  0  0  0  0  0  0  0  0  0
   37.2600   26.6150   33.0320 C   0  0  0  0  0  0  0  0  0  0  0  0
   37.6860   22.8490   33.2510 H   0  0  0  0  0  0  0  0  0  0  0  0
   36.7100   23.7440   31.2430 H   0  0  0  0  0  0  0  0  0  0  0  0
   36.4040   26.1500   31.0230 H   0  0  0  0  0  0  0  0  0  0  0  0
   40.4370   23.1370   36.4100 C   0  0  0  0  0  0  0  0  0  0  0  0
   39.7550   22.9200   37.6110 C   0  0  0  0  0  0  0  0  0  0  0  0
   38.4330   23.3170   37.6510 C   0  0  0  0  0  0  0  0  0  0  0  0
   37.8520   23.8940   36.5470 N   0  0  0  0  0  0  0  0  0  0  0  0
   38.5560   24.0820   35.4110 C   0  0  0  0  0  0  0  0  0  0  0  0
   39.8630   23.7000   35.3410 N   0  0  0  0  0  0  0  0  0  0  0  0
   41.4800   22.8670   36.2580 H   0  0  0  0  0  0  0  0  0  0  0  0
   40.3020   22.4640   38.4060 H   0  0  0  0  0  0  0  0  0  0  0  0
   37.8870   23.1570   38.5700 H   0  0  0  0  0  0  0  0  0  0  0  0
   37.0310   28.0640   32.8240 C   0  0  0  0  0  0  0  0  0  0  0  0
   37.7050   28.5190   32.1060 H   0  0  0  0  0  0  0  0  0  0  0  0
   37.2290   28.5490   33.8140 H   0  0  0  0  0  0  0  0  0  0  0  0
   35.6080   28.4230   32.4750 C   0  0  0  0  0  0  0  0  0  0  0  0
   35.7100   28.9990   31.5050 H   0  0  0  0  0  0  0  0  0  0  0  0
   34.9800   27.5570   32.1850 H   0  0  0  0  0  0  0  0  0  0  0  0
   33.5610   29.4600   33.6800 C   0  0  0  0  0  3  0  0  0  0  0  0
   34.8950   29.2510   33.4330 C   0  0  0  0  0  0  0  0  0  0  0  0
   35.7150   29.9810   34.3090 C   0  0  0  0  0  0  0  0  0  0  0  0
   36.8140   29.9260   34.2460 H   0  0  0  0  0  0  0  0  0  0  0  0
   35.2730   30.8170   35.3100 C   0  0  0  0  0  0  0  0  0  0  0  0
   35.8780   31.5840   36.2310 N   0  0  0  0  0  0  0  0  0  0  0  0
   36.9180   31.6880   36.3580 H   0  0  0  0  0  0  0  0  0  0  0  0
   34.9250   32.1930   36.9590 C   0  0  0  0  0  0  0  0  0  0  0  0
   35.1270   32.8800   37.7830 H   0  0  0  0  0  0  0  0  0  0  0  0
   33.6680   31.8330   36.5250 C   0  0  0  0  0  3  0  0  0  0  0  0
   33.9130   30.9630   35.4830 C   0  0  0  0  0  0  0  0  0  0  0  0
   33.0480   30.2780   34.6590 C   0  0  0  0  0  3  0  0  0  0  0  0
  2  3  1  0  0  0  0
  2  1  1  0  0  0  0
  3 15  1  0  0  0  0
  4  8  1  0  0  0  0
  4  3  2  0  0  0  0
  5  4  1  0  0  0  0
  6  5  2  0  0  0  0
  6  7  1  0  0  0  0
  7  2  2  0  0  0  0
  9  5  1  0  0  0  0
 10  6  1  0  0  0  0
 11 12  1  0  0  0  0
 12 13  2  0  0  0  0
 12 18  1  0  0  0  0
 13 19  1  0  0  0  0
 14 13  1  0  0  0  0
 15 14  2  0  0  0  0
 16 15  1  0  0  0  0
 16 11  2  0  0  0  0
 17 11  1  0  0  0  0
 20  7  1  0  0  0  0
 20 22  1  0  0  0  0
 21 20  1  0  0  0  0
 23 20  1  0  0  0  0
 23 27  1  0  0  0  0
 24 23  1  0  0  0  0
 25 23  1  0  0  0  0
 26 37  1  0  0  0  0
 27 26  2  0  0  0  0
 27 28  1  0  0  0  0
 28 30  2  0  0  0  0
 29 28  1  0  0  0  0
 30 36  1  0  0  0  0
 30 31  1  0  0  0  0
 31 32  1  0  0  0  0
 31 33  1  0  0  0  0
 33 34  1  0  0  0  0
 35 33  2  0  0  0  0
 36 35  1  0  0  0  0
 37 36  2  0  0  0  0
M  END
>  <minimizedAffinity>
-6.17291117

$$$$

 OpenBabel03262520103D

 37 40  0  0  0  0  0  0  0  0999 V2000
   38.9180   27.0710   35.4460 Br  0  0  0  0  0  0  0  0  0  0  0  0
   38.3250   25.7750   34.1790 C   0  0  0  0  0  0  0  0  0  0  0  0
   38.1930   24.4570   34.5400 C   0  0  0  0  0  0  0  0  0  0  0  0
   37.7710   23.5660   33.5760 C   0  0  0  0  0  0  0  0  0  0  0  0
   37.4720   23.9270   32.2680 C   0  0  0  0  0  0  0  0  0  0  0  0
   37.6200   25.2690   31.9520 C   0  0  0  0  0  0  0  0  0  0  0  0
   38.0490   26.1850   32.9260 C   0  0  0  0  0  0  0  0  0  0  0  0
   37.6730   22.5300   33.8810 H   0  0  0  0  0  0  0  0  0  0  0  0
   37.1550   23.1470   31.6140 H   0  0  0  0  0  0  0  0  0  0  0  0
   37.3730   25.4720   30.9220 H   0  0  0  0  0  0  0  0  0  0  0  0
   37.8240   23.8630   38.1230 C   0  0  0  0  0  0  0  0  0  0  0  0
   39.0010   23.2040   38.4910 C   0  0  0  0  0  0  0  0  0  0  0  0
   39.9170   22.9700   37.4850 C   0  0  0  0  0  0  0  0  0  0  0  0
   39.6520   23.3780   36.2000 N   0  0  0  0  0  0  0  0  0  0  0  0
   38.5000   24.0110   35.8980 C   0  0  0  0  0  0  0  0  0  0  0  0
   37.5750   24.2570   36.8690 N   0  0  0  0  0  0  0  0  0  0  0  0
   37.0290   24.1030   38.8250 H   0  0  0  0  0  0  0  0  0  0  0  0
   39.1050   22.9310   39.5170 H   0  0  0  0  0  0  0  0  0  0  0  0
   40.8340   22.4610   37.7490 H   0  0  0  0  0  0  0  0  0  0  0  0
   38.1450   27.5770   32.4280 C   0  0  0  0  0  0  0  0  0  0  0  0
   38.9710   27.7450   31.7430 H   0  0  0  0  0  0  0  0  0  0  0  0
   38.3350   28.2110   33.3320 H   0  0  0  0  0  0  0  0  0  0  0  0
   36.8720   28.1080   31.8200 C   0  0  0  0  0  0  0  0  0  0  0  0
   37.2310   28.9290   31.1270 H   0  0  0  0  0  0  0  0  0  0  0  0
   36.3700   27.4010   31.1290 H   0  0  0  0  0  0  0  0  0  0  0  0
   35.9920   29.1480   34.0250 C   0  0  0  0  0  3  0  0  0  0  0  0
   35.9000   28.6710   32.7410 C   0  0  0  0  0  0  0  0  0  0  0  0
   34.5950   28.7780   32.2310 C   0  0  0  0  0  0  0  0  0  0  0  0
   34.3490   28.4390   31.2110 H   0  0  0  0  0  0  0  0  0  0  0  0
   33.5110   29.2940   32.9060 C   0  0  0  0  0  0  0  0  0  0  0  0
   32.2170   29.4800   32.6030 N   0  0  0  0  0  0  0  0  0  0  0  0
   31.7570   29.2320   31.6880 H   0  0  0  0  0  0  0  0  0  0  0  0
   31.6140   30.0350   33.6690 C   0  0  0  0  0  0  0  0  0  0  0  0
   30.5560   30.2980   33.7090 H   0  0  0  0  0  0  0  0  0  0  0  0
   32.5100   30.2250   34.6980 C   0  0  0  0  0  3  0  0  0  0  0  0
   33.7020   29.7500   34.1920 C   0  0  0  0  0  0  0  0  0  0  0  0
   34.9560   29.6750   34.7580 C   0  0  0  0  0  3  0  0  0  0  0  0
  2  3  1  0  0  0  0
  2  1  1  0  0  0  0
  3 15  1  0  0  0  0
  4  8  1  0  0  0  0
  4  3  2  0  0  0  0
  5  4  1  0  0  0  0
  6  5  2  0  0  0  0
  6  7  1  0  0  0  0
  7  2  2  0  0  0  0
  9  5  1  0  0  0  0
 10  6  1  0  0  0  0
 11 12  1  0  0  0  0
 11 17  1  0  0  0  0
 12 18  1  0  0  0  0
 13 19  1  0  0  0  0
 13 12  2  0  0  0  0
 14 13  1  0  0  0  0
 15 14  2  0  0  0  0
 15 16  1  0  0  0  0
 16 11  2  0  0  0  0
 20  7  1  0  0  0  0
 20 22  1  0  0  0  0
 21 20  1  0  0  0  0
 23 20  1  0  0  0  0
 23 27  1  0  0  0  0
 24 23  1  0  0  0  0
 25 23  1  0  0  0  0
 26 37  1  0  0  0  0
 27 26  2  0  0  0  0
 28 27  1  0  0  0  0
 28 30  2  0  0  0  0
 29 28  1  0  0  0  0
 30 36  1  0  0  0  0
 31 30  1  0  0  0  0
 31 33  1  0  0  0  0
 32 31  1  0  0  0  0
 33 34  1  0  0  0  0
 33 35  2  0  0  0  0
 36 35  1  0  0  0  0
 36 37  2  0  0  0  0
M  END
>  <minimizedAffinity>
-5.81793642

$$$$

 OpenBabel03262520103D

 37 40  0  0  0  0  0  0  0  0999 V2000
   39.0180   22.3680   32.3510 Br  0  0  0  0  0  0  0  0  0  0  0  0
   37.5580   23.5000   31.8830 C   0  0  0  0  0  0  0  0  0  0  0  0
   36.3010   22.9780   31.6990 C   0  0  0  0  0  0  0  0  0  0  0  0
   35.2880   23.8470   31.3500 C   0  0  0  0  0  0  0  0  0  0  0  0
   35.4690   25.2130   31.1760 C   0  0  0  0  0  0  0  0  0  0  0  0
   36.7540   25.6930   31.3720 C   0  0  0  0  0  0  0  0  0  0  0  0
   37.7930   24.8170   31.7280 C   0  0  0  0  0  0  0  0  0  0  0  0
   34.3040   23.4140   31.2110 H   0  0  0  0  0  0  0  0  0  0  0  0
   34.6080   25.7810   30.9060 H   0  0  0  0  0  0  0  0  0  0  0  0
   36.8170   26.7590   31.2180 H   0  0  0  0  0  0  0  0  0  0  0  0
   35.4270   19.8020   33.2730 C   0  0  0  0  0  0  0  0  0  0  0  0
   35.5490   18.8590   32.2490 C   0  0  0  0  0  0  0  0  0  0  0  0
   35.9370   19.3370   31.0130 C   0  0  0  0  0  0  0  0  0  0  0  0
   36.1800   20.6780   30.8360 N   0  0  0  0  0  0  0  0  0  0  0  0
   36.0470   21.5480   31.8590 C   0  0  0  0  0  0  0  0  0  0  0  0
   35.6660   21.1060   33.0920 N   0  0  0  0  0  0  0  0  0  0  0  0
   35.1300   19.5470   34.2880 H   0  0  0  0  0  0  0  0  0  0  0  0
   35.3360   17.8430   32.4950 H   0  0  0  0  0  0  0  0  0  0  0  0
   36.0370   18.6240   30.2070 H   0  0  0  0  0  0  0  0  0  0  0  0
   39.1000   25.4910   31.9090 C   0  0  0  0  0  0  0  0  0  0  0  0
   39.4030   26.1000   31.0630 H   0  0  0  0  0  0  0  0  0  0  0  0
   39.8550   24.6700   32.0100 H   0  0  0  0  0  0  0  0  0  0  0  0
   39.2110   26.3010   33.1760 C   0  0  0  0  0  0  0  0  0  0  0  0
   40.2830   26.6650   33.1660 H   0  0  0  0  0  0  0  0  0  0  0  0
   38.6280   27.2450   33.1640 H   0  0  0  0  0  0  0  0  0  0  0  0
   37.9250   25.5800   35.3070 C   0  0  0  0  0  3  0  0  0  0  0  0
   38.9740   25.5920   34.4210 C   0  0  0  0  0  0  0  0  0  0  0  0
   40.0040   24.7200   34.8100 C   0  0  0  0  0  0  0  0  0  0  0  0
   40.9200   24.6100   34.2070 H   0  0  0  0  0  0  0  0  0  0  0  0
   40.0000   23.9290   35.9370 C   0  0  0  0  0  0  0  0  0  0  0  0
   40.8630   23.0500   36.4720 N   0  0  0  0  0  0  0  0  0  0  0  0
   41.8010   22.7870   36.0710 H   0  0  0  0  0  0  0  0  0  0  0  0
   40.3210   22.5690   37.6050 C   0  0  0  0  0  0  0  0  0  0  0  0
   40.8020   21.8350   38.2530 H   0  0  0  0  0  0  0  0  0  0  0  0
   39.0830   23.1290   37.8350 C   0  0  0  0  0  3  0  0  0  0  0  0
   38.9020   23.9840   36.7680 C   0  0  0  0  0  0  0  0  0  0  0  0
   37.8530   24.8190   36.4500 C   0  0  0  0  0  3  0  0  0  0  0  0
  2  1  1  0  0  0  0
  3 15  1  0  0  0  0
  3  2  2  0  0  0  0
  4  3  1  0  0  0  0
  5  4  2  0  0  0  0
  5  6  1  0  0  0  0
  6  7  2  0  0  0  0
  7  2  1  0  0  0  0
  7 20  1  0  0  0  0
  8  4  1  0  0  0  0
  9  5  1  0  0  0  0
 10  6  1  0  0  0  0
 11 17  1  0  0  0  0
 12 18  1  0  0  0  0
 12 11  2  0  0  0  0
 13 12  1  0  0  0  0
 14 13  2  0  0  0  0
 14 15  1  0  0  0  0
 15 16  2  0  0  0  0
 16 11  1  0  0  0  0
 19 13  1  0  0  0  0
 20 22  1  0  0  0  0
 20 23  1  0  0  0  0
 21 20  1  0  0  0  0
 23 27  1  0  0  0  0
 24 23  1  0  0  0  0
 25 23  1  0  0  0  0
 26 37  1  0  0  0  0
 27 28  1  0  0  0  0
 27 26  2  0  0  0  0
 28 30  2  0  0  0  0
 29 28  1  0  0  0  0
 30 31  1  0  0  0  0
 30 36  1  0  0  0  0
 31 33  1  0  0  0  0
 32 31  1  0  0  0  0
 33 35  2  0  0  0  0
 33 34  1  0  0  0  0
 36 35  1  0  0  0  0
 37 36  2  0  0  0  0
M  END
>  <minimizedAffinity>
-5.78512669

$$$$

 OpenBabel03262520103D

 37 40  0  0  0  0  0  0  0  0999 V2000
   35.9020   29.8110   34.9110 Br  0  0  0  0  0  0  0  0  0  0  0  0
   36.1420   28.4590   33.5890 C   0  0  0  0  0  0  0  0  0  0  0  0
   35.4690   28.5250   32.3940 C   0  0  0  0  0  0  0  0  0  0  0  0
   35.6760   27.5100   31.4820 C   0  0  0  0  0  0  0  0  0  0  0  0
   36.5230   26.4320   31.7060 C   0  0  0  0  0  0  0  0  0  0  0  0
   37.1800   26.4090   32.9270 C   0  0  0  0  0  0  0  0  0  0  0  0
   36.9770   27.4370   33.8620 C   0  0  0  0  0  0  0  0  0  0  0  0
   35.1360   27.5820   30.5450 H   0  0  0  0  0  0  0  0  0  0  0  0
   36.6000   25.7110   30.9250 H   0  0  0  0  0  0  0  0  0  0  0  0
   37.8160   25.5440   33.0290 H   0  0  0  0  0  0  0  0  0  0  0  0
   32.4100   30.5140   32.2870 C   0  0  0  0  0  0  0  0  0  0  0  0
   32.7690   31.6700   31.5870 C   0  0  0  0  0  0  0  0  0  0  0  0
   34.0780   31.7480   31.1560 C   0  0  0  0  0  0  0  0  0  0  0  0
   34.9560   30.7240   31.4200 N   0  0  0  0  0  0  0  0  0  0  0  0
   34.5570   29.6290   32.1010 C   0  0  0  0  0  0  0  0  0  0  0  0
   33.2710   29.5220   32.5400 N   0  0  0  0  0  0  0  0  0  0  0  0
   31.4100   30.3380   32.6760 H   0  0  0  0  0  0  0  0  0  0  0  0
   32.0090   32.4040   31.4370 H   0  0  0  0  0  0  0  0  0  0  0  0
   34.3770   32.6330   30.6120 H   0  0  0  0  0  0  0  0  0  0  0  0
   37.7590   27.2670   35.1090 C   0  0  0  0  0  0  0  0  0  0  0  0
   37.5740   28.0350   35.8540 H   0  0  0  0  0  0  0  0  0  0  0  0
   38.8350   27.3550   34.8070 H   0  0  0  0  0  0  0  0  0  0  0  0
   37.6260   25.9070   35.7450 C   0  0  0  0  0  0  0  0  0  0  0  0
   37.3390   26.1410   36.8150 H   0  0  0  0  0  0  0  0  0  0  0  0
   36.7610   25.3180   35.3780 H   0  0  0  0  0  0  0  0  0  0  0  0
   39.9810   25.0990   35.0270 C   0  0  0  0  0  3  0  0  0  0  0  0
   38.8180   25.0770   35.7550 C   0  0  0  0  0  0  0  0  0  0  0  0
   38.8130   24.0470   36.7110 C   0  0  0  0  0  0  0  0  0  0  0  0
   37.9510   23.8910   37.3800 H   0  0  0  0  0  0  0  0  0  0  0  0
   39.8330   23.1460   36.9230 C   0  0  0  0  0  0  0  0  0  0  0  0
   40.0180   22.1160   37.7630 N   0  0  0  0  0  0  0  0  0  0  0  0
   39.3310   21.7830   38.4890 H   0  0  0  0  0  0  0  0  0  0  0  0
   41.2290   21.5870   37.5160 C   0  0  0  0  0  0  0  0  0  0  0  0
   41.6480   20.7330   38.0510 H   0  0  0  0  0  0  0  0  0  0  0  0
   41.8650   22.2670   36.5000 C   0  0  0  0  0  3  0  0  0  0  0  0
   40.9640   23.2470   36.1410 C   0  0  0  0  0  0  0  0  0  0  0  0
   41.0390   24.2340   35.1820 C   0  0  0  0  0  3  0  0  0  0  0  0
  2  7  1  0  0  0  0
  2  1  1  0  0  0  0
  3  2  2  0  0  0  0
  4  5  2  0  0  0  0
  4  3  1  0  0  0  0
  5  6  1  0  0  0  0
  6 10  1  0  0  0  0
  6  7  2  0  0  0  0
  7 20  1  0  0  0  0
  8  4  1  0  0  0  0
  9  5  1  0  0  0  0
 11 16  1  0  0  0  0
 11 17  1  0  0  0  0
 12 11  2  0  0  0  0
 13 14  2  0  0  0  0
 13 12  1  0  0  0  0
 14 15  1  0  0  0  0
 15  3  1  0  0  0  0
 15 16  2  0  0  0  0
 18 12  1  0  0  0  0
 19 13  1  0  0  0  0
 20 23  1  0  0  0  0
 20 21  1  0  0  0  0
 22 20  1  0  0  0  0
 23 27  1  0  0  0  0
 23 24  1  0  0  0  0
 25 23  1  0  0  0  0
 26 37  2  0  0  0  0
 26 27  1  0  0  0  0
 27 28  2  0  0  0  0
 28 30  1  0  0  0  0
 28 29  1  0  0  0  0
 30 31  1  0  0  0  0
 31 32  1  0  0  0  0
 33 31  1  0  0  0  0
 33 34  1  0  0  0  0
 35 33  2  0  0  0  0
 36 35  1  0  0  0  0
 36 30  2  0  0  0  0
 37 36  1  0  0  0  0
M  END
>  <minimizedAffinity>
-5.7751646

$$$$

 OpenBabel03262520103D

 37 40  0  0  0  0  0  0  0  0999 V2000
   36.9030   27.5740   34.4420 Br  0  0  0  0  0  0  0  0  0  0  0  0
   36.7650   28.4840   32.7730 C   0  0  0  0  0  0  0  0  0  0  0  0
   35.8700   29.5140   32.6130 C   0  0  0  0  0  0  0  0  0  0  0  0
   35.8090   30.1260   31.3780 C   0  0  0  0  0  0  0  0  0  0  0  0
   36.5990   29.7600   30.2960 C   0  0  0  0  0  0  0  0  0  0  0  0
   37.4860   28.7160   30.5060 C   0  0  0  0  0  0  0  0  0  0  0  0
   37.5570   28.0860   31.7600 C   0  0  0  0  0  0  0  0  0  0  0  0
   35.0970   30.9360   31.2720 H   0  0  0  0  0  0  0  0  0  0  0  0
   36.4600   30.3080   29.3920 H   0  0  0  0  0  0  0  0  0  0  0  0
   38.0620   28.4880   29.6230 H   0  0  0  0  0  0  0  0  0  0  0  0
   34.7180   31.3060   35.5770 C   0  0  0  0  0  0  0  0  0  0  0  0
   33.4350   30.8020   35.8130 C   0  0  0  0  0  0  0  0  0  0  0  0
   32.9800   29.8390   34.9360 C   0  0  0  0  0  0  0  0  0  0  0  0
   33.7740   29.4210   33.8940 N   0  0  0  0  0  0  0  0  0  0  0  0
   35.0060   29.9400   33.7110 C   0  0  0  0  0  0  0  0  0  0  0  0
   35.4840   30.8930   34.5610 N   0  0  0  0  0  0  0  0  0  0  0  0
   35.1860   32.0660   36.1990 H   0  0  0  0  0  0  0  0  0  0  0  0
   32.9050   31.1960   36.6510 H   0  0  0  0  0  0  0  0  0  0  0  0
   31.9900   29.4360   35.1010 H   0  0  0  0  0  0  0  0  0  0  0  0
   38.5620   26.9980   31.8200 C   0  0  0  0  0  0  0  0  0  0  0  0
   38.6140   26.4990   32.7830 H   0  0  0  0  0  0  0  0  0  0  0  0
   39.5540   27.4910   31.6510 H   0  0  0  0  0  0  0  0  0  0  0  0
   38.4280   25.9690   30.7270 C   0  0  0  0  0  0  0  0  0  0  0  0
   38.0870   26.5740   29.8320 H   0  0  0  0  0  0  0  0  0  0  0  0
   39.3930   25.5420   30.3850 H   0  0  0  0  0  0  0  0  0  0  0  0
   36.1370   24.8920   31.2850 C   0  0  0  0  0  3  0  0  0  0  0  0
   37.4710   24.9010   30.9560 C   0  0  0  0  0  0  0  0  0  0  0  0
   37.9830   23.6020   30.7960 C   0  0  0  0  0  0  0  0  0  0  0  0
   39.0390   23.4320   30.5310 H   0  0  0  0  0  0  0  0  0  0  0  0
   37.2660   22.4350   30.9420 C   0  0  0  0  0  0  0  0  0  0  0  0
   37.5630   21.1310   30.8350 N   0  0  0  0  0  0  0  0  0  0  0  0
   38.5070   20.7320   30.5920 H   0  0  0  0  0  0  0  0  0  0  0  0
   36.4460   20.4260   31.0910 C   0  0  0  0  0  0  0  0  0  0  0  0
   36.3910   19.3360   31.0770 H   0  0  0  0  0  0  0  0  0  0  0  0
   35.3900   21.2640   31.3740 C   0  0  0  0  0  3  0  0  0  0  0  0
   35.9310   22.5270   31.2730 C   0  0  0  0  0  0  0  0  0  0  0  0
   35.3610   23.7690   31.4470 C   0  0  0  0  0  3  0  0  0  0  0  0
  2  1  1  0  0  0  0
  3  2  1  0  0  0  0
  3 15  1  0  0  0  0
  4  3  2  0  0  0  0
  5  6  2  0  0  0  0
  5  4  1  0  0  0  0
  6  7  1  0  0  0  0
  7 20  1  0  0  0  0
  7  2  2  0  0  0  0
  8  4  1  0  0  0  0
  9  5  1  0  0  0  0
 10  6  1  0  0  0  0
 11 12  1  0  0  0  0
 11 17  1  0  0  0  0
 12 18  1  0  0  0  0
 13 19  1  0  0  0  0
 13 12  2  0  0  0  0
 14 13  1  0  0  0  0
 15 14  2  0  0  0  0
 15 16  1  0  0  0  0
 16 11  2  0  0  0  0
 20 21  1  0  0  0  0
 22 20  1  0  0  0  0
 23 27  1  0  0  0  0
 23 20  1  0  0  0  0
 24 23  1  0  0  0  0
 25 23  1  0  0  0  0
 26 37  1  0  0  0  0
 27 26  2  0  0  0  0
 28 30  2  0  0  0  0
 28 27  1  0  0  0  0
 29 28  1  0  0  0  0
 30 36  1  0  0  0  0
 31 30  1  0  0  0  0
 31 33  1  0  0  0  0
 32 31  1  0  0  0  0
 33 35  2  0  0  0  0
 34 33  1  0  0  0  0
 36 35  1  0  0  0  0
 36 37  2  0  0  0  0
M  END
>  <minimizedAffinity>
-5.66491699

$$$$

 OpenBabel03262520103D

 37 40  0  0  0  0  0  0  0  0999 V2000
   40.0090   23.5040   33.6610 Br  0  0  0  0  0  0  0  0  0  0  0  0
   39.0150   25.1180   33.8630 C   0  0  0  0  0  0  0  0  0  0  0  0
   38.4660   25.4520   35.0760 C   0  0  0  0  0  0  0  0  0  0  0  0
   37.7490   26.6270   35.1560 C   0  0  0  0  0  0  0  0  0  0  0  0
   37.5520   27.4860   34.0820 C   0  0  0  0  0  0  0  0  0  0  0  0
   38.1250   27.1060   32.8780 C   0  0  0  0  0  0  0  0  0  0  0  0
   38.8580   25.9120   32.7860 C   0  0  0  0  0  0  0  0  0  0  0  0
   37.3240   26.8720   36.1230 H   0  0  0  0  0  0  0  0  0  0  0  0
   36.9780   28.3640   34.2680 H   0  0  0  0  0  0  0  0  0  0  0  0
   37.9280   27.8190   32.0930 H   0  0  0  0  0  0  0  0  0  0  0  0
   37.7740   23.8360   38.2750 C   0  0  0  0  0  0  0  0  0  0  0  0
   38.8630   22.9830   38.4790 C   0  0  0  0  0  0  0  0  0  0  0  0
   39.8340   22.9770   37.4980 C   0  0  0  0  0  0  0  0  0  0  0  0
   39.7030   23.7810   36.3910 N   0  0  0  0  0  0  0  0  0  0  0  0
   38.6300   24.5860   36.2420 C   0  0  0  0  0  0  0  0  0  0  0  0
   37.6540   24.6150   37.1950 N   0  0  0  0  0  0  0  0  0  0  0  0
   36.9480   23.9280   38.9770 H   0  0  0  0  0  0  0  0  0  0  0  0
   38.8650   22.4020   39.3740 H   0  0  0  0  0  0  0  0  0  0  0  0
   40.6850   22.3250   37.6360 H   0  0  0  0  0  0  0  0  0  0  0  0
   39.4110   25.6590   31.4340 C   0  0  0  0  0  0  0  0  0  0  0  0
   40.2110   24.9260   31.4150 H   0  0  0  0  0  0  0  0  0  0  0  0
   39.8490   26.6330   31.0970 H   0  0  0  0  0  0  0  0  0  0  0  0
   38.3760   25.2990   30.3980 C   0  0  0  0  0  0  0  0  0  0  0  0
   37.8380   26.2780   30.2100 H   0  0  0  0  0  0  0  0  0  0  0  0
   38.7970   25.0510   29.4030 H   0  0  0  0  0  0  0  0  0  0  0  0
   36.0860   24.3760   31.1860 C   0  0  0  0  0  3  0  0  0  0  0  0
   37.3960   24.2990   30.7820 C   0  0  0  0  0  0  0  0  0  0  0  0
   37.8490   22.9700   30.7140 C   0  0  0  0  0  0  0  0  0  0  0  0
   38.8800   22.7320   30.4060 H   0  0  0  0  0  0  0  0  0  0  0  0
   37.1010   21.8530   31.0100 C   0  0  0  0  0  0  0  0  0  0  0  0
   37.3420   20.5320   31.0080 N   0  0  0  0  0  0  0  0  0  0  0  0
   38.2540   20.0740   30.7490 H   0  0  0  0  0  0  0  0  0  0  0  0
   36.2180   19.9010   31.3940 C   0  0  0  0  0  0  0  0  0  0  0  0
   36.1220   18.8190   31.4840 H   0  0  0  0  0  0  0  0  0  0  0  0
   35.2120   20.8050   31.6570 C   0  0  0  0  0  3  0  0  0  0  0  0
   35.7930   22.0310   31.4080 C   0  0  0  0  0  0  0  0  0  0  0  0
   35.2800   23.3070   31.4970 C   0  0  0  0  0  3  0  0  0  0  0  0
  1  2  1  0  0  0  0
  2  3  1  0  0  0  0
  3  4  2  0  0  0  0
  3 15  1  0  0  0  0
  4  8  1  0  0  0  0
  5  9  1  0  0  0  0
  5  4  1  0  0  0  0
  6  5  2  0  0  0  0
  7  6  1  0  0  0  0
  7  2  2  0  0  0  0
 10  6  1  0  0  0  0
 11 12  1  0  0  0  0
 11 17  1  0  0  0  0
 12 18  1  0  0  0  0
 13 19  1  0  0  0  0
 13 12  2  0  0  0  0
 14 13  1  0  0  0  0
 15 14  2  0  0  0  0
 15 16  1  0  0  0  0
 16 11  2  0  0  0  0
 20  7  1  0  0  0  0
 21 20  1  0  0  0  0
 22 20  1  0  0  0  0
 23 27  1  0  0  0  0
 23 20  1  0  0  0  0
 24 23  1  0  0  0  0
 25 23  1  0  0  0  0
 26 37  1  0  0  0  0
 27 26  2  0  0  0  0
 28 27  1  0  0  0  0
 28 30  2  0  0  0  0
 29 28  1  0  0  0  0
 30 36  1  0  0  0  0
 31 30  1  0  0  0  0
 31 33  1  0  0  0  0
 32 31  1  0  0  0  0
 33 34  1  0  0  0  0
 33 35  2  0  0  0  0
 36 37  2  0  0  0  0
 36 35  1  0  0  0  0
M  END
>  <minimizedAffinity>
-5.64319515

$$$$

 OpenBabel03262520103D

 37 40  0  0  0  0  0  0  0  0999 V2000
   41.0540   23.9500   33.6180 Br  0  0  0  0  0  0  0  0  0  0  0  0
   39.9320   25.1080   34.6340 C   0  0  0  0  0  0  0  0  0  0  0  0
   39.8320   26.4400   34.3140 C   0  0  0  0  0  0  0  0  0  0  0  0
   39.0120   27.2290   35.0940 C   0  0  0  0  0  0  0  0  0  0  0  0
   38.2870   26.7530   36.1790 C   0  0  0  0  0  0  0  0  0  0  0  0
   38.4220   25.4030   36.4640 C   0  0  0  0  0  0  0  0  0  0  0  0
   39.2530   24.5900   35.6760 C   0  0  0  0  0  0  0  0  0  0  0  0
   38.9460   28.2770   34.8230 H   0  0  0  0  0  0  0  0  0  0  0  0
   37.6890   27.4610   36.7050 H   0  0  0  0  0  0  0  0  0  0  0  0
   37.8330   25.1080   37.3180 H   0  0  0  0  0  0  0  0  0  0  0  0
   40.5980   27.5720   30.9290 C   0  0  0  0  0  0  0  0  0  0  0  0
   41.9080   28.0530   31.0100 C   0  0  0  0  0  0  0  0  0  0  0  0
   42.5180   27.9790   32.2470 C   0  0  0  0  0  0  0  0  0  0  0  0
   41.8390   27.4540   33.3210 N   0  0  0  0  0  0  0  0  0  0  0  0
   40.5740   27.0030   33.1890 C   0  0  0  0  0  0  0  0  0  0  0  0
   39.9460   27.0630   31.9800 N   0  0  0  0  0  0  0  0  0  0  0  0
   40.0150   27.5760   30.0100 H   0  0  0  0  0  0  0  0  0  0  0  0
   42.3410   28.4400   30.1140 H   0  0  0  0  0  0  0  0  0  0  0  0
   43.5310   28.3450   32.3310 H   0  0  0  0  0  0  0  0  0  0  0  0
   39.2770   23.1720   36.1070 C   0  0  0  0  0  0  0  0  0  0  0  0
   40.0060   22.9600   36.8830 H   0  0  0  0  0  0  0  0  0  0  0  0
   39.5770   22.5840   35.2030 H   0  0  0  0  0  0  0  0  0  0  0  0
   37.9330   22.6260   36.5180 C   0  0  0  0  0  0  0  0  0  0  0  0
   38.1820   21.9170   37.3650 H   0  0  0  0  0  0  0  0  0  0  0  0
   37.2700   23.3700   37.0040 H   0  0  0  0  0  0  0  0  0  0  0  0
   36.1150   21.0470   35.5610 C   0  0  0  0  0  3  0  0  0  0  0  0
   37.1930   21.8950   35.5050 C   0  0  0  0  0  0  0  0  0  0  0  0
   37.6380   22.0960   34.1870 C   0  0  0  0  0  0  0  0  0  0  0  0
   38.4960   22.7510   33.9660 H   0  0  0  0  0  0  0  0  0  0  0  0
   37.0870   21.5280   33.0600 C   0  0  0  0  0  0  0  0  0  0  0  0
   37.3580   21.5920   31.7470 N   0  0  0  0  0  0  0  0  0  0  0  0
   38.1310   22.1540   31.3050 H   0  0  0  0  0  0  0  0  0  0  0  0
   36.4720   20.8140   31.0990 C   0  0  0  0  0  0  0  0  0  0  0  0
   36.4530   20.6740   30.0180 H   0  0  0  0  0  0  0  0  0  0  0  0
   35.5970   20.2230   31.9850 C   0  0  0  0  0  3  0  0  0  0  0  0
   36.0050   20.6890   33.2160 C   0  0  0  0  0  0  0  0  0  0  0  0
   35.5140   20.4440   34.4810 C   0  0  0  0  0  3  0  0  0  0  0  0
  1  2  1  0  0  0  0
  2  7  1  0  0  0  0
  3  2  2  0  0  0  0
  3  4  1  0  0  0  0
  4  5  2  0  0  0  0
  5  6  1  0  0  0  0
  5  9  1  0  0  0  0
  6 10  1  0  0  0  0
  7 20  1  0  0  0  0
  7  6  2  0  0  0  0
  8  4  1  0  0  0  0
 11 12  2  0  0  0  0
 11 16  1  0  0  0  0
 12 13  1  0  0  0  0
 13 19  1  0  0  0  0
 13 14  2  0  0  0  0
 15 14  1  0  0  0  0
 15  3  1  0  0  0  0
 16 15  2  0  0  0  0
 17 11  1  0  0  0  0
 18 12  1  0  0  0  0
 20 23  1  0  0  0  0
 20 21  1  0  0  0  0
 22 20  1  0  0  0  0
 23 25  1  0  0  0  0
 23 24  1  0  0  0  0
 27 26  1  0  0  0  0
 27 23  1  0  0  0  0
 28 27  2  0  0  0  0
 29 28  1  0  0  0  0
 30 36  2  0  0  0  0
 30 28  1  0  0  0  0
 31 30  1  0  0  0  0
 32 31  1  0  0  0  0
 33 31  1  0  0  0  0
 33 35  2  0  0  0  0
 34 33  1  0  0  0  0
 35 36  1  0  0  0  0
 36 37  1  0  0  0  0
 37 26  2  0  0  0  0
M  END
>  <minimizedAffinity>
-5.60674143

$$$$

 OpenBabel03262520103D

 37 40  0  0  0  0  0  0  0  0999 V2000
   39.5760   23.7350   31.8990 Br  0  0  0  0  0  0  0  0  0  0  0  0
   39.0940   23.3800   33.7080 C   0  0  0  0  0  0  0  0  0  0  0  0
   38.1430   22.4340   34.0040 C   0  0  0  0  0  0  0  0  0  0  0  0
   37.8290   22.2310   35.3310 C   0  0  0  0  0  0  0  0  0  0  0  0
   38.4200   22.9250   36.3790 C   0  0  0  0  0  0  0  0  0  0  0  0
   39.3730   23.8690   36.0310 C   0  0  0  0  0  0  0  0  0  0  0  0
   39.7010   24.0840   34.6830 C   0  0  0  0  0  0  0  0  0  0  0  0
   37.0760   21.4790   35.5430 H   0  0  0  0  0  0  0  0  0  0  0  0
   38.0930   22.6790   37.3640 H   0  0  0  0  0  0  0  0  0  0  0  0
   39.7840   24.3680   36.8950 H   0  0  0  0  0  0  0  0  0  0  0  0
   35.6760   21.5000   31.4800 C   0  0  0  0  0  0  0  0  0  0  0  0
   36.1580   20.3010   30.9470 C   0  0  0  0  0  0  0  0  0  0  0  0
   37.3440   19.8250   31.4710 C   0  0  0  0  0  0  0  0  0  0  0  0
   37.9880   20.5220   32.4660 N   0  0  0  0  0  0  0  0  0  0  0  0
   37.4790   21.6750   32.9460 C   0  0  0  0  0  0  0  0  0  0  0  0
   36.3100   22.1710   32.4480 N   0  0  0  0  0  0  0  0  0  0  0  0
   34.7540   21.9730   31.1490 H   0  0  0  0  0  0  0  0  0  0  0  0
   35.5790   19.8430   30.1770 H   0  0  0  0  0  0  0  0  0  0  0  0
   37.7340   18.8990   31.0730 H   0  0  0  0  0  0  0  0  0  0  0  0
   40.7440   25.1180   34.4840 C   0  0  0  0  0  0  0  0  0  0  0  0
   41.1260   25.1690   33.4690 H   0  0  0  0  0  0  0  0  0  0  0  0
   41.5990   24.8190   35.1430 H   0  0  0  0  0  0  0  0  0  0  0  0
   40.3440   26.4990   34.9400 C   0  0  0  0  0  0  0  0  0  0  0  0
   40.3000   26.4030   36.0670 H   0  0  0  0  0  0  0  0  0  0  0  0
   41.1240   27.2710   34.7860 H   0  0  0  0  0  0  0  0  0  0  0  0
   37.8970   27.3360   35.1060 C   0  0  0  0  0  3  0  0  0  0  0  0
   39.0630   26.9910   34.4660 C   0  0  0  0  0  0  0  0  0  0  0  0
   38.9780   27.1820   33.0770 C   0  0  0  0  0  0  0  0  0  0  0  0
   39.8290   26.9530   32.4150 H   0  0  0  0  0  0  0  0  0  0  0  0
   37.8780   27.6560   32.3990 C   0  0  0  0  0  0  0  0  0  0  0  0
   37.6030   27.9040   31.1080 N   0  0  0  0  0  0  0  0  0  0  0  0
   38.2630   27.7590   30.3000 H   0  0  0  0  0  0  0  0  0  0  0  0
   36.3430   28.3660   31.0300 C   0  0  0  0  0  0  0  0  0  0  0  0
   35.8490   28.6500   30.1000 H   0  0  0  0  0  0  0  0  0  0  0  0
   35.7640   28.4300   32.2790 C   0  0  0  0  0  3  0  0  0  0  0  0
   36.7520   27.9760   33.1270 C   0  0  0  0  0  0  0  0  0  0  0  0
   36.7620   27.8140   34.4950 C   0  0  0  0  0  3  0  0  0  0  0  0
  1  2  1  0  0  0  0
  2  3  2  0  0  0  0
  2  7  1  0  0  0  0
  3  4  1  0  0  0  0
  4  8  1  0  0  0  0
  4  5  2  0  0  0  0
  5  9  1  0  0  0  0
  6  5  1  0  0  0  0
  6 10  1  0  0  0  0
  7  6  2  0  0  0  0
 11 16  1  0  0  0  0
 12 13  1  0  0  0  0
 12 11  2  0  0  0  0
 13 14  2  0  0  0  0
 14 15  1  0  0  0  0
 15  3  1  0  0  0  0
 16 15  2  0  0  0  0
 17 11  1  0  0  0  0
 18 12  1  0  0  0  0
 19 13  1  0  0  0  0
 20  7  1  0  0  0  0
 20 23  1  0  0  0  0
 20 22  1  0  0  0  0
 21 20  1  0  0  0  0
 23 24  1  0  0  0  0
 25 23  1  0  0  0  0
 27 23  1  0  0  0  0
 27 26  2  0  0  0  0
 28 27  1  0  0  0  0
 29 28  1  0  0  0  0
 30 28  2  0  0  0  0
 30 36  1  0  0  0  0
 31 30  1  0  0  0  0
 32 31  1  0  0  0  0
 33 31  1  0  0  0  0
 33 35  2  0  0  0  0
 34 33  1  0  0  0  0
 35 36  1  0  0  0  0
 36 37  2  0  0  0  0
 37 26  1  0  0  0  0
M  END
>  <minimizedAffinity>
-5.59415436

$$$$

 OpenBabel03262520103D

 37 40  0  0  0  0  0  0  0  0999 V2000
   39.0790   26.8910   31.7340 Br  0  0  0  0  0  0  0  0  0  0  0  0
   37.4900   25.8970   31.3890 C   0  0  0  0  0  0  0  0  0  0  0  0
   36.2780   26.5340   31.2880 C   0  0  0  0  0  0  0  0  0  0  0  0
   35.1620   25.7580   31.0480 C   0  0  0  0  0  0  0  0  0  0  0  0
   35.1990   24.3770   30.9050 C   0  0  0  0  0  0  0  0  0  0  0  0
   36.4450   23.7800   31.0160 C   0  0  0  0  0  0  0  0  0  0  0  0
   37.5870   24.5600   31.2590 C   0  0  0  0  0  0  0  0  0  0  0  0
   34.2150   26.2800   30.9710 H   0  0  0  0  0  0  0  0  0  0  0  0
   34.2690   23.8880   30.7230 H   0  0  0  0  0  0  0  0  0  0  0  0
   36.3930   22.7090   30.8960 H   0  0  0  0  0  0  0  0  0  0  0  0
   36.3530   30.0850   30.4470 C   0  0  0  0  0  0  0  0  0  0  0  0
   35.9960   30.7330   31.6330 C   0  0  0  0  0  0  0  0  0  0  0  0
   35.7300   29.9260   32.7210 C   0  0  0  0  0  0  0  0  0  0  0  0
   35.8220   28.5590   32.6060 N   0  0  0  0  0  0  0  0  0  0  0  0
   36.1710   27.9840   31.4370 C   0  0  0  0  0  0  0  0  0  0  0  0
   36.4400   28.7540   30.3440 N   0  0  0  0  0  0  0  0  0  0  0  0
   36.5860   30.6130   29.5240 H   0  0  0  0  0  0  0  0  0  0  0  0
   35.9550   31.7990   31.6120 H   0  0  0  0  0  0  0  0  0  0  0  0
   35.4520   30.4060   33.6480 H   0  0  0  0  0  0  0  0  0  0  0  0
   38.8380   23.7700   31.3400 C   0  0  0  0  0  0  0  0  0  0  0  0
   39.7400   24.3730   31.3600 H   0  0  0  0  0  0  0  0  0  0  0  0
   38.8730   23.1580   30.4020 H   0  0  0  0  0  0  0  0  0  0  0  0
   38.8720   22.7770   32.4740 C   0  0  0  0  0  0  0  0  0  0  0  0
   37.9240   22.1740   32.3280 H   0  0  0  0  0  0  0  0  0  0  0  0
   39.6700   22.0110   32.3830 H   0  0  0  0  0  0  0  0  0  0  0  0
   39.4620   24.4310   34.3790 C   0  0  0  0  0  3  0  0  0  0  0  0
   38.8690   23.3270   33.8180 C   0  0  0  0  0  0  0  0  0  0  0  0
   38.0920   22.6160   34.7470 C   0  0  0  0  0  0  0  0  0  0  0  0
   37.5480   21.7020   34.4580 H   0  0  0  0  0  0  0  0  0  0  0  0
   37.9200   22.9520   36.0710 C   0  0  0  0  0  0  0  0  0  0  0  0
   37.2370   22.4180   37.0960 N   0  0  0  0  0  0  0  0  0  0  0  0
   36.6460   21.5460   37.0540 H   0  0  0  0  0  0  0  0  0  0  0  0
   37.4390   23.1880   38.1800 C   0  0  0  0  0  0  0  0  0  0  0  0
   37.0040   22.9930   39.1610 H   0  0  0  0  0  0  0  0  0  0  0  0
   38.2650   24.2490   37.8820 C   0  0  0  0  0  3  0  0  0  0  0  0
   38.5560   24.0790   36.5450 C   0  0  0  0  0  0  0  0  0  0  0  0
   39.3360   24.8270   35.6900 C   0  0  0  0  0  3  0  0  0  0  0  0
  2  1  1  0  0  0  0
  3  2  1  0  0  0  0
  3 15  1  0  0  0  0
  4  3  2  0  0  0  0
  5  6  2  0  0  0  0
  5  4  1  0  0  0  0
  6  7  1  0  0  0  0
  7 20  1  0  0  0  0
  7  2  2  0  0  0  0
  8  4  1  0  0  0  0
  9  5  1  0  0  0  0
 10  6  1  0  0  0  0
 11 12  1  0  0  0  0
 12 13  2  0  0  0  0
 13 19  1  0  0  0  0
 14 13  1  0  0  0  0
 15 14  2  0  0  0  0
 16 11  2  0  0  0  0
 16 15  1  0  0  0  0
 17 11  1  0  0  0  0
 18 12  1  0  0  0  0
 20 21  1  0  0  0  0
 20 23  1  0  0  0  0
 22 20  1  0  0  0  0
 23 27  1  0  0  0  0
 24 23  1  0  0  0  0
 25 23  1  0  0  0  0
 26 37  1  0  0  0  0
 27 26  2  0  0  0  0
 27 28  1  0  0  0  0
 28 30  2  0  0  0  0
 29 28  1  0  0  0  0
 30 36  1  0  0  0  0
 30 31  1  0  0  0  0
 31 33  1  0  0  0  0
 32 31  1  0  0  0  0
 33 34  1  0  0  0  0
 35 33  2  0  0  0  0
 36 35  1  0  0  0  0
 37 36  2  0  0  0  0
M  END
>  <minimizedAffinity>
-5.59323454

$$$$
