REMARK  Name = 
REMARK  2 active torsions:
REMARK  status: ('A' for Active; 'I' for Inactive)
REMARK    1  A    between atoms: C_2  and  N_7
REMARK    2  A    between atoms: C_5  and  C_13
REMARK                            x       y       z     vdW  Elec       q    Type
REMARK                         _______ _______ _______ _____ _____    ______ ____
ROOT
ATOM      1  C   UNL     1      32.697  28.447  50.934  0.00  0.00    +0.000 A 
ATOM      2  C   UNL     1      33.607  28.192  49.906  0.00  0.00    +0.000 A 
ATOM      3  C   UNL     1      33.299  27.343  48.858  0.00  0.00    +0.000 A 
ATOM      4  H   UNL     1      34.025  27.162  48.072  0.00  0.00    +0.000 HD
ATOM      5  C   UNL     1      32.070  26.719  48.799  0.00  0.00    +0.000 A 
ATOM      6  N   UNL     1      31.539  25.862  47.896  0.00  0.00    +0.000 N 
ATOM      7  H   UNL     1      32.019  25.511  47.031  0.00  0.00    +0.000 HD
ATOM      8  C   UNL     1      30.293  25.537  48.296  0.00  0.00    +0.000 A 
ATOM      9  H   UNL     1      29.616  24.860  47.765  0.00  0.00    +0.000 HD
ATOM     10  C   UNL     1      30.020  26.207  49.492  0.00  0.00    +0.000 A 
ATOM     11  C   UNL     1      31.143  26.938  49.784  0.00  0.00    +0.000 A 
ATOM     12  C   UNL     1      31.479  27.787  50.815  0.00  0.00    +0.000 A 
ENDROOT
BRANCH   2  17
ATOM     13  C   UNL     1      36.640  29.766  51.268  0.00  0.00    +0.000 A 
ATOM     14  C   UNL     1      37.373  30.112  50.120  0.00  0.00    +0.000 A 
ATOM     15  C   UNL     1      36.801  29.793  48.880  0.00  0.00    +0.000 A 
ATOM     16  N   UNL     1      35.598  29.180  48.849  0.00  0.00    +0.000 NA
ATOM     17  C   UNL     1      34.921  28.861  49.973  0.00  0.00    +0.000 A 
ATOM     18  N   UNL     1      35.429  29.148  51.192  0.00  0.00    +0.000 NA
ATOM     19  H   UNL     1      37.095  30.020  52.222  0.00  0.00    +0.000 HD
ATOM     20  H   UNL     1      37.349  30.051  47.988  0.00  0.00    +0.000 HD
BRANCH  14  21
ATOM     21  N   UNL     1      38.627  30.754  50.264  0.00  0.00    +0.000 N 
ATOM     22  H   UNL     1      38.720  31.433  51.073  0.00  0.00    +0.000 HD
ATOM     23  H   UNL     1      39.444  30.597  49.632  0.00  0.00    +0.000 HD
ENDBRANCH  14  21
ENDBRANCH   2  17
TORSDOF 2
