
 OpenBabel03272506553D

 23 25  0  0  0  0  0  0  0  0999 V2000
   33.1830   27.9820   48.8690 C   0  0  0  0  0  3  0  0  0  0  0  0
   33.8690   28.9440   48.1230 C   0  0  0  0  0  0  0  0  0  0  0  0
   33.3930   29.3930   46.9050 C   0  0  0  0  0  0  0  0  0  0  0  0
   33.9470   30.1410   46.3460 H   0  0  0  0  0  0  0  0  0  0  0  0
   32.2130   28.8990   46.3880 C   0  0  0  0  0  0  0  0  0  0  0  0
   31.5510   29.1740   45.2390 N   0  0  0  0  0  0  0  0  0  0  0  0
   31.8560   29.8600   44.5060 H   0  0  0  0  0  0  0  0  0  0  0  0
   30.4350   28.4180   45.1990 C   0  0  0  0  0  0  0  0  0  0  0  0
   29.6980   28.4220   44.3880 H   0  0  0  0  0  0  0  0  0  0  0  0
   30.3830   27.6370   46.3560 C   0  0  0  0  0  3  0  0  0  0  0  0
   31.5030   27.9560   47.0810 C   0  0  0  0  0  0  0  0  0  0  0  0
   32.0030   27.5270   48.2910 C   0  0  0  0  0  3  0  0  0  0  0  0
   36.8800   29.2590   50.2130 C   0  0  0  0  0  0  0  0  0  0  0  0
   37.4870   30.4340   49.7370 C   0  0  0  0  0  0  0  0  0  0  0  0
   36.8390   31.1060   48.6900 C   0  0  0  0  0  0  0  0  0  0  0  0
   35.6860   30.6020   48.1990 N   0  0  0  0  0  0  0  0  0  0  0  0
   35.1300   29.4690   48.6810 C   0  0  0  0  0  0  0  0  0  0  0  0
   35.7160   28.7850   49.6890 N   0  0  0  0  0  0  0  0  0  0  0  0
   37.3920   28.7500   51.0240 H   0  0  0  0  0  0  0  0  0  0  0  0
   37.2900   32.0090   48.3120 H   0  0  0  0  0  0  0  0  0  0  0  0
   38.6980   30.8760   50.3230 N   0  0  0  0  0  0  0  0  0  0  0  0
   38.8070   30.7090   51.3640 H   0  0  0  0  0  0  0  0  0  0  0  0
   39.4690   31.3460   49.7970 H   0  0  0  0  0  0  0  0  0  0  0  0
  2 17  1  0  0  0  0
  2  1  2  0  0  0  0
  3  2  1  0  0  0  0
  4  3  1  0  0  0  0
  5  3  2  0  0  0  0
  5 11  1  0  0  0  0
  6  5  1  0  0  0  0
  7  6  1  0  0  0  0
  8  6  1  0  0  0  0
  8 10  2  0  0  0  0
  9  8  1  0  0  0  0
 10 11  1  0  0  0  0
 11 12  2  0  0  0  0
 12  1  1  0  0  0  0
 13 19  1  0  0  0  0
 14 13  1  0  0  0  0
 14 21  1  0  0  0  0
 15 14  2  0  0  0  0
 16 17  2  0  0  0  0
 16 15  1  0  0  0  0
 17 18  1  0  0  0  0
 18 13  2  0  0  0  0
 20 15  1  0  0  0  0
 21 22  1  0  0  0  0
 23 21  1  0  0  0  0
M  END
>  <minimizedAffinity>
-4.72517204

>  <minimizedRMSD>
2.29740691

$$$$
