
     RDKit          3D

 26 28  0  0  0  0  0  0  0  0999 V2000
   36.6398   29.7661   51.2676 C   0  0  0  0  0  0  0  0  0  0  0  0
   37.3728   30.1123   50.1195 C   0  0  0  0  0  0  0  0  0  0  0  0
   36.8007   29.7925   48.8798 C   0  0  0  0  0  0  0  0  0  0  0  0
   35.5978   29.1797   48.8485 N   0  0  0  0  0  0  0  0  0  0  0  0
   34.9207   28.8613   49.9732 C   0  0  0  0  0  0  0  0  0  0  0  0
   35.4288   29.1481   51.1919 N   0  0  0  0  0  0  0  0  0  0  0  0
   38.6274   30.7541   50.2645 N   0  0  0  0  0  0  0  0  0  0  0  0
   37.0949   30.0198   52.2220 H   0  0  0  0  0  0  0  0  0  0  0  0
   37.3489   30.0507   47.9884 H   0  0  0  0  0  0  0  0  0  0  0  0
   38.7203   31.4332   51.0731 H   0  0  0  0  0  0  0  0  0  0  0  0
   39.4445   30.5968   49.6324 H   0  0  0  0  0  0  0  0  0  0  0  0
   32.9697   27.8950   51.1126 C   0  0  0  0  0  0  0  0  0  0  0  0
   33.6074   28.1915   49.9062 C   0  0  0  0  0  0  0  0  0  0  0  0
   33.0377   27.8733   48.6869 C   0  0  0  0  0  0  0  0  0  0  0  0
   33.5546   28.1151   47.7636 H   0  0  0  0  0  0  0  0  0  0  0  0
   31.8092   27.2469   48.6286 C   0  0  0  0  0  0  0  0  0  0  0  0
   31.0567   26.8397   47.5799 N   0  0  0  0  0  0  0  0  0  0  0  0
   31.3109   26.9456   46.5672 H   0  0  0  0  0  0  0  0  0  0  0  0
   29.9283   26.2767   48.0571 C   0  0  0  0  0  0  0  0  0  0  0  0
   29.1255   25.8540   47.4439 H   0  0  0  0  0  0  0  0  0  0  0  0
   29.9613   26.3259   49.4532 C   0  0  0  0  0  0  0  0  0  0  0  0
   31.1444   26.9355   49.7850 C   0  0  0  0  0  0  0  0  0  0  0  0
   31.7371   27.2649   50.9839 C   0  0  0  0  0  0  0  0  0  0  0  0
   33.3731   28.1230   52.0905 H   0  0  0  0  0  0  0  0  0  0  0  0
   29.2026   25.9556   50.1336 H   0  0  0  0  0  0  0  0  0  0  0  0
   31.1626   26.9933   51.8754 H   0  0  0  0  0  0  0  0  0  0  0  0
  2  7  1  0
  2  1  2  0
  3  2  1  0
  4  3  2  0
  4  5  1  0
  5  6  2  0
  6  1  1  0
  1  8  1  0
  3  9  1  0
  7 10  1  0
  7 11  1  0
 12 13  2  0
 13 14  1  0
 14 15  1  0
 14 16  2  0
 16 17  1  0
 17 18  1  0
 17 19  1  0
 19 20  1  0
 19 21  2  0
 21 22  1  0
 22 23  2  0
 23 12  1  0
 22 16  1  0
 12 24  1  0
 21 25  1  0
 23 26  1  0
  5 13  1  0
M  ISO  5   8  14   9  14  15  15  18   5  20  14
M  END
>  <DihAtoms>  (1) 
3,4,12,11

>  <DihDeg>  (1) 
-0.00176301618458192

$$$$
