REMARK  Name = 
REMARK  3 active torsions:
REMARK  status: ('A' for Active; 'I' for Inactive)
REMARK    1  A    between atoms: C_2  and  C_10
REMARK    2  A    between atoms: C_3  and  C_16
REMARK    3  A    between atoms: C_16  and  C_26
REMARK                            x       y       z     vdW  Elec       q    Type
REMARK                         _______ _______ _______ _____ _____    ______ ____
ROOT
ATOM      1  C   UNL     1      37.818  30.494  50.179  0.00  0.00    +0.000 A 
ATOM      2  C   UNL     1      37.333  30.690  48.907  0.00  0.00    +0.000 A 
ATOM      3  C   UNL     1      36.017  30.289  48.582  0.00  0.00    +0.000 A 
ATOM      4  N   UNL     1      35.277  29.717  49.560  0.00  0.00    +0.000 NA
ATOM      5  C   UNL     1      35.795  29.536  50.825  0.00  0.00    +0.000 A 
ATOM      6  N   UNL     1      37.066  29.928  51.124  0.00  0.00    +0.000 NA
ATOM      7  N   UNL     1      34.947  28.922  51.802  0.00  0.00    +0.000 N 
ATOM      8  H   UNL     1      38.808  30.778  50.487  0.00  0.00    +0.000 HD
ATOM      9  H   UNL     1      34.518  27.968  51.627  0.00  0.00    +0.000 HD
ATOM     10  H   UNL     1      34.749  29.409  52.686  0.00  0.00    +0.000 HD
ENDROOT
BRANCH   2  13
ATOM     11 CL   UNL     1      38.231  33.581  49.216  0.00  0.00    +0.000 Cl
ATOM     12  C   UNL     1      38.721  32.597  47.858  0.00  0.00    +0.000 A 
ATOM     13  C   UNL     1      38.224  31.330  47.901  0.00  0.00    +0.000 A 
ATOM     14  C   UNL     1      38.570  30.455  46.857  0.00  0.00    +0.000 A 
ATOM     15  C   UNL     1      39.363  30.825  45.831  0.00  0.00    +0.000 A 
ATOM     16  C   UNL     1      39.853  32.132  45.819  0.00  0.00    +0.000 A 
ATOM     17 CL   UNL     1      40.884  32.656  44.525  0.00  0.00    +0.000 Cl
ATOM     18  C   UNL     1      39.525  32.996  46.831  0.00  0.00    +0.000 A 
ATOM     19  H   UNL     1      38.240  29.426  46.804  0.00  0.00    +0.000 HD
ATOM     20  H   UNL     1      39.654  30.189  45.008  0.00  0.00    +0.000 HD
ATOM     21  H   UNL     1      39.887  34.014  46.856  0.00  0.00    +0.000 HD
ENDBRANCH   2  13
BRANCH   3  22
ATOM     22  C   UNL     1      35.514  30.490  47.229  0.00  0.00    +0.000 C 
ATOM     23  H   UNL     1      35.761  31.521  46.884  0.00  0.00    +0.000 HD
ATOM     24  H   UNL     1      35.942  29.747  46.529  0.00  0.00    +0.000 HD
BRANCH  22  26
ATOM     25  C   UNL     1      33.249  31.282  47.716  0.00  0.00    +0.000 A 
ATOM     26  C   UNL     1      34.039  30.324  47.112  0.00  0.00    +0.000 A 
ATOM     27  C   UNL     1      33.400  29.268  46.445  0.00  0.00    +0.000 A 
ATOM     28  H   UNL     1      34.044  28.527  45.980  0.00  0.00    +0.000 HD
ATOM     29  C   UNL     1      32.025  29.211  46.407  0.00  0.00    +0.000 A 
ATOM     30  N   UNL     1      31.174  28.329  45.854  0.00  0.00    +0.000 N 
ATOM     31  H   UNL     1      31.432  27.452  45.305  0.00  0.00    +0.000 HD
ATOM     32  C   UNL     1      29.877  28.689  46.084  0.00  0.00    +0.000 A 
ATOM     33  H   UNL     1      29.020  28.128  45.732  0.00  0.00    +0.000 HD
ATOM     34  C   UNL     1      29.970  29.876  46.830  0.00  0.00    +0.000 A 
ATOM     35  C   UNL     1      31.288  30.216  47.041  0.00  0.00    +0.000 A 
ATOM     36  C   UNL     1      31.870  31.272  47.708  0.00  0.00    +0.000 A 
ENDBRANCH  22  26
ENDBRANCH   3  22
TORSDOF 3
