
     RDKit          3D

 39 42  0  0  0  0  0  0  0  0999 V2000
   37.8184   30.4942   50.1794 C   0  0  0  0  0  0  0  0  0  0  0  0
   37.3330   30.6902   48.9069 C   0  0  0  0  0  0  0  0  0  0  0  0
   36.0172   30.2891   48.5818 C   0  0  0  0  0  0  0  0  0  0  0  0
   35.2772   29.7172   49.5603 N   0  0  0  0  0  0  0  0  0  0  0  0
   35.7953   29.5364   50.8245 C   0  0  0  0  0  0  0  0  0  0  0  0
   37.0661   29.9283   51.1238 N   0  0  0  0  0  0  0  0  0  0  0  0
   34.9469   28.9215   51.8023 N   0  0  0  0  0  0  0  0  0  0  0  0
   38.2311   33.5811   49.2161 Cl  0  0  0  0  0  0  0  0  0  0  0  0
   38.7205   32.5972   47.8583 C   0  0  0  0  0  0  0  0  0  0  0  0
   38.2239   31.3301   47.9014 C   0  0  0  0  0  0  0  0  0  0  0  0
   38.5698   30.4552   46.8571 C   0  0  0  0  0  0  0  0  0  0  0  0
   39.3626   30.8251   45.8312 C   0  0  0  0  0  0  0  0  0  0  0  0
   39.8532   32.1320   45.8189 C   0  0  0  0  0  0  0  0  0  0  0  0
   40.8844   32.6557   44.5249 Cl  0  0  0  0  0  0  0  0  0  0  0  0
   39.5252   32.9958   46.8311 C   0  0  0  0  0  0  0  0  0  0  0  0
   35.5141   30.4898   47.2289 C   0  0  0  0  0  0  0  0  0  0  0  0
   38.8081   30.7777   50.4875 H   0  0  0  0  0  0  0  0  0  0  0  0
   34.5178   27.9680   51.6268 H   0  0  0  0  0  0  0  0  0  0  0  0
   34.7487   29.4085   52.6858 H   0  0  0  0  0  0  0  0  0  0  0  0
   38.2403   29.4261   46.8041 H   0  0  0  0  0  0  0  0  0  0  0  0
   39.6543   30.1892   45.0075 H   0  0  0  0  0  0  0  0  0  0  0  0
   39.8866   34.0145   46.8557 H   0  0  0  0  0  0  0  0  0  0  0  0
   35.7614   31.5207   46.8839 H   0  0  0  0  0  0  0  0  0  0  0  0
   35.9423   29.7468   46.5285 H   0  0  0  0  0  0  0  0  0  0  0  0
   33.2489   31.2816   47.7158 C   0  0  0  0  0  0  0  0  0  0  0  0
   34.0392   30.3238   47.1118 C   0  0  0  0  0  0  0  0  0  0  0  0
   33.3999   29.2681   46.4447 C   0  0  0  0  0  0  0  0  0  0  0  0
   34.0441   28.5269   45.9803 H   0  0  0  0  0  0  0  0  0  0  0  0
   32.0253   29.2106   46.4073 C   0  0  0  0  0  0  0  0  0  0  0  0
   31.1742   28.3287   45.8543 N   0  0  0  0  0  0  0  0  0  0  0  0
   31.4317   27.4521   45.3046 H   0  0  0  0  0  0  0  0  0  0  0  0
   29.8774   28.6891   46.0837 C   0  0  0  0  0  0  0  0  0  0  0  0
   29.0205   28.1279   45.7319 H   0  0  0  0  0  0  0  0  0  0  0  0
   29.9696   29.8759   46.8299 C   0  0  0  0  0  0  0  0  0  0  0  0
   31.2883   30.2162   47.0411 C   0  0  0  0  0  0  0  0  0  0  0  0
   31.8698   31.2720   47.7082 C   0  0  0  0  0  0  0  0  0  0  0  0
   33.7286   32.1194   48.2444 H   0  0  0  0  0  0  0  0  0  0  0  0
   29.0590   30.3757   47.1430 H   0  0  0  0  0  0  0  0  0  0  0  0
   31.2548   32.0393   48.1878 H   0  0  0  0  0  0  0  0  0  0  0  0
  1  6  2  0
  2  1  1  0
  3  2  2  0
  3  4  1  0
  4  5  2  0
  5  6  1  0
  5  7  1  0
  9 10  2  0
  9  8  1  0
 10  2  1  0
 11 10  1  0
 12 11  2  0
 13 12  1  0
 13 15  2  0
 14 13  1  0
 15  9  1  0
 16  3  1  0
  1 17  1  0
  7 18  1  0
  7 19  1  0
 11 20  1  0
 12 21  1  0
 15 22  1  0
 16 23  1  0
 16 24  1  0
 25 26  2  0
 26 27  1  0
 27 28  1  0
 27 29  2  0
 29 30  1  0
 30 31  1  0
 30 32  1  0
 32 33  1  0
 32 34  2  0
 34 35  1  0
 35 36  2  0
 36 25  1  0
 35 29  1  0
 25 37  1  0
 34 38  1  0
 36 39  1  0
 16 26  1  0
M  ISO  8  17  14  20  14  21  14  22  14  23   8  24   8  28  15  31   5
M  ISO  1  33  14
M  END
>  <DihAtoms>  (1) 
2,15,25,24

>  <DihDeg>  (1) 
-81.18299311504185

$$$$
