
 OpenBabel03272510133D

 44 48  0  0  0  0  0  0  0  0999 V2000
   38.2900   31.4980   48.9280 C   0  0  0  0  0  0  0  0  0  0  0  0
   38.4040   32.7360   49.5210 C   0  0  0  0  0  0  0  0  0  0  0  0
   39.0440   33.5740   48.6130 C   0  0  0  0  0  0  0  0  0  0  0  0
   39.2980   32.8530   47.5260 N   0  0  0  0  0  0  0  0  0  0  0  0
   38.8540   31.6620   47.7310 N   0  0  0  0  0  0  0  0  0  0  0  0
   38.1240   33.1740   50.4720 H   0  0  0  0  0  0  0  0  0  0  0  0
   39.3240   34.6210   48.6870 H   0  0  0  0  0  0  0  0  0  0  0  0
   39.9660   33.2790   46.3280 C   0  0  0  0  0  0  0  0  0  0  0  0
   40.8050   33.9570   46.6660 H   0  0  0  0  0  0  0  0  0  0  0  0
   39.3390   33.9230   45.6900 H   0  0  0  0  0  0  0  0  0  0  0  0
   40.5530   32.1120   45.6190 C   0  0  0  0  0  0  0  0  0  0  0  0
   40.2290   31.1340   46.1080 H   0  0  0  0  0  0  0  0  0  0  0  0
   41.6700   32.1020   45.7060 H   0  0  0  0  0  0  0  0  0  0  0  0
   39.5610   32.7700   43.2990 C   0  0  0  0  0  3  0  0  0  0  0  0
   40.2060   31.9760   44.2110 C   0  0  0  0  0  0  0  0  0  0  0  0
   40.6800   30.7640   43.6840 C   0  0  0  0  0  0  0  0  0  0  0  0
   41.2220   29.9890   44.2500 H   0  0  0  0  0  0  0  0  0  0  0  0
   40.5200   30.3900   42.3580 C   0  0  0  0  0  0  0  0  0  0  0  0
   40.8520   29.3420   41.6040 N   0  0  0  0  0  0  0  0  0  0  0  0
   41.3760   28.4920   41.9580 H   0  0  0  0  0  0  0  0  0  0  0  0
   40.4420   29.4950   40.3450 C   0  0  0  0  0  0  0  0  0  0  0  0
   40.6000   28.7680   39.5470 H   0  0  0  0  0  0  0  0  0  0  0  0
   39.7950   30.7090   40.2280 C   0  0  0  0  0  3  0  0  0  0  0  0
   39.8600   31.2430   41.4990 C   0  0  0  0  0  0  0  0  0  0  0  0
   39.3830   32.4340   41.9770 C   0  0  0  0  0  3  0  0  0  0  0  0
   37.6740   30.5390   49.7040 O   0  0  0  0  0  0  0  0  0  0  0  0
   34.0510   28.8870   48.3470 C   0  0  0  0  0  0  0  0  0  0  0  0
   34.7330   28.3330   49.3890 C   0  0  0  0  0  0  0  0  0  0  0  0
   35.9200   28.8130   49.8900 C   0  0  0  0  0  0  0  0  0  0  0  0
   36.4960   29.9210   49.3370 C   0  0  0  0  0  0  0  0  0  0  0  0
   35.8090   30.5010   48.2670 C   0  0  0  0  0  0  0  0  0  0  0  0
   34.6420   29.9970   47.8050 N   0  0  0  0  0  0  0  0  0  0  0  0
   34.3320   27.4520   49.8730 H   0  0  0  0  0  0  0  0  0  0  0  0
   36.4540   28.3670   50.7160 H   0  0  0  0  0  0  0  0  0  0  0  0
   36.1490   31.3770   47.7400 H   0  0  0  0  0  0  0  0  0  0  0  0
   32.0160   27.4580   48.4810 C   0  0  0  0  0  0  0  0  0  0  0  0
   32.8190   28.3950   47.8130 C   0  0  0  0  0  0  0  0  0  0  0  0
   32.3730   28.8370   46.5900 C   0  0  0  0  0  0  0  0  0  0  0  0
   31.1970   28.3630   46.0800 N   0  0  0  0  0  0  0  0  0  0  0  0
   30.4570   27.4530   46.7710 C   0  0  0  0  0  0  0  0  0  0  0  0
   30.8570   26.9850   47.9880 N   0  0  0  0  0  0  0  0  0  0  0  0
   32.3250   27.0810   49.4460 H   0  0  0  0  0  0  0  0  0  0  0  0
   32.8960   29.5570   45.9740 H   0  0  0  0  0  0  0  0  0  0  0  0
   29.5190   27.0710   46.3700 H   0  0  0  0  0  0  0  0  0  0  0  0
  1  2  1  0  0  0  0
  1 26  1  0  0  0  0
  2  6  1  0  0  0  0
  3  7  1  0  0  0  0
  3  2  2  0  0  0  0
  4  5  1  0  0  0  0
  4  3  1  0  0  0  0
  5  1  2  0  0  0  0
  8  9  1  0  0  0  0
  8  4  1  0  0  0  0
 10  8  1  0  0  0  0
 11 13  1  0  0  0  0
 11 12  1  0  0  0  0
 11  8  1  0  0  0  0
 14 15  1  0  0  0  0
 15 11  1  0  0  0  0
 16 15  2  0  0  0  0
 16 17  1  0  0  0  0
 18 16  1  0  0  0  0
 19 20  1  0  0  0  0
 19 18  1  0  0  0  0
 21 19  1  0  0  0  0
 22 21  1  0  0  0  0
 23 21  2  0  0  0  0
 23 24  1  0  0  0  0
 24 25  1  0  0  0  0
 24 18  2  0  0  0  0
 25 14  2  0  0  0  0
 27 28  1  0  0  0  0
 28 33  1  0  0  0  0
 28 29  2  0  0  0  0
 29 34  1  0  0  0  0
 30 26  1  0  0  0  0
 30 29  1  0  0  0  0
 31 30  2  0  0  0  0
 32 31  1  0  0  0  0
 32 27  2  0  0  0  0
 35 31  1  0  0  0  0
 36 42  1  0  0  0  0
 37 27  1  0  0  0  0
 37 36  2  0  0  0  0
 38 37  1  0  0  0  0
 39 38  2  0  0  0  0
 39 40  1  0  0  0  0
 40 41  2  0  0  0  0
 41 36  1  0  0  0  0
 43 38  1  0  0  0  0
 44 40  1  0  0  0  0
M  END
>  <minimizedAffinity>
-6.69015169

>  <minimizedRMSD>
1.73121035

$$$$
