
 OpenBabel03272510133D

 44 48  0  0  0  0  0  0  0  0999 V2000
   38.3560   31.6330   48.9970 C   0  0  0  0  0  0  0  0  0  0  0  0
   38.4950   32.8850   49.5540 C   0  0  0  0  0  0  0  0  0  0  0  0
   39.1500   33.6840   48.6210 C   0  0  0  0  0  0  0  0  0  0  0  0
   39.3870   32.9270   47.5550 N   0  0  0  0  0  0  0  0  0  0  0  0
   38.9210   31.7510   47.7950 N   0  0  0  0  0  0  0  0  0  0  0  0
   38.2270   33.3560   50.4920 H   0  0  0  0  0  0  0  0  0  0  0  0
   39.4500   34.7270   48.6640 H   0  0  0  0  0  0  0  0  0  0  0  0
   40.0600   33.3050   46.3430 C   0  0  0  0  0  0  0  0  0  0  0  0
   41.0240   33.8000   46.6670 H   0  0  0  0  0  0  0  0  0  0  0  0
   39.5290   34.0910   45.7820 H   0  0  0  0  0  0  0  0  0  0  0  0
   40.3900   32.1010   45.5370 C   0  0  0  0  0  0  0  0  0  0  0  0
   40.7050   31.2350   46.2080 H   0  0  0  0  0  0  0  0  0  0  0  0
   41.2830   32.2800   44.8850 H   0  0  0  0  0  0  0  0  0  0  0  0
   39.0380   30.3500   44.1550 C   0  0  0  0  0  3  0  0  0  0  0  0
   39.3170   31.5750   44.7030 C   0  0  0  0  0  0  0  0  0  0  0  0
   38.3440   32.5540   44.4450 C   0  0  0  0  0  0  0  0  0  0  0  0
   38.3820   33.5990   44.7930 H   0  0  0  0  0  0  0  0  0  0  0  0
   37.1970   32.3190   43.7040 C   0  0  0  0  0  0  0  0  0  0  0  0
   36.1380   33.0280   43.3110 N   0  0  0  0  0  0  0  0  0  0  0  0
   35.9850   34.0500   43.5420 H   0  0  0  0  0  0  0  0  0  0  0  0
   35.2930   32.2910   42.5900 C   0  0  0  0  0  0  0  0  0  0  0  0
   34.3590   32.6560   42.1620 H   0  0  0  0  0  0  0  0  0  0  0  0
   35.7990   31.0100   42.4820 C   0  0  0  0  0  3  0  0  0  0  0  0
   36.9830   31.0590   43.1850 C   0  0  0  0  0  0  0  0  0  0  0  0
   37.9100   30.0780   43.4150 C   0  0  0  0  0  3  0  0  0  0  0  0
   37.7240   30.7090   49.8020 O   0  0  0  0  0  0  0  0  0  0  0  0
   34.1800   28.9210   48.4080 C   0  0  0  0  0  0  0  0  0  0  0  0
   34.8850   28.3800   49.4420 C   0  0  0  0  0  0  0  0  0  0  0  0
   36.0480   28.9030   49.9540 C   0  0  0  0  0  0  0  0  0  0  0  0
   36.5750   30.0450   49.4210 C   0  0  0  0  0  0  0  0  0  0  0  0
   35.8640   30.6130   48.3600 C   0  0  0  0  0  0  0  0  0  0  0  0
   34.7220   30.0650   47.8860 N   0  0  0  0  0  0  0  0  0  0  0  0
   34.5230   27.4740   49.9100 H   0  0  0  0  0  0  0  0  0  0  0  0
   36.6000   28.4680   50.7740 H   0  0  0  0  0  0  0  0  0  0  0  0
   36.1660   31.5120   47.8480 H   0  0  0  0  0  0  0  0  0  0  0  0
   32.1620   27.4700   48.5530 C   0  0  0  0  0  0  0  0  0  0  0  0
   32.9720   28.3840   47.8630 C   0  0  0  0  0  0  0  0  0  0  0  0
   32.5590   28.7570   46.6060 C   0  0  0  0  0  0  0  0  0  0  0  0
   31.4050   28.2390   46.0850 N   0  0  0  0  0  0  0  0  0  0  0  0
   30.6570   27.3550   46.8000 C   0  0  0  0  0  0  0  0  0  0  0  0
   31.0250   26.9560   48.0500 N   0  0  0  0  0  0  0  0  0  0  0  0
   32.4450   27.1480   49.5460 H   0  0  0  0  0  0  0  0  0  0  0  0
   33.0910   29.4510   45.9690 H   0  0  0  0  0  0  0  0  0  0  0  0
   29.7370   26.9380   46.3900 H   0  0  0  0  0  0  0  0  0  0  0  0
  1  2  1  0  0  0  0
  1 26  1  0  0  0  0
  2  6  1  0  0  0  0
  3  7  1  0  0  0  0
  3  2  2  0  0  0  0
  4  5  1  0  0  0  0
  4  3  1  0  0  0  0
  5  1  2  0  0  0  0
  8  9  1  0  0  0  0
  8  4  1  0  0  0  0
 10  8  1  0  0  0  0
 11 12  1  0  0  0  0
 11  8  1  0  0  0  0
 13 11  1  0  0  0  0
 14 15  1  0  0  0  0
 15 11  1  0  0  0  0
 16 15  2  0  0  0  0
 16 17  1  0  0  0  0
 18 16  1  0  0  0  0
 19 20  1  0  0  0  0
 19 18  1  0  0  0  0
 21 19  1  0  0  0  0
 22 21  1  0  0  0  0
 23 21  2  0  0  0  0
 23 24  1  0  0  0  0
 24 25  1  0  0  0  0
 24 18  2  0  0  0  0
 25 14  2  0  0  0  0
 27 28  1  0  0  0  0
 28 33  1  0  0  0  0
 28 29  2  0  0  0  0
 29 34  1  0  0  0  0
 30 26  1  0  0  0  0
 30 29  1  0  0  0  0
 31 30  2  0  0  0  0
 32 31  1  0  0  0  0
 32 27  2  0  0  0  0
 35 31  1  0  0  0  0
 36 42  1  0  0  0  0
 37 27  1  0  0  0  0
 37 36  2  0  0  0  0
 38 37  1  0  0  0  0
 39 38  2  0  0  0  0
 39 40  1  0  0  0  0
 40 41  2  0  0  0  0
 41 36  1  0  0  0  0
 43 38  1  0  0  0  0
 44 40  1  0  0  0  0
M  END
>  <minimizedAffinity>
-6.82646799

>  <minimizedRMSD>
1.31042922

$$$$
