REMARK  Name = 
REMARK  2 active torsions:
REMARK  status: ('A' for Active; 'I' for Inactive)
REMARK    1  A    between atoms: C_2  and  N_7
REMARK    2  A    between atoms: C_5  and  C_13
REMARK                            x       y       z     vdW  Elec       q    Type
REMARK                         _______ _______ _______ _____ _____    ______ ____
ROOT
ATOM      1  C   UNL     1      32.515  28.851  50.473  0.00  0.00    +0.000 A 
ATOM      2  C   UNL     1      33.607  28.192  49.906  0.00  0.00    +0.000 A 
ATOM      3  C   UNL     1      33.475  26.955  49.302  0.00  0.00    +0.000 A 
ATOM      4  H   UNL     1      34.341  26.463  48.869  0.00  0.00    +0.000 HD
ATOM      5  C   UNL     1      32.245  26.332  49.241  0.00  0.00    +0.000 A 
ATOM      6  N   UNL     1      31.863  25.145  48.714  0.00  0.00    +0.000 N 
ATOM      7  H   UNL     1      32.494  24.459  48.232  0.00  0.00    +0.000 HD
ATOM      8  C   UNL     1      30.538  24.994  48.915  0.00  0.00    +0.000 A 
ATOM      9  H   UNL     1      29.946  24.130  48.598  0.00  0.00    +0.000 HD
ATOM     10  C   UNL     1      30.059  26.120  49.591  0.00  0.00    +0.000 A 
ATOM     11  C   UNL     1      31.143  26.939  49.783  0.00  0.00    +0.000 A 
ATOM     12  C   UNL     1      31.306  28.170  50.378  0.00  0.00    +0.000 A 
ENDROOT
BRANCH   2  17
ATOM     13  C   UNL     1      36.640  29.766  51.268  0.00  0.00    +0.000 A 
ATOM     14  C   UNL     1      37.373  30.112  50.120  0.00  0.00    +0.000 A 
ATOM     15  C   UNL     1      36.801  29.793  48.880  0.00  0.00    +0.000 A 
ATOM     16  N   UNL     1      35.598  29.180  48.849  0.00  0.00    +0.000 NA
ATOM     17  C   UNL     1      34.921  28.861  49.973  0.00  0.00    +0.000 A 
ATOM     18  N   UNL     1      35.429  29.148  51.192  0.00  0.00    +0.000 NA
ATOM     19  H   UNL     1      37.095  30.020  52.222  0.00  0.00    +0.000 HD
ATOM     20  H   UNL     1      37.349  30.051  47.988  0.00  0.00    +0.000 HD
BRANCH  14  21
ATOM     21  N   UNL     1      38.627  30.754  50.264  0.00  0.00    +0.000 N 
ATOM     22  H   UNL     1      38.720  31.433  51.073  0.00  0.00    +0.000 HD
ATOM     23  H   UNL     1      39.444  30.597  49.632  0.00  0.00    +0.000 HD
ENDBRANCH  14  21
ENDBRANCH   2  17
TORSDOF 2
