
 OpenBabel03262521213D

 36 38  0  0  0  0  0  0  0  0999 V2000
   37.1690   29.3000   51.5850 C   0  0  0  0  0  0  0  0  0  0  0  0
   37.1410   29.3810   52.7200 H   0  0  0  0  0  0  0  0  0  0  0  0
   36.1690   28.8350   51.4070 H   0  0  0  0  0  0  0  0  0  0  0  0
   37.4590   30.4920   51.0400 C   0  0  0  0  0  0  0  0  0  0  0  0
   36.7410   31.3290   51.2850 H   0  0  0  0  0  0  0  0  0  0  0  0
   38.4590   30.9110   51.2780 H   0  0  0  0  0  0  0  0  0  0  0  0
   37.4320   30.1390   49.7140 O   0  0  0  0  0  0  0  0  0  0  0  0
   38.0340   30.9760   48.8090 C   0  0  0  0  0  0  0  0  0  0  0  0
   38.3430   32.2140   49.3450 C   0  0  0  0  0  0  0  0  0  0  0  0
   38.9640   33.1840   48.5420 C   0  0  0  0  0  0  0  0  0  0  0  0
   39.2260   32.8210   47.2450 N   0  0  0  0  0  0  0  0  0  0  0  0
   38.9080   31.5880   46.7440 C   0  0  0  0  0  0  0  0  0  0  0  0
   38.3140   30.6770   47.5340 N   0  0  0  0  0  0  0  0  0  0  0  0
   39.8130   32.4110   44.6870 C   0  0  0  0  0  0  0  0  0  0  0  0
   40.0670   33.5560   45.1710 O   0  0  0  0  0  0  0  0  0  0  0  0
   39.2270   31.3270   45.3820 N   0  0  0  0  0  0  0  0  0  0  0  0
   38.1490   32.5390   50.3720 H   0  0  0  0  0  0  0  0  0  0  0  0
   39.2140   34.1440   48.9210 H   0  0  0  0  0  0  0  0  0  0  0  0
   40.0940   32.3180   43.6460 H   0  0  0  0  0  0  0  0  0  0  0  0
   39.0360   30.4030   44.9470 H   0  0  0  0  0  0  0  0  0  0  0  0
   38.1740   28.2020   51.3220 C   0  0  0  0  0  0  0  0  0  0  0  0
   39.0780   28.6810   50.8580 H   0  0  0  0  0  0  0  0  0  0  0  0
   37.8330   27.4730   50.5460 H   0  0  0  0  0  0  0  0  0  0  0  0
   38.6990   27.3290   52.7750 S   0  0  0  0  0  0  0  0  0  0  0  0
   40.3750   25.1100   53.4040 C   0  0  0  0  0  0  0  0  0  0  0  0
   39.8100   25.9950   52.4820 C   0  0  0  0  0  0  0  0  0  0  0  0
   40.1820   25.7920   51.1490 C   0  0  0  0  0  0  0  0  0  0  0  0
   39.7980   26.4300   50.3420 H   0  0  0  0  0  0  0  0  0  0  0  0
   41.0340   24.8090   50.7400 C   0  0  0  0  0  0  0  0  0  0  0  0
   41.5460   24.3940   49.5910 N   0  0  0  0  0  0  0  0  0  0  0  0
   41.3620   24.8120   48.6350 H   0  0  0  0  0  0  0  0  0  0  0  0
   42.3790   23.3240   49.7480 C   0  0  0  0  0  0  0  0  0  0  0  0
   42.9410   22.7650   49.0150 H   0  0  0  0  0  0  0  0  0  0  0  0
   42.3840   23.0500   51.1100 C   0  0  0  0  0  0  0  0  0  0  0  0
   41.5520   23.9730   51.7030 C   0  0  0  0  0  0  0  0  0  0  0  0
   41.2390   24.1050   53.0250 C   0  0  0  0  0  0  0  0  0  0  0  0
  1  2  1  0  0  0  0
  3  1  1  0  0  0  0
  4  6  1  0  0  0  0
  4  5  1  0  0  0  0
  4  1  1  0  0  0  0
  7  4  1  0  0  0  0
  8  9  1  0  0  0  0
  8  7  1  0  0  0  0
  9 17  1  0  0  0  0
 10 18  1  0  0  0  0
 10  9  2  0  0  0  0
 11 10  1  0  0  0  0
 12 11  2  0  0  0  0
 12 13  1  0  0  0  0
 13  8  2  0  0  0  0
 14 15  2  0  0  0  0
 14 16  1  0  0  0  0
 16 12  1  0  0  0  0
 19 14  1  0  0  0  0
 20 16  1  0  0  0  0
 21  1  1  0  0  0  0
 21 24  1  0  0  0  0
 22 21  1  0  0  0  0
 23 21  1  0  0  0  0
 26 24  1  0  0  0  0
 26 25  2  0  0  0  0
 27 26  1  0  0  0  0
 28 27  1  0  0  0  0
 29 27  2  0  0  0  0
 29 35  1  0  0  0  0
 30 32  1  0  0  0  0
 30 29  1  0  0  0  0
 31 30  1  0  0  0  0
 32 34  2  0  0  0  0
 33 32  1  0  0  0  0
 34 35  1  0  0  0  0
 35 36  2  0  0  0  0
 36 25  1  0  0  0  0
M  END
>  <minimizedAffinity>
-4.08888531

>  <minimizedRMSD>
3.24433827

$$$$
