
 OpenBabel03262522333D

 30 33  0  0  0  0  0  0  0  0999 V2000
   40.0390   22.8770   36.8190 C   0  0  0  0  0  0  0  0  0  0  0  0
   39.5190   22.8740   38.0840 C   0  0  0  0  0  0  0  0  0  0  0  0
   38.4980   23.7020   38.5060 C   0  0  0  0  0  0  0  0  0  0  0  0
   37.9510   24.6030   37.6000 C   0  0  0  0  0  0  0  0  0  0  0  0
   38.4870   24.5880   36.3390 C   0  0  0  0  0  0  0  0  0  0  0  0
   39.4850   23.7630   35.9660 N   0  0  0  0  0  0  0  0  0  0  0  0
   39.9150   22.1890   38.8240 H   0  0  0  0  0  0  0  0  0  0  0  0
   38.0980   23.6860   39.5150 H   0  0  0  0  0  0  0  0  0  0  0  0
   37.1510   25.2650   37.9010 H   0  0  0  0  0  0  0  0  0  0  0  0
   37.7280   26.8190   35.6080 C   0  0  0  0  0  3  0  0  0  0  0  0
   37.9940   25.4890   35.3040 C   0  0  0  0  0  0  0  0  0  0  0  0
   37.7510   25.1520   33.9930 C   0  0  0  0  0  0  0  0  0  0  0  0
   37.9370   24.1390   33.6910 H   0  0  0  0  0  0  0  0  0  0  0  0
   37.2860   26.0450   33.0600 C   0  0  0  0  0  0  0  0  0  0  0  0
   36.9860   25.9210   31.7430 N   0  0  0  0  0  0  0  0  0  0  0  0
   37.0910   25.0200   31.2350 H   0  0  0  0  0  0  0  0  0  0  0  0
   36.5620   27.1040   31.2720 C   0  0  0  0  0  0  0  0  0  0  0  0
   36.2620   27.2630   30.2430 H   0  0  0  0  0  0  0  0  0  0  0  0
   36.5790   28.0350   32.2970 C   0  0  0  0  0  3  0  0  0  0  0  0
   37.0350   27.3550   33.4070 C   0  0  0  0  0  0  0  0  0  0  0  0
   37.2570   27.7570   34.7040 C   0  0  0  0  0  3  0  0  0  0  0  0
   41.8990   21.2310   37.2730 C   0  0  0  0  0  0  0  0  0  0  0  0
   41.1150   22.0000   36.3860 C   0  0  0  0  0  0  0  0  0  0  0  0
   41.3980   21.9040   35.0350 C   0  0  0  0  0  0  0  0  0  0  0  0
   42.4140   21.0730   34.6430 N   0  0  0  0  0  0  0  0  0  0  0  0
   43.1340   20.3610   35.5170 C   0  0  0  0  0  0  0  0  0  0  0  0
   42.8850   20.4320   36.8240 N   0  0  0  0  0  0  0  0  0  0  0  0
   41.6360   21.3450   38.3120 H   0  0  0  0  0  0  0  0  0  0  0  0
   40.8540   22.4540   34.2640 H   0  0  0  0  0  0  0  0  0  0  0  0
   43.9370   19.7050   35.2200 H   0  0  0  0  0  0  0  0  0  0  0  0
  1  2  1  0  0  0  0
  2  3  2  0  0  0  0
  2  7  1  0  0  0  0
  3  8  1  0  0  0  0
  4  9  1  0  0  0  0
  4  3  1  0  0  0  0
  5  4  2  0  0  0  0
  6  5  1  0  0  0  0
  6  1  2  0  0  0  0
 11 10  1  0  0  0  0
 11  5  1  0  0  0  0
 12 11  2  0  0  0  0
 13 12  1  0  0  0  0
 14 20  2  0  0  0  0
 14 12  1  0  0  0  0
 15 14  1  0  0  0  0
 16 15  1  0  0  0  0
 17 15  1  0  0  0  0
 17 19  2  0  0  0  0
 18 17  1  0  0  0  0
 19 20  1  0  0  0  0
 20 21  1  0  0  0  0
 21 10  2  0  0  0  0
 22 28  1  0  0  0  0
 23  1  1  0  0  0  0
 23 22  2  0  0  0  0
 24 23  1  0  0  0  0
 25 24  2  0  0  0  0
 25 26  1  0  0  0  0
 26 27  2  0  0  0  0
 27 22  1  0  0  0  0
 29 24  1  0  0  0  0
 30 26  1  0  0  0  0
M  END
>  <minimizedAffinity>
-5.82161856

$$$$

 OpenBabel03262522333D

 30 33  0  0  0  0  0  0  0  0999 V2000
   37.2600   26.9520   33.7590 C   0  0  0  0  0  0  0  0  0  0  0  0
   37.4990   27.2170   32.4380 C   0  0  0  0  0  0  0  0  0  0  0  0
   37.0100   28.3210   31.7670 C   0  0  0  0  0  0  0  0  0  0  0  0
   36.2240   29.2310   32.4640 C   0  0  0  0  0  0  0  0  0  0  0  0
   35.9990   28.9450   33.7840 C   0  0  0  0  0  0  0  0  0  0  0  0
   36.4940   27.8560   34.4030 N   0  0  0  0  0  0  0  0  0  0  0  0
   38.1060   26.5350   31.8560 H   0  0  0  0  0  0  0  0  0  0  0  0
   37.2090   28.5150   30.7180 H   0  0  0  0  0  0  0  0  0  0  0  0
   35.8260   30.1040   31.9650 H   0  0  0  0  0  0  0  0  0  0  0  0
   33.8010   29.7420   34.5740 C   0  0  0  0  0  3  0  0  0  0  0  0
   35.1880   29.8280   34.6140 C   0  0  0  0  0  0  0  0  0  0  0  0
   35.6670   30.7850   35.4790 C   0  0  0  0  0  0  0  0  0  0  0  0
   36.7310   30.9030   35.5580 H   0  0  0  0  0  0  0  0  0  0  0  0
   34.8540   31.5890   36.2380 C   0  0  0  0  0  0  0  0  0  0  0  0
   35.1170   32.5750   37.1320 N   0  0  0  0  0  0  0  0  0  0  0  0
   36.0880   32.8610   37.3690 H   0  0  0  0  0  0  0  0  0  0  0  0
   33.9610   33.0600   37.6090 C   0  0  0  0  0  0  0  0  0  0  0  0
   33.9050   33.8570   38.3400 H   0  0  0  0  0  0  0  0  0  0  0  0
   32.9050   32.3850   37.0190 C   0  0  0  0  0  3  0  0  0  0  0  0
   33.4830   31.4690   36.1640 C   0  0  0  0  0  0  0  0  0  0  0  0
   32.9390   30.5300   35.3190 C   0  0  0  0  0  3  0  0  0  0  0  0
   37.9200   25.7130   35.8570 C   0  0  0  0  0  0  0  0  0  0  0  0
   37.7800   25.7850   34.4550 C   0  0  0  0  0  0  0  0  0  0  0  0
   38.1630   24.6800   33.7160 C   0  0  0  0  0  0  0  0  0  0  0  0
   38.6500   23.5900   34.3850 N   0  0  0  0  0  0  0  0  0  0  0  0
   38.7670   23.5610   35.7170 C   0  0  0  0  0  0  0  0  0  0  0  0
   38.4070   24.6100   36.4570 N   0  0  0  0  0  0  0  0  0  0  0  0
   37.6080   26.6010   36.3820 H   0  0  0  0  0  0  0  0  0  0  0  0
   38.0960   24.6310   32.6270 H   0  0  0  0  0  0  0  0  0  0  0  0
   39.1500   22.7080   36.2550 H   0  0  0  0  0  0  0  0  0  0  0  0
  1  6  1  0  0  0  0
  1 23  1  0  0  0  0
  2  1  2  0  0  0  0
  3  2  1  0  0  0  0
  3  4  2  0  0  0  0
  4  5  1  0  0  0  0
  5  6  2  0  0  0  0
  5 11  1  0  0  0  0
  7  2  1  0  0  0  0
  8  3  1  0  0  0  0
  9  4  1  0  0  0  0
 10 11  2  0  0  0  0
 10 21  1  0  0  0  0
 11 12  1  0  0  0  0
 12 13  1  0  0  0  0
 12 14  2  0  0  0  0
 14 15  1  0  0  0  0
 15 16  1  0  0  0  0
 15 17  1  0  0  0  0
 17 18  1  0  0  0  0
 19 17  2  0  0  0  0
 20 14  1  0  0  0  0
 20 19  1  0  0  0  0
 21 20  2  0  0  0  0
 22 28  1  0  0  0  0
 22 27  1  0  0  0  0
 23 22  2  0  0  0  0
 24 25  2  0  0  0  0
 24 23  1  0  0  0  0
 25 26  1  0  0  0  0
 26 30  1  0  0  0  0
 26 27  2  0  0  0  0
 29 24  1  0  0  0  0
M  END
>  <minimizedAffinity>
-5.75977421

$$$$

 OpenBabel03262522333D

 30 33  0  0  0  0  0  0  0  0999 V2000
   35.9180   29.1380   34.0820 C   0  0  0  0  0  0  0  0  0  0  0  0
   35.9690   29.2010   32.7160 C   0  0  0  0  0  0  0  0  0  0  0  0
   36.6000   28.2670   31.9180 C   0  0  0  0  0  0  0  0  0  0  0  0
   37.2280   27.1860   32.5260 C   0  0  0  0  0  0  0  0  0  0  0  0
   37.1640   27.1430   33.8930 C   0  0  0  0  0  0  0  0  0  0  0  0
   36.5380   28.0760   34.6370 N   0  0  0  0  0  0  0  0  0  0  0  0
   35.4930   30.0260   32.2000 H   0  0  0  0  0  0  0  0  0  0  0  0
   36.6310   28.3330   30.8350 H   0  0  0  0  0  0  0  0  0  0  0  0
   37.7320   26.4390   31.9280 H   0  0  0  0  0  0  0  0  0  0  0  0
   38.6730   25.1940   34.0040 C   0  0  0  0  0  3  0  0  0  0  0  0
   37.7870   26.0570   34.6400 C   0  0  0  0  0  0  0  0  0  0  0  0
   37.5870   25.7770   35.9720 C   0  0  0  0  0  0  0  0  0  0  0  0
   36.9140   26.4060   36.5220 H   0  0  0  0  0  0  0  0  0  0  0  0
   38.2030   24.7370   36.6230 C   0  0  0  0  0  0  0  0  0  0  0  0
   38.1440   24.2960   37.9040 N   0  0  0  0  0  0  0  0  0  0  0  0
   37.5510   24.7590   38.6220 H   0  0  0  0  0  0  0  0  0  0  0  0
   38.9460   23.2290   38.0420 C   0  0  0  0  0  0  0  0  0  0  0  0
   39.0720   22.6950   38.9770 H   0  0  0  0  0  0  0  0  0  0  0  0
   39.5500   22.9520   36.8270 C   0  0  0  0  0  3  0  0  0  0  0  0
   39.0730   23.9060   35.9520 C   0  0  0  0  0  0  0  0  0  0  0  0
   39.3180   24.1320   34.6170 C   0  0  0  0  0  3  0  0  0  0  0  0
   35.9380   31.0750   35.7000 C   0  0  0  0  0  0  0  0  0  0  0  0
   35.2500   30.1280   34.9120 C   0  0  0  0  0  0  0  0  0  0  0  0
   33.8670   30.1550   34.9400 C   0  0  0  0  0  0  0  0  0  0  0  0
   33.2530   31.0940   35.7260 N   0  0  0  0  0  0  0  0  0  0  0  0
   33.9420   31.9750   36.4600 C   0  0  0  0  0  0  0  0  0  0  0  0
   35.2750   31.9740   36.4520 N   0  0  0  0  0  0  0  0  0  0  0  0
   37.0120   31.0090   35.6400 H   0  0  0  0  0  0  0  0  0  0  0  0
   33.2380   29.4680   34.3690 H   0  0  0  0  0  0  0  0  0  0  0  0
   33.4700   32.7180   37.0820 H   0  0  0  0  0  0  0  0  0  0  0  0
  1  6  1  0  0  0  0
  1 23  1  0  0  0  0
  2  1  2  0  0  0  0
  3  4  2  0  0  0  0
  3  2  1  0  0  0  0
  4  5  1  0  0  0  0
  5  6  2  0  0  0  0
  5 11  1  0  0  0  0
  7  2  1  0  0  0  0
  8  3  1  0  0  0  0
  9  4  1  0  0  0  0
 10 21  2  0  0  0  0
 10 11  1  0  0  0  0
 11 12  2  0  0  0  0
 12 13  1  0  0  0  0
 12 14  1  0  0  0  0
 14 15  1  0  0  0  0
 15 17  1  0  0  0  0
 15 16  1  0  0  0  0
 17 18  1  0  0  0  0
 19 17  2  0  0  0  0
 20 14  2  0  0  0  0
 20 19  1  0  0  0  0
 21 20  1  0  0  0  0
 22 27  1  0  0  0  0
 23 24  1  0  0  0  0
 23 22  2  0  0  0  0
 24 25  2  0  0  0  0
 25 26  1  0  0  0  0
 26 30  1  0  0  0  0
 27 26  2  0  0  0  0
 28 22  1  0  0  0  0
 29 24  1  0  0  0  0
M  END
>  <minimizedAffinity>
-5.73886299

$$$$

 OpenBabel03262522333D

 30 33  0  0  0  0  0  0  0  0999 V2000
   36.2420   27.3920   31.6380 C   0  0  0  0  0  0  0  0  0  0  0  0
   36.7420   28.1360   30.6040 C   0  0  0  0  0  0  0  0  0  0  0  0
   36.7100   29.5160   30.5540 C   0  0  0  0  0  0  0  0  0  0  0  0
   36.1370   30.2090   31.6130 C   0  0  0  0  0  0  0  0  0  0  0  0
   35.6440   29.4440   32.6370 C   0  0  0  0  0  0  0  0  0  0  0  0
   35.6940   28.0980   32.6480 N   0  0  0  0  0  0  0  0  0  0  0  0
   37.1970   27.6380   29.7570 H   0  0  0  0  0  0  0  0  0  0  0  0
   37.1110   30.0900   29.7240 H   0  0  0  0  0  0  0  0  0  0  0  0
   36.0970   31.2890   31.6020 H   0  0  0  0  0  0  0  0  0  0  0  0
   33.7080   29.7480   34.1360 C   0  0  0  0  0  3  0  0  0  0  0  0
   35.0210   30.0610   33.8010 C   0  0  0  0  0  0  0  0  0  0  0  0
   35.6170   30.9660   34.6500 C   0  0  0  0  0  0  0  0  0  0  0  0
   36.6320   31.2500   34.4480 H   0  0  0  0  0  0  0  0  0  0  0  0
   34.9780   31.5150   35.7340 C   0  0  0  0  0  0  0  0  0  0  0  0
   35.3760   32.4070   36.6750 N   0  0  0  0  0  0  0  0  0  0  0  0
   36.3300   32.8200   36.6770 H   0  0  0  0  0  0  0  0  0  0  0  0
   34.3670   32.6230   37.5330 C   0  0  0  0  0  0  0  0  0  0  0  0
   34.4380   33.2980   38.3790 H   0  0  0  0  0  0  0  0  0  0  0  0
   33.2750   31.8620   37.1540 C   0  0  0  0  0  3  0  0  0  0  0  0
   33.6750   31.1750   36.0270 C   0  0  0  0  0  0  0  0  0  0  0  0
   33.0210   30.2760   35.2170 C   0  0  0  0  0  3  0  0  0  0  0  0
   35.3560   25.1150   31.0050 C   0  0  0  0  0  0  0  0  0  0  0  0
   36.2810   25.9390   31.6800 C   0  0  0  0  0  0  0  0  0  0  0  0
   37.2730   25.3170   32.4180 C   0  0  0  0  0  0  0  0  0  0  0  0
   37.2960   23.9480   32.4470 N   0  0  0  0  0  0  0  0  0  0  0  0
   36.3990   23.2020   31.7930 C   0  0  0  0  0  0  0  0  0  0  0  0
   35.4330   23.7720   31.0730 N   0  0  0  0  0  0  0  0  0  0  0  0
   34.6060   25.6510   30.4470 H   0  0  0  0  0  0  0  0  0  0  0  0
   38.0380   25.8590   32.9780 H   0  0  0  0  0  0  0  0  0  0  0  0
   36.4080   22.1240   31.8090 H   0  0  0  0  0  0  0  0  0  0  0  0
  1 23  1  0  0  0  0
  1  6  1  0  0  0  0
  2  1  2  0  0  0  0
  3  2  1  0  0  0  0
  3  4  2  0  0  0  0
  4  5  1  0  0  0  0
  5  6  2  0  0  0  0
  5 11  1  0  0  0  0
  7  2  1  0  0  0  0
  8  3  1  0  0  0  0
  9  4  1  0  0  0  0
 10 21  1  0  0  0  0
 11 10  2  0  0  0  0
 11 12  1  0  0  0  0
 12 14  2  0  0  0  0
 13 12  1  0  0  0  0
 14 20  1  0  0  0  0
 14 15  1  0  0  0  0
 15 16  1  0  0  0  0
 15 17  1  0  0  0  0
 17 18  1  0  0  0  0
 19 17  2  0  0  0  0
 20 19  1  0  0  0  0
 21 20  2  0  0  0  0
 22 27  2  0  0  0  0
 22 23  1  0  0  0  0
 23 24  2  0  0  0  0
 24 25  1  0  0  0  0
 24 29  1  0  0  0  0
 26 30  1  0  0  0  0
 26 25  2  0  0  0  0
 27 26  1  0  0  0  0
 28 22  1  0  0  0  0
M  END
>  <minimizedAffinity>
-5.61789131

$$$$

 OpenBabel03262522333D

 30 33  0  0  0  0  0  0  0  0999 V2000
   35.6640   29.6180   34.1080 C   0  0  0  0  0  0  0  0  0  0  0  0
   35.7220   29.8710   32.7640 C   0  0  0  0  0  0  0  0  0  0  0  0
   36.3220   29.0350   31.8420 C   0  0  0  0  0  0  0  0  0  0  0  0
   36.9080   27.8580   32.2910 C   0  0  0  0  0  0  0  0  0  0  0  0
   36.8380   27.6260   33.6390 C   0  0  0  0  0  0  0  0  0  0  0  0
   36.2440   28.4680   34.5070 N   0  0  0  0  0  0  0  0  0  0  0  0
   35.2790   30.7760   32.3700 H   0  0  0  0  0  0  0  0  0  0  0  0
   36.3580   29.2510   30.7790 H   0  0  0  0  0  0  0  0  0  0  0  0
   37.3860   27.1840   31.5930 H   0  0  0  0  0  0  0  0  0  0  0  0
   37.7390   26.3930   35.5770 C   0  0  0  0  0  3  0  0  0  0  0  0
   37.4190   26.4240   34.2250 C   0  0  0  0  0  0  0  0  0  0  0  0
   37.7000   25.2560   33.5540 C   0  0  0  0  0  0  0  0  0  0  0  0
   37.4760   25.2130   32.5050 H   0  0  0  0  0  0  0  0  0  0  0  0
   38.2490   24.1530   34.1590 C   0  0  0  0  0  0  0  0  0  0  0  0
   38.5980   22.9300   33.6900 N   0  0  0  0  0  0  0  0  0  0  0  0
   38.4690   22.6620   32.6930 H   0  0  0  0  0  0  0  0  0  0  0  0
   39.1000   22.1960   34.6950 C   0  0  0  0  0  0  0  0  0  0  0  0
   39.4510   21.1780   34.5740 H   0  0  0  0  0  0  0  0  0  0  0  0
   39.0860   22.9480   35.8580 C   0  0  0  0  0  3  0  0  0  0  0  0
   38.5510   24.1690   35.5040 C   0  0  0  0  0  0  0  0  0  0  0  0
   38.2940   25.3070   36.2330 C   0  0  0  0  0  3  0  0  0  0  0  0
   33.6340   30.5820   35.2580 C   0  0  0  0  0  0  0  0  0  0  0  0
   35.0300   30.5070   35.0690 C   0  0  0  0  0  0  0  0  0  0  0  0
   35.8260   31.3280   35.8470 C   0  0  0  0  0  0  0  0  0  0  0  0
   35.2150   32.1580   36.7480 N   0  0  0  0  0  0  0  0  0  0  0  0
   33.8860   32.2000   36.8970 C   0  0  0  0  0  0  0  0  0  0  0  0
   33.0930   31.4200   36.1620 N   0  0  0  0  0  0  0  0  0  0  0  0
   33.0630   29.9210   34.6260 H   0  0  0  0  0  0  0  0  0  0  0  0
   36.9170   31.3500   35.7820 H   0  0  0  0  0  0  0  0  0  0  0  0
   33.3940   32.8500   37.6020 H   0  0  0  0  0  0  0  0  0  0  0  0
  1  6  1  0  0  0  0
  1 23  1  0  0  0  0
  2  1  2  0  0  0  0
  3  4  2  0  0  0  0
  3  2  1  0  0  0  0
  4  5  1  0  0  0  0
  5 11  1  0  0  0  0
  5  6  2  0  0  0  0
  7  2  1  0  0  0  0
  8  3  1  0  0  0  0
  9  4  1  0  0  0  0
 10 21  1  0  0  0  0
 11 10  2  0  0  0  0
 12 14  2  0  0  0  0
 12 11  1  0  0  0  0
 13 12  1  0  0  0  0
 14 20  1  0  0  0  0
 15 14  1  0  0  0  0
 15 17  1  0  0  0  0
 16 15  1  0  0  0  0
 17 19  2  0  0  0  0
 18 17  1  0  0  0  0
 20 19  1  0  0  0  0
 20 21  2  0  0  0  0
 22 27  1  0  0  0  0
 23 22  2  0  0  0  0
 23 24  1  0  0  0  0
 24 25  2  0  0  0  0
 25 26  1  0  0  0  0
 26 30  1  0  0  0  0
 27 26  2  0  0  0  0
 28 22  1  0  0  0  0
 29 24  1  0  0  0  0
M  END
>  <minimizedAffinity>
-5.60799694

$$$$

 OpenBabel03262522333D

 30 33  0  0  0  0  0  0  0  0999 V2000
   36.4200   28.4000   33.0770 C   0  0  0  0  0  0  0  0  0  0  0  0
   37.0430   28.4840   31.8620 C   0  0  0  0  0  0  0  0  0  0  0  0
   38.1050   27.6890   31.4770 C   0  0  0  0  0  0  0  0  0  0  0  0
   38.5830   26.7370   32.3690 C   0  0  0  0  0  0  0  0  0  0  0  0
   37.9450   26.6700   33.5790 C   0  0  0  0  0  0  0  0  0  0  0  0
   36.9110   27.4650   33.9170 N   0  0  0  0  0  0  0  0  0  0  0  0
   36.7050   29.2120   31.1350 H   0  0  0  0  0  0  0  0  0  0  0  0
   38.5880   27.7690   30.5080 H   0  0  0  0  0  0  0  0  0  0  0  0
   39.4140   26.1000   32.0970 H   0  0  0  0  0  0  0  0  0  0  0  0
   39.3980   24.8240   34.3320 C   0  0  0  0  0  3  0  0  0  0  0  0
   38.3600   25.7110   34.5950 C   0  0  0  0  0  0  0  0  0  0  0  0
   37.8110   25.5770   35.8490 C   0  0  0  0  0  0  0  0  0  0  0  0
   37.0040   26.2330   36.1170 H   0  0  0  0  0  0  0  0  0  0  0  0
   38.2440   24.6530   36.7670 C   0  0  0  0  0  0  0  0  0  0  0  0
   37.8470   24.3620   38.0310 N   0  0  0  0  0  0  0  0  0  0  0  0
   37.0740   24.8750   38.4990 H   0  0  0  0  0  0  0  0  0  0  0  0
   38.5990   23.3590   38.5100 C   0  0  0  0  0  0  0  0  0  0  0  0
   38.4750   22.9440   39.5040 H   0  0  0  0  0  0  0  0  0  0  0  0
   39.5130   22.9730   37.5450 C   0  0  0  0  0  3  0  0  0  0  0  0
   39.2770   23.7930   36.4620 C   0  0  0  0  0  0  0  0  0  0  0  0
   39.8700   23.8740   35.2230 C   0  0  0  0  0  3  0  0  0  0  0  0
   34.0980   29.3320   32.7430 C   0  0  0  0  0  0  0  0  0  0  0  0
   35.3030   29.2430   33.4720 C   0  0  0  0  0  0  0  0  0  0  0  0
   35.4140   30.0070   34.6200 C   0  0  0  0  0  0  0  0  0  0  0  0
   34.3530   30.7950   34.9790 N   0  0  0  0  0  0  0  0  0  0  0  0
   33.2270   30.8510   34.2590 C   0  0  0  0  0  0  0  0  0  0  0  0
   33.0910   30.1270   33.1480 N   0  0  0  0  0  0  0  0  0  0  0  0
   34.0670   28.7170   31.8580 H   0  0  0  0  0  0  0  0  0  0  0  0
   36.3010   30.0130   35.2570 H   0  0  0  0  0  0  0  0  0  0  0  0
   32.3860   31.4690   34.5320 H   0  0  0  0  0  0  0  0  0  0  0  0
  1 23  1  0  0  0  0
  1  6  1  0  0  0  0
  2  1  2  0  0  0  0
  3  2  1  0  0  0  0
  3  4  2  0  0  0  0
  4  5  1  0  0  0  0
  5  6  2  0  0  0  0
  5 11  1  0  0  0  0
  7  2  1  0  0  0  0
  8  3  1  0  0  0  0
  9  4  1  0  0  0  0
 10 11  2  0  0  0  0
 10 21  1  0  0  0  0
 11 12  1  0  0  0  0
 12 13  1  0  0  0  0
 12 14  2  0  0  0  0
 14 15  1  0  0  0  0
 15 16  1  0  0  0  0
 15 17  1  0  0  0  0
 17 18  1  0  0  0  0
 19 17  2  0  0  0  0
 20 14  1  0  0  0  0
 20 19  1  0  0  0  0
 21 20  2  0  0  0  0
 22 27  2  0  0  0  0
 22 23  1  0  0  0  0
 23 24  2  0  0  0  0
 24 25  1  0  0  0  0
 24 29  1  0  0  0  0
 26 30  1  0  0  0  0
 26 25  2  0  0  0  0
 27 26  1  0  0  0  0
 28 22  1  0  0  0  0
M  END
>  <minimizedAffinity>
-5.56276751

$$$$

 OpenBabel03262522333D

 30 33  0  0  0  0  0  0  0  0999 V2000
   38.1860   24.5400   34.6670 C   0  0  0  0  0  0  0  0  0  0  0  0
   38.5140   23.7820   33.5760 C   0  0  0  0  0  0  0  0  0  0  0  0
   38.2970   24.1700   32.2680 C   0  0  0  0  0  0  0  0  0  0  0  0
   37.7090   25.4060   32.0280 C   0  0  0  0  0  0  0  0  0  0  0  0
   37.3900   26.1470   33.1350 C   0  0  0  0  0  0  0  0  0  0  0  0
   37.6170   25.7320   34.3960 N   0  0  0  0  0  0  0  0  0  0  0  0
   38.9740   22.8120   33.7160 H   0  0  0  0  0  0  0  0  0  0  0  0
   38.5640   23.5560   31.4140 H   0  0  0  0  0  0  0  0  0  0  0  0
   37.5260   25.7370   31.0140 H   0  0  0  0  0  0  0  0  0  0  0  0
   36.3990   28.1700   34.1420 C   0  0  0  0  0  3  0  0  0  0  0  0
   36.7680   27.4590   33.0050 C   0  0  0  0  0  0  0  0  0  0  0  0
   36.4910   28.1060   31.8230 C   0  0  0  0  0  0  0  0  0  0  0  0
   36.7520   27.6110   30.9060 H   0  0  0  0  0  0  0  0  0  0  0  0
   35.9030   29.3450   31.7620 C   0  0  0  0  0  0  0  0  0  0  0  0
   35.5500   30.1410   30.7220 N   0  0  0  0  0  0  0  0  0  0  0  0
   35.7100   29.8620   29.7330 H   0  0  0  0  0  0  0  0  0  0  0  0
   35.0000   31.2700   31.1950 C   0  0  0  0  0  0  0  0  0  0  0  0
   34.6370   32.0680   30.5590 H   0  0  0  0  0  0  0  0  0  0  0  0
   34.9850   31.2240   32.5790 C   0  0  0  0  0  3  0  0  0  0  0  0
   35.5540   30.0130   32.9160 C   0  0  0  0  0  0  0  0  0  0  0  0
   35.8030   29.4210   34.1320 C   0  0  0  0  0  3  0  0  0  0  0  0
   37.6170   24.5310   37.1270 C   0  0  0  0  0  0  0  0  0  0  0  0
   38.4190   24.1210   36.0410 C   0  0  0  0  0  0  0  0  0  0  0  0
   39.4800   23.2750   36.3120 C   0  0  0  0  0  0  0  0  0  0  0  0
   39.6850   22.8890   37.6090 N   0  0  0  0  0  0  0  0  0  0  0  0
   38.9020   23.3010   38.6120 C   0  0  0  0  0  0  0  0  0  0  0  0
   37.8720   24.1160   38.3820 N   0  0  0  0  0  0  0  0  0  0  0  0
   36.8060   25.1890   36.8590 H   0  0  0  0  0  0  0  0  0  0  0  0
   40.1610   22.8980   35.5460 H   0  0  0  0  0  0  0  0  0  0  0  0
   39.0540   23.0040   39.6370 H   0  0  0  0  0  0  0  0  0  0  0  0
  1 23  1  0  0  0  0
  2  7  1  0  0  0  0
  2  1  2  0  0  0  0
  3  2  1  0  0  0  0
  4  3  2  0  0  0  0
  4  5  1  0  0  0  0
  5  6  2  0  0  0  0
  6  1  1  0  0  0  0
  8  3  1  0  0  0  0
  9  4  1  0  0  0  0
 11  5  1  0  0  0  0
 11 10  2  0  0  0  0
 12 11  1  0  0  0  0
 13 12  1  0  0  0  0
 14 12  2  0  0  0  0
 14 20  1  0  0  0  0
 15 17  1  0  0  0  0
 15 14  1  0  0  0  0
 16 15  1  0  0  0  0
 17 19  2  0  0  0  0
 18 17  1  0  0  0  0
 19 20  1  0  0  0  0
 20 21  2  0  0  0  0
 21 10  1  0  0  0  0
 22 27  1  0  0  0  0
 23 24  1  0  0  0  0
 23 22  2  0  0  0  0
 24 25  2  0  0  0  0
 25 26  1  0  0  0  0
 26 30  1  0  0  0  0
 27 26  2  0  0  0  0
 28 22  1  0  0  0  0
 29 24  1  0  0  0  0
M  END
>  <minimizedAffinity>
-5.54877234

$$$$

 OpenBabel03262522333D

 30 33  0  0  0  0  0  0  0  0999 V2000
   37.5670   27.9800   31.6970 C   0  0  0  0  0  0  0  0  0  0  0  0
   36.6060   28.8460   32.1420 C   0  0  0  0  0  0  0  0  0  0  0  0
   36.0710   28.8240   33.4160 C   0  0  0  0  0  0  0  0  0  0  0  0
   36.5280   27.8690   34.3150 C   0  0  0  0  0  0  0  0  0  0  0  0
   37.4900   27.0130   33.8470 C   0  0  0  0  0  0  0  0  0  0  0  0
   37.9860   27.0660   32.5960 N   0  0  0  0  0  0  0  0  0  0  0  0
   36.2200   29.6070   31.4750 H   0  0  0  0  0  0  0  0  0  0  0  0
   35.3090   29.5200   33.7520 H   0  0  0  0  0  0  0  0  0  0  0  0
   36.1280   27.8270   35.3190 H   0  0  0  0  0  0  0  0  0  0  0  0
   39.0290   25.1180   34.2100 C   0  0  0  0  0  3  0  0  0  0  0  0
   38.0440   25.9690   34.7010 C   0  0  0  0  0  0  0  0  0  0  0  0
   37.6840   25.7190   36.0050 C   0  0  0  0  0  0  0  0  0  0  0  0
   36.9280   26.3420   36.4450 H   0  0  0  0  0  0  0  0  0  0  0  0
   38.2420   24.7190   36.7620 C   0  0  0  0  0  0  0  0  0  0  0  0
   38.0330   24.3130   38.0390 N   0  0  0  0  0  0  0  0  0  0  0  0
   37.3390   24.7760   38.6600 H   0  0  0  0  0  0  0  0  0  0  0  0
   38.8410   23.2770   38.3110 C   0  0  0  0  0  0  0  0  0  0  0  0
   38.8630   22.7730   39.2710 H   0  0  0  0  0  0  0  0  0  0  0  0
   39.6030   22.9870   37.1920 C   0  0  0  0  0  3  0  0  0  0  0  0
   39.2150   23.8990   36.2330 C   0  0  0  0  0  0  0  0  0  0  0  0
   39.6210   24.0960   34.9340 C   0  0  0  0  0  3  0  0  0  0  0  0
   37.6880   28.9070   29.3510 C   0  0  0  0  0  0  0  0  0  0  0  0
   38.1220   28.0110   30.3520 C   0  0  0  0  0  0  0  0  0  0  0  0
   39.1280   27.1210   30.0230 C   0  0  0  0  0  0  0  0  0  0  0  0
   39.6410   27.1640   28.7540 N   0  0  0  0  0  0  0  0  0  0  0  0
   39.2020   28.0290   27.8330 C   0  0  0  0  0  0  0  0  0  0  0  0
   38.2330   28.8990   28.1210 N   0  0  0  0  0  0  0  0  0  0  0  0
   36.9030   29.5760   29.6620 H   0  0  0  0  0  0  0  0  0  0  0  0
   39.5370   26.3870   30.7210 H   0  0  0  0  0  0  0  0  0  0  0  0
   39.5970   28.0710   26.8300 H   0  0  0  0  0  0  0  0  0  0  0  0
  1  2  2  0  0  0  0
  1  6  1  0  0  0  0
  2  3  1  0  0  0  0
  3  8  1  0  0  0  0
  3  4  2  0  0  0  0
  4  9  1  0  0  0  0
  5  4  1  0  0  0  0
  5 11  1  0  0  0  0
  6  5  2  0  0  0  0
  7  2  1  0  0  0  0
 10 11  2  0  0  0  0
 10 21  1  0  0  0  0
 11 12  1  0  0  0  0
 12 13  1  0  0  0  0
 12 14  2  0  0  0  0
 14 15  1  0  0  0  0
 15 17  1  0  0  0  0
 15 16  1  0  0  0  0
 17 18  1  0  0  0  0
 19 17  2  0  0  0  0
 20 14  1  0  0  0  0
 20 19  1  0  0  0  0
 21 20  2  0  0  0  0
 22 28  1  0  0  0  0
 22 23  1  0  0  0  0
 23  1  1  0  0  0  0
 24 23  2  0  0  0  0
 24 29  1  0  0  0  0
 25 24  1  0  0  0  0
 26 27  1  0  0  0  0
 26 25  2  0  0  0  0
 27 22  2  0  0  0  0
 30 26  1  0  0  0  0
M  END
>  <minimizedAffinity>
-5.54228878

$$$$

 OpenBabel03262522333D

 30 33  0  0  0  0  0  0  0  0999 V2000
   36.2600   27.5570   31.4760 C   0  0  0  0  0  0  0  0  0  0  0  0
   36.7080   28.3330   30.4420 C   0  0  0  0  0  0  0  0  0  0  0  0
   36.6650   29.7140   30.4330 C   0  0  0  0  0  0  0  0  0  0  0  0
   36.1350   30.3720   31.5360 C   0  0  0  0  0  0  0  0  0  0  0  0
   35.6920   29.5750   32.5580 C   0  0  0  0  0  0  0  0  0  0  0  0
   35.7520   28.2290   32.5290 N   0  0  0  0  0  0  0  0  0  0  0  0
   37.1290   27.8630   29.5620 H   0  0  0  0  0  0  0  0  0  0  0  0
   37.0250   30.3150   29.6040 H   0  0  0  0  0  0  0  0  0  0  0  0
   36.0870   31.4520   31.5570 H   0  0  0  0  0  0  0  0  0  0  0  0
   35.8080   31.1360   34.4650 C   0  0  0  0  0  3  0  0  0  0  0  0
   35.1170   30.1540   33.7660 C   0  0  0  0  0  0  0  0  0  0  0  0
   33.9020   29.8190   34.3190 C   0  0  0  0  0  0  0  0  0  0  0  0
   33.3160   29.0660   33.8270 H   0  0  0  0  0  0  0  0  0  0  0  0
   33.4100   30.4000   35.4610 C   0  0  0  0  0  0  0  0  0  0  0  0
   32.2610   30.2170   36.1590 N   0  0  0  0  0  0  0  0  0  0  0  0
   31.5380   29.5310   35.8640 H   0  0  0  0  0  0  0  0  0  0  0  0
   32.2520   31.0400   37.2190 C   0  0  0  0  0  0  0  0  0  0  0  0
   31.4380   31.0830   37.9340 H   0  0  0  0  0  0  0  0  0  0  0  0
   33.4200   31.7840   37.2290 C   0  0  0  0  0  3  0  0  0  0  0  0
   34.1320   31.3700   36.1220 C   0  0  0  0  0  0  0  0  0  0  0  0
   35.3550   31.7510   35.6210 C   0  0  0  0  0  3  0  0  0  0  0  0
   37.4470   25.3620   31.8640 C   0  0  0  0  0  0  0  0  0  0  0  0
   36.3110   26.1030   31.4740 C   0  0  0  0  0  0  0  0  0  0  0  0
   35.1930   25.3950   31.0700 C   0  0  0  0  0  0  0  0  0  0  0  0
   35.2560   24.0270   31.0740 N   0  0  0  0  0  0  0  0  0  0  0  0
   36.3530   23.3620   31.4510 C   0  0  0  0  0  0  0  0  0  0  0  0
   37.4450   24.0160   31.8460 N   0  0  0  0  0  0  0  0  0  0  0  0
   38.2870   25.9640   32.1680 H   0  0  0  0  0  0  0  0  0  0  0  0
   34.2630   25.8680   30.7480 H   0  0  0  0  0  0  0  0  0  0  0  0
   36.4150   22.2860   31.4580 H   0  0  0  0  0  0  0  0  0  0  0  0
  1  6  1  0  0  0  0
  2  1  2  0  0  0  0
  3  2  1  0  0  0  0
  3  4  2  0  0  0  0
  4  9  1  0  0  0  0
  4  5  1  0  0  0  0
  5 11  1  0  0  0  0
  6  5  2  0  0  0  0
  7  2  1  0  0  0  0
  8  3  1  0  0  0  0
 10 21  1  0  0  0  0
 11 12  1  0  0  0  0
 11 10  2  0  0  0  0
 12 14  2  0  0  0  0
 13 12  1  0  0  0  0
 14 20  1  0  0  0  0
 14 15  1  0  0  0  0
 15 17  1  0  0  0  0
 16 15  1  0  0  0  0
 17 19  2  0  0  0  0
 17 18  1  0  0  0  0
 20 19  1  0  0  0  0
 21 20  2  0  0  0  0
 22 28  1  0  0  0  0
 23  1  1  0  0  0  0
 23 22  2  0  0  0  0
 24 25  2  0  0  0  0
 24 23  1  0  0  0  0
 25 26  1  0  0  0  0
 26 30  1  0  0  0  0
 26 27  2  0  0  0  0
 27 22  1  0  0  0  0
 29 24  1  0  0  0  0
M  END
>  <minimizedAffinity>
-5.5309329

$$$$
