
 OpenBabel03272509253D

 27 29  0  0  0  0  0  0  0  0999 V2000
   37.7800   25.1210   36.0630 C   0  0  0  0  0  0  0  0  0  0  0  0
   37.1240   24.7230   35.2650 H   0  0  0  0  0  0  0  0  0  0  0  0
   37.3640   25.1110   37.0690 H   0  0  0  0  0  0  0  0  0  0  0  0
   40.1310   24.6200   35.2150 C   0  0  0  0  0  3  0  0  0  0  0  0
   39.0770   24.3460   36.0750 C   0  0  0  0  0  0  0  0  0  0  0  0
   39.2360   23.3110   36.9810 C   0  0  0  0  0  0  0  0  0  0  0  0
   38.4080   23.1120   37.6430 H   0  0  0  0  0  0  0  0  0  0  0  0
   40.3940   22.5600   37.0500 C   0  0  0  0  0  0  0  0  0  0  0  0
   40.7890   21.5280   37.8190 N   0  0  0  0  0  0  0  0  0  0  0  0
   40.1410   21.1400   38.5580 H   0  0  0  0  0  0  0  0  0  0  0  0
   42.0230   21.1510   37.4830 C   0  0  0  0  0  0  0  0  0  0  0  0
   42.5100   20.3350   37.9930 H   0  0  0  0  0  0  0  0  0  0  0  0
   42.4590   21.9600   36.4580 C   0  0  0  0  0  3  0  0  0  0  0  0
   41.4290   22.8480   36.1850 C   0  0  0  0  0  0  0  0  0  0  0  0
   41.2860   23.8780   35.2750 C   0  0  0  0  0  3  0  0  0  0  0  0
   38.1870   26.5370   35.6890 C   0  0  0  0  0  0  0  0  0  0  0  0
   39.2570   26.5210   35.3430 H   0  0  0  0  0  0  0  0  0  0  0  0
   38.0520   27.2320   36.5330 H   0  0  0  0  0  0  0  0  0  0  0  0
   35.9500   28.5620   33.3930 C   0  0  0  0  0  0  0  0  0  0  0  0
   36.6830   28.2070   34.5450 C   0  0  0  0  0  0  0  0  0  0  0  0
   37.3810   27.0130   34.5380 C   0  0  0  0  0  0  0  0  0  0  0  0
   37.3360   26.2220   33.4160 N   0  0  0  0  0  0  0  0  0  0  0  0
   36.6190   26.5980   32.3290 C   0  0  0  0  0  0  0  0  0  0  0  0
   35.9290   27.7560   32.3080 N   0  0  0  0  0  0  0  0  0  0  0  0
   35.4280   29.5020   33.4620 H   0  0  0  0  0  0  0  0  0  0  0  0
   36.6900   28.8560   35.4020 H   0  0  0  0  0  0  0  0  0  0  0  0
   36.6300   25.9220   31.4790 H   0  0  0  0  0  0  0  0  0  0  0  0
  1  5  1  0  0  0  0
  1  3  1  0  0  0  0
  2  1  1  0  0  0  0
  4 15  2  0  0  0  0
  4  5  1  0  0  0  0
  5  6  2  0  0  0  0
  6  8  1  0  0  0  0
  6  7  1  0  0  0  0
  8  9  1  0  0  0  0
  9 10  1  0  0  0  0
 11  9  1  0  0  0  0
 11 12  1  0  0  0  0
 13 11  2  0  0  0  0
 14 13  1  0  0  0  0
 14  8  2  0  0  0  0
 15 14  1  0  0  0  0
 16  1  1  0  0  0  0
 16 18  1  0  0  0  0
 17 16  1  0  0  0  0
 19 25  1  0  0  0  0
 19 20  1  0  0  0  0
 20 26  1  0  0  0  0
 21 20  2  0  0  0  0
 21 16  1  0  0  0  0
 22 21  1  0  0  0  0
 23 22  2  0  0  0  0
 24 23  1  0  0  0  0
 24 19  2  0  0  0  0
 27 23  1  0  0  0  0
M  END
>  <minimizedAffinity>
-5.03672361

$$$$

 OpenBabel03272509253D

 27 29  0  0  0  0  0  0  0  0999 V2000
   37.8270   26.7710   35.5200 C   0  0  0  0  0  0  0  0  0  0  0  0
   38.8310   27.1610   35.7810 H   0  0  0  0  0  0  0  0  0  0  0  0
   37.0830   26.8070   36.3140 H   0  0  0  0  0  0  0  0  0  0  0  0
   36.2800   28.4770   34.4280 C   0  0  0  0  0  3  0  0  0  0  0  0
   37.2910   27.5320   34.3300 C   0  0  0  0  0  0  0  0  0  0  0  0
   37.8250   27.2860   33.0760 C   0  0  0  0  0  0  0  0  0  0  0  0
   38.6110   26.5490   33.0170 H   0  0  0  0  0  0  0  0  0  0  0  0
   37.3860   27.9440   31.9420 C   0  0  0  0  0  0  0  0  0  0  0  0
   37.7300   27.8880   30.6420 N   0  0  0  0  0  0  0  0  0  0  0  0
   38.4900   27.2280   30.3240 H   0  0  0  0  0  0  0  0  0  0  0  0
   36.9900   28.7430   29.9340 C   0  0  0  0  0  0  0  0  0  0  0  0
   37.1230   28.8380   28.8690 H   0  0  0  0  0  0  0  0  0  0  0  0
   36.1280   29.3850   30.7950 C   0  0  0  0  0  3  0  0  0  0  0  0
   36.3790   28.8790   32.0620 C   0  0  0  0  0  0  0  0  0  0  0  0
   35.8350   29.1370   33.3070 C   0  0  0  0  0  3  0  0  0  0  0  0
   37.9800   25.3440   35.0210 C   0  0  0  0  0  0  0  0  0  0  0  0
   38.7340   25.3370   34.1860 H   0  0  0  0  0  0  0  0  0  0  0  0
   37.0160   24.9270   34.6890 H   0  0  0  0  0  0  0  0  0  0  0  0
   38.5790   23.5290   38.2950 C   0  0  0  0  0  0  0  0  0  0  0  0
   37.9670   24.3800   37.3510 C   0  0  0  0  0  0  0  0  0  0  0  0
   38.5350   24.4840   36.0940 C   0  0  0  0  0  0  0  0  0  0  0  0
   39.6680   23.7590   35.8130 N   0  0  0  0  0  0  0  0  0  0  0  0
   40.2270   22.9530   36.7490 C   0  0  0  0  0  0  0  0  0  0  0  0
   39.6940   22.8320   37.9820 N   0  0  0  0  0  0  0  0  0  0  0  0
   38.0890   23.4930   39.2550 H   0  0  0  0  0  0  0  0  0  0  0  0
   37.0820   24.9290   37.6130 H   0  0  0  0  0  0  0  0  0  0  0  0
   41.1200   22.4110   36.4550 H   0  0  0  0  0  0  0  0  0  0  0  0
  1  2  1  0  0  0  0
  1  3  1  0  0  0  0
  5  4  1  0  0  0  0
  5  1  1  0  0  0  0
  6  5  2  0  0  0  0
  7  6  1  0  0  0  0
  8 14  2  0  0  0  0
  8  6  1  0  0  0  0
  9  8  1  0  0  0  0
 10  9  1  0  0  0  0
 11  9  1  0  0  0  0
 11 13  2  0  0  0  0
 12 11  1  0  0  0  0
 13 14  1  0  0  0  0
 14 15  1  0  0  0  0
 15  4  2  0  0  0  0
 16  1  1  0  0  0  0
 16 21  1  0  0  0  0
 17 16  1  0  0  0  0
 18 16  1  0  0  0  0
 19 25  1  0  0  0  0
 20 26  1  0  0  0  0
 20 19  2  0  0  0  0
 21 20  1  0  0  0  0
 22 21  2  0  0  0  0
 22 23  1  0  0  0  0
 23 24  2  0  0  0  0
 24 19  1  0  0  0  0
 27 23  1  0  0  0  0
M  END
>  <minimizedAffinity>
-4.99652815

$$$$

 OpenBabel03272509253D

 27 29  0  0  0  0  0  0  0  0999 V2000
   37.4300   26.0320   35.6850 C   0  0  0  0  0  0  0  0  0  0  0  0
   36.4510   25.6220   35.3680 H   0  0  0  0  0  0  0  0  0  0  0  0
   37.3920   26.8580   36.3940 H   0  0  0  0  0  0  0  0  0  0  0  0
   38.0270   24.4020   37.5510 C   0  0  0  0  0  3  0  0  0  0  0  0
   38.2630   24.9250   36.2880 C   0  0  0  0  0  0  0  0  0  0  0  0
   39.3140   24.3970   35.5560 C   0  0  0  0  0  0  0  0  0  0  0  0
   39.4830   24.8140   34.5760 H   0  0  0  0  0  0  0  0  0  0  0  0
   40.1170   23.3820   36.0420 C   0  0  0  0  0  0  0  0  0  0  0  0
   41.1740   22.7130   35.5450 N   0  0  0  0  0  0  0  0  0  0  0  0
   41.5390   22.9430   34.5810 H   0  0  0  0  0  0  0  0  0  0  0  0
   41.6020   21.8100   36.4270 C   0  0  0  0  0  0  0  0  0  0  0  0
   42.4440   21.1750   36.2030 H   0  0  0  0  0  0  0  0  0  0  0  0
   40.8030   21.8830   37.5450 C   0  0  0  0  0  3  0  0  0  0  0  0
   39.8660   22.8770   37.3010 C   0  0  0  0  0  0  0  0  0  0  0  0
   38.8210   23.3940   38.0440 C   0  0  0  0  0  3  0  0  0  0  0  0
   38.1990   26.4540   34.4440 C   0  0  0  0  0  0  0  0  0  0  0  0
   38.9950   25.6860   34.2390 H   0  0  0  0  0  0  0  0  0  0  0  0
   38.6380   27.4580   34.5620 H   0  0  0  0  0  0  0  0  0  0  0  0
   35.8990   27.4870   31.6130 C   0  0  0  0  0  0  0  0  0  0  0  0
   36.7360   27.6030   32.7430 C   0  0  0  0  0  0  0  0  0  0  0  0
   37.3030   26.4540   33.2620 C   0  0  0  0  0  0  0  0  0  0  0  0
   37.0320   25.2480   32.6630 N   0  0  0  0  0  0  0  0  0  0  0  0
   36.2220   25.1780   31.5790 C   0  0  0  0  0  0  0  0  0  0  0  0
   35.6560   26.2820   31.0510 N   0  0  0  0  0  0  0  0  0  0  0  0
   35.4880   28.4180   31.2580 H   0  0  0  0  0  0  0  0  0  0  0  0
   36.9210   28.5670   33.1810 H   0  0  0  0  0  0  0  0  0  0  0  0
   36.0530   24.1910   31.1580 H   0  0  0  0  0  0  0  0  0  0  0  0
  1  5  1  0  0  0  0
  1  3  1  0  0  0  0
  2  1  1  0  0  0  0
  4 15  1  0  0  0  0
  5  4  2  0  0  0  0
  6  8  2  0  0  0  0
  6  5  1  0  0  0  0
  7  6  1  0  0  0  0
  8 14  1  0  0  0  0
  9  8  1  0  0  0  0
  9 11  1  0  0  0  0
 10  9  1  0  0  0  0
 11 13  2  0  0  0  0
 12 11  1  0  0  0  0
 14 13  1  0  0  0  0
 14 15  2  0  0  0  0
 16 18  1  0  0  0  0
 16  1  1  0  0  0  0
 17 16  1  0  0  0  0
 19 20  1  0  0  0  0
 20 26  1  0  0  0  0
 20 21  2  0  0  0  0
 21 16  1  0  0  0  0
 22 21  1  0  0  0  0
 23 22  2  0  0  0  0
 24 23  1  0  0  0  0
 24 19  2  0  0  0  0
 25 19  1  0  0  0  0
 27 23  1  0  0  0  0
M  END
>  <minimizedAffinity>
-4.88337755

$$$$

 OpenBabel03272509253D

 27 29  0  0  0  0  0  0  0  0999 V2000
   38.6900   26.4030   34.8100 C   0  0  0  0  0  0  0  0  0  0  0  0
   39.2640   25.6940   34.1810 H   0  0  0  0  0  0  0  0  0  0  0  0
   39.2820   27.0500   35.4560 H   0  0  0  0  0  0  0  0  0  0  0  0
   38.0630   27.4310   32.5640 C   0  0  0  0  0  3  0  0  0  0  0  0
   37.8310   27.2730   33.9220 C   0  0  0  0  0  0  0  0  0  0  0  0
   36.7570   27.9490   34.4770 C   0  0  0  0  0  0  0  0  0  0  0  0
   36.5900   27.8150   35.5340 H   0  0  0  0  0  0  0  0  0  0  0  0
   35.9270   28.7610   33.7270 C   0  0  0  0  0  0  0  0  0  0  0  0
   34.8450   29.5080   34.0180 N   0  0  0  0  0  0  0  0  0  0  0  0
   34.4770   29.5430   35.0070 H   0  0  0  0  0  0  0  0  0  0  0  0
   34.3990   30.1170   32.9190 C   0  0  0  0  0  0  0  0  0  0  0  0
   33.5350   30.7610   32.9560 H   0  0  0  0  0  0  0  0  0  0  0  0
   35.2110   29.7610   31.8660 C   0  0  0  0  0  3  0  0  0  0  0  0
   36.1760   28.9050   32.3780 C   0  0  0  0  0  0  0  0  0  0  0  0
   37.2430   28.2370   31.8090 C   0  0  0  0  0  3  0  0  0  0  0  0
   37.6970   25.6120   35.6450 C   0  0  0  0  0  0  0  0  0  0  0  0
   37.0350   25.0250   34.9500 H   0  0  0  0  0  0  0  0  0  0  0  0
   37.1020   26.2720   36.2970 H   0  0  0  0  0  0  0  0  0  0  0  0
   38.7870   23.3510   38.4860 C   0  0  0  0  0  0  0  0  0  0  0  0
   38.0370   24.3150   37.7800 C   0  0  0  0  0  0  0  0  0  0  0  0
   38.4100   24.6190   36.4830 C   0  0  0  0  0  0  0  0  0  0  0  0
   39.4930   23.9750   35.9340 N   0  0  0  0  0  0  0  0  0  0  0  0
   40.1890   23.0550   36.6460 C   0  0  0  0  0  0  0  0  0  0  0  0
   39.8470   22.7390   37.9110 N   0  0  0  0  0  0  0  0  0  0  0  0
   38.4460   23.1600   39.4900 H   0  0  0  0  0  0  0  0  0  0  0  0
   37.1970   24.7950   38.2480 H   0  0  0  0  0  0  0  0  0  0  0  0
   41.0320   22.5880   36.1470 H   0  0  0  0  0  0  0  0  0  0  0  0
  1  3  1  0  0  0  0
  1 16  1  0  0  0  0
  2  1  1  0  0  0  0
  4  5  1  0  0  0  0
  5  6  2  0  0  0  0
  5  1  1  0  0  0  0
  6  7  1  0  0  0  0
  8  9  1  0  0  0  0
  8  6  1  0  0  0  0
  9 10  1  0  0  0  0
 11 12  1  0  0  0  0
 11  9  1  0  0  0  0
 13 14  1  0  0  0  0
 13 11  2  0  0  0  0
 14  8  2  0  0  0  0
 15 14  1  0  0  0  0
 15  4  2  0  0  0  0
 16 18  1  0  0  0  0
 16 21  1  0  0  0  0
 17 16  1  0  0  0  0
 19 25  1  0  0  0  0
 20 26  1  0  0  0  0
 20 19  2  0  0  0  0
 21 20  1  0  0  0  0
 22 21  2  0  0  0  0
 22 23  1  0  0  0  0
 23 24  2  0  0  0  0
 24 19  1  0  0  0  0
 27 23  1  0  0  0  0
M  END
>  <minimizedAffinity>
-4.8729167

$$$$

 OpenBabel03272509253D

 27 29  0  0  0  0  0  0  0  0999 V2000
   38.5170   27.0150   35.8580 C   0  0  0  0  0  0  0  0  0  0  0  0
   39.2600   26.9290   36.6750 H   0  0  0  0  0  0  0  0  0  0  0  0
   37.8330   27.8590   35.9250 H   0  0  0  0  0  0  0  0  0  0  0  0
   40.6220   27.1100   34.4250 C   0  0  0  0  0  3  0  0  0  0  0  0
   39.2390   27.0890   34.5330 C   0  0  0  0  0  0  0  0  0  0  0  0
   38.4980   27.1400   33.3640 C   0  0  0  0  0  0  0  0  0  0  0  0
   37.4250   27.1220   33.4660 H   0  0  0  0  0  0  0  0  0  0  0  0
   39.0900   27.2080   32.1170 C   0  0  0  0  0  0  0  0  0  0  0  0
   38.6090   27.2660   30.8610 N   0  0  0  0  0  0  0  0  0  0  0  0
   37.5660   27.2630   30.6930 H   0  0  0  0  0  0  0  0  0  0  0  0
   39.6140   27.3210   29.9860 C   0  0  0  0  0  0  0  0  0  0  0  0
   39.4220   27.3720   28.9260 H   0  0  0  0  0  0  0  0  0  0  0  0
   40.7990   27.2990   30.6860 C   0  0  0  0  0  3  0  0  0  0  0  0
   40.4670   27.2280   32.0310 C   0  0  0  0  0  0  0  0  0  0  0  0
   41.2200   27.1790   33.1890 C   0  0  0  0  0  3  0  0  0  0  0  0
   37.7280   25.7170   35.7890 C   0  0  0  0  0  0  0  0  0  0  0  0
   37.7330   25.3530   34.7250 H   0  0  0  0  0  0  0  0  0  0  0  0
   36.6980   25.8510   36.1580 H   0  0  0  0  0  0  0  0  0  0  0  0
   38.7320   23.3340   38.5610 C   0  0  0  0  0  0  0  0  0  0  0  0
   38.0250   24.3530   37.8880 C   0  0  0  0  0  0  0  0  0  0  0  0
   38.3980   24.6680   36.5940 C   0  0  0  0  0  0  0  0  0  0  0  0
   39.4370   23.9810   36.0150 N   0  0  0  0  0  0  0  0  0  0  0  0
   40.0920   23.0080   36.6950 C   0  0  0  0  0  0  0  0  0  0  0  0
   39.7490   22.6800   37.9570 N   0  0  0  0  0  0  0  0  0  0  0  0
   38.3930   23.1370   39.5660 H   0  0  0  0  0  0  0  0  0  0  0  0
   37.2180   24.8650   38.3790 H   0  0  0  0  0  0  0  0  0  0  0  0
   40.9020   22.5090   36.1740 H   0  0  0  0  0  0  0  0  0  0  0  0
  1  3  1  0  0  0  0
  1  2  1  0  0  0  0
  4  5  1  0  0  0  0
  5  1  1  0  0  0  0
  6  7  1  0  0  0  0
  6  5  2  0  0  0  0
  8  6  1  0  0  0  0
  9  8  1  0  0  0  0
 10  9  1  0  0  0  0
 11 13  2  0  0  0  0
 11  9  1  0  0  0  0
 12 11  1  0  0  0  0
 13 14  1  0  0  0  0
 14  8  2  0  0  0  0
 14 15  1  0  0  0  0
 15  4  2  0  0  0  0
 16  1  1  0  0  0  0
 16 18  1  0  0  0  0
 16 21  1  0  0  0  0
 17 16  1  0  0  0  0
 19 25  1  0  0  0  0
 20 26  1  0  0  0  0
 20 19  2  0  0  0  0
 21 20  1  0  0  0  0
 22 21  2  0  0  0  0
 22 23  1  0  0  0  0
 23 24  2  0  0  0  0
 24 19  1  0  0  0  0
 27 23  1  0  0  0  0
M  END
>  <minimizedAffinity>
-4.86782265

$$$$

 OpenBabel03272509253D

 27 29  0  0  0  0  0  0  0  0999 V2000
   38.1530   23.7660   32.4480 C   0  0  0  0  0  0  0  0  0  0  0  0
   38.6250   24.6010   31.8940 H   0  0  0  0  0  0  0  0  0  0  0  0
   38.6320   22.7940   32.3410 H   0  0  0  0  0  0  0  0  0  0  0  0
   37.8790   25.3990   34.3850 C   0  0  0  0  0  3  0  0  0  0  0  0
   38.0960   24.1110   33.9170 C   0  0  0  0  0  0  0  0  0  0  0  0
   38.2680   23.1050   34.8540 C   0  0  0  0  0  0  0  0  0  0  0  0
   38.4360   22.1100   34.4740 H   0  0  0  0  0  0  0  0  0  0  0  0
   38.2290   23.3460   36.2140 C   0  0  0  0  0  0  0  0  0  0  0  0
   38.3630   22.5650   37.3020 N   0  0  0  0  0  0  0  0  0  0  0  0
   38.5390   21.5290   37.1910 H   0  0  0  0  0  0  0  0  0  0  0  0
   38.2410   23.2960   38.4110 C   0  0  0  0  0  0  0  0  0  0  0  0
   38.3200   22.8400   39.3850 H   0  0  0  0  0  0  0  0  0  0  0  0
   38.0190   24.6040   38.0450 C   0  0  0  0  0  3  0  0  0  0  0  0
   38.0120   24.6350   36.6570 C   0  0  0  0  0  0  0  0  0  0  0  0
   37.8380   25.6500   35.7360 C   0  0  0  0  0  3  0  0  0  0  0  0
   36.6960   23.6710   32.0240 C   0  0  0  0  0  0  0  0  0  0  0  0
   36.5740   24.2100   31.0440 H   0  0  0  0  0  0  0  0  0  0  0  0
   36.0240   24.0850   32.7930 H   0  0  0  0  0  0  0  0  0  0  0  0
   36.6500   20.0730   30.8300 C   0  0  0  0  0  0  0  0  0  0  0  0
   37.0950   21.4000   31.0030 C   0  0  0  0  0  0  0  0  0  0  0  0
   36.3280   22.2560   31.7710 C   0  0  0  0  0  0  0  0  0  0  0  0
   35.1670   21.7860   32.3350 N   0  0  0  0  0  0  0  0  0  0  0  0
   34.7720   20.5030   32.1450 C   0  0  0  0  0  0  0  0  0  0  0  0
   35.5010   19.6460   31.4010 N   0  0  0  0  0  0  0  0  0  0  0  0
   37.2910   19.4560   30.2210 H   0  0  0  0  0  0  0  0  0  0  0  0
   38.0100   21.7270   30.5440 H   0  0  0  0  0  0  0  0  0  0  0  0
   33.8440   20.2020   32.6210 H   0  0  0  0  0  0  0  0  0  0  0  0
  1  5  1  0  0  0  0
  2  1  1  0  0  0  0
  3  1  1  0  0  0  0
  4 15  1  0  0  0  0
  5  4  2  0  0  0  0
  5  6  1  0  0  0  0
  6  8  2  0  0  0  0
  7  6  1  0  0  0  0
  8 14  1  0  0  0  0
  8  9  1  0  0  0  0
  9 11  1  0  0  0  0
 10  9  1  0  0  0  0
 11 12  1  0  0  0  0
 13 11  2  0  0  0  0
 14 13  1  0  0  0  0
 15 14  2  0  0  0  0
 16  1  1  0  0  0  0
 16 18  1  0  0  0  0
 17 16  1  0  0  0  0
 19 20  2  0  0  0  0
 19 24  1  0  0  0  0
 20 21  1  0  0  0  0
 21 16  1  0  0  0  0
 21 22  2  0  0  0  0
 23 22  1  0  0  0  0
 23 27  1  0  0  0  0
 24 23  2  0  0  0  0
 25 19  1  0  0  0  0
 26 20  1  0  0  0  0
M  END
>  <minimizedAffinity>
-4.72541237

$$$$

 OpenBabel03272509253D

 27 29  0  0  0  0  0  0  0  0999 V2000
   38.8150   23.7270   33.5830 C   0  0  0  0  0  0  0  0  0  0  0  0
   39.5150   23.0280   34.0810 H   0  0  0  0  0  0  0  0  0  0  0  0
   39.2360   24.3290   32.7790 H   0  0  0  0  0  0  0  0  0  0  0  0
   36.7350   23.4850   32.1300 C   0  0  0  0  0  3  0  0  0  0  0  0
   37.6430   22.9490   33.0320 C   0  0  0  0  0  0  0  0  0  0  0  0
   37.4530   21.6380   33.4370 C   0  0  0  0  0  0  0  0  0  0  0  0
   38.1670   21.2370   34.1380 H   0  0  0  0  0  0  0  0  0  0  0  0
   36.4040   20.8660   32.9750 C   0  0  0  0  0  0  0  0  0  0  0  0
   36.0070   19.6010   33.2070 N   0  0  0  0  0  0  0  0  0  0  0  0
   36.5540   18.9890   33.8710 H   0  0  0  0  0  0  0  0  0  0  0  0
   34.9100   19.3270   32.5010 C   0  0  0  0  0  0  0  0  0  0  0  0
   34.4440   18.3560   32.5580 H   0  0  0  0  0  0  0  0  0  0  0  0
   34.5690   20.4470   31.7770 C   0  0  0  0  0  3  0  0  0  0  0  0
   35.5130   21.4190   32.0780 C   0  0  0  0  0  0  0  0  0  0  0  0
   35.6890   22.7260   31.6640 C   0  0  0  0  0  3  0  0  0  0  0  0
   38.2060   24.6330   34.6410 C   0  0  0  0  0  0  0  0  0  0  0  0
   37.0870   24.5960   34.5410 H   0  0  0  0  0  0  0  0  0  0  0  0
   38.5800   25.6660   34.5510 H   0  0  0  0  0  0  0  0  0  0  0  0
   39.7780   22.8300   37.5820 C   0  0  0  0  0  0  0  0  0  0  0  0
   39.5680   23.2520   36.2520 C   0  0  0  0  0  0  0  0  0  0  0  0
   38.5230   24.1210   35.9960 C   0  0  0  0  0  0  0  0  0  0  0  0
   37.7330   24.5390   37.0400 N   0  0  0  0  0  0  0  0  0  0  0  0
   37.9680   24.1100   38.3040 C   0  0  0  0  0  0  0  0  0  0  0  0
   38.9790   23.2640   38.5830 N   0  0  0  0  0  0  0  0  0  0  0  0
   40.6070   22.1540   37.7150 H   0  0  0  0  0  0  0  0  0  0  0  0
   40.2100   22.9000   35.4660 H   0  0  0  0  0  0  0  0  0  0  0  0
   37.3030   24.4830   39.0770 H   0  0  0  0  0  0  0  0  0  0  0  0
  1  2  1  0  0  0  0
  1 16  1  0  0  0  0
  3  1  1  0  0  0  0
  4  5  1  0  0  0  0
  5  6  2  0  0  0  0
  5  1  1  0  0  0  0
  6  7  1  0  0  0  0
  8  9  1  0  0  0  0
  8  6  1  0  0  0  0
  9 10  1  0  0  0  0
 11 12  1  0  0  0  0
 11  9  1  0  0  0  0
 13 14  1  0  0  0  0
 13 11  2  0  0  0  0
 14  8  2  0  0  0  0
 15 14  1  0  0  0  0
 15  4  2  0  0  0  0
 16 21  1  0  0  0  0
 17 16  1  0  0  0  0
 18 16  1  0  0  0  0
 19 25  1  0  0  0  0
 19 24  1  0  0  0  0
 20 19  2  0  0  0  0
 21 20  1  0  0  0  0
 21 22  2  0  0  0  0
 22 23  1  0  0  0  0
 23 24  2  0  0  0  0
 23 27  1  0  0  0  0
 26 20  1  0  0  0  0
M  END
>  <minimizedAffinity>
-4.62716103

$$$$

 OpenBabel03272509253D

 27 29  0  0  0  0  0  0  0  0999 V2000
   35.7660   29.6680   32.9470 C   0  0  0  0  0  0  0  0  0  0  0  0
   36.4690   30.2190   33.6030 H   0  0  0  0  0  0  0  0  0  0  0  0
   35.6630   30.0530   31.9330 H   0  0  0  0  0  0  0  0  0  0  0  0
   36.9080   27.5850   33.8690 C   0  0  0  0  0  3  0  0  0  0  0  0
   36.1890   28.2200   32.8670 C   0  0  0  0  0  0  0  0  0  0  0  0
   35.8490   27.4790   31.7470 C   0  0  0  0  0  0  0  0  0  0  0  0
   35.2900   27.9880   30.9780 H   0  0  0  0  0  0  0  0  0  0  0  0
   36.2010   26.1500   31.6050 C   0  0  0  0  0  0  0  0  0  0  0  0
   35.9990   25.2320   30.6410 N   0  0  0  0  0  0  0  0  0  0  0  0
   35.4670   25.4920   29.7670 H   0  0  0  0  0  0  0  0  0  0  0  0
   36.5520   24.0700   30.9910 C   0  0  0  0  0  0  0  0  0  0  0  0
   36.4920   23.2120   30.3410 H   0  0  0  0  0  0  0  0  0  0  0  0
   37.1380   24.2240   32.2270 C   0  0  0  0  0  3  0  0  0  0  0  0
   36.9170   25.5380   32.6140 C   0  0  0  0  0  0  0  0  0  0  0  0
   37.2630   26.2640   33.7380 C   0  0  0  0  0  3  0  0  0  0  0  0
   34.4060   29.6310   33.6240 C   0  0  0  0  0  0  0  0  0  0  0  0
   34.2050   28.5770   33.9640 H   0  0  0  0  0  0  0  0  0  0  0  0
   33.6100   29.9900   32.9520 H   0  0  0  0  0  0  0  0  0  0  0  0
   35.4380   31.9280   36.4580 C   0  0  0  0  0  0  0  0  0  0  0  0
   35.5380   31.1590   35.2800 C   0  0  0  0  0  0  0  0  0  0  0  0
   34.4200   30.4700   34.8470 C   0  0  0  0  0  0  0  0  0  0  0  0
   33.2590   30.5600   35.5760 N   0  0  0  0  0  0  0  0  0  0  0  0
   33.2030   31.3100   36.7040 C   0  0  0  0  0  0  0  0  0  0  0  0
   34.2770   31.9920   37.1480 N   0  0  0  0  0  0  0  0  0  0  0  0
   36.3430   32.4400   36.7420 H   0  0  0  0  0  0  0  0  0  0  0  0
   36.4670   31.1160   34.7400 H   0  0  0  0  0  0  0  0  0  0  0  0
   32.2520   31.3340   37.2270 H   0  0  0  0  0  0  0  0  0  0  0  0
  1  2  1  0  0  0  0
  1 16  1  0  0  0  0
  3  1  1  0  0  0  0
  5  1  1  0  0  0  0
  5  4  2  0  0  0  0
  6  5  1  0  0  0  0
  7  6  1  0  0  0  0
  8  6  2  0  0  0  0
  8 14  1  0  0  0  0
  9 11  1  0  0  0  0
  9  8  1  0  0  0  0
 10  9  1  0  0  0  0
 11 13  2  0  0  0  0
 12 11  1  0  0  0  0
 13 14  1  0  0  0  0
 14 15  2  0  0  0  0
 15  4  1  0  0  0  0
 16 17  1  0  0  0  0
 16 21  1  0  0  0  0
 18 16  1  0  0  0  0
 19 25  1  0  0  0  0
 19 24  1  0  0  0  0
 20 19  2  0  0  0  0
 21 20  1  0  0  0  0
 21 22  2  0  0  0  0
 22 23  1  0  0  0  0
 23 24  2  0  0  0  0
 23 27  1  0  0  0  0
 26 20  1  0  0  0  0
M  END
>  <minimizedAffinity>
-4.61786127

$$$$

 OpenBabel03272509253D

 27 29  0  0  0  0  0  0  0  0999 V2000
   37.4090   26.4880   35.3180 C   0  0  0  0  0  0  0  0  0  0  0  0
   36.4830   26.0790   35.7660 H   0  0  0  0  0  0  0  0  0  0  0  0
   37.7300   27.4590   35.6930 H   0  0  0  0  0  0  0  0  0  0  0  0
   39.7200   25.5480   34.7970 C   0  0  0  0  0  3  0  0  0  0  0  0
   38.5370   25.5020   35.5190 C   0  0  0  0  0  0  0  0  0  0  0  0
   38.3960   24.5010   36.4660 C   0  0  0  0  0  0  0  0  0  0  0  0
   37.4700   24.4800   37.0180 H   0  0  0  0  0  0  0  0  0  0  0  0
   39.3850   23.5660   36.7050 C   0  0  0  0  0  0  0  0  0  0  0  0
   39.4930   22.5200   37.5460 N   0  0  0  0  0  0  0  0  0  0  0  0
   38.7010   22.2870   38.2040 H   0  0  0  0  0  0  0  0  0  0  0  0
   40.6730   21.9200   37.3840 C   0  0  0  0  0  0  0  0  0  0  0  0
   40.9400   21.0580   37.9740 H   0  0  0  0  0  0  0  0  0  0  0  0
   41.3690   22.5900   36.4040 C   0  0  0  0  0  3  0  0  0  0  0  0
   40.5540   23.6290   35.9750 C   0  0  0  0  0  0  0  0  0  0  0  0
   40.7100   24.6220   35.0270 C   0  0  0  0  0  3  0  0  0  0  0  0
   37.2260   26.5530   33.8100 C   0  0  0  0  0  0  0  0  0  0  0  0
   36.4440   25.8010   33.5130 H   0  0  0  0  0  0  0  0  0  0  0  0
   38.1750   26.3710   33.2800 H   0  0  0  0  0  0  0  0  0  0  0  0
   35.5550   29.9560   33.8000 C   0  0  0  0  0  0  0  0  0  0  0  0
   36.0090   28.7110   34.2820 C   0  0  0  0  0  0  0  0  0  0  0  0
   36.7000   27.8830   33.4160 C   0  0  0  0  0  0  0  0  0  0  0  0
   36.9180   28.3010   32.1260 N   0  0  0  0  0  0  0  0  0  0  0  0
   36.4640   29.5060   31.7000 C   0  0  0  0  0  0  0  0  0  0  0  0
   35.7880   30.3330   32.5220 N   0  0  0  0  0  0  0  0  0  0  0  0
   35.0230   30.5540   34.5230 H   0  0  0  0  0  0  0  0  0  0  0  0
   35.8170   28.4230   35.2990 H   0  0  0  0  0  0  0  0  0  0  0  0
   36.6730   29.7690   30.6680 H   0  0  0  0  0  0  0  0  0  0  0  0
  1  5  1  0  0  0  0
  1  3  1  0  0  0  0
  1  2  1  0  0  0  0
  4 15  2  0  0  0  0
  4  5  1  0  0  0  0
  5  6  2  0  0  0  0
  6  8  1  0  0  0  0
  6  7  1  0  0  0  0
  8  9  1  0  0  0  0
  9 10  1  0  0  0  0
 11  9  1  0  0  0  0
 11 12  1  0  0  0  0
 13 11  2  0  0  0  0
 14 13  1  0  0  0  0
 14  8  2  0  0  0  0
 15 14  1  0  0  0  0
 16  1  1  0  0  0  0
 17 16  1  0  0  0  0
 18 16  1  0  0  0  0
 19 20  1  0  0  0  0
 19 25  1  0  0  0  0
 20 26  1  0  0  0  0
 21 16  1  0  0  0  0
 21 20  2  0  0  0  0
 22 21  1  0  0  0  0
 23 22  2  0  0  0  0
 23 24  1  0  0  0  0
 24 19  2  0  0  0  0
 27 23  1  0  0  0  0
M  END
>  <minimizedAffinity>
-4.60073137

$$$$
