
 OpenBabel03262521573D

 42 45  0  0  1  0  0  0  0  0999 V2000
   35.9800   27.0950   31.5700 C   0  0  1  0  0  0  0  0  0  0  0  0
   37.3740   26.8620   32.0780 C   0  0  2  0  0  0  0  0  0  0  0  0
   38.2620   27.8880   31.4480 C   0  0  0  0  0  0  0  0  0  0  0  0
   37.5970   28.7390   30.5830 O   0  0  0  0  0  0  0  0  0  0  0  0
   36.5710   29.4350   31.2290 C   0  0  0  0  0  0  0  0  0  0  0  0
   35.5990   28.5260   31.9330 C   0  0  2  0  0  0  0  0  0  0  0  0
   35.2420   26.4120   32.0070 H   0  0  0  0  0  0  0  0  0  0  0  0
   37.3430   27.0230   33.1800 H   0  0  0  0  0  0  0  0  0  0  0  0
   39.0220   27.3570   30.8160 H   0  0  0  0  0  0  0  0  0  0  0  0
   38.8430   28.4990   32.1430 H   0  0  0  0  0  0  0  0  0  0  0  0
   37.0670   30.1420   31.9170 H   0  0  0  0  0  0  0  0  0  0  0  0
   36.0050   30.0020   30.4700 H   0  0  0  0  0  0  0  0  0  0  0  0
   34.5500   28.7440   31.6840 H   0  0  0  0  0  0  0  0  0  0  0  0
   35.9250   27.0090   30.1730 O   0  0  0  0  0  0  0  0  0  0  0  0
   36.2840   26.1040   29.9300 H   0  0  0  0  0  0  0  0  0  0  0  0
   37.9530   25.1880   31.7360 S   0  0  0  0  0  0  0  0  0  0  0  0
   38.1550   24.2690   33.2770 C   0  0  0  0  0  0  0  0  0  0  0  0
   39.1320   23.7720   33.2420 H   0  0  0  0  0  0  0  0  0  0  0  0
   37.3660   23.4820   33.3050 H   0  0  0  0  0  0  0  0  0  0  0  0
   38.0710   25.2920   34.7420 S   0  0  0  0  0  0  0  0  0  0  0  0
   38.6230   24.3470   36.1400 C   0  0  0  0  0  0  0  0  0  0  0  0
   37.9390   24.5780   37.3180 C   0  0  0  0  0  0  0  0  0  0  0  0
   38.3090   23.8750   38.4690 C   0  0  0  0  0  0  0  0  0  0  0  0
   39.3500   22.9810   38.3620 N   0  0  0  0  0  0  0  0  0  0  0  0
   39.9850   22.7960   37.1790 C   0  0  0  0  0  0  0  0  0  0  0  0
   39.6370   23.4570   36.0980 N   0  0  0  0  0  0  0  0  0  0  0  0
   37.1150   25.2870   37.3960 H   0  0  0  0  0  0  0  0  0  0  0  0
   37.7830   24.0410   39.4020 H   0  0  0  0  0  0  0  0  0  0  0  0
   40.7780   22.0640   37.2560 H   0  0  0  0  0  0  0  0  0  0  0  0
   35.7830   28.6130   33.3040 O   0  0  0  0  0  0  0  0  0  0  0  0
   33.8110   29.4110   34.2800 C   0  0  0  0  0  3  0  0  0  0  0  0
   35.2030   29.4920   34.1870 C   0  0  0  0  0  0  0  0  0  0  0  0
   35.8200   30.4330   34.9830 C   0  0  0  0  0  0  0  0  0  0  0  0
   36.8960   30.4820   34.9000 H   0  0  0  0  0  0  0  0  0  0  0  0
   35.0930   31.2510   35.8290 C   0  0  0  0  0  0  0  0  0  0  0  0
   35.5160   32.2190   36.6730 N   0  0  0  0  0  0  0  0  0  0  0  0
   36.5050   32.5220   36.8350 H   0  0  0  0  0  0  0  0  0  0  0  0
   34.4100   32.7310   37.2800 C   0  0  0  0  0  0  0  0  0  0  0  0
   34.4540   33.5330   38.0160 H   0  0  0  0  0  0  0  0  0  0  0  0
   33.2690   32.1000   36.8340 C   0  0  0  0  0  3  0  0  0  0  0  0
   33.7070   31.1670   35.9170 C   0  0  0  0  0  0  0  0  0  0  0  0
   33.0820   30.2270   35.1220 C   0  0  0  0  0  3  0  0  0  0  0  0
  1  6  1  0  0  0  0
  1  7  1  1  0  0  0
  1  2  1  0  0  0  0
  2  8  1  1  0  0  0
  3  2  1  0  0  0  0
  3 10  1  0  0  0  0
  4  5  1  0  0  0  0
  4  3  1  0  0  0  0
  5 11  1  0  0  0  0
  5  6  1  0  0  0  0
  6 13  1  6  0  0  0
  6 30  1  0  0  0  0
  9  3  1  0  0  0  0
 12  5  1  0  0  0  0
 14  1  1  0  0  0  0
 15 14  1  0  0  0  0
 16  2  1  0  0  0  0
 16 17  1  0  0  0  0
 17 19  1  0  0  0  0
 17 20  1  0  0  0  0
 18 17  1  0  0  0  0
 20 21  1  0  0  0  0
 21 22  1  0  0  0  0
 22 27  1  0  0  0  0
 22 23  2  0  0  0  0
 23 28  1  0  0  0  0
 24 23  1  0  0  0  0
 25 29  1  0  0  0  0
 25 24  2  0  0  0  0
 26 21  2  0  0  0  0
 26 25  1  0  0  0  0
 30 32  1  0  0  0  0
 31 42  1  0  0  0  0
 32 31  2  0  0  0  0
 32 33  1  0  0  0  0
 33 35  2  0  0  0  0
 34 33  1  0  0  0  0
 35 41  1  0  0  0  0
 35 36  1  0  0  0  0
 36 37  1  0  0  0  0
 36 38  1  0  0  0  0
 38 39  1  0  0  0  0
 40 38  2  0  0  0  0
 41 40  1  0  0  0  0
 42 41  2  0  0  0  0
M  END
>  <minimizedAffinity>
-6.01127815

$$$$

 OpenBabel03262521573D

 42 45  0  0  1  0  0  0  0  0999 V2000
   35.8900   27.1320   31.6460 C   0  0  1  0  0  0  0  0  0  0  0  0
   37.2590   26.8380   32.1910 C   0  0  2  0  0  0  0  0  0  0  0  0
   38.2000   27.8480   31.6150 C   0  0  0  0  0  0  0  0  0  0  0  0
   37.5920   28.7430   30.7530 O   0  0  0  0  0  0  0  0  0  0  0  0
   36.5710   29.4580   31.3860 C   0  0  0  0  0  0  0  0  0  0  0  0
   35.5470   28.5660   32.0350 C   0  0  2  0  0  0  0  0  0  0  0  0
   35.1160   26.4640   32.0430 H   0  0  0  0  0  0  0  0  0  0  0  0
   37.1990   26.9720   33.2950 H   0  0  0  0  0  0  0  0  0  0  0  0
   38.9620   27.3070   30.9930 H   0  0  0  0  0  0  0  0  0  0  0  0
   38.7800   28.4210   32.3440 H   0  0  0  0  0  0  0  0  0  0  0  0
   37.0690   30.1290   32.1070 H   0  0  0  0  0  0  0  0  0  0  0  0
   36.0490   30.0630   30.6250 H   0  0  0  0  0  0  0  0  0  0  0  0
   34.5140   28.8260   31.7600 H   0  0  0  0  0  0  0  0  0  0  0  0
   35.8760   27.0830   30.2470 O   0  0  0  0  0  0  0  0  0  0  0  0
   36.2110   26.1720   29.9910 H   0  0  0  0  0  0  0  0  0  0  0  0
   37.7910   25.1530   31.8220 S   0  0  0  0  0  0  0  0  0  0  0  0
   38.0240   24.2230   33.3520 C   0  0  0  0  0  0  0  0  0  0  0  0
   38.2260   23.1800   33.0790 H   0  0  0  0  0  0  0  0  0  0  0  0
   37.0630   24.2550   33.9150 H   0  0  0  0  0  0  0  0  0  0  0  0
   39.3670   24.8310   34.3670 S   0  0  0  0  0  0  0  0  0  0  0  0
   39.1930   24.1760   36.0080 C   0  0  0  0  0  0  0  0  0  0  0  0
   38.1470   24.6990   36.7450 C   0  0  0  0  0  0  0  0  0  0  0  0
   37.9370   24.2400   38.0490 C   0  0  0  0  0  0  0  0  0  0  0  0
   38.7970   23.2800   38.5320 N   0  0  0  0  0  0  0  0  0  0  0  0
   39.8070   22.8040   37.7620 C   0  0  0  0  0  0  0  0  0  0  0  0
   40.0020   23.2360   36.5380 N   0  0  0  0  0  0  0  0  0  0  0  0
   37.4690   25.4590   36.3570 H   0  0  0  0  0  0  0  0  0  0  0  0
   37.1220   24.6360   38.6430 H   0  0  0  0  0  0  0  0  0  0  0  0
   40.3930   22.0560   38.2810 H   0  0  0  0  0  0  0  0  0  0  0  0
   35.6900   28.6120   33.4130 O   0  0  0  0  0  0  0  0  0  0  0  0
   35.9910   30.3580   34.9420 C   0  0  0  0  0  3  0  0  0  0  0  0
   35.1080   29.4840   34.3010 C   0  0  0  0  0  0  0  0  0  0  0  0
   33.7760   29.6020   34.6340 C   0  0  0  0  0  0  0  0  0  0  0  0
   33.1070   28.9200   34.1290 H   0  0  0  0  0  0  0  0  0  0  0  0
   33.3420   30.5380   35.5540 C   0  0  0  0  0  0  0  0  0  0  0  0
   32.0930   30.7980   36.0020 N   0  0  0  0  0  0  0  0  0  0  0  0
   31.2100   30.3150   35.7140 H   0  0  0  0  0  0  0  0  0  0  0  0
   32.1950   31.8140   36.9030 C   0  0  0  0  0  0  0  0  0  0  0  0
   31.3360   32.2320   37.4270 H   0  0  0  0  0  0  0  0  0  0  0  0
   33.5060   32.2150   37.0440 C   0  0  0  0  0  3  0  0  0  0  0  0
   34.2250   31.4050   36.1890 C   0  0  0  0  0  0  0  0  0  0  0  0
   35.5620   31.2930   35.8620 C   0  0  0  0  0  3  0  0  0  0  0  0
  1  6  1  0  0  0  0
  1  7  1  1  0  0  0
  1  2  1  0  0  0  0
  2  8  1  1  0  0  0
  3  2  1  0  0  0  0
  3 10  1  0  0  0  0
  4  5  1  0  0  0  0
  4  3  1  0  0  0  0
  5  6  1  0  0  0  0
  5 11  1  0  0  0  0
  6 13  1  6  0  0  0
  6 30  1  0  0  0  0
  9  3  1  0  0  0  0
 12  5  1  0  0  0  0
 14  1  1  0  0  0  0
 15 14  1  0  0  0  0
 16  2  1  0  0  0  0
 16 17  1  0  0  0  0
 17 19  1  0  0  0  0
 17 20  1  0  0  0  0
 18 17  1  0  0  0  0
 20 21  1  0  0  0  0
 21 26  2  0  0  0  0
 21 22  1  0  0  0  0
 22 23  2  0  0  0  0
 23 24  1  0  0  0  0
 23 28  1  0  0  0  0
 25 29  1  0  0  0  0
 25 24  2  0  0  0  0
 26 25  1  0  0  0  0
 27 22  1  0  0  0  0
 30 32  1  0  0  0  0
 31 42  1  0  0  0  0
 32 33  1  0  0  0  0
 32 31  2  0  0  0  0
 33 35  2  0  0  0  0
 34 33  1  0  0  0  0
 35 36  1  0  0  0  0
 35 41  1  0  0  0  0
 36 38  1  0  0  0  0
 37 36  1  0  0  0  0
 38 40  2  0  0  0  0
 38 39  1  0  0  0  0
 41 40  1  0  0  0  0
 42 41  2  0  0  0  0
M  END
>  <minimizedAffinity>
-5.96328926

$$$$

 OpenBabel03262521573D

 42 45  0  0  1  0  0  0  0  0999 V2000
   37.4260   28.0270   30.6570 C   0  0  1  0  0  0  0  0  0  0  0  0
   36.7920   28.9260   31.6790 C   0  0  2  0  0  0  0  0  0  0  0  0
   35.5190   28.2780   32.1230 C   0  0  0  0  0  0  0  0  0  0  0  0
   35.2590   27.0770   31.4890 O   0  0  0  0  0  0  0  0  0  0  0  0
   36.2810   26.1470   31.7050 C   0  0  0  0  0  0  0  0  0  0  0  0
   37.6390   26.6700   31.3180 C   0  0  2  0  0  0  0  0  0  0  0  0
   38.3920   28.3980   30.2960 H   0  0  0  0  0  0  0  0  0  0  0  0
   37.5000   28.9830   32.5380 H   0  0  0  0  0  0  0  0  0  0  0  0
   34.6640   28.9510   31.8450 H   0  0  0  0  0  0  0  0  0  0  0  0
   35.4210   28.1210   33.2000 H   0  0  0  0  0  0  0  0  0  0  0  0
   36.2200   25.8680   32.7710 H   0  0  0  0  0  0  0  0  0  0  0  0
   36.0780   25.2590   31.0830 H   0  0  0  0  0  0  0  0  0  0  0  0
   38.1940   25.9800   30.6650 H   0  0  0  0  0  0  0  0  0  0  0  0
   36.5730   27.8110   29.5680 O   0  0  0  0  0  0  0  0  0  0  0  0
   36.3430   28.7170   29.2030 H   0  0  0  0  0  0  0  0  0  0  0  0
   36.5000   30.5870   31.0370 S   0  0  0  0  0  0  0  0  0  0  0  0
   34.8810   31.1870   31.5670 C   0  0  0  0  0  0  0  0  0  0  0  0
   34.4810   30.4650   32.2910 H   0  0  0  0  0  0  0  0  0  0  0  0
   34.2140   31.1890   30.6740 H   0  0  0  0  0  0  0  0  0  0  0  0
   34.9250   32.8080   32.3230 S   0  0  0  0  0  0  0  0  0  0  0  0
   34.9600   32.6220   34.0880 C   0  0  0  0  0  0  0  0  0  0  0  0
   35.7230   31.5700   34.5570 C   0  0  0  0  0  0  0  0  0  0  0  0
   35.8060   31.3510   35.9350 C   0  0  0  0  0  0  0  0  0  0  0  0
   35.1120   32.2080   36.7590 N   0  0  0  0  0  0  0  0  0  0  0  0
   34.3790   33.2240   36.2410 C   0  0  0  0  0  0  0  0  0  0  0  0
   34.3020   33.4290   34.9460 N   0  0  0  0  0  0  0  0  0  0  0  0
   36.2710   30.8960   33.9000 H   0  0  0  0  0  0  0  0  0  0  0  0
   36.4010   30.5330   36.3230 H   0  0  0  0  0  0  0  0  0  0  0  0
   33.8940   33.8070   37.0140 H   0  0  0  0  0  0  0  0  0  0  0  0
   38.3820   26.9350   32.4580 O   0  0  0  0  0  0  0  0  0  0  0  0
   38.2400   27.1650   34.7830 C   0  0  0  0  0  3  0  0  0  0  0  0
   38.3190   26.3100   33.6800 C   0  0  0  0  0  0  0  0  0  0  0  0
   38.3250   24.9580   33.9480 C   0  0  0  0  0  0  0  0  0  0  0  0
   38.3860   24.3110   33.0850 H   0  0  0  0  0  0  0  0  0  0  0  0
   38.2550   24.4790   35.2440 C   0  0  0  0  0  0  0  0  0  0  0  0
   38.2490   23.2050   35.6970 N   0  0  0  0  0  0  0  0  0  0  0  0
   38.2970   22.3330   35.1190 H   0  0  0  0  0  0  0  0  0  0  0  0
   38.1670   23.2640   37.0550 C   0  0  0  0  0  0  0  0  0  0  0  0
   38.1440   22.3780   37.6880 H   0  0  0  0  0  0  0  0  0  0  0  0
   38.1210   24.5720   37.4870 C   0  0  0  0  0  3  0  0  0  0  0  0
   38.1770   25.3340   36.3380 C   0  0  0  0  0  0  0  0  0  0  0  0
   38.1710   26.6900   36.0770 C   0  0  0  0  0  3  0  0  0  0  0  0
  1  7  1  6  0  0  0
  1  6  1  0  0  0  0
  1  2  1  0  0  0  0
  2  3  1  0  0  0  0
  2  8  1  1  0  0  0
  3 10  1  0  0  0  0
  4  5  1  0  0  0  0
  4  3  1  0  0  0  0
  5 11  1  0  0  0  0
  6 13  1  6  0  0  0
  6  5  1  0  0  0  0
  6 30  1  0  0  0  0
  9  3  1  0  0  0  0
 12  5  1  0  0  0  0
 14  1  1  0  0  0  0
 15 14  1  0  0  0  0
 16 17  1  0  0  0  0
 16  2  1  0  0  0  0
 17 18  1  0  0  0  0
 17 20  1  0  0  0  0
 19 17  1  0  0  0  0
 20 21  1  0  0  0  0
 21 22  2  0  0  0  0
 21 26  1  0  0  0  0
 22 23  1  0  0  0  0
 23 28  1  0  0  0  0
 23 24  2  0  0  0  0
 25 24  1  0  0  0  0
 25 29  1  0  0  0  0
 26 25  2  0  0  0  0
 27 22  1  0  0  0  0
 30 32  1  0  0  0  0
 31 42  1  0  0  0  0
 32 33  1  0  0  0  0
 32 31  2  0  0  0  0
 33 35  2  0  0  0  0
 34 33  1  0  0  0  0
 35 36  1  0  0  0  0
 35 41  1  0  0  0  0
 36 38  1  0  0  0  0
 37 36  1  0  0  0  0
 38 40  2  0  0  0  0
 38 39  1  0  0  0  0
 41 40  1  0  0  0  0
 42 41  2  0  0  0  0
M  END
>  <minimizedAffinity>
-5.62083769

$$$$

 OpenBabel03262521573D

 42 45  0  0  1  0  0  0  0  0999 V2000
   37.0920   26.5410   34.6320 C   0  0  1  0  0  0  0  0  0  0  0  0
   37.5380   26.0630   33.2800 C   0  0  2  0  0  0  0  0  0  0  0  0
   38.9180   26.5920   33.0470 C   0  0  0  0  0  0  0  0  0  0  0  0
   39.3970   27.3660   34.0890 O   0  0  0  0  0  0  0  0  0  0  0  0
   39.4370   26.6510   35.2890 C   0  0  0  0  0  0  0  0  0  0  0  0
   38.1100   26.0370   35.6490 C   0  0  2  0  0  0  0  0  0  0  0  0
   36.0990   26.1710   34.9140 H   0  0  0  0  0  0  0  0  0  0  0  0
   37.5690   24.9510   33.3280 H   0  0  0  0  0  0  0  0  0  0  0  0
   38.8890   27.2760   32.1570 H   0  0  0  0  0  0  0  0  0  0  0  0
   39.6760   25.8420   32.8070 H   0  0  0  0  0  0  0  0  0  0  0  0
   40.2350   25.8980   35.1700 H   0  0  0  0  0  0  0  0  0  0  0  0
   39.7100   27.3480   36.0990 H   0  0  0  0  0  0  0  0  0  0  0  0
   37.7990   26.2600   36.6810 H   0  0  0  0  0  0  0  0  0  0  0  0
   37.1070   27.9390   34.7100 O   0  0  0  0  0  0  0  0  0  0  0  0
   36.5230   28.2720   33.9640 H   0  0  0  0  0  0  0  0  0  0  0  0
   36.4060   26.5710   31.9700 S   0  0  0  0  0  0  0  0  0  0  0  0
   35.8720   25.1360   31.0130 C   0  0  0  0  0  0  0  0  0  0  0  0
   35.6790   25.4730   29.9880 H   0  0  0  0  0  0  0  0  0  0  0  0
   34.9100   24.7800   31.4490 H   0  0  0  0  0  0  0  0  0  0  0  0
   37.0720   23.8090   30.9750 S   0  0  0  0  0  0  0  0  0  0  0  0
   36.5290   22.5070   32.0520 C   0  0  0  0  0  0  0  0  0  0  0  0
   35.4590   21.7640   31.5890 C   0  0  0  0  0  0  0  0  0  0  0  0
   34.9670   20.7170   32.3750 C   0  0  0  0  0  0  0  0  0  0  0  0
   35.5840   20.4850   33.5840 N   0  0  0  0  0  0  0  0  0  0  0  0
   36.6300   21.2470   33.9860 C   0  0  0  0  0  0  0  0  0  0  0  0
   37.0910   22.2290   33.2470 N   0  0  0  0  0  0  0  0  0  0  0  0
   34.9760   21.9530   30.6310 H   0  0  0  0  0  0  0  0  0  0  0  0
   34.1300   20.1220   32.0300 H   0  0  0  0  0  0  0  0  0  0  0  0
   37.0040   20.9410   34.9540 H   0  0  0  0  0  0  0  0  0  0  0  0
   38.1600   24.6650   35.4610 O   0  0  0  0  0  0  0  0  0  0  0  0
   39.1350   23.5270   37.2600 C   0  0  0  0  0  3  0  0  0  0  0  0
   39.1240   23.7820   35.8850 C   0  0  0  0  0  0  0  0  0  0  0  0
   40.0710   23.1240   35.1300 C   0  0  0  0  0  0  0  0  0  0  0  0
   40.0480   23.3310   34.0700 H   0  0  0  0  0  0  0  0  0  0  0  0
   40.9810   22.2580   35.7080 C   0  0  0  0  0  0  0  0  0  0  0  0
   41.9690   21.5330   35.1380 N   0  0  0  0  0  0  0  0  0  0  0  0
   42.2200   21.5040   34.1220 H   0  0  0  0  0  0  0  0  0  0  0  0
   42.5830   20.8400   36.1360 C   0  0  0  0  0  0  0  0  0  0  0  0
   43.4230   20.1680   35.9630 H   0  0  0  0  0  0  0  0  0  0  0  0
   41.9990   21.1120   37.3540 C   0  0  0  0  0  3  0  0  0  0  0  0
   40.9870   22.0090   37.0760 C   0  0  0  0  0  0  0  0  0  0  0  0
   40.0420   22.6650   37.8400 C   0  0  0  0  0  3  0  0  0  0  0  0
  1 14  1  0  0  0  0
  1  7  1  1  0  0  0
  1  6  1  0  0  0  0
  2  8  1  1  0  0  0
  2  1  1  0  0  0  0
  3  2  1  0  0  0  0
  3  4  1  0  0  0  0
  4  5  1  0  0  0  0
  5  6  1  0  0  0  0
  5 12  1  0  0  0  0
  6 13  1  1  0  0  0
  9  3  1  0  0  0  0
 10  3  1  0  0  0  0
 11  5  1  0  0  0  0
 15 14  1  0  0  0  0
 16  2  1  0  0  0  0
 17 19  1  0  0  0  0
 17 16  1  0  0  0  0
 18 17  1  0  0  0  0
 20 17  1  0  0  0  0
 20 21  1  0  0  0  0
 21 26  1  0  0  0  0
 22 21  2  0  0  0  0
 22 23  1  0  0  0  0
 23 24  2  0  0  0  0
 24 25  1  0  0  0  0
 25 29  1  0  0  0  0
 26 25  2  0  0  0  0
 27 22  1  0  0  0  0
 28 23  1  0  0  0  0
 30  6  1  0  0  0  0
 30 32  1  0  0  0  0
 31 42  1  0  0  0  0
 32 31  2  0  0  0  0
 33 35  2  0  0  0  0
 33 32  1  0  0  0  0
 34 33  1  0  0  0  0
 35 41  1  0  0  0  0
 36 35  1  0  0  0  0
 36 38  1  0  0  0  0
 37 36  1  0  0  0  0
 38 40  2  0  0  0  0
 39 38  1  0  0  0  0
 41 40  1  0  0  0  0
 41 42  2  0  0  0  0
M  END
>  <minimizedAffinity>
-5.60795212

$$$$

 OpenBabel03262521573D

 42 45  0  0  1  0  0  0  0  0999 V2000
   36.0990   27.2140   31.6130 C   0  0  1  0  0  0  0  0  0  0  0  0
   37.5870   27.2540   31.8200 C   0  0  2  0  0  0  0  0  0  0  0  0
   38.1600   28.1850   30.8000 C   0  0  0  0  0  0  0  0  0  0  0  0
   37.2120   28.7320   29.9550 O   0  0  0  0  0  0  0  0  0  0  0  0
   36.2440   29.4540   30.6610 C   0  0  0  0  0  0  0  0  0  0  0  0
   35.5860   28.6440   31.7460 C   0  0  2  0  0  0  0  0  0  0  0  0
   35.5790   26.5830   32.3430 H   0  0  0  0  0  0  0  0  0  0  0  0
   37.7560   27.6690   32.8410 H   0  0  0  0  0  0  0  0  0  0  0  0
   38.8490   27.6000   30.1350 H   0  0  0  0  0  0  0  0  0  0  0  0
   38.7700   29.0010   31.1970 H   0  0  0  0  0  0  0  0  0  0  0  0
   36.7560   30.3510   31.0500 H   0  0  0  0  0  0  0  0  0  0  0  0
   35.4560   29.7620   29.9530 H   0  0  0  0  0  0  0  0  0  0  0  0
   34.4870   28.6870   31.7070 H   0  0  0  0  0  0  0  0  0  0  0  0
   35.7760   26.7920   30.3170 O   0  0  0  0  0  0  0  0  0  0  0  0
   36.2130   25.8970   30.1930 H   0  0  0  0  0  0  0  0  0  0  0  0
   38.3330   25.6140   31.7120 S   0  0  0  0  0  0  0  0  0  0  0  0
   38.1080   24.7220   33.2660 C   0  0  0  0  0  0  0  0  0  0  0  0
   37.0470   24.7920   33.5380 H   0  0  0  0  0  0  0  0  0  0  0  0
   38.7020   25.2500   34.0460 H   0  0  0  0  0  0  0  0  0  0  0  0
   38.5760   22.9970   33.1810 S   0  0  0  0  0  0  0  0  0  0  0  0
   37.1290   22.0200   32.8630 C   0  0  0  0  0  0  0  0  0  0  0  0
   36.6060   22.1350   31.5890 C   0  0  0  0  0  0  0  0  0  0  0  0
   35.4650   21.3990   31.2540 C   0  0  0  0  0  0  0  0  0  0  0  0
   34.9200   20.5910   32.2250 N   0  0  0  0  0  0  0  0  0  0  0  0
   35.4770   20.5190   33.4590 C   0  0  0  0  0  0  0  0  0  0  0  0
   36.5480   21.2100   33.7730 N   0  0  0  0  0  0  0  0  0  0  0  0
   37.0420   22.7760   30.8240 H   0  0  0  0  0  0  0  0  0  0  0  0
   35.0400   21.4740   30.2600 H   0  0  0  0  0  0  0  0  0  0  0  0
   34.9350   19.8430   34.1080 H   0  0  0  0  0  0  0  0  0  0  0  0
   36.0280   29.0740   32.9870 O   0  0  0  0  0  0  0  0  0  0  0  0
   33.9480   29.5170   33.9640 C   0  0  0  0  0  3  0  0  0  0  0  0
   35.3260   29.7530   33.9530 C   0  0  0  0  0  0  0  0  0  0  0  0
   35.8090   30.6280   34.9020 C   0  0  0  0  0  0  0  0  0  0  0  0
   36.8750   30.7980   34.8810 H   0  0  0  0  0  0  0  0  0  0  0  0
   34.9680   31.2370   35.8160 C   0  0  0  0  0  0  0  0  0  0  0  0
   35.2530   32.1120   36.8060 N   0  0  0  0  0  0  0  0  0  0  0  0
   36.1970   32.4890   37.0580 H   0  0  0  0  0  0  0  0  0  0  0  0
   34.0780   32.4160   37.4220 C   0  0  0  0  0  0  0  0  0  0  0  0
   34.0090   33.1040   38.2640 H   0  0  0  0  0  0  0  0  0  0  0  0
   33.0280   31.7420   36.8360 C   0  0  0  0  0  3  0  0  0  0  0  0
   33.5970   31.0000   35.8220 C   0  0  0  0  0  0  0  0  0  0  0  0
   33.1060   30.1240   34.8740 C   0  0  0  0  0  3  0  0  0  0  0  0
  1  6  1  0  0  0  0
  1  2  1  0  0  0  0
  1  7  1  1  0  0  0
  2  8  1  1  0  0  0
  3 10  1  0  0  0  0
  3  2  1  0  0  0  0
  4  5  1  0  0  0  0
  4  3  1  0  0  0  0
  5 11  1  0  0  0  0
  5  6  1  0  0  0  0
  6 13  1  6  0  0  0
  6 30  1  0  0  0  0
  9  3  1  0  0  0  0
 12  5  1  0  0  0  0
 14  1  1  0  0  0  0
 15 14  1  0  0  0  0
 16  2  1  0  0  0  0
 16 17  1  0  0  0  0
 17 18  1  0  0  0  0
 17 19  1  0  0  0  0
 20 17  1  0  0  0  0
 21 20  1  0  0  0  0
 21 26  1  0  0  0  0
 22 21  2  0  0  0  0
 23 22  1  0  0  0  0
 23 24  2  0  0  0  0
 24 25  1  0  0  0  0
 25 26  2  0  0  0  0
 25 29  1  0  0  0  0
 27 22  1  0  0  0  0
 28 23  1  0  0  0  0
 30 32  1  0  0  0  0
 31 42  1  0  0  0  0
 32 31  2  0  0  0  0
 32 33  1  0  0  0  0
 33 35  2  0  0  0  0
 34 33  1  0  0  0  0
 35 41  1  0  0  0  0
 35 36  1  0  0  0  0
 36 37  1  0  0  0  0
 36 38  1  0  0  0  0
 38 39  1  0  0  0  0
 40 38  2  0  0  0  0
 41 40  1  0  0  0  0
 42 41  2  0  0  0  0
M  END
>  <minimizedAffinity>
-5.59178114

$$$$

 OpenBabel03262521573D

 42 45  0  0  1  0  0  0  0  0999 V2000
   36.4760   26.2490   31.0210 C   0  0  1  0  0  0  0  0  0  0  0  0
   36.7880   25.7070   32.3870 C   0  0  2  0  0  0  0  0  0  0  0  0
   38.0400   26.3740   32.8610 C   0  0  0  0  0  0  0  0  0  0  0  0
   38.5720   27.2660   31.9480 O   0  0  0  0  0  0  0  0  0  0  0  0
   37.6670   28.2850   31.6330 C   0  0  0  0  0  0  0  0  0  0  0  0
   36.3400   27.7620   31.1540 C   0  0  2  0  0  0  0  0  0  0  0  0
   35.5460   25.8470   30.6000 H   0  0  0  0  0  0  0  0  0  0  0  0
   35.9390   25.9970   33.0470 H   0  0  0  0  0  0  0  0  0  0  0  0
   38.8280   25.5870   33.0010 H   0  0  0  0  0  0  0  0  0  0  0  0
   37.9670   26.8810   33.8270 H   0  0  0  0  0  0  0  0  0  0  0  0
   37.5770   28.9050   32.5420 H   0  0  0  0  0  0  0  0  0  0  0  0
   38.0980   28.8920   30.8190 H   0  0  0  0  0  0  0  0  0  0  0  0
   36.0100   28.2250   30.2130 H   0  0  0  0  0  0  0  0  0  0  0  0
   37.5300   26.0200   30.1280 O   0  0  0  0  0  0  0  0  0  0  0  0
   37.6920   25.0290   30.1280 H   0  0  0  0  0  0  0  0  0  0  0  0
   36.9560   23.9100   32.3850 S   0  0  0  0  0  0  0  0  0  0  0  0
   38.4900   23.4250   33.2040 C   0  0  0  0  0  0  0  0  0  0  0  0
   38.8350   24.2820   33.7970 H   0  0  0  0  0  0  0  0  0  0  0  0
   39.2460   23.2250   32.4110 H   0  0  0  0  0  0  0  0  0  0  0  0
   38.3150   22.0050   34.2780 S   0  0  0  0  0  0  0  0  0  0  0  0
   38.5460   22.5200   35.9610 C   0  0  0  0  0  0  0  0  0  0  0  0
   39.8190   22.3330   36.4670 C   0  0  0  0  0  0  0  0  0  0  0  0
   40.0880   22.7120   37.7860 C   0  0  0  0  0  0  0  0  0  0  0  0
   39.0560   23.2560   38.5160 N   0  0  0  0  0  0  0  0  0  0  0  0
   37.8270   23.4140   37.9660 C   0  0  0  0  0  0  0  0  0  0  0  0
   37.5750   23.0590   36.7270 N   0  0  0  0  0  0  0  0  0  0  0  0
   40.6320   21.9030   35.8840 H   0  0  0  0  0  0  0  0  0  0  0  0
   41.0800   22.5760   38.2010 H   0  0  0  0  0  0  0  0  0  0  0  0
   37.1250   23.8540   38.6630 H   0  0  0  0  0  0  0  0  0  0  0  0
   35.3780   27.9540   32.1330 O   0  0  0  0  0  0  0  0  0  0  0  0
   34.2060   29.9520   32.4740 C   0  0  0  0  0  3  0  0  0  0  0  0
   35.1800   29.0570   32.9280 C   0  0  0  0  0  0  0  0  0  0  0  0
   35.8180   29.3860   34.1050 C   0  0  0  0  0  0  0  0  0  0  0  0
   36.5660   28.6850   34.4420 H   0  0  0  0  0  0  0  0  0  0  0  0
   35.5040   30.5420   34.7960 C   0  0  0  0  0  0  0  0  0  0  0  0
   36.0150   31.0260   35.9510 N   0  0  0  0  0  0  0  0  0  0  0  0
   36.7630   30.5880   36.5380 H   0  0  0  0  0  0  0  0  0  0  0  0
   35.3730   32.1980   36.2120 C   0  0  0  0  0  0  0  0  0  0  0  0
   35.5860   32.8100   37.0880 H   0  0  0  0  0  0  0  0  0  0  0  0
   34.4460   32.4780   35.2310 C   0  0  0  0  0  3  0  0  0  0  0  0
   34.5350   31.4290   34.3400 C   0  0  0  0  0  0  0  0  0  0  0  0
   33.8920   31.1060   33.1610 C   0  0  0  0  0  3  0  0  0  0  0  0
  1  7  1  6  0  0  0
  1  6  1  0  0  0  0
  1  2  1  0  0  0  0
  2  3  1  0  0  0  0
  2  8  1  1  0  0  0
  3  9  1  0  0  0  0
  3 10  1  0  0  0  0
  4  3  1  0  0  0  0
  5  4  1  0  0  0  0
  5 11  1  0  0  0  0
  6 13  1  6  0  0  0
  6  5  1  0  0  0  0
  6 30  1  0  0  0  0
 12  5  1  0  0  0  0
 14  1  1  0  0  0  0
 15 14  1  0  0  0  0
 16  2  1  0  0  0  0
 16 17  1  0  0  0  0
 17 18  1  0  0  0  0
 17 20  1  0  0  0  0
 19 17  1  0  0  0  0
 20 21  1  0  0  0  0
 21 22  2  0  0  0  0
 21 26  1  0  0  0  0
 22 23  1  0  0  0  0
 23 28  1  0  0  0  0
 23 24  2  0  0  0  0
 25 24  1  0  0  0  0
 25 29  1  0  0  0  0
 26 25  2  0  0  0  0
 27 22  1  0  0  0  0
 30 32  1  0  0  0  0
 31 32  2  0  0  0  0
 31 42  1  0  0  0  0
 32 33  1  0  0  0  0
 33 34  1  0  0  0  0
 33 35  2  0  0  0  0
 35 36  1  0  0  0  0
 36 38  1  0  0  0  0
 36 37  1  0  0  0  0
 38 39  1  0  0  0  0
 40 38  2  0  0  0  0
 41 35  1  0  0  0  0
 41 40  1  0  0  0  0
 42 41  2  0  0  0  0
M  END
>  <minimizedAffinity>
-5.48505306

$$$$

 OpenBabel03262521573D

 42 45  0  0  1  0  0  0  0  0999 V2000
   37.8920   25.5700   31.1670 C   0  0  1  0  0  0  0  0  0  0  0  0
   37.8690   26.1530   32.5510 C   0  0  2  0  0  0  0  0  0  0  0  0
   36.6320   26.9860   32.6690 C   0  0  0  0  0  0  0  0  0  0  0  0
   35.8720   27.0150   31.5140 O   0  0  0  0  0  0  0  0  0  0  0  0
   35.4600   25.7350   31.1340 C   0  0  0  0  0  0  0  0  0  0  0  0
   36.6070   24.7690   30.9920 C   0  0  2  0  0  0  0  0  0  0  0  0
   38.7470   24.9060   30.9930 H   0  0  0  0  0  0  0  0  0  0  0  0
   37.8090   25.2940   33.2580 H   0  0  0  0  0  0  0  0  0  0  0  0
   36.9400   28.0510   32.8490 H   0  0  0  0  0  0  0  0  0  0  0  0
   35.9720   26.7340   33.5030 H   0  0  0  0  0  0  0  0  0  0  0  0
   34.7240   25.4130   31.8910 H   0  0  0  0  0  0  0  0  0  0  0  0
   34.9640   25.8070   30.1510 H   0  0  0  0  0  0  0  0  0  0  0  0
   36.5930   24.2240   30.0360 H   0  0  0  0  0  0  0  0  0  0  0  0
   37.8740   26.5730   30.1900 O   0  0  0  0  0  0  0  0  0  0  0  0
   38.6620   27.1660   30.3780 H   0  0  0  0  0  0  0  0  0  0  0  0
   39.3530   27.1160   32.9080 S   0  0  0  0  0  0  0  0  0  0  0  0
   39.9530   26.7460   34.5710 C   0  0  0  0  0  0  0  0  0  0  0  0
   39.1240   26.9180   35.2690 H   0  0  0  0  0  0  0  0  0  0  0  0
   40.7620   27.4750   34.8060 H   0  0  0  0  0  0  0  0  0  0  0  0
   40.5430   25.0680   34.7670 S   0  0  0  0  0  0  0  0  0  0  0  0
   39.2540   24.0820   35.4850 C   0  0  0  0  0  0  0  0  0  0  0  0
   38.5620   24.6780   36.5230 C   0  0  0  0  0  0  0  0  0  0  0  0
   37.5290   23.9700   37.1460 C   0  0  0  0  0  0  0  0  0  0  0  0
   37.2570   22.7020   36.6840 N   0  0  0  0  0  0  0  0  0  0  0  0
   37.9700   22.1690   35.6620 C   0  0  0  0  0  0  0  0  0  0  0  0
   38.9400   22.8350   35.0770 N   0  0  0  0  0  0  0  0  0  0  0  0
   38.7820   25.6820   36.8830 H   0  0  0  0  0  0  0  0  0  0  0  0
   36.9740   24.4200   37.9610 H   0  0  0  0  0  0  0  0  0  0  0  0
   37.6380   21.1690   35.4160 H   0  0  0  0  0  0  0  0  0  0  0  0
   36.5950   23.8680   32.0450 O   0  0  0  0  0  0  0  0  0  0  0  0
   37.2740   21.8850   31.0020 C   0  0  0  0  0  3  0  0  0  0  0  0
   36.5010   22.4980   31.9930 C   0  0  0  0  0  0  0  0  0  0  0  0
   35.7470   21.6630   32.7900 C   0  0  0  0  0  0  0  0  0  0  0  0
   35.1570   22.1520   33.5510 H   0  0  0  0  0  0  0  0  0  0  0  0
   35.7600   20.2920   32.6130 C   0  0  0  0  0  0  0  0  0  0  0  0
   35.0960   19.3260   33.2860 N   0  0  0  0  0  0  0  0  0  0  0  0
   34.4360   19.4600   34.0870 H   0  0  0  0  0  0  0  0  0  0  0  0
   35.4480   18.1350   32.7270 C   0  0  0  0  0  0  0  0  0  0  0  0
   35.0600   17.1780   33.0740 H   0  0  0  0  0  0  0  0  0  0  0  0
   36.3380   18.3230   31.6920 C   0  0  0  0  0  3  0  0  0  0  0  0
   36.5310   19.6870   31.6250 C   0  0  0  0  0  0  0  0  0  0  0  0
   37.2880   20.5170   30.8220 C   0  0  0  0  0  3  0  0  0  0  0  0
  1  7  1  6  0  0  0
  1  2  1  0  0  0  0
  2  3  1  0  0  0  0
  2 16  1  0  0  0  0
  2  8  1  1  0  0  0
  3  9  1  0  0  0  0
  3 10  1  0  0  0  0
  4  3  1  0  0  0  0
  5  4  1  0  0  0  0
  5 11  1  0  0  0  0
  6 13  1  6  0  0  0
  6  5  1  0  0  0  0
  6  1  1  0  0  0  0
  6 30  1  0  0  0  0
 12  5  1  0  0  0  0
 14 15  1  0  0  0  0
 14  1  1  0  0  0  0
 16 17  1  0  0  0  0
 17 20  1  0  0  0  0
 17 19  1  0  0  0  0
 17 18  1  0  0  0  0
 20 21  1  0  0  0  0
 21 22  1  0  0  0  0
 22 27  1  0  0  0  0
 22 23  2  0  0  0  0
 23 28  1  0  0  0  0
 24 23  1  0  0  0  0
 25 24  2  0  0  0  0
 26 21  2  0  0  0  0
 26 25  1  0  0  0  0
 29 25  1  0  0  0  0
 31 32  1  0  0  0  0
 32 30  1  0  0  0  0
 32 33  2  0  0  0  0
 33 34  1  0  0  0  0
 35 33  1  0  0  0  0
 35 36  1  0  0  0  0
 36 37  1  0  0  0  0
 38 39  1  0  0  0  0
 38 36  1  0  0  0  0
 40 38  2  0  0  0  0
 41 40  1  0  0  0  0
 41 35  2  0  0  0  0
 42 31  2  0  0  0  0
 42 41  1  0  0  0  0
M  END
>  <minimizedAffinity>
-5.46829796

$$$$

 OpenBabel03262521573D

 42 45  0  0  1  0  0  0  0  0999 V2000
   35.9340   27.0960   31.6620 C   0  0  1  0  0  0  0  0  0  0  0  0
   37.3030   26.8040   32.2090 C   0  0  2  0  0  0  0  0  0  0  0  0
   38.2450   27.8100   31.6290 C   0  0  0  0  0  0  0  0  0  0  0  0
   37.6380   28.7010   30.7620 O   0  0  0  0  0  0  0  0  0  0  0  0
   36.6170   29.4200   31.3900 C   0  0  0  0  0  0  0  0  0  0  0  0
   35.5920   28.5320   32.0420 C   0  0  2  0  0  0  0  0  0  0  0  0
   35.1600   26.4310   32.0610 H   0  0  0  0  0  0  0  0  0  0  0  0
   37.2410   26.9430   33.3130 H   0  0  0  0  0  0  0  0  0  0  0  0
   39.0070   27.2660   31.0110 H   0  0  0  0  0  0  0  0  0  0  0  0
   38.8240   28.3860   32.3560 H   0  0  0  0  0  0  0  0  0  0  0  0
   37.1150   30.0950   32.1080 H   0  0  0  0  0  0  0  0  0  0  0  0
   36.0960   30.0210   30.6250 H   0  0  0  0  0  0  0  0  0  0  0  0
   34.5590   28.7910   31.7650 H   0  0  0  0  0  0  0  0  0  0  0  0
   35.9220   27.0390   30.2630 O   0  0  0  0  0  0  0  0  0  0  0  0
   36.2570   26.1270   30.0120 H   0  0  0  0  0  0  0  0  0  0  0  0
   37.8340   25.1170   31.8500 S   0  0  0  0  0  0  0  0  0  0  0  0
   36.4070   24.0110   31.7920 C   0  0  0  0  0  0  0  0  0  0  0  0
   36.1230   23.8910   30.7390 H   0  0  0  0  0  0  0  0  0  0  0  0
   35.5680   24.5180   32.3220 H   0  0  0  0  0  0  0  0  0  0  0  0
   36.7150   22.3980   32.5020 S   0  0  0  0  0  0  0  0  0  0  0  0
   37.0950   21.2560   31.1980 C   0  0  0  0  0  0  0  0  0  0  0  0
   38.3170   21.4490   30.5800 C   0  0  0  0  0  0  0  0  0  0  0  0
   38.6960   20.5930   29.5410 C   0  0  0  0  0  0  0  0  0  0  0  0
   37.8190   19.5930   29.1870 N   0  0  0  0  0  0  0  0  0  0  0  0
   36.6340   19.4520   29.8300 C   0  0  0  0  0  0  0  0  0  0  0  0
   36.2780   20.2560   30.8050 N   0  0  0  0  0  0  0  0  0  0  0  0
   39.0060   22.2420   30.8650 H   0  0  0  0  0  0  0  0  0  0  0  0
   39.6500   20.7270   29.0440 H   0  0  0  0  0  0  0  0  0  0  0  0
   36.0580   18.6230   29.4380 H   0  0  0  0  0  0  0  0  0  0  0  0
   35.7330   28.5850   33.4200 O   0  0  0  0  0  0  0  0  0  0  0  0
   36.0550   30.3120   34.9670 C   0  0  0  0  0  3  0  0  0  0  0  0
   35.1600   29.4690   34.3020 C   0  0  0  0  0  0  0  0  0  0  0  0
   33.8240   29.6250   34.6070 C   0  0  0  0  0  0  0  0  0  0  0  0
   33.1460   28.9670   34.0840 H   0  0  0  0  0  0  0  0  0  0  0  0
   33.3990   30.5680   35.5240 C   0  0  0  0  0  0  0  0  0  0  0  0
   32.1500   30.8630   35.9480 N   0  0  0  0  0  0  0  0  0  0  0  0
   31.2590   30.4090   35.6380 H   0  0  0  0  0  0  0  0  0  0  0  0
   32.2630   31.8700   36.8580 C   0  0  0  0  0  0  0  0  0  0  0  0
   31.4060   32.3100   37.3660 H   0  0  0  0  0  0  0  0  0  0  0  0
   33.5820   32.2300   37.0290 C   0  0  0  0  0  3  0  0  0  0  0  0
   34.2950   31.4040   36.1840 C   0  0  0  0  0  0  0  0  0  0  0  0
   35.6340   31.2540   35.8840 C   0  0  0  0  0  3  0  0  0  0  0  0
  1  6  1  0  0  0  0
  1  7  1  1  0  0  0
  1  2  1  0  0  0  0
  2  8  1  1  0  0  0
  3  2  1  0  0  0  0
  3 10  1  0  0  0  0
  4  5  1  0  0  0  0
  4  3  1  0  0  0  0
  5  6  1  0  0  0  0
  5 11  1  0  0  0  0
  6 13  1  6  0  0  0
  6 30  1  0  0  0  0
  9  3  1  0  0  0  0
 12  5  1  0  0  0  0
 14  1  1  0  0  0  0
 15 14  1  0  0  0  0
 16  2  1  0  0  0  0
 17 16  1  0  0  0  0
 17 19  1  0  0  0  0
 17 20  1  0  0  0  0
 18 17  1  0  0  0  0
 21 20  1  0  0  0  0
 22 27  1  0  0  0  0
 22 21  2  0  0  0  0
 23 22  1  0  0  0  0
 24 23  2  0  0  0  0
 24 25  1  0  0  0  0
 25 26  2  0  0  0  0
 26 21  1  0  0  0  0
 28 23  1  0  0  0  0
 29 25  1  0  0  0  0
 30 32  1  0  0  0  0
 31 42  1  0  0  0  0
 32 33  1  0  0  0  0
 32 31  2  0  0  0  0
 33 35  2  0  0  0  0
 34 33  1  0  0  0  0
 35 36  1  0  0  0  0
 35 41  1  0  0  0  0
 36 38  1  0  0  0  0
 37 36  1  0  0  0  0
 38 40  2  0  0  0  0
 38 39  1  0  0  0  0
 41 40  1  0  0  0  0
 42 41  2  0  0  0  0
M  END
>  <minimizedAffinity>
-5.23528099

$$$$

 OpenBabel03262521573D

 42 45  0  0  1  0  0  0  0  0999 V2000
   37.8340   24.4520   32.7000 C   0  0  1  0  0  0  0  0  0  0  0  0
   38.7820   24.2320   31.5550 C   0  0  2  0  0  0  0  0  0  0  0  0
   38.0460   23.4650   30.5020 C   0  0  0  0  0  0  0  0  0  0  0  0
   36.7440   23.1570   30.8500 O   0  0  0  0  0  0  0  0  0  0  0  0
   35.9920   24.3060   31.1100 C   0  0  0  0  0  0  0  0  0  0  0  0
   36.6230   25.1960   32.1480 C   0  0  2  0  0  0  0  0  0  0  0  0
   38.2710   25.0450   33.5120 H   0  0  0  0  0  0  0  0  0  0  0  0
   39.0490   25.2400   31.1630 H   0  0  0  0  0  0  0  0  0  0  0  0
   38.5590   22.4760   30.3620 H   0  0  0  0  0  0  0  0  0  0  0  0
   38.0330   23.9230   29.5090 H   0  0  0  0  0  0  0  0  0  0  0  0
   35.8610   24.8120   30.1380 H   0  0  0  0  0  0  0  0  0  0  0  0
   35.0060   23.9950   31.4950 H   0  0  0  0  0  0  0  0  0  0  0  0
   35.9250   25.4860   32.9460 H   0  0  0  0  0  0  0  0  0  0  0  0
   37.3590   23.2380   33.2100 O   0  0  0  0  0  0  0  0  0  0  0  0
   38.1690   22.7030   33.4690 H   0  0  0  0  0  0  0  0  0  0  0  0
   40.2840   23.3750   32.0700 S   0  0  0  0  0  0  0  0  0  0  0  0
   40.7480   23.8760   33.7410 C   0  0  0  0  0  0  0  0  0  0  0  0
   40.1060   24.7200   34.0250 H   0  0  0  0  0  0  0  0  0  0  0  0
   41.8010   24.2380   33.7040 H   0  0  0  0  0  0  0  0  0  0  0  0
   40.5740   22.5760   34.9580 S   0  0  0  0  0  0  0  0  0  0  0  0
   39.4710   23.1240   36.2360 C   0  0  0  0  0  0  0  0  0  0  0  0
   39.8820   22.8540   37.5280 C   0  0  0  0  0  0  0  0  0  0  0  0
   39.0730   23.2510   38.5960 C   0  0  0  0  0  0  0  0  0  0  0  0
   37.8950   23.8970   38.2970 N   0  0  0  0  0  0  0  0  0  0  0  0
   37.5430   24.1340   37.0100 C   0  0  0  0  0  0  0  0  0  0  0  0
   38.3040   23.7610   36.0070 N   0  0  0  0  0  0  0  0  0  0  0  0
   40.8160   22.3430   37.7580 H   0  0  0  0  0  0  0  0  0  0  0  0
   39.3780   23.0500   39.6170 H   0  0  0  0  0  0  0  0  0  0  0  0
   36.5930   24.6490   36.9380 H   0  0  0  0  0  0  0  0  0  0  0  0
   37.1400   26.3310   31.5420 O   0  0  0  0  0  0  0  0  0  0  0  0
   36.3600   28.0280   32.9530 C   0  0  0  0  0  3  0  0  0  0  0  0
   36.7080   27.6300   31.6590 C   0  0  0  0  0  0  0  0  0  0  0  0
   36.5780   28.5790   30.6670 C   0  0  0  0  0  0  0  0  0  0  0  0
   36.8510   28.2560   29.6740 H   0  0  0  0  0  0  0  0  0  0  0  0
   36.1270   29.8560   30.9460 C   0  0  0  0  0  0  0  0  0  0  0  0
   35.9360   30.9070   30.1170 N   0  0  0  0  0  0  0  0  0  0  0  0
   36.1060   30.9300   29.0840 H   0  0  0  0  0  0  0  0  0  0  0  0
   35.4790   31.9390   30.8780 C   0  0  0  0  0  0  0  0  0  0  0  0
   35.2380   32.9190   30.4680 H   0  0  0  0  0  0  0  0  0  0  0  0
   35.3710   31.5630   32.2000 C   0  0  0  0  0  3  0  0  0  0  0  0
   35.7810   30.2460   32.2350 C   0  0  0  0  0  0  0  0  0  0  0  0
   35.9090   29.3010   33.2340 C   0  0  0  0  0  3  0  0  0  0  0  0
  1 14  1  0  0  0  0
  1  7  1  1  0  0  0
  2  8  1  6  0  0  0
  2 16  1  0  0  0  0
  2  1  1  0  0  0  0
  3  4  1  0  0  0  0
  3  2  1  0  0  0  0
  4  5  1  0  0  0  0
  5 12  1  0  0  0  0
  5  6  1  0  0  0  0
  6  1  1  0  0  0  0
  6 13  1  1  0  0  0
  9  3  1  0  0  0  0
 10  3  1  0  0  0  0
 11  5  1  0  0  0  0
 14 15  1  0  0  0  0
 16 17  1  0  0  0  0
 17 18  1  0  0  0  0
 17 20  1  0  0  0  0
 19 17  1  0  0  0  0
 20 21  1  0  0  0  0
 21 22  1  0  0  0  0
 22 27  1  0  0  0  0
 22 23  2  0  0  0  0
 23 28  1  0  0  0  0
 24 23  1  0  0  0  0
 25 24  2  0  0  0  0
 26 21  2  0  0  0  0
 26 25  1  0  0  0  0
 29 25  1  0  0  0  0
 30 32  1  0  0  0  0
 30  6  1  0  0  0  0
 31 42  1  0  0  0  0
 32 31  2  0  0  0  0
 33 35  2  0  0  0  0
 33 32  1  0  0  0  0
 34 33  1  0  0  0  0
 35 41  1  0  0  0  0
 36 38  1  0  0  0  0
 36 35  1  0  0  0  0
 37 36  1  0  0  0  0
 38 40  2  0  0  0  0
 39 38  1  0  0  0  0
 40 41  1  0  0  0  0
 41 42  2  0  0  0  0
M  END
>  <minimizedAffinity>
-5.17941809

$$$$
