
 OpenBabel03272510193D

 39 43  0  0  0  0  0  0  0  0999 V2000
   32.8210   29.4280   46.7210 C   0  0  0  0  0  0  0  0  0  0  0  0
   31.9500   28.3920   46.4980 C   0  0  0  0  0  0  0  0  0  0  0  0
   30.9170   28.4680   45.5780 C   0  0  0  0  0  0  0  0  0  0  0  0
   30.7430   29.5870   44.8670 N   0  0  0  0  0  0  0  0  0  0  0  0
   31.5850   30.6060   45.0740 C   0  0  0  0  0  0  0  0  0  0  0  0
   32.5760   30.5130   45.9670 N   0  0  0  0  0  0  0  0  0  0  0  0
   32.0810   27.4690   47.0730 H   0  0  0  0  0  0  0  0  0  0  0  0
   30.2520   27.6080   45.4420 H   0  0  0  0  0  0  0  0  0  0  0  0
   31.6420   33.0980   44.9330 C   0  0  0  0  0  3  0  0  0  0  0  0
   31.4680   31.8660   44.3420 C   0  0  0  0  0  0  0  0  0  0  0  0
   31.1700   31.9190   42.9780 C   0  0  0  0  0  0  0  0  0  0  0  0
   31.0300   30.9390   42.5020 H   0  0  0  0  0  0  0  0  0  0  0  0
   31.0590   33.1010   42.2830 C   0  0  0  0  0  0  0  0  0  0  0  0
   30.7790   33.2540   40.9840 N   0  0  0  0  0  0  0  0  0  0  0  0
   30.5950   32.4960   40.2710 H   0  0  0  0  0  0  0  0  0  0  0  0
   30.7770   34.5720   40.7650 C   0  0  0  0  0  0  0  0  0  0  0  0
   30.5830   35.0340   39.8090 H   0  0  0  0  0  0  0  0  0  0  0  0
   31.0620   35.2630   41.9480 C   0  0  0  0  0  3  0  0  0  0  0  0
   31.2430   34.2980   42.9270 C   0  0  0  0  0  0  0  0  0  0  0  0
   31.5400   34.3040   44.2760 C   0  0  0  0  0  3  0  0  0  0  0  0
   37.3900   29.1650   50.8080 Br  0  0  0  0  0  0  0  0  0  0  0  0
   35.9910   29.2840   49.5200 C   0  0  0  0  0  0  0  0  0  0  0  0
   35.9890   30.2970   48.5630 C   0  0  0  0  0  0  0  0  0  0  0  0
   34.9520   30.3250   47.6660 C   0  0  0  0  0  0  0  0  0  0  0  0
   33.9190   29.3950   47.6740 C   0  0  0  0  0  0  0  0  0  0  0  0
   33.9510   28.4170   48.6240 C   0  0  0  0  0  0  0  0  0  0  0  0
   34.9840   28.3760   49.5300 C   0  0  0  0  0  0  0  0  0  0  0  0
   34.8840   31.0930   46.8830 H   0  0  0  0  0  0  0  0  0  0  0  0
   33.1810   27.6560   48.6950 H   0  0  0  0  0  0  0  0  0  0  0  0
   35.0020   27.6030   50.2740 H   0  0  0  0  0  0  0  0  0  0  0  0
   38.0220   33.1880   49.4880 C   0  0  0  0  0  0  0  0  0  0  0  0
   39.0530   33.1930   48.5030 C   0  0  0  0  0  0  0  0  0  0  0  0
   39.0260   32.2000   47.5430 C   0  0  0  0  0  0  0  0  0  0  0  0
   38.0230   31.2730   47.5820 N   0  0  0  0  0  0  0  0  0  0  0  0
   37.0540   31.2850   48.5250 C   0  0  0  0  0  0  0  0  0  0  0  0
   37.0710   32.2530   49.4710 N   0  0  0  0  0  0  0  0  0  0  0  0
   38.0870   33.9820   50.2160 H   0  0  0  0  0  0  0  0  0  0  0  0
   39.8540   33.9030   48.4410 H   0  0  0  0  0  0  0  0  0  0  0  0
   39.7420   32.0890   46.7450 H   0  0  0  0  0  0  0  0  0  0  0  0
  1 25  1  0  0  0  0
  2  1  1  0  0  0  0
  2  7  1  0  0  0  0
  3  2  2  0  0  0  0
  4  5  2  0  0  0  0
  4  3  1  0  0  0  0
  5  6  1  0  0  0  0
  6  1  2  0  0  0  0
  8  3  1  0  0  0  0
 10  9  1  0  0  0  0
 10  5  1  0  0  0  0
 11 10  2  0  0  0  0
 12 11  1  0  0  0  0
 13 19  2  0  0  0  0
 13 11  1  0  0  0  0
 14 13  1  0  0  0  0
 15 14  1  0  0  0  0
 16 14  1  0  0  0  0
 16 18  2  0  0  0  0
 17 16  1  0  0  0  0
 18 19  1  0  0  0  0
 19 20  1  0  0  0  0
 20  9  2  0  0  0  0
 22 27  1  0  0  0  0
 22 21  1  0  0  0  0
 23 22  2  0  0  0  0
 24 25  2  0  0  0  0
 24 23  1  0  0  0  0
 25 26  1  0  0  0  0
 26 29  1  0  0  0  0
 26 27  2  0  0  0  0
 27 30  1  0  0  0  0
 28 24  1  0  0  0  0
 31 37  1  0  0  0  0
 32 31  2  0  0  0  0
 33 34  2  0  0  0  0
 33 32  1  0  0  0  0
 34 35  1  0  0  0  0
 35 23  1  0  0  0  0
 35 36  2  0  0  0  0
 36 31  1  0  0  0  0
 38 32  1  0  0  0  0
 39 33  1  0  0  0  0
M  END
>  <minimizedAffinity>
-7.08894157

>  <minimizedRMSD>
0.8056283

$$$$
