
 OpenBabel03272510193D

 39 43  0  0  0  0  0  0  0  0999 V2000
   32.8180   29.2980   46.7980 C   0  0  0  0  0  0  0  0  0  0  0  0
   31.9360   28.2600   46.6350 C   0  0  0  0  0  0  0  0  0  0  0  0
   30.8960   28.2980   45.7200 C   0  0  0  0  0  0  0  0  0  0  0  0
   30.7260   29.3800   44.9550 N   0  0  0  0  0  0  0  0  0  0  0  0
   31.5800   30.4000   45.1020 C   0  0  0  0  0  0  0  0  0  0  0  0
   32.5770   30.3440   45.9910 N   0  0  0  0  0  0  0  0  0  0  0  0
   32.0630   27.3660   47.2570 H   0  0  0  0  0  0  0  0  0  0  0  0
   30.2220   27.4390   45.6340 H   0  0  0  0  0  0  0  0  0  0  0  0
   30.2630   32.2250   44.0190 C   0  0  0  0  0  3  0  0  0  0  0  0
   31.4680   31.6220   44.3070 C   0  0  0  0  0  0  0  0  0  0  0  0
   32.5810   32.2760   43.7750 C   0  0  0  0  0  0  0  0  0  0  0  0
   33.5440   31.8000   44.0010 H   0  0  0  0  0  0  0  0  0  0  0  0
   32.4840   33.4270   43.0240 C   0  0  0  0  0  0  0  0  0  0  0  0
   33.4860   34.1230   42.4750 N   0  0  0  0  0  0  0  0  0  0  0  0
   34.5200   33.9100   42.5220 H   0  0  0  0  0  0  0  0  0  0  0  0
   32.9110   35.1530   41.8480 C   0  0  0  0  0  0  0  0  0  0  0  0
   33.4470   35.9110   41.2980 H   0  0  0  0  0  0  0  0  0  0  0  0
   31.5220   35.1060   42.0040 C   0  0  0  0  0  3  0  0  0  0  0  0
   31.2550   33.9800   42.7700 C   0  0  0  0  0  0  0  0  0  0  0  0
   30.1210   33.3740   43.2730 C   0  0  0  0  0  3  0  0  0  0  0  0
   37.4190   29.1980   50.8550 Br  0  0  0  0  0  0  0  0  0  0  0  0
   36.0100   29.2660   49.5750 C   0  0  0  0  0  0  0  0  0  0  0  0
   35.9890   30.2530   48.5910 C   0  0  0  0  0  0  0  0  0  0  0  0
   34.9450   30.2440   47.7020 C   0  0  0  0  0  0  0  0  0  0  0  0
   33.9230   29.3030   47.7430 C   0  0  0  0  0  0  0  0  0  0  0  0
   33.9740   28.3510   48.7190 C   0  0  0  0  0  0  0  0  0  0  0  0
   35.0130   28.3470   49.6180 C   0  0  0  0  0  0  0  0  0  0  0  0
   34.8620   30.9900   46.9000 H   0  0  0  0  0  0  0  0  0  0  0  0
   33.2130   27.5830   48.8170 H   0  0  0  0  0  0  0  0  0  0  0  0
   35.0460   27.5950   50.3820 H   0  0  0  0  0  0  0  0  0  0  0  0
   38.0090   33.1770   49.4370 C   0  0  0  0  0  0  0  0  0  0  0  0
   39.0190   33.1800   48.4300 C   0  0  0  0  0  0  0  0  0  0  0  0
   38.9820   32.1750   47.4840 C   0  0  0  0  0  0  0  0  0  0  0  0
   37.9910   31.2370   47.5560 N   0  0  0  0  0  0  0  0  0  0  0  0
   37.0420   31.2520   48.5190 C   0  0  0  0  0  0  0  0  0  0  0  0
   37.0680   32.2310   49.4520 N   0  0  0  0  0  0  0  0  0  0  0  0
   38.0810   33.9810   50.1540 H   0  0  0  0  0  0  0  0  0  0  0  0
   39.8110   33.8980   48.3420 H   0  0  0  0  0  0  0  0  0  0  0  0
   39.6830   32.0620   46.6720 H   0  0  0  0  0  0  0  0  0  0  0  0
  1 25  1  0  0  0  0
  2  1  1  0  0  0  0
  2  7  1  0  0  0  0
  3  2  2  0  0  0  0
  4  5  2  0  0  0  0
  4  3  1  0  0  0  0
  5  6  1  0  0  0  0
  6  1  2  0  0  0  0
  8  3  1  0  0  0  0
  9 10  1  0  0  0  0
 10  5  1  0  0  0  0
 11 12  1  0  0  0  0
 11 10  2  0  0  0  0
 13 11  1  0  0  0  0
 14 15  1  0  0  0  0
 14 13  1  0  0  0  0
 16 18  2  0  0  0  0
 16 14  1  0  0  0  0
 17 16  1  0  0  0  0
 18 19  1  0  0  0  0
 19 13  2  0  0  0  0
 19 20  1  0  0  0  0
 20  9  2  0  0  0  0
 22 27  1  0  0  0  0
 22 21  1  0  0  0  0
 23 22  2  0  0  0  0
 24 25  2  0  0  0  0
 24 23  1  0  0  0  0
 25 26  1  0  0  0  0
 26 29  1  0  0  0  0
 26 27  2  0  0  0  0
 27 30  1  0  0  0  0
 28 24  1  0  0  0  0
 31 36  1  0  0  0  0
 31 37  1  0  0  0  0
 32 31  2  0  0  0  0
 33 34  2  0  0  0  0
 33 32  1  0  0  0  0
 34 35  1  0  0  0  0
 35 23  1  0  0  0  0
 35 36  2  0  0  0  0
 38 32  1  0  0  0  0
 39 33  1  0  0  0  0
M  END
>  <minimizedAffinity>
-6.96117353

>  <minimizedRMSD>
0.61335808

$$$$
