REMARK  Name = 
REMARK  5 active torsions:
REMARK  status: ('A' for Active; 'I' for Inactive)
REMARK    1  A    between atoms: C_1  and  C_2
REMARK    2  A    between atoms: C_1  and  O_9
REMARK    3  A    between atoms: C_2  and  C_3
REMARK    4  A    between atoms: O_9  and  C_14
REMARK    5  A    between atoms: C_12  and  C_26
REMARK                            x       y       z     vdW  Elec       q    Type
REMARK                         _______ _______ _______ _____ _____    ______ ____
ROOT
ATOM      1  C   UNL     1      37.230  30.188  51.292  0.00  0.00    +0.000 A 
ATOM      2  C   UNL     1      37.906  30.616  50.138  0.00  0.00    +0.000 A 
ATOM      3  C   UNL     1      37.439  30.218  48.905  0.00  0.00    +0.000 A 
ATOM      4  N   UNL     1      36.329  29.419  48.878  0.00  0.00    +0.000 NA
ATOM      5  C   UNL     1      35.695  29.019  49.997  0.00  0.00    +0.000 A 
ATOM      6  N   UNL     1      36.159  29.414  51.204  0.00  0.00    +0.000 NA
ATOM      7  H   UNL     1      37.583  30.492  52.261  0.00  0.00    +0.000 HD
ATOM      8  H   UNL     1      38.762  31.235  50.205  0.00  0.00    +0.000 HD
ENDROOT
BRANCH   3  10
ATOM      9  C   UNL     1      38.791  29.636  46.985  0.00  0.00    +0.000 A 
ATOM     10  C   UNL     1      38.056  30.597  47.638  0.00  0.00    +0.000 A 
ATOM     11  C   UNL     1      37.914  31.840  47.122  0.00  0.00    +0.000 A 
ATOM     12  H   UNL     1      37.357  32.610  47.593  0.00  0.00    +0.000 HD
ATOM     13  C   UNL     1      38.497  32.192  45.930  0.00  0.00    +0.000 A 
ATOM     14  N   UNL     1      38.524  33.327  45.196  0.00  0.00    +0.000 N 
ATOM     15  H   UNL     1      38.044  34.208  45.469  0.00  0.00    +0.000 HD
ATOM     16  C   UNL     1      39.246  33.177  44.074  0.00  0.00    +0.000 A 
ATOM     17  H   UNL     1      39.400  33.955  43.343  0.00  0.00    +0.000 HD
ATOM     18  C   UNL     1      39.712  31.878  44.078  0.00  0.00    +0.000 A 
ATOM     19  C   UNL     1      39.253  31.263  45.222  0.00  0.00    +0.000 A 
ATOM     20  C   UNL     1      39.381  29.992  45.777  0.00  0.00    +0.000 A 
ENDBRANCH   3  10
BRANCH   5  21
ATOM     21  O   UNL     1      34.606  28.224  49.759  0.00  0.00    +0.000 OA
BRANCH  21  22
ATOM     22  C   UNL     1      33.726  28.606  48.701  0.00  0.00    +0.000 C 
ATOM     23  H   UNL     1      34.352  28.969  47.878  0.00  0.00    +0.000 HD
ATOM     24  H   UNL     1      33.071  29.440  49.074  0.00  0.00    +0.000 HD
BRANCH  22  25
ATOM     25  C   UNL     1      32.816  27.462  48.343  0.00  0.00    +0.000 C 
ATOM     26  H   UNL     1      32.968  26.576  48.979  0.00  0.00    +0.000 HD
ATOM     27  H   UNL     1      33.065  27.194  47.288  0.00  0.00    +0.000 HD
BRANCH  25  28
ATOM     28  C   UNL     1      31.382  27.860  48.350  0.00  0.00    +0.000 A 
ATOM     29  C   UNL     1      30.699  27.721  49.532  0.00  0.00    +0.000 A 
ATOM     30  C   UNL     1      29.366  28.061  49.648  0.00  0.00    +0.000 A 
ATOM     31  N   UNL     1      28.718  28.539  48.584  0.00  0.00    +0.000 NA
ATOM     32  C   UNL     1      29.390  28.674  47.426  0.00  0.00    +0.000 A 
ATOM     33  N   UNL     1      30.688  28.351  47.285  0.00  0.00    +0.000 NA
ATOM     34  H   UNL     1      31.147  27.345  50.433  0.00  0.00    +0.000 HD
ATOM     35  H   UNL     1      28.823  27.948  50.597  0.00  0.00    +0.000 HD
ATOM     36  H   UNL     1      28.843  29.063  46.579  0.00  0.00    +0.000 HD
ENDBRANCH  25  28
ENDBRANCH  22  25
ENDBRANCH  21  22
ENDBRANCH   5  21
TORSDOF 5
