
 OpenBabel03272507283D

 38 40  0  0  1  0  0  0  0  0999 V2000
   34.9740   29.9500   47.6490 C   0  0  0  0  0  0  0  0  0  0  0  0
   35.7110   30.4910   46.5740 C   0  0  0  0  0  0  0  0  0  0  0  0
   35.5090   29.9230   45.3170 C   0  0  0  0  0  0  0  0  0  0  0  0
   34.6390   28.9060   45.1910 N   0  0  0  0  0  0  0  0  0  0  0  0
   33.9500   28.4130   46.2400 C   0  0  0  0  0  0  0  0  0  0  0  0
   34.1170   28.9310   47.4560 N   0  0  0  0  0  0  0  0  0  0  0  0
   36.1930   30.4000   44.2040 N   0  0  0  0  0  0  0  0  0  0  0  0
   36.6190   31.8090   43.9880 C   0  0  0  0  0  0  0  0  0  0  0  0
   37.0910   31.9350   42.6000 C   0  0  0  0  0  0  0  0  0  0  0  0
   36.5120   30.7630   41.9340 C   0  0  0  0  0  0  0  0  0  0  0  0
   36.6330   29.7490   43.0130 C   0  0  2  0  0  0  0  0  0  0  0  0
   35.2140   30.4750   48.5810 H   0  0  0  0  0  0  0  0  0  0  0  0
   36.4110   31.2970   46.6270 H   0  0  0  0  0  0  0  0  0  0  0  0
   33.2380   27.6030   46.2180 H   0  0  0  0  0  0  0  0  0  0  0  0
   35.5480   32.3010   44.0390 H   0  0  0  0  0  0  0  0  0  0  0  0
   37.0940   32.2930   44.8030 H   0  0  0  0  0  0  0  0  0  0  0  0
   36.4380   32.8090   42.1640 H   0  0  0  0  0  0  0  0  0  0  0  0
   38.0570   32.3070   42.3640 H   0  0  0  0  0  0  0  0  0  0  0  0
   35.4670   30.8700   41.6340 H   0  0  0  0  0  0  0  0  0  0  0  0
   37.0990   30.4730   41.0210 H   0  0  0  0  0  0  0  0  0  0  0  0
   35.8520   28.4880   42.6490 C   0  0  0  0  0  0  0  0  0  0  0  0
   34.5030   28.7850   42.7230 F   0  0  0  0  0  0  0  0  0  0  0  0
   36.0590   27.4130   43.4620 F   0  0  0  0  0  0  0  0  0  0  0  0
   36.1150   28.2290   41.3230 F   0  0  0  0  0  0  0  0  0  0  0  0
   37.9970   29.3350   43.2250 C   0  0  2  0  0  0  0  0  0  0  0  0
   38.0530   28.4700   43.8740 H   0  0  0  0  0  0  0  0  0  0  0  0
   38.9260   30.2490   44.0710 C   0  0  0  0  0  0  0  0  0  0  0  0
   39.1790   30.2620   45.4850 C   0  0  0  0  0  0  0  0  0  0  0  0
   38.5230   29.5820   45.9910 H   0  0  0  0  0  0  0  0  0  0  0  0
   40.1470   31.0800   45.9360 C   0  0  0  0  0  3  0  0  0  0  0  0
   40.8760   31.8900   45.0100 C   0  0  0  0  0  3  0  0  0  0  0  0
   40.2070   31.5260   43.4060 S   0  0  0  0  0  0  0  0  0  0  0  0
   38.5940   29.3910   42.1210 O   0  0  0  0  0  0  0  0  0  0  0  0
   39.4000   28.6570   41.3380 C   0  0  0  0  0  0  0  0  0  0  0  0
   39.2640   28.9330   40.1420 O   0  0  0  0  0  0  0  0  0  0  0  0
   40.4040   27.6530   41.2470 N   0  0  0  0  0  0  0  0  0  0  0  0
   40.1830   26.6420   41.0250 H   0  0  0  0  0  0  0  0  0  0  0  0
   41.3430   28.0560   41.4260 H   0  0  0  0  0  0  0  0  0  0  0  0
  1 12  1  0  0  0  0
  2 13  1  0  0  0  0
  2  1  2  0  0  0  0
  3  2  1  0  0  0  0
  4  3  2  0  0  0  0
  4  5  1  0  0  0  0
  5  6  2  0  0  0  0
  6  1  1  0  0  0  0
  7  3  1  0  0  0  0
  8 15  1  0  0  0  0
  8  7  1  0  0  0  0
  8 16  1  0  0  0  0
  9  8  1  0  0  0  0
 10  9  1  0  0  0  0
 10 11  1  0  0  0  0
 11 21  1  6  0  0  0
 11 25  1  0  0  0  0
 11  7  1  0  0  0  0
 14  5  1  0  0  0  0
 17  9  1  0  0  0  0
 18  9  1  0  0  0  0
 19 10  1  0  0  0  0
 20 10  1  0  0  0  0
 21 22  1  0  0  0  0
 21 23  1  0  0  0  0
 24 21  1  0  0  0  0
 25 26  1  1  0  0  0
 25 27  1  0  0  0  0
 27 28  2  0  0  0  0
 28 30  1  0  0  0  0
 28 29  1  0  0  0  0
 31 30  2  0  0  0  0
 32 27  1  0  0  0  0
 32 31  1  0  0  0  0
 33 25  1  0  0  0  0
 34 33  1  0  0  0  0
 35 34  2  0  0  0  0
 36 34  1  0  0  0  0
 36 38  1  0  0  0  0
 37 36  1  0  0  0  0
M  END
>  <minimizedAffinity>
-3.7145009

>  <minimizedRMSD>
3.0662539

$$$$
