
 OpenBabel03272504213D

 36 38  0  0  1  0  0  0  0  0999 V2000
   36.8300   31.5860   48.6220 O   0  0  0  0  0  0  0  0  0  0  0  0
   38.8790   32.3880   47.8490 C   0  0  2  0  0  0  0  0  0  0  0  0
   38.1870   31.3850   48.7460 C   0  0  1  0  0  0  0  0  0  0  0  0
   38.6670   31.9320   50.0930 C   0  0  0  0  0  0  0  0  0  0  0  0
   38.3410   33.2780   49.9580 O   0  0  0  0  0  0  0  0  0  0  0  0
   38.6550   33.6540   48.6750 C   0  0  0  0  0  0  0  0  0  0  0  0
   39.9410   32.1420   47.7610 H   0  0  0  0  0  0  0  0  0  0  0  0
   38.5170   30.3450   48.5920 H   0  0  0  0  0  0  0  0  0  0  0  0
   39.7390   31.7490   50.2060 H   0  0  0  0  0  0  0  0  0  0  0  0
   38.0350   31.4630   50.8560 H   0  0  0  0  0  0  0  0  0  0  0  0
   39.5910   34.2610   48.6240 H   0  0  0  0  0  0  0  0  0  0  0  0
   37.8650   34.2960   48.2130 H   0  0  0  0  0  0  0  0  0  0  0  0
   38.1990   32.4180   46.6360 O   0  0  0  0  0  0  0  0  0  0  0  0
   38.8690   31.8120   45.5470 C   0  0  0  0  0  0  0  0  0  0  0  0
   38.2970   30.9600   44.5970 C   0  0  0  0  0  0  0  0  0  0  0  0
   37.2490   30.7220   44.6740 H   0  0  0  0  0  0  0  0  0  0  0  0
   39.0790   30.4540   43.6020 C   0  0  0  0  0  3  0  0  0  0  0  0
   40.4750   30.8190   43.5660 C   0  0  0  0  0  3  0  0  0  0  0  0
   40.6760   31.8880   44.9570 S   0  0  0  0  0  0  0  0  0  0  0  0
   35.9020   29.8250   46.9510 O   0  0  0  0  0  0  0  0  0  0  0  0
   35.9660   30.1620   48.4220 P   0  0  1  0  0  0  0  0  0  0  0  0
   36.7590   28.8800   49.2220 O   0  0  0  0  0  0  0  0  0  0  0  0
   37.4570   29.1950   49.8460 H   0  0  0  0  0  0  0  0  0  0  0  0
   34.3970   30.3360   49.0540 O   0  0  0  0  0  0  0  0  0  0  0  0
   34.1310   29.1960   49.7870 C   0  0  0  0  0  0  0  0  0  0  0  0
   33.6220   29.4670   50.7560 H   0  0  0  0  0  0  0  0  0  0  0  0
   35.0430   28.6560   50.1070 H   0  0  0  0  0  0  0  0  0  0  0  0
   33.2680   28.2250   49.0820 C   0  0  0  0  0  0  0  0  0  0  0  0
   33.8960   27.3300   48.2480 C   0  0  0  0  0  0  0  0  0  0  0  0
   33.1370   26.3870   47.5530 C   0  0  0  0  0  0  0  0  0  0  0  0
   31.7870   26.4130   47.7480 N   0  0  0  0  0  0  0  0  0  0  0  0
   31.1950   27.3000   48.5700 C   0  0  0  0  0  0  0  0  0  0  0  0
   31.9330   28.2130   49.2430 N   0  0  0  0  0  0  0  0  0  0  0  0
   34.9450   27.2320   48.0300 H   0  0  0  0  0  0  0  0  0  0  0  0
   33.5300   25.6520   46.8850 H   0  0  0  0  0  0  0  0  0  0  0  0
   30.1220   27.2320   48.6520 H   0  0  0  0  0  0  0  0  0  0  0  0
  1  3  1  0  0  0  0
  2  7  1  6  0  0  0
  2  6  1  0  0  0  0
  2  3  1  0  0  0  0
  3  8  1  6  0  0  0
  3  4  1  0  0  0  0
  4  9  1  0  0  0  0
  4 10  1  0  0  0  0
  5  4  1  0  0  0  0
  6  5  1  0  0  0  0
 11  6  1  0  0  0  0
 12  6  1  0  0  0  0
 13  2  1  0  0  0  0
 14 13  1  0  0  0  0
 15 16  1  0  0  0  0
 15 14  2  0  0  0  0
 17 15  1  0  0  0  0
 18 17  2  0  0  0  0
 18 19  1  0  0  0  0
 19 14  1  0  0  0  0
 21 20  2  6  0  0  0
 21  1  1  0  0  0  0
 21 24  1  0  0  0  0
 21 22  1  0  0  0  0
 22 23  1  0  0  0  0
 24 25  1  0  0  0  0
 25 27  1  0  0  0  0
 25 26  1  0  0  0  0
 28 33  1  0  0  0  0
 28 25  1  0  0  0  0
 29 28  2  0  0  0  0
 30 31  2  0  0  0  0
 30 29  1  0  0  0  0
 31 32  1  0  0  0  0
 32 36  1  0  0  0  0
 32 33  2  0  0  0  0
 34 29  1  0  0  0  0
 35 30  1  0  0  0  0
M  END
>  <minimizedAffinity>
-4.54012871

>  <minimizedRMSD>
0.385020733

$$$$
