
 OpenBabel03272504003D

 28 30  0  0  0  0  0  0  0  0999 V2000
   36.6020   31.3870   50.2360 C   0  0  0  0  0  0  0  0  0  0  0  0
   35.8000   32.1660   50.0840 H   0  0  0  0  0  0  0  0  0  0  0  0
   37.0060   31.7140   51.2550 H   0  0  0  0  0  0  0  0  0  0  0  0
   37.5530   31.6970   49.1690 C   0  0  0  0  0  0  0  0  0  0  0  0
   38.3000   32.8520   49.2270 C   0  0  0  0  0  0  0  0  0  0  0  0
   39.0780   32.9310   48.1010 C   0  0  0  0  0  0  0  0  0  0  0  0
   38.8040   31.8440   47.3800 N   0  0  0  0  0  0  0  0  0  0  0  0
   37.8870   31.1130   48.0370 N   0  0  0  0  0  0  0  0  0  0  0  0
   38.3470   33.6370   49.9830 H   0  0  0  0  0  0  0  0  0  0  0  0
   39.7860   33.6910   47.8010 H   0  0  0  0  0  0  0  0  0  0  0  0
   39.3940   31.4890   46.0850 C   0  0  0  0  0  0  0  0  0  0  0  0
   38.9840   30.4070   45.3370 C   0  0  0  0  0  0  0  0  0  0  0  0
   38.1930   29.7450   45.6600 H   0  0  0  0  0  0  0  0  0  0  0  0
   39.5650   30.1310   44.1530 C   0  0  0  0  0  0  0  0  0  0  0  0
   40.6250   30.9750   43.6650 C   0  0  0  0  0  0  0  0  0  0  0  0
   40.7340   32.2510   45.0890 S   0  0  0  0  0  0  0  0  0  0  0  0
   36.1720   29.9920   50.3230 C   0  0  0  0  0  0  0  0  0  0  0  0
   35.7510   29.7630   51.3500 H   0  0  0  0  0  0  0  0  0  0  0  0
   37.0880   29.3260   50.2970 H   0  0  0  0  0  0  0  0  0  0  0  0
   35.2290   29.4850   49.3670 C   0  0  0  0  0  0  0  0  0  0  0  0
   34.6460   30.2850   48.4290 C   0  0  0  0  0  0  0  0  0  0  0  0
   33.7260   29.7900   47.4950 C   0  0  0  0  0  0  0  0  0  0  0  0
   33.4670   28.4360   47.6100 N   0  0  0  0  0  0  0  0  0  0  0  0
   34.0500   27.6530   48.5430 C   0  0  0  0  0  0  0  0  0  0  0  0
   34.9410   28.1970   49.4270 N   0  0  0  0  0  0  0  0  0  0  0  0
   34.7690   31.3400   48.2460 H   0  0  0  0  0  0  0  0  0  0  0  0
   33.2140   30.3280   46.7230 H   0  0  0  0  0  0  0  0  0  0  0  0
   33.7950   26.6110   48.5640 H   0  0  0  0  0  0  0  0  0  0  0  0
  1 17  1  0  0  0  0
  1  3  1  0  0  0  0
  2  1  1  0  0  0  0
  4  5  1  0  0  0  0
  4  1  1  0  0  0  0
  5  9  1  0  0  0  0
  6  5  2  0  0  0  0
  7  8  1  0  0  0  0
  7  6  1  0  0  0  0
  8  4  2  0  0  0  0
 10  6  1  0  0  0  0
 11  7  1  0  0  0  0
 12 13  1  0  0  0  0
 12 11  2  0  0  0  0
 14 12  1  0  0  0  0
 15 14  2  0  0  0  0
 15 16  1  0  0  0  0
 16 11  1  0  0  0  0
 17 18  1  0  0  0  0
 19 17  1  0  0  0  0
 20 25  1  0  0  0  0
 20 17  1  0  0  0  0
 21 20  2  0  0  0  0
 22 23  2  0  0  0  0
 22 21  1  0  0  0  0
 23 24  1  0  0  0  0
 24 28  1  0  0  0  0
 24 25  2  0  0  0  0
 26 21  1  0  0  0  0
 27 22  1  0  0  0  0
M  END
>  <minimizedAffinity>
-5.44457006

>  <minimizedRMSD>
6.83524227

$$$$
