
 OpenBabel03262520283D

 17 18  0  0  0  0  0  0  0  0999 V2000
   38.4430   32.6110   49.5600 C   0  0  0  0  0  0  0  0  0  0  0  0
   38.9200   32.9630   48.2910 C   0  0  0  0  0  0  0  0  0  0  0  0
   38.3630   32.3330   47.1810 C   0  0  0  0  0  0  0  0  0  0  0  0
   37.3790   31.4010   47.3840 N   0  0  0  0  0  0  0  0  0  0  0  0
   36.9580   31.0990   48.6180 C   0  0  0  0  0  0  0  0  0  0  0  0
   37.4730   31.6870   49.6940 N   0  0  0  0  0  0  0  0  0  0  0  0
   38.8590   32.7050   45.9120 N   0  0  0  0  0  0  0  0  0  0  0  0
   38.8250   33.0550   50.4680 H   0  0  0  0  0  0  0  0  0  0  0  0
   39.6920   33.7000   48.1980 H   0  0  0  0  0  0  0  0  0  0  0  0
   39.0530   32.1660   45.0600 H   0  0  0  0  0  0  0  0  0  0  0  0
   39.0980   33.7050   45.7330 H   0  0  0  0  0  0  0  0  0  0  0  0
   35.8640   30.0550   48.7460 C   0  0  0  0  0  0  0  0  0  0  0  0
   35.7760   29.0070   49.5670 C   0  0  0  0  0  0  0  0  0  0  0  0
   36.6140   28.8500   50.2750 H   0  0  0  0  0  0  0  0  0  0  0  0
   34.6890   28.2380   49.4680 C   0  0  0  0  0  0  0  0  0  0  0  0
   33.7600   28.5490   48.5670 C   0  0  0  0  0  0  0  0  0  0  0  0
   34.4040   30.0070   47.7820 S   0  0  0  0  0  0  0  0  0  0  0  0
  1  6  1  0  0  0  0
  1  8  1  0  0  0  0
  2  1  2  0  0  0  0
  3  4  2  0  0  0  0
  3  2  1  0  0  0  0
  4  5  1  0  0  0  0
  5 12  1  0  0  0  0
  5  6  2  0  0  0  0
  7  3  1  0  0  0  0
  9  2  1  0  0  0  0
 10  7  1  0  0  0  0
 11  7  1  0  0  0  0
 12 13  2  0  0  0  0
 13 14  1  0  0  0  0
 15 13  1  0  0  0  0
 16 15  2  0  0  0  0
 17 16  1  0  0  0  0
 17 12  1  0  0  0  0
M  END
>  <minimizedAffinity>
-4.66514587

>  <minimizedRMSD>
2.81681442

$$$$
