
 OpenBabel03272504213D

 36 38  0  0  1  0  0  0  0  0999 V2000
   36.8350   31.5890   48.6710 O   0  0  0  0  0  0  0  0  0  0  0  0
   38.8500   32.4180   47.8410 C   0  0  2  0  0  0  0  0  0  0  0  0
   38.1970   31.3930   48.7410 C   0  0  1  0  0  0  0  0  0  0  0  0
   38.7220   31.9160   50.0810 C   0  0  0  0  0  0  0  0  0  0  0  0
   38.3840   33.2630   49.9850 O   0  0  0  0  0  0  0  0  0  0  0  0
   38.6490   33.6660   48.6990 C   0  0  0  0  0  0  0  0  0  0  0  0
   39.9100   32.1810   47.7090 H   0  0  0  0  0  0  0  0  0  0  0  0
   38.5260   30.3590   48.5550 H   0  0  0  0  0  0  0  0  0  0  0  0
   39.7990   31.7380   50.1510 H   0  0  0  0  0  0  0  0  0  0  0  0
   38.1210   31.4280   50.8560 H   0  0  0  0  0  0  0  0  0  0  0  0
   39.5800   34.2800   48.6270 H   0  0  0  0  0  0  0  0  0  0  0  0
   37.8390   34.3120   48.2790 H   0  0  0  0  0  0  0  0  0  0  0  0
   38.1260   32.4680   46.6540 O   0  0  0  0  0  0  0  0  0  0  0  0
   38.8060   31.9980   45.5050 C   0  0  0  0  0  0  0  0  0  0  0  0
   39.4330   32.7900   44.5380 C   0  0  0  0  0  0  0  0  0  0  0  0
   39.4140   33.8610   44.6470 H   0  0  0  0  0  0  0  0  0  0  0  0
   40.0500   32.1860   43.4830 C   0  0  0  0  0  3  0  0  0  0  0  0
   40.0320   30.7450   43.4050 C   0  0  0  0  0  3  0  0  0  0  0  0
   39.1340   30.2470   44.8410 S   0  0  0  0  0  0  0  0  0  0  0  0
   35.9320   29.8470   46.9660 O   0  0  0  0  0  0  0  0  0  0  0  0
   35.9740   30.1670   48.4410 P   0  0  1  0  0  0  0  0  0  0  0  0
   36.7560   28.8750   49.2370 O   0  0  0  0  0  0  0  0  0  0  0  0
   37.4450   29.1830   49.8750 H   0  0  0  0  0  0  0  0  0  0  0  0
   34.3960   30.3330   49.0520 O   0  0  0  0  0  0  0  0  0  0  0  0
   34.1280   29.1940   49.7850 C   0  0  0  0  0  0  0  0  0  0  0  0
   33.6140   29.4650   50.7510 H   0  0  0  0  0  0  0  0  0  0  0  0
   35.0380   28.6540   50.1090 H   0  0  0  0  0  0  0  0  0  0  0  0
   33.2680   28.2210   49.0770 C   0  0  0  0  0  0  0  0  0  0  0  0
   33.8990   27.3310   48.2410 C   0  0  0  0  0  0  0  0  0  0  0  0
   33.1430   26.3880   47.5430 C   0  0  0  0  0  0  0  0  0  0  0  0
   31.7930   26.4090   47.7370 N   0  0  0  0  0  0  0  0  0  0  0  0
   31.1980   27.2910   48.5620 C   0  0  0  0  0  0  0  0  0  0  0  0
   31.9330   28.2050   49.2380 N   0  0  0  0  0  0  0  0  0  0  0  0
   34.9490   27.2370   48.0220 H   0  0  0  0  0  0  0  0  0  0  0  0
   33.5380   25.6560   46.8720 H   0  0  0  0  0  0  0  0  0  0  0  0
   30.1250   27.2200   48.6430 H   0  0  0  0  0  0  0  0  0  0  0  0
  1  3  1  0  0  0  0
  2  7  1  6  0  0  0
  2  6  1  0  0  0  0
  2  3  1  0  0  0  0
  3  8  1  6  0  0  0
  3  4  1  0  0  0  0
  4  9  1  0  0  0  0
  4 10  1  0  0  0  0
  5  4  1  0  0  0  0
  6  5  1  0  0  0  0
 11  6  1  0  0  0  0
 12  6  1  0  0  0  0
 13  2  1  0  0  0  0
 14 13  1  0  0  0  0
 15 16  1  0  0  0  0
 15 14  2  0  0  0  0
 17 15  1  0  0  0  0
 18 17  2  0  0  0  0
 18 19  1  0  0  0  0
 19 14  1  0  0  0  0
 21 20  2  6  0  0  0
 21  1  1  0  0  0  0
 21 24  1  0  0  0  0
 21 22  1  0  0  0  0
 22 23  1  0  0  0  0
 24 25  1  0  0  0  0
 25 27  1  0  0  0  0
 25 26  1  0  0  0  0
 28 33  1  0  0  0  0
 28 25  1  0  0  0  0
 29 28  2  0  0  0  0
 30 31  2  0  0  0  0
 30 29  1  0  0  0  0
 31 32  1  0  0  0  0
 32 36  1  0  0  0  0
 32 33  2  0  0  0  0
 34 29  1  0  0  0  0
 35 30  1  0  0  0  0
M  END
>  <minimizedAffinity>
-4.59216213

>  <minimizedRMSD>
0.240218416

$$$$
