
 OpenBabel03272510133D

 38 41  0  0  0  0  0  0  0  0999 V2000
   37.5850   30.7770   49.7610 O   0  0  0  0  0  0  0  0  0  0  0  0
   34.0800   28.8840   48.3990 C   0  0  0  0  0  0  0  0  0  0  0  0
   34.8260   28.3510   49.4090 C   0  0  0  0  0  0  0  0  0  0  0  0
   35.9730   28.9110   49.9010 C   0  0  0  0  0  0  0  0  0  0  0  0
   36.4480   30.0800   49.3840 C   0  0  0  0  0  0  0  0  0  0  0  0
   35.6950   30.6380   48.3480 C   0  0  0  0  0  0  0  0  0  0  0  0
   34.5700   30.0600   47.8880 N   0  0  0  0  0  0  0  0  0  0  0  0
   34.5120   27.4260   49.8690 H   0  0  0  0  0  0  0  0  0  0  0  0
   36.5600   28.4800   50.7040 H   0  0  0  0  0  0  0  0  0  0  0  0
   36.0000   31.5660   47.8810 H   0  0  0  0  0  0  0  0  0  0  0  0
   32.0550   27.4490   48.6080 C   0  0  0  0  0  0  0  0  0  0  0  0
   32.8800   28.3140   47.8710 C   0  0  0  0  0  0  0  0  0  0  0  0
   32.4870   28.6030   46.5900 C   0  0  0  0  0  0  0  0  0  0  0  0
   31.3400   28.0550   46.0870 N   0  0  0  0  0  0  0  0  0  0  0  0
   30.5760   27.2180   46.8510 C   0  0  0  0  0  0  0  0  0  0  0  0
   30.9260   26.9090   48.1150 N   0  0  0  0  0  0  0  0  0  0  0  0
   32.3200   27.1920   49.6180 H   0  0  0  0  0  0  0  0  0  0  0  0
   33.1020   29.2690   45.9910 H   0  0  0  0  0  0  0  0  0  0  0  0
   29.6650   26.7760   46.4660 H   0  0  0  0  0  0  0  0  0  0  0  0
   38.2590   31.6140   48.9030 C   0  0  0  0  0  0  0  0  0  0  0  0
   38.4790   32.8780   49.4030 C   0  0  0  0  0  0  0  0  0  0  0  0
   39.1680   33.6030   48.4260 C   0  0  0  0  0  0  0  0  0  0  0  0
   39.3400   32.7830   47.3950 N   0  0  0  0  0  0  0  0  0  0  0  0
   38.8100   31.6340   47.6810 N   0  0  0  0  0  0  0  0  0  0  0  0
   38.2560   33.4170   50.3270 H   0  0  0  0  0  0  0  0  0  0  0  0
   39.5280   34.6260   48.4210 H   0  0  0  0  0  0  0  0  0  0  0  0
   40.0070   33.0860   46.1460 C   0  0  0  0  0  0  0  0  0  0  0  0
   40.2480   34.1600   46.0790 H   0  0  0  0  0  0  0  0  0  0  0  0
   40.9450   32.4770   46.1120 H   0  0  0  0  0  0  0  0  0  0  0  0
   39.0860   32.7710   45.0120 C   0  0  0  0  0  0  0  0  0  0  0  0
   38.0490   32.6650   45.4550 H   0  0  0  0  0  0  0  0  0  0  0  0
   38.9820   33.7080   44.3900 H   0  0  0  0  0  0  0  0  0  0  0  0
   39.4320   31.6190   44.2000 C   0  0  0  0  0  0  0  0  0  0  0  0
   40.4510   31.1120   43.2420 C   0  0  0  0  0  0  0  0  0  0  0  0
   41.1940   31.8590   43.0850 H   0  0  0  0  0  0  0  0  0  0  0  0
   40.2110   29.8450   42.7980 C   0  0  0  0  0  3  0  0  0  0  0  0
   39.1270   29.0820   43.1900 C   0  0  0  0  0  3  0  0  0  0  0  0
   38.2370   30.1530   44.3320 S   0  0  0  0  0  0  0  0  0  0  0  0
  2  3  1  0  0  0  0
  3  8  1  0  0  0  0
  3  4  2  0  0  0  0
  4  9  1  0  0  0  0
  5  1  1  0  0  0  0
  5  4  1  0  0  0  0
  6  5  2  0  0  0  0
  7  6  1  0  0  0  0
  7  2  2  0  0  0  0
 10  6  1  0  0  0  0
 11 17  1  0  0  0  0
 12  2  1  0  0  0  0
 12 11  2  0  0  0  0
 13 12  1  0  0  0  0
 14 13  2  0  0  0  0
 14 15  1  0  0  0  0
 15 16  2  0  0  0  0
 16 11  1  0  0  0  0
 18 13  1  0  0  0  0
 19 15  1  0  0  0  0
 20 21  1  0  0  0  0
 20  1  1  0  0  0  0
 21 25  1  0  0  0  0
 22 21  2  0  0  0  0
 23 24  1  0  0  0  0
 23 22  1  0  0  0  0
 24 20  2  0  0  0  0
 26 22  1  0  0  0  0
 27 23  1  0  0  0  0
 28 27  1  0  0  0  0
 29 27  1  0  0  0  0
 30 31  1  0  0  0  0
 30 27  1  0  0  0  0
 32 30  1  0  0  0  0
 33 38  1  0  0  0  0
 33 30  1  0  0  0  0
 34 33  2  0  0  0  0
 35 34  1  0  0  0  0
 36 37  2  0  0  0  0
 36 34  1  0  0  0  0
 37 38  1  0  0  0  0
M  END
>  <minimizedAffinity>
-5.89136982

>  <minimizedRMSD>
2.17617345

$$$$
