
 OpenBabel03272508273D

 35 38  0  0  1  0  0  0  0  0999 V2000
   33.8720   28.9590   47.2720 C   0  0  2  0  0  0  0  0  0  0  0  0
   34.6050   28.1950   48.3620 C   0  0  2  0  0  0  0  0  0  0  0  0
   33.6790   28.0000   49.3510 O   0  0  0  0  0  0  0  0  0  0  0  0
   32.4210   28.0630   48.8450 C   0  0  0  0  0  0  0  0  0  0  0  0
   32.5200   28.2620   47.3620 C   0  0  1  0  0  0  0  0  0  0  0  0
   33.7290   30.0190   47.4940 H   0  0  0  0  0  0  0  0  0  0  0  0
   34.9290   27.2250   47.9370 H   0  0  0  0  0  0  0  0  0  0  0  0
   31.9350   28.9820   49.2820 H   0  0  0  0  0  0  0  0  0  0  0  0
   31.7630   27.2140   49.1180 H   0  0  0  0  0  0  0  0  0  0  0  0
   32.5640   27.2840   46.8070 H   0  0  0  0  0  0  0  0  0  0  0  0
   35.6770   30.4530   49.0080 C   0  0  1  0  0  0  0  0  0  0  0  0
   35.7550   29.0160   48.8390 C   0  0  1  0  0  0  0  0  0  0  0  0
   35.8340   29.5440   50.2350 C   0  0  0  0  0  0  0  0  0  0  0  0
   34.7510   31.0610   49.1250 H   0  0  0  0  0  0  0  0  0  0  0  0
   36.7480   28.6470   48.4370 H   0  0  0  0  0  0  0  0  0  0  0  0
   36.7790   29.5580   50.7740 H   0  0  0  0  0  0  0  0  0  0  0  0
   34.9460   29.3430   50.8690 H   0  0  0  0  0  0  0  0  0  0  0  0
   36.8740   31.3400   48.7920 C   0  0  0  0  0  0  0  0  0  0  0  0
   37.0890   32.3850   49.6920 C   0  0  0  0  0  0  0  0  0  0  0  0
   38.1790   33.1860   49.4460 C   0  0  0  0  0  0  0  0  0  0  0  0
   38.9940   32.9500   48.3670 N   0  0  0  0  0  0  0  0  0  0  0  0
   38.7520   31.9210   47.5140 C   0  0  0  0  0  0  0  0  0  0  0  0
   37.6860   31.1070   47.7210 N   0  0  0  0  0  0  0  0  0  0  0  0
   36.4540   32.5820   50.5390 H   0  0  0  0  0  0  0  0  0  0  0  0
   38.4280   34.0320   50.1010 H   0  0  0  0  0  0  0  0  0  0  0  0
   39.3820   31.7030   46.6470 H   0  0  0  0  0  0  0  0  0  0  0  0
   34.4330   28.7940   46.0180 O   0  0  0  0  0  0  0  0  0  0  0  0
   35.0060   27.9600   46.0210 H   0  0  0  0  0  0  0  0  0  0  0  0
   31.5060   29.0430   46.8400 O   0  0  0  0  0  0  0  0  0  0  0  0
   30.8370   28.2090   45.5950 C   0  0  0  0  0  0  0  0  0  0  0  0
   30.5300   29.5450   44.9070 C   0  0  0  0  0  0  0  0  0  0  0  0
   30.6000   30.6570   44.9790 H   0  0  0  0  0  0  0  0  0  0  0  0
   29.9130   29.5420   43.7020 C   0  0  0  0  0  3  0  0  0  0  0  0
   29.5660   28.2700   43.1100 C   0  0  0  0  0  3  0  0  0  0  0  0
   30.2020   27.0500   44.4330 S   0  0  0  0  0  0  0  0  0  0  0  0
  1  5  1  0  0  0  0
  1  6  1  1  0  0  0
  1  2  1  0  0  0  0
  2  7  1  6  0  0  0
  2 12  1  0  0  0  0
  2  3  1  0  0  0  0
  4  9  1  0  0  0  0
  4  8  1  0  0  0  0
  4  3  1  0  0  0  0
  5 10  1  6  0  0  0
  5  4  1  0  0  0  0
 11 14  1  6  0  0  0
 11 13  1  0  0  0  0
 12 15  1  6  0  0  0
 12 11  1  0  0  0  0
 12 13  1  0  0  0  0
 13 16  1  0  0  0  0
 13 17  1  0  0  0  0
 18 11  1  0  0  0  0
 18 19  1  0  0  0  0
 19 24  1  0  0  0  0
 20 19  2  0  0  0  0
 20 25  1  0  0  0  0
 21 20  1  0  0  0  0
 22 23  1  0  0  0  0
 22 21  2  0  0  0  0
 23 18  2  0  0  0  0
 26 22  1  0  0  0  0
 27 28  1  0  0  0  0
 27  1  1  0  0  0  0
 29  5  1  0  0  0  0
 30 29  1  0  0  0  0
 31 32  1  0  0  0  0
 31 30  2  0  0  0  0
 33 31  1  0  0  0  0
 34 33  2  0  0  0  0
 34 35  1  0  0  0  0
 35 30  1  0  0  0  0
M  END
>  <minimizedAffinity>
-4.68553257

>  <minimizedRMSD>
0.301813394

$$$$
