
 OpenBabel03262523503D

 18 19  0  0  0  0  0  0  0  0999 V2000
   36.9740   26.0650   31.6320 C   0  0  0  0  0  0  0  0  0  0  0  0
   35.7140   26.3110   31.0930 C   0  0  0  0  0  0  0  0  0  0  0  0
   34.8590   25.2340   30.8350 C   0  0  0  0  0  0  0  0  0  0  0  0
   35.3290   23.9740   31.1350 N   0  0  0  0  0  0  0  0  0  0  0  0
   36.5470   23.7820   31.6530 C   0  0  0  0  0  0  0  0  0  0  0  0
   37.3700   24.8050   31.9030 N   0  0  0  0  0  0  0  0  0  0  0  0
   35.3930   27.3100   30.8750 H   0  0  0  0  0  0  0  0  0  0  0  0
   33.8840   25.4360   30.4160 H   0  0  0  0  0  0  0  0  0  0  0  0
   36.8180   22.7570   31.8530 H   0  0  0  0  0  0  0  0  0  0  0  0
   37.8550   27.2380   31.8940 C   0  0  0  0  0  0  0  0  0  0  0  0
   37.2520   28.1620   31.7900 H   0  0  0  0  0  0  0  0  0  0  0  0
   38.7190   27.2640   31.2330 H   0  0  0  0  0  0  0  0  0  0  0  0
   38.2580   27.1710   33.3130 C   0  0  0  0  0  0  0  0  0  0  0  0
   39.5710   26.9610   33.8400 C   0  0  0  0  0  0  0  0  0  0  0  0
   40.3750   26.8330   33.1300 H   0  0  0  0  0  0  0  0  0  0  0  0
   39.6560   26.9460   35.2110 C   0  0  0  0  0  3  0  0  0  0  0  0
   38.5360   27.1240   35.9510 C   0  0  0  0  0  3  0  0  0  0  0  0
   37.1930   27.3400   34.7350 S   0  0  0  0  0  0  0  0  0  0  0  0
  1 10  1  0  0  0  0
  1  6  1  0  0  0  0
  2  1  2  0  0  0  0
  3  2  1  0  0  0  0
  3  4  2  0  0  0  0
  4  5  1  0  0  0  0
  5  9  1  0  0  0  0
  5  6  2  0  0  0  0
  7  2  1  0  0  0  0
  8  3  1  0  0  0  0
 10 13  1  0  0  0  0
 11 10  1  0  0  0  0
 12 10  1  0  0  0  0
 13 14  2  0  0  0  0
 13 18  1  0  0  0  0
 14 16  1  0  0  0  0
 15 14  1  0  0  0  0
 16 17  2  0  0  0  0
 18 17  1  0  0  0  0
M  END
>  <minimizedAffinity>
-3.65310192

$$$$

 OpenBabel03262523503D

 18 19  0  0  0  0  0  0  0  0999 V2000
   39.9690   22.3320   36.7270 C   0  0  0  0  0  0  0  0  0  0  0  0
   39.7160   22.9800   37.9330 C   0  0  0  0  0  0  0  0  0  0  0  0
   38.4160   23.4140   38.2170 C   0  0  0  0  0  0  0  0  0  0  0  0
   37.4510   23.1680   37.2650 N   0  0  0  0  0  0  0  0  0  0  0  0
   37.7370   22.5400   36.1180 C   0  0  0  0  0  0  0  0  0  0  0  0
   38.9760   22.1230   35.8400 N   0  0  0  0  0  0  0  0  0  0  0  0
   40.5000   23.1500   38.6440 H   0  0  0  0  0  0  0  0  0  0  0  0
   38.2310   23.9160   39.1550 H   0  0  0  0  0  0  0  0  0  0  0  0
   36.9100   22.3970   35.4410 H   0  0  0  0  0  0  0  0  0  0  0  0
   41.3650   21.8850   36.4620 C   0  0  0  0  0  0  0  0  0  0  0  0
   41.3670   21.2590   35.5470 H   0  0  0  0  0  0  0  0  0  0  0  0
   41.7950   21.3430   37.3020 H   0  0  0  0  0  0  0  0  0  0  0  0
   42.1530   23.0890   36.1340 C   0  0  0  0  0  0  0  0  0  0  0  0
   43.4080   23.4920   36.6880 C   0  0  0  0  0  0  0  0  0  0  0  0
   43.8470   22.8500   37.4380 H   0  0  0  0  0  0  0  0  0  0  0  0
   43.9170   24.6680   36.1930 C   0  0  0  0  0  3  0  0  0  0  0  0
   43.2270   25.3480   35.2460 C   0  0  0  0  0  3  0  0  0  0  0  0
   41.7260   24.3540   34.9490 S   0  0  0  0  0  0  0  0  0  0  0  0
  1  2  1  0  0  0  0
  2  3  2  0  0  0  0
  2  7  1  0  0  0  0
  3  8  1  0  0  0  0
  4  3  1  0  0  0  0
  5  4  2  0  0  0  0
  6  5  1  0  0  0  0
  6  1  2  0  0  0  0
  9  5  1  0  0  0  0
 10  1  1  0  0  0  0
 10 12  1  0  0  0  0
 11 10  1  0  0  0  0
 13 10  1  0  0  0  0
 13 14  2  0  0  0  0
 14 15  1  0  0  0  0
 16 14  1  0  0  0  0
 17 16  2  0  0  0  0
 18 17  1  0  0  0  0
 18 13  1  0  0  0  0
M  END
>  <minimizedAffinity>
-3.62440729

$$$$

 OpenBabel03262523503D

 18 19  0  0  0  0  0  0  0  0999 V2000
   38.3660   27.2050   33.1260 C   0  0  0  0  0  0  0  0  0  0  0  0
   37.4020   27.4850   34.0920 C   0  0  0  0  0  0  0  0  0  0  0  0
   37.7620   27.4620   35.4430 C   0  0  0  0  0  0  0  0  0  0  0  0
   39.0720   27.1560   35.7390 N   0  0  0  0  0  0  0  0  0  0  0  0
   39.9680   26.8940   34.7800 C   0  0  0  0  0  0  0  0  0  0  0  0
   39.6320   26.9140   33.4860 N   0  0  0  0  0  0  0  0  0  0  0  0
   36.3930   27.7180   33.8130 H   0  0  0  0  0  0  0  0  0  0  0  0
   37.0060   27.6820   36.1850 H   0  0  0  0  0  0  0  0  0  0  0  0
   40.9660   26.6660   35.1170 H   0  0  0  0  0  0  0  0  0  0  0  0
   37.9440   27.2400   31.6980 C   0  0  0  0  0  0  0  0  0  0  0  0
   38.8220   26.9990   31.0650 H   0  0  0  0  0  0  0  0  0  0  0  0
   37.5160   28.1990   31.4140 H   0  0  0  0  0  0  0  0  0  0  0  0
   36.9840   26.1360   31.5000 C   0  0  0  0  0  0  0  0  0  0  0  0
   35.6290   26.2250   31.0520 C   0  0  0  0  0  0  0  0  0  0  0  0
   35.2460   27.2100   30.8260 H   0  0  0  0  0  0  0  0  0  0  0  0
   34.9620   25.0280   30.9590 C   0  0  0  0  0  3  0  0  0  0  0  0
   35.6040   23.8800   31.2850 C   0  0  0  0  0  3  0  0  0  0  0  0
   37.2820   24.3990   31.7760 S   0  0  0  0  0  0  0  0  0  0  0  0
  1  6  2  0  0  0  0
  1  2  1  0  0  0  0
  2  3  2  0  0  0  0
  3  4  1  0  0  0  0
  3  8  1  0  0  0  0
  5  9  1  0  0  0  0
  5  4  2  0  0  0  0
  6  5  1  0  0  0  0
  7  2  1  0  0  0  0
 10  1  1  0  0  0  0
 11 10  1  0  0  0  0
 12 10  1  0  0  0  0
 13 10  1  0  0  0  0
 13 18  1  0  0  0  0
 14 13  2  0  0  0  0
 15 14  1  0  0  0  0
 16 14  1  0  0  0  0
 16 17  2  0  0  0  0
 17 18  1  0  0  0  0
M  END
>  <minimizedAffinity>
-3.55536389

$$$$

 OpenBabel03262523503D

 18 19  0  0  0  0  0  0  0  0999 V2000
   40.5940   23.9670   35.4760 C   0  0  0  0  0  0  0  0  0  0  0  0
   41.8240   23.3600   35.7140 C   0  0  0  0  0  0  0  0  0  0  0  0
   41.9420   22.4420   36.7620 C   0  0  0  0  0  0  0  0  0  0  0  0
   40.8110   22.1920   37.5090 N   0  0  0  0  0  0  0  0  0  0  0  0
   39.6470   22.7970   37.2460 C   0  0  0  0  0  0  0  0  0  0  0  0
   39.5260   23.6760   36.2450 N   0  0  0  0  0  0  0  0  0  0  0  0
   42.6780   23.5870   35.1060 H   0  0  0  0  0  0  0  0  0  0  0  0
   42.9020   21.9770   36.9390 H   0  0  0  0  0  0  0  0  0  0  0  0
   38.8220   22.5320   37.8880 H   0  0  0  0  0  0  0  0  0  0  0  0
   40.5080   24.9380   34.3500 C   0  0  0  0  0  0  0  0  0  0  0  0
   40.2660   24.3820   33.4220 H   0  0  0  0  0  0  0  0  0  0  0  0
   41.4220   25.5150   34.2280 H   0  0  0  0  0  0  0  0  0  0  0  0
   39.3470   25.8110   34.6160 C   0  0  0  0  0  0  0  0  0  0  0  0
   39.2880   26.9500   35.4790 C   0  0  0  0  0  0  0  0  0  0  0  0
   40.1910   27.2180   36.0070 H   0  0  0  0  0  0  0  0  0  0  0  0
   38.0690   27.5800   35.5350 C   0  0  0  0  0  3  0  0  0  0  0  0
   37.0370   27.1030   34.7990 C   0  0  0  0  0  3  0  0  0  0  0  0
   37.7120   25.6560   33.9170 S   0  0  0  0  0  0  0  0  0  0  0  0
  1  2  2  0  0  0  0
  1  6  1  0  0  0  0
  2  3  1  0  0  0  0
  3  8  1  0  0  0  0
  3  4  2  0  0  0  0
  5  4  1  0  0  0  0
  5  9  1  0  0  0  0
  6  5  2  0  0  0  0
  7  2  1  0  0  0  0
 10 13  1  0  0  0  0
 10  1  1  0  0  0  0
 11 10  1  0  0  0  0
 12 10  1  0  0  0  0
 13 14  2  0  0  0  0
 14 16  1  0  0  0  0
 14 15  1  0  0  0  0
 17 16  2  0  0  0  0
 18 13  1  0  0  0  0
 18 17  1  0  0  0  0
M  END
>  <minimizedAffinity>
-3.53640389

$$$$

 OpenBabel03262523503D

 18 19  0  0  0  0  0  0  0  0999 V2000
   38.6810   25.1230   35.6320 C   0  0  0  0  0  0  0  0  0  0  0  0
   38.0770   24.9090   36.8690 C   0  0  0  0  0  0  0  0  0  0  0  0
   37.5900   23.6350   37.1810 C   0  0  0  0  0  0  0  0  0  0  0  0
   37.7400   22.6540   36.2250 N   0  0  0  0  0  0  0  0  0  0  0  0
   38.3270   22.9020   35.0480 C   0  0  0  0  0  0  0  0  0  0  0  0
   38.7950   24.1160   34.7420 N   0  0  0  0  0  0  0  0  0  0  0  0
   37.9830   25.7040   37.5810 H   0  0  0  0  0  0  0  0  0  0  0  0
   37.1240   23.4800   38.1440 H   0  0  0  0  0  0  0  0  0  0  0  0
   38.3950   22.0650   34.3710 H   0  0  0  0  0  0  0  0  0  0  0  0
   39.1870   26.4920   35.3360 C   0  0  0  0  0  0  0  0  0  0  0  0
   40.1450   26.4020   34.7860 H   0  0  0  0  0  0  0  0  0  0  0  0
   39.3130   27.0910   36.2350 H   0  0  0  0  0  0  0  0  0  0  0  0
   38.2340   27.1150   34.3970 C   0  0  0  0  0  0  0  0  0  0  0  0
   37.0080   27.7830   34.7090 C   0  0  0  0  0  0  0  0  0  0  0  0
   36.7320   27.8490   35.7510 H   0  0  0  0  0  0  0  0  0  0  0  0
   36.3160   28.2720   33.6280 C   0  0  0  0  0  3  0  0  0  0  0  0
   36.8160   28.0980   32.3810 C   0  0  0  0  0  3  0  0  0  0  0  0
   38.3790   27.1890   32.6200 S   0  0  0  0  0  0  0  0  0  0  0  0
  1  2  1  0  0  0  0
  2  3  2  0  0  0  0
  2  7  1  0  0  0  0
  3  8  1  0  0  0  0
  4  3  1  0  0  0  0
  5  4  2  0  0  0  0
  6  5  1  0  0  0  0
  6  1  2  0  0  0  0
  9  5  1  0  0  0  0
 10  1  1  0  0  0  0
 10 12  1  0  0  0  0
 11 10  1  0  0  0  0
 13 14  2  0  0  0  0
 13 10  1  0  0  0  0
 14 15  1  0  0  0  0
 16 14  1  0  0  0  0
 17 18  1  0  0  0  0
 17 16  2  0  0  0  0
 18 13  1  0  0  0  0
M  END
>  <minimizedAffinity>
-3.53083897

$$$$

 OpenBabel03262523503D

 18 19  0  0  0  0  0  0  0  0999 V2000
   37.9980   25.0520   35.7760 C   0  0  0  0  0  0  0  0  0  0  0  0
   38.4310   26.2300   36.3800 C   0  0  0  0  0  0  0  0  0  0  0  0
   38.6310   27.3680   35.5930 C   0  0  0  0  0  0  0  0  0  0  0  0
   38.3850   27.2490   34.2430 N   0  0  0  0  0  0  0  0  0  0  0  0
   37.9700   26.0980   33.7020 C   0  0  0  0  0  0  0  0  0  0  0  0
   37.7760   25.0050   34.4470 N   0  0  0  0  0  0  0  0  0  0  0  0
   38.6100   26.2740   37.4360 H   0  0  0  0  0  0  0  0  0  0  0  0
   38.9670   28.2770   36.0720 H   0  0  0  0  0  0  0  0  0  0  0  0
   37.8050   26.1100   32.6360 H   0  0  0  0  0  0  0  0  0  0  0  0
   37.7960   23.8610   36.6480 C   0  0  0  0  0  0  0  0  0  0  0  0
   37.0570   23.1910   36.1630 H   0  0  0  0  0  0  0  0  0  0  0  0
   37.4720   24.1310   37.6510 H   0  0  0  0  0  0  0  0  0  0  0  0
   39.0700   23.1160   36.6700 C   0  0  0  0  0  0  0  0  0  0  0  0
   39.9020   22.8390   37.8000 C   0  0  0  0  0  0  0  0  0  0  0  0
   39.5740   23.2120   38.7590 H   0  0  0  0  0  0  0  0  0  0  0  0
   41.0390   22.1190   37.5280 C   0  0  0  0  0  3  0  0  0  0  0  0
   41.2940   21.7290   36.2560 C   0  0  0  0  0  3  0  0  0  0  0  0
   39.8950   22.3690   35.2750 S   0  0  0  0  0  0  0  0  0  0  0  0
  1  2  1  0  0  0  0
  1 10  1  0  0  0  0
  2  7  1  0  0  0  0
  3  8  1  0  0  0  0
  3  2  2  0  0  0  0
  4  3  1  0  0  0  0
  5  4  2  0  0  0  0
  5  6  1  0  0  0  0
  6  1  2  0  0  0  0
  9  5  1  0  0  0  0
 10 13  1  0  0  0  0
 10 12  1  0  0  0  0
 11 10  1  0  0  0  0
 13 14  2  0  0  0  0
 14 15  1  0  0  0  0
 16 14  1  0  0  0  0
 17 16  2  0  0  0  0
 18 17  1  0  0  0  0
 18 13  1  0  0  0  0
M  END
>  <minimizedAffinity>
-3.51622009

$$$$

 OpenBabel03262523503D

 18 19  0  0  0  0  0  0  0  0999 V2000
   38.1340   25.1700   36.0050 C   0  0  0  0  0  0  0  0  0  0  0  0
   37.9410   24.7070   37.3030 C   0  0  0  0  0  0  0  0  0  0  0  0
   37.7840   23.3340   37.5240 C   0  0  0  0  0  0  0  0  0  0  0  0
   37.8310   22.5120   36.4200 N   0  0  0  0  0  0  0  0  0  0  0  0
   38.0190   22.9980   35.1870 C   0  0  0  0  0  0  0  0  0  0  0  0
   38.1700   24.3080   34.9680 N   0  0  0  0  0  0  0  0  0  0  0  0
   37.9110   25.3850   38.1330 H   0  0  0  0  0  0  0  0  0  0  0  0
   37.6350   22.9850   38.5360 H   0  0  0  0  0  0  0  0  0  0  0  0
   38.0400   22.2700   34.3920 H   0  0  0  0  0  0  0  0  0  0  0  0
   38.2970   26.6380   35.8100 C   0  0  0  0  0  0  0  0  0  0  0  0
   38.8150   27.0550   36.6970 H   0  0  0  0  0  0  0  0  0  0  0  0
   37.3490   27.1430   35.6440 H   0  0  0  0  0  0  0  0  0  0  0  0
   39.2200   26.8260   34.6730 C   0  0  0  0  0  0  0  0  0  0  0  0
   40.6500   26.8340   34.6980 C   0  0  0  0  0  0  0  0  0  0  0  0
   41.1290   26.6870   35.6560 H   0  0  0  0  0  0  0  0  0  0  0  0
   41.2560   27.0320   33.4830 C   0  0  0  0  0  3  0  0  0  0  0  0
   40.4930   27.2000   32.3760 C   0  0  0  0  0  3  0  0  0  0  0  0
   38.7710   27.0930   32.9670 S   0  0  0  0  0  0  0  0  0  0  0  0
  1  2  1  0  0  0  0
  2  3  2  0  0  0  0
  2  7  1  0  0  0  0
  3  8  1  0  0  0  0
  4  3  1  0  0  0  0
  5  4  2  0  0  0  0
  6  5  1  0  0  0  0
  6  1  2  0  0  0  0
  9  5  1  0  0  0  0
 10  1  1  0  0  0  0
 10 11  1  0  0  0  0
 12 10  1  0  0  0  0
 13 14  2  0  0  0  0
 13 10  1  0  0  0  0
 14 15  1  0  0  0  0
 16 14  1  0  0  0  0
 17 18  1  0  0  0  0
 17 16  2  0  0  0  0
 18 13  1  0  0  0  0
M  END
>  <minimizedAffinity>
-3.51550794

$$$$

 OpenBabel03262523503D

 18 19  0  0  0  0  0  0  0  0999 V2000
   38.5990   24.0700   36.0870 C   0  0  0  0  0  0  0  0  0  0  0  0
   39.6400   23.1970   36.3930 C   0  0  0  0  0  0  0  0  0  0  0  0
   39.8380   22.8080   37.7220 C   0  0  0  0  0  0  0  0  0  0  0  0
   38.9730   23.3250   38.6620 N   0  0  0  0  0  0  0  0  0  0  0  0
   37.9840   24.1610   38.3250 C   0  0  0  0  0  0  0  0  0  0  0  0
   37.7890   24.5370   37.0570 N   0  0  0  0  0  0  0  0  0  0  0  0
   40.2890   22.8210   35.6270 H   0  0  0  0  0  0  0  0  0  0  0  0
   40.6480   22.1310   37.9490 H   0  0  0  0  0  0  0  0  0  0  0  0
   37.3630   24.5070   39.1360 H   0  0  0  0  0  0  0  0  0  0  0  0
   38.4210   24.4600   34.6600 C   0  0  0  0  0  0  0  0  0  0  0  0
   37.5660   25.1620   34.5910 H   0  0  0  0  0  0  0  0  0  0  0  0
   38.2680   23.6010   34.0100 H   0  0  0  0  0  0  0  0  0  0  0  0
   39.6160   25.2320   34.2680 C   0  0  0  0  0  0  0  0  0  0  0  0
   40.0320   26.5100   34.7580 C   0  0  0  0  0  0  0  0  0  0  0  0
   39.4080   26.9810   35.5040 H   0  0  0  0  0  0  0  0  0  0  0  0
   41.1940   26.9970   34.2120 C   0  0  0  0  0  3  0  0  0  0  0  0
   41.8520   26.2660   33.2800 C   0  0  0  0  0  3  0  0  0  0  0  0
   40.8510   24.7550   33.0710 S   0  0  0  0  0  0  0  0  0  0  0  0
  1  2  2  0  0  0  0
  1  6  1  0  0  0  0
  2  3  1  0  0  0  0
  3  8  1  0  0  0  0
  3  4  2  0  0  0  0
  5  4  1  0  0  0  0
  5  9  1  0  0  0  0
  6  5  2  0  0  0  0
  7  2  1  0  0  0  0
 10  1  1  0  0  0  0
 11 10  1  0  0  0  0
 12 10  1  0  0  0  0
 13 10  1  0  0  0  0
 13 14  2  0  0  0  0
 14 15  1  0  0  0  0
 16 14  1  0  0  0  0
 17 16  2  0  0  0  0
 18 17  1  0  0  0  0
 18 13  1  0  0  0  0
M  END
>  <minimizedAffinity>
-3.46260452

$$$$

 OpenBabel03262523503D

 18 19  0  0  0  0  0  0  0  0999 V2000
   38.3390   27.1560   34.3500 C   0  0  0  0  0  0  0  0  0  0  0  0
   37.1350   27.7160   34.7690 C   0  0  0  0  0  0  0  0  0  0  0  0
   36.2710   28.2690   33.8180 C   0  0  0  0  0  0  0  0  0  0  0  0
   36.6750   28.2240   32.5020 N   0  0  0  0  0  0  0  0  0  0  0  0
   37.8410   27.6760   32.1410 C   0  0  0  0  0  0  0  0  0  0  0  0
   38.6720   27.1460   33.0440 N   0  0  0  0  0  0  0  0  0  0  0  0
   36.8630   27.7280   35.8060 H   0  0  0  0  0  0  0  0  0  0  0  0
   35.3390   28.7010   34.1540 H   0  0  0  0  0  0  0  0  0  0  0  0
   38.0630   27.6910   31.0860 H   0  0  0  0  0  0  0  0  0  0  0  0
   39.2320   26.5770   35.3920 C   0  0  0  0  0  0  0  0  0  0  0  0
   39.1390   27.1850   36.3140 H   0  0  0  0  0  0  0  0  0  0  0  0
   40.2690   26.5240   35.0680 H   0  0  0  0  0  0  0  0  0  0  0  0
   38.7000   25.2420   35.7290 C   0  0  0  0  0  0  0  0  0  0  0  0
   38.0870   24.8270   36.9530 C   0  0  0  0  0  0  0  0  0  0  0  0
   37.9950   25.5670   37.7350 H   0  0  0  0  0  0  0  0  0  0  0  0
   37.6800   23.5160   36.9900 C   0  0  0  0  0  3  0  0  0  0  0  0
   37.8770   22.7260   35.9080 C   0  0  0  0  0  3  0  0  0  0  0  0
   38.6900   23.8000   34.6780 S   0  0  0  0  0  0  0  0  0  0  0  0
  1  2  1  0  0  0  0
  1 10  1  0  0  0  0
  2  7  1  0  0  0  0
  3  8  1  0  0  0  0
  3  2  2  0  0  0  0
  4  3  1  0  0  0  0
  5  4  2  0  0  0  0
  5  6  1  0  0  0  0
  6  1  2  0  0  0  0
  9  5  1  0  0  0  0
 10 13  1  0  0  0  0
 10 11  1  0  0  0  0
 12 10  1  0  0  0  0
 13 14  2  0  0  0  0
 14 16  1  0  0  0  0
 14 15  1  0  0  0  0
 17 16  2  0  0  0  0
 18 13  1  0  0  0  0
 18 17  1  0  0  0  0
M  END
>  <minimizedAffinity>
-3.46065331

$$$$
