
 OpenBabel03272500463D

 29 32  0  0  1  0  0  0  0  0999 V2000
   32.3530   27.1490   46.3780 C   0  0  0  0  0  0  0  0  0  0  0  0
   33.1900   27.5680   45.3590 C   0  0  0  0  0  0  0  0  0  0  0  0
   34.0980   28.4880   45.9070 C   0  0  0  0  0  0  0  0  0  0  0  0
   33.7900   28.5930   47.2070 N   0  0  0  0  0  0  0  0  0  0  0  0
   32.7660   27.7980   47.4520 N   0  0  0  0  0  0  0  0  0  0  0  0
   33.2480   27.3190   44.2990 H   0  0  0  0  0  0  0  0  0  0  0  0
   34.9030   29.0310   45.4240 H   0  0  0  0  0  0  0  0  0  0  0  0
   31.5130   24.9080   45.6380 C   0  0  0  0  0  0  0  0  0  0  0  0
   31.2890   26.1970   46.1860 C   0  0  0  0  0  0  0  0  0  0  0  0
   29.9890   26.5110   46.5340 C   0  0  0  0  0  0  0  0  0  0  0  0
   29.0080   25.5840   46.3370 N   0  0  0  0  0  0  0  0  0  0  0  0
   29.2660   24.3760   45.8170 C   0  0  0  0  0  0  0  0  0  0  0  0
   30.5230   24.0240   45.4600 N   0  0  0  0  0  0  0  0  0  0  0  0
   32.5510   24.6840   45.3720 H   0  0  0  0  0  0  0  0  0  0  0  0
   29.7380   27.4830   46.9600 H   0  0  0  0  0  0  0  0  0  0  0  0
   28.4060   23.7260   45.7090 H   0  0  0  0  0  0  0  0  0  0  0  0
   34.4600   29.4310   48.1760 C   0  0  1  0  0  0  0  0  0  0  0  0
   34.3190   29.0230   49.6660 C   0  0  0  0  0  0  0  0  0  0  0  0
   35.6170   28.9140   48.9230 C   0  0  2  0  0  0  0  0  0  0  0  0
   34.3960   30.5040   47.9720 H   0  0  0  0  0  0  0  0  0  0  0  0
   34.1870   29.8640   50.3740 H   0  0  0  0  0  0  0  0  0  0  0  0
   33.7850   28.0730   49.8260 H   0  0  0  0  0  0  0  0  0  0  0  0
   36.0380   27.9090   48.7490 H   0  0  0  0  0  0  0  0  0  0  0  0
   36.6880   29.9300   49.2550 C   0  0  0  0  0  0  0  0  0  0  0  0
   37.4530   30.1570   50.4610 C   0  0  0  0  0  0  0  0  0  0  0  0
   37.2600   29.5110   51.2940 H   0  0  0  0  0  0  0  0  0  0  0  0
   38.3390   31.1910   50.3660 C   0  0  0  0  0  0  0  0  0  0  0  0
   38.5450   31.9870   49.2670 C   0  0  0  0  0  0  0  0  0  0  0  0
   37.2710   31.1960   48.0640 S   0  0  0  0  0  0  0  0  0  0  0  0
  1  5  2  0  0  0  0
  2  3  2  0  0  0  0
  2  1  1  0  0  0  0
  3  4  1  0  0  0  0
  4  5  1  0  0  0  0
  4 17  1  0  0  0  0
  6  2  1  0  0  0  0
  7  3  1  0  0  0  0
  8  9  1  0  0  0  0
  9  1  1  0  0  0  0
  9 10  2  0  0  0  0
 10 15  1  0  0  0  0
 11 10  1  0  0  0  0
 12 11  2  0  0  0  0
 13  8  2  0  0  0  0
 13 12  1  0  0  0  0
 14  8  1  0  0  0  0
 16 12  1  0  0  0  0
 17 20  1  6  0  0  0
 17 19  1  0  0  0  0
 17 18  1  0  0  0  0
 18 22  1  0  0  0  0
 18 21  1  0  0  0  0
 19 23  1  6  0  0  0
 19 24  1  0  0  0  0
 19 18  1  0  0  0  0
 24 25  2  0  0  0  0
 25 26  1  0  0  0  0
 27 25  1  0  0  0  0
 28 27  2  0  0  0  0
 29 24  1  0  0  0  0
 29 28  1  0  0  0  0
M  END
>  <minimizedAffinity>
-4.33140612

>  <minimizedRMSD>
6.59177303

$$$$
