
 OpenBabel03272504223D

 36 38  0  0  1  0  0  0  0  0999 V2000
   36.8320   31.5940   48.7020 O   0  0  0  0  0  0  0  0  0  0  0  0
   38.8310   32.4340   47.8440 C   0  0  2  0  0  0  0  0  0  0  0  0
   38.1950   31.3990   48.7450 C   0  0  1  0  0  0  0  0  0  0  0  0
   38.7450   31.9060   50.0800 C   0  0  0  0  0  0  0  0  0  0  0  0
   38.4050   33.2540   50.0060 O   0  0  0  0  0  0  0  0  0  0  0  0
   38.6450   33.6720   48.7200 C   0  0  0  0  0  0  0  0  0  0  0  0
   39.8870   32.2000   47.6890 H   0  0  0  0  0  0  0  0  0  0  0  0
   38.5210   30.3670   48.5400 H   0  0  0  0  0  0  0  0  0  0  0  0
   39.8230   31.7280   50.1280 H   0  0  0  0  0  0  0  0  0  0  0  0
   38.1590   31.4090   50.8610 H   0  0  0  0  0  0  0  0  0  0  0  0
   39.5740   34.2870   48.6380 H   0  0  0  0  0  0  0  0  0  0  0  0
   37.8270   34.3230   48.3230 H   0  0  0  0  0  0  0  0  0  0  0  0
   38.0840   32.4980   46.6720 O   0  0  0  0  0  0  0  0  0  0  0  0
   38.7870   32.1810   45.4840 C   0  0  0  0  0  0  0  0  0  0  0  0
   38.4140   32.5410   44.1860 C   0  0  0  0  0  0  0  0  0  0  0  0
   37.5130   33.1130   44.0400 H   0  0  0  0  0  0  0  0  0  0  0  0
   39.1990   32.1600   43.1390 C   0  0  0  0  0  3  0  0  0  0  0  0
   40.3920   31.3960   43.4130 C   0  0  0  0  0  3  0  0  0  0  0  0
   40.3960   31.2190   45.1710 S   0  0  0  0  0  0  0  0  0  0  0  0
   35.9070   29.8650   46.9960 O   0  0  0  0  0  0  0  0  0  0  0  0
   35.9670   30.1750   48.4730 P   0  0  1  0  0  0  0  0  0  0  0  0
   36.7570   28.8770   49.2510 O   0  0  0  0  0  0  0  0  0  0  0  0
   37.4540   29.1800   49.8830 H   0  0  0  0  0  0  0  0  0  0  0  0
   34.3960   30.3370   49.1040 O   0  0  0  0  0  0  0  0  0  0  0  0
   34.1300   29.1860   49.8180 C   0  0  0  0  0  0  0  0  0  0  0  0
   33.6190   29.4420   50.7900 H   0  0  0  0  0  0  0  0  0  0  0  0
   35.0410   28.6410   50.1320 H   0  0  0  0  0  0  0  0  0  0  0  0
   33.2680   28.2250   49.0970 C   0  0  0  0  0  0  0  0  0  0  0  0
   33.8990   27.3380   48.2580 C   0  0  0  0  0  0  0  0  0  0  0  0
   33.1420   26.4050   47.5470 C   0  0  0  0  0  0  0  0  0  0  0  0
   31.7910   26.4340   47.7320 N   0  0  0  0  0  0  0  0  0  0  0  0
   31.1970   27.3140   48.5600 C   0  0  0  0  0  0  0  0  0  0  0  0
   31.9320   28.2170   49.2480 N   0  0  0  0  0  0  0  0  0  0  0  0
   34.9500   27.2380   48.0460 H   0  0  0  0  0  0  0  0  0  0  0  0
   33.5370   25.6760   46.8740 H   0  0  0  0  0  0  0  0  0  0  0  0
   30.1220   27.2490   48.6320 H   0  0  0  0  0  0  0  0  0  0  0  0
  1  3  1  0  0  0  0
  2  7  1  6  0  0  0
  2  6  1  0  0  0  0
  2  3  1  0  0  0  0
  3  8  1  6  0  0  0
  3  4  1  0  0  0  0
  4  9  1  0  0  0  0
  4 10  1  0  0  0  0
  5  4  1  0  0  0  0
  6  5  1  0  0  0  0
 11  6  1  0  0  0  0
 12  6  1  0  0  0  0
 13  2  1  0  0  0  0
 14 13  1  0  0  0  0
 15 14  2  0  0  0  0
 16 15  1  0  0  0  0
 17 18  2  0  0  0  0
 17 15  1  0  0  0  0
 18 19  1  0  0  0  0
 19 14  1  0  0  0  0
 21 20  2  6  0  0  0
 21  1  1  0  0  0  0
 21 24  1  0  0  0  0
 21 22  1  0  0  0  0
 22 23  1  0  0  0  0
 24 25  1  0  0  0  0
 25 27  1  0  0  0  0
 25 26  1  0  0  0  0
 28 33  1  0  0  0  0
 28 25  1  0  0  0  0
 29 28  2  0  0  0  0
 30 31  2  0  0  0  0
 30 29  1  0  0  0  0
 31 32  1  0  0  0  0
 32 36  1  0  0  0  0
 32 33  2  0  0  0  0
 34 29  1  0  0  0  0
 35 30  1  0  0  0  0
M  END
>  <minimizedAffinity>
-4.56537342

>  <minimizedRMSD>
0.100472927

$$$$
