
 OpenBabel03272510273D

 42 46  0  0  1  0  0  0  0  0999 V2000
   36.0810   30.2600   46.8500 C   0  0  0  0  0  0  0  0  0  0  0  0
   37.1170   30.4220   47.7380 C   0  0  0  0  0  0  0  0  0  0  0  0
   38.3800   30.8630   47.3120 C   0  0  0  0  0  0  0  0  0  0  0  0
   38.5050   31.1220   45.9460 C   0  0  0  0  0  0  0  0  0  0  0  0
   39.6290   31.5630   45.2870 N   0  0  0  0  0  0  0  0  0  0  0  0
   39.2820   31.6730   43.9950 C   0  0  0  0  0  0  0  0  0  0  0  0
   38.0190   31.3220   43.8440 N   0  0  0  0  0  0  0  0  0  0  0  0
   37.5010   30.9730   45.0320 C   0  0  0  0  0  0  0  0  0  0  0  0
   36.2590   30.5310   45.5030 C   0  0  0  0  0  0  0  0  0  0  0  0
   35.1020   29.9190   47.1720 H   0  0  0  0  0  0  0  0  0  0  0  0
   39.2160   31.0000   47.9890 H   0  0  0  0  0  0  0  0  0  0  0  0
   40.5620   31.7690   45.7140 H   0  0  0  0  0  0  0  0  0  0  0  0
   35.4550   30.4100   44.7840 H   0  0  0  0  0  0  0  0  0  0  0  0
   37.3930   30.0360   51.4750 C   0  0  0  0  0  0  0  0  0  0  0  0
   37.7720   30.3790   50.1790 C   0  0  0  0  0  0  0  0  0  0  0  0
   36.9060   30.1360   49.1460 C   0  0  0  0  0  0  0  0  0  0  0  0
   35.6940   29.5580   49.4660 N   0  0  0  0  0  0  0  0  0  0  0  0
   35.3360   29.2300   50.7240 C   0  0  0  0  0  0  0  0  0  0  0  0
   36.1750   29.4680   51.7060 N   0  0  0  0  0  0  0  0  0  0  0  0
   38.1060   30.2440   52.2670 H   0  0  0  0  0  0  0  0  0  0  0  0
   38.7170   30.8310   49.9110 H   0  0  0  0  0  0  0  0  0  0  0  0
   34.3590   28.7810   50.8630 H   0  0  0  0  0  0  0  0  0  0  0  0
   40.1770   32.1010   43.0140 O   0  0  0  0  0  0  0  0  0  0  0  0
   39.6540   30.2770   41.7020 N   0  0  0  0  0  0  0  0  0  0  0  0
   39.8620   31.7160   41.6860 C   0  0  1  0  0  0  0  0  0  0  0  0
   38.6650   32.3980   41.2180 C   0  0  0  0  0  0  0  0  0  0  0  0
   38.4050   32.0090   39.8930 O   0  0  0  0  0  0  0  0  0  0  0  0
   38.3090   30.6630   39.6930 C   0  0  0  0  0  0  0  0  0  0  0  0
   39.4560   29.9110   40.3080 C   0  0  1  0  0  0  0  0  0  0  0  0
   38.8510   29.9180   42.1880 H   0  0  0  0  0  0  0  0  0  0  0  0
   40.7060   31.8790   40.9940 H   0  0  0  0  0  0  0  0  0  0  0  0
   37.7150   32.3580   41.6780 H   0  0  0  0  0  0  0  0  0  0  0  0
   38.9260   33.4970   41.1170 H   0  0  0  0  0  0  0  0  0  0  0  0
   37.3840   30.2510   40.1430 H   0  0  0  0  0  0  0  0  0  0  0  0
   38.3390   30.4940   38.5970 H   0  0  0  0  0  0  0  0  0  0  0  0
   39.2070   28.8320   40.2050 H   0  0  0  0  0  0  0  0  0  0  0  0
   40.6840   30.2760   39.5740 C   0  0  0  0  0  0  0  0  0  0  0  0
   41.9640   30.1470   39.9070 C   0  0  0  0  0  0  0  0  0  0  0  0
   42.2090   29.7010   40.8790 H   0  0  0  0  0  0  0  0  0  0  0  0
   42.9770   30.5520   39.0770 C   0  0  0  0  0  3  0  0  0  0  0  0
   42.5100   31.1190   37.8350 C   0  0  0  0  0  3  0  0  0  0  0  0
   40.7110   31.0320   37.9450 S   0  0  0  0  0  0  0  0  0  0  0  0
  1 10  1  0  0  0  0
  1  2  1  0  0  0  0
  2 16  1  0  0  0  0
  3  2  2  0  0  0  0
  3 11  1  0  0  0  0
  4  3  1  0  0  0  0
  5 12  1  0  0  0  0
  5  4  1  0  0  0  0
  6  5  1  0  0  0  0
  7  6  2  0  0  0  0
  7  8  1  0  0  0  0
  8  9  1  0  0  0  0
  8  4  2  0  0  0  0
  9  1  2  0  0  0  0
 13  9  1  0  0  0  0
 14 19  1  0  0  0  0
 14 20  1  0  0  0  0
 15 14  2  0  0  0  0
 16 17  2  0  0  0  0
 16 15  1  0  0  0  0
 17 18  1  0  0  0  0
 18 22  1  0  0  0  0
 18 19  2  0  0  0  0
 21 15  1  0  0  0  0
 23  6  1  0  0  0  0
 24 30  1  0  0  0  0
 25 31  1  6  0  0  0
 25 24  1  0  0  0  0
 25 23  1  0  0  0  0
 26 32  1  0  0  0  0
 26 25  1  0  0  0  0
 27 26  1  0  0  0  0
 28 27  1  0  0  0  0
 28 34  1  0  0  0  0
 28 29  1  0  0  0  0
 29 36  1  6  0  0  0
 29 24  1  0  0  0  0
 33 26  1  0  0  0  0
 35 28  1  0  0  0  0
 37 38  2  0  0  0  0
 37 29  1  0  0  0  0
 38 39  1  0  0  0  0
 40 38  1  0  0  0  0
 41 42  1  0  0  0  0
 41 40  2  0  0  0  0
 42 37  1  0  0  0  0
M  END
>  <minimizedAffinity>
-5.6327076

>  <minimizedRMSD>
1.52041841

$$$$
