
 OpenBabel03272508553D

 35 38  0  0  1  0  0  0  0  0999 V2000
   36.9570   26.6760   32.9210 C   0  0  0  0  0  0  0  0  0  0  0  0
   37.2120   26.1830   34.0550 O   0  0  0  0  0  0  0  0  0  0  0  0
   37.1320   25.8930   31.7330 N   0  0  0  0  0  0  0  0  0  0  0  0
   37.1250   26.3020   30.7900 H   0  0  0  0  0  0  0  0  0  0  0  0
   36.4760   28.0680   32.7910 C   0  0  0  0  0  0  0  0  0  0  0  0
   36.5170   28.6500   31.5520 C   0  0  0  0  0  0  0  0  0  0  0  0
   36.0630   29.9590   31.4500 C   0  0  0  0  0  0  0  0  0  0  0  0
   35.6080   30.5820   32.5690 C   0  0  0  0  0  0  0  0  0  0  0  0
   35.5690   29.9920   33.8160 C   0  0  0  0  0  0  0  0  0  0  0  0
   36.0150   28.7370   33.8640 N   0  0  0  0  0  0  0  0  0  0  0  0
   36.8760   28.1680   30.6470 H   0  0  0  0  0  0  0  0  0  0  0  0
   36.0840   30.4380   30.4880 H   0  0  0  0  0  0  0  0  0  0  0  0
   35.2650   31.6170   32.4090 H   0  0  0  0  0  0  0  0  0  0  0  0
   35.0810   30.6950   34.9620 C   0  0  0  0  0  0  0  0  0  0  0  0
   35.6680   31.4500   35.8920 C   0  0  0  0  0  0  0  0  0  0  0  0
   36.7350   31.5880   35.8040 H   0  0  0  0  0  0  0  0  0  0  0  0
   34.9670   32.0220   36.9100 C   0  0  0  0  0  3  0  0  0  0  0  0
   33.5210   31.7420   36.8980 C   0  0  0  0  0  3  0  0  0  0  0  0
   33.3450   30.6530   35.3720 S   0  0  0  0  0  0  0  0  0  0  0  0
   36.4040   23.5530   31.2640 C   0  0  2  0  0  0  0  0  0  0  0  0
   37.6820   23.7510   30.5600 C   0  0  0  0  0  0  0  0  0  0  0  0
   37.3270   24.4630   31.8940 C   0  0  1  0  0  0  0  0  0  0  0  0
   35.5220   23.9470   30.6920 H   0  0  0  0  0  0  0  0  0  0  0  0
   38.5170   23.0330   30.6540 H   0  0  0  0  0  0  0  0  0  0  0  0
   37.7130   24.3610   29.6510 H   0  0  0  0  0  0  0  0  0  0  0  0
   37.9130   24.1270   32.7770 H   0  0  0  0  0  0  0  0  0  0  0  0
   35.0000   20.1850   31.8400 C   0  0  0  0  0  0  0  0  0  0  0  0
   35.4720   19.8760   33.1560 C   0  0  0  0  0  0  0  0  0  0  0  0
   36.2790   20.8730   33.8200 C   0  0  0  0  0  0  0  0  0  0  0  0
   36.5510   22.0410   33.1810 N   0  0  0  0  0  0  0  0  0  0  0  0
   36.0650   22.2650   31.9280 C   0  0  0  0  0  0  0  0  0  0  0  0
   35.2900   21.3570   31.2370 N   0  0  0  0  0  0  0  0  0  0  0  0
   34.4040   19.3970   31.4030 H   0  0  0  0  0  0  0  0  0  0  0  0
   35.2330   18.9440   33.6190 H   0  0  0  0  0  0  0  0  0  0  0  0
   36.6400   20.6490   34.8140 H   0  0  0  0  0  0  0  0  0  0  0  0
  1  2  2  0  0  0  0
  3 22  1  0  0  0  0
  3  1  1  0  0  0  0
  4  3  1  0  0  0  0
  5  1  1  0  0  0  0
  5 10  1  0  0  0  0
  6  5  2  0  0  0  0
  7  6  1  0  0  0  0
  7  8  2  0  0  0  0
  8  9  1  0  0  0  0
  9 10  2  0  0  0  0
  9 14  1  0  0  0  0
 11  6  1  0  0  0  0
 12  7  1  0  0  0  0
 13  8  1  0  0  0  0
 14 19  1  0  0  0  0
 14 15  2  0  0  0  0
 15 17  1  0  0  0  0
 16 15  1  0  0  0  0
 18 17  2  0  0  0  0
 19 18  1  0  0  0  0
 20 23  1  6  0  0  0
 20 22  1  0  0  0  0
 20 31  1  0  0  0  0
 21 24  1  0  0  0  0
 21 20  1  0  0  0  0
 21 22  1  0  0  0  0
 22 26  1  1  0  0  0
 25 21  1  0  0  0  0
 27 28  1  0  0  0  0
 28 34  1  0  0  0  0
 28 29  2  0  0  0  0
 29 35  1  0  0  0  0
 30 29  1  0  0  0  0
 31 30  2  0  0  0  0
 32 27  2  0  0  0  0
 32 31  1  0  0  0  0
 33 27  1  0  0  0  0
M  END
>  <minimizedAffinity>
-5.63413

$$$$

 OpenBabel03272508553D

 35 38  0  0  1  0  0  0  0  0999 V2000
   37.7680   25.1620   35.0180 C   0  0  0  0  0  0  0  0  0  0  0  0
   37.1460   26.2390   35.2370 O   0  0  0  0  0  0  0  0  0  0  0  0
   37.8870   24.6520   33.6830 N   0  0  0  0  0  0  0  0  0  0  0  0
   38.2090   23.6980   33.4780 H   0  0  0  0  0  0  0  0  0  0  0  0
   38.3840   24.4040   36.1260 C   0  0  0  0  0  0  0  0  0  0  0  0
   37.8740   24.5750   37.3860 C   0  0  0  0  0  0  0  0  0  0  0  0
   38.4680   23.8560   38.4150 C   0  0  0  0  0  0  0  0  0  0  0  0
   39.5080   23.0320   38.1220 C   0  0  0  0  0  0  0  0  0  0  0  0
   40.0210   22.8630   36.8510 C   0  0  0  0  0  0  0  0  0  0  0  0
   39.4190   23.5740   35.8970 N   0  0  0  0  0  0  0  0  0  0  0  0
   37.0430   25.2270   37.6400 H   0  0  0  0  0  0  0  0  0  0  0  0
   38.0850   23.9730   39.4130 H   0  0  0  0  0  0  0  0  0  0  0  0
   39.9270   22.4960   38.9890 H   0  0  0  0  0  0  0  0  0  0  0  0
   41.1190   21.9830   36.5970 C   0  0  0  0  0  0  0  0  0  0  0  0
   41.8600   21.1940   37.3770 C   0  0  0  0  0  0  0  0  0  0  0  0
   41.6190   21.1850   38.4300 H   0  0  0  0  0  0  0  0  0  0  0  0
   42.8770   20.4340   36.8830 C   0  0  0  0  0  3  0  0  0  0  0  0
   43.0860   20.5530   35.4300 C   0  0  0  0  0  3  0  0  0  0  0  0
   41.7500   21.7860   34.9400 S   0  0  0  0  0  0  0  0  0  0  0  0
   38.2870   26.7490   32.3900 C   0  0  2  0  0  0  0  0  0  0  0  0
   38.6340   25.6270   31.5020 C   0  0  0  0  0  0  0  0  0  0  0  0
   37.5300   25.5390   32.5900 C   0  0  1  0  0  0  0  0  0  0  0  0
   39.1150   27.0210   33.0980 H   0  0  0  0  0  0  0  0  0  0  0  0
   38.2430   25.5570   30.4710 H   0  0  0  0  0  0  0  0  0  0  0  0
   39.5600   25.0660   31.6710 H   0  0  0  0  0  0  0  0  0  0  0  0
   36.4910   25.4710   32.2010 H   0  0  0  0  0  0  0  0  0  0  0  0
   36.0280   29.6650   32.2020 C   0  0  0  0  0  0  0  0  0  0  0  0
   36.3830   30.2490   30.9440 C   0  0  0  0  0  0  0  0  0  0  0  0
   37.4180   29.5920   30.1790 C   0  0  0  0  0  0  0  0  0  0  0  0
   38.0000   28.4690   30.6760 N   0  0  0  0  0  0  0  0  0  0  0  0
   37.6080   27.9710   31.8820 C   0  0  0  0  0  0  0  0  0  0  0  0
   36.6290   28.5480   32.6640 N   0  0  0  0  0  0  0  0  0  0  0  0
   35.2500   30.2070   32.7210 H   0  0  0  0  0  0  0  0  0  0  0  0
   35.8980   31.1330   30.5940 H   0  0  0  0  0  0  0  0  0  0  0  0
   37.6930   30.0250   29.2270 H   0  0  0  0  0  0  0  0  0  0  0  0
  1  2  2  0  0  0  0
  1  5  1  0  0  0  0
  3  1  1  0  0  0  0
  4  3  1  0  0  0  0
  5  6  1  0  0  0  0
  6 11  1  0  0  0  0
  6  7  2  0  0  0  0
  7 12  1  0  0  0  0
  8  7  1  0  0  0  0
  8 13  1  0  0  0  0
  9  8  2  0  0  0  0
 10  5  2  0  0  0  0
 10  9  1  0  0  0  0
 14  9  1  0  0  0  0
 14 15  2  0  0  0  0
 15 16  1  0  0  0  0
 17 15  1  0  0  0  0
 18 17  2  0  0  0  0
 19 18  1  0  0  0  0
 19 14  1  0  0  0  0
 20 22  1  0  0  0  0
 20 23  1  1  0  0  0
 21 25  1  0  0  0  0
 21 20  1  0  0  0  0
 21 22  1  0  0  0  0
 22 26  1  6  0  0  0
 22  3  1  0  0  0  0
 24 21  1  0  0  0  0
 27 32  1  0  0  0  0
 27 33  1  0  0  0  0
 28 27  2  0  0  0  0
 29 30  2  0  0  0  0
 29 28  1  0  0  0  0
 30 31  1  0  0  0  0
 31 20  1  0  0  0  0
 31 32  2  0  0  0  0
 34 28  1  0  0  0  0
 35 29  1  0  0  0  0
M  END
>  <minimizedAffinity>
-5.37485456

$$$$

 OpenBabel03272508553D

 35 38  0  0  1  0  0  0  0  0999 V2000
   37.8570   26.7860   33.6350 C   0  0  0  0  0  0  0  0  0  0  0  0
   38.7950   27.0030   34.4510 O   0  0  0  0  0  0  0  0  0  0  0  0
   37.7360   25.5100   32.9920 N   0  0  0  0  0  0  0  0  0  0  0  0
   37.1170   25.3470   32.1880 H   0  0  0  0  0  0  0  0  0  0  0  0
   36.8660   27.8360   33.3220 C   0  0  0  0  0  0  0  0  0  0  0  0
   36.4030   27.9240   32.0360 C   0  0  0  0  0  0  0  0  0  0  0  0
   35.4730   28.9180   31.7620 C   0  0  0  0  0  0  0  0  0  0  0  0
   35.0760   29.7390   32.7700 C   0  0  0  0  0  0  0  0  0  0  0  0
   35.5450   29.6480   34.0650 C   0  0  0  0  0  0  0  0  0  0  0  0
   36.4350   28.6790   34.2800 N   0  0  0  0  0  0  0  0  0  0  0  0
   36.7080   27.2780   31.2180 H   0  0  0  0  0  0  0  0  0  0  0  0
   35.0960   29.0080   30.7590 H   0  0  0  0  0  0  0  0  0  0  0  0
   34.3380   30.5020   32.4750 H   0  0  0  0  0  0  0  0  0  0  0  0
   35.0940   30.5380   35.0890 C   0  0  0  0  0  0  0  0  0  0  0  0
   35.7210   31.3840   35.9090 C   0  0  0  0  0  0  0  0  0  0  0  0
   36.7960   31.4420   35.8190 H   0  0  0  0  0  0  0  0  0  0  0  0
   35.0510   32.1400   36.8220 C   0  0  0  0  0  3  0  0  0  0  0  0
   33.5910   31.9510   36.8270 C   0  0  0  0  0  3  0  0  0  0  0  0
   33.3560   30.6630   35.4730 S   0  0  0  0  0  0  0  0  0  0  0  0
   38.0530   23.6780   34.6570 C   0  0  2  0  0  0  0  0  0  0  0  0
   37.8430   23.0340   33.3490 C   0  0  0  0  0  0  0  0  0  0  0  0
   38.5340   24.4150   33.5160 C   0  0  1  0  0  0  0  0  0  0  0  0
   37.0940   23.9750   35.1590 H   0  0  0  0  0  0  0  0  0  0  0  0
   38.5190   22.2470   32.9720 H   0  0  0  0  0  0  0  0  0  0  0  0
   36.8410   23.0170   32.9060 H   0  0  0  0  0  0  0  0  0  0  0  0
   39.6220   24.4270   33.2880 H   0  0  0  0  0  0  0  0  0  0  0  0
   41.0130   21.9960   36.0910 C   0  0  0  0  0  0  0  0  0  0  0  0
   40.8160   22.1730   37.4980 C   0  0  0  0  0  0  0  0  0  0  0  0
   39.6290   22.8840   37.9150 C   0  0  0  0  0  0  0  0  0  0  0  0
   38.7660   23.3460   36.9720 N   0  0  0  0  0  0  0  0  0  0  0  0
   39.0200   23.1390   35.6500 C   0  0  0  0  0  0  0  0  0  0  0  0
   40.1330   22.4690   35.1830 N   0  0  0  0  0  0  0  0  0  0  0  0
   41.9180   21.4580   35.8500 H   0  0  0  0  0  0  0  0  0  0  0  0
   41.5210   21.7930   38.2020 H   0  0  0  0  0  0  0  0  0  0  0  0
   39.4710   23.0230   38.9750 H   0  0  0  0  0  0  0  0  0  0  0  0
  1  2  2  0  0  0  0
  3 22  1  0  0  0  0
  3  1  1  0  0  0  0
  4  3  1  0  0  0  0
  5  1  1  0  0  0  0
  5 10  1  0  0  0  0
  6  5  2  0  0  0  0
  7  6  1  0  0  0  0
  7  8  2  0  0  0  0
  8  9  1  0  0  0  0
  9 10  2  0  0  0  0
  9 14  1  0  0  0  0
 11  6  1  0  0  0  0
 12  7  1  0  0  0  0
 13  8  1  0  0  0  0
 14 19  1  0  0  0  0
 14 15  2  0  0  0  0
 15 17  1  0  0  0  0
 16 15  1  0  0  0  0
 17 18  2  0  0  0  0
 19 18  1  0  0  0  0
 20 23  1  1  0  0  0
 20 31  1  0  0  0  0
 21 22  1  0  0  0  0
 21 20  1  0  0  0  0
 22 26  1  6  0  0  0
 22 20  1  0  0  0  0
 24 21  1  0  0  0  0
 25 21  1  0  0  0  0
 27 28  1  0  0  0  0
 28 29  2  0  0  0  0
 28 34  1  0  0  0  0
 29 35  1  0  0  0  0
 30 29  1  0  0  0  0
 31 30  2  0  0  0  0
 32 31  1  0  0  0  0
 32 27  2  0  0  0  0
 33 27  1  0  0  0  0
M  END
>  <minimizedAffinity>
-5.32975531

$$$$

 OpenBabel03272508553D

 35 38  0  0  1  0  0  0  0  0999 V2000
   35.7420   25.5770   31.1760 C   0  0  0  0  0  0  0  0  0  0  0  0
   34.4910   25.5140   31.0240 O   0  0  0  0  0  0  0  0  0  0  0  0
   36.3740   26.8280   31.4780 N   0  0  0  0  0  0  0  0  0  0  0  0
   37.3900   26.9670   31.4210 H   0  0  0  0  0  0  0  0  0  0  0  0
   36.5830   24.3690   31.0450 C   0  0  0  0  0  0  0  0  0  0  0  0
   37.8320   24.5090   30.5010 C   0  0  0  0  0  0  0  0  0  0  0  0
   38.6070   23.3630   30.3840 C   0  0  0  0  0  0  0  0  0  0  0  0
   38.0930   22.1790   30.8110 C   0  0  0  0  0  0  0  0  0  0  0  0
   36.8330   22.0410   31.3590 C   0  0  0  0  0  0  0  0  0  0  0  0
   36.1280   23.1690   31.4510 N   0  0  0  0  0  0  0  0  0  0  0  0
   38.2610   25.4460   30.1540 H   0  0  0  0  0  0  0  0  0  0  0  0
   39.5910   23.4470   29.9600 H   0  0  0  0  0  0  0  0  0  0  0  0
   38.7660   21.3160   30.6870 H   0  0  0  0  0  0  0  0  0  0  0  0
   36.3400   20.7710   31.7930 C   0  0  0  0  0  0  0  0  0  0  0  0
   35.7360   20.3550   32.9080 C   0  0  0  0  0  0  0  0  0  0  0  0
   35.5640   21.0970   33.6740 H   0  0  0  0  0  0  0  0  0  0  0  0
   35.3540   19.0600   33.0850 C   0  0  0  0  0  3  0  0  0  0  0  0
   35.6570   18.1670   31.9540 C   0  0  0  0  0  3  0  0  0  0  0  0
   36.4830   19.3410   30.7360 S   0  0  0  0  0  0  0  0  0  0  0  0
   36.0450   28.9410   32.7650 C   0  0  2  0  0  0  0  0  0  0  0  0
   36.0130   29.3020   31.3380 C   0  0  0  0  0  0  0  0  0  0  0  0
   35.5200   27.9320   31.8800 C   0  0  1  0  0  0  0  0  0  0  0  0
   37.0870   28.8500   33.1720 H   0  0  0  0  0  0  0  0  0  0  0  0
   35.2040   29.9220   30.9120 H   0  0  0  0  0  0  0  0  0  0  0  0
   36.9430   29.3150   30.7590 H   0  0  0  0  0  0  0  0  0  0  0  0
   34.4210   27.7710   31.8210 H   0  0  0  0  0  0  0  0  0  0  0  0
   34.8730   31.1130   35.5140 C   0  0  0  0  0  0  0  0  0  0  0  0
   33.4760   30.8090   35.5730 C   0  0  0  0  0  0  0  0  0  0  0  0
   32.9720   29.8310   34.6350 C   0  0  0  0  0  0  0  0  0  0  0  0
   33.8300   29.2510   33.7550 N   0  0  0  0  0  0  0  0  0  0  0  0
   35.1490   29.5910   33.7600 C   0  0  0  0  0  0  0  0  0  0  0  0
   35.6960   30.5160   34.6250 N   0  0  0  0  0  0  0  0  0  0  0  0
   35.1810   31.8520   36.2400 H   0  0  0  0  0  0  0  0  0  0  0  0
   32.8390   31.2900   36.2820 H   0  0  0  0  0  0  0  0  0  0  0  0
   31.9180   29.5940   34.6720 H   0  0  0  0  0  0  0  0  0  0  0  0
  1  3  1  0  0  0  0
  2  1  2  0  0  0  0
  3 22  1  0  0  0  0
  4  3  1  0  0  0  0
  5  1  1  0  0  0  0
  5 10  1  0  0  0  0
  6  5  2  0  0  0  0
  7  6  1  0  0  0  0
  7  8  2  0  0  0  0
  8  9  1  0  0  0  0
  9 10  2  0  0  0  0
  9 14  1  0  0  0  0
 11  6  1  0  0  0  0
 12  7  1  0  0  0  0
 13  8  1  0  0  0  0
 14 15  2  0  0  0  0
 15 17  1  0  0  0  0
 15 16  1  0  0  0  0
 18 17  2  0  0  0  0
 19 14  1  0  0  0  0
 19 18  1  0  0  0  0
 20 23  1  1  0  0  0
 20 31  1  0  0  0  0
 21 22  1  0  0  0  0
 21 20  1  0  0  0  0
 22 26  1  1  0  0  0
 22 20  1  0  0  0  0
 24 21  1  0  0  0  0
 25 21  1  0  0  0  0
 27 28  1  0  0  0  0
 27 33  1  0  0  0  0
 28 34  1  0  0  0  0
 29 35  1  0  0  0  0
 29 28  2  0  0  0  0
 30 31  2  0  0  0  0
 30 29  1  0  0  0  0
 31 32  1  0  0  0  0
 32 27  2  0  0  0  0
M  END
>  <minimizedAffinity>
-5.25012207

$$$$

 OpenBabel03272508553D

 35 38  0  0  1  0  0  0  0  0999 V2000
   37.9190   24.9460   34.6920 C   0  0  0  0  0  0  0  0  0  0  0  0
   37.6640   24.3210   33.6250 O   0  0  0  0  0  0  0  0  0  0  0  0
   37.6820   26.3570   34.7800 N   0  0  0  0  0  0  0  0  0  0  0  0
   38.0480   26.9370   35.5450 H   0  0  0  0  0  0  0  0  0  0  0  0
   38.4670   24.2420   35.8700 C   0  0  0  0  0  0  0  0  0  0  0  0
   37.8790   24.4660   37.0860 C   0  0  0  0  0  0  0  0  0  0  0  0
   38.4090   23.7980   38.1820 C   0  0  0  0  0  0  0  0  0  0  0  0
   39.4680   22.9670   37.9920 C   0  0  0  0  0  0  0  0  0  0  0  0
   40.0590   22.7440   36.7650 C   0  0  0  0  0  0  0  0  0  0  0  0
   39.5160   23.4070   35.7440 N   0  0  0  0  0  0  0  0  0  0  0  0
   37.0320   25.1250   37.2580 H   0  0  0  0  0  0  0  0  0  0  0  0
   37.9640   23.9570   39.1470 H   0  0  0  0  0  0  0  0  0  0  0  0
   39.8320   22.4730   38.9070 H   0  0  0  0  0  0  0  0  0  0  0  0
   41.1730   21.8590   36.6200 C   0  0  0  0  0  0  0  0  0  0  0  0
   41.8430   21.0820   37.4730 C   0  0  0  0  0  0  0  0  0  0  0  0
   41.5120   21.0900   38.5010 H   0  0  0  0  0  0  0  0  0  0  0  0
   42.8970   20.3140   37.0800 C   0  0  0  0  0  3  0  0  0  0  0  0
   43.2300   20.4090   35.6490 C   0  0  0  0  0  3  0  0  0  0  0  0
   41.9440   21.6350   35.0260 S   0  0  0  0  0  0  0  0  0  0  0  0
   36.9300   28.4030   33.5640 C   0  0  2  0  0  0  0  0  0  0  0  0
   37.7600   27.6290   32.6250 C   0  0  0  0  0  0  0  0  0  0  0  0
   36.8890   26.9720   33.7300 C   0  0  1  0  0  0  0  0  0  0  0  0
   37.5360   29.0360   34.2650 H   0  0  0  0  0  0  0  0  0  0  0  0
   37.4180   27.3970   31.6000 H   0  0  0  0  0  0  0  0  0  0  0  0
   38.8470   27.6040   32.7530 H   0  0  0  0  0  0  0  0  0  0  0  0
   36.0100   26.4010   33.3590 H   0  0  0  0  0  0  0  0  0  0  0  0
   34.6150   30.3830   31.4760 C   0  0  0  0  0  0  0  0  0  0  0  0
   33.4430   30.4510   32.2940 C   0  0  0  0  0  0  0  0  0  0  0  0
   33.4960   29.7930   33.5800 C   0  0  0  0  0  0  0  0  0  0  0  0
   34.6350   29.1520   33.9520 N   0  0  0  0  0  0  0  0  0  0  0  0
   35.7120   29.1320   33.1180 C   0  0  0  0  0  0  0  0  0  0  0  0
   35.7300   29.7370   31.8790 N   0  0  0  0  0  0  0  0  0  0  0  0
   34.5060   30.8940   30.5290 H   0  0  0  0  0  0  0  0  0  0  0  0
   32.5700   30.9660   31.9600 H   0  0  0  0  0  0  0  0  0  0  0  0
   32.6150   29.8380   34.2060 H   0  0  0  0  0  0  0  0  0  0  0  0
  1  3  1  0  0  0  0
  1  5  1  0  0  0  0
  2  1  2  0  0  0  0
  3  4  1  0  0  0  0
  5  6  1  0  0  0  0
  6 11  1  0  0  0  0
  6  7  2  0  0  0  0
  7 12  1  0  0  0  0
  8  7  1  0  0  0  0
  8 13  1  0  0  0  0
  9  8  2  0  0  0  0
 10  5  2  0  0  0  0
 10  9  1  0  0  0  0
 14  9  1  0  0  0  0
 14 15  2  0  0  0  0
 15 16  1  0  0  0  0
 17 15  1  0  0  0  0
 18 17  2  0  0  0  0
 19 18  1  0  0  0  0
 19 14  1  0  0  0  0
 20 22  1  0  0  0  0
 20 23  1  1  0  0  0
 21 25  1  0  0  0  0
 21 20  1  0  0  0  0
 21 22  1  0  0  0  0
 22 26  1  6  0  0  0
 22  3  1  0  0  0  0
 24 21  1  0  0  0  0
 27 32  2  0  0  0  0
 27 28  1  0  0  0  0
 28 29  2  0  0  0  0
 29 30  1  0  0  0  0
 29 35  1  0  0  0  0
 31 20  1  0  0  0  0
 31 30  2  0  0  0  0
 32 31  1  0  0  0  0
 33 27  1  0  0  0  0
 34 28  1  0  0  0  0
M  END
>  <minimizedAffinity>
-5.1623621

$$$$

 OpenBabel03272508553D

 35 38  0  0  1  0  0  0  0  0999 V2000
   38.1290   24.0870   33.9920 C   0  0  0  0  0  0  0  0  0  0  0  0
   37.9700   23.0890   34.7480 O   0  0  0  0  0  0  0  0  0  0  0  0
   38.4530   23.9040   32.6070 N   0  0  0  0  0  0  0  0  0  0  0  0
   38.7780   24.6700   32.0050 H   0  0  0  0  0  0  0  0  0  0  0  0
   37.9880   25.4630   34.5130 C   0  0  0  0  0  0  0  0  0  0  0  0
   38.7230   25.8140   35.6140 C   0  0  0  0  0  0  0  0  0  0  0  0
   38.5760   27.1100   36.0900 C   0  0  0  0  0  0  0  0  0  0  0  0
   37.7230   27.9500   35.4460 C   0  0  0  0  0  0  0  0  0  0  0  0
   36.9840   27.5940   34.3370 C   0  0  0  0  0  0  0  0  0  0  0  0
   37.1580   26.3400   33.9170 N   0  0  0  0  0  0  0  0  0  0  0  0
   39.4100   25.1570   36.1410 H   0  0  0  0  0  0  0  0  0  0  0  0
   39.1420   27.4090   36.9530 H   0  0  0  0  0  0  0  0  0  0  0  0
   37.6600   28.9610   35.8820 H   0  0  0  0  0  0  0  0  0  0  0  0
   36.0990   28.5170   33.6970 C   0  0  0  0  0  0  0  0  0  0  0  0
   35.1070   29.2920   34.1390 C   0  0  0  0  0  0  0  0  0  0  0  0
   34.8870   29.2450   35.1960 H   0  0  0  0  0  0  0  0  0  0  0  0
   34.3960   30.1050   33.3090 C   0  0  0  0  0  3  0  0  0  0  0  0
   34.8110   30.0590   31.8970 C   0  0  0  0  0  3  0  0  0  0  0  0
   36.2190   28.8100   31.9410 S   0  0  0  0  0  0  0  0  0  0  0  0
   37.0320   22.1630   31.5200 C   0  0  2  0  0  0  0  0  0  0  0  0
   38.0370   22.5760   30.5260 C   0  0  0  0  0  0  0  0  0  0  0  0
   38.3070   22.5680   32.0550 C   0  0  1  0  0  0  0  0  0  0  0  0
   36.1520   22.8580   31.5690 H   0  0  0  0  0  0  0  0  0  0  0  0
   38.6420   21.8390   29.9680 H   0  0  0  0  0  0  0  0  0  0  0  0
   37.9440   23.5490   30.0310 H   0  0  0  0  0  0  0  0  0  0  0  0
   39.0280   21.7960   32.4010 H   0  0  0  0  0  0  0  0  0  0  0  0
   35.4780   19.1010   32.8800 C   0  0  0  0  0  0  0  0  0  0  0  0
   35.7550   18.1360   31.8600 C   0  0  0  0  0  0  0  0  0  0  0  0
   36.4960   18.5890   30.7050 C   0  0  0  0  0  0  0  0  0  0  0  0
   36.8920   19.8870   30.6370 N   0  0  0  0  0  0  0  0  0  0  0  0
   36.5910   20.7480   31.6480 C   0  0  0  0  0  0  0  0  0  0  0  0
   35.8870   20.3830   32.7780 N   0  0  0  0  0  0  0  0  0  0  0  0
   34.9210   18.6960   33.7120 H   0  0  0  0  0  0  0  0  0  0  0  0
   35.4240   17.1260   31.9560 H   0  0  0  0  0  0  0  0  0  0  0  0
   36.7110   17.8670   29.9280 H   0  0  0  0  0  0  0  0  0  0  0  0
  1  5  1  0  0  0  0
  1  2  2  0  0  0  0
  3  1  1  0  0  0  0
  4  3  1  0  0  0  0
  5  6  1  0  0  0  0
  6  7  2  0  0  0  0
  6 11  1  0  0  0  0
  7 12  1  0  0  0  0
  8 13  1  0  0  0  0
  8  7  1  0  0  0  0
  9  8  2  0  0  0  0
 10  9  1  0  0  0  0
 10  5  2  0  0  0  0
 14 15  2  0  0  0  0
 14  9  1  0  0  0  0
 15 16  1  0  0  0  0
 17 15  1  0  0  0  0
 18 19  1  0  0  0  0
 18 17  2  0  0  0  0
 19 14  1  0  0  0  0
 20 23  1  1  0  0  0
 20 31  1  0  0  0  0
 20 22  1  0  0  0  0
 21 20  1  0  0  0  0
 21 22  1  0  0  0  0
 22 26  1  1  0  0  0
 22  3  1  0  0  0  0
 24 21  1  0  0  0  0
 25 21  1  0  0  0  0
 27 33  1  0  0  0  0
 28 34  1  0  0  0  0
 28 27  2  0  0  0  0
 29 28  1  0  0  0  0
 30 29  2  0  0  0  0
 30 31  1  0  0  0  0
 31 32  2  0  0  0  0
 32 27  1  0  0  0  0
 35 29  1  0  0  0  0
M  END
>  <minimizedAffinity>
-5.10757256

$$$$

 OpenBabel03272508553D

 35 38  0  0  1  0  0  0  0  0999 V2000
   37.0310   26.9150   33.3920 C   0  0  0  0  0  0  0  0  0  0  0  0
   37.3900   26.2210   32.4020 O   0  0  0  0  0  0  0  0  0  0  0  0
   37.1240   26.3860   34.7220 N   0  0  0  0  0  0  0  0  0  0  0  0
   36.6710   26.8290   35.5310 H   0  0  0  0  0  0  0  0  0  0  0  0
   36.5080   28.2850   33.2080 C   0  0  0  0  0  0  0  0  0  0  0  0
   36.5780   28.8390   31.9570 C   0  0  0  0  0  0  0  0  0  0  0  0
   36.0830   30.1270   31.8040 C   0  0  0  0  0  0  0  0  0  0  0  0
   35.5610   30.7610   32.8870 C   0  0  0  0  0  0  0  0  0  0  0  0
   35.4930   30.2000   34.1470 C   0  0  0  0  0  0  0  0  0  0  0  0
   35.9800   28.9630   34.2440 N   0  0  0  0  0  0  0  0  0  0  0  0
   36.9900   28.3480   31.0800 H   0  0  0  0  0  0  0  0  0  0  0  0
   36.1270   30.5830   30.8310 H   0  0  0  0  0  0  0  0  0  0  0  0
   35.1890   31.7790   32.6870 H   0  0  0  0  0  0  0  0  0  0  0  0
   34.9340   30.9120   35.2540 C   0  0  0  0  0  0  0  0  0  0  0  0
   35.4480   31.7460   36.1600 C   0  0  0  0  0  0  0  0  0  0  0  0
   36.5050   31.9580   36.0820 H   0  0  0  0  0  0  0  0  0  0  0  0
   34.6890   32.3070   37.1420 C   0  0  0  0  0  3  0  0  0  0  0  0
   33.2680   31.9220   37.1190 C   0  0  0  0  0  3  0  0  0  0  0  0
   33.1990   30.7600   35.6390 S   0  0  0  0  0  0  0  0  0  0  0  0
   39.1560   25.2350   35.6010 C   0  0  2  0  0  0  0  0  0  0  0  0
   38.0160   24.7570   36.4000 C   0  0  0  0  0  0  0  0  0  0  0  0
   37.8950   25.1690   34.9080 C   0  0  1  0  0  0  0  0  0  0  0  0
   39.5570   26.2220   35.9540 H   0  0  0  0  0  0  0  0  0  0  0  0
   37.8380   23.6800   36.5750 H   0  0  0  0  0  0  0  0  0  0  0  0
   37.5620   25.4150   37.1480 H   0  0  0  0  0  0  0  0  0  0  0  0
   37.6980   24.3320   34.2030 H   0  0  0  0  0  0  0  0  0  0  0  0
   42.4590   24.0730   34.4240 C   0  0  0  0  0  0  0  0  0  0  0  0
   42.3270   22.6490   34.4930 C   0  0  0  0  0  0  0  0  0  0  0  0
   41.0620   22.1240   34.9530 C   0  0  0  0  0  0  0  0  0  0  0  0
   40.0690   22.9870   35.2930 N   0  0  0  0  0  0  0  0  0  0  0  0
   40.2690   24.3310   35.2010 C   0  0  0  0  0  0  0  0  0  0  0  0
   41.4500   24.8990   34.7700 N   0  0  0  0  0  0  0  0  0  0  0  0
   43.4290   24.3960   34.0730 H   0  0  0  0  0  0  0  0  0  0  0  0
   43.1350   22.0090   34.2140 H   0  0  0  0  0  0  0  0  0  0  0  0
   40.9520   21.0500   35.0090 H   0  0  0  0  0  0  0  0  0  0  0  0
  1  3  1  0  0  0  0
  2  1  2  0  0  0  0
  3 22  1  0  0  0  0
  3  4  1  0  0  0  0
  5  1  1  0  0  0  0
  5 10  1  0  0  0  0
  6  5  2  0  0  0  0
  7  6  1  0  0  0  0
  7  8  2  0  0  0  0
  8  9  1  0  0  0  0
  9 10  2  0  0  0  0
  9 14  1  0  0  0  0
 11  6  1  0  0  0  0
 12  7  1  0  0  0  0
 13  8  1  0  0  0  0
 14 19  1  0  0  0  0
 14 15  2  0  0  0  0
 15 17  1  0  0  0  0
 16 15  1  0  0  0  0
 18 17  2  0  0  0  0
 19 18  1  0  0  0  0
 20 23  1  1  0  0  0
 20 21  1  0  0  0  0
 21 24  1  0  0  0  0
 21 25  1  0  0  0  0
 22 26  1  6  0  0  0
 22 20  1  0  0  0  0
 22 21  1  0  0  0  0
 27 28  2  0  0  0  0
 27 32  1  0  0  0  0
 28 29  1  0  0  0  0
 29 35  1  0  0  0  0
 29 30  2  0  0  0  0
 31 30  1  0  0  0  0
 31 20  1  0  0  0  0
 32 31  2  0  0  0  0
 33 27  1  0  0  0  0
 34 28  1  0  0  0  0
M  END
>  <minimizedAffinity>
-5.10552549

$$$$

 OpenBabel03272508553D

 35 38  0  0  1  0  0  0  0  0999 V2000
   35.9320   25.0160   31.2860 C   0  0  0  0  0  0  0  0  0  0  0  0
   34.8690   25.1060   30.6120 O   0  0  0  0  0  0  0  0  0  0  0  0
   36.7640   26.1660   31.4880 N   0  0  0  0  0  0  0  0  0  0  0  0
   37.7210   26.1040   31.8580 H   0  0  0  0  0  0  0  0  0  0  0  0
   36.3440   23.7270   31.8820 C   0  0  0  0  0  0  0  0  0  0  0  0
   35.8030   22.5780   31.3700 C   0  0  0  0  0  0  0  0  0  0  0  0
   36.2010   21.3780   31.9430 C   0  0  0  0  0  0  0  0  0  0  0  0
   37.0940   21.4060   32.9670 C   0  0  0  0  0  0  0  0  0  0  0  0
   37.6370   22.5660   33.4820 C   0  0  0  0  0  0  0  0  0  0  0  0
   37.2250   23.6930   32.8990 N   0  0  0  0  0  0  0  0  0  0  0  0
   35.0900   22.5350   30.5510 H   0  0  0  0  0  0  0  0  0  0  0  0
   35.7900   20.4620   31.5580 H   0  0  0  0  0  0  0  0  0  0  0  0
   37.3610   20.4160   33.3700 H   0  0  0  0  0  0  0  0  0  0  0  0
   38.5730   22.5410   34.5630 C   0  0  0  0  0  0  0  0  0  0  0  0
   39.8590   22.1960   34.6530 C   0  0  0  0  0  0  0  0  0  0  0  0
   40.3360   21.8570   33.7450 H   0  0  0  0  0  0  0  0  0  0  0  0
   40.5460   22.2600   35.8270 C   0  0  0  0  0  3  0  0  0  0  0  0
   39.7610   22.7400   36.9760 C   0  0  0  0  0  3  0  0  0  0  0  0
   38.0740   23.0470   36.1990 S   0  0  0  0  0  0  0  0  0  0  0  0
   36.0100   28.4400   32.1870 C   0  0  2  0  0  0  0  0  0  0  0  0
   37.2180   28.6250   31.3660 C   0  0  0  0  0  0  0  0  0  0  0  0
   36.2100   27.4640   31.1460 C   0  0  1  0  0  0  0  0  0  0  0  0
   36.2400   28.1820   33.2550 H   0  0  0  0  0  0  0  0  0  0  0  0
   37.2490   29.3450   30.5280 H   0  0  0  0  0  0  0  0  0  0  0  0
   38.2010   28.3740   31.7790 H   0  0  0  0  0  0  0  0  0  0  0  0
   35.6140   27.5300   30.2090 H   0  0  0  0  0  0  0  0  0  0  0  0
   33.9160   31.3260   31.2250 C   0  0  0  0  0  0  0  0  0  0  0  0
   32.7080   31.0880   31.9550 C   0  0  0  0  0  0  0  0  0  0  0  0
   32.6590   29.9040   32.7840 C   0  0  0  0  0  0  0  0  0  0  0  0
   33.7410   29.0840   32.8340 N   0  0  0  0  0  0  0  0  0  0  0  0
   34.8570   29.3780   32.1110 C   0  0  0  0  0  0  0  0  0  0  0  0
   34.9710   30.4880   31.3000 N   0  0  0  0  0  0  0  0  0  0  0  0
   33.8830   32.2260   30.6260 H   0  0  0  0  0  0  0  0  0  0  0  0
   31.8820   31.7610   31.8850 H   0  0  0  0  0  0  0  0  0  0  0  0
   31.7510   29.7150   33.3390 H   0  0  0  0  0  0  0  0  0  0  0  0
  1  3  1  0  0  0  0
  1  5  1  0  0  0  0
  2  1  2  0  0  0  0
  3  4  1  0  0  0  0
  5 10  1  0  0  0  0
  6  5  2  0  0  0  0
  6  7  1  0  0  0  0
  7  8  2  0  0  0  0
  8 13  1  0  0  0  0
  8  9  1  0  0  0  0
  9 14  1  0  0  0  0
 10  9  2  0  0  0  0
 11  6  1  0  0  0  0
 12  7  1  0  0  0  0
 14 15  2  0  0  0  0
 14 19  1  0  0  0  0
 15 17  1  0  0  0  0
 16 15  1  0  0  0  0
 17 18  2  0  0  0  0
 19 18  1  0  0  0  0
 20 23  1  1  0  0  0
 21 25  1  0  0  0  0
 21 20  1  0  0  0  0
 22 26  1  6  0  0  0
 22 21  1  0  0  0  0
 22  3  1  0  0  0  0
 22 20  1  0  0  0  0
 24 21  1  0  0  0  0
 27 32  2  0  0  0  0
 27 28  1  0  0  0  0
 28 29  2  0  0  0  0
 29 30  1  0  0  0  0
 29 35  1  0  0  0  0
 31 20  1  0  0  0  0
 31 30  2  0  0  0  0
 32 31  1  0  0  0  0
 33 27  1  0  0  0  0
 34 28  1  0  0  0  0
M  END
>  <minimizedAffinity>
-5.05853319

$$$$

 OpenBabel03272508553D

 35 38  0  0  1  0  0  0  0  0999 V2000
   37.8430   27.2390   33.4540 C   0  0  0  0  0  0  0  0  0  0  0  0
   38.1020   27.5740   34.6430 O   0  0  0  0  0  0  0  0  0  0  0  0
   38.3650   26.0170   32.9150 N   0  0  0  0  0  0  0  0  0  0  0  0
   38.3460   25.7980   31.9110 H   0  0  0  0  0  0  0  0  0  0  0  0
   37.0000   28.0930   32.5920 C   0  0  0  0  0  0  0  0  0  0  0  0
   37.4710   28.4170   31.3480 C   0  0  0  0  0  0  0  0  0  0  0  0
   36.6660   29.2230   30.5530 C   0  0  0  0  0  0  0  0  0  0  0  0
   35.4700   29.6400   31.0450 C   0  0  0  0  0  0  0  0  0  0  0  0
   34.9980   29.3120   32.3000 C   0  0  0  0  0  0  0  0  0  0  0  0
   35.8050   28.5380   33.0250 N   0  0  0  0  0  0  0  0  0  0  0  0
   38.4230   28.0930   30.9370 H   0  0  0  0  0  0  0  0  0  0  0  0
   37.0140   29.4910   29.5720 H   0  0  0  0  0  0  0  0  0  0  0  0
   34.8880   30.2750   30.3570 H   0  0  0  0  0  0  0  0  0  0  0  0
   33.7310   29.7800   32.7700 C   0  0  0  0  0  0  0  0  0  0  0  0
   32.5430   29.1950   32.9360 C   0  0  0  0  0  0  0  0  0  0  0  0
   32.4740   28.1500   32.6720 H   0  0  0  0  0  0  0  0  0  0  0  0
   31.4610   29.8720   33.4110 C   0  0  0  0  0  3  0  0  0  0  0  0
   31.7100   31.2890   33.7260 C   0  0  0  0  0  3  0  0  0  0  0  0
   33.5300   31.4770   33.2820 S   0  0  0  0  0  0  0  0  0  0  0  0
   38.0700   24.2360   34.6380 C   0  0  2  0  0  0  0  0  0  0  0  0
   38.6580   23.5900   33.4530 C   0  0  0  0  0  0  0  0  0  0  0  0
   38.9440   25.0650   33.8460 C   0  0  1  0  0  0  0  0  0  0  0  0
   36.9570   24.3580   34.5650 H   0  0  0  0  0  0  0  0  0  0  0  0
   39.5450   22.9350   33.5260 H   0  0  0  0  0  0  0  0  0  0  0  0
   38.0380   23.4110   32.5670 H   0  0  0  0  0  0  0  0  0  0  0  0
   39.9790   25.2650   34.1980 H   0  0  0  0  0  0  0  0  0  0  0  0
   38.0250   23.8950   38.3160 C   0  0  0  0  0  0  0  0  0  0  0  0
   39.1940   23.1070   38.5660 C   0  0  0  0  0  0  0  0  0  0  0  0
   39.9840   22.7140   37.4210 C   0  0  0  0  0  0  0  0  0  0  0  0
   39.5920   23.1010   36.1790 N   0  0  0  0  0  0  0  0  0  0  0  0
   38.4660   23.8520   36.0190 C   0  0  0  0  0  0  0  0  0  0  0  0
   37.6670   24.2610   37.0670 N   0  0  0  0  0  0  0  0  0  0  0  0
   37.4830   24.1530   39.2140 H   0  0  0  0  0  0  0  0  0  0  0  0
   39.4640   22.8270   39.5600 H   0  0  0  0  0  0  0  0  0  0  0  0
   40.8690   22.1190   37.6000 H   0  0  0  0  0  0  0  0  0  0  0  0
  1  2  2  0  0  0  0
  3  1  1  0  0  0  0
  3 22  1  0  0  0  0
  4  3  1  0  0  0  0
  5 10  1  0  0  0  0
  5  1  1  0  0  0  0
  6  5  2  0  0  0  0
  7  8  2  0  0  0  0
  7  6  1  0  0  0  0
  8  9  1  0  0  0  0
  9 14  1  0  0  0  0
  9 10  2  0  0  0  0
 11  6  1  0  0  0  0
 12  7  1  0  0  0  0
 13  8  1  0  0  0  0
 14 15  2  0  0  0  0
 14 19  1  0  0  0  0
 15 17  1  0  0  0  0
 16 15  1  0  0  0  0
 17 18  2  0  0  0  0
 19 18  1  0  0  0  0
 20 23  1  6  0  0  0
 20 31  1  0  0  0  0
 21 24  1  0  0  0  0
 21 22  1  0  0  0  0
 21 20  1  0  0  0  0
 22 26  1  1  0  0  0
 22 20  1  0  0  0  0
 25 21  1  0  0  0  0
 27 28  1  0  0  0  0
 27 33  1  0  0  0  0
 28 34  1  0  0  0  0
 29 35  1  0  0  0  0
 29 28  2  0  0  0  0
 30 29  1  0  0  0  0
 31 30  2  0  0  0  0
 31 32  1  0  0  0  0
 32 27  2  0  0  0  0
M  END
>  <minimizedAffinity>
-4.99964762

$$$$
