
 OpenBabel03272508273D

 35 38  0  0  1  0  0  0  0  0999 V2000
   33.7440   28.8350   47.1910 C   0  0  2  0  0  0  0  0  0  0  0  0
   34.4580   28.0840   48.3030 C   0  0  2  0  0  0  0  0  0  0  0  0
   33.5250   27.9370   49.2950 O   0  0  0  0  0  0  0  0  0  0  0  0
   32.2700   28.0150   48.7840 C   0  0  0  0  0  0  0  0  0  0  0  0
   32.3770   28.1720   47.2970 C   0  0  1  0  0  0  0  0  0  0  0  0
   33.6250   29.9030   47.3850 H   0  0  0  0  0  0  0  0  0  0  0  0
   34.7600   27.0960   47.9050 H   0  0  0  0  0  0  0  0  0  0  0  0
   31.8040   28.9560   49.1960 H   0  0  0  0  0  0  0  0  0  0  0  0
   31.5920   27.1890   49.0790 H   0  0  0  0  0  0  0  0  0  0  0  0
   32.3990   27.1790   46.7690 H   0  0  0  0  0  0  0  0  0  0  0  0
   35.5520   30.3200   48.9860 C   0  0  1  0  0  0  0  0  0  0  0  0
   35.6250   28.8910   48.7610 C   0  0  1  0  0  0  0  0  0  0  0  0
   35.7620   29.3680   50.1710 C   0  0  0  0  0  0  0  0  0  0  0  0
   34.6310   30.9210   49.1640 H   0  0  0  0  0  0  0  0  0  0  0  0
   36.6010   28.5400   48.3050 H   0  0  0  0  0  0  0  0  0  0  0  0
   36.7290   29.3660   50.6700 H   0  0  0  0  0  0  0  0  0  0  0  0
   34.9020   29.1410   50.8340 H   0  0  0  0  0  0  0  0  0  0  0  0
   36.7370   31.2180   48.7520 C   0  0  0  0  0  0  0  0  0  0  0  0
   37.0100   32.2070   49.6990 C   0  0  0  0  0  0  0  0  0  0  0  0
   38.0860   33.0210   49.4370 C   0  0  0  0  0  0  0  0  0  0  0  0
   38.8340   32.8510   48.2980 N   0  0  0  0  0  0  0  0  0  0  0  0
   38.5370   31.8750   47.4000 C   0  0  0  0  0  0  0  0  0  0  0  0
   37.4820   31.0510   47.6220 N   0  0  0  0  0  0  0  0  0  0  0  0
   36.4280   32.3520   50.5930 H   0  0  0  0  0  0  0  0  0  0  0  0
   38.3780   33.8250   50.1260 H   0  0  0  0  0  0  0  0  0  0  0  0
   39.1120   31.7110   46.4850 H   0  0  0  0  0  0  0  0  0  0  0  0
   34.3030   28.6240   45.9440 O   0  0  0  0  0  0  0  0  0  0  0  0
   34.8570   27.7770   45.9710 H   0  0  0  0  0  0  0  0  0  0  0  0
   31.3820   28.9620   46.7520 O   0  0  0  0  0  0  0  0  0  0  0  0
   29.9750   28.5620   47.4980 C   0  0  0  0  0  0  0  0  0  0  0  0
   29.5780   27.7630   46.2510 C   0  0  0  0  0  0  0  0  0  0  0  0
   29.8800   27.4470   45.2240 H   0  0  0  0  0  0  0  0  0  0  0  0
   28.3900   27.1160   46.2300 C   0  0  0  0  0  3  0  0  0  0  0  0
   27.5370   27.2070   47.3930 C   0  0  0  0  0  3  0  0  0  0  0  0
   28.5840   28.3110   48.5460 S   0  0  0  0  0  0  0  0  0  0  0  0
  1  5  1  0  0  0  0
  1  6  1  1  0  0  0
  1  2  1  0  0  0  0
  2  7  1  6  0  0  0
  2 12  1  0  0  0  0
  2  3  1  0  0  0  0
  4  9  1  0  0  0  0
  4  8  1  0  0  0  0
  4  3  1  0  0  0  0
  5 10  1  6  0  0  0
  5  4  1  0  0  0  0
 11 14  1  6  0  0  0
 11 13  1  0  0  0  0
 12 15  1  6  0  0  0
 12 11  1  0  0  0  0
 12 13  1  0  0  0  0
 13 16  1  0  0  0  0
 13 17  1  0  0  0  0
 18 11  1  0  0  0  0
 18 19  1  0  0  0  0
 19 24  1  0  0  0  0
 20 19  2  0  0  0  0
 20 25  1  0  0  0  0
 21 20  1  0  0  0  0
 22 23  1  0  0  0  0
 22 21  2  0  0  0  0
 23 18  2  0  0  0  0
 26 22  1  0  0  0  0
 27 28  1  0  0  0  0
 27  1  1  0  0  0  0
 29  5  1  0  0  0  0
 29 30  1  0  0  0  0
 30 35  1  0  0  0  0
 31 30  2  0  0  0  0
 32 31  1  0  0  0  0
 33 31  1  0  0  0  0
 33 34  2  0  0  0  0
 34 35  1  0  0  0  0
M  END
>  <minimizedAffinity>
-5.24210358

>  <minimizedRMSD>
1.99815452

$$$$
