REMARK  Name = 
REMARK  6 active torsions:
REMARK  status: ('A' for Active; 'I' for Inactive)
REMARK    1  A    between atoms: C_3  and  C_9
REMARK    2  A    between atoms: C_5  and  O_14
REMARK    3  A    between atoms: O_14  and  C_15
REMARK    4  A    between atoms: C_15  and  C_16
REMARK    5  A    between atoms: C_16  and  C_17
REMARK    6  A    between atoms: C_21  and  C_35
REMARK                            x       y       z     vdW  Elec       q    Type
REMARK                         _______ _______ _______ _____ _____    ______ ____
ROOT
ATOM      1  O   UNL     1      34.996  28.369  49.442  0.00  0.00    +0.000 OA
ENDROOT
BRANCH   1   6
ATOM      2  C   UNL     1      37.338  30.169  51.510  0.00  0.00    +0.000 A 
ATOM      3  C   UNL     1      38.074  30.857  50.515  0.00  0.00    +0.000 A 
ATOM      4  C   UNL     1      37.711  30.652  49.194  0.00  0.00    +0.000 A 
ATOM      5  N   UNL     1      36.665  29.796  48.970  0.00  0.00    +0.000 NA
ATOM      6  C   UNL     1      35.983  29.157  49.927  0.00  0.00    +0.000 A 
ATOM      7  N   UNL     1      36.336  29.355  51.211  0.00  0.00    +0.000 NA
ATOM      8  H   UNL     1      37.652  30.356  52.531  0.00  0.00    +0.000 HD
ATOM      9  H   UNL     1      38.893  31.527  50.688  0.00  0.00    +0.000 HD
BRANCH   4  12
ATOM     10  F   UNL     1      38.945  33.260  49.007  0.00  0.00    +0.000 F 
ATOM     11  C   UNL     1      38.916  32.477  47.945  0.00  0.00    +0.000 A 
ATOM     12  C   UNL     1      38.335  31.258  48.045  0.00  0.00    +0.000 A 
ATOM     13  C   UNL     1      38.362  30.523  46.871  0.00  0.00    +0.000 A 
ATOM     14  C   UNL     1      38.928  30.986  45.703  0.00  0.00    +0.000 A 
ATOM     15  C   UNL     1      39.508  32.232  45.644  0.00  0.00    +0.000 A 
ATOM     16  C   UNL     1      39.497  32.985  46.793  0.00  0.00    +0.000 A 
ATOM     17  H   UNL     1      37.942  29.530  46.782  0.00  0.00    +0.000 HD
ATOM     18  H   UNL     1      38.949  30.412  44.785  0.00  0.00    +0.000 HD
ATOM     19  H   UNL     1      39.955  32.614  44.743  0.00  0.00    +0.000 HD
ATOM     20  H   UNL     1      39.944  33.959  46.768  0.00  0.00    +0.000 HD
ENDBRANCH   4  12
ENDBRANCH   1   6
BRANCH   1  21
ATOM     21  C   UNL     1      34.449  28.651  48.163  0.00  0.00    +0.000 C 
ATOM     22  H   UNL     1      35.293  28.790  47.450  0.00  0.00    +0.000 HD
ATOM     23  H   UNL     1      33.868  29.592  48.203  0.00  0.00    +0.000 HD
BRANCH  21  24
ATOM     24  C   UNL     1      33.569  27.533  47.710  0.00  0.00    +0.000 C 
ATOM     25  H   UNL     1      33.798  27.194  46.669  0.00  0.00    +0.000 HD
ATOM     26  H   UNL     1      33.712  26.657  48.355  0.00  0.00    +0.000 HD
BRANCH  24  27
ATOM     27  C   UNL     1      32.132  27.899  47.706  0.00  0.00    +0.000 A 
ATOM     28  C   UNL     1      31.342  27.536  48.798  0.00  0.00    +0.000 A 
ATOM     29  C   UNL     1      30.016  27.825  48.887  0.00  0.00    +0.000 A 
ATOM     30  N   UNL     1      29.453  28.489  47.877  0.00  0.00    +0.000 NA
ATOM     31  C   UNL     1      30.211  28.848  46.807  0.00  0.00    +0.000 A 
ATOM     32  N   UNL     1      31.522  28.576  46.691  0.00  0.00    +0.000 NA
ATOM     33  H   UNL     1      31.830  26.997  49.603  0.00  0.00    +0.000 HD
ATOM     34  H   UNL     1      29.489  27.502  49.772  0.00  0.00    +0.000 HD
BRANCH  31  35
ATOM     35  C   UNL     1      29.517  29.558  45.768  0.00  0.00    +0.000 A 
ATOM     36  C   UNL     1      29.992  30.197  44.616  0.00  0.00    +0.000 A 
ATOM     37  H   UNL     1      31.061  30.152  44.477  0.00  0.00    +0.000 HD
ATOM     38  C   UNL     1      29.121  30.815  43.765  0.00  0.00    +0.000 A 
ATOM     39  C   UNL     1      27.746  30.784  44.089  0.00  0.00    +0.000 A 
ATOM     40  S   UNL     1      27.643  29.853  45.653  0.00  0.00    +0.000 S 
ENDBRANCH  31  35
ENDBRANCH  24  27
ENDBRANCH  21  24
ENDBRANCH   1  21
TORSDOF 6
