REMARK  Name = 
REMARK  4 active torsions:
REMARK  status: ('A' for Active; 'I' for Inactive)
REMARK    1  A    between atoms: C_5  and  O_7
REMARK    2  A    between atoms: O_7  and  C_8
REMARK    3  A    between atoms: C_8  and  C_9
REMARK    4  A    between atoms: C_9  and  C_17
REMARK                            x       y       z     vdW  Elec       q    Type
REMARK                         _______ _______ _______ _____ _____    ______ ____
ROOT
ATOM      1  C   UNL     1      34.193  28.413  48.450  0.00  0.00    +0.000 C 
ATOM      2  H   UNL     1      33.306  29.059  48.589  0.00  0.00    +0.000 HD
ATOM      3  H   UNL     1      34.885  28.956  47.774  0.00  0.00    +0.000 HD
ENDROOT
BRANCH   1   4
ATOM      4  C   UNL     1      33.825  27.053  47.907  0.00  0.00    +0.000 C 
ATOM      5  H   UNL     1      33.044  26.663  48.622  0.00  0.00    +0.000 HD
ATOM      6  H   UNL     1      34.648  26.343  47.921  0.00  0.00    +0.000 HD
BRANCH   4   7
ATOM      7  C   UNL     1      33.247  27.234  46.549  0.00  0.00    +0.000 A 
ATOM      8  C   UNL     1      33.722  27.758  45.392  0.00  0.00    +0.000 A 
ATOM      9  H   UNL     1      34.751  28.132  45.462  0.00  0.00    +0.000 HD
ATOM     10  C   UNL     1      32.959  27.794  44.280  0.00  0.00    +0.000 A 
ATOM     11  C   UNL     1      31.691  27.276  44.389  0.00  0.00    +0.000 A 
ATOM     12  S   UNL     1      31.614  26.712  46.197  0.00  0.00    +0.000 S 
ENDBRANCH   4   7
ENDBRANCH   1   4
BRANCH   1  13
ATOM     13  O   UNL     1      34.752  28.268  49.754  0.00  0.00    +0.000 OA
BRANCH  13  18
ATOM     14  C   UNL     1      37.320  30.233  51.407  0.00  0.00    +0.000 A 
ATOM     15  C   UNL     1      38.044  30.676  50.304  0.00  0.00    +0.000 A 
ATOM     16  C   UNL     1      37.621  30.281  49.040  0.00  0.00    +0.000 A 
ATOM     17  N   UNL     1      36.509  29.477  48.980  0.00  0.00    +0.000 NA
ATOM     18  C   UNL     1      35.834  29.070  50.075  0.00  0.00    +0.000 A 
ATOM     19  N   UNL     1      36.257  29.460  51.285  0.00  0.00    +0.000 NA
ATOM     20  H   UNL     1      37.668  30.555  52.394  0.00  0.00    +0.000 HD
ATOM     21  H   UNL     1      38.919  31.308  50.343  0.00  0.00    +0.000 HD
ATOM     22  H   UNL     1      38.133  30.584  48.139  0.00  0.00    +0.000 HD
ENDBRANCH  13  18
ENDBRANCH   1  13
TORSDOF 4
