
 OpenBabel03272501413D

 42 46  0  0  1  0  0  0  0  0999 V2000
   37.0590   26.6790   33.2410 C   0  0  1  0  0  0  0  0  0  0  0  0
   38.0710   26.9120   32.7130 H   0  0  0  0  0  0  0  0  0  0  0  0
   35.8750   29.6820   31.4440 C   0  0  0  0  0  0  0  0  0  0  0  0
   36.3510   28.4260   31.7590 C   0  0  0  0  0  0  0  0  0  0  0  0
   36.4490   27.9690   33.0810 C   0  0  0  0  0  0  0  0  0  0  0  0
   36.0630   28.7850   34.0250 N   0  0  0  0  0  0  0  0  0  0  0  0
   35.5920   30.0330   33.6980 C   0  0  0  0  0  0  0  0  0  0  0  0
   35.5020   30.4670   32.4540 N   0  0  0  0  0  0  0  0  0  0  0  0
   35.8000   30.0350   30.4280 H   0  0  0  0  0  0  0  0  0  0  0  0
   36.6470   27.8100   30.9050 H   0  0  0  0  0  0  0  0  0  0  0  0
   35.1500   30.9560   34.7440 C   0  0  0  0  0  0  0  0  0  0  0  0
   35.7700   31.3600   35.9140 C   0  0  0  0  0  0  0  0  0  0  0  0
   35.1390   32.2280   36.7230 C   0  0  0  0  0  0  0  0  0  0  0  0
   33.8860   32.6720   36.3290 C   0  0  0  0  0  0  0  0  0  0  0  0
   33.6030   31.8090   34.7330 S   0  0  0  0  0  0  0  0  0  0  0  0
   36.7470   30.9340   36.0990 H   0  0  0  0  0  0  0  0  0  0  0  0
   35.5600   32.5850   37.6520 H   0  0  0  0  0  0  0  0  0  0  0  0
   32.9040   33.5840   36.9040 C   0  0  0  0  0  0  0  0  0  0  0  0
   31.6260   33.7200   36.7910 C   0  0  0  0  0  0  0  0  0  0  0  0
   31.1020   33.0370   36.1370 H   0  0  0  0  0  0  0  0  0  0  0  0
   31.0340   34.7250   37.5110 C   0  0  0  0  0  3  0  0  0  0  0  0
   31.7980   35.5370   38.3110 C   0  0  0  0  0  3  0  0  0  0  0  0
   33.5210   34.7990   38.0080 S   0  0  0  0  0  0  0  0  0  0  0  0
   37.4260   26.2710   34.6500 C   0  0  2  0  0  0  0  0  0  0  0  0
   38.9110   26.5910   34.8280 C   0  0  0  0  0  0  0  0  0  0  0  0
   38.3720   25.2080   34.8840 C   0  0  1  0  0  0  0  0  0  0  0  0
   36.7280   26.7000   35.4030 H   0  0  0  0  0  0  0  0  0  0  0  0
   39.5940   26.8160   34.0160 H   0  0  0  0  0  0  0  0  0  0  0  0
   39.1570   27.1150   35.7740 H   0  0  0  0  0  0  0  0  0  0  0  0
   38.5090   24.5140   34.0280 H   0  0  0  0  0  0  0  0  0  0  0  0
   38.6000   24.5340   36.1670 C   0  0  0  0  0  0  0  0  0  0  0  0
   37.8030   24.8850   37.2270 C   0  0  0  0  0  0  0  0  0  0  0  0
   38.0210   24.2210   38.4070 C   0  0  0  0  0  0  0  0  0  0  0  0
   38.9770   23.2460   38.5650 C   0  0  0  0  0  0  0  0  0  0  0  0
   39.7670   22.9150   37.4690 C   0  0  0  0  0  0  0  0  0  0  0  0
   39.5640   23.5590   36.3070 N   0  0  0  0  0  0  0  0  0  0  0  0
   37.0300   25.6320   37.2080 H   0  0  0  0  0  0  0  0  0  0  0  0
   37.4570   24.4050   39.3230 H   0  0  0  0  0  0  0  0  0  0  0  0
   39.2060   22.6850   39.4480 H   0  0  0  0  0  0  0  0  0  0  0  0
   40.5390   22.1610   37.5090 H   0  0  0  0  0  0  0  0  0  0  0  0
   36.7580   25.6710   32.4650 O   0  0  0  0  0  0  0  0  0  0  0  0
   36.8760   25.6840   31.5040 H   0  0  0  0  0  0  0  0  0  0  0  0
  1  2  1  6  0  0  0
  1 24  1  0  0  0  0
  3  4  2  0  0  0  0
  3  8  1  0  0  0  0
  4  5  1  0  0  0  0
  5  1  1  0  0  0  0
  5  6  2  0  0  0  0
  7  6  1  0  0  0  0
  7 11  1  0  0  0  0
  8  7  2  0  0  0  0
  9  3  1  0  0  0  0
 10  4  1  0  0  0  0
 11 12  2  0  0  0  0
 12 16  1  0  0  0  0
 12 13  1  0  0  0  0
 13 17  1  0  0  0  0
 14 13  2  0  0  0  0
 14 18  1  0  0  0  0
 15 11  1  0  0  0  0
 15 14  1  0  0  0  0
 18 23  1  0  0  0  0
 19 18  2  0  0  0  0
 19 21  1  0  0  0  0
 20 19  1  0  0  0  0
 21 22  2  0  0  0  0
 23 22  1  0  0  0  0
 24 25  1  0  0  0  0
 24 26  1  0  0  0  0
 24 27  1  1  0  0  0
 25 26  1  0  0  0  0
 25 29  1  0  0  0  0
 26 30  1  6  0  0  0
 26 31  1  0  0  0  0
 28 25  1  0  0  0  0
 31 36  2  0  0  0  0
 31 32  1  0  0  0  0
 32 33  2  0  0  0  0
 33 34  1  0  0  0  0
 33 38  1  0  0  0  0
 34 39  1  0  0  0  0
 35 40  1  0  0  0  0
 35 34  2  0  0  0  0
 36 35  1  0  0  0  0
 37 32  1  0  0  0  0
 41  1  1  0  0  0  0
 42 41  1  0  0  0  0
M  END
>  <minimizedAffinity>
-6.42645788

$$$$

 OpenBabel03272501413D

 42 46  0  0  1  0  0  0  0  0999 V2000
   38.7970   24.0660   32.0960 C   0  0  1  0  0  0  0  0  0  0  0  0
   39.5760   24.8590   31.7430 H   0  0  0  0  0  0  0  0  0  0  0  0
   35.4100   24.9250   30.8970 C   0  0  0  0  0  0  0  0  0  0  0  0
   36.5750   24.2580   31.2160 C   0  0  0  0  0  0  0  0  0  0  0  0
   37.6140   24.8630   31.9370 C   0  0  0  0  0  0  0  0  0  0  0  0
   37.4400   26.1040   32.3090 N   0  0  0  0  0  0  0  0  0  0  0  0
   36.2750   26.7560   31.9830 C   0  0  0  0  0  0  0  0  0  0  0  0
   35.2960   26.1880   31.3020 N   0  0  0  0  0  0  0  0  0  0  0  0
   34.6110   24.4600   30.3430 H   0  0  0  0  0  0  0  0  0  0  0  0
   36.6320   23.2230   30.8680 H   0  0  0  0  0  0  0  0  0  0  0  0
   36.0620   28.1420   32.3990 C   0  0  0  0  0  0  0  0  0  0  0  0
   35.8910   29.2950   31.6500 C   0  0  0  0  0  0  0  0  0  0  0  0
   35.7160   30.4660   32.2840 C   0  0  0  0  0  0  0  0  0  0  0  0
   35.7160   30.4490   33.6700 C   0  0  0  0  0  0  0  0  0  0  0  0
   35.9790   28.6790   34.0800 S   0  0  0  0  0  0  0  0  0  0  0  0
   35.9130   29.1650   30.5760 H   0  0  0  0  0  0  0  0  0  0  0  0
   35.5790   31.4050   31.7660 H   0  0  0  0  0  0  0  0  0  0  0  0
   35.5640   31.4710   34.6990 C   0  0  0  0  0  0  0  0  0  0  0  0
   35.2170   31.4540   35.9410 C   0  0  0  0  0  0  0  0  0  0  0  0
   34.9690   30.4980   36.3820 H   0  0  0  0  0  0  0  0  0  0  0  0
   35.1890   32.6530   36.6040 C   0  0  0  0  0  3  0  0  0  0  0  0
   35.5240   33.8090   35.9440 C   0  0  0  0  0  3  0  0  0  0  0  0
   35.9130   33.1210   34.2180 S   0  0  0  0  0  0  0  0  0  0  0  0
   39.1960   23.7160   33.5120 C   0  0  2  0  0  0  0  0  0  0  0  0
   38.6310   22.3240   33.7960 C   0  0  0  0  0  0  0  0  0  0  0  0
   38.1950   23.5370   34.5340 C   0  0  1  0  0  0  0  0  0  0  0  0
   40.2860   23.8580   33.6850 H   0  0  0  0  0  0  0  0  0  0  0  0
   37.8820   21.8270   33.1890 H   0  0  0  0  0  0  0  0  0  0  0  0
   39.3470   21.6260   34.2750 H   0  0  0  0  0  0  0  0  0  0  0  0
   37.2170   24.0120   34.3110 H   0  0  0  0  0  0  0  0  0  0  0  0
   38.4490   23.4760   35.9780 C   0  0  0  0  0  0  0  0  0  0  0  0
   39.5720   22.8120   36.4040 C   0  0  0  0  0  0  0  0  0  0  0  0
   39.7980   22.7920   37.7570 C   0  0  0  0  0  0  0  0  0  0  0  0
   38.9710   23.3950   38.6750 C   0  0  0  0  0  0  0  0  0  0  0  0
   37.8420   24.0600   38.2070 C   0  0  0  0  0  0  0  0  0  0  0  0
   37.6090   24.0860   36.8840 N   0  0  0  0  0  0  0  0  0  0  0  0
   40.2800   22.3090   35.7710 H   0  0  0  0  0  0  0  0  0  0  0  0
   40.6520   22.3000   38.2240 H   0  0  0  0  0  0  0  0  0  0  0  0
   39.0800   23.4240   39.7400 H   0  0  0  0  0  0  0  0  0  0  0  0
   37.1420   24.5580   38.8610 H   0  0  0  0  0  0  0  0  0  0  0  0
   39.1470   23.1660   31.2150 O   0  0  0  0  0  0  0  0  0  0  0  0
   39.3270   23.3710   30.2860 H   0  0  0  0  0  0  0  0  0  0  0  0
  1  2  1  6  0  0  0
  1 24  1  0  0  0  0
  3  4  2  0  0  0  0
  3  8  1  0  0  0  0
  4  5  1  0  0  0  0
  5  1  1  0  0  0  0
  5  6  2  0  0  0  0
  7  6  1  0  0  0  0
  7 11  1  0  0  0  0
  8  7  2  0  0  0  0
  9  3  1  0  0  0  0
 10  4  1  0  0  0  0
 11 15  1  0  0  0  0
 12 13  1  0  0  0  0
 12 11  2  0  0  0  0
 13 14  2  0  0  0  0
 14 15  1  0  0  0  0
 14 18  1  0  0  0  0
 16 12  1  0  0  0  0
 17 13  1  0  0  0  0
 18 19  2  0  0  0  0
 19 20  1  0  0  0  0
 19 21  1  0  0  0  0
 22 21  2  0  0  0  0
 23 18  1  0  0  0  0
 23 22  1  0  0  0  0
 24 27  1  1  0  0  0
 24 25  1  0  0  0  0
 24 26  1  0  0  0  0
 25 29  1  0  0  0  0
 25 26  1  0  0  0  0
 26 30  1  6  0  0  0
 26 31  1  0  0  0  0
 28 25  1  0  0  0  0
 31 32  2  0  0  0  0
 31 36  1  0  0  0  0
 32 33  1  0  0  0  0
 33 38  1  0  0  0  0
 33 34  2  0  0  0  0
 34 39  1  0  0  0  0
 35 34  1  0  0  0  0
 35 40  1  0  0  0  0
 36 35  2  0  0  0  0
 37 32  1  0  0  0  0
 41  1  1  0  0  0  0
 42 41  1  0  0  0  0
M  END
>  <minimizedAffinity>
-6.07873583

$$$$

 OpenBabel03272501413D

 42 46  0  0  1  0  0  0  0  0999 V2000
   35.7650   27.9590   31.6290 C   0  0  1  0  0  0  0  0  0  0  0  0
   34.7020   27.7030   31.2240 H   0  0  0  0  0  0  0  0  0  0  0  0
   35.9400   24.2980   31.1620 C   0  0  0  0  0  0  0  0  0  0  0  0
   35.6780   25.6440   31.0090 C   0  0  0  0  0  0  0  0  0  0  0  0
   36.2180   26.6170   31.8630 C   0  0  0  0  0  0  0  0  0  0  0  0
   36.9960   26.2000   32.8260 N   0  0  0  0  0  0  0  0  0  0  0  0
   37.2480   24.8570   32.9670 C   0  0  0  0  0  0  0  0  0  0  0  0
   36.7380   23.9400   32.1660 N   0  0  0  0  0  0  0  0  0  0  0  0
   35.5250   23.5500   30.5060 H   0  0  0  0  0  0  0  0  0  0  0  0
   35.0200   25.9010   30.1740 H   0  0  0  0  0  0  0  0  0  0  0  0
   38.1230   24.3770   34.0360 C   0  0  0  0  0  0  0  0  0  0  0  0
   38.1930   24.7270   35.3740 C   0  0  0  0  0  0  0  0  0  0  0  0
   39.1060   24.1320   36.1590 C   0  0  0  0  0  0  0  0  0  0  0  0
   39.9350   23.1880   35.5730 C   0  0  0  0  0  0  0  0  0  0  0  0
   39.3810   23.1550   33.8230 S   0  0  0  0  0  0  0  0  0  0  0  0
   37.4850   25.4780   35.7000 H   0  0  0  0  0  0  0  0  0  0  0  0
   39.2190   24.3550   37.2110 H   0  0  0  0  0  0  0  0  0  0  0  0
   41.0210   22.3450   36.0610 C   0  0  0  0  0  0  0  0  0  0  0  0
   41.1620   21.5500   37.0660 C   0  0  0  0  0  0  0  0  0  0  0  0
   40.3240   21.4370   37.7410 H   0  0  0  0  0  0  0  0  0  0  0  0
   42.3670   20.9110   37.2000 C   0  0  0  0  0  3  0  0  0  0  0  0
   43.3630   21.1300   36.2820 C   0  0  0  0  0  3  0  0  0  0  0  0
   42.5020   22.3610   35.1220 S   0  0  0  0  0  0  0  0  0  0  0  0
   35.5330   28.8210   32.8490 C   0  0  2  0  0  0  0  0  0  0  0  0
   34.0970   29.3370   32.7580 C   0  0  0  0  0  0  0  0  0  0  0  0
   35.2800   30.2340   32.7140 C   0  0  1  0  0  0  0  0  0  0  0  0
   35.8170   28.2970   33.7890 H   0  0  0  0  0  0  0  0  0  0  0  0
   33.4840   29.2950   31.8640 H   0  0  0  0  0  0  0  0  0  0  0  0
   33.5170   29.2510   33.6980 H   0  0  0  0  0  0  0  0  0  0  0  0
   35.6190   30.6740   31.7520 H   0  0  0  0  0  0  0  0  0  0  0  0
   35.3190   31.2180   33.8010 C   0  0  0  0  0  0  0  0  0  0  0  0
   35.7000   30.7830   35.0450 C   0  0  0  0  0  0  0  0  0  0  0  0
   35.7530   31.7290   36.0380 C   0  0  0  0  0  0  0  0  0  0  0  0
   35.4490   33.0560   35.8400 C   0  0  0  0  0  0  0  0  0  0  0  0
   35.0670   33.4610   34.5650 C   0  0  0  0  0  0  0  0  0  0  0  0
   35.0110   32.5440   33.5850 N   0  0  0  0  0  0  0  0  0  0  0  0
   35.9570   29.7720   35.3040 H   0  0  0  0  0  0  0  0  0  0  0  0
   36.0400   31.5150   37.0680 H   0  0  0  0  0  0  0  0  0  0  0  0
   35.4670   33.8490   36.5590 H   0  0  0  0  0  0  0  0  0  0  0  0
   34.8120   34.4820   34.3270 H   0  0  0  0  0  0  0  0  0  0  0  0
   36.1270   28.6350   30.5710 O   0  0  0  0  0  0  0  0  0  0  0  0
   35.9490   28.3440   29.6640 H   0  0  0  0  0  0  0  0  0  0  0  0
  1  2  1  6  0  0  0
  1  5  1  0  0  0  0
  1 24  1  0  0  0  0
  3  8  1  0  0  0  0
  4  3  2  0  0  0  0
  4  5  1  0  0  0  0
  5  6  2  0  0  0  0
  6  7  1  0  0  0  0
  7 11  1  0  0  0  0
  8  7  2  0  0  0  0
  9  3  1  0  0  0  0
 10  4  1  0  0  0  0
 11 12  2  0  0  0  0
 12 16  1  0  0  0  0
 12 13  1  0  0  0  0
 13 17  1  0  0  0  0
 14 18  1  0  0  0  0
 14 13  2  0  0  0  0
 15 11  1  0  0  0  0
 15 14  1  0  0  0  0
 18 19  2  0  0  0  0
 19 21  1  0  0  0  0
 19 20  1  0  0  0  0
 22 21  2  0  0  0  0
 23 18  1  0  0  0  0
 23 22  1  0  0  0  0
 24 27  1  1  0  0  0
 25 24  1  0  0  0  0
 25 29  1  0  0  0  0
 26 30  1  6  0  0  0
 26 25  1  0  0  0  0
 26 24  1  0  0  0  0
 26 31  1  0  0  0  0
 28 25  1  0  0  0  0
 31 32  1  0  0  0  0
 32 37  1  0  0  0  0
 32 33  2  0  0  0  0
 33 38  1  0  0  0  0
 34 33  1  0  0  0  0
 34 39  1  0  0  0  0
 35 34  2  0  0  0  0
 36 31  2  0  0  0  0
 36 35  1  0  0  0  0
 40 35  1  0  0  0  0
 41  1  1  0  0  0  0
 42 41  1  0  0  0  0
M  END
>  <minimizedAffinity>
-5.87192535

$$$$

 OpenBabel03272501413D

 42 46  0  0  1  0  0  0  0  0999 V2000
   35.2850   29.9330   31.6540 C   0  0  1  0  0  0  0  0  0  0  0  0
   34.4060   29.1720   31.7310 H   0  0  0  0  0  0  0  0  0  0  0  0
   38.3380   28.8510   29.8770 C   0  0  0  0  0  0  0  0  0  0  0  0
   37.3380   29.6020   30.4600 C   0  0  0  0  0  0  0  0  0  0  0  0
   36.2990   29.0230   31.2020 C   0  0  0  0  0  0  0  0  0  0  0  0
   36.3090   27.7230   31.3310 N   0  0  0  0  0  0  0  0  0  0  0  0
   37.3110   26.9870   30.7440 C   0  0  0  0  0  0  0  0  0  0  0  0
   38.2890   27.5300   30.0430 N   0  0  0  0  0  0  0  0  0  0  0  0
   39.1370   29.2950   29.3060 H   0  0  0  0  0  0  0  0  0  0  0  0
   37.4120   30.6820   30.3040 H   0  0  0  0  0  0  0  0  0  0  0  0
   37.3400   25.5320   30.8860 C   0  0  0  0  0  0  0  0  0  0  0  0
   38.3830   24.6300   30.7570 C   0  0  0  0  0  0  0  0  0  0  0  0
   38.1430   23.3210   30.9340 C   0  0  0  0  0  0  0  0  0  0  0  0
   36.8440   22.9460   31.2400 C   0  0  0  0  0  0  0  0  0  0  0  0
   35.9310   24.5380   31.2750 S   0  0  0  0  0  0  0  0  0  0  0  0
   39.3470   25.0600   30.5150 H   0  0  0  0  0  0  0  0  0  0  0  0
   38.9070   22.5610   30.8470 H   0  0  0  0  0  0  0  0  0  0  0  0
   36.1890   21.6680   31.4980 C   0  0  0  0  0  0  0  0  0  0  0  0
   35.1150   21.3160   32.1210 C   0  0  0  0  0  0  0  0  0  0  0  0
   34.5200   22.0940   32.5780 H   0  0  0  0  0  0  0  0  0  0  0  0
   34.8160   19.9790   32.1530 C   0  0  0  0  0  3  0  0  0  0  0  0
   35.6460   19.0760   31.5370 C   0  0  0  0  0  3  0  0  0  0  0  0
   36.9770   20.2430   30.8500 S   0  0  0  0  0  0  0  0  0  0  0  0
   35.4500   30.4990   33.0460 C   0  0  2  0  0  0  0  0  0  0  0  0
   34.7560   29.5270   34.0010 C   0  0  0  0  0  0  0  0  0  0  0  0
   34.3020   30.9280   33.8060 C   0  0  1  0  0  0  0  0  0  0  0  0
   36.5110   30.7490   33.2720 H   0  0  0  0  0  0  0  0  0  0  0  0
   34.0700   28.7450   33.6930 H   0  0  0  0  0  0  0  0  0  0  0  0
   35.3460   29.2690   34.9040 H   0  0  0  0  0  0  0  0  0  0  0  0
   33.4010   31.1490   33.1960 H   0  0  0  0  0  0  0  0  0  0  0  0
   34.3400   31.7390   35.0280 C   0  0  0  0  0  0  0  0  0  0  0  0
   33.5220   31.3730   36.0660 C   0  0  0  0  0  0  0  0  0  0  0  0
   33.5960   32.1340   37.2060 C   0  0  0  0  0  0  0  0  0  0  0  0
   34.4330   33.2150   37.3440 C   0  0  0  0  0  0  0  0  0  0  0  0
   35.2500   33.5580   36.2710 C   0  0  0  0  0  0  0  0  0  0  0  0
   35.1860   32.8200   35.1490 N   0  0  0  0  0  0  0  0  0  0  0  0
   32.8330   30.5480   36.0590 H   0  0  0  0  0  0  0  0  0  0  0  0
   33.0000   31.9490   38.1010 H   0  0  0  0  0  0  0  0  0  0  0  0
   34.5480   33.8540   38.1960 H   0  0  0  0  0  0  0  0  0  0  0  0
   35.9340   34.3920   36.2980 H   0  0  0  0  0  0  0  0  0  0  0  0
   34.6640   30.7380   30.8320 O   0  0  0  0  0  0  0  0  0  0  0  0
   34.1460   30.4300   30.0730 H   0  0  0  0  0  0  0  0  0  0  0  0
  1  2  1  1  0  0  0
  1 24  1  0  0  0  0
  3  8  2  0  0  0  0
  3  4  1  0  0  0  0
  4  5  2  0  0  0  0
  5  6  1  0  0  0  0
  5  1  1  0  0  0  0
  7 11  1  0  0  0  0
  7  6  2  0  0  0  0
  8  7  1  0  0  0  0
  9  3  1  0  0  0  0
 10  4  1  0  0  0  0
 11 15  1  0  0  0  0
 12 11  2  0  0  0  0
 12 13  1  0  0  0  0
 13 14  2  0  0  0  0
 14 15  1  0  0  0  0
 14 18  1  0  0  0  0
 16 12  1  0  0  0  0
 17 13  1  0  0  0  0
 18 19  2  0  0  0  0
 19 21  1  0  0  0  0
 19 20  1  0  0  0  0
 22 21  2  0  0  0  0
 23 18  1  0  0  0  0
 23 22  1  0  0  0  0
 24 27  1  1  0  0  0
 24 26  1  0  0  0  0
 24 25  1  0  0  0  0
 25 29  1  0  0  0  0
 26 30  1  6  0  0  0
 26 25  1  0  0  0  0
 26 31  1  0  0  0  0
 28 25  1  0  0  0  0
 31 36  2  0  0  0  0
 31 32  1  0  0  0  0
 32 33  2  0  0  0  0
 33 34  1  0  0  0  0
 33 38  1  0  0  0  0
 34 39  1  0  0  0  0
 35 40  1  0  0  0  0
 35 34  2  0  0  0  0
 36 35  1  0  0  0  0
 37 32  1  0  0  0  0
 41  1  1  0  0  0  0
 42 41  1  0  0  0  0
M  END
>  <minimizedAffinity>
-5.79989576

$$$$

 OpenBabel03272501413D

 42 46  0  0  1  0  0  0  0  0999 V2000
   35.7850   30.6140   30.5020 C   0  0  1  0  0  0  0  0  0  0  0  0
   35.0210   30.0330   29.8410 H   0  0  0  0  0  0  0  0  0  0  0  0
   38.2350   28.1540   29.2380 C   0  0  0  0  0  0  0  0  0  0  0  0
   37.3250   29.1860   29.3440 C   0  0  0  0  0  0  0  0  0  0  0  0
   36.7960   29.5980   30.5760 C   0  0  0  0  0  0  0  0  0  0  0  0
   37.2060   28.9650   31.6430 N   0  0  0  0  0  0  0  0  0  0  0  0
   38.1120   27.9390   31.5220 C   0  0  0  0  0  0  0  0  0  0  0  0
   38.6090   27.5480   30.3630 N   0  0  0  0  0  0  0  0  0  0  0  0
   38.6420   27.8360   28.2910 H   0  0  0  0  0  0  0  0  0  0  0  0
   37.0430   29.6600   28.4000 H   0  0  0  0  0  0  0  0  0  0  0  0
   38.5850   27.2260   32.7090 C   0  0  0  0  0  0  0  0  0  0  0  0
   39.8630   27.0670   33.2200 C   0  0  0  0  0  0  0  0  0  0  0  0
   40.0340   26.3480   34.3410 C   0  0  0  0  0  0  0  0  0  0  0  0
   38.9030   25.8000   34.9280 C   0  0  0  0  0  0  0  0  0  0  0  0
   37.5390   26.3400   33.8240 S   0  0  0  0  0  0  0  0  0  0  0  0
   40.6550   27.5490   32.6620 H   0  0  0  0  0  0  0  0  0  0  0  0
   41.0000   26.1800   34.7960 H   0  0  0  0  0  0  0  0  0  0  0  0
   38.6670   24.9800   36.1110 C   0  0  0  0  0  0  0  0  0  0  0  0
   37.9590   25.1240   37.1790 C   0  0  0  0  0  0  0  0  0  0  0  0
   37.3860   26.0340   37.2860 H   0  0  0  0  0  0  0  0  0  0  0  0
   37.9910   24.1060   38.0970 C   0  0  0  0  0  3  0  0  0  0  0  0
   38.7560   22.9920   37.8570 C   0  0  0  0  0  3  0  0  0  0  0  0
   39.4990   23.4380   36.1690 S   0  0  0  0  0  0  0  0  0  0  0  0
   35.0480   30.9340   31.7820 C   0  0  2  0  0  0  0  0  0  0  0  0
   35.1300   32.4490   31.9700 C   0  0  0  0  0  0  0  0  0  0  0  0
   35.7480   31.4850   32.9150 C   0  0  1  0  0  0  0  0  0  0  0  0
   34.0310   30.4830   31.8010 H   0  0  0  0  0  0  0  0  0  0  0  0
   35.8070   33.1010   31.4270 H   0  0  0  0  0  0  0  0  0  0  0  0
   34.1690   32.9320   32.2390 H   0  0  0  0  0  0  0  0  0  0  0  0
   36.8450   31.3120   32.9090 H   0  0  0  0  0  0  0  0  0  0  0  0
   35.2230   31.5760   34.2830 C   0  0  0  0  0  0  0  0  0  0  0  0
   35.9120   32.3480   35.1830 C   0  0  0  0  0  0  0  0  0  0  0  0
   35.3860   32.4360   36.4470 C   0  0  0  0  0  0  0  0  0  0  0  0
   34.2300   31.8010   36.8350 C   0  0  0  0  0  0  0  0  0  0  0  0
   33.5570   31.0270   35.8950 C   0  0  0  0  0  0  0  0  0  0  0  0
   34.0630   30.9330   34.6530 N   0  0  0  0  0  0  0  0  0  0  0  0
   36.8230   32.8830   34.9820 H   0  0  0  0  0  0  0  0  0  0  0  0
   35.8350   33.0160   37.2550 H   0  0  0  0  0  0  0  0  0  0  0  0
   33.7580   31.8220   37.7960 H   0  0  0  0  0  0  0  0  0  0  0  0
   32.6440   30.4970   36.1180 H   0  0  0  0  0  0  0  0  0  0  0  0
   35.8870   31.6310   29.6870 O   0  0  0  0  0  0  0  0  0  0  0  0
   35.9630   31.5390   28.7250 H   0  0  0  0  0  0  0  0  0  0  0  0
  1  2  1  6  0  0  0
  1  5  1  0  0  0  0
  1 24  1  0  0  0  0
  3  4  2  0  0  0  0
  3  8  1  0  0  0  0
  4  5  1  0  0  0  0
  5  6  2  0  0  0  0
  7  6  1  0  0  0  0
  7 11  1  0  0  0  0
  8  7  2  0  0  0  0
  9  3  1  0  0  0  0
 10  4  1  0  0  0  0
 11 12  2  0  0  0  0
 11 15  1  0  0  0  0
 12 13  1  0  0  0  0
 13 17  1  0  0  0  0
 13 14  2  0  0  0  0
 14 18  1  0  0  0  0
 15 14  1  0  0  0  0
 16 12  1  0  0  0  0
 18 23  1  0  0  0  0
 18 19  2  0  0  0  0
 19 20  1  0  0  0  0
 19 21  1  0  0  0  0
 22 21  2  0  0  0  0
 23 22  1  0  0  0  0
 24 27  1  1  0  0  0
 24 25  1  0  0  0  0
 24 26  1  0  0  0  0
 25 29  1  0  0  0  0
 25 26  1  0  0  0  0
 26 30  1  6  0  0  0
 26 31  1  0  0  0  0
 28 25  1  0  0  0  0
 31 36  2  0  0  0  0
 31 32  1  0  0  0  0
 32 33  2  0  0  0  0
 33 34  1  0  0  0  0
 33 38  1  0  0  0  0
 34 39  1  0  0  0  0
 35 40  1  0  0  0  0
 35 34  2  0  0  0  0
 36 35  1  0  0  0  0
 37 32  1  0  0  0  0
 41  1  1  0  0  0  0
 42 41  1  0  0  0  0
M  END
>  <minimizedAffinity>
-5.69767809

$$$$

 OpenBabel03272501413D

 42 46  0  0  1  0  0  0  0  0999 V2000
   36.4510   25.5470   31.5450 C   0  0  1  0  0  0  0  0  0  0  0  0
   37.3940   25.8050   30.9100 H   0  0  0  0  0  0  0  0  0  0  0  0
   37.8210   26.8370   34.7230 C   0  0  0  0  0  0  0  0  0  0  0  0
   37.5780   26.0880   33.5910 C   0  0  0  0  0  0  0  0  0  0  0  0
   36.6620   26.4880   32.6070 C   0  0  0  0  0  0  0  0  0  0  0  0
   36.0350   27.6190   32.7990 N   0  0  0  0  0  0  0  0  0  0  0  0
   36.2870   28.3540   33.9320 C   0  0  0  0  0  0  0  0  0  0  0  0
   37.1470   27.9780   34.8600 N   0  0  0  0  0  0  0  0  0  0  0  0
   38.5240   26.5310   35.4800 H   0  0  0  0  0  0  0  0  0  0  0  0
   38.1490   25.1590   33.5130 H   0  0  0  0  0  0  0  0  0  0  0  0
   35.5990   29.6260   34.1560 C   0  0  0  0  0  0  0  0  0  0  0  0
   34.6060   30.2580   33.4270 C   0  0  0  0  0  0  0  0  0  0  0  0
   34.1380   31.4440   33.8500 C   0  0  0  0  0  0  0  0  0  0  0  0
   34.6870   31.9700   35.0090 C   0  0  0  0  0  0  0  0  0  0  0  0
   35.9250   30.7110   35.5120 S   0  0  0  0  0  0  0  0  0  0  0  0
   34.2680   29.7350   32.5420 H   0  0  0  0  0  0  0  0  0  0  0  0
   33.3660   31.9960   33.3320 H   0  0  0  0  0  0  0  0  0  0  0  0
   34.4650   33.1910   35.7760 C   0  0  0  0  0  0  0  0  0  0  0  0
   34.3850   33.4630   37.0340 C   0  0  0  0  0  0  0  0  0  0  0  0
   34.4990   32.6470   37.7340 H   0  0  0  0  0  0  0  0  0  0  0  0
   34.1610   34.7690   37.3830 C   0  0  0  0  0  3  0  0  0  0  0  0
   34.0310   35.7260   36.4080 C   0  0  0  0  0  3  0  0  0  0  0  0
   34.2480   34.6640   34.8500 S   0  0  0  0  0  0  0  0  0  0  0  0
   36.5920   24.0820   31.8950 C   0  0  2  0  0  0  0  0  0  0  0  0
   37.4950   23.4600   30.8300 C   0  0  0  0  0  0  0  0  0  0  0  0
   36.0760   23.0630   31.0150 C   0  0  1  0  0  0  0  0  0  0  0  0
   36.8940   23.9350   32.9550 H   0  0  0  0  0  0  0  0  0  0  0  0
   37.7510   23.9310   29.8870 H   0  0  0  0  0  0  0  0  0  0  0  0
   38.2970   22.8080   31.2310 H   0  0  0  0  0  0  0  0  0  0  0  0
   35.2950   23.4150   30.3080 H   0  0  0  0  0  0  0  0  0  0  0  0
   35.8950   21.6480   31.3590 C   0  0  0  0  0  0  0  0  0  0  0  0
   35.2280   21.3510   32.5200 C   0  0  0  0  0  0  0  0  0  0  0  0
   35.0500   20.0200   32.8040 C   0  0  0  0  0  0  0  0  0  0  0  0
   35.5000   19.0040   31.9940 C   0  0  0  0  0  0  0  0  0  0  0  0
   36.1730   19.3430   30.8240 C   0  0  0  0  0  0  0  0  0  0  0  0
   36.3530   20.6430   30.5350 N   0  0  0  0  0  0  0  0  0  0  0  0
   34.8380   22.0680   33.2190 H   0  0  0  0  0  0  0  0  0  0  0  0
   34.5380   19.6510   33.6930 H   0  0  0  0  0  0  0  0  0  0  0  0
   35.4010   17.9490   32.1460 H   0  0  0  0  0  0  0  0  0  0  0  0
   36.5570   18.6060   30.1350 H   0  0  0  0  0  0  0  0  0  0  0  0
   35.6010   25.7740   30.5780 O   0  0  0  0  0  0  0  0  0  0  0  0
   35.6600   26.5370   29.9830 H   0  0  0  0  0  0  0  0  0  0  0  0
  1  2  1  6  0  0  0
  1 24  1  0  0  0  0
  1  5  1  0  0  0  0
  3  8  1  0  0  0  0
  3  9  1  0  0  0  0
  4  3  2  0  0  0  0
  5  6  2  0  0  0  0
  5  4  1  0  0  0  0
  6  7  1  0  0  0  0
  7 11  1  0  0  0  0
  7  8  2  0  0  0  0
 10  4  1  0  0  0  0
 11 15  1  0  0  0  0
 12 13  1  0  0  0  0
 12 11  2  0  0  0  0
 13 14  2  0  0  0  0
 14 15  1  0  0  0  0
 14 18  1  0  0  0  0
 16 12  1  0  0  0  0
 17 13  1  0  0  0  0
 18 19  2  0  0  0  0
 19 21  1  0  0  0  0
 19 20  1  0  0  0  0
 22 21  2  0  0  0  0
 23 18  1  0  0  0  0
 23 22  1  0  0  0  0
 24 27  1  1  0  0  0
 25 26  1  0  0  0  0
 25 29  1  0  0  0  0
 25 24  1  0  0  0  0
 26 30  1  6  0  0  0
 26 31  1  0  0  0  0
 26 24  1  0  0  0  0
 28 25  1  0  0  0  0
 31 32  1  0  0  0  0
 32 33  2  0  0  0  0
 32 37  1  0  0  0  0
 33 38  1  0  0  0  0
 34 39  1  0  0  0  0
 34 33  1  0  0  0  0
 35 34  2  0  0  0  0
 36 35  1  0  0  0  0
 36 31  2  0  0  0  0
 40 35  1  0  0  0  0
 41  1  1  0  0  0  0
 42 41  1  0  0  0  0
M  END
>  <minimizedAffinity>
-5.65322638

$$$$

 OpenBabel03272501413D

 42 46  0  0  1  0  0  0  0  0999 V2000
   38.5240   26.5130   35.9300 C   0  0  1  0  0  0  0  0  0  0  0  0
   39.6780   26.4130   36.0650 H   0  0  0  0  0  0  0  0  0  0  0  0
   37.4320   23.1600   37.0330 C   0  0  0  0  0  0  0  0  0  0  0  0
   37.6930   24.5130   36.9600 C   0  0  0  0  0  0  0  0  0  0  0  0
   38.2160   25.1160   35.8070 C   0  0  0  0  0  0  0  0  0  0  0  0
   38.4500   24.3410   34.7810 N   0  0  0  0  0  0  0  0  0  0  0  0
   38.1860   22.9960   34.8690 C   0  0  0  0  0  0  0  0  0  0  0  0
   37.6960   22.4260   35.9540 N   0  0  0  0  0  0  0  0  0  0  0  0
   37.0310   22.6960   37.9190 H   0  0  0  0  0  0  0  0  0  0  0  0
   37.4630   25.0840   37.8640 H   0  0  0  0  0  0  0  0  0  0  0  0
   38.4360   22.1170   33.7260 C   0  0  0  0  0  0  0  0  0  0  0  0
   39.6200   21.6060   33.2190 C   0  0  0  0  0  0  0  0  0  0  0  0
   39.5790   20.8120   32.1370 C   0  0  0  0  0  0  0  0  0  0  0  0
   38.3350   20.5480   31.5850 C   0  0  0  0  0  0  0  0  0  0  0  0
   37.1770   21.4780   32.6640 S   0  0  0  0  0  0  0  0  0  0  0  0
   40.5190   21.8930   33.7480 H   0  0  0  0  0  0  0  0  0  0  0  0
   40.4610   20.3800   31.6860 H   0  0  0  0  0  0  0  0  0  0  0  0
   37.8750   19.7620   30.4450 C   0  0  0  0  0  0  0  0  0  0  0  0
   36.7210   19.5320   29.9170 C   0  0  0  0  0  0  0  0  0  0  0  0
   35.8570   19.9950   30.3730 H   0  0  0  0  0  0  0  0  0  0  0  0
   36.6830   18.7150   28.8170 C   0  0  0  0  0  3  0  0  0  0  0  0
   37.8460   18.1790   28.3220 C   0  0  0  0  0  3  0  0  0  0  0  0
   39.1080   18.9070   29.5380 S   0  0  0  0  0  0  0  0  0  0  0  0
   38.3370   27.3620   34.6930 C   0  0  2  0  0  0  0  0  0  0  0  0
   36.8990   27.8790   34.7270 C   0  0  0  0  0  0  0  0  0  0  0  0
   37.4040   26.9710   33.6670 C   0  0  1  0  0  0  0  0  0  0  0  0
   39.1400   28.1250   34.5870 H   0  0  0  0  0  0  0  0  0  0  0  0
   36.1190   27.4890   35.3730 H   0  0  0  0  0  0  0  0  0  0  0  0
   36.7940   28.9610   34.5100 H   0  0  0  0  0  0  0  0  0  0  0  0
   37.1360   25.8930   33.6720 H   0  0  0  0  0  0  0  0  0  0  0  0
   37.3310   27.5380   32.3150 C   0  0  0  0  0  0  0  0  0  0  0  0
   38.2270   27.0850   31.3810 C   0  0  0  0  0  0  0  0  0  0  0  0
   38.1200   27.6130   30.1190 C   0  0  0  0  0  0  0  0  0  0  0  0
   37.1770   28.5500   29.7650 C   0  0  0  0  0  0  0  0  0  0  0  0
   36.2840   28.9860   30.7390 C   0  0  0  0  0  0  0  0  0  0  0  0
   36.3790   28.4760   31.9780 N   0  0  0  0  0  0  0  0  0  0  0  0
   38.9990   26.3580   31.5550 H   0  0  0  0  0  0  0  0  0  0  0  0
   38.7690   27.3380   29.2870 H   0  0  0  0  0  0  0  0  0  0  0  0
   37.0310   29.0070   28.8080 H   0  0  0  0  0  0  0  0  0  0  0  0
   35.5160   29.7180   30.5420 H   0  0  0  0  0  0  0  0  0  0  0  0
   38.3370   27.1650   37.0470 O   0  0  0  0  0  0  0  0  0  0  0  0
   38.7650   26.9270   37.8820 H   0  0  0  0  0  0  0  0  0  0  0  0
  1  2  1  1  0  0  0
  1 41  1  0  0  0  0
  3  9  1  0  0  0  0
  4  3  1  0  0  0  0
  4 10  1  0  0  0  0
  5  1  1  0  0  0  0
  5  4  2  0  0  0  0
  6  7  2  0  0  0  0
  6  5  1  0  0  0  0
  7  8  1  0  0  0  0
  8  3  2  0  0  0  0
 11  7  1  0  0  0  0
 12 11  2  0  0  0  0
 12 16  1  0  0  0  0
 13 12  1  0  0  0  0
 14 13  2  0  0  0  0
 14 15  1  0  0  0  0
 15 11  1  0  0  0  0
 17 13  1  0  0  0  0
 18 14  1  0  0  0  0
 19 20  1  0  0  0  0
 19 18  2  0  0  0  0
 21 19  1  0  0  0  0
 22 21  2  0  0  0  0
 22 23  1  0  0  0  0
 23 18  1  0  0  0  0
 24 27  1  6  0  0  0
 24 25  1  0  0  0  0
 24  1  1  0  0  0  0
 25 28  1  0  0  0  0
 26 30  1  1  0  0  0
 26 24  1  0  0  0  0
 26 25  1  0  0  0  0
 29 25  1  0  0  0  0
 31 26  1  0  0  0  0
 32 37  1  0  0  0  0
 32 31  2  0  0  0  0
 33 32  1  0  0  0  0
 34 33  2  0  0  0  0
 34 35  1  0  0  0  0
 35 36  2  0  0  0  0
 36 31  1  0  0  0  0
 38 33  1  0  0  0  0
 39 34  1  0  0  0  0
 40 35  1  0  0  0  0
 41 42  1  0  0  0  0
M  END
>  <minimizedAffinity>
-5.63315916

$$$$

 OpenBabel03272501413D

 42 46  0  0  1  0  0  0  0  0999 V2000
   37.5160   26.3360   31.0130 C   0  0  1  0  0  0  0  0  0  0  0  0
   38.5020   26.5680   31.5900 H   0  0  0  0  0  0  0  0  0  0  0  0
   36.7010   29.7980   30.0140 C   0  0  0  0  0  0  0  0  0  0  0  0
   37.1330   28.4880   30.0260 C   0  0  0  0  0  0  0  0  0  0  0  0
   36.9140   27.6350   31.1170 C   0  0  0  0  0  0  0  0  0  0  0  0
   36.2700   28.1280   32.1410 N   0  0  0  0  0  0  0  0  0  0  0  0
   35.8460   29.4350   32.1150 C   0  0  0  0  0  0  0  0  0  0  0  0
   36.0540   30.2410   31.0900 N   0  0  0  0  0  0  0  0  0  0  0  0
   36.8700   30.4550   29.1760 H   0  0  0  0  0  0  0  0  0  0  0  0
   37.6600   28.1600   29.1260 H   0  0  0  0  0  0  0  0  0  0  0  0
   35.1170   29.9990   33.2510 C   0  0  0  0  0  0  0  0  0  0  0  0
   34.0750   29.4840   34.0040 C   0  0  0  0  0  0  0  0  0  0  0  0
   33.5680   30.2180   35.0090 C   0  0  0  0  0  0  0  0  0  0  0  0
   34.1290   31.4650   35.2350 C   0  0  0  0  0  0  0  0  0  0  0  0
   35.4370   31.5900   33.9520 S   0  0  0  0  0  0  0  0  0  0  0  0
   33.7330   28.4980   33.7190 H   0  0  0  0  0  0  0  0  0  0  0  0
   32.7550   29.8810   35.6360 H   0  0  0  0  0  0  0  0  0  0  0  0
   33.8760   32.5350   36.1920 C   0  0  0  0  0  0  0  0  0  0  0  0
   34.5350   33.0330   37.1820 C   0  0  0  0  0  0  0  0  0  0  0  0
   35.5030   32.6070   37.4090 H   0  0  0  0  0  0  0  0  0  0  0  0
   33.9540   34.0660   37.8710 C   0  0  0  0  0  3  0  0  0  0  0  0
   32.7170   34.5280   37.4960 C   0  0  0  0  0  3  0  0  0  0  0  0
   32.3500   33.3840   36.0270 S   0  0  0  0  0  0  0  0  0  0  0  0
   36.8550   25.2150   31.7820 C   0  0  2  0  0  0  0  0  0  0  0  0
   37.8920   24.6920   32.7760 C   0  0  0  0  0  0  0  0  0  0  0  0
   37.3410   23.8630   31.6730 C   0  0  1  0  0  0  0  0  0  0  0  0
   35.8710   25.5220   32.2010 H   0  0  0  0  0  0  0  0  0  0  0  0
   38.9520   24.9160   32.7340 H   0  0  0  0  0  0  0  0  0  0  0  0
   37.5090   24.5470   33.8060 H   0  0  0  0  0  0  0  0  0  0  0  0
   37.9450   23.6600   30.7640 H   0  0  0  0  0  0  0  0  0  0  0  0
   36.6350   22.6600   32.1310 C   0  0  0  0  0  0  0  0  0  0  0  0
   35.6860   22.1200   31.3010 C   0  0  0  0  0  0  0  0  0  0  0  0
   35.0590   20.9820   31.7420 C   0  0  0  0  0  0  0  0  0  0  0  0
   35.3380   20.3790   32.9460 C   0  0  0  0  0  0  0  0  0  0  0  0
   36.3070   20.9540   33.7620 C   0  0  0  0  0  0  0  0  0  0  0  0
   36.9280   22.0700   33.3410 N   0  0  0  0  0  0  0  0  0  0  0  0
   35.3950   22.5130   30.3440 H   0  0  0  0  0  0  0  0  0  0  0  0
   34.2880   20.4550   31.1800 H   0  0  0  0  0  0  0  0  0  0  0  0
   34.8950   19.4950   33.3570 H   0  0  0  0  0  0  0  0  0  0  0  0
   36.5850   20.5440   34.7210 H   0  0  0  0  0  0  0  0  0  0  0  0
   38.1170   25.9400   29.9210 O   0  0  0  0  0  0  0  0  0  0  0  0
   38.8760   26.3990   29.5320 H   0  0  0  0  0  0  0  0  0  0  0  0
  1  5  1  0  0  0  0
  1  2  1  1  0  0  0
  1 24  1  0  0  0  0
  3  4  2  0  0  0  0
  3  8  1  0  0  0  0
  4  5  1  0  0  0  0
  5  6  2  0  0  0  0
  7  6  1  0  0  0  0
  7 11  1  0  0  0  0
  8  7  2  0  0  0  0
  9  3  1  0  0  0  0
 10  4  1  0  0  0  0
 11 15  1  0  0  0  0
 11 12  2  0  0  0  0
 12 13  1  0  0  0  0
 13 14  2  0  0  0  0
 13 17  1  0  0  0  0
 14 18  1  0  0  0  0
 15 14  1  0  0  0  0
 16 12  1  0  0  0  0
 18 19  2  0  0  0  0
 19 20  1  0  0  0  0
 19 21  1  0  0  0  0
 22 21  2  0  0  0  0
 23 18  1  0  0  0  0
 23 22  1  0  0  0  0
 24 27  1  1  0  0  0
 24 25  1  0  0  0  0
 25 29  1  0  0  0  0
 26 30  1  6  0  0  0
 26 24  1  0  0  0  0
 26 31  1  0  0  0  0
 26 25  1  0  0  0  0
 28 25  1  0  0  0  0
 31 36  1  0  0  0  0
 32 33  1  0  0  0  0
 32 31  2  0  0  0  0
 33 34  2  0  0  0  0
 34 39  1  0  0  0  0
 34 35  1  0  0  0  0
 35 40  1  0  0  0  0
 36 35  2  0  0  0  0
 37 32  1  0  0  0  0
 38 33  1  0  0  0  0
 41  1  1  0  0  0  0
 42 41  1  0  0  0  0
M  END
>  <minimizedAffinity>
-5.58433199

$$$$

 OpenBabel03272501413D

 42 46  0  0  1  0  0  0  0  0999 V2000
   35.4270   29.4320   31.6040 C   0  0  1  0  0  0  0  0  0  0  0  0
   34.4210   28.8840   31.3850 H   0  0  0  0  0  0  0  0  0  0  0  0
   38.5400   27.7250   30.5820 C   0  0  0  0  0  0  0  0  0  0  0  0
   37.6020   28.6710   30.9400 C   0  0  0  0  0  0  0  0  0  0  0  0
   36.3120   28.3260   31.3680 C   0  0  0  0  0  0  0  0  0  0  0  0
   36.0210   27.0540   31.4220 N   0  0  0  0  0  0  0  0  0  0  0  0
   36.9640   26.1220   31.0620 C   0  0  0  0  0  0  0  0  0  0  0  0
   38.1790   26.4450   30.6560 N   0  0  0  0  0  0  0  0  0  0  0  0
   39.5320   27.9890   30.2520 H   0  0  0  0  0  0  0  0  0  0  0  0
   37.9340   29.7110   30.8670 H   0  0  0  0  0  0  0  0  0  0  0  0
   36.6560   24.6940   31.1250 C   0  0  0  0  0  0  0  0  0  0  0  0
   35.4690   24.0360   31.4010 C   0  0  0  0  0  0  0  0  0  0  0  0
   35.4500   22.6930   31.4020 C   0  0  0  0  0  0  0  0  0  0  0  0
   36.6380   22.0370   31.1220 C   0  0  0  0  0  0  0  0  0  0  0  0
   37.8320   23.4050   30.8460 S   0  0  0  0  0  0  0  0  0  0  0  0
   34.6160   24.6710   31.6030 H   0  0  0  0  0  0  0  0  0  0  0  0
   34.5620   22.1130   31.6110 H   0  0  0  0  0  0  0  0  0  0  0  0
   37.0290   20.6350   31.0290 C   0  0  0  0  0  0  0  0  0  0  0  0
   36.4910   19.5830   30.5110 C   0  0  0  0  0  0  0  0  0  0  0  0
   35.5340   19.6950   30.0200 H   0  0  0  0  0  0  0  0  0  0  0  0
   37.1790   18.4030   30.6270 C   0  0  0  0  0  3  0  0  0  0  0  0
   38.3890   18.3760   31.2740 C   0  0  0  0  0  3  0  0  0  0  0  0
   38.5610   20.2020   31.7620 S   0  0  0  0  0  0  0  0  0  0  0  0
   35.3150   29.9210   33.0300 C   0  0  2  0  0  0  0  0  0  0  0  0
   33.9650   29.4340   33.5580 C   0  0  0  0  0  0  0  0  0  0  0  0
   34.2990   30.8730   33.4030 C   0  0  1  0  0  0  0  0  0  0  0  0
   36.2120   29.6560   33.6330 H   0  0  0  0  0  0  0  0  0  0  0  0
   33.1630   29.0500   32.9360 H   0  0  0  0  0  0  0  0  0  0  0  0
   34.0040   28.9740   34.5660 H   0  0  0  0  0  0  0  0  0  0  0  0
   33.8840   31.4610   32.5570 H   0  0  0  0  0  0  0  0  0  0  0  0
   34.2560   31.6310   34.6590 C   0  0  0  0  0  0  0  0  0  0  0  0
   35.1990   31.3440   35.6130 C   0  0  0  0  0  0  0  0  0  0  0  0
   35.1520   32.0850   36.7670 C   0  0  0  0  0  0  0  0  0  0  0  0
   34.2250   33.0740   36.9970 C   0  0  0  0  0  0  0  0  0  0  0  0
   33.2840   33.3390   36.0070 C   0  0  0  0  0  0  0  0  0  0  0  0
   33.3200   32.6190   34.8720 N   0  0  0  0  0  0  0  0  0  0  0  0
   35.9640   30.5930   35.5310 H   0  0  0  0  0  0  0  0  0  0  0  0
   35.8430   31.9560   37.6010 H   0  0  0  0  0  0  0  0  0  0  0  0
   34.1250   33.6920   37.8660 H   0  0  0  0  0  0  0  0  0  0  0  0
   32.5240   34.0980   36.1090 H   0  0  0  0  0  0  0  0  0  0  0  0
   35.2400   30.3690   30.7120 O   0  0  0  0  0  0  0  0  0  0  0  0
   34.9000   30.1990   29.8220 H   0  0  0  0  0  0  0  0  0  0  0  0
  1  2  1  6  0  0  0
  1 24  1  0  0  0  0
  3  8  2  0  0  0  0
  3  4  1  0  0  0  0
  4  5  2  0  0  0  0
  5  6  1  0  0  0  0
  5  1  1  0  0  0  0
  7 11  1  0  0  0  0
  7  6  2  0  0  0  0
  8  7  1  0  0  0  0
  9  3  1  0  0  0  0
 10  4  1  0  0  0  0
 11 12  2  0  0  0  0
 12 13  1  0  0  0  0
 12 16  1  0  0  0  0
 13 17  1  0  0  0  0
 14 13  2  0  0  0  0
 15 14  1  0  0  0  0
 15 11  1  0  0  0  0
 18 14  1  0  0  0  0
 18 23  1  0  0  0  0
 19 21  1  0  0  0  0
 19 18  2  0  0  0  0
 20 19  1  0  0  0  0
 21 22  2  0  0  0  0
 22 23  1  0  0  0  0
 24 26  1  0  0  0  0
 24 25  1  0  0  0  0
 24 27  1  1  0  0  0
 25 29  1  0  0  0  0
 26 30  1  6  0  0  0
 26 25  1  0  0  0  0
 26 31  1  0  0  0  0
 28 25  1  0  0  0  0
 31 36  2  0  0  0  0
 31 32  1  0  0  0  0
 32 33  2  0  0  0  0
 33 34  1  0  0  0  0
 33 38  1  0  0  0  0
 34 39  1  0  0  0  0
 35 40  1  0  0  0  0
 35 34  2  0  0  0  0
 36 35  1  0  0  0  0
 37 32  1  0  0  0  0
 41  1  1  0  0  0  0
 42 41  1  0  0  0  0
M  END
>  <minimizedAffinity>
-5.57217264

$$$$
