
     RDKit          3D

 43 47  0  0  0  0  0  0  0  0999 V2000
   35.8381   28.9303   49.3866 C   0  0  0  0  0  0  0  0  0  0  0  0
   35.8428   30.0906   48.5815 C   0  0  0  0  0  0  0  0  0  0  0  0
   34.7775   30.3072   47.6836 C   0  0  0  0  0  0  0  0  0  0  0  0
   33.7752   29.3864   47.6171 N   0  0  0  0  0  0  0  0  0  0  0  0
   33.8180   28.2890   48.4075 C   0  0  0  0  0  0  0  0  0  0  0  0
   34.8132   28.0602   49.2685 N   0  0  0  0  0  0  0  0  0  0  0  0
   32.7364   27.3391   48.2718 N   0  0  0  0  0  0  0  0  0  0  0  0
   31.3587   27.6362   48.5370 C   0  0  0  0  0  0  0  0  0  0  0  0
   30.6108   26.4406   48.0446 C   0  0  0  0  0  0  0  0  0  0  0  0
   31.5970   25.6072   47.2395 C   0  0  0  0  0  0  0  0  0  0  0  0
   32.9028   25.9423   47.8433 C   0  0  0  0  0  0  0  0  0  0  0  0
   36.8385   31.1165   48.5482 C   0  0  0  0  0  0  0  0  0  0  0  0
   36.7917   32.0225   49.5672 N   0  0  0  0  0  0  0  0  0  0  0  0
   37.6790   33.0254   49.6046 C   0  0  0  0  0  0  0  0  0  0  0  0
   38.6597   33.2265   48.6795 N   0  0  0  0  0  0  0  0  0  0  0  0
   38.7352   32.3433   47.6512 C   0  0  0  0  0  0  0  0  0  0  0  0
   39.6730   32.4616   46.6384 C   0  0  0  0  0  0  0  0  0  0  0  0
   39.7179   31.5715   45.5854 C   0  0  0  0  0  0  0  0  0  0  0  0
   38.7894   30.5304   45.5546 C   0  0  0  0  0  0  0  0  0  0  0  0
   37.8644   30.4411   46.5890 C   0  0  0  0  0  0  0  0  0  0  0  0
   37.8220   31.3182   47.6210 C   0  0  0  0  0  0  0  0  0  0  0  0
   36.6846   28.8356   50.0509 H   0  0  0  0  0  0  0  0  0  0  0  0
   34.7037   31.1574   47.0433 H   0  0  0  0  0  0  0  0  0  0  0  0
   31.1067   28.5618   47.9636 H   0  0  0  0  0  0  0  0  0  0  0  0
   31.2513   27.7903   49.6421 H   0  0  0  0  0  0  0  0  0  0  0  0
   29.6883   26.6576   47.4849 H   0  0  0  0  0  0  0  0  0  0  0  0
   30.3378   25.8327   48.9406 H   0  0  0  0  0  0  0  0  0  0  0  0
   31.5172   25.9184   46.1925 H   0  0  0  0  0  0  0  0  0  0  0  0
   31.3215   24.5201   47.3164 H   0  0  0  0  0  0  0  0  0  0  0  0
   33.6843   25.9534   47.0647 H   0  0  0  0  0  0  0  0  0  0  0  0
   33.1798   25.3028   48.7054 H   0  0  0  0  0  0  0  0  0  0  0  0
   37.6381   33.7455   50.4191 H   0  0  0  0  0  0  0  0  0  0  0  0
   40.3272   33.2852   46.7673 H   0  0  0  0  0  0  0  0  0  0  0  0
   40.4891   31.7734   44.8656 H   0  0  0  0  0  0  0  0  0  0  0  0
   38.9814   29.9480   44.6647 H   0  0  0  0  0  0  0  0  0  0  0  0
   37.0965   29.2587   46.1661 C   0  0  0  0  0  0  0  0  0  0  0  0
   37.7498   28.2862   45.2333 C   0  0  0  0  0  0  0  0  0  0  0  0
   38.7685   28.4551   44.8967 H   0  0  0  0  0  0  0  0  0  0  0  0
   37.0373   27.2202   44.8398 C   0  0  0  0  0  0  0  0  0  0  0  0
   35.7804   27.0398   45.2748 C   0  0  0  0  0  0  0  0  0  0  0  0
   35.4125   28.4950   46.4023 S   0  0  0  0  0  0  0  0  0  0  0  0
   37.3955   26.4553   44.1738 H   0  0  0  0  0  0  0  0  0  0  0  0
   35.0219   26.3399   45.1496 H   0  0  0  0  0  0  0  0  0  0  0  0
  2  1  2  0
  3  2  1  0
  4  3  2  0
  4  5  1  0
  5  6  2  0
  6  1  1  0
  7  5  1  0
  7  8  1  0
  9  8  1  0
 10 11  1  0
 10  9  1  0
 11  7  1  0
 12  2  1  0
 12 13  2  0
 13 14  1  0
 15 14  2  0
 16 15  1  0
 17 16  2  0
 18 17  1  0
 19 18  2  0
 19 20  1  0
 20 21  2  0
 21 16  1  0
 21 12  1  0
  1 22  1  0
  3 23  1  0
  8 24  1  0
  8 25  1  0
  9 26  1  0
  9 27  1  0
 10 28  1  0
 10 29  1  0
 11 30  1  0
 11 31  1  0
 14 32  1  0
 17 33  1  0
 18 34  1  0
 19 35  1  0
 36 37  2  0
 37 38  1  0
 37 39  1  0
 39 40  2  0
 40 41  1  0
 41 36  1  0
 39 42  1  0
 40 43  1  0
 20 36  1  0
M  ISO  8  22  14  23  14  24  13  25  13  26  13  27  13  28  13  29  13
M  ISO  7  30  13  31  13  32  14  33  14  34  14  35  14  38  15
M  END
>  <DihAtoms>  (1) 
18,19,35,36

>  <DihDeg>  (1) 
-67.39106233299307

$$$$
