
 OpenBabel03272503113D

 42 46  0  0  0  0  0  0  0  0999 V2000
   38.0210   26.3530   35.0250 C   0  0  0  0  0  0  0  0  0  0  0  0
   38.7670   26.7980   35.9530 O   0  0  0  0  0  0  0  0  0  0  0  0
   37.8100   24.9530   35.0660 N   0  0  0  0  0  0  0  0  0  0  0  0
   37.2050   24.5330   34.3310 H   0  0  0  0  0  0  0  0  0  0  0  0
   36.4800   28.1230   34.5080 C   0  0  0  0  0  0  0  0  0  0  0  0
   37.4750   27.2630   34.0500 C   0  0  0  0  0  0  0  0  0  0  0  0
   37.9310   27.2590   32.7500 C   0  0  0  0  0  0  0  0  0  0  0  0
   37.3690   28.1590   31.8570 C   0  0  0  0  0  0  0  0  0  0  0  0
   37.6020   28.3870   30.5510 N   0  0  0  0  0  0  0  0  0  0  0  0
   36.7890   29.3610   30.1650 C   0  0  0  0  0  0  0  0  0  0  0  0
   36.0540   29.7440   31.2070 N   0  0  0  0  0  0  0  0  0  0  0  0
   36.3820   29.0120   32.3070 C   0  0  0  0  0  0  0  0  0  0  0  0
   35.9290   29.0150   33.5990 C   0  0  0  0  0  0  0  0  0  0  0  0
   36.1630   28.0710   35.5580 H   0  0  0  0  0  0  0  0  0  0  0  0
   38.7070   26.5740   32.4370 H   0  0  0  0  0  0  0  0  0  0  0  0
   38.3170   27.8620   29.9680 H   0  0  0  0  0  0  0  0  0  0  0  0
   36.7100   29.7980   29.1790 H   0  0  0  0  0  0  0  0  0  0  0  0
   34.8990   29.9260   34.0140 C   0  0  0  0  0  0  0  0  0  0  0  0
   34.9210   31.0660   34.7200 C   0  0  0  0  0  0  0  0  0  0  0  0
   35.8780   31.4210   35.0740 H   0  0  0  0  0  0  0  0  0  0  0  0
   33.8070   31.7620   34.9920 C   0  0  0  0  0  3  0  0  0  0  0  0
   32.5710   31.1620   34.4490 C   0  0  0  0  0  3  0  0  0  0  0  0
   33.1960   29.6050   33.5770 S   0  0  0  0  0  0  0  0  0  0  0  0
   40.2730   23.8370   34.7020 F   0  0  0  0  0  0  0  0  0  0  0  0
   39.7160   23.7170   35.9360 C   0  0  0  0  0  0  0  0  0  0  0  0
   40.3950   23.0590   36.9240 C   0  0  0  0  0  0  0  0  0  0  0  0
   39.7780   22.9770   38.1400 C   0  0  0  0  0  0  0  0  0  0  0  0
   38.5380   23.5140   38.3980 C   0  0  0  0  0  0  0  0  0  0  0  0
   37.8800   24.1720   37.3790 C   0  0  0  0  0  0  0  0  0  0  0  0
   38.4740   24.2740   36.1440 C   0  0  0  0  0  0  0  0  0  0  0  0
   40.2960   22.4580   38.9440 H   0  0  0  0  0  0  0  0  0  0  0  0
   38.1080   23.4130   39.3810 H   0  0  0  0  0  0  0  0  0  0  0  0
   36.9060   24.5970   37.5730 H   0  0  0  0  0  0  0  0  0  0  0  0
   44.0740   22.7150   36.1430 C   0  0  0  0  0  0  0  0  0  0  0  0
   42.8210   23.2940   36.4450 C   0  0  0  0  0  0  0  0  0  0  0  0
   41.7070   22.5020   36.6120 C   0  0  0  0  0  0  0  0  0  0  0  0
   41.8730   21.1540   36.4740 N   0  0  0  0  0  0  0  0  0  0  0  0
   43.0670   20.6110   36.1870 C   0  0  0  0  0  0  0  0  0  0  0  0
   44.1420   21.3730   36.0250 N   0  0  0  0  0  0  0  0  0  0  0  0
   44.8780   23.4350   36.0340 H   0  0  0  0  0  0  0  0  0  0  0  0
   42.6910   24.3590   36.5540 H   0  0  0  0  0  0  0  0  0  0  0  0
   43.2370   19.5500   36.0690 H   0  0  0  0  0  0  0  0  0  0  0  0
  1  3  1  0  0  0  0
  1  2  2  0  0  0  0
  3 30  1  0  0  0  0
  4  3  1  0  0  0  0
  5 14  1  0  0  0  0
  6  5  1  0  0  0  0
  6  1  1  0  0  0  0
  7  6  2  0  0  0  0
  8 12  2  0  0  0  0
  8  7  1  0  0  0  0
  9  8  1  0  0  0  0
 10  9  1  0  0  0  0
 10 11  2  0  0  0  0
 11 12  1  0  0  0  0
 12 13  1  0  0  0  0
 13 18  1  0  0  0  0
 13  5  2  0  0  0  0
 15  7  1  0  0  0  0
 16  9  1  0  0  0  0
 17 10  1  0  0  0  0
 18 19  2  0  0  0  0
 19 21  1  0  0  0  0
 19 20  1  0  0  0  0
 22 21  2  0  0  0  0
 23 18  1  0  0  0  0
 23 22  1  0  0  0  0
 24 25  1  0  0  0  0
 25 30  2  0  0  0  0
 25 26  1  0  0  0  0
 26 27  2  0  0  0  0
 27 28  1  0  0  0  0
 27 31  1  0  0  0  0
 28 32  1  0  0  0  0
 29 33  1  0  0  0  0
 29 28  2  0  0  0  0
 30 29  1  0  0  0  0
 34 35  1  0  0  0  0
 35 41  1  0  0  0  0
 35 36  2  0  0  0  0
 36 26  1  0  0  0  0
 37 36  1  0  0  0  0
 38 37  2  0  0  0  0
 39 34  2  0  0  0  0
 39 38  1  0  0  0  0
 40 34  1  0  0  0  0
 42 38  1  0  0  0  0
M  END
>  <minimizedAffinity>
-6.94901133

$$$$

 OpenBabel03272503113D

 42 46  0  0  0  0  0  0  0  0999 V2000
   37.8770   26.4670   35.0600 C   0  0  0  0  0  0  0  0  0  0  0  0
   38.6360   26.8900   35.9870 O   0  0  0  0  0  0  0  0  0  0  0  0
   37.6730   25.0660   35.0640 N   0  0  0  0  0  0  0  0  0  0  0  0
   37.0580   24.6640   34.3270 H   0  0  0  0  0  0  0  0  0  0  0  0
   37.8420   27.3740   32.8340 C   0  0  0  0  0  0  0  0  0  0  0  0
   37.3100   27.4020   34.1210 C   0  0  0  0  0  0  0  0  0  0  0  0
   36.3010   28.2590   34.5020 C   0  0  0  0  0  0  0  0  0  0  0  0
   35.7940   29.1360   33.5550 C   0  0  0  0  0  0  0  0  0  0  0  0
   34.8280   30.0710   33.6270 N   0  0  0  0  0  0  0  0  0  0  0  0
   34.7310   30.6360   32.4310 C   0  0  0  0  0  0  0  0  0  0  0  0
   35.6180   30.0710   31.6160 N   0  0  0  0  0  0  0  0  0  0  0  0
   36.3200   29.1110   32.2790 C   0  0  0  0  0  0  0  0  0  0  0  0
   37.3220   28.2590   31.9010 C   0  0  0  0  0  0  0  0  0  0  0  0
   38.6470   26.6640   32.5990 H   0  0  0  0  0  0  0  0  0  0  0  0
   35.9160   28.2480   35.5130 H   0  0  0  0  0  0  0  0  0  0  0  0
   34.2670   30.2880   34.5010 H   0  0  0  0  0  0  0  0  0  0  0  0
   34.0550   31.4260   32.1320 H   0  0  0  0  0  0  0  0  0  0  0  0
   37.8330   28.2750   30.5580 C   0  0  0  0  0  0  0  0  0  0  0  0
   37.5460   29.0240   29.4830 C   0  0  0  0  0  0  0  0  0  0  0  0
   36.7870   29.7860   29.5870 H   0  0  0  0  0  0  0  0  0  0  0  0
   38.1660   28.8550   28.3060 C   0  0  0  0  0  3  0  0  0  0  0  0
   39.1800   27.7800   28.3050 C   0  0  0  0  0  3  0  0  0  0  0  0
   39.1090   27.1210   30.0760 S   0  0  0  0  0  0  0  0  0  0  0  0
   40.1530   24.0090   34.6400 F   0  0  0  0  0  0  0  0  0  0  0  0
   39.6090   23.8340   35.8720 C   0  0  0  0  0  0  0  0  0  0  0  0
   40.3080   23.1520   36.8290 C   0  0  0  0  0  0  0  0  0  0  0  0
   39.7030   23.0140   38.0460 C   0  0  0  0  0  0  0  0  0  0  0  0
   38.4560   23.5180   38.3340 C   0  0  0  0  0  0  0  0  0  0  0  0
   37.7770   24.2010   37.3450 C   0  0  0  0  0  0  0  0  0  0  0  0
   38.3580   24.3590   36.1110 C   0  0  0  0  0  0  0  0  0  0  0  0
   40.2370   22.4750   38.8260 H   0  0  0  0  0  0  0  0  0  0  0  0
   38.0360   23.3730   39.3160 H   0  0  0  0  0  0  0  0  0  0  0  0
   36.7980   24.6010   37.5630 H   0  0  0  0  0  0  0  0  0  0  0  0
   44.0180   22.8740   36.1790 C   0  0  0  0  0  0  0  0  0  0  0  0
   42.7580   23.4170   36.5190 C   0  0  0  0  0  0  0  0  0  0  0  0
   41.6270   22.6320   36.4870 C   0  0  0  0  0  0  0  0  0  0  0  0
   41.7830   21.3270   36.1160 N   0  0  0  0  0  0  0  0  0  0  0  0
   42.9830   20.8190   35.7950 C   0  0  0  0  0  0  0  0  0  0  0  0
   44.0750   21.5730   35.8250 N   0  0  0  0  0  0  0  0  0  0  0  0
   44.8360   23.5840   36.2410 H   0  0  0  0  0  0  0  0  0  0  0  0
   42.6370   24.4470   36.8120 H   0  0  0  0  0  0  0  0  0  0  0  0
   43.1450   19.7920   35.4970 H   0  0  0  0  0  0  0  0  0  0  0  0
  1  3  1  0  0  0  0
  1  2  2  0  0  0  0
  3 30  1  0  0  0  0
  4  3  1  0  0  0  0
  5  6  1  0  0  0  0
  6  7  2  0  0  0  0
  6  1  1  0  0  0  0
  7 15  1  0  0  0  0
  8  9  1  0  0  0  0
  8  7  1  0  0  0  0
  9 16  1  0  0  0  0
 10  9  1  0  0  0  0
 11 12  1  0  0  0  0
 11 10  2  0  0  0  0
 12  8  2  0  0  0  0
 13 12  1  0  0  0  0
 13  5  2  0  0  0  0
 14  5  1  0  0  0  0
 17 10  1  0  0  0  0
 18 13  1  0  0  0  0
 19 20  1  0  0  0  0
 19 18  2  0  0  0  0
 21 19  1  0  0  0  0
 22 21  2  0  0  0  0
 22 23  1  0  0  0  0
 23 18  1  0  0  0  0
 24 25  1  0  0  0  0
 25 30  2  0  0  0  0
 25 26  1  0  0  0  0
 26 27  2  0  0  0  0
 27 28  1  0  0  0  0
 27 31  1  0  0  0  0
 28 32  1  0  0  0  0
 29 33  1  0  0  0  0
 29 28  2  0  0  0  0
 30 29  1  0  0  0  0
 34 40  1  0  0  0  0
 34 35  1  0  0  0  0
 35 41  1  0  0  0  0
 36 35  2  0  0  0  0
 36 26  1  0  0  0  0
 37 36  1  0  0  0  0
 38 39  1  0  0  0  0
 38 37  2  0  0  0  0
 39 34  2  0  0  0  0
 42 38  1  0  0  0  0
M  END
>  <minimizedAffinity>
-6.7442112

$$$$

 OpenBabel03272503113D

 42 46  0  0  0  0  0  0  0  0999 V2000
   37.4130   26.5290   34.3640 C   0  0  0  0  0  0  0  0  0  0  0  0
   37.4500   25.4810   33.6440 O   0  0  0  0  0  0  0  0  0  0  0  0
   37.9890   26.3760   35.6480 N   0  0  0  0  0  0  0  0  0  0  0  0
   37.9890   27.2020   36.2800 H   0  0  0  0  0  0  0  0  0  0  0  0
   36.2990   28.6160   34.7860 C   0  0  0  0  0  0  0  0  0  0  0  0
   36.8150   27.7320   33.8420 C   0  0  0  0  0  0  0  0  0  0  0  0
   36.7730   27.9660   32.4850 C   0  0  0  0  0  0  0  0  0  0  0  0
   36.1860   29.1420   32.0410 C   0  0  0  0  0  0  0  0  0  0  0  0
   36.0000   29.6380   30.8040 N   0  0  0  0  0  0  0  0  0  0  0  0
   35.3840   30.8050   30.9310 C   0  0  0  0  0  0  0  0  0  0  0  0
   35.1820   31.0440   32.2250 N   0  0  0  0  0  0  0  0  0  0  0  0
   35.6720   30.0200   32.9740 C   0  0  0  0  0  0  0  0  0  0  0  0
   35.7150   29.7860   34.3220 C   0  0  0  0  0  0  0  0  0  0  0  0
   36.3660   28.3650   35.8530 H   0  0  0  0  0  0  0  0  0  0  0  0
   37.1870   27.2520   31.7850 H   0  0  0  0  0  0  0  0  0  0  0  0
   36.3060   29.1530   29.9100 H   0  0  0  0  0  0  0  0  0  0  0  0
   35.0810   31.4760   30.1400 H   0  0  0  0  0  0  0  0  0  0  0  0
   35.1650   30.7350   35.2500 C   0  0  0  0  0  0  0  0  0  0  0  0
   35.7210   31.6630   36.0420 C   0  0  0  0  0  0  0  0  0  0  0  0
   36.7970   31.7640   36.0210 H   0  0  0  0  0  0  0  0  0  0  0  0
   34.9910   32.4530   36.8440 C   0  0  0  0  0  3  0  0  0  0  0  0
   33.5360   32.2070   36.7730 C   0  0  0  0  0  3  0  0  0  0  0  0
   33.3970   30.8100   35.5070 S   0  0  0  0  0  0  0  0  0  0  0  0
   40.5830   25.7670   35.0590 F   0  0  0  0  0  0  0  0  0  0  0  0
   39.8290   24.7840   35.6150 C   0  0  0  0  0  0  0  0  0  0  0  0
   40.3840   23.5570   35.8530 C   0  0  0  0  0  0  0  0  0  0  0  0
   39.5690   22.6150   36.4140 C   0  0  0  0  0  0  0  0  0  0  0  0
   38.2520   22.8480   36.7380 C   0  0  0  0  0  0  0  0  0  0  0  0
   37.7230   24.0970   36.4850 C   0  0  0  0  0  0  0  0  0  0  0  0
   38.5160   25.0670   35.9220 C   0  0  0  0  0  0  0  0  0  0  0  0
   39.9860   21.6300   36.6140 H   0  0  0  0  0  0  0  0  0  0  0  0
   37.6650   22.0600   37.1790 H   0  0  0  0  0  0  0  0  0  0  0  0
   36.6900   24.2890   36.7360 H   0  0  0  0  0  0  0  0  0  0  0  0
   44.1420   23.2220   36.0350 C   0  0  0  0  0  0  0  0  0  0  0  0
   42.7980   23.4320   36.4220 C   0  0  0  0  0  0  0  0  0  0  0  0
   41.7830   23.3470   35.4960 C   0  0  0  0  0  0  0  0  0  0  0  0
   42.1340   23.0570   34.2090 N   0  0  0  0  0  0  0  0  0  0  0  0
   43.4130   22.8590   33.8490 C   0  0  0  0  0  0  0  0  0  0  0  0
   44.3930   22.9400   34.7400 N   0  0  0  0  0  0  0  0  0  0  0  0
   44.8540   23.3130   36.8470 H   0  0  0  0  0  0  0  0  0  0  0  0
   42.5220   23.6610   37.4390 H   0  0  0  0  0  0  0  0  0  0  0  0
   43.7280   22.6280   32.8410 H   0  0  0  0  0  0  0  0  0  0  0  0
  1  3  1  0  0  0  0
  2  1  2  0  0  0  0
  3 30  1  0  0  0  0
  3  4  1  0  0  0  0
  5 14  1  0  0  0  0
  6  1  1  0  0  0  0
  6  5  2  0  0  0  0
  7  6  1  0  0  0  0
  8  7  2  0  0  0  0
  8 12  1  0  0  0  0
  9 10  1  0  0  0  0
  9  8  1  0  0  0  0
 10 11  2  0  0  0  0
 11 12  1  0  0  0  0
 12 13  2  0  0  0  0
 13  5  1  0  0  0  0
 13 18  1  0  0  0  0
 15  7  1  0  0  0  0
 16  9  1  0  0  0  0
 17 10  1  0  0  0  0
 18 23  1  0  0  0  0
 18 19  2  0  0  0  0
 19 21  1  0  0  0  0
 20 19  1  0  0  0  0
 22 21  2  0  0  0  0
 23 22  1  0  0  0  0
 24 25  1  0  0  0  0
 25 26  2  0  0  0  0
 25 30  1  0  0  0  0
 26 27  1  0  0  0  0
 27 31  1  0  0  0  0
 27 28  2  0  0  0  0
 28 32  1  0  0  0  0
 29 33  1  0  0  0  0
 29 28  1  0  0  0  0
 30 29  2  0  0  0  0
 34 35  1  0  0  0  0
 34 40  1  0  0  0  0
 35 41  1  0  0  0  0
 36 26  1  0  0  0  0
 36 35  2  0  0  0  0
 37 36  1  0  0  0  0
 38 37  2  0  0  0  0
 38 39  1  0  0  0  0
 39 34  2  0  0  0  0
 42 38  1  0  0  0  0
M  END
>  <minimizedAffinity>
-6.6096139

$$$$

 OpenBabel03272503113D

 42 46  0  0  0  0  0  0  0  0999 V2000
   36.8360   27.4740   31.7970 C   0  0  0  0  0  0  0  0  0  0  0  0
   37.5610   27.0210   32.7380 O   0  0  0  0  0  0  0  0  0  0  0  0
   36.6750   26.5870   30.7050 N   0  0  0  0  0  0  0  0  0  0  0  0
   36.0900   26.9050   29.9060 H   0  0  0  0  0  0  0  0  0  0  0  0
   35.9140   29.1980   33.1950 C   0  0  0  0  0  0  0  0  0  0  0  0
   36.2630   28.7910   31.9090 C   0  0  0  0  0  0  0  0  0  0  0  0
   36.0850   29.5790   30.7930 C   0  0  0  0  0  0  0  0  0  0  0  0
   35.5300   30.8390   30.9620 C   0  0  0  0  0  0  0  0  0  0  0  0
   35.2400   31.8140   30.0820 N   0  0  0  0  0  0  0  0  0  0  0  0
   34.7190   32.8250   30.7640 C   0  0  0  0  0  0  0  0  0  0  0  0
   34.6790   32.4960   32.0540 N   0  0  0  0  0  0  0  0  0  0  0  0
   35.1820   31.2450   32.2350 C   0  0  0  0  0  0  0  0  0  0  0  0
   35.3600   30.4620   33.3430 C   0  0  0  0  0  0  0  0  0  0  0  0
   36.0840   28.5180   34.0400 H   0  0  0  0  0  0  0  0  0  0  0  0
   36.3710   29.2240   29.8120 H   0  0  0  0  0  0  0  0  0  0  0  0
   35.4120   31.7510   29.0360 H   0  0  0  0  0  0  0  0  0  0  0  0
   34.3740   33.7720   30.3730 H   0  0  0  0  0  0  0  0  0  0  0  0
   34.9800   30.9350   34.6460 C   0  0  0  0  0  0  0  0  0  0  0  0
   35.6540   31.5660   35.6180 C   0  0  0  0  0  0  0  0  0  0  0  0
   36.6970   31.7910   35.4440 H   0  0  0  0  0  0  0  0  0  0  0  0
   35.0780   31.9170   36.7780 C   0  0  0  0  0  3  0  0  0  0  0  0
   33.6520   31.5470   36.8800 C   0  0  0  0  0  3  0  0  0  0  0  0
   33.3050   30.7050   35.2240 S   0  0  0  0  0  0  0  0  0  0  0  0
   35.3880   24.4090   31.7280 F   0  0  0  0  0  0  0  0  0  0  0  0
   36.6860   24.2450   31.3630 C   0  0  0  0  0  0  0  0  0  0  0  0
   37.2820   23.0240   31.5170 C   0  0  0  0  0  0  0  0  0  0  0  0
   38.5890   22.9280   31.1280 C   0  0  0  0  0  0  0  0  0  0  0  0
   39.3030   23.9820   30.6050 C   0  0  0  0  0  0  0  0  0  0  0  0
   38.6700   25.2000   30.4620 C   0  0  0  0  0  0  0  0  0  0  0  0
   37.3570   25.3300   30.8430 C   0  0  0  0  0  0  0  0  0  0  0  0
   39.0880   21.9680   31.2400 H   0  0  0  0  0  0  0  0  0  0  0  0
   40.3310   23.8370   30.3180 H   0  0  0  0  0  0  0  0  0  0  0  0
   39.2240   26.0320   30.0530 H   0  0  0  0  0  0  0  0  0  0  0  0
   34.9400   20.0830   31.8750 C   0  0  0  0  0  0  0  0  0  0  0  0
   35.6890   21.1320   31.2940 C   0  0  0  0  0  0  0  0  0  0  0  0
   36.4940   21.9310   32.0750 C   0  0  0  0  0  0  0  0  0  0  0  0
   36.5290   21.6640   33.4140 N   0  0  0  0  0  0  0  0  0  0  0  0
   35.8140   20.6660   33.9580 C   0  0  0  0  0  0  0  0  0  0  0  0
   35.0380   19.8940   33.2070 N   0  0  0  0  0  0  0  0  0  0  0  0
   34.3440   19.5210   31.1650 H   0  0  0  0  0  0  0  0  0  0  0  0
   35.6600   21.3410   30.2370 H   0  0  0  0  0  0  0  0  0  0  0  0
   35.8170   20.4250   35.0110 H   0  0  0  0  0  0  0  0  0  0  0  0
  1  6  1  0  0  0  0
  1  2  2  0  0  0  0
  3 30  1  0  0  0  0
  3  1  1  0  0  0  0
  4  3  1  0  0  0  0
  5 13  1  0  0  0  0
  5 14  1  0  0  0  0
  6  5  2  0  0  0  0
  7  8  2  0  0  0  0
  7  6  1  0  0  0  0
  8 12  1  0  0  0  0
  9 10  1  0  0  0  0
  9  8  1  0  0  0  0
 10 11  2  0  0  0  0
 11 12  1  0  0  0  0
 12 13  2  0  0  0  0
 13 18  1  0  0  0  0
 15  7  1  0  0  0  0
 16  9  1  0  0  0  0
 17 10  1  0  0  0  0
 18 23  1  0  0  0  0
 18 19  2  0  0  0  0
 19 21  1  0  0  0  0
 20 19  1  0  0  0  0
 21 22  2  0  0  0  0
 23 22  1  0  0  0  0
 25 26  1  0  0  0  0
 25 24  1  0  0  0  0
 26 36  1  0  0  0  0
 27 31  1  0  0  0  0
 27 26  2  0  0  0  0
 28 27  1  0  0  0  0
 29 28  2  0  0  0  0
 29 30  1  0  0  0  0
 30 25  2  0  0  0  0
 32 28  1  0  0  0  0
 33 29  1  0  0  0  0
 34 39  1  0  0  0  0
 35 34  2  0  0  0  0
 35 36  1  0  0  0  0
 36 37  2  0  0  0  0
 37 38  1  0  0  0  0
 38 42  1  0  0  0  0
 39 38  2  0  0  0  0
 40 34  1  0  0  0  0
 41 35  1  0  0  0  0
M  END
>  <minimizedAffinity>
-6.566329

$$$$

 OpenBabel03272503113D

 42 46  0  0  0  0  0  0  0  0999 V2000
   37.1270   26.8340   32.7800 C   0  0  0  0  0  0  0  0  0  0  0  0
   38.0350   27.6700   33.0850 O   0  0  0  0  0  0  0  0  0  0  0  0
   35.9720   27.4120   32.2000 N   0  0  0  0  0  0  0  0  0  0  0  0
   35.1960   26.7740   31.9290 H   0  0  0  0  0  0  0  0  0  0  0  0
   37.9780   25.1170   34.2310 C   0  0  0  0  0  0  0  0  0  0  0  0
   37.3340   25.4310   33.0360 C   0  0  0  0  0  0  0  0  0  0  0  0
   36.9080   24.4800   32.1350 C   0  0  0  0  0  0  0  0  0  0  0  0
   37.1340   23.1450   32.4360 C   0  0  0  0  0  0  0  0  0  0  0  0
   36.8390   22.0150   31.7680 N   0  0  0  0  0  0  0  0  0  0  0  0
   37.2750   20.9960   32.4960 C   0  0  0  0  0  0  0  0  0  0  0  0
   37.8350   21.4710   33.6060 N   0  0  0  0  0  0  0  0  0  0  0  0
   37.7720   22.8300   33.6190 C   0  0  0  0  0  0  0  0  0  0  0  0
   38.1950   23.7760   34.5140 C   0  0  0  0  0  0  0  0  0  0  0  0
   38.2910   25.9270   34.9030 H   0  0  0  0  0  0  0  0  0  0  0  0
   36.4110   24.7680   31.2180 H   0  0  0  0  0  0  0  0  0  0  0  0
   36.3460   21.9840   30.8280 H   0  0  0  0  0  0  0  0  0  0  0  0
   37.2020   19.9430   32.2610 H   0  0  0  0  0  0  0  0  0  0  0  0
   38.8550   23.3930   35.7310 C   0  0  0  0  0  0  0  0  0  0  0  0
   38.4970   23.4590   37.0210 C   0  0  0  0  0  0  0  0  0  0  0  0
   37.5270   23.8750   37.2540 H   0  0  0  0  0  0  0  0  0  0  0  0
   39.2960   23.0310   38.0100 C   0  0  0  0  0  3  0  0  0  0  0  0
   40.5900   22.4870   37.5490 C   0  0  0  0  0  3  0  0  0  0  0  0
   40.4880   22.6690   35.6700 S   0  0  0  0  0  0  0  0  0  0  0  0
   35.1230   29.0430   34.2160 F   0  0  0  0  0  0  0  0  0  0  0  0
   35.5830   29.6430   33.0880 C   0  0  0  0  0  0  0  0  0  0  0  0
   35.6040   31.0080   33.0070 C   0  0  0  0  0  0  0  0  0  0  0  0
   36.0800   31.5460   31.8450 C   0  0  0  0  0  0  0  0  0  0  0  0
   36.5250   30.7880   30.7860 C   0  0  0  0  0  0  0  0  0  0  0  0
   36.4910   29.4130   30.9000 C   0  0  0  0  0  0  0  0  0  0  0  0
   36.0190   28.8410   32.0560 C   0  0  0  0  0  0  0  0  0  0  0  0
   36.1070   32.6300   31.7550 H   0  0  0  0  0  0  0  0  0  0  0  0
   36.8880   31.2760   29.8970 H   0  0  0  0  0  0  0  0  0  0  0  0
   36.8380   28.8100   30.0740 H   0  0  0  0  0  0  0  0  0  0  0  0
   35.4250   32.8250   36.3140 C   0  0  0  0  0  0  0  0  0  0  0  0
   35.9300   32.0770   35.2250 C   0  0  0  0  0  0  0  0  0  0  0  0
   35.1240   31.7780   34.1500 C   0  0  0  0  0  0  0  0  0  0  0  0
   33.8370   32.2330   34.1880 N   0  0  0  0  0  0  0  0  0  0  0  0
   33.3650   32.9430   35.2260 C   0  0  0  0  0  0  0  0  0  0  0  0
   34.1400   33.2330   36.2640 N   0  0  0  0  0  0  0  0  0  0  0  0
   36.1490   33.0000   37.1020 H   0  0  0  0  0  0  0  0  0  0  0  0
   36.9460   31.7180   35.1970 H   0  0  0  0  0  0  0  0  0  0  0  0
   32.3540   33.3190   35.2910 H   0  0  0  0  0  0  0  0  0  0  0  0
  1  6  1  0  0  0  0
  1  2  2  0  0  0  0
  3  1  1  0  0  0  0
  4  3  1  0  0  0  0
  5 13  1  0  0  0  0
  5 14  1  0  0  0  0
  6  5  2  0  0  0  0
  7  8  2  0  0  0  0
  7  6  1  0  0  0  0
  8 12  1  0  0  0  0
  9  8  1  0  0  0  0
  9 10  1  0  0  0  0
 10 11  2  0  0  0  0
 11 12  1  0  0  0  0
 12 13  2  0  0  0  0
 13 18  1  0  0  0  0
 15  7  1  0  0  0  0
 16  9  1  0  0  0  0
 17 10  1  0  0  0  0
 18 19  2  0  0  0  0
 19 20  1  0  0  0  0
 19 21  1  0  0  0  0
 22 21  2  0  0  0  0
 23 18  1  0  0  0  0
 23 22  1  0  0  0  0
 25 24  1  0  0  0  0
 26 25  1  0  0  0  0
 26 36  1  0  0  0  0
 27 26  2  0  0  0  0
 28 29  2  0  0  0  0
 28 27  1  0  0  0  0
 29 30  1  0  0  0  0
 30  3  1  0  0  0  0
 30 25  2  0  0  0  0
 31 27  1  0  0  0  0
 32 28  1  0  0  0  0
 33 29  1  0  0  0  0
 34 40  1  0  0  0  0
 35 34  2  0  0  0  0
 36 37  2  0  0  0  0
 36 35  1  0  0  0  0
 37 38  1  0  0  0  0
 38 42  1  0  0  0  0
 38 39  2  0  0  0  0
 39 34  1  0  0  0  0
 41 35  1  0  0  0  0
M  END
>  <minimizedAffinity>
-6.38645792

$$$$

 OpenBabel03272503113D

 42 46  0  0  0  0  0  0  0  0999 V2000
   36.5430   25.9450   32.2050 C   0  0  0  0  0  0  0  0  0  0  0  0
   35.4000   26.2670   31.7520 O   0  0  0  0  0  0  0  0  0  0  0  0
   37.3360   27.0410   32.6220 N   0  0  0  0  0  0  0  0  0  0  0  0
   38.2830   26.8360   33.0030 H   0  0  0  0  0  0  0  0  0  0  0  0
   37.9320   24.2320   33.1600 C   0  0  0  0  0  0  0  0  0  0  0  0
   36.9240   24.5560   32.2550 C   0  0  0  0  0  0  0  0  0  0  0  0
   36.3100   23.6260   31.4440 C   0  0  0  0  0  0  0  0  0  0  0  0
   36.7180   22.3050   31.5370 C   0  0  0  0  0  0  0  0  0  0  0  0
   36.3140   21.1960   30.8900 N   0  0  0  0  0  0  0  0  0  0  0  0
   37.0310   20.1810   31.3530 C   0  0  0  0  0  0  0  0  0  0  0  0
   37.8740   20.6370   32.2760 N   0  0  0  0  0  0  0  0  0  0  0  0
   37.7170   21.9800   32.4320 C   0  0  0  0  0  0  0  0  0  0  0  0
   38.3270   22.9040   33.2380 C   0  0  0  0  0  0  0  0  0  0  0  0
   38.3790   25.0240   33.7750 H   0  0  0  0  0  0  0  0  0  0  0  0
   35.5300   23.9220   30.7540 H   0  0  0  0  0  0  0  0  0  0  0  0
   35.5550   21.1760   30.1480 H   0  0  0  0  0  0  0  0  0  0  0  0
   36.9680   19.1430   31.0550 H   0  0  0  0  0  0  0  0  0  0  0  0
   39.3620   22.5110   34.1530 C   0  0  0  0  0  0  0  0  0  0  0  0
   40.6510   22.1810   33.9840 C   0  0  0  0  0  0  0  0  0  0  0  0
   41.0470   22.1960   32.9790 H   0  0  0  0  0  0  0  0  0  0  0  0
   41.4440   21.8400   35.0110 C   0  0  0  0  0  3  0  0  0  0  0  0
   40.7720   21.8610   36.3270 C   0  0  0  0  0  3  0  0  0  0  0  0
   39.0090   22.3920   35.9010 S   0  0  0  0  0  0  0  0  0  0  0  0
   36.1650   28.2960   34.7430 F   0  0  0  0  0  0  0  0  0  0  0  0
   36.1340   28.9420   33.5480 C   0  0  0  0  0  0  0  0  0  0  0  0
   35.5320   30.1660   33.4560 C   0  0  0  0  0  0  0  0  0  0  0  0
   35.5370   30.7600   32.2250 C   0  0  0  0  0  0  0  0  0  0  0  0
   36.1070   30.1880   31.1110 C   0  0  0  0  0  0  0  0  0  0  0  0
   36.7060   28.9520   31.2390 C   0  0  0  0  0  0  0  0  0  0  0  0
   36.7190   28.3280   32.4620 C   0  0  0  0  0  0  0  0  0  0  0  0
   35.0640   31.7350   32.1250 H   0  0  0  0  0  0  0  0  0  0  0  0
   36.0750   30.7110   30.1700 H   0  0  0  0  0  0  0  0  0  0  0  0
   37.1560   28.4960   30.3690 H   0  0  0  0  0  0  0  0  0  0  0  0
   35.0640   31.9990   36.7250 C   0  0  0  0  0  0  0  0  0  0  0  0
   35.6770   31.4600   35.5710 C   0  0  0  0  0  0  0  0  0  0  0  0
   34.9380   30.7400   34.6590 C   0  0  0  0  0  0  0  0  0  0  0  0
   33.6080   30.5760   34.9220 N   0  0  0  0  0  0  0  0  0  0  0  0
   33.0330   31.0910   36.0210 C   0  0  0  0  0  0  0  0  0  0  0  0
   33.7430   31.7860   36.9010 N   0  0  0  0  0  0  0  0  0  0  0  0
   35.7420   32.5460   37.3710 H   0  0  0  0  0  0  0  0  0  0  0  0
   36.7270   31.5900   35.3650 H   0  0  0  0  0  0  0  0  0  0  0  0
   31.9860   30.9820   36.2620 H   0  0  0  0  0  0  0  0  0  0  0  0
  1  6  1  0  0  0  0
  1  3  1  0  0  0  0
  2  1  2  0  0  0  0
  3  4  1  0  0  0  0
  5 13  1  0  0  0  0
  5 14  1  0  0  0  0
  6  5  2  0  0  0  0
  7  8  2  0  0  0  0
  7  6  1  0  0  0  0
  8 12  1  0  0  0  0
  9 10  1  0  0  0  0
  9  8  1  0  0  0  0
 10 11  2  0  0  0  0
 11 12  1  0  0  0  0
 12 13  2  0  0  0  0
 13 18  1  0  0  0  0
 15  7  1  0  0  0  0
 16  9  1  0  0  0  0
 17 10  1  0  0  0  0
 18 23  1  0  0  0  0
 19 18  2  0  0  0  0
 19 21  1  0  0  0  0
 20 19  1  0  0  0  0
 21 22  2  0  0  0  0
 23 22  1  0  0  0  0
 25 24  1  0  0  0  0
 26 25  1  0  0  0  0
 26 36  1  0  0  0  0
 27 26  2  0  0  0  0
 28 29  2  0  0  0  0
 28 27  1  0  0  0  0
 29 30  1  0  0  0  0
 30  3  1  0  0  0  0
 30 25  2  0  0  0  0
 31 27  1  0  0  0  0
 32 28  1  0  0  0  0
 33 29  1  0  0  0  0
 34 39  1  0  0  0  0
 34 40  1  0  0  0  0
 35 34  2  0  0  0  0
 36 37  2  0  0  0  0
 36 35  1  0  0  0  0
 37 38  1  0  0  0  0
 38 42  1  0  0  0  0
 38 39  2  0  0  0  0
 41 35  1  0  0  0  0
M  END
>  <minimizedAffinity>
-6.24076605

$$$$

 OpenBabel03272503113D

 42 46  0  0  0  0  0  0  0  0999 V2000
   36.3020   26.7570   31.8180 C   0  0  0  0  0  0  0  0  0  0  0  0
   36.7760   26.1590   32.8350 O   0  0  0  0  0  0  0  0  0  0  0  0
   36.0210   25.9100   30.7200 N   0  0  0  0  0  0  0  0  0  0  0  0
   35.6290   26.3450   29.8590 H   0  0  0  0  0  0  0  0  0  0  0  0
   35.7480   28.7130   33.1010 C   0  0  0  0  0  0  0  0  0  0  0  0
   36.0970   28.1830   31.8610 C   0  0  0  0  0  0  0  0  0  0  0  0
   36.2480   28.9510   30.7260 C   0  0  0  0  0  0  0  0  0  0  0  0
   36.0400   30.3180   30.8290 C   0  0  0  0  0  0  0  0  0  0  0  0
   36.1110   31.3050   29.9160 N   0  0  0  0  0  0  0  0  0  0  0  0
   35.8170   32.4410   30.5340 C   0  0  0  0  0  0  0  0  0  0  0  0
   35.5650   32.1800   31.8150 N   0  0  0  0  0  0  0  0  0  0  0  0
   35.6920   30.8470   32.0560 C   0  0  0  0  0  0  0  0  0  0  0  0
   35.5420   30.0830   33.1820 C   0  0  0  0  0  0  0  0  0  0  0  0
   35.6440   28.0420   33.9640 H   0  0  0  0  0  0  0  0  0  0  0  0
   36.5210   28.4980   29.7830 H   0  0  0  0  0  0  0  0  0  0  0  0
   36.3600   31.1610   28.8940 H   0  0  0  0  0  0  0  0  0  0  0  0
   35.7810   33.4320   30.1030 H   0  0  0  0  0  0  0  0  0  0  0  0
   35.1790   30.6850   34.4350 C   0  0  0  0  0  0  0  0  0  0  0  0
   35.8910   31.3030   35.3890 C   0  0  0  0  0  0  0  0  0  0  0  0
   36.9570   31.3970   35.2420 H   0  0  0  0  0  0  0  0  0  0  0  0
   35.3230   31.7970   36.5000 C   0  0  0  0  0  3  0  0  0  0  0  0
   33.8610   31.5980   36.5720 C   0  0  0  0  0  3  0  0  0  0  0  0
   33.4720   30.6860   34.9620 S   0  0  0  0  0  0  0  0  0  0  0  0
   38.4630   24.8900   30.0520 F   0  0  0  0  0  0  0  0  0  0  0  0
   37.5600   24.0300   30.5900 C   0  0  0  0  0  0  0  0  0  0  0  0
   37.9000   22.7180   30.7720 C   0  0  0  0  0  0  0  0  0  0  0  0
   36.9450   21.9080   31.3190 C   0  0  0  0  0  0  0  0  0  0  0  0
   35.6930   22.3500   31.6800 C   0  0  0  0  0  0  0  0  0  0  0  0
   35.3820   23.6800   31.4820 C   0  0  0  0  0  0  0  0  0  0  0  0
   36.3200   24.5210   30.9360 C   0  0  0  0  0  0  0  0  0  0  0  0
   37.1900   20.8590   31.4750 H   0  0  0  0  0  0  0  0  0  0  0  0
   34.9870   21.6570   32.1060 H   0  0  0  0  0  0  0  0  0  0  0  0
   34.4010   24.0350   31.7630 H   0  0  0  0  0  0  0  0  0  0  0  0
   40.8110   21.3530   28.7900 C   0  0  0  0  0  0  0  0  0  0  0  0
   39.5010   21.7600   29.1330 C   0  0  0  0  0  0  0  0  0  0  0  0
   39.2360   22.2860   30.3780 C   0  0  0  0  0  0  0  0  0  0  0  0
   40.2850   22.3920   31.2470 N   0  0  0  0  0  0  0  0  0  0  0  0
   41.5260   22.0030   30.9130 C   0  0  0  0  0  0  0  0  0  0  0  0
   41.7830   21.4960   29.7140 N   0  0  0  0  0  0  0  0  0  0  0  0
   40.9000   20.9550   27.7850 H   0  0  0  0  0  0  0  0  0  0  0  0
   38.6750   21.6760   28.4450 H   0  0  0  0  0  0  0  0  0  0  0  0
   42.3780   22.0710   31.5730 H   0  0  0  0  0  0  0  0  0  0  0  0
  1  6  1  0  0  0  0
  1  2  2  0  0  0  0
  3 30  1  0  0  0  0
  3  1  1  0  0  0  0
  4  3  1  0  0  0  0
  5 13  1  0  0  0  0
  5 14  1  0  0  0  0
  6  5  2  0  0  0  0
  7  8  2  0  0  0  0
  7  6  1  0  0  0  0
  8 12  1  0  0  0  0
  9 10  1  0  0  0  0
  9  8  1  0  0  0  0
 10 11  2  0  0  0  0
 11 12  1  0  0  0  0
 12 13  2  0  0  0  0
 13 18  1  0  0  0  0
 15  7  1  0  0  0  0
 16  9  1  0  0  0  0
 17 10  1  0  0  0  0
 18 23  1  0  0  0  0
 18 19  2  0  0  0  0
 19 21  1  0  0  0  0
 20 19  1  0  0  0  0
 21 22  2  0  0  0  0
 23 22  1  0  0  0  0
 24 25  1  0  0  0  0
 25 26  2  0  0  0  0
 25 30  1  0  0  0  0
 26 27  1  0  0  0  0
 27 31  1  0  0  0  0
 27 28  2  0  0  0  0
 28 32  1  0  0  0  0
 29 28  1  0  0  0  0
 29 33  1  0  0  0  0
 30 29  2  0  0  0  0
 34 35  2  0  0  0  0
 34 39  1  0  0  0  0
 35 36  1  0  0  0  0
 36 26  1  0  0  0  0
 36 37  2  0  0  0  0
 38 37  1  0  0  0  0
 38 42  1  0  0  0  0
 39 38  2  0  0  0  0
 40 34  1  0  0  0  0
 41 35  1  0  0  0  0
M  END
>  <minimizedAffinity>
-6.21588612

$$$$

 OpenBabel03272503113D

 42 46  0  0  0  0  0  0  0  0999 V2000
   37.1500   27.2470   32.3150 C   0  0  0  0  0  0  0  0  0  0  0  0
   38.3650   27.1440   31.9560 O   0  0  0  0  0  0  0  0  0  0  0  0
   36.5500   26.0240   32.7040 N   0  0  0  0  0  0  0  0  0  0  0  0
   35.5550   26.0490   33.0090 H   0  0  0  0  0  0  0  0  0  0  0  0
   36.0990   29.0310   33.5340 C   0  0  0  0  0  0  0  0  0  0  0  0
   36.5080   28.5370   32.2980 C   0  0  0  0  0  0  0  0  0  0  0  0
   36.3250   29.2170   31.1140 C   0  0  0  0  0  0  0  0  0  0  0  0
   35.7020   30.4550   31.1600 C   0  0  0  0  0  0  0  0  0  0  0  0
   35.3910   31.3360   30.1910 N   0  0  0  0  0  0  0  0  0  0  0  0
   34.7980   32.3720   30.7700 C   0  0  0  0  0  0  0  0  0  0  0  0
   34.7340   32.1510   32.0820 N   0  0  0  0  0  0  0  0  0  0  0  0
   35.2940   30.9480   32.3830 C   0  0  0  0  0  0  0  0  0  0  0  0
   35.4760   30.2720   33.5590 C   0  0  0  0  0  0  0  0  0  0  0  0
   36.2760   28.4350   34.4390 H   0  0  0  0  0  0  0  0  0  0  0  0
   36.6590   28.7960   30.1750 H   0  0  0  0  0  0  0  0  0  0  0  0
   35.5980   31.1940   29.1600 H   0  0  0  0  0  0  0  0  0  0  0  0
   34.4180   33.2630   30.2900 H   0  0  0  0  0  0  0  0  0  0  0  0
   35.0330   30.8320   34.8050 C   0  0  0  0  0  0  0  0  0  0  0  0
   35.6520   31.5500   35.7530 C   0  0  0  0  0  0  0  0  0  0  0  0
   36.6960   31.7870   35.6040 H   0  0  0  0  0  0  0  0  0  0  0  0
   35.0210   31.9740   36.8580 C   0  0  0  0  0  3  0  0  0  0  0  0
   33.5990   31.5790   36.9320 C   0  0  0  0  0  3  0  0  0  0  0  0
   33.3400   30.6060   35.3320 S   0  0  0  0  0  0  0  0  0  0  0  0
   38.1690   25.3540   34.7960 F   0  0  0  0  0  0  0  0  0  0  0  0
   38.2200   24.5600   33.6950 C   0  0  0  0  0  0  0  0  0  0  0  0
   39.0600   23.4810   33.6780 C   0  0  0  0  0  0  0  0  0  0  0  0
   39.0610   22.7240   32.5410 C   0  0  0  0  0  0  0  0  0  0  0  0
   38.2730   22.9990   31.4470 C   0  0  0  0  0  0  0  0  0  0  0  0
   37.4370   24.0960   31.4970 C   0  0  0  0  0  0  0  0  0  0  0  0
   37.4110   24.8770   32.6260 C   0  0  0  0  0  0  0  0  0  0  0  0
   39.7210   21.8590   32.5010 H   0  0  0  0  0  0  0  0  0  0  0  0
   38.3230   22.3610   30.5800 H   0  0  0  0  0  0  0  0  0  0  0  0
   36.8150   24.3200   30.6420 H   0  0  0  0  0  0  0  0  0  0  0  0
   41.9460   23.3750   36.1130 C   0  0  0  0  0  0  0  0  0  0  0  0
   41.1850   23.6490   34.9530 C   0  0  0  0  0  0  0  0  0  0  0  0
   39.8800   23.2210   34.8560 C   0  0  0  0  0  0  0  0  0  0  0  0
   39.3690   22.5300   35.9180 N   0  0  0  0  0  0  0  0  0  0  0  0
   40.0980   22.2740   37.0160 C   0  0  0  0  0  0  0  0  0  0  0  0
   41.3560   22.6860   37.1120 N   0  0  0  0  0  0  0  0  0  0  0  0
   42.9590   23.7610   36.0770 H   0  0  0  0  0  0  0  0  0  0  0  0
   41.5900   24.1940   34.1160 H   0  0  0  0  0  0  0  0  0  0  0  0
   39.7290   21.7310   37.8740 H   0  0  0  0  0  0  0  0  0  0  0  0
  1  3  1  0  0  0  0
  2  1  2  0  0  0  0
  3  4  1  0  0  0  0
  5 13  1  0  0  0  0
  5 14  1  0  0  0  0
  6  1  1  0  0  0  0
  6  5  2  0  0  0  0
  7  8  2  0  0  0  0
  7  6  1  0  0  0  0
  8 12  1  0  0  0  0
  9 10  1  0  0  0  0
  9  8  1  0  0  0  0
 10 11  2  0  0  0  0
 11 12  1  0  0  0  0
 12 13  2  0  0  0  0
 13 18  1  0  0  0  0
 15  7  1  0  0  0  0
 16  9  1  0  0  0  0
 17 10  1  0  0  0  0
 18 23  1  0  0  0  0
 18 19  2  0  0  0  0
 19 21  1  0  0  0  0
 20 19  1  0  0  0  0
 21 22  2  0  0  0  0
 23 22  1  0  0  0  0
 25 24  1  0  0  0  0
 26 25  1  0  0  0  0
 26 36  1  0  0  0  0
 27 26  2  0  0  0  0
 28 29  2  0  0  0  0
 28 27  1  0  0  0  0
 29 30  1  0  0  0  0
 30  3  1  0  0  0  0
 30 25  2  0  0  0  0
 31 27  1  0  0  0  0
 32 28  1  0  0  0  0
 33 29  1  0  0  0  0
 34 39  1  0  0  0  0
 35 34  2  0  0  0  0
 36 35  1  0  0  0  0
 36 37  2  0  0  0  0
 37 38  1  0  0  0  0
 38 39  2  0  0  0  0
 38 42  1  0  0  0  0
 40 34  1  0  0  0  0
 41 35  1  0  0  0  0
M  END
>  <minimizedAffinity>
-6.208529

$$$$

 OpenBabel03272503113D

 42 46  0  0  0  0  0  0  0  0999 V2000
   37.1330   25.9800   32.4450 C   0  0  0  0  0  0  0  0  0  0  0  0
   35.9140   26.0420   32.0910 O   0  0  0  0  0  0  0  0  0  0  0  0
   37.7320   27.2370   32.7010 N   0  0  0  0  0  0  0  0  0  0  0  0
   38.7300   27.2470   32.9970 H   0  0  0  0  0  0  0  0  0  0  0  0
   36.9820   23.5860   32.2900 C   0  0  0  0  0  0  0  0  0  0  0  0
   37.7800   24.6960   32.5520 C   0  0  0  0  0  0  0  0  0  0  0  0
   39.1120   24.6050   32.8950 C   0  0  0  0  0  0  0  0  0  0  0  0
   39.6810   23.3430   32.9810 C   0  0  0  0  0  0  0  0  0  0  0  0
   40.9290   22.9430   33.2870 N   0  0  0  0  0  0  0  0  0  0  0  0
   40.9490   21.6190   33.2280 C   0  0  0  0  0  0  0  0  0  0  0  0
   39.7360   21.1860   32.8910 N   0  0  0  0  0  0  0  0  0  0  0  0
   38.8920   22.2400   32.7220 C   0  0  0  0  0  0  0  0  0  0  0  0
   37.5690   22.3320   32.3820 C   0  0  0  0  0  0  0  0  0  0  0  0
   35.9270   23.7320   32.0220 H   0  0  0  0  0  0  0  0  0  0  0  0
   39.6970   25.4940   33.0900 H   0  0  0  0  0  0  0  0  0  0  0  0
   41.7280   23.6000   33.5270 H   0  0  0  0  0  0  0  0  0  0  0  0
   41.7910   20.9660   33.4140 H   0  0  0  0  0  0  0  0  0  0  0  0
   36.7940   21.1510   32.1220 C   0  0  0  0  0  0  0  0  0  0  0  0
   36.7370   20.3090   31.0810 C   0  0  0  0  0  0  0  0  0  0  0  0
   37.3830   20.5070   30.2370 H   0  0  0  0  0  0  0  0  0  0  0  0
   35.9170   19.2470   31.0600 C   0  0  0  0  0  3  0  0  0  0  0  0
   35.0920   19.0980   32.2770 C   0  0  0  0  0  3  0  0  0  0  0  0
   35.6250   20.5660   33.3420 S   0  0  0  0  0  0  0  0  0  0  0  0
   36.5180   28.4240   34.8370 F   0  0  0  0  0  0  0  0  0  0  0  0
   36.2640   28.9490   33.6100 C   0  0  0  0  0  0  0  0  0  0  0  0
   35.4290   30.0270   33.4960 C   0  0  0  0  0  0  0  0  0  0  0  0
   35.2170   30.5050   32.2340 C   0  0  0  0  0  0  0  0  0  0  0  0
   35.7940   29.9590   31.1100 C   0  0  0  0  0  0  0  0  0  0  0  0
   36.6310   28.8720   31.2610 C   0  0  0  0  0  0  0  0  0  0  0  0
   36.8660   28.3680   32.5170 C   0  0  0  0  0  0  0  0  0  0  0  0
   34.5570   31.3620   32.1140 H   0  0  0  0  0  0  0  0  0  0  0  0
   35.5840   30.3860   30.1430 H   0  0  0  0  0  0  0  0  0  0  0  0
   37.0870   28.4370   30.3840 H   0  0  0  0  0  0  0  0  0  0  0  0
   34.9270   31.9150   36.7280 C   0  0  0  0  0  0  0  0  0  0  0  0
   35.5380   31.4030   35.5610 C   0  0  0  0  0  0  0  0  0  0  0  0
   34.8370   30.5780   34.7100 C   0  0  0  0  0  0  0  0  0  0  0  0
   33.5460   30.2870   35.0450 N   0  0  0  0  0  0  0  0  0  0  0  0
   32.9730   30.7790   36.1560 C   0  0  0  0  0  0  0  0  0  0  0  0
   33.6470   31.5730   36.9780 N   0  0  0  0  0  0  0  0  0  0  0  0
   35.5740   32.5520   37.3210 H   0  0  0  0  0  0  0  0  0  0  0  0
   36.5580   31.6330   35.2970 H   0  0  0  0  0  0  0  0  0  0  0  0
   31.9550   30.5700   36.4530 H   0  0  0  0  0  0  0  0  0  0  0  0
  1  6  1  0  0  0  0
  1  3  1  0  0  0  0
  2  1  2  0  0  0  0
  3  4  1  0  0  0  0
  5 13  2  0  0  0  0
  5  6  1  0  0  0  0
  6  7  2  0  0  0  0
  7  8  1  0  0  0  0
  7 15  1  0  0  0  0
  8  9  1  0  0  0  0
  9 16  1  0  0  0  0
 10  9  1  0  0  0  0
 10 17  1  0  0  0  0
 11 10  2  0  0  0  0
 12 11  1  0  0  0  0
 12  8  2  0  0  0  0
 13 12  1  0  0  0  0
 14  5  1  0  0  0  0
 18 13  1  0  0  0  0
 18 23  1  0  0  0  0
 19 18  2  0  0  0  0
 20 19  1  0  0  0  0
 21 19  1  0  0  0  0
 21 22  2  0  0  0  0
 22 23  1  0  0  0  0
 25 24  1  0  0  0  0
 26 25  1  0  0  0  0
 26 36  1  0  0  0  0
 27 26  2  0  0  0  0
 28 29  2  0  0  0  0
 28 27  1  0  0  0  0
 29 30  1  0  0  0  0
 30  3  1  0  0  0  0
 30 25  2  0  0  0  0
 31 27  1  0  0  0  0
 32 28  1  0  0  0  0
 33 29  1  0  0  0  0
 34 39  1  0  0  0  0
 34 40  1  0  0  0  0
 35 34  2  0  0  0  0
 36 37  2  0  0  0  0
 36 35  1  0  0  0  0
 37 38  1  0  0  0  0
 38 42  1  0  0  0  0
 38 39  2  0  0  0  0
 41 35  1  0  0  0  0
M  END
>  <minimizedAffinity>
-6.03770399

$$$$
