
 OpenBabel03272510023D

 18 19  0  0  0  0  0  0  0  0999 V2000
   38.3250   31.2570   50.2470 C   0  0  0  0  0  0  0  0  0  0  0  0
   38.4490   31.5590   48.8750 C   0  0  0  0  0  0  0  0  0  0  0  0
   37.4390   31.1030   48.0430 C   0  0  0  0  0  0  0  0  0  0  0  0
   36.4010   30.4060   48.5610 N   0  0  0  0  0  0  0  0  0  0  0  0
   36.3180   30.1380   49.8840 C   0  0  0  0  0  0  0  0  0  0  0  0
   37.2840   30.5690   50.7050 N   0  0  0  0  0  0  0  0  0  0  0  0
   39.1040   31.6040   50.9240 H   0  0  0  0  0  0  0  0  0  0  0  0
   39.2950   32.1100   48.5520 H   0  0  0  0  0  0  0  0  0  0  0  0
   37.5040   31.3770   46.6250 C   0  0  0  0  0  0  0  0  0  0  0  0
   38.1930   32.2350   45.8460 C   0  0  0  0  0  0  0  0  0  0  0  0
   38.8670   32.8840   46.4110 H   0  0  0  0  0  0  0  0  0  0  0  0
   38.0300   32.2530   44.5090 C   0  0  0  0  0  3  0  0  0  0  0  0
   37.1230   31.3460   43.9860 C   0  0  0  0  0  3  0  0  0  0  0  0
   36.5000   30.4540   45.5020 S   0  0  0  0  0  0  0  0  0  0  0  0
   35.1530   29.3700   50.3750 C   0  0  0  0  0  0  0  0  0  0  0  0
   35.2200   29.0990   51.7320 F   0  0  0  0  0  0  0  0  0  0  0  0
   33.9700   30.0620   50.1730 F   0  0  0  0  0  0  0  0  0  0  0  0
   34.9900   28.1670   49.7180 F   0  0  0  0  0  0  0  0  0  0  0  0
  1  6  1  0  0  0  0
  1  7  1  0  0  0  0
  2  1  2  0  0  0  0
  3  4  2  0  0  0  0
  3  2  1  0  0  0  0
  4  5  1  0  0  0  0
  5 15  1  0  0  0  0
  5  6  2  0  0  0  0
  8  2  1  0  0  0  0
  9  3  1  0  0  0  0
 10 11  1  0  0  0  0
 10  9  2  0  0  0  0
 12 10  1  0  0  0  0
 13 12  2  0  0  0  0
 13 14  1  0  0  0  0
 14  9  1  0  0  0  0
 15 16  1  0  0  0  0
 17 15  1  0  0  0  0
 18 15  1  0  0  0  0
M  END
>  <minimizedAffinity>
-5.04879332

>  <minimizedRMSD>
0.356320113

$$$$
