
 OpenBabel03272509423D

 35 37  0  0  1  0  0  0  0  0999 V2000
   37.0620   30.9350   49.0270 C   0  0  0  0  0  0  0  0  0  0  0  0
   36.7900   31.8460   50.0480 C   0  0  0  0  0  0  0  0  0  0  0  0
   37.3870   33.0960   50.0950 C   0  0  0  0  0  0  0  0  0  0  0  0
   38.2920   33.4640   49.0920 C   0  0  0  0  0  0  0  0  0  0  0  0
   38.5490   32.5610   48.0970 C   0  0  0  0  0  0  0  0  0  0  0  0
   37.9320   31.3220   48.0880 C   0  0  0  0  0  0  0  0  0  0  0  0
   36.0890   31.5700   50.8300 H   0  0  0  0  0  0  0  0  0  0  0  0
   37.1250   33.7340   50.9120 H   0  0  0  0  0  0  0  0  0  0  0  0
   38.6950   34.4390   49.2160 H   0  0  0  0  0  0  0  0  0  0  0  0
   39.2680   32.9900   47.3990 H   0  0  0  0  0  0  0  0  0  0  0  0
   36.4640   29.6180   48.9970 C   0  0  2  0  0  0  0  0  0  0  0  0
   36.9650   29.0800   48.1030 H   0  0  0  0  0  0  0  0  0  0  0  0
   33.6130   30.0130   46.7770 C   0  0  0  0  0  0  0  0  0  0  0  0
   32.8620   28.8730   46.9900 C   0  0  0  0  0  0  0  0  0  0  0  0
   33.2950   27.9800   47.9520 C   0  0  0  0  0  0  0  0  0  0  0  0
   34.4490   28.2490   48.6560 N   0  0  0  0  0  0  0  0  0  0  0  0
   35.1230   29.3530   48.4030 C   0  0  0  0  0  0  0  0  0  0  0  0
   34.7130   30.2400   47.4680 N   0  0  0  0  0  0  0  0  0  0  0  0
   33.3030   30.7410   46.0260 H   0  0  0  0  0  0  0  0  0  0  0  0
   31.9780   28.7640   46.3810 H   0  0  0  0  0  0  0  0  0  0  0  0
   32.7050   27.0900   48.1200 H   0  0  0  0  0  0  0  0  0  0  0  0
   36.9250   28.8490   49.9180 O   0  0  0  0  0  0  0  0  0  0  0  0
   36.4870   28.7010   50.7730 H   0  0  0  0  0  0  0  0  0  0  0  0
   38.3250   30.4570   46.9990 C   0  0  0  0  0  3  0  0  0  0  0  0
   38.9100   30.8850   45.8770 C   0  0  0  0  0  3  0  0  0  0  0  0
   39.3950   30.0890   44.7260 C   0  0  0  0  0  0  0  0  0  0  0  0
   38.8500   29.1170   44.6670 H   0  0  0  0  0  0  0  0  0  0  0  0
   40.4930   29.8950   44.8540 H   0  0  0  0  0  0  0  0  0  0  0  0
   39.1980   31.0330   43.2130 S   0  0  0  0  0  0  0  0  0  0  0  0
   37.5090   31.5640   43.0360 C   0  0  0  0  0  0  0  0  0  0  0  0
   37.3200   32.7600   42.2910 C   0  0  0  0  0  0  0  0  0  0  0  0
   37.9890   33.4410   41.7920 H   0  0  0  0  0  0  0  0  0  0  0  0
   36.1120   33.3240   42.0470 C   0  0  0  0  0  3  0  0  0  0  0  0
   34.9780   32.6240   42.6020 C   0  0  0  0  0  3  0  0  0  0  0  0
   35.7370   31.1230   43.4870 S   0  0  0  0  0  0  0  0  0  0  0  0
  1  2  1  0  0  0  0
  2  3  2  0  0  0  0
  2  7  1  0  0  0  0
  3  8  1  0  0  0  0
  4  9  1  0  0  0  0
  4  3  1  0  0  0  0
  5  4  2  0  0  0  0
  6  5  1  0  0  0  0
  6  1  2  0  0  0  0
 10  5  1  0  0  0  0
 11 12  1  6  0  0  0
 11  1  1  0  0  0  0
 11 22  1  0  0  0  0
 13 14  2  0  0  0  0
 13 18  1  0  0  0  0
 14 15  1  0  0  0  0
 15 21  1  0  0  0  0
 15 16  2  0  0  0  0
 17 16  1  0  0  0  0
 17 11  1  0  0  0  0
 18 17  2  0  0  0  0
 19 13  1  0  0  0  0
 20 14  1  0  0  0  0
 22 23  1  0  0  0  0
 24  6  1  0  0  0  0
 25 24  2  0  0  0  0
 26 28  1  0  0  0  0
 26 25  1  0  0  0  0
 27 26  1  0  0  0  0
 29 26  1  0  0  0  0
 30 29  1  0  0  0  0
 30 35  1  0  0  0  0
 31 30  2  0  0  0  0
 32 31  1  0  0  0  0
 33 31  1  0  0  0  0
 33 34  2  0  0  0  0
 34 35  1  0  0  0  0
M  END
>  <minimizedAffinity>
-5.51150751

>  <minimizedRMSD>
0.326429099

$$$$
