
 OpenBabel03272504293D

 39 42  0  0  0  0  0  0  0  0999 V2000
   38.0310   25.7370   33.5420 C   0  0  0  0  0  0  0  0  0  0  0  0
   37.9760   26.9810   34.0630 C   0  0  0  0  0  0  0  0  0  0  0  0
   38.9200   27.4220   34.9040 C   0  0  0  0  0  0  0  0  0  0  0  0
   39.9490   26.5940   35.2330 N   0  0  0  0  0  0  0  0  0  0  0  0
   39.9920   25.3730   34.7120 C   0  0  0  0  0  0  0  0  0  0  0  0
   39.0500   24.9240   33.8700 N   0  0  0  0  0  0  0  0  0  0  0  0
   37.1270   27.5860   33.7570 H   0  0  0  0  0  0  0  0  0  0  0  0
   38.8390   28.4290   35.3010 H   0  0  0  0  0  0  0  0  0  0  0  0
   40.9900   23.5740   36.0570 C   0  0  0  0  0  0  0  0  0  0  0  0
   41.1380   24.5900   35.1100 C   0  0  0  0  0  0  0  0  0  0  0  0
   42.3430   24.9270   34.5230 C   0  0  0  0  0  0  0  0  0  0  0  0
   43.4790   24.2330   34.8780 C   0  0  0  0  0  0  0  0  0  0  0  0
   43.4270   23.2170   35.8070 C   0  0  0  0  0  0  0  0  0  0  0  0
   42.2030   22.9560   36.3280 C   0  0  0  0  0  0  0  0  0  0  0  0
   42.4090   25.7210   33.7920 H   0  0  0  0  0  0  0  0  0  0  0  0
   44.4180   24.5040   34.4140 H   0  0  0  0  0  0  0  0  0  0  0  0
   44.2990   22.6580   36.1060 H   0  0  0  0  0  0  0  0  0  0  0  0
   42.1630   22.1440   37.0690 H   0  0  0  0  0  0  0  0  0  0  0  0
   39.5530   23.1230   36.7700 S   0  0  0  0  0  0  0  0  0  0  0  0
   40.1640   22.6300   38.1230 O   0  0  0  0  0  0  0  0  0  0  0  0
   39.0350   21.9270   36.0140 O   0  0  0  0  0  0  0  0  0  0  0  0
   38.2040   23.4440   37.5620 C   0  0  0  0  0  0  0  0  0  0  0  0
   37.0220   22.6730   37.4940 F   0  0  0  0  0  0  0  0  0  0  0  0
   37.4990   24.5610   36.9100 F   0  0  0  0  0  0  0  0  0  0  0  0
   38.2020   24.2520   38.7410 F   0  0  0  0  0  0  0  0  0  0  0  0
   35.3710   25.5290   31.0230 C   0  0  0  0  0  0  0  0  0  0  0  0
   35.1530   24.1400   30.9190 C   0  0  0  0  0  0  0  0  0  0  0  0
   35.9320   23.3210   31.7230 C   0  0  0  0  0  0  0  0  0  0  0  0
   36.8420   23.8800   32.5500 N   0  0  0  0  0  0  0  0  0  0  0  0
   37.0230   25.2320   32.6220 C   0  0  0  0  0  0  0  0  0  0  0  0
   36.2840   26.0410   31.8570 N   0  0  0  0  0  0  0  0  0  0  0  0
   34.7760   26.1850   30.4080 H   0  0  0  0  0  0  0  0  0  0  0  0
   34.4030   23.7850   30.2300 H   0  0  0  0  0  0  0  0  0  0  0  0
   35.7690   21.9100   31.6740 C   0  0  0  0  0  0  0  0  0  0  0  0
   34.8360   21.0510   32.1230 C   0  0  0  0  0  0  0  0  0  0  0  0
   34.0030   21.5080   32.6470 H   0  0  0  0  0  0  0  0  0  0  0  0
   34.9240   19.7190   31.9370 C   0  0  0  0  0  3  0  0  0  0  0  0
   36.0900   19.2790   31.2230 C   0  0  0  0  0  3  0  0  0  0  0  0
   36.9950   20.8940   30.8670 S   0  0  0  0  0  0  0  0  0  0  0  0
  1  6  2  0  0  0  0
  1  2  1  0  0  0  0
  2  3  2  0  0  0  0
  3  4  1  0  0  0  0
  3  8  1  0  0  0  0
  5 10  1  0  0  0  0
  5  4  2  0  0  0  0
  6  5  1  0  0  0  0
  7  2  1  0  0  0  0
  9 14  1  0  0  0  0
  9 19  1  0  0  0  0
 10  9  2  0  0  0  0
 11 12  2  0  0  0  0
 11 10  1  0  0  0  0
 12 13  1  0  0  0  0
 13 17  1  0  0  0  0
 13 14  2  0  0  0  0
 14 18  1  0  0  0  0
 15 11  1  0  0  0  0
 16 12  1  0  0  0  0
 19 22  1  0  0  0  0
 19 20  2  0  0  0  0
 21 19  2  0  0  0  0
 22 25  1  0  0  0  0
 23 22  1  0  0  0  0
 24 22  1  0  0  0  0
 26 31  1  0  0  0  0
 27 26  2  0  0  0  0
 27 28  1  0  0  0  0
 28 29  2  0  0  0  0
 29 30  1  0  0  0  0
 30  1  1  0  0  0  0
 31 30  2  0  0  0  0
 32 26  1  0  0  0  0
 33 27  1  0  0  0  0
 34 28  1  0  0  0  0
 34 35  2  0  0  0  0
 35 36  1  0  0  0  0
 37 35  1  0  0  0  0
 38 37  2  0  0  0  0
 39 38  1  0  0  0  0
 39 34  1  0  0  0  0
M  END
>  <minimizedAffinity>
-6.94576311

$$$$

 OpenBabel03272504293D

 39 42  0  0  0  0  0  0  0  0999 V2000
   36.2610   28.1920   33.1470 C   0  0  0  0  0  0  0  0  0  0  0  0
   35.9810   28.6930   31.9240 C   0  0  0  0  0  0  0  0  0  0  0  0
   35.2800   29.8250   31.7850 C   0  0  0  0  0  0  0  0  0  0  0  0
   34.8480   30.4760   32.8990 N   0  0  0  0  0  0  0  0  0  0  0  0
   35.1310   29.9720   34.0950 C   0  0  0  0  0  0  0  0  0  0  0  0
   35.8310   28.8380   34.2440 N   0  0  0  0  0  0  0  0  0  0  0  0
   36.3580   28.1220   31.0810 H   0  0  0  0  0  0  0  0  0  0  0  0
   35.0770   30.1940   30.7840 H   0  0  0  0  0  0  0  0  0  0  0  0
   33.3260   30.5960   35.6430 C   0  0  0  0  0  0  0  0  0  0  0  0
   34.6440   30.7550   35.2060 C   0  0  0  0  0  0  0  0  0  0  0  0
   35.5380   31.6500   35.7630 C   0  0  0  0  0  0  0  0  0  0  0  0
   35.1270   32.4440   36.8110 C   0  0  0  0  0  0  0  0  0  0  0  0
   33.8440   32.3570   37.3050 C   0  0  0  0  0  0  0  0  0  0  0  0
   33.0380   31.4510   36.6980 C   0  0  0  0  0  0  0  0  0  0  0  0
   36.5500   31.7370   35.3930 H   0  0  0  0  0  0  0  0  0  0  0  0
   35.8330   33.1420   37.2410 H   0  0  0  0  0  0  0  0  0  0  0  0
   33.4930   32.9660   38.1230 H   0  0  0  0  0  0  0  0  0  0  0  0
   32.0140   31.3820   37.0930 H   0  0  0  0  0  0  0  0  0  0  0  0
   32.2270   29.5140   35.0140 S   0  0  0  0  0  0  0  0  0  0  0  0
   30.9480   30.3760   35.2770 O   0  0  0  0  0  0  0  0  0  0  0  0
   32.1980   28.3210   35.9340 O   0  0  0  0  0  0  0  0  0  0  0  0
   31.4480   28.8330   33.7970 C   0  0  0  0  0  0  0  0  0  0  0  0
   30.9820   27.5000   33.7790 F   0  0  0  0  0  0  0  0  0  0  0  0
   32.3990   28.5030   32.7210 F   0  0  0  0  0  0  0  0  0  0  0  0
   30.7560   29.6140   32.8200 F   0  0  0  0  0  0  0  0  0  0  0  0
   38.3190   25.2160   32.5350 C   0  0  0  0  0  0  0  0  0  0  0  0
   38.4440   24.6570   33.8230 C   0  0  0  0  0  0  0  0  0  0  0  0
   37.8120   25.3270   34.8610 C   0  0  0  0  0  0  0  0  0  0  0  0
   37.1220   26.4570   34.5940 N   0  0  0  0  0  0  0  0  0  0  0  0
   37.0240   26.9670   33.3310 C   0  0  0  0  0  0  0  0  0  0  0  0
   37.6250   26.3390   32.3150 N   0  0  0  0  0  0  0  0  0  0  0  0
   38.8010   24.7120   31.7130 H   0  0  0  0  0  0  0  0  0  0  0  0
   39.0150   23.7500   33.9390 H   0  0  0  0  0  0  0  0  0  0  0  0
   37.8920   24.8240   36.1880 C   0  0  0  0  0  0  0  0  0  0  0  0
   37.9750   25.3870   37.4070 C   0  0  0  0  0  0  0  0  0  0  0  0
   37.9850   26.4720   37.4140 H   0  0  0  0  0  0  0  0  0  0  0  0
   38.0400   24.6610   38.5410 C   0  0  0  0  0  3  0  0  0  0  0  0
   38.0150   23.2370   38.3540 C   0  0  0  0  0  3  0  0  0  0  0  0
   37.8940   23.0640   36.4810 S   0  0  0  0  0  0  0  0  0  0  0  0
  1 30  1  0  0  0  0
  1  6  1  0  0  0  0
  2  1  2  0  0  0  0
  3  2  1  0  0  0  0
  3  4  2  0  0  0  0
  4  5  1  0  0  0  0
  5  6  2  0  0  0  0
  5 10  1  0  0  0  0
  7  2  1  0  0  0  0
  8  3  1  0  0  0  0
  9 14  1  0  0  0  0
 10  9  2  0  0  0  0
 10 11  1  0  0  0  0
 11 12  2  0  0  0  0
 12 16  1  0  0  0  0
 12 13  1  0  0  0  0
 13 17  1  0  0  0  0
 14 18  1  0  0  0  0
 14 13  2  0  0  0  0
 15 11  1  0  0  0  0
 19 20  2  0  0  0  0
 19  9  1  0  0  0  0
 19 21  2  0  0  0  0
 22 19  1  0  0  0  0
 23 22  1  0  0  0  0
 24 22  1  0  0  0  0
 25 22  1  0  0  0  0
 26 27  1  0  0  0  0
 27 33  1  0  0  0  0
 27 28  2  0  0  0  0
 28 34  1  0  0  0  0
 29 28  1  0  0  0  0
 30 29  2  0  0  0  0
 31 26  2  0  0  0  0
 31 30  1  0  0  0  0
 32 26  1  0  0  0  0
 34 39  1  0  0  0  0
 34 35  2  0  0  0  0
 35 36  1  0  0  0  0
 35 37  1  0  0  0  0
 38 37  2  0  0  0  0
 39 38  1  0  0  0  0
M  END
>  <minimizedAffinity>
-6.8490777

$$$$

 OpenBabel03272504293D

 39 42  0  0  0  0  0  0  0  0999 V2000
   36.3110   28.4400   33.2610 C   0  0  0  0  0  0  0  0  0  0  0  0
   36.0450   28.9470   32.0380 C   0  0  0  0  0  0  0  0  0  0  0  0
   35.3070   30.0550   31.8950 C   0  0  0  0  0  0  0  0  0  0  0  0
   34.8220   30.6740   33.0050 N   0  0  0  0  0  0  0  0  0  0  0  0
   35.0920   30.1640   34.2020 C   0  0  0  0  0  0  0  0  0  0  0  0
   35.8300   29.0550   34.3550 N   0  0  0  0  0  0  0  0  0  0  0  0
   36.4650   28.4020   31.1970 H   0  0  0  0  0  0  0  0  0  0  0  0
   35.1160   30.4300   30.8940 H   0  0  0  0  0  0  0  0  0  0  0  0
   33.2280   30.6970   35.7130 C   0  0  0  0  0  0  0  0  0  0  0  0
   34.5480   30.9130   35.3100 C   0  0  0  0  0  0  0  0  0  0  0  0
   35.3930   31.8350   35.8990 C   0  0  0  0  0  0  0  0  0  0  0  0
   34.9260   32.5990   36.9460 C   0  0  0  0  0  0  0  0  0  0  0  0
   33.6350   32.4550   37.4080 C   0  0  0  0  0  0  0  0  0  0  0  0
   32.8810   31.5260   36.7700 C   0  0  0  0  0  0  0  0  0  0  0  0
   36.4090   31.9670   35.5550 H   0  0  0  0  0  0  0  0  0  0  0  0
   35.5930   33.3190   37.4010 H   0  0  0  0  0  0  0  0  0  0  0  0
   33.2410   33.0400   38.2230 H   0  0  0  0  0  0  0  0  0  0  0  0
   31.8510   31.4120   37.1400 H   0  0  0  0  0  0  0  0  0  0  0  0
   32.1880   29.5810   35.0440 S   0  0  0  0  0  0  0  0  0  0  0  0
   30.8700   30.3910   35.2800 O   0  0  0  0  0  0  0  0  0  0  0  0
   32.1790   28.3780   35.9520 O   0  0  0  0  0  0  0  0  0  0  0  0
   31.4690   28.8830   33.8010 C   0  0  0  0  0  0  0  0  0  0  0  0
   31.0320   27.5400   33.7670 F   0  0  0  0  0  0  0  0  0  0  0  0
   32.4650   28.5730   32.7600 F   0  0  0  0  0  0  0  0  0  0  0  0
   30.7960   29.6480   32.7990 F   0  0  0  0  0  0  0  0  0  0  0  0
   38.9150   26.0980   34.3590 C   0  0  0  0  0  0  0  0  0  0  0  0
   38.5370   24.8980   33.7220 C   0  0  0  0  0  0  0  0  0  0  0  0
   37.3960   24.9370   32.9340 C   0  0  0  0  0  0  0  0  0  0  0  0
   36.7170   26.0980   32.8160 N   0  0  0  0  0  0  0  0  0  0  0  0
   37.1140   27.2410   33.4490 C   0  0  0  0  0  0  0  0  0  0  0  0
   38.2100   27.2260   34.2140 N   0  0  0  0  0  0  0  0  0  0  0  0
   39.7990   26.0900   34.9760 H   0  0  0  0  0  0  0  0  0  0  0  0
   39.1440   24.0190   33.8750 H   0  0  0  0  0  0  0  0  0  0  0  0
   36.9540   23.7670   32.2600 C   0  0  0  0  0  0  0  0  0  0  0  0
   35.8290   23.4220   31.6080 C   0  0  0  0  0  0  0  0  0  0  0  0
   35.0640   24.1910   31.5700 H   0  0  0  0  0  0  0  0  0  0  0  0
   35.6590   22.2110   31.0400 C   0  0  0  0  0  3  0  0  0  0  0  0
   36.7700   21.3110   31.1820 C   0  0  0  0  0  3  0  0  0  0  0  0
   38.0130   22.3340   32.1620 S   0  0  0  0  0  0  0  0  0  0  0  0
  1 30  1  0  0  0  0
  1  6  1  0  0  0  0
  2  1  2  0  0  0  0
  3  2  1  0  0  0  0
  3  4  2  0  0  0  0
  4  5  1  0  0  0  0
  5  6  2  0  0  0  0
  5 10  1  0  0  0  0
  7  2  1  0  0  0  0
  8  3  1  0  0  0  0
  9 14  1  0  0  0  0
 10  9  2  0  0  0  0
 10 11  1  0  0  0  0
 11 12  2  0  0  0  0
 12 16  1  0  0  0  0
 12 13  1  0  0  0  0
 13 17  1  0  0  0  0
 14 18  1  0  0  0  0
 14 13  2  0  0  0  0
 15 11  1  0  0  0  0
 19 20  2  0  0  0  0
 19  9  1  0  0  0  0
 19 21  2  0  0  0  0
 22 19  1  0  0  0  0
 23 22  1  0  0  0  0
 24 22  1  0  0  0  0
 25 22  1  0  0  0  0
 26 32  1  0  0  0  0
 27 33  1  0  0  0  0
 27 26  2  0  0  0  0
 28 27  1  0  0  0  0
 29 28  2  0  0  0  0
 29 30  1  0  0  0  0
 30 31  2  0  0  0  0
 31 26  1  0  0  0  0
 34 28  1  0  0  0  0
 35 34  2  0  0  0  0
 36 35  1  0  0  0  0
 37 38  2  0  0  0  0
 37 35  1  0  0  0  0
 38 39  1  0  0  0  0
 39 34  1  0  0  0  0
M  END
>  <minimizedAffinity>
-6.53543568

$$$$

 OpenBabel03272504293D

 39 42  0  0  0  0  0  0  0  0999 V2000
   39.5030   25.7490   33.5550 C   0  0  0  0  0  0  0  0  0  0  0  0
   40.3300   26.8150   33.6060 C   0  0  0  0  0  0  0  0  0  0  0  0
   41.4730   26.7710   34.3030 C   0  0  0  0  0  0  0  0  0  0  0  0
   41.7960   25.6280   34.9680 N   0  0  0  0  0  0  0  0  0  0  0  0
   40.9730   24.5880   34.9090 C   0  0  0  0  0  0  0  0  0  0  0  0
   39.8270   24.6240   34.2140 N   0  0  0  0  0  0  0  0  0  0  0  0
   40.0080   27.6920   33.0520 H   0  0  0  0  0  0  0  0  0  0  0  0
   42.1100   27.6490   34.3180 H   0  0  0  0  0  0  0  0  0  0  0  0
   40.6070   22.8480   36.6060 C   0  0  0  0  0  0  0  0  0  0  0  0
   41.4260   23.4220   35.6310 C   0  0  0  0  0  0  0  0  0  0  0  0
   42.6870   22.9560   35.3120 C   0  0  0  0  0  0  0  0  0  0  0  0
   43.1870   21.8610   35.9820 C   0  0  0  0  0  0  0  0  0  0  0  0
   42.4490   21.2320   36.9610 C   0  0  0  0  0  0  0  0  0  0  0  0
   41.2230   21.7590   37.2060 C   0  0  0  0  0  0  0  0  0  0  0  0
   43.2860   23.4320   34.5470 H   0  0  0  0  0  0  0  0  0  0  0  0
   44.1760   21.5040   35.7270 H   0  0  0  0  0  0  0  0  0  0  0  0
   42.8140   20.3750   37.5050 H   0  0  0  0  0  0  0  0  0  0  0  0
   40.6350   21.2560   37.9870 H   0  0  0  0  0  0  0  0  0  0  0  0
   39.0730   23.3660   37.0030 S   0  0  0  0  0  0  0  0  0  0  0  0
   39.1460   23.0070   38.5240 O   0  0  0  0  0  0  0  0  0  0  0  0
   38.0990   22.4300   36.3360 O   0  0  0  0  0  0  0  0  0  0  0  0
   38.0170   24.5020   37.3800 C   0  0  0  0  0  0  0  0  0  0  0  0
   36.7670   24.6870   36.7470 F   0  0  0  0  0  0  0  0  0  0  0  0
   38.4680   25.7980   36.8430 F   0  0  0  0  0  0  0  0  0  0  0  0
   38.0230   25.1350   38.6610 F   0  0  0  0  0  0  0  0  0  0  0  0
   36.5970   24.7300   31.5580 C   0  0  0  0  0  0  0  0  0  0  0  0
   35.8870   25.9380   31.4090 C   0  0  0  0  0  0  0  0  0  0  0  0
   36.4350   27.0660   32.0030 C   0  0  0  0  0  0  0  0  0  0  0  0
   37.5980   26.9550   32.6800 N   0  0  0  0  0  0  0  0  0  0  0  0
   38.2580   25.7650   32.8020 C   0  0  0  0  0  0  0  0  0  0  0  0
   37.7480   24.6660   32.2390 N   0  0  0  0  0  0  0  0  0  0  0  0
   36.1900   23.8410   31.1040 H   0  0  0  0  0  0  0  0  0  0  0  0
   34.9650   25.9300   30.8490 H   0  0  0  0  0  0  0  0  0  0  0  0
   35.7770   28.3210   31.8950 C   0  0  0  0  0  0  0  0  0  0  0  0
   34.7500   28.9070   32.5380 C   0  0  0  0  0  0  0  0  0  0  0  0
   34.2990   28.3100   33.3250 H   0  0  0  0  0  0  0  0  0  0  0  0
   34.3100   30.1430   32.2320 C   0  0  0  0  0  3  0  0  0  0  0  0
   35.0180   30.7940   31.1660 C   0  0  0  0  0  3  0  0  0  0  0  0
   36.3110   29.5120   30.6780 S   0  0  0  0  0  0  0  0  0  0  0  0
  1  2  2  0  0  0  0
  1  6  1  0  0  0  0
  2  3  1  0  0  0  0
  3  8  1  0  0  0  0
  3  4  2  0  0  0  0
  5  4  1  0  0  0  0
  5 10  1  0  0  0  0
  6  5  2  0  0  0  0
  7  2  1  0  0  0  0
  9 19  1  0  0  0  0
  9 14  1  0  0  0  0
 10  9  2  0  0  0  0
 11 10  1  0  0  0  0
 11 12  2  0  0  0  0
 12 13  1  0  0  0  0
 13 14  2  0  0  0  0
 13 17  1  0  0  0  0
 14 18  1  0  0  0  0
 15 11  1  0  0  0  0
 16 12  1  0  0  0  0
 19 22  1  0  0  0  0
 19 20  2  0  0  0  0
 21 19  2  0  0  0  0
 22 25  1  0  0  0  0
 23 22  1  0  0  0  0
 24 22  1  0  0  0  0
 26 31  1  0  0  0  0
 27 26  2  0  0  0  0
 27 28  1  0  0  0  0
 28 29  2  0  0  0  0
 29 30  1  0  0  0  0
 30  1  1  0  0  0  0
 31 30  2  0  0  0  0
 32 26  1  0  0  0  0
 33 27  1  0  0  0  0
 34 28  1  0  0  0  0
 34 35  2  0  0  0  0
 35 36  1  0  0  0  0
 37 35  1  0  0  0  0
 38 37  2  0  0  0  0
 39 38  1  0  0  0  0
 39 34  1  0  0  0  0
M  END
>  <minimizedAffinity>
-6.48983955

$$$$

 OpenBabel03272504293D

 39 42  0  0  0  0  0  0  0  0999 V2000
   37.6270   26.8120   33.1160 C   0  0  0  0  0  0  0  0  0  0  0  0
   38.8600   26.9650   33.6470 C   0  0  0  0  0  0  0  0  0  0  0  0
   39.6500   25.9090   33.8750 C   0  0  0  0  0  0  0  0  0  0  0  0
   39.1960   24.6650   33.5610 N   0  0  0  0  0  0  0  0  0  0  0  0
   37.9830   24.5290   33.0380 C   0  0  0  0  0  0  0  0  0  0  0  0
   37.1840   25.5820   32.8080 N   0  0  0  0  0  0  0  0  0  0  0  0
   39.1550   27.9860   33.8720 H   0  0  0  0  0  0  0  0  0  0  0  0
   40.6340   26.0750   34.3030 H   0  0  0  0  0  0  0  0  0  0  0  0
   37.4760   22.2320   33.7480 C   0  0  0  0  0  0  0  0  0  0  0  0
   37.6130   23.1700   32.7220 C   0  0  0  0  0  0  0  0  0  0  0  0
   37.4380   22.8790   31.3820 C   0  0  0  0  0  0  0  0  0  0  0  0
   37.1080   21.5930   31.0130 C   0  0  0  0  0  0  0  0  0  0  0  0
   36.9540   20.6020   31.9590 C   0  0  0  0  0  0  0  0  0  0  0  0
   37.1450   20.9810   33.2470 C   0  0  0  0  0  0  0  0  0  0  0  0
   37.5530   23.6390   30.6220 H   0  0  0  0  0  0  0  0  0  0  0  0
   36.9730   21.3730   29.9630 H   0  0  0  0  0  0  0  0  0  0  0  0
   36.6990   19.5870   31.7000 H   0  0  0  0  0  0  0  0  0  0  0  0
   37.0220   20.1880   34.0000 H   0  0  0  0  0  0  0  0  0  0  0  0
   37.6570   22.5480   35.3740 S   0  0  0  0  0  0  0  0  0  0  0  0
   39.0960   21.9530   35.5190 O   0  0  0  0  0  0  0  0  0  0  0  0
   36.6930   21.6560   36.1130 O   0  0  0  0  0  0  0  0  0  0  0  0
   37.9950   23.5160   36.5980 C   0  0  0  0  0  0  0  0  0  0  0  0
   37.3340   23.5030   37.8470 F   0  0  0  0  0  0  0  0  0  0  0  0
   37.4490   24.8590   36.3360 F   0  0  0  0  0  0  0  0  0  0  0  0
   39.2670   24.1570   36.7170 F   0  0  0  0  0  0  0  0  0  0  0  0
   35.5260   29.3030   31.4290 C   0  0  0  0  0  0  0  0  0  0  0  0
   35.0750   30.1020   32.5000 C   0  0  0  0  0  0  0  0  0  0  0  0
   35.5130   29.7540   33.7690 C   0  0  0  0  0  0  0  0  0  0  0  0
   36.3320   28.6910   33.9160 N   0  0  0  0  0  0  0  0  0  0  0  0
   36.7470   27.9410   32.8530 C   0  0  0  0  0  0  0  0  0  0  0  0
   36.3380   28.2570   31.6200 N   0  0  0  0  0  0  0  0  0  0  0  0
   35.1990   29.5560   30.4330 H   0  0  0  0  0  0  0  0  0  0  0  0
   34.4220   30.9330   32.2850 H   0  0  0  0  0  0  0  0  0  0  0  0
   35.1010   30.5120   34.8980 C   0  0  0  0  0  0  0  0  0  0  0  0
   35.7260   31.3240   35.7700 C   0  0  0  0  0  0  0  0  0  0  0  0
   36.7910   31.4510   35.5980 H   0  0  0  0  0  0  0  0  0  0  0  0
   35.0840   31.9390   36.7820 C   0  0  0  0  0  3  0  0  0  0  0  0
   33.6770   31.6640   36.8660 C   0  0  0  0  0  3  0  0  0  0  0  0
   33.3920   30.4950   35.4160 S   0  0  0  0  0  0  0  0  0  0  0  0
  1  2  1  0  0  0  0
  2  7  1  0  0  0  0
  2  3  2  0  0  0  0
  3  8  1  0  0  0  0
  4  3  1  0  0  0  0
  5  4  2  0  0  0  0
  6  5  1  0  0  0  0
  6  1  2  0  0  0  0
  9 19  1  0  0  0  0
 10  5  1  0  0  0  0
 10  9  2  0  0  0  0
 11 10  1  0  0  0  0
 12 11  2  0  0  0  0
 12 13  1  0  0  0  0
 13 14  2  0  0  0  0
 14  9  1  0  0  0  0
 14 18  1  0  0  0  0
 15 11  1  0  0  0  0
 16 12  1  0  0  0  0
 17 13  1  0  0  0  0
 19 20  2  0  0  0  0
 19 21  2  0  0  0  0
 19 22  1  0  0  0  0
 22 25  1  0  0  0  0
 22 23  1  0  0  0  0
 24 22  1  0  0  0  0
 26 31  2  0  0  0  0
 26 27  1  0  0  0  0
 27 28  2  0  0  0  0
 28 29  1  0  0  0  0
 28 34  1  0  0  0  0
 30  1  1  0  0  0  0
 30 29  2  0  0  0  0
 31 30  1  0  0  0  0
 32 26  1  0  0  0  0
 33 27  1  0  0  0  0
 34 39  1  0  0  0  0
 34 35  2  0  0  0  0
 35 37  1  0  0  0  0
 36 35  1  0  0  0  0
 37 38  2  0  0  0  0
 39 38  1  0  0  0  0
M  END
>  <minimizedAffinity>
-6.31217003

$$$$

 OpenBabel03272504293D

 39 42  0  0  0  0  0  0  0  0999 V2000
   35.6900   29.1500   32.2300 C   0  0  0  0  0  0  0  0  0  0  0  0
   35.5230   30.0690   31.2550 C   0  0  0  0  0  0  0  0  0  0  0  0
   34.4550   30.8770   31.2420 C   0  0  0  0  0  0  0  0  0  0  0  0
   33.5290   30.7630   32.2330 N   0  0  0  0  0  0  0  0  0  0  0  0
   33.7070   29.8550   33.1860 C   0  0  0  0  0  0  0  0  0  0  0  0
   34.7730   29.0420   33.2060 N   0  0  0  0  0  0  0  0  0  0  0  0
   36.3010   30.1030   30.4980 H   0  0  0  0  0  0  0  0  0  0  0  0
   34.3580   31.6020   30.4400 H   0  0  0  0  0  0  0  0  0  0  0  0
   32.8130   30.6290   35.3410 C   0  0  0  0  0  0  0  0  0  0  0  0
   32.6770   29.8380   34.1980 C   0  0  0  0  0  0  0  0  0  0  0  0
   31.6060   28.9950   33.9660 C   0  0  0  0  0  0  0  0  0  0  0  0
   30.6010   28.9140   34.9060 C   0  0  0  0  0  0  0  0  0  0  0  0
   30.6540   29.6570   36.0650 C   0  0  0  0  0  0  0  0  0  0  0  0
   31.7420   30.4560   36.2050 C   0  0  0  0  0  0  0  0  0  0  0  0
   31.5420   28.4020   33.0650 H   0  0  0  0  0  0  0  0  0  0  0  0
   29.7670   28.2520   34.7170 H   0  0  0  0  0  0  0  0  0  0  0  0
   29.8850   29.6140   36.8190 H   0  0  0  0  0  0  0  0  0  0  0  0
   31.7820   31.0480   37.1310 H   0  0  0  0  0  0  0  0  0  0  0  0
   34.0760   31.6720   35.6460 S   0  0  0  0  0  0  0  0  0  0  0  0
   34.0020   31.6020   37.2070 O   0  0  0  0  0  0  0  0  0  0  0  0
   33.6370   33.0450   35.2070 O   0  0  0  0  0  0  0  0  0  0  0  0
   35.6300   32.0090   35.7920 C   0  0  0  0  0  0  0  0  0  0  0  0
   36.1580   33.2840   36.0930 F   0  0  0  0  0  0  0  0  0  0  0  0
   36.2510   32.0810   34.4570 F   0  0  0  0  0  0  0  0  0  0  0  0
   36.5920   30.9930   36.0820 F   0  0  0  0  0  0  0  0  0  0  0  0
   38.8310   27.4350   31.4140 C   0  0  0  0  0  0  0  0  0  0  0  0
   38.9750   26.5300   32.4850 C   0  0  0  0  0  0  0  0  0  0  0  0
   37.9810   26.5410   33.4540 C   0  0  0  0  0  0  0  0  0  0  0  0
   36.9470   27.3990   33.3280 N   0  0  0  0  0  0  0  0  0  0  0  0
   36.8420   28.2620   32.2740 C   0  0  0  0  0  0  0  0  0  0  0  0
   37.7870   28.2690   31.3290 N   0  0  0  0  0  0  0  0  0  0  0  0
   39.5900   27.4430   30.6490 H   0  0  0  0  0  0  0  0  0  0  0  0
   39.8360   25.8810   32.5010 H   0  0  0  0  0  0  0  0  0  0  0  0
   38.0570   25.6570   34.5640 C   0  0  0  0  0  0  0  0  0  0  0  0
   37.9620   25.8050   35.8980 C   0  0  0  0  0  0  0  0  0  0  0  0
   37.7870   26.8210   36.2370 H   0  0  0  0  0  0  0  0  0  0  0  0
   38.0730   24.7710   36.7550 C   0  0  0  0  0  3  0  0  0  0  0  0
   38.3030   23.4940   36.1410 C   0  0  0  0  0  3  0  0  0  0  0  0
   38.3380   23.9140   34.3040 S   0  0  0  0  0  0  0  0  0  0  0  0
  1 30  1  0  0  0  0
  1  6  1  0  0  0  0
  2  1  2  0  0  0  0
  3  2  1  0  0  0  0
  3  4  2  0  0  0  0
  4  5  1  0  0  0  0
  5  6  2  0  0  0  0
  5 10  1  0  0  0  0
  7  2  1  0  0  0  0
  8  3  1  0  0  0  0
  9 19  1  0  0  0  0
  9 14  1  0  0  0  0
 10  9  2  0  0  0  0
 11 10  1  0  0  0  0
 11 12  2  0  0  0  0
 12 13  1  0  0  0  0
 13 14  2  0  0  0  0
 13 17  1  0  0  0  0
 14 18  1  0  0  0  0
 15 11  1  0  0  0  0
 16 12  1  0  0  0  0
 19 22  1  0  0  0  0
 19 20  2  0  0  0  0
 21 19  2  0  0  0  0
 22 25  1  0  0  0  0
 22 23  1  0  0  0  0
 24 22  1  0  0  0  0
 26 27  1  0  0  0  0
 27 33  1  0  0  0  0
 27 28  2  0  0  0  0
 28 34  1  0  0  0  0
 29 28  1  0  0  0  0
 30 29  2  0  0  0  0
 31 26  2  0  0  0  0
 31 30  1  0  0  0  0
 32 26  1  0  0  0  0
 34 35  2  0  0  0  0
 35 36  1  0  0  0  0
 35 37  1  0  0  0  0
 38 37  2  0  0  0  0
 39 34  1  0  0  0  0
 39 38  1  0  0  0  0
M  END
>  <minimizedAffinity>
-6.25610304

$$$$

 OpenBabel03272504293D

 39 42  0  0  0  0  0  0  0  0999 V2000
   35.9080   28.6130   32.5330 C   0  0  0  0  0  0  0  0  0  0  0  0
   35.5940   29.3020   31.4150 C   0  0  0  0  0  0  0  0  0  0  0  0
   34.9480   30.4730   31.4840 C   0  0  0  0  0  0  0  0  0  0  0  0
   34.6060   30.9680   32.7040 N   0  0  0  0  0  0  0  0  0  0  0  0
   34.9210   30.2790   33.7960 C   0  0  0  0  0  0  0  0  0  0  0  0
   35.5680   29.1060   33.7360 N   0  0  0  0  0  0  0  0  0  0  0  0
   35.8980   28.8480   30.4770 H   0  0  0  0  0  0  0  0  0  0  0  0
   34.7140   30.9960   30.5620 H   0  0  0  0  0  0  0  0  0  0  0  0
   33.2860   30.6230   35.5980 C   0  0  0  0  0  0  0  0  0  0  0  0
   34.5320   30.9080   35.0360 C   0  0  0  0  0  0  0  0  0  0  0  0
   35.4410   31.7930   35.5850 C   0  0  0  0  0  0  0  0  0  0  0  0
   35.1190   32.4440   36.7560 C   0  0  0  0  0  0  0  0  0  0  0  0
   33.9090   32.2250   37.3790 C   0  0  0  0  0  0  0  0  0  0  0  0
   33.0830   31.3410   36.7680 C   0  0  0  0  0  0  0  0  0  0  0  0
   36.3960   31.9810   35.1150 H   0  0  0  0  0  0  0  0  0  0  0  0
   35.8360   33.1350   37.1780 H   0  0  0  0  0  0  0  0  0  0  0  0
   33.6290   32.7210   38.2940 H   0  0  0  0  0  0  0  0  0  0  0  0
   32.1180   31.1670   37.2660 H   0  0  0  0  0  0  0  0  0  0  0  0
   32.1730   29.5470   34.9790 S   0  0  0  0  0  0  0  0  0  0  0  0
   30.9080   30.4400   35.2020 O   0  0  0  0  0  0  0  0  0  0  0  0
   32.1080   28.3770   35.9270 O   0  0  0  0  0  0  0  0  0  0  0  0
   31.3990   28.8520   33.7680 C   0  0  0  0  0  0  0  0  0  0  0  0
   31.0020   27.4960   33.7320 F   0  0  0  0  0  0  0  0  0  0  0  0
   32.3370   28.5950   32.6610 F   0  0  0  0  0  0  0  0  0  0  0  0
   30.6420   29.6150   32.8270 F   0  0  0  0  0  0  0  0  0  0  0  0
   36.7570   25.0890   31.9580 C   0  0  0  0  0  0  0  0  0  0  0  0
   38.0680   25.0010   32.4700 C   0  0  0  0  0  0  0  0  0  0  0  0
   38.6150   26.1620   32.9980 C   0  0  0  0  0  0  0  0  0  0  0  0
   37.8820   27.2960   32.9970 N   0  0  0  0  0  0  0  0  0  0  0  0
   36.6140   27.3410   32.4910 C   0  0  0  0  0  0  0  0  0  0  0  0
   36.0670   26.2350   31.9780 N   0  0  0  0  0  0  0  0  0  0  0  0
   36.3120   24.1990   31.5440 H   0  0  0  0  0  0  0  0  0  0  0  0
   38.5760   24.0500   32.4280 H   0  0  0  0  0  0  0  0  0  0  0  0
   39.9320   26.1510   33.5330 C   0  0  0  0  0  0  0  0  0  0  0  0
   40.5480   25.4620   34.5110 C   0  0  0  0  0  0  0  0  0  0  0  0
   39.9240   24.7420   35.0300 H   0  0  0  0  0  0  0  0  0  0  0  0
   41.8440   25.6480   34.8260 C   0  0  0  0  0  3  0  0  0  0  0  0
   42.5260   26.6390   34.0410 C   0  0  0  0  0  3  0  0  0  0  0  0
   41.1790   27.2400   32.8660 S   0  0  0  0  0  0  0  0  0  0  0  0
  1  6  1  0  0  0  0
  2  3  1  0  0  0  0
  2  1  2  0  0  0  0
  3  4  2  0  0  0  0
  4  5  1  0  0  0  0
  5 10  1  0  0  0  0
  6  5  2  0  0  0  0
  7  2  1  0  0  0  0
  8  3  1  0  0  0  0
  9 14  1  0  0  0  0
 10 11  1  0  0  0  0
 10  9  2  0  0  0  0
 11 12  2  0  0  0  0
 12 16  1  0  0  0  0
 12 13  1  0  0  0  0
 13 17  1  0  0  0  0
 14 18  1  0  0  0  0
 14 13  2  0  0  0  0
 15 11  1  0  0  0  0
 19 20  2  0  0  0  0
 19  9  1  0  0  0  0
 19 21  2  0  0  0  0
 22 19  1  0  0  0  0
 23 22  1  0  0  0  0
 24 22  1  0  0  0  0
 25 22  1  0  0  0  0
 26 31  2  0  0  0  0
 26 27  1  0  0  0  0
 27 28  2  0  0  0  0
 28 34  1  0  0  0  0
 29 28  1  0  0  0  0
 30  1  1  0  0  0  0
 30 29  2  0  0  0  0
 31 30  1  0  0  0  0
 32 26  1  0  0  0  0
 33 27  1  0  0  0  0
 34 35  2  0  0  0  0
 35 37  1  0  0  0  0
 35 36  1  0  0  0  0
 38 37  2  0  0  0  0
 39 34  1  0  0  0  0
 39 38  1  0  0  0  0
M  END
>  <minimizedAffinity>
-6.18664932

$$$$

 OpenBabel03272504293D

 39 42  0  0  0  0  0  0  0  0999 V2000
   37.1430   25.8940   33.0430 C   0  0  0  0  0  0  0  0  0  0  0  0
   36.9760   24.8830   32.1640 C   0  0  0  0  0  0  0  0  0  0  0  0
   37.2750   23.6210   32.4970 C   0  0  0  0  0  0  0  0  0  0  0  0
   37.7530   23.3620   33.7440 N   0  0  0  0  0  0  0  0  0  0  0  0
   37.9110   24.3670   34.6000 C   0  0  0  0  0  0  0  0  0  0  0  0
   37.6150   25.6340   34.2740 N   0  0  0  0  0  0  0  0  0  0  0  0
   36.5910   25.1620   31.1880 H   0  0  0  0  0  0  0  0  0  0  0  0
   37.1270   22.8370   31.7600 H   0  0  0  0  0  0  0  0  0  0  0  0
   39.7270   23.5640   36.0470 C   0  0  0  0  0  0  0  0  0  0  0  0
   38.4010   23.9760   35.9000 C   0  0  0  0  0  0  0  0  0  0  0  0
   37.4870   24.0190   36.9370 C   0  0  0  0  0  0  0  0  0  0  0  0
   37.8860   23.6350   38.1990 C   0  0  0  0  0  0  0  0  0  0  0  0
   39.1760   23.2120   38.4350 C   0  0  0  0  0  0  0  0  0  0  0  0
   40.0010   23.2040   37.3590 C   0  0  0  0  0  0  0  0  0  0  0  0
   36.4700   24.3480   36.7760 H   0  0  0  0  0  0  0  0  0  0  0  0
   37.1650   23.6710   39.0040 H   0  0  0  0  0  0  0  0  0  0  0  0
   39.5170   22.9040   39.4110 H   0  0  0  0  0  0  0  0  0  0  0  0
   41.0310   22.8660   37.5500 H   0  0  0  0  0  0  0  0  0  0  0  0
   40.8630   23.5200   34.8290 S   0  0  0  0  0  0  0  0  0  0  0  0
   40.8320   21.9720   34.6030 O   0  0  0  0  0  0  0  0  0  0  0  0
   42.1900   23.8880   35.4420 O   0  0  0  0  0  0  0  0  0  0  0  0
   41.3100   23.6770   33.3040 C   0  0  0  0  0  0  0  0  0  0  0  0
   42.5500   24.2000   32.8730 F   0  0  0  0  0  0  0  0  0  0  0  0
   40.6260   24.8350   32.7030 F   0  0  0  0  0  0  0  0  0  0  0  0
   40.7110   22.9000   32.2650 F   0  0  0  0  0  0  0  0  0  0  0  0
   36.7000   29.0550   31.2330 C   0  0  0  0  0  0  0  0  0  0  0  0
   36.1650   29.9050   32.2230 C   0  0  0  0  0  0  0  0  0  0  0  0
   35.9760   29.3580   33.4840 C   0  0  0  0  0  0  0  0  0  0  0  0
   36.3060   28.0660   33.6990 N   0  0  0  0  0  0  0  0  0  0  0  0
   36.8220   27.2740   32.7130 C   0  0  0  0  0  0  0  0  0  0  0  0
   37.0130   27.7800   31.4900 N   0  0  0  0  0  0  0  0  0  0  0  0
   36.8560   29.4600   30.2460 H   0  0  0  0  0  0  0  0  0  0  0  0
   35.9320   30.9240   31.9580 H   0  0  0  0  0  0  0  0  0  0  0  0
   35.4410   30.1520   34.5330 C   0  0  0  0  0  0  0  0  0  0  0  0
   35.9710   30.9540   35.4750 C   0  0  0  0  0  0  0  0  0  0  0  0
   37.0540   31.0330   35.4560 H   0  0  0  0  0  0  0  0  0  0  0  0
   35.2190   31.6130   36.3780 C   0  0  0  0  0  3  0  0  0  0  0  0
   33.8040   31.3980   36.2630 C   0  0  0  0  0  3  0  0  0  0  0  0
   33.6770   30.2160   34.8010 S   0  0  0  0  0  0  0  0  0  0  0  0
  1  6  1  0  0  0  0
  2  3  1  0  0  0  0
  2  1  2  0  0  0  0
  3  4  2  0  0  0  0
  4  5  1  0  0  0  0
  5 10  1  0  0  0  0
  6  5  2  0  0  0  0
  7  2  1  0  0  0  0
  8  3  1  0  0  0  0
  9 14  1  0  0  0  0
 10  9  2  0  0  0  0
 10 11  1  0  0  0  0
 11 12  2  0  0  0  0
 12 13  1  0  0  0  0
 12 16  1  0  0  0  0
 13 17  1  0  0  0  0
 14 18  1  0  0  0  0
 14 13  2  0  0  0  0
 15 11  1  0  0  0  0
 19 21  2  0  0  0  0
 19  9  1  0  0  0  0
 20 19  2  0  0  0  0
 22 19  1  0  0  0  0
 23 22  1  0  0  0  0
 24 22  1  0  0  0  0
 25 22  1  0  0  0  0
 26 31  2  0  0  0  0
 26 27  1  0  0  0  0
 27 28  2  0  0  0  0
 28 29  1  0  0  0  0
 28 34  1  0  0  0  0
 30  1  1  0  0  0  0
 30 29  2  0  0  0  0
 31 30  1  0  0  0  0
 32 26  1  0  0  0  0
 33 27  1  0  0  0  0
 34 39  1  0  0  0  0
 34 35  2  0  0  0  0
 35 37  1  0  0  0  0
 36 35  1  0  0  0  0
 38 37  2  0  0  0  0
 39 38  1  0  0  0  0
M  END
>  <minimizedAffinity>
-6.06384182

$$$$

 OpenBabel03272504293D

 39 42  0  0  0  0  0  0  0  0999 V2000
   37.0100   27.8340   31.5860 C   0  0  0  0  0  0  0  0  0  0  0  0
   38.1740   28.0380   30.9310 C   0  0  0  0  0  0  0  0  0  0  0  0
   39.0980   27.0740   30.8470 C   0  0  0  0  0  0  0  0  0  0  0  0
   38.8520   25.8700   31.4340 N   0  0  0  0  0  0  0  0  0  0  0  0
   37.7040   25.6830   32.0740 C   0  0  0  0  0  0  0  0  0  0  0  0
   36.7720   26.6440   32.1630 N   0  0  0  0  0  0  0  0  0  0  0  0
   38.3010   29.0210   30.4880 H   0  0  0  0  0  0  0  0  0  0  0  0
   40.0200   27.2780   30.3120 H   0  0  0  0  0  0  0  0  0  0  0  0
   38.0510   24.0820   33.9050 C   0  0  0  0  0  0  0  0  0  0  0  0
   37.5380   24.3640   32.6370 C   0  0  0  0  0  0  0  0  0  0  0  0
   36.8830   23.4390   31.8470 C   0  0  0  0  0  0  0  0  0  0  0  0
   36.7140   22.1550   32.3170 C   0  0  0  0  0  0  0  0  0  0  0  0
   37.1900   21.7860   33.5570 C   0  0  0  0  0  0  0  0  0  0  0  0
   37.8180   22.7610   34.2610 C   0  0  0  0  0  0  0  0  0  0  0  0
   36.5010   23.7030   30.8710 H   0  0  0  0  0  0  0  0  0  0  0  0
   36.2010   21.4370   31.6920 H   0  0  0  0  0  0  0  0  0  0  0  0
   37.0750   20.7900   33.9510 H   0  0  0  0  0  0  0  0  0  0  0  0
   38.1970   22.4650   35.2510 H   0  0  0  0  0  0  0  0  0  0  0  0
   38.8260   25.1740   34.8970 S   0  0  0  0  0  0  0  0  0  0  0  0
   40.2840   24.6920   34.5990 O   0  0  0  0  0  0  0  0  0  0  0  0
   38.4820   24.8100   36.3180 O   0  0  0  0  0  0  0  0  0  0  0  0
   39.4290   26.6180   35.2120 C   0  0  0  0  0  0  0  0  0  0  0  0
   39.0700   27.4220   36.3180 F   0  0  0  0  0  0  0  0  0  0  0  0
   38.8300   27.6160   34.3090 F   0  0  0  0  0  0  0  0  0  0  0  0
   40.6900   27.0350   34.6850 F   0  0  0  0  0  0  0  0  0  0  0  0
   34.9830   30.8380   31.0100 C   0  0  0  0  0  0  0  0  0  0  0  0
   33.9810   30.7270   31.9950 C   0  0  0  0  0  0  0  0  0  0  0  0
   34.0380   29.6170   32.8260 C   0  0  0  0  0  0  0  0  0  0  0  0
   35.0300   28.7170   32.6570 N   0  0  0  0  0  0  0  0  0  0  0  0
   35.9850   28.8610   31.6900 C   0  0  0  0  0  0  0  0  0  0  0  0
   35.9490   29.9210   30.8780 N   0  0  0  0  0  0  0  0  0  0  0  0
   34.9580   31.6930   30.3530 H   0  0  0  0  0  0  0  0  0  0  0  0
   33.2280   31.4970   32.0550 H   0  0  0  0  0  0  0  0  0  0  0  0
   33.0620   29.4370   33.8430 C   0  0  0  0  0  0  0  0  0  0  0  0
   33.0370   29.6360   35.1730 C   0  0  0  0  0  0  0  0  0  0  0  0
   33.9570   30.0240   35.5990 H   0  0  0  0  0  0  0  0  0  0  0  0
   31.9510   29.3770   35.9280 C   0  0  0  0  0  3  0  0  0  0  0  0
   30.8160   28.8690   35.2070 C   0  0  0  0  0  3  0  0  0  0  0  0
   31.4430   28.8090   33.4310 S   0  0  0  0  0  0  0  0  0  0  0  0
  1 30  1  0  0  0  0
  1  6  1  0  0  0  0
  2  1  2  0  0  0  0
  3  2  1  0  0  0  0
  3  4  2  0  0  0  0
  4  5  1  0  0  0  0
  5  6  2  0  0  0  0
  5 10  1  0  0  0  0
  7  2  1  0  0  0  0
  8  3  1  0  0  0  0
  9 14  1  0  0  0  0
  9 19  1  0  0  0  0
 10  9  2  0  0  0  0
 11 12  2  0  0  0  0
 11 10  1  0  0  0  0
 12 13  1  0  0  0  0
 13 17  1  0  0  0  0
 13 14  2  0  0  0  0
 14 18  1  0  0  0  0
 15 11  1  0  0  0  0
 16 12  1  0  0  0  0
 19 22  1  0  0  0  0
 19 21  2  0  0  0  0
 20 19  2  0  0  0  0
 22 23  1  0  0  0  0
 24 22  1  0  0  0  0
 25 22  1  0  0  0  0
 26 27  1  0  0  0  0
 27 33  1  0  0  0  0
 27 28  2  0  0  0  0
 28 34  1  0  0  0  0
 29 28  1  0  0  0  0
 30 29  2  0  0  0  0
 31 26  2  0  0  0  0
 31 30  1  0  0  0  0
 32 26  1  0  0  0  0
 34 35  2  0  0  0  0
 35 36  1  0  0  0  0
 35 37  1  0  0  0  0
 38 37  2  0  0  0  0
 39 34  1  0  0  0  0
 39 38  1  0  0  0  0
M  END
>  <minimizedAffinity>
-6.00285387

$$$$
