REMARK  Name = 
REMARK  5 active torsions:
REMARK  status: ('A' for Active; 'I' for Inactive)
REMARK    1  A    between atoms: C_1  and  C_5
REMARK    2  A    between atoms: C_2  and  C_9
REMARK    3  A    between atoms: C_9  and  S_10
REMARK    4  A    between atoms: C_9  and  C_21
REMARK    5  A    between atoms: S_10  and  C_11
REMARK                            x       y       z     vdW  Elec       q    Type
REMARK                         _______ _______ _______ _____ _____    ______ ____
ROOT
ATOM      1  C   UNL     1      37.377  32.462  49.846  0.00  0.00    +0.000 C 
ATOM      2  H   UNL     1      38.110  32.293  50.721  0.00  0.00    +0.000 HD
ENDROOT
BRANCH   1   3
ATOM      3  C   UNL     1      36.629  33.630  50.142  0.00  0.00    +0.000 A 
ATOM      4  C   UNL     1      35.741  34.217  51.074  0.00  0.00    +0.000 A 
ATOM      5  H   UNL     1      35.545  33.512  51.851  0.00  0.00    +0.000 HD
ATOM      6  C   UNL     1      35.309  35.500  50.851  0.00  0.00    +0.000 A 
ATOM      7  C   UNL     1      35.793  36.151  49.687  0.00  0.00    +0.000 A 
ATOM      8  S   UNL     1      36.855  34.911  48.932  0.00  0.00    +0.000 S 
ENDBRANCH   1   3
BRANCH   1  10
ATOM      9  C   UNL     1      38.225  31.590  47.791  0.00  0.00    +0.000 C 
ATOM     10  C   UNL     1      38.212  32.596  48.609  0.00  0.00    +0.000 C 
BRANCH   9  13
ATOM     11  C   UNL     1      40.563  32.749  45.122  0.00  0.00    +0.000 A 
ATOM     12  C   UNL     1      39.779  32.700  46.279  0.00  0.00    +0.000 A 
ATOM     13  C   UNL     1      39.006  31.588  46.588  0.00  0.00    +0.000 A 
ATOM     14  N   UNL     1      39.052  30.567  45.718  0.00  0.00    +0.000 NA
ATOM     15  C   UNL     1      39.797  30.605  44.613  0.00  0.00    +0.000 A 
ATOM     16  N   UNL     1      40.551  31.676  44.300  0.00  0.00    +0.000 NA
ATOM     17  H   UNL     1      41.162  33.613  44.895  0.00  0.00    +0.000 HD
ATOM     18  H   UNL     1      39.845  33.584  46.889  0.00  0.00    +0.000 HD
ATOM     19  H   UNL     1      39.759  29.748  43.973  0.00  0.00    +0.000 HD
ENDBRANCH   9  13
ENDBRANCH   1  10
BRANCH   1  20
ATOM     20  S   UNL     1      36.376  30.969  49.694  0.00  0.00    +0.000 S 
BRANCH  20  21
ATOM     21  C   UNL     1      36.726  29.813  51.019  0.00  0.00    +0.000 C 
ATOM     22  F   UNL     1      37.544  30.360  52.000  0.00  0.00    +0.000 F 
ATOM     23  F   UNL     1      35.583  29.242  51.543  0.00  0.00    +0.000 F 
ATOM     24  F   UNL     1      37.442  28.735  50.441  0.00  0.00    +0.000 F 
ENDBRANCH  20  21
ENDBRANCH   1  20
TORSDOF 5
