REMARK  Name = 
REMARK  2 active torsions:
REMARK  status: ('A' for Active; 'I' for Inactive)
REMARK    1  A    between atoms: C_5  and  C_7
REMARK    2  A    between atoms: C_12  and  C_20
REMARK                            x       y       z     vdW  Elec       q    Type
REMARK                         _______ _______ _______ _____ _____    ______ ____
ROOT
ATOM      1  C   UNL     1      36.105  30.132  48.603  0.00  0.00    +0.000 A 
ATOM      2  C   UNL     1      35.285  29.951  47.510  0.00  0.00    +0.000 A 
ATOM      3  C   UNL     1      34.298  28.985  47.514  0.00  0.00    +0.000 A 
ATOM      4  C   UNL     1      34.148  28.203  48.634  0.00  0.00    +0.000 A 
ATOM      5  C   UNL     1      34.954  28.363  49.741  0.00  0.00    +0.000 A 
ATOM      6  C   UNL     1      35.938  29.333  49.725  0.00  0.00    +0.000 A 
ATOM      7  H   UNL     1      35.402  30.574  46.611  0.00  0.00    +0.000 HD
ATOM      8  H   UNL     1      33.654  28.841  46.654  0.00  0.00    +0.000 HD
ATOM      9  H   UNL     1      33.395  27.423  48.718  0.00  0.00    +0.000 HD
ATOM     10  H   UNL     1      34.905  27.789  50.666  0.00  0.00    +0.000 HD
ENDROOT
BRANCH   1  15
ATOM     11  C   UNL     1      38.005  33.101  49.476  0.00  0.00    +0.000 A 
ATOM     12  C   UNL     1      38.966  33.215  48.472  0.00  0.00    +0.000 A 
ATOM     13  C   UNL     1      38.946  32.228  47.469  0.00  0.00    +0.000 A 
ATOM     14  N   UNL     1      38.017  31.241  47.527  0.00  0.00    +0.000 NA
ATOM     15  C   UNL     1      37.112  31.171  48.511  0.00  0.00    +0.000 A 
ATOM     16  N   UNL     1      37.111  32.113  49.492  0.00  0.00    +0.000 NA
ATOM     17  H   UNL     1      38.017  33.870  50.261  0.00  0.00    +0.000 HD
ATOM     18  H   UNL     1      39.676  34.042  48.504  0.00  0.00    +0.000 HD
ATOM     19  H   UNL     1      39.691  32.320  46.696  0.00  0.00    +0.000 HD
ENDBRANCH   1  15
BRANCH   6  20
ATOM     20  C   UNL     1      36.831  29.550  50.877  0.00  0.00    +0.000 A 
ATOM     21  C   UNL     1      36.361  29.972  52.161  0.00  0.00    +0.000 A 
ATOM     22  H   UNL     1      35.313  30.151  52.334  0.00  0.00    +0.000 HD
ATOM     23  C   UNL     1      37.291  30.138  53.150  0.00  0.00    +0.000 A 
ATOM     24  C   UNL     1      38.658  29.886  52.855  0.00  0.00    +0.000 A 
ATOM     25  S   UNL     1      38.670  29.389  51.111  0.00  0.00    +0.000 S 
ENDBRANCH   6  20
TORSDOF 2
