
 OpenBabel03262523493D

 18 19  0  0  0  0  0  0  0  0999 V2000
   39.1360   32.2070   46.9430 C   0  0  0  0  0  0  0  0  0  0  0  0
   39.9590   33.1150   46.2830 C   0  0  0  0  0  0  0  0  0  0  0  0
   40.6420   32.7080   45.1320 C   0  0  0  0  0  0  0  0  0  0  0  0
   40.4540   31.4070   44.7180 N   0  0  0  0  0  0  0  0  0  0  0  0
   39.6530   30.5660   45.3820 C   0  0  0  0  0  0  0  0  0  0  0  0
   38.9970   30.9470   46.4830 N   0  0  0  0  0  0  0  0  0  0  0  0
   40.0740   34.1180   46.6430 H   0  0  0  0  0  0  0  0  0  0  0  0
   41.2780   33.4210   44.6270 H   0  0  0  0  0  0  0  0  0  0  0  0
   39.5750   29.5700   44.9760 H   0  0  0  0  0  0  0  0  0  0  0  0
   38.4250   32.6790   48.1640 C   0  0  0  0  0  0  0  0  0  0  0  0
   37.5850   33.3310   47.8530 H   0  0  0  0  0  0  0  0  0  0  0  0
   39.0850   33.2010   48.8540 H   0  0  0  0  0  0  0  0  0  0  0  0
   37.8090   31.4940   48.7940 C   0  0  0  0  0  0  0  0  0  0  0  0
   38.2650   30.7790   49.9460 C   0  0  0  0  0  0  0  0  0  0  0  0
   39.1660   31.1350   50.4250 H   0  0  0  0  0  0  0  0  0  0  0  0
   37.4910   29.7070   50.3150 C   0  0  0  0  0  0  0  0  0  0  0  0
   36.3850   29.4030   49.5930 C   0  0  0  0  0  0  0  0  0  0  0  0
   36.3260   30.6530   48.2660 S   0  0  0  0  0  0  0  0  0  0  0  0
  1 10  1  0  0  0  0
  2  7  1  0  0  0  0
  2  1  2  0  0  0  0
  3  2  1  0  0  0  0
  4  3  2  0  0  0  0
  4  5  1  0  0  0  0
  5  6  2  0  0  0  0
  6  1  1  0  0  0  0
  8  3  1  0  0  0  0
  9  5  1  0  0  0  0
 10 13  1  0  0  0  0
 10 12  1  0  0  0  0
 11 10  1  0  0  0  0
 13 14  2  0  0  0  0
 14 16  1  0  0  0  0
 14 15  1  0  0  0  0
 17 16  2  0  0  0  0
 18 13  1  0  0  0  0
 18 17  1  0  0  0  0
M  END
>  <minimizedAffinity>
-4.60782385

>  <minimizedRMSD>
4.53702831

$$$$
