
 OpenBabel03272509463D

 22 23  0  0  0  0  0  0  0  0999 V2000
   33.8340   28.6580   48.7740 C   0  0  0  0  0  0  0  0  0  0  0  0
   33.1560   29.3920   49.2480 H   0  0  0  0  0  0  0  0  0  0  0  0
   34.3850   29.1970   47.9760 H   0  0  0  0  0  0  0  0  0  0  0  0
   33.0870   27.4620   48.2340 C   0  0  0  0  0  0  0  0  0  0  0  0
   33.3750   26.6140   48.9200 H   0  0  0  0  0  0  0  0  0  0  0  0
   33.3930   27.1760   47.2310 H   0  0  0  0  0  0  0  0  0  0  0  0
   31.6290   27.7400   48.3310 C   0  0  0  0  0  0  0  0  0  0  0  0
   30.7220   27.6380   49.3340 C   0  0  0  0  0  0  0  0  0  0  0  0
   31.1420   27.2750   50.2800 H   0  0  0  0  0  0  0  0  0  0  0  0
   29.4290   27.9680   49.1380 C   0  0  0  0  0  3  0  0  0  0  0  0
   29.0910   28.4050   47.8800 C   0  0  0  0  0  3  0  0  0  0  0  0
   30.7380   28.3300   46.9450 S   0  0  0  0  0  0  0  0  0  0  0  0
   34.7120   28.2390   49.8160 O   0  0  0  0  0  0  0  0  0  0  0  0
   37.3190   30.2320   51.3720 C   0  0  0  0  0  0  0  0  0  0  0  0
   38.0080   30.6660   50.2430 C   0  0  0  0  0  0  0  0  0  0  0  0
   37.5490   30.2550   48.9960 C   0  0  0  0  0  0  0  0  0  0  0  0
   36.4400   29.4460   48.9780 N   0  0  0  0  0  0  0  0  0  0  0  0
   35.7990   29.0480   50.0970 C   0  0  0  0  0  0  0  0  0  0  0  0
   36.2560   29.4530   51.2890 N   0  0  0  0  0  0  0  0  0  0  0  0
   37.6940   30.5660   52.3450 H   0  0  0  0  0  0  0  0  0  0  0  0
   38.8810   31.3020   50.2500 H   0  0  0  0  0  0  0  0  0  0  0  0
   38.0330   30.5510   48.0780 H   0  0  0  0  0  0  0  0  0  0  0  0
  1  2  1  0  0  0  0
  1 13  1  0  0  0  0
  3  1  1  0  0  0  0
  4  7  1  0  0  0  0
  4  1  1  0  0  0  0
  4  5  1  0  0  0  0
  6  4  1  0  0  0  0
  7  8  2  0  0  0  0
  8  9  1  0  0  0  0
 10  8  1  0  0  0  0
 11 10  2  0  0  0  0
 12 11  1  0  0  0  0
 12  7  1  0  0  0  0
 13 18  1  0  0  0  0
 14 20  1  0  0  0  0
 15 21  1  0  0  0  0
 15 14  2  0  0  0  0
 16 15  1  0  0  0  0
 17 16  2  0  0  0  0
 17 18  1  0  0  0  0
 18 19  2  0  0  0  0
 19 14  1  0  0  0  0
 22 16  1  0  0  0  0
M  END
>  <minimizedAffinity>
-4.24201059

>  <minimizedRMSD>
2.57009363

$$$$
