
 OpenBabel03272501563D

 28 30  0  0  0  0  0  0  0  0999 V2000
   34.4080   28.2610   47.9950 C   0  0  0  0  0  0  0  0  0  0  0  0
   34.8630   27.4090   47.4600 H   0  0  0  0  0  0  0  0  0  0  0  0
   34.7300   29.2330   47.5760 H   0  0  0  0  0  0  0  0  0  0  0  0
   32.9070   28.1800   47.8340 C   0  0  0  0  0  0  0  0  0  0  0  0
   32.0670   27.2680   48.4550 C   0  0  0  0  0  0  0  0  0  0  0  0
   30.7610   27.5180   48.0520 C   0  0  0  0  0  0  0  0  0  0  0  0
   30.8550   28.5660   47.2080 N   0  0  0  0  0  0  0  0  0  0  0  0
   32.1100   28.9620   47.0740 N   0  0  0  0  0  0  0  0  0  0  0  0
   32.4230   26.5010   49.1370 H   0  0  0  0  0  0  0  0  0  0  0  0
   29.8740   26.9850   48.3550 H   0  0  0  0  0  0  0  0  0  0  0  0
   29.7750   29.1600   46.5570 C   0  0  0  0  0  0  0  0  0  0  0  0
   29.6880   29.7100   45.3290 C   0  0  0  0  0  0  0  0  0  0  0  0
   30.5580   29.7280   44.6880 H   0  0  0  0  0  0  0  0  0  0  0  0
   28.5020   30.2460   44.8930 C   0  0  0  0  0  0  0  0  0  0  0  0
   27.4160   30.1760   45.8060 C   0  0  0  0  0  0  0  0  0  0  0  0
   28.1150   29.3250   47.3190 S   0  0  0  0  0  0  0  0  0  0  0  0
   34.6530   28.2640   49.4660 C   0  0  0  0  0  0  0  0  0  0  0  0
   34.7650   27.2440   49.8770 H   0  0  0  0  0  0  0  0  0  0  0  0
   33.8070   28.7340   50.0170 H   0  0  0  0  0  0  0  0  0  0  0  0
   37.2380   30.1540   51.3380 C   0  0  0  0  0  0  0  0  0  0  0  0
   38.0270   30.6700   50.3050 C   0  0  0  0  0  0  0  0  0  0  0  0
   37.6690   30.3680   48.9880 C   0  0  0  0  0  0  0  0  0  0  0  0
   36.5840   29.5960   48.7490 N   0  0  0  0  0  0  0  0  0  0  0  0
   35.8420   29.1140   49.7850 C   0  0  0  0  0  0  0  0  0  0  0  0
   36.1880   29.4060   51.0360 N   0  0  0  0  0  0  0  0  0  0  0  0
   37.4200   30.3230   52.3870 H   0  0  0  0  0  0  0  0  0  0  0  0
   38.8650   31.2720   50.5880 H   0  0  0  0  0  0  0  0  0  0  0  0
   38.2860   30.7720   48.1940 H   0  0  0  0  0  0  0  0  0  0  0  0
  1 17  1  0  0  0  0
  2  1  1  0  0  0  0
  3  1  1  0  0  0  0
  4  1  1  0  0  0  0
  4  5  1  0  0  0  0
  5  9  1  0  0  0  0
  6 10  1  0  0  0  0
  6  5  2  0  0  0  0
  7  6  1  0  0  0  0
  8  7  1  0  0  0  0
  8  4  2  0  0  0  0
 11  7  1  0  0  0  0
 11 16  1  0  0  0  0
 12 11  2  0  0  0  0
 13 12  1  0  0  0  0
 14 12  1  0  0  0  0
 14 15  2  0  0  0  0
 15 16  1  0  0  0  0
 17 24  1  0  0  0  0
 17 18  1  0  0  0  0
 17 19  1  0  0  0  0
 20 26  1  0  0  0  0
 21 27  1  0  0  0  0
 21 20  2  0  0  0  0
 22 21  1  0  0  0  0
 23 22  2  0  0  0  0
 23 24  1  0  0  0  0
 24 25  2  0  0  0  0
 25 20  1  0  0  0  0
 28 22  1  0  0  0  0
M  END
>  <minimizedAffinity>
-4.66848564

>  <minimizedRMSD>
0.416773349

$$$$
