
 OpenBabel03272507353D

 33 36  0  0  1  0  0  0  0  0999 V2000
   37.6730   26.2230   34.4190 C   0  0  0  0  0  0  0  0  0  0  0  0
   37.4790   27.3710   33.6860 C   0  0  0  0  0  0  0  0  0  0  0  0
   36.9650   26.9880   32.4360 C   0  0  0  0  0  0  0  0  0  0  0  0
   36.8810   25.6120   32.4950 C   0  0  0  0  0  0  0  0  0  0  0  0
   37.3070   25.2110   33.6740 O   0  0  0  0  0  0  0  0  0  0  0  0
   37.6340   28.4230   33.8770 H   0  0  0  0  0  0  0  0  0  0  0  0
   36.6720   27.5760   31.5590 H   0  0  0  0  0  0  0  0  0  0  0  0
   38.1990   26.2520   35.7730 C   0  0  0  0  0  0  0  0  0  0  0  0
   38.2420   27.3330   36.3860 O   0  0  0  0  0  0  0  0  0  0  0  0
   38.6420   25.0060   36.3290 C   0  0  0  0  0  0  0  0  0  0  0  0
   38.0150   24.5620   37.4820 C   0  0  0  0  0  0  0  0  0  0  0  0
   38.4250   23.3580   38.0480 C   0  0  0  0  0  0  0  0  0  0  0  0
   39.4390   22.6680   37.4270 N   0  0  0  0  0  0  0  0  0  0  0  0
   40.0250   23.1180   36.3190 C   0  0  0  0  0  0  0  0  0  0  0  0
   39.6380   24.2800   35.7640 N   0  0  0  0  0  0  0  0  0  0  0  0
   37.2090   25.1070   37.9790 H   0  0  0  0  0  0  0  0  0  0  0  0
   37.9630   22.9810   38.9410 H   0  0  0  0  0  0  0  0  0  0  0  0
   40.8290   22.5710   35.8260 H   0  0  0  0  0  0  0  0  0  0  0  0
   36.3940   24.7440   31.4240 C   0  0  0  0  0  0  0  0  0  0  0  0
   35.1470   24.6570   31.2220 O   0  0  0  0  0  0  0  0  0  0  0  0
   37.3480   23.9660   30.5850 C   0  0  1  0  0  0  0  0  0  0  0  0
   38.5190   23.3770   31.4660 C   0  0  0  0  0  0  0  0  0  0  0  0
   37.5560   22.5260   30.7630 C   0  0  1  0  0  0  0  0  0  0  0  0
   37.8490   24.5330   29.7570 H   0  0  0  0  0  0  0  0  0  0  0  0
   38.4580   23.5640   32.5480 H   0  0  0  0  0  0  0  0  0  0  0  0
   39.5290   23.4150   31.0530 H   0  0  0  0  0  0  0  0  0  0  0  0
   37.9070   21.9800   29.8230 H   0  0  0  0  0  0  0  0  0  0  0  0
   36.6860   21.7120   31.6640 C   0  0  0  0  0  0  0  0  0  0  0  0
   35.5100   21.0190   31.4020 C   0  0  0  0  0  0  0  0  0  0  0  0
   35.1200   21.0610   30.4000 H   0  0  0  0  0  0  0  0  0  0  0  0
   34.9020   20.3320   32.4080 C   0  0  0  0  0  3  0  0  0  0  0  0
   35.6020   20.4080   33.7310 C   0  0  0  0  0  3  0  0  0  0  0  0
   37.0910   21.4990   33.3230 S   0  0  0  0  0  0  0  0  0  0  0  0
  1  8  1  0  0  0  0
  2  6  1  0  0  0  0
  2  1  2  0  0  0  0
  3  4  2  0  0  0  0
  3  2  1  0  0  0  0
  4  5  1  0  0  0  0
  5  1  1  0  0  0  0
  7  3  1  0  0  0  0
  8 10  1  0  0  0  0
  8  9  2  0  0  0  0
 10 11  1  0  0  0  0
 11 16  1  0  0  0  0
 11 12  2  0  0  0  0
 12 17  1  0  0  0  0
 13 12  1  0  0  0  0
 14 13  2  0  0  0  0
 15 14  1  0  0  0  0
 15 10  2  0  0  0  0
 18 14  1  0  0  0  0
 19  4  1  0  0  0  0
 20 19  2  0  0  0  0
 21 24  1  6  0  0  0
 21 23  1  0  0  0  0
 21 19  1  0  0  0  0
 21 22  1  0  0  0  0
 22 25  1  0  0  0  0
 23 27  1  6  0  0  0
 23 22  1  0  0  0  0
 23 28  1  0  0  0  0
 26 22  1  0  0  0  0
 28 33  1  0  0  0  0
 29 28  2  0  0  0  0
 29 31  1  0  0  0  0
 30 29  1  0  0  0  0
 31 32  2  0  0  0  0
 33 32  1  0  0  0  0
M  END
>  <minimizedAffinity>
-5.49907923

$$$$

 OpenBabel03272507353D

 33 36  0  0  1  0  0  0  0  0999 V2000
   37.9570   25.4540   35.9180 C   0  0  0  0  0  0  0  0  0  0  0  0
   38.4870   26.6180   36.4260 C   0  0  0  0  0  0  0  0  0  0  0  0
   38.2300   27.6370   35.4940 C   0  0  0  0  0  0  0  0  0  0  0  0
   37.5510   27.0130   34.4670 C   0  0  0  0  0  0  0  0  0  0  0  0
   37.4170   25.7380   34.7600 O   0  0  0  0  0  0  0  0  0  0  0  0
   39.0180   26.8720   37.3320 H   0  0  0  0  0  0  0  0  0  0  0  0
   38.4750   28.7050   35.4980 H   0  0  0  0  0  0  0  0  0  0  0  0
   38.0440   24.1910   36.6310 C   0  0  0  0  0  0  0  0  0  0  0  0
   37.1160   23.8530   37.3850 O   0  0  0  0  0  0  0  0  0  0  0  0
   39.2200   23.3970   36.4140 C   0  0  0  0  0  0  0  0  0  0  0  0
   39.8200   22.8280   37.5250 C   0  0  0  0  0  0  0  0  0  0  0  0
   40.9640   22.0540   37.3460 C   0  0  0  0  0  0  0  0  0  0  0  0
   41.4400   21.8960   36.0670 N   0  0  0  0  0  0  0  0  0  0  0  0
   40.8430   22.4550   35.0170 C   0  0  0  0  0  0  0  0  0  0  0  0
   39.7380   23.2050   35.1760 N   0  0  0  0  0  0  0  0  0  0  0  0
   39.4450   22.9500   38.5430 H   0  0  0  0  0  0  0  0  0  0  0  0
   41.4570   21.5960   38.1840 H   0  0  0  0  0  0  0  0  0  0  0  0
   41.2210   22.3290   34.0010 H   0  0  0  0  0  0  0  0  0  0  0  0
   37.0600   27.6670   33.2540 C   0  0  0  0  0  0  0  0  0  0  0  0
   35.8960   28.1630   33.2530 O   0  0  0  0  0  0  0  0  0  0  0  0
   37.9120   27.7420   32.0350 C   0  0  1  0  0  0  0  0  0  0  0  0
   39.1220   26.7330   32.1330 C   0  0  0  0  0  0  0  0  0  0  0  0
   38.0730   26.6090   31.1180 C   0  0  1  0  0  0  0  0  0  0  0  0
   38.3700   28.7420   31.8160 H   0  0  0  0  0  0  0  0  0  0  0  0
   39.1540   26.0920   33.0260 H   0  0  0  0  0  0  0  0  0  0  0  0
   40.0970   27.0790   31.7850 H   0  0  0  0  0  0  0  0  0  0  0  0
   38.3260   26.9040   30.0440 H   0  0  0  0  0  0  0  0  0  0  0  0
   37.2420   25.3730   31.2430 C   0  0  0  0  0  0  0  0  0  0  0  0
   35.8800   25.1760   31.0500 C   0  0  0  0  0  0  0  0  0  0  0  0
   35.2870   26.0320   30.7770 H   0  0  0  0  0  0  0  0  0  0  0  0
   35.3570   23.9310   31.2180 C   0  0  0  0  0  3  0  0  0  0  0  0
   36.3510   22.8800   31.6070 C   0  0  0  0  0  3  0  0  0  0  0  0
   37.9590   23.8710   31.6790 S   0  0  0  0  0  0  0  0  0  0  0  0
  1  2  2  0  0  0  0
  1  8  1  0  0  0  0
  2  6  1  0  0  0  0
  3  7  1  0  0  0  0
  3  2  1  0  0  0  0
  4  5  1  0  0  0  0
  4  3  2  0  0  0  0
  5  1  1  0  0  0  0
  8  9  2  0  0  0  0
 10  8  1  0  0  0  0
 10 11  1  0  0  0  0
 11 16  1  0  0  0  0
 12 11  2  0  0  0  0
 12 17  1  0  0  0  0
 13 12  1  0  0  0  0
 14 15  1  0  0  0  0
 14 13  2  0  0  0  0
 15 10  2  0  0  0  0
 18 14  1  0  0  0  0
 19  4  1  0  0  0  0
 20 19  2  0  0  0  0
 21 24  1  6  0  0  0
 21 22  1  0  0  0  0
 21 19  1  0  0  0  0
 22 25  1  0  0  0  0
 23 27  1  6  0  0  0
 23 28  1  0  0  0  0
 23 21  1  0  0  0  0
 23 22  1  0  0  0  0
 26 22  1  0  0  0  0
 28 33  1  0  0  0  0
 29 31  1  0  0  0  0
 29 28  2  0  0  0  0
 30 29  1  0  0  0  0
 31 32  2  0  0  0  0
 32 33  1  0  0  0  0
M  END
>  <minimizedAffinity>
-5.42697096

$$$$

 OpenBabel03272507353D

 33 36  0  0  1  0  0  0  0  0999 V2000
   35.5710   28.8640   32.9520 C   0  0  0  0  0  0  0  0  0  0  0  0
   36.2440   29.1970   31.7980 C   0  0  0  0  0  0  0  0  0  0  0  0
   37.3540   28.3420   31.7000 C   0  0  0  0  0  0  0  0  0  0  0  0
   37.2800   27.5350   32.8180 C   0  0  0  0  0  0  0  0  0  0  0  0
   36.2210   27.8790   33.5190 O   0  0  0  0  0  0  0  0  0  0  0  0
   36.0900   29.9300   31.0200 H   0  0  0  0  0  0  0  0  0  0  0  0
   38.1470   28.2620   30.9480 H   0  0  0  0  0  0  0  0  0  0  0  0
   34.3620   29.5550   33.3660 C   0  0  0  0  0  0  0  0  0  0  0  0
   33.3320   29.4430   32.6800 O   0  0  0  0  0  0  0  0  0  0  0  0
   34.4360   30.3390   34.5660 C   0  0  0  0  0  0  0  0  0  0  0  0
   35.6570   30.9130   34.8800 C   0  0  0  0  0  0  0  0  0  0  0  0
   35.7600   31.6760   36.0400 C   0  0  0  0  0  0  0  0  0  0  0  0
   34.6360   31.8190   36.8180 N   0  0  0  0  0  0  0  0  0  0  0  0
   33.4750   31.2550   36.4930 C   0  0  0  0  0  0  0  0  0  0  0  0
   33.3630   30.5150   35.3750 N   0  0  0  0  0  0  0  0  0  0  0  0
   36.5520   30.8030   34.2650 H   0  0  0  0  0  0  0  0  0  0  0  0
   36.6900   32.1380   36.3160 H   0  0  0  0  0  0  0  0  0  0  0  0
   32.5830   31.3690   37.1110 H   0  0  0  0  0  0  0  0  0  0  0  0
   38.2210   26.4710   33.1610 C   0  0  0  0  0  0  0  0  0  0  0  0
   37.9430   25.2780   32.8440 O   0  0  0  0  0  0  0  0  0  0  0  0
   39.4880   26.7820   33.8810 C   0  0  1  0  0  0  0  0  0  0  0  0
   39.1940   27.2270   35.3670 C   0  0  0  0  0  0  0  0  0  0  0  0
   39.9420   26.0100   35.0410 C   0  0  1  0  0  0  0  0  0  0  0  0
   40.1160   27.6000   33.4390 H   0  0  0  0  0  0  0  0  0  0  0  0
   38.1420   27.2020   35.6860 H   0  0  0  0  0  0  0  0  0  0  0  0
   39.7730   28.0610   35.7680 H   0  0  0  0  0  0  0  0  0  0  0  0
   41.0730   26.0150   35.1980 H   0  0  0  0  0  0  0  0  0  0  0  0
   39.2640   24.7450   35.4570 C   0  0  0  0  0  0  0  0  0  0  0  0
   38.1730   24.5360   36.2930 C   0  0  0  0  0  0  0  0  0  0  0  0
   37.7210   25.4010   36.7470 H   0  0  0  0  0  0  0  0  0  0  0  0
   37.7320   23.2670   36.5080 C   0  0  0  0  0  3  0  0  0  0  0  0
   38.5050   22.2040   35.7890 C   0  0  0  0  0  3  0  0  0  0  0  0
   39.8070   23.2210   34.8710 S   0  0  0  0  0  0  0  0  0  0  0  0
  1  8  1  0  0  0  0
  1  5  1  0  0  0  0
  2  1  2  0  0  0  0
  3  2  1  0  0  0  0
  3  4  2  0  0  0  0
  4 19  1  0  0  0  0
  4  5  1  0  0  0  0
  6  2  1  0  0  0  0
  7  3  1  0  0  0  0
  8 10  1  0  0  0  0
  9  8  2  0  0  0  0
 10 11  2  0  0  0  0
 10 15  1  0  0  0  0
 11 12  1  0  0  0  0
 12 17  1  0  0  0  0
 12 13  2  0  0  0  0
 14 13  1  0  0  0  0
 14 18  1  0  0  0  0
 15 14  2  0  0  0  0
 16 11  1  0  0  0  0
 19 21  1  0  0  0  0
 20 19  2  0  0  0  0
 21 24  1  6  0  0  0
 21 23  1  0  0  0  0
 21 22  1  0  0  0  0
 22 25  1  0  0  0  0
 22 26  1  0  0  0  0
 23 27  1  1  0  0  0
 23 22  1  0  0  0  0
 23 28  1  0  0  0  0
 28 29  2  0  0  0  0
 29 31  1  0  0  0  0
 29 30  1  0  0  0  0
 32 31  2  0  0  0  0
 33 28  1  0  0  0  0
 33 32  1  0  0  0  0
M  END
>  <minimizedAffinity>
-5.34044743

$$$$

 OpenBabel03272507353D

 33 36  0  0  1  0  0  0  0  0999 V2000
   38.0610   25.3850   35.7730 C   0  0  0  0  0  0  0  0  0  0  0  0
   38.4590   26.6830   36.0030 C   0  0  0  0  0  0  0  0  0  0  0  0
   38.0930   27.4380   34.8770 C   0  0  0  0  0  0  0  0  0  0  0  0
   37.4900   26.5350   34.0260 C   0  0  0  0  0  0  0  0  0  0  0  0
   37.4950   25.3480   34.5930 O   0  0  0  0  0  0  0  0  0  0  0  0
   38.9570   27.1860   36.8190 H   0  0  0  0  0  0  0  0  0  0  0  0
   38.2190   28.5010   34.6410 H   0  0  0  0  0  0  0  0  0  0  0  0
   38.2840   24.3280   36.7440 C   0  0  0  0  0  0  0  0  0  0  0  0
   37.5140   24.2180   37.7130 O   0  0  0  0  0  0  0  0  0  0  0  0
   39.4020   23.4570   36.5160 C   0  0  0  0  0  0  0  0  0  0  0  0
   39.9040   22.7630   37.6050 C   0  0  0  0  0  0  0  0  0  0  0  0
   40.9900   21.9130   37.4160 C   0  0  0  0  0  0  0  0  0  0  0  0
   41.5110   21.8060   36.1490 N   0  0  0  0  0  0  0  0  0  0  0  0
   41.0090   22.4850   35.1200 C   0  0  0  0  0  0  0  0  0  0  0  0
   39.9600   23.3100   35.2900 N   0  0  0  0  0  0  0  0  0  0  0  0
   39.4940   22.8450   38.6140 H   0  0  0  0  0  0  0  0  0  0  0  0
   41.4070   21.3590   38.2370 H   0  0  0  0  0  0  0  0  0  0  0  0
   41.4220   22.4000   34.1130 H   0  0  0  0  0  0  0  0  0  0  0  0
   36.9320   26.8490   32.7110 C   0  0  0  0  0  0  0  0  0  0  0  0
   36.0640   26.0750   32.2110 O   0  0  0  0  0  0  0  0  0  0  0  0
   37.3810   28.0580   31.9650 C   0  0  1  0  0  0  0  0  0  0  0  0
   36.3000   28.4930   30.8990 C   0  0  0  0  0  0  0  0  0  0  0  0
   36.6670   29.3360   32.0400 C   0  0  1  0  0  0  0  0  0  0  0  0
   38.3420   27.9560   31.3970 H   0  0  0  0  0  0  0  0  0  0  0  0
   35.3710   27.9060   30.8780 H   0  0  0  0  0  0  0  0  0  0  0  0
   36.6600   28.8160   29.9200 H   0  0  0  0  0  0  0  0  0  0  0  0
   37.3200   30.2530   31.8430 H   0  0  0  0  0  0  0  0  0  0  0  0
   35.5590   29.5610   33.0170 C   0  0  0  0  0  0  0  0  0  0  0  0
   35.5830   30.0700   34.3100 C   0  0  0  0  0  0  0  0  0  0  0  0
   36.5390   30.3480   34.7180 H   0  0  0  0  0  0  0  0  0  0  0  0
   34.4170   30.1880   35.0010 C   0  0  0  0  0  3  0  0  0  0  0  0
   33.1970   29.7380   34.2560 C   0  0  0  0  0  3  0  0  0  0  0  0
   33.9310   29.1870   32.6030 S   0  0  0  0  0  0  0  0  0  0  0  0
  1  2  2  0  0  0  0
  1  8  1  0  0  0  0
  2  6  1  0  0  0  0
  3  2  1  0  0  0  0
  4  5  1  0  0  0  0
  4  3  2  0  0  0  0
  5  1  1  0  0  0  0
  7  3  1  0  0  0  0
  8  9  2  0  0  0  0
 10  8  1  0  0  0  0
 10 11  1  0  0  0  0
 11 16  1  0  0  0  0
 12 11  2  0  0  0  0
 12 17  1  0  0  0  0
 13 12  1  0  0  0  0
 14 15  1  0  0  0  0
 14 13  2  0  0  0  0
 15 10  2  0  0  0  0
 18 14  1  0  0  0  0
 19  4  1  0  0  0  0
 20 19  2  0  0  0  0
 21 24  1  6  0  0  0
 21 23  1  0  0  0  0
 21 19  1  0  0  0  0
 22 21  1  0  0  0  0
 22 23  1  0  0  0  0
 23 27  1  6  0  0  0
 23 28  1  0  0  0  0
 25 22  1  0  0  0  0
 26 22  1  0  0  0  0
 28 29  2  0  0  0  0
 29 30  1  0  0  0  0
 29 31  1  0  0  0  0
 32 31  2  0  0  0  0
 33 28  1  0  0  0  0
 33 32  1  0  0  0  0
M  END
>  <minimizedAffinity>
-5.26341724

$$$$

 OpenBabel03272507353D

 33 36  0  0  1  0  0  0  0  0999 V2000
   34.7690   29.3410   32.5370 C   0  0  0  0  0  0  0  0  0  0  0  0
   35.1770   30.1610   31.5090 C   0  0  0  0  0  0  0  0  0  0  0  0
   36.1310   29.4500   30.7620 C   0  0  0  0  0  0  0  0  0  0  0  0
   36.2390   28.2290   31.3960 C   0  0  0  0  0  0  0  0  0  0  0  0
   35.4240   28.2130   32.4290 O   0  0  0  0  0  0  0  0  0  0  0  0
   34.9220   31.1630   31.1970 H   0  0  0  0  0  0  0  0  0  0  0  0
   36.7070   29.7230   29.8700 H   0  0  0  0  0  0  0  0  0  0  0  0
   33.7780   29.7630   33.5120 C   0  0  0  0  0  0  0  0  0  0  0  0
   32.5820   29.4760   33.3280 O   0  0  0  0  0  0  0  0  0  0  0  0
   34.2520   30.4980   34.6500 C   0  0  0  0  0  0  0  0  0  0  0  0
   33.3060   30.9620   35.5490 C   0  0  0  0  0  0  0  0  0  0  0  0
   33.7350   31.6820   36.6620 C   0  0  0  0  0  0  0  0  0  0  0  0
   35.0850   31.8940   36.8100 N   0  0  0  0  0  0  0  0  0  0  0  0
   35.9720   31.4370   35.9290 C   0  0  0  0  0  0  0  0  0  0  0  0
   35.5700   30.7410   34.8500 N   0  0  0  0  0  0  0  0  0  0  0  0
   32.2330   30.7960   35.4370 H   0  0  0  0  0  0  0  0  0  0  0  0
   33.0310   32.0570   37.3820 H   0  0  0  0  0  0  0  0  0  0  0  0
   37.0440   31.6050   36.0460 H   0  0  0  0  0  0  0  0  0  0  0  0
   37.1140   27.1330   30.9830 C   0  0  0  0  0  0  0  0  0  0  0  0
   38.1550   27.3960   30.3120 O   0  0  0  0  0  0  0  0  0  0  0  0
   36.7850   25.7240   31.3390 C   0  0  1  0  0  0  0  0  0  0  0  0
   38.0790   24.8200   31.3060 C   0  0  0  0  0  0  0  0  0  0  0  0
   37.3240   25.0710   32.5360 C   0  0  1  0  0  0  0  0  0  0  0  0
   36.0400   25.2110   30.6770 H   0  0  0  0  0  0  0  0  0  0  0  0
   39.0270   25.3310   31.0840 H   0  0  0  0  0  0  0  0  0  0  0  0
   37.9860   23.8220   30.8730 H   0  0  0  0  0  0  0  0  0  0  0  0
   36.6710   24.2290   32.9480 H   0  0  0  0  0  0  0  0  0  0  0  0
   38.0810   25.8340   33.5740 C   0  0  0  0  0  0  0  0  0  0  0  0
   39.4310   26.1540   33.6570 C   0  0  0  0  0  0  0  0  0  0  0  0
   40.0750   25.8000   32.8700 H   0  0  0  0  0  0  0  0  0  0  0  0
   39.8800   26.8810   34.7150 C   0  0  0  0  0  3  0  0  0  0  0  0
   38.8240   27.2660   35.7050 C   0  0  0  0  0  3  0  0  0  0  0  0
   37.2740   26.4970   34.9430 S   0  0  0  0  0  0  0  0  0  0  0  0
  1  8  1  0  0  0  0
  2  1  2  0  0  0  0
  3  4  2  0  0  0  0
  3  2  1  0  0  0  0
  4  5  1  0  0  0  0
  5  1  1  0  0  0  0
  6  2  1  0  0  0  0
  7  3  1  0  0  0  0
  8 10  1  0  0  0  0
  9  8  2  0  0  0  0
 10 15  2  0  0  0  0
 10 11  1  0  0  0  0
 11 12  2  0  0  0  0
 12 13  1  0  0  0  0
 12 17  1  0  0  0  0
 14 18  1  0  0  0  0
 14 13  2  0  0  0  0
 15 14  1  0  0  0  0
 16 11  1  0  0  0  0
 19 21  1  0  0  0  0
 19  4  1  0  0  0  0
 20 19  2  0  0  0  0
 21 24  1  6  0  0  0
 21 23  1  0  0  0  0
 22 21  1  0  0  0  0
 22 23  1  0  0  0  0
 23 27  1  1  0  0  0
 23 28  1  0  0  0  0
 25 22  1  0  0  0  0
 26 22  1  0  0  0  0
 28 29  2  0  0  0  0
 28 33  1  0  0  0  0
 29 31  1  0  0  0  0
 30 29  1  0  0  0  0
 31 32  2  0  0  0  0
 33 32  1  0  0  0  0
M  END
>  <minimizedAffinity>
-5.07079601

$$$$

 OpenBabel03272507353D

 33 36  0  0  1  0  0  0  0  0999 V2000
   35.9360   28.2700   32.2440 C   0  0  0  0  0  0  0  0  0  0  0  0
   36.6070   28.0560   33.4270 C   0  0  0  0  0  0  0  0  0  0  0  0
   35.9350   28.7790   34.4260 C   0  0  0  0  0  0  0  0  0  0  0  0
   34.8850   29.3930   33.7730 C   0  0  0  0  0  0  0  0  0  0  0  0
   34.9280   29.0650   32.4990 O   0  0  0  0  0  0  0  0  0  0  0  0
   37.4800   27.4840   33.7060 H   0  0  0  0  0  0  0  0  0  0  0  0
   36.1280   28.8900   35.4990 H   0  0  0  0  0  0  0  0  0  0  0  0
   36.3650   27.6650   30.9950 C   0  0  0  0  0  0  0  0  0  0  0  0
   36.5890   28.3920   30.0120 O   0  0  0  0  0  0  0  0  0  0  0  0
   36.5070   26.2370   30.9750 C   0  0  0  0  0  0  0  0  0  0  0  0
   35.3560   25.4790   31.1160 C   0  0  0  0  0  0  0  0  0  0  0  0
   35.4630   24.0900   31.1040 C   0  0  0  0  0  0  0  0  0  0  0  0
   36.7140   23.5420   30.9510 N   0  0  0  0  0  0  0  0  0  0  0  0
   37.8030   24.2950   30.8180 C   0  0  0  0  0  0  0  0  0  0  0  0
   37.7130   25.6370   30.8290 N   0  0  0  0  0  0  0  0  0  0  0  0
   34.3610   25.9090   31.2380 H   0  0  0  0  0  0  0  0  0  0  0  0
   34.5930   23.4690   31.2110 H   0  0  0  0  0  0  0  0  0  0  0  0
   38.7960   23.8600   30.6960 H   0  0  0  0  0  0  0  0  0  0  0  0
   33.8870   30.2600   34.3970 C   0  0  0  0  0  0  0  0  0  0  0  0
   34.1330   30.7640   35.5320 O   0  0  0  0  0  0  0  0  0  0  0  0
   32.5950   30.5440   33.7120 C   0  0  1  0  0  0  0  0  0  0  0  0
   32.0140   29.2360   33.0450 C   0  0  0  0  0  0  0  0  0  0  0  0
   31.3310   29.9340   34.1370 C   0  0  1  0  0  0  0  0  0  0  0  0
   32.6300   31.3110   32.8940 H   0  0  0  0  0  0  0  0  0  0  0  0
   32.5850   28.3100   33.2060 H   0  0  0  0  0  0  0  0  0  0  0  0
   31.5690   29.3310   32.0520 H   0  0  0  0  0  0  0  0  0  0  0  0
   30.4020   30.5490   33.8840 H   0  0  0  0  0  0  0  0  0  0  0  0
   31.2260   29.1420   35.3990 C   0  0  0  0  0  0  0  0  0  0  0  0
   31.5010   29.4970   36.7150 C   0  0  0  0  0  0  0  0  0  0  0  0
   31.8640   30.4930   36.8960 H   0  0  0  0  0  0  0  0  0  0  0  0
   31.3110   28.5830   37.7050 C   0  0  0  0  0  3  0  0  0  0  0  0
   30.8070   27.2500   37.2400 C   0  0  0  0  0  3  0  0  0  0  0  0
   30.6750   27.5120   35.3730 S   0  0  0  0  0  0  0  0  0  0  0  0
  1  5  1  0  0  0  0
  1  2  2  0  0  0  0
  2  6  1  0  0  0  0
  2  3  1  0  0  0  0
  3  7  1  0  0  0  0
  4 19  1  0  0  0  0
  4  3  2  0  0  0  0
  5  4  1  0  0  0  0
  8  1  1  0  0  0  0
  9  8  2  0  0  0  0
 10  8  1  0  0  0  0
 10 11  1  0  0  0  0
 11 16  1  0  0  0  0
 12 11  2  0  0  0  0
 12 17  1  0  0  0  0
 13 12  1  0  0  0  0
 14 15  1  0  0  0  0
 14 13  2  0  0  0  0
 15 10  2  0  0  0  0
 18 14  1  0  0  0  0
 19 20  2  0  0  0  0
 21 24  1  6  0  0  0
 21 23  1  0  0  0  0
 21 19  1  0  0  0  0
 22 25  1  0  0  0  0
 22 21  1  0  0  0  0
 22 23  1  0  0  0  0
 23 27  1  6  0  0  0
 23 28  1  0  0  0  0
 26 22  1  0  0  0  0
 28 29  2  0  0  0  0
 29 30  1  0  0  0  0
 29 31  1  0  0  0  0
 32 31  2  0  0  0  0
 33 28  1  0  0  0  0
 33 32  1  0  0  0  0
M  END
>  <minimizedAffinity>
-5.06795311

$$$$

 OpenBabel03272507353D

 33 36  0  0  1  0  0  0  0  0999 V2000
   35.8130   29.2340   33.0890 C   0  0  0  0  0  0  0  0  0  0  0  0
   36.4310   29.4350   31.8750 C   0  0  0  0  0  0  0  0  0  0  0  0
   37.2930   28.3480   31.6600 C   0  0  0  0  0  0  0  0  0  0  0  0
   37.1390   27.5480   32.7730 C   0  0  0  0  0  0  0  0  0  0  0  0
   36.2640   28.1080   33.5810 O   0  0  0  0  0  0  0  0  0  0  0  0
   36.3800   30.2080   31.1220 H   0  0  0  0  0  0  0  0  0  0  0  0
   37.9690   28.1090   30.8310 H   0  0  0  0  0  0  0  0  0  0  0  0
   34.8470   30.1760   33.6270 C   0  0  0  0  0  0  0  0  0  0  0  0
   35.1650   31.3710   33.7510 O   0  0  0  0  0  0  0  0  0  0  0  0
   33.5580   29.6560   33.9880 C   0  0  0  0  0  0  0  0  0  0  0  0
   32.7320   29.2300   32.9610 C   0  0  0  0  0  0  0  0  0  0  0  0
   31.4740   28.7240   33.2780 C   0  0  0  0  0  0  0  0  0  0  0  0
   31.1170   28.6730   34.6050 N   0  0  0  0  0  0  0  0  0  0  0  0
   31.9320   29.0900   35.5720 C   0  0  0  0  0  0  0  0  0  0  0  0
   33.1490   29.5810   35.2770 N   0  0  0  0  0  0  0  0  0  0  0  0
   33.0100   29.2680   31.9060 H   0  0  0  0  0  0  0  0  0  0  0  0
   30.8050   28.3840   32.5100 H   0  0  0  0  0  0  0  0  0  0  0  0
   31.6490   29.0500   36.6250 H   0  0  0  0  0  0  0  0  0  0  0  0
   37.8330   26.2830   33.0130 C   0  0  0  0  0  0  0  0  0  0  0  0
   37.1720   25.2040   32.9810 O   0  0  0  0  0  0  0  0  0  0  0  0
   39.2950   26.2620   33.2970 C   0  0  1  0  0  0  0  0  0  0  0  0
   39.6210   27.0550   34.6230 C   0  0  0  0  0  0  0  0  0  0  0  0
   39.8540   25.6150   34.4880 C   0  0  1  0  0  0  0  0  0  0  0  0
   39.9560   26.7080   32.5080 H   0  0  0  0  0  0  0  0  0  0  0  0
   38.7600   27.4620   35.1730 H   0  0  0  0  0  0  0  0  0  0  0  0
   40.5060   27.6940   34.6240 H   0  0  0  0  0  0  0  0  0  0  0  0
   40.9310   25.2540   34.3670 H   0  0  0  0  0  0  0  0  0  0  0  0
   39.0140   24.7720   35.3910 C   0  0  0  0  0  0  0  0  0  0  0  0
   38.2190   25.1230   36.4760 C   0  0  0  0  0  0  0  0  0  0  0  0
   38.1850   26.1630   36.7520 H   0  0  0  0  0  0  0  0  0  0  0  0
   37.5320   24.1540   37.1400 C   0  0  0  0  0  3  0  0  0  0  0  0
   37.7220   22.7690   36.6010 C   0  0  0  0  0  3  0  0  0  0  0  0
   38.9090   23.0700   35.1610 S   0  0  0  0  0  0  0  0  0  0  0  0
  1  5  1  0  0  0  0
  1  8  1  0  0  0  0
  2  1  2  0  0  0  0
  3  2  1  0  0  0  0
  3  4  2  0  0  0  0
  4 19  1  0  0  0  0
  4  5  1  0  0  0  0
  6  2  1  0  0  0  0
  7  3  1  0  0  0  0
  8  9  2  0  0  0  0
  8 10  1  0  0  0  0
 10 15  1  0  0  0  0
 11 12  1  0  0  0  0
 11 10  2  0  0  0  0
 12 13  2  0  0  0  0
 13 14  1  0  0  0  0
 14 18  1  0  0  0  0
 15 14  2  0  0  0  0
 16 11  1  0  0  0  0
 17 12  1  0  0  0  0
 19 21  1  0  0  0  0
 20 19  2  0  0  0  0
 21 24  1  6  0  0  0
 21 23  1  0  0  0  0
 21 22  1  0  0  0  0
 22 26  1  0  0  0  0
 22 25  1  0  0  0  0
 23 27  1  6  0  0  0
 23 22  1  0  0  0  0
 23 28  1  0  0  0  0
 28 29  2  0  0  0  0
 29 30  1  0  0  0  0
 29 31  1  0  0  0  0
 32 31  2  0  0  0  0
 33 28  1  0  0  0  0
 33 32  1  0  0  0  0
M  END
>  <minimizedAffinity>
-5.00667524

$$$$

 OpenBabel03272507353D

 33 36  0  0  1  0  0  0  0  0999 V2000
   37.1630   27.3270   34.5130 C   0  0  0  0  0  0  0  0  0  0  0  0
   37.9450   27.9370   35.4680 C   0  0  0  0  0  0  0  0  0  0  0  0
   38.4500   26.9260   36.3020 C   0  0  0  0  0  0  0  0  0  0  0  0
   37.9330   25.7530   35.7900 C   0  0  0  0  0  0  0  0  0  0  0  0
   37.1870   26.0390   34.7450 O   0  0  0  0  0  0  0  0  0  0  0  0
   38.2190   28.9600   35.6770 H   0  0  0  0  0  0  0  0  0  0  0  0
   39.1070   26.9670   37.1780 H   0  0  0  0  0  0  0  0  0  0  0  0
   36.4790   28.0840   33.4780 C   0  0  0  0  0  0  0  0  0  0  0  0
   35.4520   28.7200   33.7680 O   0  0  0  0  0  0  0  0  0  0  0  0
   37.0470   28.0490   32.1600 C   0  0  0  0  0  0  0  0  0  0  0  0
   38.3270   27.5350   32.0300 C   0  0  0  0  0  0  0  0  0  0  0  0
   38.9060   27.4910   30.7640 C   0  0  0  0  0  0  0  0  0  0  0  0
   38.1710   27.9650   29.7040 N   0  0  0  0  0  0  0  0  0  0  0  0
   36.9420   28.4540   29.8590 C   0  0  0  0  0  0  0  0  0  0  0  0
   36.3730   28.5020   31.0760 N   0  0  0  0  0  0  0  0  0  0  0  0
   38.9150   27.1580   32.8690 H   0  0  0  0  0  0  0  0  0  0  0  0
   39.8960   27.0990   30.6230 H   0  0  0  0  0  0  0  0  0  0  0  0
   36.3590   28.8300   29.0170 H   0  0  0  0  0  0  0  0  0  0  0  0
   38.1810   24.4130   36.3210 C   0  0  0  0  0  0  0  0  0  0  0  0
   37.2820   23.8500   37.0120 O   0  0  0  0  0  0  0  0  0  0  0  0
   39.4740   23.7210   36.0600 C   0  0  1  0  0  0  0  0  0  0  0  0
   39.2610   22.1610   35.9410 C   0  0  0  0  0  0  0  0  0  0  0  0
   39.7320   22.9800   34.8220 C   0  0  1  0  0  0  0  0  0  0  0  0
   40.2710   23.8590   36.8370 H   0  0  0  0  0  0  0  0  0  0  0  0
   38.2240   21.8020   36.0120 H   0  0  0  0  0  0  0  0  0  0  0  0
   40.0010   21.5130   36.4160 H   0  0  0  0  0  0  0  0  0  0  0  0
   40.8350   22.9130   34.5330 H   0  0  0  0  0  0  0  0  0  0  0  0
   38.7890   23.0340   33.6640 C   0  0  0  0  0  0  0  0  0  0  0  0
   38.7670   23.8700   32.5540 C   0  0  0  0  0  0  0  0  0  0  0  0
   39.5290   24.6280   32.4860 H   0  0  0  0  0  0  0  0  0  0  0  0
   37.7940   23.7080   31.6160 C   0  0  0  0  0  3  0  0  0  0  0  0
   36.8240   22.6030   31.9040 C   0  0  0  0  0  3  0  0  0  0  0  0
   37.4750   21.9290   33.5450 S   0  0  0  0  0  0  0  0  0  0  0  0
  1  5  1  0  0  0  0
  1  2  2  0  0  0  0
  2  6  1  0  0  0  0
  2  3  1  0  0  0  0
  3  7  1  0  0  0  0
  4  3  2  0  0  0  0
  4 19  1  0  0  0  0
  5  4  1  0  0  0  0
  8  9  2  0  0  0  0
  8  1  1  0  0  0  0
 10  8  1  0  0  0  0
 11 10  1  0  0  0  0
 11 16  1  0  0  0  0
 12 11  2  0  0  0  0
 13 14  2  0  0  0  0
 13 12  1  0  0  0  0
 14 15  1  0  0  0  0
 15 10  2  0  0  0  0
 17 12  1  0  0  0  0
 18 14  1  0  0  0  0
 19 20  2  0  0  0  0
 21 19  1  0  0  0  0
 21 24  1  1  0  0  0
 22 25  1  0  0  0  0
 22 21  1  0  0  0  0
 22 26  1  0  0  0  0
 23 27  1  6  0  0  0
 23 22  1  0  0  0  0
 23 21  1  0  0  0  0
 28 23  1  0  0  0  0
 29 28  2  0  0  0  0
 30 29  1  0  0  0  0
 31 32  2  0  0  0  0
 31 29  1  0  0  0  0
 32 33  1  0  0  0  0
 33 28  1  0  0  0  0
M  END
>  <minimizedAffinity>
-4.95731592

$$$$

 OpenBabel03272507353D

 33 36  0  0  1  0  0  0  0  0999 V2000
   36.0730   28.1930   32.6190 C   0  0  0  0  0  0  0  0  0  0  0  0
   36.5750   27.7780   33.8320 C   0  0  0  0  0  0  0  0  0  0  0  0
   36.3720   28.8220   34.7490 C   0  0  0  0  0  0  0  0  0  0  0  0
   35.7500   29.8160   34.0210 C   0  0  0  0  0  0  0  0  0  0  0  0
   35.5970   29.4030   32.7810 O   0  0  0  0  0  0  0  0  0  0  0  0
   37.0560   26.8750   34.1790 H   0  0  0  0  0  0  0  0  0  0  0  0
   36.6180   28.9140   35.8130 H   0  0  0  0  0  0  0  0  0  0  0  0
   36.1180   27.3510   31.4370 C   0  0  0  0  0  0  0  0  0  0  0  0
   35.2560   26.4690   31.2850 O   0  0  0  0  0  0  0  0  0  0  0  0
   37.1760   27.5980   30.4990 C   0  0  0  0  0  0  0  0  0  0  0  0
   37.0300   28.6760   29.6410 C   0  0  0  0  0  0  0  0  0  0  0  0
   38.0390   28.9390   28.7170 C   0  0  0  0  0  0  0  0  0  0  0  0
   39.1330   28.1080   28.7050 N   0  0  0  0  0  0  0  0  0  0  0  0
   39.2460   27.0780   29.5410 C   0  0  0  0  0  0  0  0  0  0  0  0
   38.2790   26.8130   30.4370 N   0  0  0  0  0  0  0  0  0  0  0  0
   36.1630   29.3400   29.6470 H   0  0  0  0  0  0  0  0  0  0  0  0
   37.9620   29.7670   28.0360 H   0  0  0  0  0  0  0  0  0  0  0  0
   40.1150   26.4180   29.5320 H   0  0  0  0  0  0  0  0  0  0  0  0
   35.3270   31.1140   34.5450 C   0  0  0  0  0  0  0  0  0  0  0  0
   34.5610   31.8390   33.8460 O   0  0  0  0  0  0  0  0  0  0  0  0
   35.7950   31.5820   35.8800 C   0  0  1  0  0  0  0  0  0  0  0  0
   35.4350   33.1050   36.0980 C   0  0  0  0  0  0  0  0  0  0  0  0
   34.8680   32.0340   36.9220 C   0  0  1  0  0  0  0  0  0  0  0  0
   36.8970   31.5020   36.0700 H   0  0  0  0  0  0  0  0  0  0  0  0
   34.8640   33.5920   35.2950 H   0  0  0  0  0  0  0  0  0  0  0  0
   36.1870   33.7370   36.5730 H   0  0  0  0  0  0  0  0  0  0  0  0
   35.2610   31.9100   37.9880 H   0  0  0  0  0  0  0  0  0  0  0  0
   33.3890   31.8710   36.7830 C   0  0  0  0  0  0  0  0  0  0  0  0
   32.5910   30.7370   36.8790 C   0  0  0  0  0  0  0  0  0  0  0  0
   33.0820   29.7980   37.0710 H   0  0  0  0  0  0  0  0  0  0  0  0
   31.2450   30.8550   36.7210 C   0  0  0  0  0  3  0  0  0  0  0  0
   30.7640   32.2480   36.4520 C   0  0  0  0  0  3  0  0  0  0  0  0
   32.3810   33.2290   36.4650 S   0  0  0  0  0  0  0  0  0  0  0  0
  1  5  1  0  0  0  0
  1  2  2  0  0  0  0
  2  6  1  0  0  0  0
  2  3  1  0  0  0  0
  3  7  1  0  0  0  0
  4 19  1  0  0  0  0
  4  3  2  0  0  0  0
  5  4  1  0  0  0  0
  8  1  1  0  0  0  0
  9  8  2  0  0  0  0
 10  8  1  0  0  0  0
 11 16  1  0  0  0  0
 11 10  2  0  0  0  0
 12 11  1  0  0  0  0
 13 12  2  0  0  0  0
 13 14  1  0  0  0  0
 14 15  2  0  0  0  0
 15 10  1  0  0  0  0
 17 12  1  0  0  0  0
 18 14  1  0  0  0  0
 19 21  1  0  0  0  0
 20 19  2  0  0  0  0
 21 24  1  1  0  0  0
 21 22  1  0  0  0  0
 21 23  1  0  0  0  0
 22 26  1  0  0  0  0
 22 23  1  0  0  0  0
 23 27  1  1  0  0  0
 25 22  1  0  0  0  0
 28 29  2  0  0  0  0
 28 23  1  0  0  0  0
 29 30  1  0  0  0  0
 31 29  1  0  0  0  0
 32 33  1  0  0  0  0
 32 31  2  0  0  0  0
 33 28  1  0  0  0  0
M  END
>  <minimizedAffinity>
-4.95092821

$$$$
