
     RDKit          3D

 40 42  0  0  0  0  0  0  0  0999 V2000
   36.6865   29.9578   49.0154 C   0  0  0  0  0  0  0  0  0  0  0  0
   37.7210   30.6204   48.3200 C   0  0  0  0  0  0  0  0  0  0  0  0
   37.4980   30.9061   46.9744 C   0  0  0  0  0  0  0  0  0  0  0  0
   36.3310   30.5443   46.4133 N   0  0  0  0  0  0  0  0  0  0  0  0
   35.3628   29.9117   47.1071 C   0  0  0  0  0  0  0  0  0  0  0  0
   35.5415   29.6228   48.3947 N   0  0  0  0  0  0  0  0  0  0  0  0
   38.4643   31.5602   46.2168 N   0  0  0  0  0  0  0  0  0  0  0  0
   39.4260   32.5726   46.7295 C   0  0  0  0  0  0  0  0  0  0  0  0
   40.1042   33.1844   45.5754 C   0  0  0  0  0  0  0  0  0  0  0  0
   39.2199   32.8613   44.4498 C   0  0  0  0  0  0  0  0  0  0  0  0
   38.7860   31.4925   44.8289 C   0  0  2  0  0  0  0  0  0  0  0  0
   37.6396   31.0292   43.9314 C   0  0  0  0  0  0  0  0  0  0  0  0
   36.5075   31.7413   44.2823 F   0  0  0  0  0  0  0  0  0  0  0  0
   37.3151   29.7078   44.0263 F   0  0  0  0  0  0  0  0  0  0  0  0
   37.9579   31.4225   42.6496 F   0  0  0  0  0  0  0  0  0  0  0  0
   39.8396   30.5214   44.6750 C   0  0  1  0  0  0  0  0  0  0  0  0
   40.3439   30.6756   43.5346 O   0  0  0  0  0  0  0  0  0  0  0  0
   40.9865   29.9826   42.5807 C   0  0  0  0  0  0  0  0  0  0  0  0
   40.7604   30.4277   41.4518 O   0  0  0  0  0  0  0  0  0  0  0  0
   41.8634   28.9118   42.2530 N   0  0  0  0  0  0  0  0  0  0  0  0
   36.9755   29.7882   50.0595 H   0  0  0  0  0  0  0  0  0  0  0  0
   38.6618   30.9259   48.7243 H   0  0  0  0  0  0  0  0  0  0  0  0
   34.4061   29.5919   46.7277 H   0  0  0  0  0  0  0  0  0  0  0  0
   38.6322   33.3515   47.1222 H   0  0  0  0  0  0  0  0  0  0  0  0
   39.9295   32.3383   47.6329 H   0  0  0  0  0  0  0  0  0  0  0  0
   39.9075   34.3339   45.7162 H   0  0  0  0  0  0  0  0  0  0  0  0
   41.1608   33.1997   45.4853 H   0  0  0  0  0  0  0  0  0  0  0  0
   38.3510   33.5151   44.3407 H   0  0  0  0  0  0  0  0  0  0  0  0
   39.7743   32.8679   43.4729 H   0  0  0  0  0  0  0  0  0  0  0  0
   39.5439   29.5509   45.0551 H   0  0  0  0  0  0  0  0  0  0  0  0
   41.5148   27.9646   41.9335 H   0  0  0  0  0  0  0  0  0  0  0  0
   42.8530   29.1993   42.3731 H   0  0  0  0  0  0  0  0  0  0  0  0
   41.1164   30.6696   45.5478 C   0  0  0  0  0  0  0  0  0  0  0  0
   42.0039   31.7869   45.7138 C   0  0  0  0  0  0  0  0  0  0  0  0
   41.7526   32.5737   45.0308 H   0  0  0  0  0  0  0  0  0  0  0  0
   42.9647   31.6844   46.6511 C   0  0  0  0  0  0  0  0  0  0  0  0
   43.0646   30.4898   47.4320 C   0  0  0  0  0  0  0  0  0  0  0  0
   41.7670   29.4204   46.8639 S   0  0  0  0  0  0  0  0  0  0  0  0
   43.6221   32.5451   46.7549 H   0  0  0  0  0  0  0  0  0  0  0  0
   43.9056   30.4672   48.2134 H   0  0  0  0  0  0  0  0  0  0  0  0
  2  1  2  0
  3  2  1  0
  4  3  2  0
  4  5  1  0
  5  6  2  0
  6  1  1  0
  7  8  1  0
  7  3  1  0
  9  8  1  0
 10 11  1  0
 10  9  1  0
 11 12  1  6
 11  7  1  0
 12 14  1  0
 12 13  1  0
 15 12  1  0
 16 11  1  0
 17 16  1  0
 18 17  1  0
 19 18  2  0
 20 18  1  0
  1 21  1  0
  2 22  1  0
  5 23  1  0
  8 24  1  0
  8 25  1  0
  9 26  1  0
  9 27  1  0
 10 28  1  0
 10 29  1  0
 16 30  1  6
 20 31  1  0
 20 32  1  0
 33 34  2  0
 34 35  1  0
 34 36  1  0
 36 37  2  0
 37 38  1  0
 38 33  1  0
 36 39  1  0
 37 40  1  0
 16 33  1  0
M  ISO  8  21  14  22  14  23  14  24  13  25  13  26  13  27  13  28  13
M  ISO  3  29  13  30   8  35  15
M  END
>  <DihAtoms>  (1) 
10,15,32,33

>  <DihDeg>  (1) 
80.88491275247058

$$$$
