
 OpenBabel03272507393D

 31 33  0  0  0  0  0  0  0  0999 V2000
   38.1590   32.0410   46.9870 C   0  0  0  0  0  0  0  0  0  0  0  0
   37.8350   32.4810   48.2570 C   0  0  0  0  0  0  0  0  0  0  0  0
   38.6380   33.4030   48.9070 C   0  0  0  0  0  0  0  0  0  0  0  0
   39.7770   33.8870   48.2760 C   0  0  0  0  0  0  0  0  0  0  0  0
   40.0960   33.4450   47.0070 C   0  0  0  0  0  0  0  0  0  0  0  0
   39.2800   32.5300   46.3880 C   0  0  0  0  0  0  0  0  0  0  0  0
   38.4460   33.7880   49.8940 H   0  0  0  0  0  0  0  0  0  0  0  0
   40.4170   34.6140   48.7770 H   0  0  0  0  0  0  0  0  0  0  0  0
   40.9900   33.8500   46.5600 H   0  0  0  0  0  0  0  0  0  0  0  0
   39.6390   32.0780   45.0490 C   0  0  0  0  0  0  0  0  0  0  0  0
   40.4350   31.0370   44.6800 C   0  0  0  0  0  0  0  0  0  0  0  0
   40.8970   30.4170   45.4680 H   0  0  0  0  0  0  0  0  0  0  0  0
   40.6520   30.7700   43.3810 C   0  0  0  0  0  0  0  0  0  0  0  0
   40.0080   31.6280   42.4700 C   0  0  0  0  0  0  0  0  0  0  0  0
   39.0860   32.8260   43.5690 S   0  0  0  0  0  0  0  0  0  0  0  0
   36.5530   30.3510   45.9040 N   0  0  0  0  0  0  0  0  0  0  0  0
   37.2730   31.0970   46.3940 C   0  0  0  0  0  0  0  0  0  0  0  0
   36.7410   32.0880   48.9990 O   0  0  0  0  0  0  0  0  0  0  0  0
   36.7580   31.1270   49.9610 C   0  0  0  0  0  0  0  0  0  0  0  0
   35.5760   30.3840   49.9820 C   0  0  0  0  0  0  0  0  0  0  0  0
   35.4100   29.3640   50.8880 C   0  0  0  0  0  0  0  0  0  0  0  0
   36.4400   29.1160   51.7560 N   0  0  0  0  0  0  0  0  0  0  0  0
   37.5740   29.8410   51.7240 C   0  0  0  0  0  0  0  0  0  0  0  0
   37.7240   30.8200   50.8470 N   0  0  0  0  0  0  0  0  0  0  0  0
   34.5310   28.7400   50.9770 H   0  0  0  0  0  0  0  0  0  0  0  0
   38.4370   29.7270   52.3540 H   0  0  0  0  0  0  0  0  0  0  0  0
   34.0970   29.4820   48.2530 C   0  0  0  0  0  0  0  0  0  0  0  0
   34.6240   28.3410   47.9310 O   0  0  0  0  0  0  0  0  0  0  0  0
   34.4830   30.5440   49.1250 N   0  0  0  0  0  0  0  0  0  0  0  0
   33.4890   28.9390   47.5390 H   0  0  0  0  0  0  0  0  0  0  0  0
   33.7370   31.1530   48.7770 H   0  0  0  0  0  0  0  0  0  0  0  0
  1  2  1  0  0  0  0
  2  3  2  0  0  0  0
  2 18  1  0  0  0  0
  3  7  1  0  0  0  0
  4  8  1  0  0  0  0
  4  3  1  0  0  0  0
  5  4  2  0  0  0  0
  6  1  2  0  0  0  0
  6  5  1  0  0  0  0
  9  5  1  0  0  0  0
 10  6  1  0  0  0  0
 11 10  2  0  0  0  0
 11 12  1  0  0  0  0
 13 11  1  0  0  0  0
 14 13  2  0  0  0  0
 14 15  1  0  0  0  0
 15 10  1  0  0  0  0
 16 17  3  0  0  0  0
 17  1  1  0  0  0  0
 18 19  1  0  0  0  0
 19 20  2  0  0  0  0
 19 24  1  0  0  0  0
 20 21  1  0  0  0  0
 21 25  1  0  0  0  0
 21 22  2  0  0  0  0
 23 22  1  0  0  0  0
 23 26  1  0  0  0  0
 24 23  2  0  0  0  0
 27 29  1  0  0  0  0
 28 27  2  0  0  0  0
 29 20  1  0  0  0  0
 30 27  1  0  0  0  0
 31 29  1  0  0  0  0
M  END
>  <minimizedAffinity>
-5.50990582

>  <minimizedRMSD>
1.480178

$$$$
