
 OpenBabel03272507283D

 38 40  0  0  1  0  0  0  0  0999 V2000
   38.0720   30.6120   48.4620 C   0  0  0  0  0  0  0  0  0  0  0  0
   38.0530   30.9860   47.1020 C   0  0  0  0  0  0  0  0  0  0  0  0
   36.8690   30.7650   46.3990 C   0  0  0  0  0  0  0  0  0  0  0  0
   35.8220   30.2160   47.0390 N   0  0  0  0  0  0  0  0  0  0  0  0
   35.8740   29.8700   48.3410 C   0  0  0  0  0  0  0  0  0  0  0  0
   36.9880   30.0660   49.0440 N   0  0  0  0  0  0  0  0  0  0  0  0
   36.7650   31.1090   45.0560 N   0  0  0  0  0  0  0  0  0  0  0  0
   37.4640   32.2470   44.3970 C   0  0  0  0  0  0  0  0  0  0  0  0
   36.9030   32.4050   43.0460 C   0  0  0  0  0  0  0  0  0  0  0  0
   35.6240   31.6900   43.1210 C   0  0  0  0  0  0  0  0  0  0  0  0
   36.0010   30.5470   43.9910 C   0  0  2  0  0  0  0  0  0  0  0  0
   39.0490   30.8320   48.9060 H   0  0  0  0  0  0  0  0  0  0  0  0
   38.8590   31.4240   46.5530 H   0  0  0  0  0  0  0  0  0  0  0  0
   35.0790   29.4270   48.9200 H   0  0  0  0  0  0  0  0  0  0  0  0
   37.0140   33.1080   45.0660 H   0  0  0  0  0  0  0  0  0  0  0  0
   38.4970   32.3570   44.6070 H   0  0  0  0  0  0  0  0  0  0  0  0
   36.5530   33.5260   43.0210 H   0  0  0  0  0  0  0  0  0  0  0  0
   37.5130   32.3950   42.1770 H   0  0  0  0  0  0  0  0  0  0  0  0
   34.8040   32.2540   43.5740 H   0  0  0  0  0  0  0  0  0  0  0  0
   35.2810   31.3490   42.1070 H   0  0  0  0  0  0  0  0  0  0  0  0
   34.7550   29.7820   44.4350 C   0  0  0  0  0  0  0  0  0  0  0  0
   34.1340   30.5180   45.4270 F   0  0  0  0  0  0  0  0  0  0  0  0
   34.9800   28.5410   44.9530 F   0  0  0  0  0  0  0  0  0  0  0  0
   33.8910   29.7780   43.3630 F   0  0  0  0  0  0  0  0  0  0  0  0
   36.8410   29.5940   43.3100 C   0  0  2  0  0  0  0  0  0  0  0  0
   37.1490   28.7940   43.9710 H   0  0  0  0  0  0  0  0  0  0  0  0
   38.2700   30.0350   42.8900 C   0  0  0  0  0  0  0  0  0  0  0  0
   39.5230   29.9070   43.5800 C   0  0  0  0  0  0  0  0  0  0  0  0
   39.3700   29.5320   44.5730 H   0  0  0  0  0  0  0  0  0  0  0  0
   40.6390   30.2540   42.9130 C   0  0  0  0  0  3  0  0  0  0  0  0
   40.5390   30.7300   41.5680 C   0  0  0  0  0  3  0  0  0  0  0  0
   38.8100   30.7090   41.1660 S   0  0  0  0  0  0  0  0  0  0  0  0
   36.3430   29.3820   42.1760 O   0  0  0  0  0  0  0  0  0  0  0  0
   36.0500   28.3700   41.3440 C   0  0  0  0  0  0  0  0  0  0  0  0
   35.1030   28.6390   40.6000 O   0  0  0  0  0  0  0  0  0  0  0  0
   36.3500   27.0540   40.8950 N   0  0  0  0  0  0  0  0  0  0  0  0
   35.8230   26.2000   41.2330 H   0  0  0  0  0  0  0  0  0  0  0  0
   37.1330   27.0680   40.2150 H   0  0  0  0  0  0  0  0  0  0  0  0
  1 12  1  0  0  0  0
  1  6  1  0  0  0  0
  2  1  2  0  0  0  0
  3  4  2  0  0  0  0
  3  2  1  0  0  0  0
  4  5  1  0  0  0  0
  5 14  1  0  0  0  0
  5  6  2  0  0  0  0
  7  3  1  0  0  0  0
  8 16  1  0  0  0  0
  8  7  1  0  0  0  0
  8 15  1  0  0  0  0
  9 10  1  0  0  0  0
  9  8  1  0  0  0  0
 10 19  1  0  0  0  0
 10 11  1  0  0  0  0
 11 21  1  1  0  0  0
 11  7  1  0  0  0  0
 13  2  1  0  0  0  0
 17  9  1  0  0  0  0
 18  9  1  0  0  0  0
 20 10  1  0  0  0  0
 21 23  1  0  0  0  0
 21 22  1  0  0  0  0
 24 21  1  0  0  0  0
 25 26  1  1  0  0  0
 25 11  1  0  0  0  0
 27 25  1  0  0  0  0
 27 28  2  0  0  0  0
 28 29  1  0  0  0  0
 30 28  1  0  0  0  0
 31 30  2  0  0  0  0
 32 31  1  0  0  0  0
 32 27  1  0  0  0  0
 33 25  1  0  0  0  0
 34 33  1  0  0  0  0
 35 34  2  0  0  0  0
 36 37  1  0  0  0  0
 36 34  1  0  0  0  0
 38 36  1  0  0  0  0
M  END
>  <minimizedAffinity>
-3.85466814

>  <minimizedRMSD>
3.80938244

$$$$
