REMARK  Name = 
REMARK  5 active torsions:
REMARK  status: ('A' for Active; 'I' for Inactive)
REMARK    1  A    between atoms: C_1  and  C_4
REMARK    2  A    between atoms: C_2  and  C_11
REMARK    3  A    between atoms: C_10  and  O_15
REMARK    4  A    between atoms: C_14  and  O_16
REMARK    5  A    between atoms: O_16  and  C_30
REMARK                            x       y       z     vdW  Elec       q    Type
REMARK                         _______ _______ _______ _____ _____    ______ ____
ROOT
ATOM      1  C   UNL     1      33.954  29.087  47.377  0.00  0.00    +0.000 C 
ATOM      2  C   UNL     1      34.745  28.297  48.407  0.00  0.00    +0.000 C 
ATOM      3  O   UNL     1      33.868  28.064  49.433  0.00  0.00    +0.000 OA
ATOM      4  C   UNL     1      32.587  28.130  48.989  0.00  0.00    +0.000 C 
ATOM      5  C   UNL     1      32.614  28.374  47.510  0.00  0.00    +0.000 C 
ATOM      6  H   UNL     1      33.813  30.138  47.638  0.00  0.00    +0.000 HD
ATOM      7  H   UNL     1      35.056  27.344  47.938  0.00  0.00    +0.000 HD
ATOM      8  H   UNL     1      32.115  29.030  49.477  0.00  0.00    +0.000 HD
ATOM      9  H   UNL     1      31.950  27.266  49.267  0.00  0.00    +0.000 HD
ATOM     10  H   UNL     1      32.639  27.414  46.924  0.00  0.00    +0.000 HD
ENDROOT
BRANCH   2  12
ATOM     11  C   UNL     1      35.828  30.545  49.070  0.00  0.00    +0.000 C 
ATOM     12  C   UNL     1      35.909  29.115  48.854  0.00  0.00    +0.000 C 
ATOM     13  C   UNL     1      36.049  29.602  50.260  0.00  0.00    +0.000 C 
ATOM     14  H   UNL     1      34.904  31.141  49.248  0.00  0.00    +0.000 HD
ATOM     15  H   UNL     1      36.885  28.767  48.396  0.00  0.00    +0.000 HD
ATOM     16  H   UNL     1      37.019  29.609  50.755  0.00  0.00    +0.000 HD
ATOM     17  H   UNL     1      35.194  29.374  50.929  0.00  0.00    +0.000 HD
BRANCH  11  18
ATOM     18  C   UNL     1      37.006  31.449  48.825  0.00  0.00    +0.000 A 
ATOM     19  C   UNL     1      37.200  32.527  49.690  0.00  0.00    +0.000 A 
ATOM     20  C   UNL     1      38.273  33.342  49.418  0.00  0.00    +0.000 A 
ATOM     21  N   UNL     1      39.093  33.088  48.347  0.00  0.00    +0.000 NA
ATOM     22  C   UNL     1      38.872  32.027  47.527  0.00  0.00    +0.000 A 
ATOM     23  N   UNL     1      37.823  31.199  47.761  0.00  0.00    +0.000 NA
ATOM     24  H   UNL     1      36.561  32.738  50.531  0.00  0.00    +0.000 HD
ATOM     25  H   UNL     1      38.505  34.213  50.046  0.00  0.00    +0.000 HD
ATOM     26  H   UNL     1      39.506  31.795  46.667  0.00  0.00    +0.000 HD
ENDBRANCH  11  18
ENDBRANCH   2  12
BRANCH   1  27
ATOM     27  O   UNL     1      34.456  28.965  46.094  0.00  0.00    +0.000 OA
ATOM     28  H   UNL     1      35.035  28.137  46.044  0.00  0.00    +0.000 HD
ENDBRANCH   1  27
BRANCH   5  29
ATOM     29  O   UNL     1      31.570  29.161  47.061  0.00  0.00    +0.000 OA
BRANCH  29  30
ATOM     30  C   UNL     1      30.977  28.459  45.701  0.00  0.00    +0.000 A 
ATOM     31  C   UNL     1      31.570  29.613  44.885  0.00  0.00    +0.000 A 
ATOM     32  H   UNL     1      32.144  30.569  44.922  0.00  0.00    +0.000 HD
ATOM     33  C   UNL     1      31.411  29.623  43.540  0.00  0.00    +0.000 A 
ATOM     34  C   UNL     1      30.681  28.537  42.926  0.00  0.00    +0.000 A 
ATOM     35  S   UNL     1      30.231  27.476  44.447  0.00  0.00    +0.000 S 
ENDBRANCH  29  30
ENDBRANCH   5  29
TORSDOF 5
