
 OpenBabel03272507583D

 29 31  0  0  0  0  0  0  0  0999 V2000
   37.0250   31.3470   48.5840 C   0  0  0  0  0  0  0  0  0  0  0  0
   37.1930   32.2870   49.5960 C   0  0  0  0  0  0  0  0  0  0  0  0
   38.1330   33.2880   49.4450 C   0  0  0  0  0  0  0  0  0  0  0  0
   38.9030   33.3730   48.3190 C   0  0  0  0  0  0  0  0  0  0  0  0
   38.7140   32.4320   47.3390 C   0  0  0  0  0  0  0  0  0  0  0  0
   37.7950   31.4440   47.4730 N   0  0  0  0  0  0  0  0  0  0  0  0
   36.6690   32.3600   50.5420 H   0  0  0  0  0  0  0  0  0  0  0  0
   38.3310   34.0560   50.1740 H   0  0  0  0  0  0  0  0  0  0  0  0
   39.6680   34.0710   48.0350 H   0  0  0  0  0  0  0  0  0  0  0  0
   35.1670   28.5350   50.2160 C   0  0  0  0  0  0  0  0  0  0  0  0
   36.1890   29.4920   49.9430 C   0  0  0  0  0  0  0  0  0  0  0  0
   36.0060   30.3630   48.8860 C   0  0  0  0  0  0  0  0  0  0  0  0
   34.8610   30.2650   48.1570 N   0  0  0  0  0  0  0  0  0  0  0  0
   33.9080   29.3350   48.4500 C   0  0  0  0  0  0  0  0  0  0  0  0
   34.0520   28.4830   49.4600 N   0  0  0  0  0  0  0  0  0  0  0  0
   32.8020   29.4330   47.5400 N   0  0  0  0  0  0  0  0  0  0  0  0
   35.2650   27.8350   51.0320 H   0  0  0  0  0  0  0  0  0  0  0  0
   32.9610   29.0170   46.5820 H   0  0  0  0  0  0  0  0  0  0  0  0
   32.0740   29.9240   48.0880 H   0  0  0  0  0  0  0  0  0  0  0  0
   37.4010   29.5020   50.8140 C   0  0  0  0  0  0  0  0  0  0  0  0
   38.5380   29.8190   50.0790 F   0  0  0  0  0  0  0  0  0  0  0  0
   37.2220   30.4450   51.7850 F   0  0  0  0  0  0  0  0  0  0  0  0
   37.6330   28.2890   51.4270 F   0  0  0  0  0  0  0  0  0  0  0  0
   39.3800   32.2510   46.0170 C   0  0  0  0  0  0  0  0  0  0  0  0
   39.6230   31.0150   45.6120 C   0  0  0  0  0  0  0  0  0  0  0  0
   39.4340   30.0230   46.0590 H   0  0  0  0  0  0  0  0  0  0  0  0
   40.2100   30.6180   44.4620 C   0  0  0  0  0  3  0  0  0  0  0  0
   40.5590   31.8080   43.6810 C   0  0  0  0  0  3  0  0  0  0  0  0
   39.9640   33.2750   44.7760 S   0  0  0  0  0  0  0  0  0  0  0  0
  1 12  1  0  0  0  0
  1  2  1  0  0  0  0
  2  7  1  0  0  0  0
  3  2  2  0  0  0  0
  3  8  1  0  0  0  0
  4  3  1  0  0  0  0
  5  6  1  0  0  0  0
  5  4  2  0  0  0  0
  6  1  2  0  0  0  0
  9  4  1  0  0  0  0
 10 17  1  0  0  0  0
 11 10  1  0  0  0  0
 11 20  1  0  0  0  0
 12 11  2  0  0  0  0
 13 14  2  0  0  0  0
 13 12  1  0  0  0  0
 14 15  1  0  0  0  0
 15 10  2  0  0  0  0
 16 19  1  0  0  0  0
 16 14  1  0  0  0  0
 18 16  1  0  0  0  0
 20 23  1  0  0  0  0
 20 22  1  0  0  0  0
 21 20  1  0  0  0  0
 24  5  1  0  0  0  0
 25 24  2  0  0  0  0
 25 26  1  0  0  0  0
 27 25  1  0  0  0  0
 28 27  2  0  0  0  0
 28 29  1  0  0  0  0
 29 24  1  0  0  0  0
M  END
>  <minimizedAffinity>
-7.06700277

>  <minimizedRMSD>
0.666221559

$$$$
