
 OpenBabel03272510113D

 32 35  0  0  0  0  0  0  0  0999 V2000
   33.2880   28.4770   48.2280 C   0  0  0  0  0  0  0  0  0  0  0  0
   34.0870   27.9490   49.1840 C   0  0  0  0  0  0  0  0  0  0  0  0
   35.2610   28.5270   49.6350 C   0  0  0  0  0  0  0  0  0  0  0  0
   35.6800   29.7110   49.1080 C   0  0  0  0  0  0  0  0  0  0  0  0
   34.8570   30.2640   48.1180 C   0  0  0  0  0  0  0  0  0  0  0  0
   33.7230   29.6590   47.7150 N   0  0  0  0  0  0  0  0  0  0  0  0
   33.8360   27.0110   49.6600 H   0  0  0  0  0  0  0  0  0  0  0  0
   35.9000   28.1050   50.3980 H   0  0  0  0  0  0  0  0  0  0  0  0
   35.0810   31.2060   47.6200 H   0  0  0  0  0  0  0  0  0  0  0  0
   31.0990   27.3130   48.6120 C   0  0  0  0  0  0  0  0  0  0  0  0
   32.0720   27.8720   47.7650 C   0  0  0  0  0  0  0  0  0  0  0  0
   31.8100   27.8210   46.4020 C   0  0  0  0  0  0  0  0  0  0  0  0
   30.6660   27.2520   45.9480 N   0  0  0  0  0  0  0  0  0  0  0  0
   29.7630   26.7290   46.8140 C   0  0  0  0  0  0  0  0  0  0  0  0
   29.9730   26.7560   48.1320 N   0  0  0  0  0  0  0  0  0  0  0  0
   31.2700   27.3360   49.6670 H   0  0  0  0  0  0  0  0  0  0  0  0
   32.5340   28.2430   45.6880 H   0  0  0  0  0  0  0  0  0  0  0  0
   28.8640   26.2870   46.3840 H   0  0  0  0  0  0  0  0  0  0  0  0
   36.8280   30.4370   49.4370 O   0  0  0  0  0  0  0  0  0  0  0  0
   37.5110   31.1870   48.4950 C   0  0  0  0  0  0  0  0  0  0  0  0
   38.3540   32.1660   49.0380 C   0  0  0  0  0  0  0  0  0  0  0  0
   38.9820   32.8490   48.0180 C   0  0  0  0  0  0  0  0  0  0  0  0
   38.5100   32.2770   46.9020 N   0  0  0  0  0  0  0  0  0  0  0  0
   37.6580   31.3140   47.1700 N   0  0  0  0  0  0  0  0  0  0  0  0
   38.6000   32.4790   50.0680 H   0  0  0  0  0  0  0  0  0  0  0  0
   39.6980   33.6660   48.0280 H   0  0  0  0  0  0  0  0  0  0  0  0
   38.8010   32.5720   45.5200 C   0  0  0  0  0  0  0  0  0  0  0  0
   37.8490   32.3450   44.5660 C   0  0  0  0  0  0  0  0  0  0  0  0
   36.8470   31.9560   44.6700 H   0  0  0  0  0  0  0  0  0  0  0  0
   37.9890   32.5740   43.2560 C   0  0  0  0  0  3  0  0  0  0  0  0
   39.2890   33.1110   42.8760 C   0  0  0  0  0  3  0  0  0  0  0  0
   40.2300   33.2370   44.5520 S   0  0  0  0  0  0  0  0  0  0  0  0
  1  2  1  0  0  0  0
  2  3  2  0  0  0  0
  2  7  1  0  0  0  0
  3  8  1  0  0  0  0
  4 19  1  0  0  0  0
  4  3  1  0  0  0  0
  5  4  2  0  0  0  0
  6  5  1  0  0  0  0
  6  1  2  0  0  0  0
  9  5  1  0  0  0  0
 10 16  1  0  0  0  0
 11  1  1  0  0  0  0
 11 10  2  0  0  0  0
 12 11  1  0  0  0  0
 13 12  2  0  0  0  0
 13 14  1  0  0  0  0
 14 15  2  0  0  0  0
 15 10  1  0  0  0  0
 17 12  1  0  0  0  0
 18 14  1  0  0  0  0
 20 21  1  0  0  0  0
 20 19  1  0  0  0  0
 21 25  1  0  0  0  0
 22 26  1  0  0  0  0
 22 21  2  0  0  0  0
 23 24  1  0  0  0  0
 23 22  1  0  0  0  0
 24 20  2  0  0  0  0
 27 23  1  0  0  0  0
 28 29  1  0  0  0  0
 28 27  2  0  0  0  0
 30 28  1  0  0  0  0
 31 30  2  0  0  0  0
 31 32  1  0  0  0  0
 32 27  1  0  0  0  0
M  END
>  <minimizedAffinity>
-5.75184727

>  <minimizedRMSD>
1.60828531

$$$$
