
 OpenBabel03272502313D

 24 25  0  0  1  0  0  0  0  0999 V2000
   38.0040   30.8580   47.9400 C   0  0  2  0  0  0  0  0  0  0  0  0
   38.5270   30.0240   48.5420 H   0  0  0  0  0  0  0  0  0  0  0  0
   38.5300   32.0960   48.3890 C   0  0  0  0  0  0  0  0  0  0  0  0
   38.5860   32.9880   49.4860 C   0  0  0  0  0  0  0  0  0  0  0  0
   37.9990   32.5880   50.2820 H   0  0  0  0  0  0  0  0  0  0  0  0
   39.3300   34.1340   49.3630 C   0  0  0  0  0  3  0  0  0  0  0  0
   39.9980   34.3410   48.1280 C   0  0  0  0  0  3  0  0  0  0  0  0
   39.5440   32.8910   47.1660 S   0  0  0  0  0  0  0  0  0  0  0  0
   37.2760   30.5390   45.6890 C   0  0  0  0  0  3  0  0  0  0  0  0
   38.2900   30.5860   46.4950 C   0  0  0  0  0  3  0  0  0  0  0  0
   38.7460   29.3010   42.4890 C   0  0  0  0  0  0  0  0  0  0  0  0
   38.5580   29.6020   43.8410 C   0  0  0  0  0  0  0  0  0  0  0  0
   37.4190   30.2600   44.2890 C   0  0  0  0  0  0  0  0  0  0  0  0
   36.5140   30.5910   43.3550 N   0  0  0  0  0  0  0  0  0  0  0  0
   36.6850   30.3080   42.0640 C   0  0  0  0  0  0  0  0  0  0  0  0
   37.7830   29.6710   41.6150 N   0  0  0  0  0  0  0  0  0  0  0  0
   39.6290   28.7860   42.1540 H   0  0  0  0  0  0  0  0  0  0  0  0
   39.3590   29.2700   44.4780 H   0  0  0  0  0  0  0  0  0  0  0  0
   35.9140   30.6230   41.3920 H   0  0  0  0  0  0  0  0  0  0  0  0
   36.2290   30.6760   48.2100 S   0  0  0  0  0  0  0  0  0  0  0  0
   35.8820   30.0230   49.8430 C   0  0  0  0  0  0  0  0  0  0  0  0
   36.6720   30.6050   50.8270 F   0  0  0  0  0  0  0  0  0  0  0  0
   34.5380   30.0580   50.1560 F   0  0  0  0  0  0  0  0  0  0  0  0
   36.2150   28.6460   49.8110 F   0  0  0  0  0  0  0  0  0  0  0  0
  1 20  1  0  0  0  0
  1  3  1  0  0  0  0
  1  2  1  1  0  0  0
  3  4  2  0  0  0  0
  4  5  1  0  0  0  0
  6  4  1  0  0  0  0
  7  6  2  0  0  0  0
  8  7  1  0  0  0  0
  8  3  1  0  0  0  0
  9 10  2  0  0  0  0
 10  1  1  0  0  0  0
 11 12  1  0  0  0  0
 12 13  2  0  0  0  0
 12 18  1  0  0  0  0
 13  9  1  0  0  0  0
 14 13  1  0  0  0  0
 15 14  2  0  0  0  0
 16 15  1  0  0  0  0
 16 11  2  0  0  0  0
 17 11  1  0  0  0  0
 19 15  1  0  0  0  0
 20 21  1  0  0  0  0
 21 23  1  0  0  0  0
 21 22  1  0  0  0  0
 24 21  1  0  0  0  0
M  END
>  <minimizedAffinity>
-4.74978352

>  <minimizedRMSD>
3.31590223

$$$$
