
 OpenBabel03272504013D

 28 30  0  0  0  0  0  0  0  0999 V2000
   36.3110   28.3600   33.4380 C   0  0  0  0  0  0  0  0  0  0  0  0
   35.7100   28.0360   32.5390 H   0  0  0  0  0  0  0  0  0  0  0  0
   37.0560   29.0660   32.9340 H   0  0  0  0  0  0  0  0  0  0  0  0
   36.9610   27.1160   33.8490 C   0  0  0  0  0  0  0  0  0  0  0  0
   37.2300   26.1390   32.9170 C   0  0  0  0  0  0  0  0  0  0  0  0
   37.7990   25.0670   33.5550 C   0  0  0  0  0  0  0  0  0  0  0  0
   37.8720   25.3930   34.8450 N   0  0  0  0  0  0  0  0  0  0  0  0
   37.3650   26.6280   35.0030 N   0  0  0  0  0  0  0  0  0  0  0  0
   37.0640   26.1120   31.8400 H   0  0  0  0  0  0  0  0  0  0  0  0
   38.1400   24.1230   33.1520 H   0  0  0  0  0  0  0  0  0  0  0  0
   38.4100   24.5590   35.9240 C   0  0  0  0  0  0  0  0  0  0  0  0
   37.8370   24.4720   37.1740 C   0  0  0  0  0  0  0  0  0  0  0  0
   36.9440   25.0200   37.4400 H   0  0  0  0  0  0  0  0  0  0  0  0
   38.3790   23.6870   38.1250 C   0  0  0  0  0  3  0  0  0  0  0  0
   39.5690   22.9310   37.8330 C   0  0  0  0  0  3  0  0  0  0  0  0
   39.8690   23.4490   36.0140 S   0  0  0  0  0  0  0  0  0  0  0  0
   35.6040   29.0900   34.4890 C   0  0  0  0  0  0  0  0  0  0  0  0
   35.8830   28.6920   35.5130 H   0  0  0  0  0  0  0  0  0  0  0  0
   34.5020   28.8300   34.4350 H   0  0  0  0  0  0  0  0  0  0  0  0
   35.7180   30.5200   34.5540 C   0  0  0  0  0  0  0  0  0  0  0  0
   35.9410   31.1760   35.7280 C   0  0  0  0  0  0  0  0  0  0  0  0
   36.0540   32.5710   35.7910 C   0  0  0  0  0  0  0  0  0  0  0  0
   35.9200   33.2120   34.5730 N   0  0  0  0  0  0  0  0  0  0  0  0
   35.6990   32.5510   33.4150 C   0  0  0  0  0  0  0  0  0  0  0  0
   35.5980   31.1870   33.4210 N   0  0  0  0  0  0  0  0  0  0  0  0
   36.0620   30.7880   36.7260 H   0  0  0  0  0  0  0  0  0  0  0  0
   36.2280   33.1820   36.6550 H   0  0  0  0  0  0  0  0  0  0  0  0
   35.6070   33.1230   32.5130 H   0  0  0  0  0  0  0  0  0  0  0  0
  1  4  1  0  0  0  0
  1 17  1  0  0  0  0
  2  1  1  0  0  0  0
  3  1  1  0  0  0  0
  4  8  2  0  0  0  0
  5  6  2  0  0  0  0
  5  4  1  0  0  0  0
  6  7  1  0  0  0  0
  7  8  1  0  0  0  0
  7 11  1  0  0  0  0
  9  5  1  0  0  0  0
 10  6  1  0  0  0  0
 11 16  1  0  0  0  0
 11 12  2  0  0  0  0
 12 13  1  0  0  0  0
 12 14  1  0  0  0  0
 15 14  2  0  0  0  0
 16 15  1  0  0  0  0
 17 20  1  0  0  0  0
 17 18  1  0  0  0  0
 19 17  1  0  0  0  0
 20 21  1  0  0  0  0
 21 22  2  0  0  0  0
 21 26  1  0  0  0  0
 22 27  1  0  0  0  0
 23 22  1  0  0  0  0
 24 25  1  0  0  0  0
 24 23  2  0  0  0  0
 25 20  2  0  0  0  0
 28 24  1  0  0  0  0
M  END
>  <minimizedAffinity>
-4.64732838

$$$$

 OpenBabel03272504013D

 28 30  0  0  0  0  0  0  0  0999 V2000
   38.7490   25.8140   34.2160 C   0  0  0  0  0  0  0  0  0  0  0  0
   39.5200   26.3130   34.8710 H   0  0  0  0  0  0  0  0  0  0  0  0
   39.3750   25.6300   33.2770 H   0  0  0  0  0  0  0  0  0  0  0  0
   37.7760   26.8840   33.9980 C   0  0  0  0  0  0  0  0  0  0  0  0
   37.4390   27.2580   32.7160 C   0  0  0  0  0  0  0  0  0  0  0  0
   36.5480   28.2980   32.7800 C   0  0  0  0  0  0  0  0  0  0  0  0
   36.3530   28.5450   34.0750 N   0  0  0  0  0  0  0  0  0  0  0  0
   37.0970   27.6850   34.7920 N   0  0  0  0  0  0  0  0  0  0  0  0
   37.7610   26.8690   31.7490 H   0  0  0  0  0  0  0  0  0  0  0  0
   36.0680   28.8480   31.9820 H   0  0  0  0  0  0  0  0  0  0  0  0
   35.4770   29.5760   34.6410 C   0  0  0  0  0  0  0  0  0  0  0  0
   35.9430   30.6600   35.3520 C   0  0  0  0  0  0  0  0  0  0  0  0
   36.9950   30.8200   35.5390 H   0  0  0  0  0  0  0  0  0  0  0  0
   35.0880   31.5750   35.8480 C   0  0  0  0  0  3  0  0  0  0  0  0
   33.6730   31.4190   35.6330 C   0  0  0  0  0  3  0  0  0  0  0  0
   33.6550   29.7930   34.6220 S   0  0  0  0  0  0  0  0  0  0  0  0
   38.2020   24.5390   34.6770 C   0  0  0  0  0  0  0  0  0  0  0  0
   38.4960   23.6970   33.9770 H   0  0  0  0  0  0  0  0  0  0  0  0
   37.0770   24.5580   34.5530 H   0  0  0  0  0  0  0  0  0  0  0  0
   38.4930   24.0890   36.0100 C   0  0  0  0  0  0  0  0  0  0  0  0
   39.5440   23.2660   36.2840 C   0  0  0  0  0  0  0  0  0  0  0  0
   39.8280   22.8280   37.5840 C   0  0  0  0  0  0  0  0  0  0  0  0
   38.9570   23.2990   38.5500 N   0  0  0  0  0  0  0  0  0  0  0  0
   37.9170   24.1140   38.2660 C   0  0  0  0  0  0  0  0  0  0  0  0
   37.6940   24.5060   36.9750 N   0  0  0  0  0  0  0  0  0  0  0  0
   40.2820   22.8410   35.6230 H   0  0  0  0  0  0  0  0  0  0  0  0
   40.6230   22.1860   37.9070 H   0  0  0  0  0  0  0  0  0  0  0  0
   37.2880   24.4350   39.0730 H   0  0  0  0  0  0  0  0  0  0  0  0
  1 17  1  0  0  0  0
  1  2  1  0  0  0  0
  3  1  1  0  0  0  0
  4  1  1  0  0  0  0
  4  8  2  0  0  0  0
  5  6  2  0  0  0  0
  5  4  1  0  0  0  0
  6  7  1  0  0  0  0
  7 11  1  0  0  0  0
  7  8  1  0  0  0  0
  9  5  1  0  0  0  0
 10  6  1  0  0  0  0
 11 12  2  0  0  0  0
 12 13  1  0  0  0  0
 12 14  1  0  0  0  0
 15 14  2  0  0  0  0
 16 11  1  0  0  0  0
 16 15  1  0  0  0  0
 17 20  1  0  0  0  0
 18 17  1  0  0  0  0
 19 17  1  0  0  0  0
 20 21  2  0  0  0  0
 20 25  1  0  0  0  0
 21 22  1  0  0  0  0
 22 27  1  0  0  0  0
 22 23  2  0  0  0  0
 24 23  1  0  0  0  0
 24 28  1  0  0  0  0
 25 24  2  0  0  0  0
 26 21  1  0  0  0  0
M  END
>  <minimizedAffinity>
-4.63974571

$$$$

 OpenBabel03272504013D

 28 30  0  0  0  0  0  0  0  0999 V2000
   38.1930   26.0080   33.8710 C   0  0  0  0  0  0  0  0  0  0  0  0
   37.9680   26.9770   33.3380 H   0  0  0  0  0  0  0  0  0  0  0  0
   39.3200   25.9370   33.6840 H   0  0  0  0  0  0  0  0  0  0  0  0
   37.4640   25.0270   33.0670 C   0  0  0  0  0  0  0  0  0  0  0  0
   36.5570   25.4490   32.1220 C   0  0  0  0  0  0  0  0  0  0  0  0
   35.9840   24.3490   31.5380 C   0  0  0  0  0  0  0  0  0  0  0  0
   36.5360   23.2860   32.1200 N   0  0  0  0  0  0  0  0  0  0  0  0
   37.4250   23.7110   33.0350 N   0  0  0  0  0  0  0  0  0  0  0  0
   36.2630   26.4520   31.8090 H   0  0  0  0  0  0  0  0  0  0  0  0
   35.2330   24.2900   30.7620 H   0  0  0  0  0  0  0  0  0  0  0  0
   36.2380   21.8800   31.8260 C   0  0  0  0  0  0  0  0  0  0  0  0
   35.1180   21.2280   32.2930 C   0  0  0  0  0  0  0  0  0  0  0  0
   34.3800   21.7170   32.9120 H   0  0  0  0  0  0  0  0  0  0  0  0
   34.9000   19.9350   31.9870 C   0  0  0  0  0  3  0  0  0  0  0  0
   35.8460   19.2260   31.1650 C   0  0  0  0  0  3  0  0  0  0  0  0
   37.1300   20.6100   30.8460 S   0  0  0  0  0  0  0  0  0  0  0  0
   37.9480   25.9620   35.3110 C   0  0  0  0  0  0  0  0  0  0  0  0
   36.8370   25.9770   35.5310 H   0  0  0  0  0  0  0  0  0  0  0  0
   38.2870   26.9410   35.7700 H   0  0  0  0  0  0  0  0  0  0  0  0
   38.5090   24.8920   36.0870 C   0  0  0  0  0  0  0  0  0  0  0  0
   37.9170   24.4370   37.2280 C   0  0  0  0  0  0  0  0  0  0  0  0
   38.4640   23.3920   37.9850 C   0  0  0  0  0  0  0  0  0  0  0  0
   39.6420   22.8730   37.4780 N   0  0  0  0  0  0  0  0  0  0  0  0
   40.2200   23.3330   36.3460 C   0  0  0  0  0  0  0  0  0  0  0  0
   39.6350   24.3570   35.6520 N   0  0  0  0  0  0  0  0  0  0  0  0
   37.0110   24.7580   37.7140 H   0  0  0  0  0  0  0  0  0  0  0  0
   38.0840   22.9610   38.8900 H   0  0  0  0  0  0  0  0  0  0  0  0
   41.1330   22.8760   36.0200 H   0  0  0  0  0  0  0  0  0  0  0  0
  1 17  1  0  0  0  0
  2  1  1  0  0  0  0
  3  1  1  0  0  0  0
  4  1  1  0  0  0  0
  5  4  1  0  0  0  0
  6  7  1  0  0  0  0
  6  5  2  0  0  0  0
  7  8  1  0  0  0  0
  8  4  2  0  0  0  0
  9  5  1  0  0  0  0
 10  6  1  0  0  0  0
 11  7  1  0  0  0  0
 11 12  2  0  0  0  0
 12 13  1  0  0  0  0
 14 12  1  0  0  0  0
 15 14  2  0  0  0  0
 16 15  1  0  0  0  0
 16 11  1  0  0  0  0
 17 18  1  0  0  0  0
 17 19  1  0  0  0  0
 17 20  1  0  0  0  0
 20 21  1  0  0  0  0
 21 26  1  0  0  0  0
 21 22  2  0  0  0  0
 22 27  1  0  0  0  0
 23 22  1  0  0  0  0
 24 23  2  0  0  0  0
 25 20  2  0  0  0  0
 25 24  1  0  0  0  0
 28 24  1  0  0  0  0
M  END
>  <minimizedAffinity>
-4.62011957

$$$$

 OpenBabel03272504013D

 28 30  0  0  0  0  0  0  0  0999 V2000
   37.8190   26.5240   35.6900 C   0  0  0  0  0  0  0  0  0  0  0  0
   38.0250   27.1760   36.5870 H   0  0  0  0  0  0  0  0  0  0  0  0
   36.6760   26.4890   35.7290 H   0  0  0  0  0  0  0  0  0  0  0  0
   38.3980   25.2410   36.0900 C   0  0  0  0  0  0  0  0  0  0  0  0
   37.7740   24.4740   37.0490 C   0  0  0  0  0  0  0  0  0  0  0  0
   38.5280   23.3520   37.2740 C   0  0  0  0  0  0  0  0  0  0  0  0
   39.5840   23.4420   36.4670 N   0  0  0  0  0  0  0  0  0  0  0  0
   39.4890   24.5820   35.7610 N   0  0  0  0  0  0  0  0  0  0  0  0
   36.8460   24.6310   37.6000 H   0  0  0  0  0  0  0  0  0  0  0  0
   38.3570   22.5270   37.9530 H   0  0  0  0  0  0  0  0  0  0  0  0
   40.6770   22.4700   36.3520 C   0  0  0  0  0  0  0  0  0  0  0  0
   41.1980   21.7840   37.4270 C   0  0  0  0  0  0  0  0  0  0  0  0
   40.8290   21.9190   38.4330 H   0  0  0  0  0  0  0  0  0  0  0  0
   42.2020   20.9020   37.2570 C   0  0  0  0  0  3  0  0  0  0  0  0
   42.7370   20.6750   35.9400 C   0  0  0  0  0  3  0  0  0  0  0  0
   41.6470   21.8700   34.9140 S   0  0  0  0  0  0  0  0  0  0  0  0
   38.2330   27.0300   34.3820 C   0  0  0  0  0  0  0  0  0  0  0  0
   39.2200   26.5720   34.0670 H   0  0  0  0  0  0  0  0  0  0  0  0
   38.5110   28.1240   34.4870 H   0  0  0  0  0  0  0  0  0  0  0  0
   37.3420   26.9050   33.2630 C   0  0  0  0  0  0  0  0  0  0  0  0
   36.7730   27.9900   32.6650 C   0  0  0  0  0  0  0  0  0  0  0  0
   35.9040   27.8680   31.5730 C   0  0  0  0  0  0  0  0  0  0  0  0
   35.6790   26.5660   31.1640 N   0  0  0  0  0  0  0  0  0  0  0  0
   36.2480   25.4980   31.7650 C   0  0  0  0  0  0  0  0  0  0  0  0
   37.0880   25.6850   32.8280 N   0  0  0  0  0  0  0  0  0  0  0  0
   36.8730   29.0390   32.8930 H   0  0  0  0  0  0  0  0  0  0  0  0
   35.4060   28.6490   31.0330 H   0  0  0  0  0  0  0  0  0  0  0  0
   36.0210   24.5210   31.3850 H   0  0  0  0  0  0  0  0  0  0  0  0
  1  3  1  0  0  0  0
  1  4  1  0  0  0  0
  1  2  1  0  0  0  0
  4  5  1  0  0  0  0
  5  6  2  0  0  0  0
  5  9  1  0  0  0  0
  6 10  1  0  0  0  0
  7  6  1  0  0  0  0
  8  4  2  0  0  0  0
  8  7  1  0  0  0  0
 11  7  1  0  0  0  0
 11 12  2  0  0  0  0
 12 13  1  0  0  0  0
 14 12  1  0  0  0  0
 15 14  2  0  0  0  0
 16 15  1  0  0  0  0
 16 11  1  0  0  0  0
 17 19  1  0  0  0  0
 17  1  1  0  0  0  0
 18 17  1  0  0  0  0
 20 17  1  0  0  0  0
 21 26  1  0  0  0  0
 21 20  2  0  0  0  0
 22 21  1  0  0  0  0
 23 22  2  0  0  0  0
 23 24  1  0  0  0  0
 24 25  2  0  0  0  0
 25 20  1  0  0  0  0
 27 22  1  0  0  0  0
 28 24  1  0  0  0  0
M  END
>  <minimizedAffinity>
-4.60040188

$$$$

 OpenBabel03272504013D

 28 30  0  0  0  0  0  0  0  0999 V2000
   37.8860   26.3360   33.3140 C   0  0  0  0  0  0  0  0  0  0  0  0
   38.4210   26.5410   32.3420 H   0  0  0  0  0  0  0  0  0  0  0  0
   37.2800   25.4130   33.0160 H   0  0  0  0  0  0  0  0  0  0  0  0
   37.0230   27.5090   33.4540 C   0  0  0  0  0  0  0  0  0  0  0  0
   36.4930   28.1120   32.3350 C   0  0  0  0  0  0  0  0  0  0  0  0
   35.7610   29.2020   32.7260 C   0  0  0  0  0  0  0  0  0  0  0  0
   35.8480   29.2550   34.0550 N   0  0  0  0  0  0  0  0  0  0  0  0
   36.6080   28.2290   34.4750 N   0  0  0  0  0  0  0  0  0  0  0  0
   36.5750   27.8560   31.2770 H   0  0  0  0  0  0  0  0  0  0  0  0
   35.2050   29.9130   32.1300 H   0  0  0  0  0  0  0  0  0  0  0  0
   35.2260   30.2550   34.9280 C   0  0  0  0  0  0  0  0  0  0  0  0
   35.9450   31.1300   35.7120 C   0  0  0  0  0  0  0  0  0  0  0  0
   37.0250   31.1350   35.7330 H   0  0  0  0  0  0  0  0  0  0  0  0
   35.3150   32.0280   36.4950 C   0  0  0  0  0  3  0  0  0  0  0  0
   33.8760   32.0730   36.5120 C   0  0  0  0  0  3  0  0  0  0  0  0
   33.4720   30.6740   35.2700 S   0  0  0  0  0  0  0  0  0  0  0  0
   38.7090   26.0070   34.4760 C   0  0  0  0  0  0  0  0  0  0  0  0
   38.8370   26.9100   35.1480 H   0  0  0  0  0  0  0  0  0  0  0  0
   39.7730   25.8270   34.1300 H   0  0  0  0  0  0  0  0  0  0  0  0
   38.3280   24.9110   35.3220 C   0  0  0  0  0  0  0  0  0  0  0  0
   38.0630   25.0790   36.6490 C   0  0  0  0  0  0  0  0  0  0  0  0
   37.6900   24.0090   37.4740 C   0  0  0  0  0  0  0  0  0  0  0  0
   37.6170   22.7870   36.8300 N   0  0  0  0  0  0  0  0  0  0  0  0
   37.8830   22.6330   35.5140 C   0  0  0  0  0  0  0  0  0  0  0  0
   38.2430   23.7180   34.7620 N   0  0  0  0  0  0  0  0  0  0  0  0
   38.0850   25.9710   37.2530 H   0  0  0  0  0  0  0  0  0  0  0  0
   37.4600   24.0310   38.5210 H   0  0  0  0  0  0  0  0  0  0  0  0
   37.8040   21.6510   35.0910 H   0  0  0  0  0  0  0  0  0  0  0  0
  1  4  1  0  0  0  0
  1 17  1  0  0  0  0
  2  1  1  0  0  0  0
  3  1  1  0  0  0  0
  4  8  2  0  0  0  0
  5  6  2  0  0  0  0
  5  4  1  0  0  0  0
  6  7  1  0  0  0  0
  7  8  1  0  0  0  0
  7 11  1  0  0  0  0
  9  5  1  0  0  0  0
 10  6  1  0  0  0  0
 11 16  1  0  0  0  0
 11 12  2  0  0  0  0
 12 13  1  0  0  0  0
 12 14  1  0  0  0  0
 14 15  2  0  0  0  0
 16 15  1  0  0  0  0
 17 18  1  0  0  0  0
 17 20  1  0  0  0  0
 19 17  1  0  0  0  0
 20 21  1  0  0  0  0
 21 26  1  0  0  0  0
 21 22  2  0  0  0  0
 22 27  1  0  0  0  0
 23 22  1  0  0  0  0
 24 23  2  0  0  0  0
 25 20  2  0  0  0  0
 25 24  1  0  0  0  0
 28 24  1  0  0  0  0
M  END
>  <minimizedAffinity>
-4.58216524

$$$$

 OpenBabel03272504013D

 28 30  0  0  0  0  0  0  0  0999 V2000
   38.1580   26.7700   35.5790 C   0  0  0  0  0  0  0  0  0  0  0  0
   37.8580   27.6110   36.2680 H   0  0  0  0  0  0  0  0  0  0  0  0
   39.2890   26.7670   35.7510 H   0  0  0  0  0  0  0  0  0  0  0  0
   37.8280   27.3080   34.2590 C   0  0  0  0  0  0  0  0  0  0  0  0
   36.6260   27.9490   34.0590 C   0  0  0  0  0  0  0  0  0  0  0  0
   36.5390   28.3210   32.7420 C   0  0  0  0  0  0  0  0  0  0  0  0
   37.6670   27.9120   32.1620 N   0  0  0  0  0  0  0  0  0  0  0  0
   38.4300   27.3070   33.0890 N   0  0  0  0  0  0  0  0  0  0  0  0
   35.8120   28.1770   34.7480 H   0  0  0  0  0  0  0  0  0  0  0  0
   35.7470   28.8400   32.2200 H   0  0  0  0  0  0  0  0  0  0  0  0
   38.0320   28.0840   30.7520 C   0  0  0  0  0  0  0  0  0  0  0  0
   37.3130   28.8610   29.8720 C   0  0  0  0  0  0  0  0  0  0  0  0
   36.4240   29.4000   30.1680 H   0  0  0  0  0  0  0  0  0  0  0  0
   37.7000   28.9800   28.5870 C   0  0  0  0  0  3  0  0  0  0  0  0
   38.8760   28.2880   28.1290 C   0  0  0  0  0  3  0  0  0  0  0  0
   39.4140   27.4140   29.7460 S   0  0  0  0  0  0  0  0  0  0  0  0
   37.6300   25.4390   35.8760 C   0  0  0  0  0  0  0  0  0  0  0  0
   37.2450   24.9390   34.9350 H   0  0  0  0  0  0  0  0  0  0  0  0
   36.6790   25.5510   36.4820 H   0  0  0  0  0  0  0  0  0  0  0  0
   38.4690   24.4820   36.5420 C   0  0  0  0  0  0  0  0  0  0  0  0
   39.5400   23.9050   35.9260 C   0  0  0  0  0  0  0  0  0  0  0  0
   40.3580   22.9720   36.5760 C   0  0  0  0  0  0  0  0  0  0  0  0
   39.9850   22.6920   37.8780 N   0  0  0  0  0  0  0  0  0  0  0  0
   38.9210   23.2690   38.4780 C   0  0  0  0  0  0  0  0  0  0  0  0
   38.1610   24.1740   37.7880 N   0  0  0  0  0  0  0  0  0  0  0  0
   39.9230   24.0440   34.9290 H   0  0  0  0  0  0  0  0  0  0  0  0
   41.2180   22.4630   36.1880 H   0  0  0  0  0  0  0  0  0  0  0  0
   38.6990   22.9970   39.4910 H   0  0  0  0  0  0  0  0  0  0  0  0
  1  3  1  0  0  0  0
  1 17  1  0  0  0  0
  1  2  1  0  0  0  0
  4  1  1  0  0  0  0
  5  4  1  0  0  0  0
  5  9  1  0  0  0  0
  6  5  2  0  0  0  0
  7  6  1  0  0  0  0
  7  8  1  0  0  0  0
  8  4  2  0  0  0  0
 10  6  1  0  0  0  0
 11  7  1  0  0  0  0
 12 13  1  0  0  0  0
 12 11  2  0  0  0  0
 14 12  1  0  0  0  0
 15 14  2  0  0  0  0
 15 16  1  0  0  0  0
 16 11  1  0  0  0  0
 17 19  1  0  0  0  0
 17 20  1  0  0  0  0
 18 17  1  0  0  0  0
 20 25  1  0  0  0  0
 21 20  2  0  0  0  0
 21 22  1  0  0  0  0
 22 23  2  0  0  0  0
 23 24  1  0  0  0  0
 24 28  1  0  0  0  0
 25 24  2  0  0  0  0
 26 21  1  0  0  0  0
 27 22  1  0  0  0  0
M  END
>  <minimizedAffinity>
-4.54966879

$$$$

 OpenBabel03272504013D

 28 30  0  0  0  0  0  0  0  0999 V2000
   37.9780   27.5060   35.6390 C   0  0  0  0  0  0  0  0  0  0  0  0
   37.2510   27.1910   36.4420 H   0  0  0  0  0  0  0  0  0  0  0  0
   38.4280   28.4350   36.1330 H   0  0  0  0  0  0  0  0  0  0  0  0
   37.0910   27.8750   34.5360 C   0  0  0  0  0  0  0  0  0  0  0  0
   37.2710   27.3140   33.2910 C   0  0  0  0  0  0  0  0  0  0  0  0
   36.3480   27.8480   32.4300 C   0  0  0  0  0  0  0  0  0  0  0  0
   35.6270   28.7130   33.1420 N   0  0  0  0  0  0  0  0  0  0  0  0
   36.0860   28.7150   34.4060 N   0  0  0  0  0  0  0  0  0  0  0  0
   37.9860   26.5710   32.9370 H   0  0  0  0  0  0  0  0  0  0  0  0
   36.1870   27.6510   31.3780 H   0  0  0  0  0  0  0  0  0  0  0  0
   34.5150   29.5330   32.6490 C   0  0  0  0  0  0  0  0  0  0  0  0
   33.2110   29.3670   33.0570 C   0  0  0  0  0  0  0  0  0  0  0  0
   32.9200   28.6130   33.7750 H   0  0  0  0  0  0  0  0  0  0  0  0
   32.2320   30.1530   32.5670 C   0  0  0  0  0  3  0  0  0  0  0  0
   32.5530   31.1770   31.6070 C   0  0  0  0  0  3  0  0  0  0  0  0
   34.4450   30.9210   31.4500 S   0  0  0  0  0  0  0  0  0  0  0  0
   39.0560   26.5760   35.3080 C   0  0  0  0  0  0  0  0  0  0  0  0
   40.0510   26.9600   35.6900 H   0  0  0  0  0  0  0  0  0  0  0  0
   39.2190   26.5900   34.1870 H   0  0  0  0  0  0  0  0  0  0  0  0
   38.9540   25.2040   35.7230 C   0  0  0  0  0  0  0  0  0  0  0  0
   37.9200   24.7540   36.4880 C   0  0  0  0  0  0  0  0  0  0  0  0
   37.8210   23.4150   36.8920 C   0  0  0  0  0  0  0  0  0  0  0  0
   38.8520   22.6060   36.4500 N   0  0  0  0  0  0  0  0  0  0  0  0
   39.8720   23.0640   35.6920 C   0  0  0  0  0  0  0  0  0  0  0  0
   39.9110   24.3830   35.3310 N   0  0  0  0  0  0  0  0  0  0  0  0
   37.0710   25.2830   36.8870 H   0  0  0  0  0  0  0  0  0  0  0  0
   37.0560   22.9600   37.4900 H   0  0  0  0  0  0  0  0  0  0  0  0
   40.6320   22.3710   35.3900 H   0  0  0  0  0  0  0  0  0  0  0  0
  1  3  1  0  0  0  0
  1  2  1  0  0  0  0
  4  1  1  0  0  0  0
  5  4  1  0  0  0  0
  6  7  1  0  0  0  0
  6  5  2  0  0  0  0
  7  8  1  0  0  0  0
  8  4  2  0  0  0  0
  9  5  1  0  0  0  0
 10  6  1  0  0  0  0
 11 12  2  0  0  0  0
 11  7  1  0  0  0  0
 12 13  1  0  0  0  0
 14 12  1  0  0  0  0
 15 14  2  0  0  0  0
 16 15  1  0  0  0  0
 16 11  1  0  0  0  0
 17  1  1  0  0  0  0
 17 18  1  0  0  0  0
 17 20  1  0  0  0  0
 19 17  1  0  0  0  0
 20 21  1  0  0  0  0
 21 26  1  0  0  0  0
 21 22  2  0  0  0  0
 22 27  1  0  0  0  0
 23 22  1  0  0  0  0
 24 23  2  0  0  0  0
 25 24  1  0  0  0  0
 25 20  2  0  0  0  0
 28 24  1  0  0  0  0
M  END
>  <minimizedAffinity>
-4.48475456

$$$$

 OpenBabel03272504013D

 28 30  0  0  0  0  0  0  0  0999 V2000
   36.6490   23.7340   31.2170 C   0  0  0  0  0  0  0  0  0  0  0  0
   37.5120   23.3860   30.5780 H   0  0  0  0  0  0  0  0  0  0  0  0
   36.3760   24.7010   30.6710 H   0  0  0  0  0  0  0  0  0  0  0  0
   37.2970   24.0180   32.4970 C   0  0  0  0  0  0  0  0  0  0  0  0
   37.4490   25.3200   32.9180 C   0  0  0  0  0  0  0  0  0  0  0  0
   38.1150   25.3210   34.1160 C   0  0  0  0  0  0  0  0  0  0  0  0
   38.3580   24.0450   34.4110 N   0  0  0  0  0  0  0  0  0  0  0  0
   37.8580   23.2750   33.4290 N   0  0  0  0  0  0  0  0  0  0  0  0
   37.1380   26.2610   32.4620 H   0  0  0  0  0  0  0  0  0  0  0  0
   38.4120   26.1520   34.7420 H   0  0  0  0  0  0  0  0  0  0  0  0
   39.0520   23.5440   35.6020 C   0  0  0  0  0  0  0  0  0  0  0  0
   38.5190   23.6030   36.8710 C   0  0  0  0  0  0  0  0  0  0  0  0
   37.5440   24.0250   37.0700 H   0  0  0  0  0  0  0  0  0  0  0  0
   39.2060   23.1250   37.9270 C   0  0  0  0  0  3  0  0  0  0  0  0
   40.5100   22.5490   37.7280 C   0  0  0  0  0  3  0  0  0  0  0  0
   40.6900   22.7480   35.8320 S   0  0  0  0  0  0  0  0  0  0  0  0
   35.4690   22.8730   31.2750 C   0  0  0  0  0  0  0  0  0  0  0  0
   34.7810   23.0720   30.3980 H   0  0  0  0  0  0  0  0  0  0  0  0
   34.8260   23.1950   32.1500 H   0  0  0  0  0  0  0  0  0  0  0  0
   35.6390   21.4490   31.3530 C   0  0  0  0  0  0  0  0  0  0  0  0
   34.7950   20.6560   32.0720 C   0  0  0  0  0  0  0  0  0  0  0  0
   34.9610   19.2670   32.1470 C   0  0  0  0  0  0  0  0  0  0  0  0
   36.0430   18.7800   31.4360 N   0  0  0  0  0  0  0  0  0  0  0  0
   36.8730   19.5760   30.7260 C   0  0  0  0  0  0  0  0  0  0  0  0
   36.6570   20.9260   30.6930 N   0  0  0  0  0  0  0  0  0  0  0  0
   33.9290   20.9190   32.6580 H   0  0  0  0  0  0  0  0  0  0  0  0
   34.3600   18.5570   32.6800 H   0  0  0  0  0  0  0  0  0  0  0  0
   37.6890   19.1180   30.2020 H   0  0  0  0  0  0  0  0  0  0  0  0
  1 17  1  0  0  0  0
  1  4  1  0  0  0  0
  2  1  1  0  0  0  0
  3  1  1  0  0  0  0
  4  5  1  0  0  0  0
  4  8  2  0  0  0  0
  5  6  2  0  0  0  0
  6  7  1  0  0  0  0
  6 10  1  0  0  0  0
  7 11  1  0  0  0  0
  8  7  1  0  0  0  0
  9  5  1  0  0  0  0
 11 16  1  0  0  0  0
 11 12  2  0  0  0  0
 12 13  1  0  0  0  0
 12 14  1  0  0  0  0
 15 14  2  0  0  0  0
 16 15  1  0  0  0  0
 17 20  1  0  0  0  0
 17 19  1  0  0  0  0
 18 17  1  0  0  0  0
 20 21  1  0  0  0  0
 21 22  2  0  0  0  0
 21 26  1  0  0  0  0
 22 27  1  0  0  0  0
 23 22  1  0  0  0  0
 24 23  2  0  0  0  0
 25 24  1  0  0  0  0
 25 20  2  0  0  0  0
 28 24  1  0  0  0  0
M  END
>  <minimizedAffinity>
-4.48231983

$$$$

 OpenBabel03272504013D

 28 30  0  0  0  0  0  0  0  0999 V2000
   35.5140   31.0060   33.2650 C   0  0  0  0  0  0  0  0  0  0  0  0
   34.4980   31.2880   32.8640 H   0  0  0  0  0  0  0  0  0  0  0  0
   36.1340   31.8810   32.8680 H   0  0  0  0  0  0  0  0  0  0  0  0
   35.8140   29.7750   32.5330 C   0  0  0  0  0  0  0  0  0  0  0  0
   36.1680   29.8340   31.2040 C   0  0  0  0  0  0  0  0  0  0  0  0
   36.3560   28.5570   30.7410 C   0  0  0  0  0  0  0  0  0  0  0  0
   36.1200   27.7460   31.7720 N   0  0  0  0  0  0  0  0  0  0  0  0
   35.7970   28.4950   32.8410 N   0  0  0  0  0  0  0  0  0  0  0  0
   36.3050   30.6850   30.5360 H   0  0  0  0  0  0  0  0  0  0  0  0
   36.6370   28.2120   29.7550 H   0  0  0  0  0  0  0  0  0  0  0  0
   36.1950   26.2820   31.7620 C   0  0  0  0  0  0  0  0  0  0  0  0
   35.3250   25.4830   31.0530 C   0  0  0  0  0  0  0  0  0  0  0  0
   34.5250   25.8900   30.4510 H   0  0  0  0  0  0  0  0  0  0  0  0
   35.4460   24.1410   31.0830 C   0  0  0  0  0  3  0  0  0  0  0  0
   36.4930   23.5360   31.8640 C   0  0  0  0  0  3  0  0  0  0  0  0
   37.3310   25.0990   32.5860 S   0  0  0  0  0  0  0  0  0  0  0  0
   35.6670   30.9380   34.7170 C   0  0  0  0  0  0  0  0  0  0  0  0
   36.4090   31.7130   35.0810 H   0  0  0  0  0  0  0  0  0  0  0  0
   36.1940   29.9720   34.9840 H   0  0  0  0  0  0  0  0  0  0  0  0
   34.5040   31.0530   35.5540 C   0  0  0  0  0  0  0  0  0  0  0  0
   34.4240   31.9690   36.5600 C   0  0  0  0  0  0  0  0  0  0  0  0
   33.2900   32.0820   37.3750 C   0  0  0  0  0  0  0  0  0  0  0  0
   32.2760   31.1920   37.0710 N   0  0  0  0  0  0  0  0  0  0  0  0
   32.3670   30.2880   36.0710 C   0  0  0  0  0  0  0  0  0  0  0  0
   33.5020   30.2290   35.3110 N   0  0  0  0  0  0  0  0  0  0  0  0
   35.1410   32.7060   36.8860 H   0  0  0  0  0  0  0  0  0  0  0  0
   33.1240   32.7620   38.1870 H   0  0  0  0  0  0  0  0  0  0  0  0
   31.5350   29.6340   35.9010 H   0  0  0  0  0  0  0  0  0  0  0  0
  1 17  1  0  0  0  0
  2  1  1  0  0  0  0
  3  1  1  0  0  0  0
  4  8  2  0  0  0  0
  4  1  1  0  0  0  0
  5  4  1  0  0  0  0
  6  5  2  0  0  0  0
  6  7  1  0  0  0  0
  7  8  1  0  0  0  0
  9  5  1  0  0  0  0
 10  6  1  0  0  0  0
 11  7  1  0  0  0  0
 11 16  1  0  0  0  0
 12 14  1  0  0  0  0
 12 11  2  0  0  0  0
 13 12  1  0  0  0  0
 14 15  2  0  0  0  0
 15 16  1  0  0  0  0
 17 19  1  0  0  0  0
 17 18  1  0  0  0  0
 17 20  1  0  0  0  0
 20 21  1  0  0  0  0
 21 26  1  0  0  0  0
 21 22  2  0  0  0  0
 22 27  1  0  0  0  0
 23 22  1  0  0  0  0
 24 23  2  0  0  0  0
 25 20  2  0  0  0  0
 25 24  1  0  0  0  0
 28 24  1  0  0  0  0
M  END
>  <minimizedAffinity>
-4.43258572

$$$$
