
 OpenBabel03272504273D

 39 42  0  0  0  0  0  0  0  0999 V2000
   34.6230   29.2950   48.0660 C   0  0  0  0  0  0  0  0  0  0  0  0
   34.6640   28.0040   48.4620 C   0  0  0  0  0  0  0  0  0  0  0  0
   33.7370   27.1270   48.0570 C   0  0  0  0  0  0  0  0  0  0  0  0
   32.7420   27.5520   47.2320 N   0  0  0  0  0  0  0  0  0  0  0  0
   32.7140   28.8240   46.8500 C   0  0  0  0  0  0  0  0  0  0  0  0
   33.6380   29.7090   47.2520 N   0  0  0  0  0  0  0  0  0  0  0  0
   35.4850   27.7360   49.1200 H   0  0  0  0  0  0  0  0  0  0  0  0
   33.8050   26.0990   48.3980 H   0  0  0  0  0  0  0  0  0  0  0  0
   30.3090   28.9850   46.3740 C   0  0  0  0  0  0  0  0  0  0  0  0
   31.6300   29.1600   45.9570 C   0  0  0  0  0  0  0  0  0  0  0  0
   31.9890   29.6260   44.7060 C   0  0  0  0  0  0  0  0  0  0  0  0
   31.0010   29.9410   43.7990 C   0  0  0  0  0  0  0  0  0  0  0  0
   29.6700   29.7960   44.1230 C   0  0  0  0  0  0  0  0  0  0  0  0
   29.4140   29.3340   45.3720 C   0  0  0  0  0  0  0  0  0  0  0  0
   33.0270   29.7470   44.4280 H   0  0  0  0  0  0  0  0  0  0  0  0
   31.2910   30.3030   42.8220 H   0  0  0  0  0  0  0  0  0  0  0  0
   28.8750   30.0320   43.4350 H   0  0  0  0  0  0  0  0  0  0  0  0
   28.3500   29.2200   45.6300 H   0  0  0  0  0  0  0  0  0  0  0  0
   29.8360   28.4480   47.8790 S   0  0  0  0  0  0  0  0  0  0  0  0
   29.3960   27.0140   47.4340 O   0  0  0  0  0  0  0  0  0  0  0  0
   28.6050   29.2280   48.2650 O   0  0  0  0  0  0  0  0  0  0  0  0
   30.1390   27.8450   49.3260 C   0  0  0  0  0  0  0  0  0  0  0  0
   29.7270   26.5700   49.7740 F   0  0  0  0  0  0  0  0  0  0  0  0
   29.2490   28.4690   50.3200 F   0  0  0  0  0  0  0  0  0  0  0  0
   31.2190   28.3270   50.1270 F   0  0  0  0  0  0  0  0  0  0  0  0
   36.6430   31.5990   50.0860 C   0  0  0  0  0  0  0  0  0  0  0  0
   37.5570   32.1140   49.1440 C   0  0  0  0  0  0  0  0  0  0  0  0
   37.4440   31.6490   47.8420 C   0  0  0  0  0  0  0  0  0  0  0  0
   36.4860   30.7460   47.5440 N   0  0  0  0  0  0  0  0  0  0  0  0
   35.6180   30.2700   48.4860 C   0  0  0  0  0  0  0  0  0  0  0  0
   35.7080   30.7030   49.7470 N   0  0  0  0  0  0  0  0  0  0  0  0
   36.7110   31.9470   51.1040 H   0  0  0  0  0  0  0  0  0  0  0  0
   38.2880   32.8340   49.4750 H   0  0  0  0  0  0  0  0  0  0  0  0
   38.3290   32.1230   46.8360 C   0  0  0  0  0  0  0  0  0  0  0  0
   39.5450   32.7010   46.8440 C   0  0  0  0  0  0  0  0  0  0  0  0
   39.9750   32.8540   47.8280 H   0  0  0  0  0  0  0  0  0  0  0  0
   40.1850   33.0640   45.7150 C   0  0  0  0  0  0  0  0  0  0  0  0
   39.4750   32.7890   44.4970 C   0  0  0  0  0  0  0  0  0  0  0  0
   37.8790   31.9980   45.1140 S   0  0  0  0  0  0  0  0  0  0  0  0
  1  2  1  0  0  0  0
  1 30  1  0  0  0  0
  2  7  1  0  0  0  0
  3  8  1  0  0  0  0
  3  2  2  0  0  0  0
  4  3  1  0  0  0  0
  5  4  2  0  0  0  0
  5  6  1  0  0  0  0
  6  1  2  0  0  0  0
  9 19  1  0  0  0  0
 10  9  1  0  0  0  0
 10  5  1  0  0  0  0
 11 10  2  0  0  0  0
 12 13  2  0  0  0  0
 12 11  1  0  0  0  0
 13 14  1  0  0  0  0
 14 18  1  0  0  0  0
 14  9  2  0  0  0  0
 15 11  1  0  0  0  0
 16 12  1  0  0  0  0
 17 13  1  0  0  0  0
 19 21  2  0  0  0  0
 19 22  1  0  0  0  0
 20 19  2  0  0  0  0
 22 23  1  0  0  0  0
 22 25  1  0  0  0  0
 22 24  1  0  0  0  0
 26 32  1  0  0  0  0
 27 33  1  0  0  0  0
 27 26  2  0  0  0  0
 28 27  1  0  0  0  0
 29 28  2  0  0  0  0
 29 30  1  0  0  0  0
 30 31  2  0  0  0  0
 31 26  1  0  0  0  0
 34 35  2  0  0  0  0
 34 28  1  0  0  0  0
 35 36  1  0  0  0  0
 37 35  1  0  0  0  0
 38 39  1  0  0  0  0
 38 37  2  0  0  0  0
 39 34  1  0  0  0  0
M  END
>  <minimizedAffinity>
-6.59402943

>  <minimizedRMSD>
1.76741278

$$$$
