
 OpenBabel03272508463D

 24 26  0  0  0  0  0  0  0  0999 V2000
   38.0740   25.4690   35.8360 C   0  0  0  0  0  0  0  0  0  0  0  0
   38.3550   26.6780   36.4250 C   0  0  0  0  0  0  0  0  0  0  0  0
   38.0380   27.6030   35.4400 C   0  0  0  0  0  0  0  0  0  0  0  0
   37.5920   26.9280   34.3310 C   0  0  0  0  0  0  0  0  0  0  0  0
   37.6290   25.6600   34.6070 O   0  0  0  0  0  0  0  0  0  0  0  0
   38.7260   26.9200   37.3920 H   0  0  0  0  0  0  0  0  0  0  0  0
   38.0920   28.6860   35.4360 H   0  0  0  0  0  0  0  0  0  0  0  0
   37.1480   27.4250   33.0640 C   0  0  0  0  0  0  0  0  0  0  0  0
   36.2820   28.4560   32.8050 C   0  0  0  0  0  0  0  0  0  0  0  0
   35.8470   29.0010   33.6290 H   0  0  0  0  0  0  0  0  0  0  0  0
   35.9500   28.8210   31.5360 C   0  0  0  0  0  3  0  0  0  0  0  0
   36.5820   28.0340   30.4580 C   0  0  0  0  0  3  0  0  0  0  0  0
   37.6280   26.8060   31.4260 S   0  0  0  0  0  0  0  0  0  0  0  0
   38.2470   24.1580   36.4840 C   0  0  0  0  0  0  0  0  0  0  0  0
   37.2380   23.6330   37.0080 O   0  0  0  0  0  0  0  0  0  0  0  0
   40.9650   21.9770   37.4900 C   0  0  0  0  0  0  0  0  0  0  0  0
   41.9860   22.2770   36.5860 C   0  0  0  0  0  0  0  0  0  0  0  0
   41.7440   23.2370   35.6170 C   0  0  0  0  0  0  0  0  0  0  0  0
   40.5260   23.8380   35.5970 N   0  0  0  0  0  0  0  0  0  0  0  0
   39.5590   23.5200   36.4940 C   0  0  0  0  0  0  0  0  0  0  0  0
   39.7820   22.5860   37.4420 N   0  0  0  0  0  0  0  0  0  0  0  0
   41.1660   21.2300   38.2380 H   0  0  0  0  0  0  0  0  0  0  0  0
   42.9620   21.7900   36.6090 H   0  0  0  0  0  0  0  0  0  0  0  0
   42.4790   23.5360   34.8710 H   0  0  0  0  0  0  0  0  0  0  0  0
  1  2  2  0  0  0  0
  1 14  1  0  0  0  0
  2  6  1  0  0  0  0
  3  2  1  0  0  0  0
  4  5  1  0  0  0  0
  4  3  2  0  0  0  0
  5  1  1  0  0  0  0
  7  3  1  0  0  0  0
  8  4  1  0  0  0  0
  9  8  2  0  0  0  0
  9 10  1  0  0  0  0
 11  9  1  0  0  0  0
 12 13  1  0  0  0  0
 12 11  2  0  0  0  0
 13  8  1  0  0  0  0
 14 20  1  0  0  0  0
 14 15  2  0  0  0  0
 16 22  1  0  0  0  0
 17 23  1  0  0  0  0
 17 16  2  0  0  0  0
 18 17  1  0  0  0  0
 19 18  2  0  0  0  0
 19 20  1  0  0  0  0
 20 21  2  0  0  0  0
 21 16  1  0  0  0  0
 24 18  1  0  0  0  0
M  END
>  <minimizedAffinity>
-4.90592909

$$$$

 OpenBabel03272508463D

 24 26  0  0  0  0  0  0  0  0999 V2000
   37.1910   26.4540   33.6530 C   0  0  0  0  0  0  0  0  0  0  0  0
   37.3190   27.5360   34.4890 C   0  0  0  0  0  0  0  0  0  0  0  0
   37.8690   26.9970   35.6430 C   0  0  0  0  0  0  0  0  0  0  0  0
   38.0450   25.6480   35.4550 C   0  0  0  0  0  0  0  0  0  0  0  0
   37.6290   25.3650   34.2590 O   0  0  0  0  0  0  0  0  0  0  0  0
   37.0750   28.5630   34.3510 H   0  0  0  0  0  0  0  0  0  0  0  0
   38.1510   27.4600   36.5810 H   0  0  0  0  0  0  0  0  0  0  0  0
   38.5740   24.6540   36.3400 C   0  0  0  0  0  0  0  0  0  0  0  0
   38.1610   24.3290   37.6060 C   0  0  0  0  0  0  0  0  0  0  0  0
   37.3300   24.8610   38.0450 H   0  0  0  0  0  0  0  0  0  0  0  0
   38.7660   23.3510   38.3360 C   0  0  0  0  0  3  0  0  0  0  0  0
   39.8940   22.6640   37.6740 C   0  0  0  0  0  3  0  0  0  0  0  0
   39.9650   23.5350   36.0080 S   0  0  0  0  0  0  0  0  0  0  0  0
   36.6460   26.5060   32.2860 C   0  0  0  0  0  0  0  0  0  0  0  0
   36.0520   25.4900   31.8600 O   0  0  0  0  0  0  0  0  0  0  0  0
   35.9140   29.7390   30.8120 C   0  0  0  0  0  0  0  0  0  0  0  0
   37.0310   30.0040   30.0170 C   0  0  0  0  0  0  0  0  0  0  0  0
   38.0500   29.0670   29.9830 C   0  0  0  0  0  0  0  0  0  0  0  0
   37.9110   27.9370   30.7240 N   0  0  0  0  0  0  0  0  0  0  0  0
   36.8090   27.7150   31.4850 C   0  0  0  0  0  0  0  0  0  0  0  0
   35.8100   28.6200   31.5270 N   0  0  0  0  0  0  0  0  0  0  0  0
   35.1290   30.4750   30.8300 H   0  0  0  0  0  0  0  0  0  0  0  0
   37.1350   30.9140   29.4240 H   0  0  0  0  0  0  0  0  0  0  0  0
   38.9580   29.1870   29.3920 H   0  0  0  0  0  0  0  0  0  0  0  0
  1  5  1  0  0  0  0
  1  2  2  0  0  0  0
  2  3  1  0  0  0  0
  3  7  1  0  0  0  0
  4  3  2  0  0  0  0
  4  8  1  0  0  0  0
  5  4  1  0  0  0  0
  6  2  1  0  0  0  0
  8  9  2  0  0  0  0
  9 10  1  0  0  0  0
  9 11  1  0  0  0  0
 12 11  2  0  0  0  0
 13  8  1  0  0  0  0
 13 12  1  0  0  0  0
 14  1  1  0  0  0  0
 15 14  2  0  0  0  0
 16 22  1  0  0  0  0
 16 21  1  0  0  0  0
 17 16  2  0  0  0  0
 18 17  1  0  0  0  0
 18 19  2  0  0  0  0
 19 20  1  0  0  0  0
 20 21  2  0  0  0  0
 20 14  1  0  0  0  0
 23 17  1  0  0  0  0
 24 18  1  0  0  0  0
M  END
>  <minimizedAffinity>
-4.83083105

$$$$

 OpenBabel03272508463D

 24 26  0  0  0  0  0  0  0  0999 V2000
   37.9720   25.7600   34.8770 C   0  0  0  0  0  0  0  0  0  0  0  0
   38.5510   26.6230   35.7740 C   0  0  0  0  0  0  0  0  0  0  0  0
   37.9130   27.8300   35.5270 C   0  0  0  0  0  0  0  0  0  0  0  0
   37.0010   27.6450   34.5180 C   0  0  0  0  0  0  0  0  0  0  0  0
   37.0670   26.3990   34.1580 O   0  0  0  0  0  0  0  0  0  0  0  0
   39.3080   26.4720   36.5070 H   0  0  0  0  0  0  0  0  0  0  0  0
   38.0310   28.8050   35.9850 H   0  0  0  0  0  0  0  0  0  0  0  0
   36.1010   28.5740   33.9040 C   0  0  0  0  0  0  0  0  0  0  0  0
   35.5460   29.7080   34.4390 C   0  0  0  0  0  0  0  0  0  0  0  0
   35.7840   29.9850   35.4550 H   0  0  0  0  0  0  0  0  0  0  0  0
   34.6990   30.5040   33.7290 C   0  0  0  0  0  3  0  0  0  0  0  0
   34.4180   30.0660   32.3470 C   0  0  0  0  0  3  0  0  0  0  0  0
   35.4440   28.4950   32.2140 S   0  0  0  0  0  0  0  0  0  0  0  0
   38.3130   24.3330   34.7410 C   0  0  0  0  0  0  0  0  0  0  0  0
   37.8500   23.7180   33.7540 O   0  0  0  0  0  0  0  0  0  0  0  0
   41.2360   22.7900   36.2360 C   0  0  0  0  0  0  0  0  0  0  0  0
   40.8260   22.4910   37.5370 C   0  0  0  0  0  0  0  0  0  0  0  0
   39.5350   22.8210   37.9110 C   0  0  0  0  0  0  0  0  0  0  0  0
   38.7310   23.4180   36.9930 N   0  0  0  0  0  0  0  0  0  0  0  0
   39.1660   23.6920   35.7370 C   0  0  0  0  0  0  0  0  0  0  0  0
   40.4220   23.3770   35.3600 N   0  0  0  0  0  0  0  0  0  0  0  0
   42.2420   22.5290   35.9580 H   0  0  0  0  0  0  0  0  0  0  0  0
   41.4780   22.0110   38.2680 H   0  0  0  0  0  0  0  0  0  0  0  0
   39.1280   22.6260   38.9030 H   0  0  0  0  0  0  0  0  0  0  0  0
  1  2  2  0  0  0  0
  2  6  1  0  0  0  0
  3  2  1  0  0  0  0
  3  7  1  0  0  0  0
  4  3  2  0  0  0  0
  5  4  1  0  0  0  0
  5  1  1  0  0  0  0
  8  9  2  0  0  0  0
  8  4  1  0  0  0  0
  9 10  1  0  0  0  0
 11  9  1  0  0  0  0
 12 11  2  0  0  0  0
 13 12  1  0  0  0  0
 13  8  1  0  0  0  0
 14  1  1  0  0  0  0
 14 20  1  0  0  0  0
 15 14  2  0  0  0  0
 16 17  1  0  0  0  0
 17 18  2  0  0  0  0
 17 23  1  0  0  0  0
 18 24  1  0  0  0  0
 19 18  1  0  0  0  0
 20 19  2  0  0  0  0
 21 20  1  0  0  0  0
 21 16  2  0  0  0  0
 22 16  1  0  0  0  0
M  END
>  <minimizedAffinity>
-4.75275993

$$$$

 OpenBabel03272508463D

 24 26  0  0  0  0  0  0  0  0999 V2000
   36.4040   26.0670   31.9810 C   0  0  0  0  0  0  0  0  0  0  0  0
   35.3600   26.0960   31.0890 C   0  0  0  0  0  0  0  0  0  0  0  0
   35.0790   24.7550   30.8690 C   0  0  0  0  0  0  0  0  0  0  0  0
   35.9430   23.9970   31.6200 C   0  0  0  0  0  0  0  0  0  0  0  0
   36.7150   24.8160   32.2660 O   0  0  0  0  0  0  0  0  0  0  0  0
   34.8450   26.9100   30.6350 H   0  0  0  0  0  0  0  0  0  0  0  0
   34.3350   24.2770   30.2420 H   0  0  0  0  0  0  0  0  0  0  0  0
   36.0580   22.5750   31.7400 C   0  0  0  0  0  0  0  0  0  0  0  0
   35.1590   21.6860   32.2690 C   0  0  0  0  0  0  0  0  0  0  0  0
   34.2210   22.0520   32.6630 H   0  0  0  0  0  0  0  0  0  0  0  0
   35.4060   20.3480   32.3170 C   0  0  0  0  0  3  0  0  0  0  0  0
   36.7050   19.9180   31.7620 C   0  0  0  0  0  3  0  0  0  0  0  0
   37.4590   21.5510   31.2100 S   0  0  0  0  0  0  0  0  0  0  0  0
   37.0720   27.2570   32.5330 C   0  0  0  0  0  0  0  0  0  0  0  0
   36.5150   28.3650   32.3640 O   0  0  0  0  0  0  0  0  0  0  0  0
   40.6430   27.0050   33.1190 C   0  0  0  0  0  0  0  0  0  0  0  0
   40.7440   26.8520   34.5030 C   0  0  0  0  0  0  0  0  0  0  0  0
   39.5780   26.8360   35.2490 C   0  0  0  0  0  0  0  0  0  0  0  0
   38.3940   26.9690   34.5960 N   0  0  0  0  0  0  0  0  0  0  0  0
   38.3370   27.1140   33.2480 C   0  0  0  0  0  0  0  0  0  0  0  0
   39.4660   27.1320   32.5100 N   0  0  0  0  0  0  0  0  0  0  0  0
   41.5570   27.0150   32.5510 H   0  0  0  0  0  0  0  0  0  0  0  0
   41.6990   26.7460   35.0200 H   0  0  0  0  0  0  0  0  0  0  0  0
   39.5580   26.7220   36.3320 H   0  0  0  0  0  0  0  0  0  0  0  0
  1  5  1  0  0  0  0
  1 14  1  0  0  0  0
  2  1  2  0  0  0  0
  3  2  1  0  0  0  0
  3  4  2  0  0  0  0
  4  8  1  0  0  0  0
  4  5  1  0  0  0  0
  6  2  1  0  0  0  0
  7  3  1  0  0  0  0
  8  9  2  0  0  0  0
  9 11  1  0  0  0  0
  9 10  1  0  0  0  0
 12 11  2  0  0  0  0
 13  8  1  0  0  0  0
 13 12  1  0  0  0  0
 14 20  1  0  0  0  0
 15 14  2  0  0  0  0
 16 17  1  0  0  0  0
 17 23  1  0  0  0  0
 17 18  2  0  0  0  0
 18 24  1  0  0  0  0
 19 18  1  0  0  0  0
 20 19  2  0  0  0  0
 21 16  2  0  0  0  0
 21 20  1  0  0  0  0
 22 16  1  0  0  0  0
M  END
>  <minimizedAffinity>
-4.65720892

$$$$

 OpenBabel03272508463D

 24 26  0  0  0  0  0  0  0  0999 V2000
   36.4190   27.7110   32.6730 C   0  0  0  0  0  0  0  0  0  0  0  0
   37.0120   27.1870   33.7960 C   0  0  0  0  0  0  0  0  0  0  0  0
   36.7220   28.1190   34.7830 C   0  0  0  0  0  0  0  0  0  0  0  0
   35.9870   29.1340   34.2250 C   0  0  0  0  0  0  0  0  0  0  0  0
   35.8290   28.8540   32.9680 O   0  0  0  0  0  0  0  0  0  0  0  0
   37.5710   26.2940   33.9450 H   0  0  0  0  0  0  0  0  0  0  0  0
   36.9770   28.1420   35.8370 H   0  0  0  0  0  0  0  0  0  0  0  0
   35.4480   30.3200   34.8220 C   0  0  0  0  0  0  0  0  0  0  0  0
   36.0360   31.1640   35.7280 C   0  0  0  0  0  0  0  0  0  0  0  0
   37.0380   30.9560   36.0730 H   0  0  0  0  0  0  0  0  0  0  0  0
   35.3970   32.2650   36.2120 C   0  0  0  0  0  3  0  0  0  0  0  0
   34.0310   32.4890   35.6970 C   0  0  0  0  0  3  0  0  0  0  0  0
   33.8060   31.0340   34.5270 S   0  0  0  0  0  0  0  0  0  0  0  0
   36.4440   27.0850   31.3400 C   0  0  0  0  0  0  0  0  0  0  0  0
   36.3650   27.8390   30.3440 O   0  0  0  0  0  0  0  0  0  0  0  0
   37.8940   23.8270   30.6770 C   0  0  0  0  0  0  0  0  0  0  0  0
   36.8600   22.9350   30.9670 C   0  0  0  0  0  0  0  0  0  0  0  0
   35.6490   23.4520   31.3980 C   0  0  0  0  0  0  0  0  0  0  0  0
   35.5290   24.8000   31.5140 N   0  0  0  0  0  0  0  0  0  0  0  0
   36.5580   25.6350   31.2200 C   0  0  0  0  0  0  0  0  0  0  0  0
   37.7430   25.1440   30.8010 N   0  0  0  0  0  0  0  0  0  0  0  0
   38.8300   23.4120   30.3430 H   0  0  0  0  0  0  0  0  0  0  0  0
   36.9640   21.8540   30.8720 H   0  0  0  0  0  0  0  0  0  0  0  0
   34.7870   22.8350   31.6480 H   0  0  0  0  0  0  0  0  0  0  0  0
  1  5  1  0  0  0  0
  1  2  2  0  0  0  0
  2  6  1  0  0  0  0
  2  3  1  0  0  0  0
  3  7  1  0  0  0  0
  4  3  2  0  0  0  0
  4  8  1  0  0  0  0
  5  4  1  0  0  0  0
  8  9  2  0  0  0  0
  9 10  1  0  0  0  0
  9 11  1  0  0  0  0
 12 11  2  0  0  0  0
 13  8  1  0  0  0  0
 13 12  1  0  0  0  0
 14  1  1  0  0  0  0
 15 14  2  0  0  0  0
 16 21  2  0  0  0  0
 16 17  1  0  0  0  0
 17 18  2  0  0  0  0
 18 19  1  0  0  0  0
 18 24  1  0  0  0  0
 20 14  1  0  0  0  0
 20 19  2  0  0  0  0
 21 20  1  0  0  0  0
 22 16  1  0  0  0  0
 23 17  1  0  0  0  0
M  END
>  <minimizedAffinity>
-4.64020967

$$$$

 OpenBabel03272508463D

 24 26  0  0  0  0  0  0  0  0999 V2000
   37.3110   26.3700   33.5010 C   0  0  0  0  0  0  0  0  0  0  0  0
   37.2570   27.4580   34.3370 C   0  0  0  0  0  0  0  0  0  0  0  0
   37.7100   26.9610   35.5520 C   0  0  0  0  0  0  0  0  0  0  0  0
   38.0090   25.6300   35.3970 C   0  0  0  0  0  0  0  0  0  0  0  0
   37.7570   25.3170   34.1620 O   0  0  0  0  0  0  0  0  0  0  0  0
   36.9540   28.4640   34.1650 H   0  0  0  0  0  0  0  0  0  0  0  0
   37.8450   27.4440   36.5130 H   0  0  0  0  0  0  0  0  0  0  0  0
   38.5060   24.6790   36.3440 C   0  0  0  0  0  0  0  0  0  0  0  0
   38.0410   24.4040   37.6040 C   0  0  0  0  0  0  0  0  0  0  0  0
   37.1880   24.9470   37.9840 H   0  0  0  0  0  0  0  0  0  0  0  0
   38.6200   23.4630   38.4000 C   0  0  0  0  0  3  0  0  0  0  0  0
   39.7810   22.7590   37.8170 C   0  0  0  0  0  3  0  0  0  0  0  0
   39.9180   23.5600   36.1210 S   0  0  0  0  0  0  0  0  0  0  0  0
   36.9260   26.3820   32.0800 C   0  0  0  0  0  0  0  0  0  0  0  0
   35.8460   26.9380   31.7760 O   0  0  0  0  0  0  0  0  0  0  0  0
   38.3940   23.8330   29.9570 C   0  0  0  0  0  0  0  0  0  0  0  0
   39.3820   24.5180   29.2470 C   0  0  0  0  0  0  0  0  0  0  0  0
   39.5490   25.8700   29.4930 C   0  0  0  0  0  0  0  0  0  0  0  0
   38.7450   26.4610   30.4150 N   0  0  0  0  0  0  0  0  0  0  0  0
   37.7970   25.7600   31.0870 C   0  0  0  0  0  0  0  0  0  0  0  0
   37.6220   24.4430   30.8550 N   0  0  0  0  0  0  0  0  0  0  0  0
   38.2750   22.7820   29.7560 H   0  0  0  0  0  0  0  0  0  0  0  0
   40.0240   24.0360   28.5080 H   0  0  0  0  0  0  0  0  0  0  0  0
   40.2930   26.4860   28.9880 H   0  0  0  0  0  0  0  0  0  0  0  0
  1  5  1  0  0  0  0
  1  2  2  0  0  0  0
  2  3  1  0  0  0  0
  3  7  1  0  0  0  0
  4  3  2  0  0  0  0
  4  8  1  0  0  0  0
  5  4  1  0  0  0  0
  6  2  1  0  0  0  0
  8  9  2  0  0  0  0
  9 10  1  0  0  0  0
  9 11  1  0  0  0  0
 12 11  2  0  0  0  0
 13  8  1  0  0  0  0
 13 12  1  0  0  0  0
 14  1  1  0  0  0  0
 15 14  2  0  0  0  0
 16 21  1  0  0  0  0
 17 18  1  0  0  0  0
 17 16  2  0  0  0  0
 18 19  2  0  0  0  0
 19 20  1  0  0  0  0
 20 14  1  0  0  0  0
 21 20  2  0  0  0  0
 22 16  1  0  0  0  0
 23 17  1  0  0  0  0
 24 18  1  0  0  0  0
M  END
>  <minimizedAffinity>
-4.60028696

$$$$

 OpenBabel03272508463D

 24 26  0  0  0  0  0  0  0  0999 V2000
   38.4110   25.0320   33.8780 C   0  0  0  0  0  0  0  0  0  0  0  0
   39.6510   25.5770   33.6480 C   0  0  0  0  0  0  0  0  0  0  0  0
   39.3690   26.7640   32.9860 C   0  0  0  0  0  0  0  0  0  0  0  0
   38.0080   26.8780   32.8500 C   0  0  0  0  0  0  0  0  0  0  0  0
   37.4740   25.8270   33.3940 O   0  0  0  0  0  0  0  0  0  0  0  0
   40.6270   25.2300   33.8900 H   0  0  0  0  0  0  0  0  0  0  0  0
   40.0250   27.5360   32.6000 H   0  0  0  0  0  0  0  0  0  0  0  0
   37.2250   27.9120   32.2440 C   0  0  0  0  0  0  0  0  0  0  0  0
   37.3060   28.4120   30.9700 C   0  0  0  0  0  0  0  0  0  0  0  0
   38.0420   28.0090   30.2900 H   0  0  0  0  0  0  0  0  0  0  0  0
   36.4870   29.4050   30.5280 C   0  0  0  0  0  3  0  0  0  0  0  0
   35.5040   29.9070   31.5100 C   0  0  0  0  0  3  0  0  0  0  0  0
   35.8830   28.8550   33.0220 S   0  0  0  0  0  0  0  0  0  0  0  0
   38.1690   23.7510   34.5630 C   0  0  0  0  0  0  0  0  0  0  0  0
   37.7710   22.7890   33.8690 O   0  0  0  0  0  0  0  0  0  0  0  0
   39.7080   22.7880   37.7040 C   0  0  0  0  0  0  0  0  0  0  0  0
   38.8960   23.3850   38.6700 C   0  0  0  0  0  0  0  0  0  0  0  0
   37.8080   24.1280   38.2460 C   0  0  0  0  0  0  0  0  0  0  0  0
   37.5850   24.2380   36.9100 N   0  0  0  0  0  0  0  0  0  0  0  0
   38.3960   23.6420   36.0010 C   0  0  0  0  0  0  0  0  0  0  0  0
   39.4610   22.9160   36.4010 N   0  0  0  0  0  0  0  0  0  0  0  0
   40.5500   22.2130   38.0470 H   0  0  0  0  0  0  0  0  0  0  0  0
   39.0820   23.2920   39.7410 H   0  0  0  0  0  0  0  0  0  0  0  0
   37.1200   24.6290   38.9260 H   0  0  0  0  0  0  0  0  0  0  0  0
  1 14  1  0  0  0  0
  2  1  2  0  0  0  0
  2  6  1  0  0  0  0
  3  2  1  0  0  0  0
  4  3  2  0  0  0  0
  4  5  1  0  0  0  0
  5  1  1  0  0  0  0
  7  3  1  0  0  0  0
  8  4  1  0  0  0  0
  8 13  1  0  0  0  0
  9  8  2  0  0  0  0
 10  9  1  0  0  0  0
 11  9  1  0  0  0  0
 11 12  2  0  0  0  0
 12 13  1  0  0  0  0
 14 20  1  0  0  0  0
 15 14  2  0  0  0  0
 16 22  1  0  0  0  0
 16 17  1  0  0  0  0
 17 23  1  0  0  0  0
 18 17  2  0  0  0  0
 18 24  1  0  0  0  0
 19 18  1  0  0  0  0
 20 21  1  0  0  0  0
 20 19  2  0  0  0  0
 21 16  2  0  0  0  0
M  END
>  <minimizedAffinity>
-4.58655691

$$$$

 OpenBabel03272508463D

 24 26  0  0  0  0  0  0  0  0999 V2000
   36.5690   25.8540   31.8860 C   0  0  0  0  0  0  0  0  0  0  0  0
   35.4310   25.9420   31.1210 C   0  0  0  0  0  0  0  0  0  0  0  0
   35.0460   24.6190   30.9520 C   0  0  0  0  0  0  0  0  0  0  0  0
   35.9460   23.8150   31.6070 C   0  0  0  0  0  0  0  0  0  0  0  0
   36.8360   24.5880   32.1480 O   0  0  0  0  0  0  0  0  0  0  0  0
   34.9160   26.7830   30.7210 H   0  0  0  0  0  0  0  0  0  0  0  0
   34.2070   24.1840   30.4220 H   0  0  0  0  0  0  0  0  0  0  0  0
   35.9890   22.3890   31.7300 C   0  0  0  0  0  0  0  0  0  0  0  0
   35.0710   21.5520   32.3110 C   0  0  0  0  0  0  0  0  0  0  0  0
   34.1770   21.9710   32.7510 H   0  0  0  0  0  0  0  0  0  0  0  0
   35.2470   20.2030   32.3550 C   0  0  0  0  0  3  0  0  0  0  0  0
   36.4900   19.7000   31.7360 C   0  0  0  0  0  3  0  0  0  0  0  0
   37.3020   21.2870   31.1350 S   0  0  0  0  0  0  0  0  0  0  0  0
   37.3670   27.0050   32.3410 C   0  0  0  0  0  0  0  0  0  0  0  0
   38.6100   26.8630   32.3950 O   0  0  0  0  0  0  0  0  0  0  0  0
   35.6000   29.4620   34.3400 C   0  0  0  0  0  0  0  0  0  0  0  0
   35.4420   30.5460   33.4740 C   0  0  0  0  0  0  0  0  0  0  0  0
   35.9480   30.4390   32.1890 C   0  0  0  0  0  0  0  0  0  0  0  0
   36.5700   29.2840   31.8360 N   0  0  0  0  0  0  0  0  0  0  0  0
   36.7020   28.2510   32.7070 C   0  0  0  0  0  0  0  0  0  0  0  0
   36.2150   28.3430   33.9620 N   0  0  0  0  0  0  0  0  0  0  0  0
   35.2030   29.5580   35.3360 H   0  0  0  0  0  0  0  0  0  0  0  0
   34.9420   31.4700   33.7650 H   0  0  0  0  0  0  0  0  0  0  0  0
   35.8720   31.2310   31.4450 H   0  0  0  0  0  0  0  0  0  0  0  0
  1  5  1  0  0  0  0
  1 14  1  0  0  0  0
  2  1  2  0  0  0  0
  3  2  1  0  0  0  0
  3  4  2  0  0  0  0
  4  8  1  0  0  0  0
  4  5  1  0  0  0  0
  6  2  1  0  0  0  0
  7  3  1  0  0  0  0
  8  9  2  0  0  0  0
  9 11  1  0  0  0  0
  9 10  1  0  0  0  0
 12 11  2  0  0  0  0
 13  8  1  0  0  0  0
 13 12  1  0  0  0  0
 14 15  2  0  0  0  0
 14 20  1  0  0  0  0
 16 22  1  0  0  0  0
 17 23  1  0  0  0  0
 17 16  2  0  0  0  0
 18 17  1  0  0  0  0
 19 18  2  0  0  0  0
 19 20  1  0  0  0  0
 20 21  2  0  0  0  0
 21 16  1  0  0  0  0
 24 18  1  0  0  0  0
M  END
>  <minimizedAffinity>
-4.5648675

$$$$

 OpenBabel03272508463D

 24 26  0  0  0  0  0  0  0  0999 V2000
   37.2610   24.0760   32.7900 C   0  0  0  0  0  0  0  0  0  0  0  0
   37.4570   25.4060   33.0730 C   0  0  0  0  0  0  0  0  0  0  0  0
   38.1740   25.3870   34.2610 C   0  0  0  0  0  0  0  0  0  0  0  0
   38.3740   24.0800   34.6310 C   0  0  0  0  0  0  0  0  0  0  0  0
   37.8140   23.3310   33.7300 O   0  0  0  0  0  0  0  0  0  0  0  0
   37.1590   26.2860   32.5540 H   0  0  0  0  0  0  0  0  0  0  0  0
   38.5600   26.1940   34.8730 H   0  0  0  0  0  0  0  0  0  0  0  0
   39.0510   23.5360   35.7690 C   0  0  0  0  0  0  0  0  0  0  0  0
   38.7140   23.6360   37.0940 C   0  0  0  0  0  0  0  0  0  0  0  0
   37.8290   24.1880   37.3740 H   0  0  0  0  0  0  0  0  0  0  0  0
   39.4610   23.0610   38.0770 C   0  0  0  0  0  3  0  0  0  0  0  0
   40.6560   22.3230   37.6220 C   0  0  0  0  0  3  0  0  0  0  0  0
   40.5720   22.5460   35.7560 S   0  0  0  0  0  0  0  0  0  0  0  0
   36.5390   23.5640   31.6130 C   0  0  0  0  0  0  0  0  0  0  0  0
   36.2440   24.3820   30.7130 O   0  0  0  0  0  0  0  0  0  0  0  0
   34.7660   20.4500   32.1750 C   0  0  0  0  0  0  0  0  0  0  0  0
   35.4900   19.5150   31.4330 C   0  0  0  0  0  0  0  0  0  0  0  0
   36.5990   19.9510   30.7290 C   0  0  0  0  0  0  0  0  0  0  0  0
   36.9280   21.2680   30.7970 N   0  0  0  0  0  0  0  0  0  0  0  0
   36.1990   22.1470   31.5310 C   0  0  0  0  0  0  0  0  0  0  0  0
   35.1150   21.7340   32.2200 N   0  0  0  0  0  0  0  0  0  0  0  0
   33.9060   20.0970   32.7170 H   0  0  0  0  0  0  0  0  0  0  0  0
   35.2200   18.4590   31.3840 H   0  0  0  0  0  0  0  0  0  0  0  0
   37.2240   19.2950   30.1240 H   0  0  0  0  0  0  0  0  0  0  0  0
  1  2  2  0  0  0  0
  1  5  1  0  0  0  0
  2  3  1  0  0  0  0
  3  4  2  0  0  0  0
  3  7  1  0  0  0  0
  4  8  1  0  0  0  0
  5  4  1  0  0  0  0
  6  2  1  0  0  0  0
  8  9  2  0  0  0  0
  9 10  1  0  0  0  0
  9 11  1  0  0  0  0
 12 11  2  0  0  0  0
 13  8  1  0  0  0  0
 13 12  1  0  0  0  0
 14  1  1  0  0  0  0
 15 14  2  0  0  0  0
 16 21  1  0  0  0  0
 16 22  1  0  0  0  0
 17 16  2  0  0  0  0
 18 19  2  0  0  0  0
 18 17  1  0  0  0  0
 19 20  1  0  0  0  0
 20 14  1  0  0  0  0
 20 21  2  0  0  0  0
 23 17  1  0  0  0  0
 24 18  1  0  0  0  0
M  END
>  <minimizedAffinity>
-4.54452038

$$$$
