
 OpenBabel03272504223D

 36 38  0  0  1  0  0  0  0  0999 V2000
   36.8320   31.5860   48.6820 O   0  0  0  0  0  0  0  0  0  0  0  0
   38.8420   32.4150   47.8390 C   0  0  2  0  0  0  0  0  0  0  0  0
   38.1940   31.3910   48.7440 C   0  0  1  0  0  0  0  0  0  0  0  0
   38.7270   31.9150   50.0800 C   0  0  0  0  0  0  0  0  0  0  0  0
   38.3880   33.2610   49.9850 O   0  0  0  0  0  0  0  0  0  0  0  0
   38.6460   33.6640   48.6980 C   0  0  0  0  0  0  0  0  0  0  0  0
   39.9010   32.1780   47.7010 H   0  0  0  0  0  0  0  0  0  0  0  0
   38.5230   30.3560   48.5560 H   0  0  0  0  0  0  0  0  0  0  0  0
   39.8050   31.7360   50.1440 H   0  0  0  0  0  0  0  0  0  0  0  0
   38.1310   31.4270   50.8600 H   0  0  0  0  0  0  0  0  0  0  0  0
   39.5750   34.2770   48.6200 H   0  0  0  0  0  0  0  0  0  0  0  0
   37.8330   34.3090   48.2820 H   0  0  0  0  0  0  0  0  0  0  0  0
   38.1100   32.4640   46.6570 O   0  0  0  0  0  0  0  0  0  0  0  0
   38.7900   32.0090   45.5010 C   0  0  0  0  0  0  0  0  0  0  0  0
   39.3920   32.8140   44.5290 C   0  0  0  0  0  0  0  0  0  0  0  0
   39.3540   33.8850   44.6410 H   0  0  0  0  0  0  0  0  0  0  0  0
   40.0110   32.2230   43.4690 C   0  0  0  0  0  3  0  0  0  0  0  0
   40.0210   30.7820   43.3880 C   0  0  0  0  0  3  0  0  0  0  0  0
   39.1450   30.2650   44.8310 S   0  0  0  0  0  0  0  0  0  0  0  0
   35.9290   29.8490   46.9710 O   0  0  0  0  0  0  0  0  0  0  0  0
   35.9710   30.1650   48.4470 P   0  0  1  0  0  0  0  0  0  0  0  0
   36.7510   28.8710   49.2410 O   0  0  0  0  0  0  0  0  0  0  0  0
   37.4390   29.1770   49.8800 H   0  0  0  0  0  0  0  0  0  0  0  0
   34.3920   30.3300   49.0570 O   0  0  0  0  0  0  0  0  0  0  0  0
   34.1230   29.1900   49.7880 C   0  0  0  0  0  0  0  0  0  0  0  0
   33.6100   29.4600   50.7550 H   0  0  0  0  0  0  0  0  0  0  0  0
   35.0330   28.6490   50.1120 H   0  0  0  0  0  0  0  0  0  0  0  0
   33.2630   28.2180   49.0780 C   0  0  0  0  0  0  0  0  0  0  0  0
   33.8940   27.3300   48.2410 C   0  0  0  0  0  0  0  0  0  0  0  0
   33.1380   26.3870   47.5410 C   0  0  0  0  0  0  0  0  0  0  0  0
   31.7890   26.4080   47.7350 N   0  0  0  0  0  0  0  0  0  0  0  0
   31.1940   27.2890   48.5610 C   0  0  0  0  0  0  0  0  0  0  0  0
   31.9280   28.2020   49.2390 N   0  0  0  0  0  0  0  0  0  0  0  0
   34.9440   27.2360   48.0230 H   0  0  0  0  0  0  0  0  0  0  0  0
   33.5340   25.6570   46.8690 H   0  0  0  0  0  0  0  0  0  0  0  0
   30.1210   27.2180   48.6420 H   0  0  0  0  0  0  0  0  0  0  0  0
  1  3  1  0  0  0  0
  2  7  1  6  0  0  0
  2  6  1  0  0  0  0
  2  3  1  0  0  0  0
  3  8  1  6  0  0  0
  3  4  1  0  0  0  0
  4  9  1  0  0  0  0
  4 10  1  0  0  0  0
  5  4  1  0  0  0  0
  6  5  1  0  0  0  0
 11  6  1  0  0  0  0
 12  6  1  0  0  0  0
 13  2  1  0  0  0  0
 14 13  1  0  0  0  0
 15 16  1  0  0  0  0
 15 14  2  0  0  0  0
 17 15  1  0  0  0  0
 18 17  2  0  0  0  0
 18 19  1  0  0  0  0
 19 14  1  0  0  0  0
 21 20  2  6  0  0  0
 21  1  1  0  0  0  0
 21 24  1  0  0  0  0
 21 22  1  0  0  0  0
 22 23  1  0  0  0  0
 24 25  1  0  0  0  0
 25 27  1  0  0  0  0
 25 26  1  0  0  0  0
 28 33  1  0  0  0  0
 28 25  1  0  0  0  0
 29 28  2  0  0  0  0
 30 31  2  0  0  0  0
 30 29  1  0  0  0  0
 31 32  1  0  0  0  0
 32 36  1  0  0  0  0
 32 33  2  0  0  0  0
 34 29  1  0  0  0  0
 35 30  1  0  0  0  0
M  END
>  <minimizedAffinity>
-4.59078407

>  <minimizedRMSD>
0.331158221

$$$$
