
 OpenBabel03272509593D

 43 46  0  0  0  0  0  0  0  0999 V2000
   38.4500   27.1240   34.5030 C   0  0  0  0  0  0  0  0  0  0  0  0
   39.1210   26.5100   33.8390 H   0  0  0  0  0  0  0  0  0  0  0  0
   38.8030   28.1820   34.4180 H   0  0  0  0  0  0  0  0  0  0  0  0
   38.4840   26.6460   35.9180 C   0  0  0  0  0  0  0  0  0  0  0  0
   39.4950   26.8580   36.3450 H   0  0  0  0  0  0  0  0  0  0  0  0
   37.7710   27.1410   36.5860 H   0  0  0  0  0  0  0  0  0  0  0  0
   38.2990   25.1670   36.0390 C   0  0  0  0  0  0  0  0  0  0  0  0
   37.8430   24.6740   37.2480 C   0  0  0  0  0  0  0  0  0  0  0  0
   37.6460   23.3370   37.4460 C   0  0  0  0  0  0  0  0  0  0  0  0
   37.8980   22.4780   36.4480 N   0  0  0  0  0  0  0  0  0  0  0  0
   38.3480   22.9830   35.2620 C   0  0  0  0  0  0  0  0  0  0  0  0
   38.5480   24.2870   35.0450 N   0  0  0  0  0  0  0  0  0  0  0  0
   37.6200   25.3110   38.0920 H   0  0  0  0  0  0  0  0  0  0  0  0
   37.2870   22.9280   38.3890 H   0  0  0  0  0  0  0  0  0  0  0  0
   38.6130   21.9910   34.1910 C   0  0  0  0  0  0  0  0  0  0  0  0
   39.3800   22.3920   33.4980 H   0  0  0  0  0  0  0  0  0  0  0  0
   38.9190   21.0160   34.6300 H   0  0  0  0  0  0  0  0  0  0  0  0
   37.3900   21.8360   33.3500 C   0  0  0  0  0  0  0  0  0  0  0  0
   36.2660   21.1150   33.5020 C   0  0  0  0  0  0  0  0  0  0  0  0
   36.2020   20.5160   34.3970 H   0  0  0  0  0  0  0  0  0  0  0  0
   35.2840   21.1560   32.5630 C   0  0  0  0  0  3  0  0  0  0  0  0
   35.5530   22.0200   31.4250 C   0  0  0  0  0  3  0  0  0  0  0  0
   37.2620   22.7050   31.8510 S   0  0  0  0  0  0  0  0  0  0  0  0
   37.1550   27.0100   33.9430 O   0  0  0  0  0  0  0  0  0  0  0  0
   35.8930   29.6070   31.7710 C   0  0  0  0  0  0  0  0  0  0  0  0
   35.2670   30.4440   32.7170 C   0  0  0  0  0  0  0  0  0  0  0  0
   35.3190   30.0620   34.0470 C   0  0  0  0  0  0  0  0  0  0  0  0
   35.9840   28.8880   34.3240 N   0  0  0  0  0  0  0  0  0  0  0  0
   36.5680   28.1130   33.4120 C   0  0  0  0  0  0  0  0  0  0  0  0
   36.5120   28.4920   32.1120 N   0  0  0  0  0  0  0  0  0  0  0  0
   35.8130   29.9650   30.7550 H   0  0  0  0  0  0  0  0  0  0  0  0
   34.7480   31.3570   32.5190 H   0  0  0  0  0  0  0  0  0  0  0  0
   36.6740   31.8000   35.9290 F   0  0  0  0  0  0  0  0  0  0  0  0
   35.3660   31.5970   36.0520 C   0  0  0  0  0  0  0  0  0  0  0  0
   34.7400   30.7840   35.1680 C   0  0  0  0  0  0  0  0  0  0  0  0
   33.3770   30.6420   35.3850 C   0  0  0  0  0  0  0  0  0  0  0  0
   32.7210   31.2710   36.4080 C   0  0  0  0  0  0  0  0  0  0  0  0
   33.3890   32.0900   37.2850 C   0  0  0  0  0  0  0  0  0  0  0  0
   34.7280   32.2440   37.0900 C   0  0  0  0  0  0  0  0  0  0  0  0
   32.7610   30.0110   34.7400 H   0  0  0  0  0  0  0  0  0  0  0  0
   31.6550   31.1380   36.5500 H   0  0  0  0  0  0  0  0  0  0  0  0
   32.8260   32.5690   38.0820 H   0  0  0  0  0  0  0  0  0  0  0  0
   35.2810   32.8850   37.7690 H   0  0  0  0  0  0  0  0  0  0  0  0
  1  4  1  0  0  0  0
  2  1  1  0  0  0  0
  3  1  1  0  0  0  0
  4  7  1  0  0  0  0
  4  5  1  0  0  0  0
  4  6  1  0  0  0  0
  7  8  1  0  0  0  0
  8  9  2  0  0  0  0
  8 13  1  0  0  0  0
  9 14  1  0  0  0  0
 10  9  1  0  0  0  0
 11 10  2  0  0  0  0
 12 11  1  0  0  0  0
 12  7  2  0  0  0  0
 15 17  1  0  0  0  0
 15 11  1  0  0  0  0
 16 15  1  0  0  0  0
 18 19  2  0  0  0  0
 18 15  1  0  0  0  0
 19 20  1  0  0  0  0
 21 19  1  0  0  0  0
 22 23  1  0  0  0  0
 22 21  2  0  0  0  0
 23 18  1  0  0  0  0
 24  1  1  0  0  0  0
 25 30  2  0  0  0  0
 25 26  1  0  0  0  0
 26 27  2  0  0  0  0
 27 28  1  0  0  0  0
 27 35  1  0  0  0  0
 29 24  1  0  0  0  0
 29 28  2  0  0  0  0
 30 29  1  0  0  0  0
 31 25  1  0  0  0  0
 32 26  1  0  0  0  0
 33 34  1  0  0  0  0
 34 39  1  0  0  0  0
 35 36  1  0  0  0  0
 35 34  2  0  0  0  0
 36 37  2  0  0  0  0
 37 41  1  0  0  0  0
 37 38  1  0  0  0  0
 38 42  1  0  0  0  0
 39 38  2  0  0  0  0
 39 43  1  0  0  0  0
 40 36  1  0  0  0  0
M  END
>  <minimizedAffinity>
-6.41650772

$$$$

 OpenBabel03272509593D

 43 46  0  0  0  0  0  0  0  0999 V2000
   38.5010   26.3420   34.4570 C   0  0  0  0  0  0  0  0  0  0  0  0
   39.5570   26.4820   34.8210 H   0  0  0  0  0  0  0  0  0  0  0  0
   38.1350   27.3550   34.1510 H   0  0  0  0  0  0  0  0  0  0  0  0
   37.6270   25.7370   35.5070 C   0  0  0  0  0  0  0  0  0  0  0  0
   37.3500   26.5300   36.2440 H   0  0  0  0  0  0  0  0  0  0  0  0
   36.6790   25.3320   35.1370 H   0  0  0  0  0  0  0  0  0  0  0  0
   38.3190   24.6760   36.3000 C   0  0  0  0  0  0  0  0  0  0  0  0
   37.8770   24.4490   37.5920 C   0  0  0  0  0  0  0  0  0  0  0  0
   38.4520   23.4990   38.3870 C   0  0  0  0  0  0  0  0  0  0  0  0
   39.4690   22.7660   37.9100 N   0  0  0  0  0  0  0  0  0  0  0  0
   39.8910   23.0040   36.6340 C   0  0  0  0  0  0  0  0  0  0  0  0
   39.3440   23.9280   35.8370 N   0  0  0  0  0  0  0  0  0  0  0  0
   37.0630   25.0030   38.0370 H   0  0  0  0  0  0  0  0  0  0  0  0
   38.1200   23.3040   39.4050 H   0  0  0  0  0  0  0  0  0  0  0  0
   41.0190   22.1670   36.1550 C   0  0  0  0  0  0  0  0  0  0  0  0
   41.3270   21.4680   36.9590 H   0  0  0  0  0  0  0  0  0  0  0  0
   40.7360   21.6280   35.2240 H   0  0  0  0  0  0  0  0  0  0  0  0
   42.2140   23.0320   35.9280 C   0  0  0  0  0  0  0  0  0  0  0  0
   43.1390   23.5410   36.7600 C   0  0  0  0  0  0  0  0  0  0  0  0
   43.0260   23.2970   37.8040 H   0  0  0  0  0  0  0  0  0  0  0  0
   44.1480   24.3160   36.2810 C   0  0  0  0  0  3  0  0  0  0  0  0
   44.1320   24.5340   34.8440 C   0  0  0  0  0  3  0  0  0  0  0  0
   42.6010   23.5570   34.3190 S   0  0  0  0  0  0  0  0  0  0  0  0
   38.6010   25.5110   33.3160 O   0  0  0  0  0  0  0  0  0  0  0  0
   35.5870   25.7270   31.3350 C   0  0  0  0  0  0  0  0  0  0  0  0
   35.3080   24.3580   31.1500 C   0  0  0  0  0  0  0  0  0  0  0  0
   36.1770   23.4430   31.7210 C   0  0  0  0  0  0  0  0  0  0  0  0
   37.2420   23.9610   32.4220 N   0  0  0  0  0  0  0  0  0  0  0  0
   37.4860   25.2600   32.5830 C   0  0  0  0  0  0  0  0  0  0  0  0
   36.6320   26.1510   32.0210 N   0  0  0  0  0  0  0  0  0  0  0  0
   34.8700   26.3840   30.8630 H   0  0  0  0  0  0  0  0  0  0  0  0
   34.4860   23.9400   30.6090 H   0  0  0  0  0  0  0  0  0  0  0  0
   37.8060   21.6140   30.1730 F   0  0  0  0  0  0  0  0  0  0  0  0
   36.8210   21.1340   30.9260 C   0  0  0  0  0  0  0  0  0  0  0  0
   36.0650   21.9960   31.6460 C   0  0  0  0  0  0  0  0  0  0  0  0
   35.0660   21.3910   32.3970 C   0  0  0  0  0  0  0  0  0  0  0  0
   34.8630   20.0380   32.4070 C   0  0  0  0  0  0  0  0  0  0  0  0
   35.6510   19.1950   31.6640 C   0  0  0  0  0  0  0  0  0  0  0  0
   36.6390   19.7660   30.9190 C   0  0  0  0  0  0  0  0  0  0  0  0
   34.3880   21.9800   33.0200 H   0  0  0  0  0  0  0  0  0  0  0  0
   34.0730   19.5980   33.0050 H   0  0  0  0  0  0  0  0  0  0  0  0
   35.4540   18.1270   31.7030 H   0  0  0  0  0  0  0  0  0  0  0  0
   37.2760   19.1240   30.3220 H   0  0  0  0  0  0  0  0  0  0  0  0
  1  2  1  0  0  0  0
  1  4  1  0  0  0  0
  3  1  1  0  0  0  0
  4  5  1  0  0  0  0
  4  7  1  0  0  0  0
  6  4  1  0  0  0  0
  7  8  1  0  0  0  0
  8 13  1  0  0  0  0
  8  9  2  0  0  0  0
  9 14  1  0  0  0  0
 10  9  1  0  0  0  0
 11 10  2  0  0  0  0
 12  7  2  0  0  0  0
 12 11  1  0  0  0  0
 15 11  1  0  0  0  0
 15 16  1  0  0  0  0
 17 15  1  0  0  0  0
 18 15  1  0  0  0  0
 18 19  2  0  0  0  0
 19 20  1  0  0  0  0
 21 19  1  0  0  0  0
 22 21  2  0  0  0  0
 23 22  1  0  0  0  0
 23 18  1  0  0  0  0
 24  1  1  0  0  0  0
 25 30  1  0  0  0  0
 26 25  2  0  0  0  0
 26 27  1  0  0  0  0
 27 28  2  0  0  0  0
 28 29  1  0  0  0  0
 29 24  1  0  0  0  0
 30 29  2  0  0  0  0
 31 25  1  0  0  0  0
 32 26  1  0  0  0  0
 33 34  1  0  0  0  0
 34 35  1  0  0  0  0
 35 27  1  0  0  0  0
 35 36  2  0  0  0  0
 36 37  1  0  0  0  0
 36 40  1  0  0  0  0
 37 41  1  0  0  0  0
 38 42  1  0  0  0  0
 38 37  2  0  0  0  0
 39 34  2  0  0  0  0
 39 38  1  0  0  0  0
 43 39  1  0  0  0  0
M  END
>  <minimizedAffinity>
-6.10897446

$$$$

 OpenBabel03272509593D

 43 46  0  0  0  0  0  0  0  0999 V2000
   37.3280   26.6950   31.8650 C   0  0  0  0  0  0  0  0  0  0  0  0
   37.3180   25.5890   32.0750 H   0  0  0  0  0  0  0  0  0  0  0  0
   36.9350   26.8220   30.8250 H   0  0  0  0  0  0  0  0  0  0  0  0
   38.6980   27.2740   32.0090 C   0  0  0  0  0  0  0  0  0  0  0  0
   39.2370   27.1690   31.0350 H   0  0  0  0  0  0  0  0  0  0  0  0
   38.7200   28.3430   32.2460 H   0  0  0  0  0  0  0  0  0  0  0  0
   39.5360   26.5480   33.0120 C   0  0  0  0  0  0  0  0  0  0  0  0
   40.6760   27.1800   33.4730 C   0  0  0  0  0  0  0  0  0  0  0  0
   41.5000   26.5890   34.3900 C   0  0  0  0  0  0  0  0  0  0  0  0
   41.1990   25.3690   34.8570 N   0  0  0  0  0  0  0  0  0  0  0  0
   40.0690   24.7610   34.3900 C   0  0  0  0  0  0  0  0  0  0  0  0
   39.2490   25.3190   33.4940 N   0  0  0  0  0  0  0  0  0  0  0  0
   40.9760   28.1630   33.1390 H   0  0  0  0  0  0  0  0  0  0  0  0
   42.4010   27.0690   34.7660 H   0  0  0  0  0  0  0  0  0  0  0  0
   39.7820   23.4120   34.9380 C   0  0  0  0  0  0  0  0  0  0  0  0
   38.9410   22.9570   34.3770 H   0  0  0  0  0  0  0  0  0  0  0  0
   40.6940   22.7760   34.9070 H   0  0  0  0  0  0  0  0  0  0  0  0
   39.2740   23.5460   36.3350 C   0  0  0  0  0  0  0  0  0  0  0  0
   39.6400   22.9750   37.4950 C   0  0  0  0  0  0  0  0  0  0  0  0
   40.4600   22.2750   37.4430 H   0  0  0  0  0  0  0  0  0  0  0  0
   38.9950   23.2810   38.6520 C   0  0  0  0  0  3  0  0  0  0  0  0
   37.9150   24.2450   38.5210 C   0  0  0  0  0  3  0  0  0  0  0  0
   37.9500   24.6190   36.6680 S   0  0  0  0  0  0  0  0  0  0  0  0
   36.4190   27.2640   32.7880 O   0  0  0  0  0  0  0  0  0  0  0  0
   35.2580   30.3300   31.2700 C   0  0  0  0  0  0  0  0  0  0  0  0
   34.7820   31.0110   32.4080 C   0  0  0  0  0  0  0  0  0  0  0  0
   34.8910   30.3710   33.6320 C   0  0  0  0  0  0  0  0  0  0  0  0
   35.4590   29.1160   33.6200 N   0  0  0  0  0  0  0  0  0  0  0  0
   35.9020   28.4930   32.5310 C   0  0  0  0  0  0  0  0  0  0  0  0
   35.7920   29.1250   31.3370 N   0  0  0  0  0  0  0  0  0  0  0  0
   35.1420   30.8880   30.3510 H   0  0  0  0  0  0  0  0  0  0  0  0
   34.3390   31.9830   32.4340 H   0  0  0  0  0  0  0  0  0  0  0  0
   36.4920   31.7750   35.5960 F   0  0  0  0  0  0  0  0  0  0  0  0
   35.2040   31.5570   35.8390 C   0  0  0  0  0  0  0  0  0  0  0  0
   34.4620   30.9000   34.9150 C   0  0  0  0  0  0  0  0  0  0  0  0
   33.1310   30.7260   35.2680 C   0  0  0  0  0  0  0  0  0  0  0  0
   32.6120   31.1800   36.4500 C   0  0  0  0  0  0  0  0  0  0  0  0
   33.3950   31.8430   37.3620 C   0  0  0  0  0  0  0  0  0  0  0  0
   34.7050   32.0260   37.0370 C   0  0  0  0  0  0  0  0  0  0  0  0
   32.4310   30.2100   34.6060 H   0  0  0  0  0  0  0  0  0  0  0  0
   31.5670   31.0270   36.6940 H   0  0  0  0  0  0  0  0  0  0  0  0
   32.9390   32.1860   38.2880 H   0  0  0  0  0  0  0  0  0  0  0  0
   35.3470   32.5460   37.7400 H   0  0  0  0  0  0  0  0  0  0  0  0
  1  4  1  0  0  0  0
  1  2  1  0  0  0  0
  1 24  1  0  0  0  0
  3  1  1  0  0  0  0
  4  6  1  0  0  0  0
  4  7  1  0  0  0  0
  5  4  1  0  0  0  0
  7  8  2  0  0  0  0
  7 12  1  0  0  0  0
  8  9  1  0  0  0  0
  9 14  1  0  0  0  0
  9 10  2  0  0  0  0
 11 10  1  0  0  0  0
 11 15  1  0  0  0  0
 12 11  2  0  0  0  0
 13  8  1  0  0  0  0
 15 18  1  0  0  0  0
 16 15  1  0  0  0  0
 17 15  1  0  0  0  0
 18 23  1  0  0  0  0
 18 19  2  0  0  0  0
 19 21  1  0  0  0  0
 20 19  1  0  0  0  0
 22 21  2  0  0  0  0
 23 22  1  0  0  0  0
 25 30  2  0  0  0  0
 25 26  1  0  0  0  0
 26 32  1  0  0  0  0
 26 27  2  0  0  0  0
 27 35  1  0  0  0  0
 28 27  1  0  0  0  0
 29 24  1  0  0  0  0
 29 28  2  0  0  0  0
 30 29  1  0  0  0  0
 31 25  1  0  0  0  0
 33 34  1  0  0  0  0
 34 39  1  0  0  0  0
 35 36  1  0  0  0  0
 35 34  2  0  0  0  0
 36 37  2  0  0  0  0
 37 41  1  0  0  0  0
 37 38  1  0  0  0  0
 38 42  1  0  0  0  0
 39 38  2  0  0  0  0
 39 43  1  0  0  0  0
 40 36  1  0  0  0  0
M  END
>  <minimizedAffinity>
-6.06073284

$$$$

 OpenBabel03272509593D

 43 46  0  0  0  0  0  0  0  0999 V2000
   36.9010   24.0210   31.9380 C   0  0  0  0  0  0  0  0  0  0  0  0
   37.7290   23.9440   31.1790 H   0  0  0  0  0  0  0  0  0  0  0  0
   37.3030   23.5890   32.8890 H   0  0  0  0  0  0  0  0  0  0  0  0
   35.6680   23.3070   31.4890 C   0  0  0  0  0  0  0  0  0  0  0  0
   34.8490   23.5090   32.2230 H   0  0  0  0  0  0  0  0  0  0  0  0
   35.2810   23.6280   30.5160 H   0  0  0  0  0  0  0  0  0  0  0  0
   35.8310   21.8210   31.4680 C   0  0  0  0  0  0  0  0  0  0  0  0
   34.9090   21.0640   32.1700 C   0  0  0  0  0  0  0  0  0  0  0  0
   34.9820   19.7010   32.2050 C   0  0  0  0  0  0  0  0  0  0  0  0
   35.9680   19.0760   31.5440 N   0  0  0  0  0  0  0  0  0  0  0  0
   36.8670   19.8390   30.8570 C   0  0  0  0  0  0  0  0  0  0  0  0
   36.8160   21.1740   30.8080 N   0  0  0  0  0  0  0  0  0  0  0  0
   34.0910   21.5040   32.7220 H   0  0  0  0  0  0  0  0  0  0  0  0
   34.2680   19.0870   32.7500 H   0  0  0  0  0  0  0  0  0  0  0  0
   37.9380   19.0990   30.1440 C   0  0  0  0  0  0  0  0  0  0  0  0
   38.8830   19.6760   30.1950 H   0  0  0  0  0  0  0  0  0  0  0  0
   38.0530   18.0770   30.5670 H   0  0  0  0  0  0  0  0  0  0  0  0
   37.6110   19.0400   28.6890 C   0  0  0  0  0  0  0  0  0  0  0  0
   36.5330   18.6030   28.0160 C   0  0  0  0  0  0  0  0  0  0  0  0
   35.7260   18.2090   28.6130 H   0  0  0  0  0  0  0  0  0  0  0  0
   36.4920   18.6660   26.6580 C   0  0  0  0  0  3  0  0  0  0  0  0
   37.6760   19.2270   26.0290 C   0  0  0  0  0  3  0  0  0  0  0  0
   38.7630   19.6190   27.5250 S   0  0  0  0  0  0  0  0  0  0  0  0
   36.6710   25.4080   32.1080 O   0  0  0  0  0  0  0  0  0  0  0  0
   37.3110   27.6970   34.8270 C   0  0  0  0  0  0  0  0  0  0  0  0
   38.0340   26.8580   35.6990 C   0  0  0  0  0  0  0  0  0  0  0  0
   38.2570   25.5520   35.2950 C   0  0  0  0  0  0  0  0  0  0  0  0
   37.7460   25.1930   34.0680 N   0  0  0  0  0  0  0  0  0  0  0  0
   37.0660   26.0050   33.2610 C   0  0  0  0  0  0  0  0  0  0  0  0
   36.8500   27.2810   33.6630 N   0  0  0  0  0  0  0  0  0  0  0  0
   37.1750   28.7010   35.2060 H   0  0  0  0  0  0  0  0  0  0  0  0
   38.4370   27.1210   36.6540 H   0  0  0  0  0  0  0  0  0  0  0  0
   40.7570   24.2670   34.5930 F   0  0  0  0  0  0  0  0  0  0  0  0
   40.1450   23.9300   35.7240 C   0  0  0  0  0  0  0  0  0  0  0  0
   38.9770   24.5360   36.0440 C   0  0  0  0  0  0  0  0  0  0  0  0
   38.4220   24.1120   37.2440 C   0  0  0  0  0  0  0  0  0  0  0  0
   39.0060   23.1610   38.0360 C   0  0  0  0  0  0  0  0  0  0  0  0
   40.1920   22.5690   37.6780 C   0  0  0  0  0  0  0  0  0  0  0  0
   40.7550   22.9700   36.5040 C   0  0  0  0  0  0  0  0  0  0  0  0
   37.4800   24.5250   37.6120 H   0  0  0  0  0  0  0  0  0  0  0  0
   38.5460   22.8520   38.9670 H   0  0  0  0  0  0  0  0  0  0  0  0
   40.6200   21.8180   38.3380 H   0  0  0  0  0  0  0  0  0  0  0  0
   41.6920   22.5180   36.1970 H   0  0  0  0  0  0  0  0  0  0  0  0
  1 24  1  0  0  0  0
  1  3  1  0  0  0  0
  2  1  1  0  0  0  0
  4  1  1  0  0  0  0
  4  5  1  0  0  0  0
  6  4  1  0  0  0  0
  7  4  1  0  0  0  0
  7  8  1  0  0  0  0
  8  9  2  0  0  0  0
  8 13  1  0  0  0  0
  9 14  1  0  0  0  0
 10  9  1  0  0  0  0
 11 10  2  0  0  0  0
 12 11  1  0  0  0  0
 12  7  2  0  0  0  0
 15 16  1  0  0  0  0
 15 17  1  0  0  0  0
 15 11  1  0  0  0  0
 18 15  1  0  0  0  0
 19 20  1  0  0  0  0
 19 18  2  0  0  0  0
 21 19  1  0  0  0  0
 22 21  2  0  0  0  0
 22 23  1  0  0  0  0
 23 18  1  0  0  0  0
 24 29  1  0  0  0  0
 25 31  1  0  0  0  0
 25 26  1  0  0  0  0
 26 32  1  0  0  0  0
 27 26  2  0  0  0  0
 27 35  1  0  0  0  0
 28 27  1  0  0  0  0
 29 30  1  0  0  0  0
 29 28  2  0  0  0  0
 30 25  2  0  0  0  0
 33 34  1  0  0  0  0
 34 35  2  0  0  0  0
 34 39  1  0  0  0  0
 35 36  1  0  0  0  0
 36 40  1  0  0  0  0
 36 37  2  0  0  0  0
 37 41  1  0  0  0  0
 38 37  1  0  0  0  0
 38 42  1  0  0  0  0
 39 38  2  0  0  0  0
 43 39  1  0  0  0  0
M  END
>  <minimizedAffinity>
-5.91535711

$$$$

 OpenBabel03272509593D

 43 46  0  0  0  0  0  0  0  0999 V2000
   37.3920   26.8260   35.2760 C   0  0  0  0  0  0  0  0  0  0  0  0
   36.6760   27.5460   35.7610 H   0  0  0  0  0  0  0  0  0  0  0  0
   37.1080   25.8050   35.6370 H   0  0  0  0  0  0  0  0  0  0  0  0
   38.8130   27.1480   35.6070 C   0  0  0  0  0  0  0  0  0  0  0  0
   39.0640   28.1500   35.1790 H   0  0  0  0  0  0  0  0  0  0  0  0
   39.0290   27.2210   36.6780 H   0  0  0  0  0  0  0  0  0  0  0  0
   39.7860   26.1940   34.9910 C   0  0  0  0  0  0  0  0  0  0  0  0
   40.9620   26.7150   34.4840 C   0  0  0  0  0  0  0  0  0  0  0  0
   41.9070   25.9160   33.9040 C   0  0  0  0  0  0  0  0  0  0  0  0
   41.6930   24.5950   33.8230 N   0  0  0  0  0  0  0  0  0  0  0  0
   40.5260   24.0990   34.3290 C   0  0  0  0  0  0  0  0  0  0  0  0
   39.5880   24.8610   34.9010 N   0  0  0  0  0  0  0  0  0  0  0  0
   41.1970   27.7700   34.5170 H   0  0  0  0  0  0  0  0  0  0  0  0
   42.8390   26.3060   33.4980 H   0  0  0  0  0  0  0  0  0  0  0  0
   40.3390   22.6310   34.2140 C   0  0  0  0  0  0  0  0  0  0  0  0
   39.3020   22.3670   34.5030 H   0  0  0  0  0  0  0  0  0  0  0  0
   40.5830   22.2860   33.1850 H   0  0  0  0  0  0  0  0  0  0  0  0
   41.1980   21.9440   35.2230 C   0  0  0  0  0  0  0  0  0  0  0  0
   42.3440   21.2490   35.1200 C   0  0  0  0  0  0  0  0  0  0  0  0
   42.7500   21.1450   34.1260 H   0  0  0  0  0  0  0  0  0  0  0  0
   42.9320   20.7170   36.2250 C   0  0  0  0  0  3  0  0  0  0  0  0
   42.2330   20.9610   37.4760 C   0  0  0  0  0  3  0  0  0  0  0  0
   40.7440   21.9730   36.8990 S   0  0  0  0  0  0  0  0  0  0  0  0
   37.1440   26.9230   33.8860 O   0  0  0  0  0  0  0  0  0  0  0  0
   36.2260   29.7210   31.7930 C   0  0  0  0  0  0  0  0  0  0  0  0
   35.5610   30.5330   32.7340 C   0  0  0  0  0  0  0  0  0  0  0  0
   35.4700   30.0650   34.0350 C   0  0  0  0  0  0  0  0  0  0  0  0
   36.0430   28.8390   34.2890 N   0  0  0  0  0  0  0  0  0  0  0  0
   36.6670   28.0890   33.3820 C   0  0  0  0  0  0  0  0  0  0  0  0
   36.7510   28.5520   32.1110 N   0  0  0  0  0  0  0  0  0  0  0  0
   36.2590   30.1460   30.8000 H   0  0  0  0  0  0  0  0  0  0  0  0
   35.1110   31.4850   32.5530 H   0  0  0  0  0  0  0  0  0  0  0  0
   36.6790   31.8980   35.9260 F   0  0  0  0  0  0  0  0  0  0  0  0
   35.3870   31.6050   36.0350 C   0  0  0  0  0  0  0  0  0  0  0  0
   34.8300   30.7480   35.1460 C   0  0  0  0  0  0  0  0  0  0  0  0
   33.4780   30.5120   35.3490 C   0  0  0  0  0  0  0  0  0  0  0  0
   32.7670   31.0970   36.3630 C   0  0  0  0  0  0  0  0  0  0  0  0
   33.3670   31.9620   37.2440 C   0  0  0  0  0  0  0  0  0  0  0  0
   34.6940   32.2090   37.0640 C   0  0  0  0  0  0  0  0  0  0  0  0
   32.9140   29.8380   34.6990 H   0  0  0  0  0  0  0  0  0  0  0  0
   31.7110   30.8900   36.4930 H   0  0  0  0  0  0  0  0  0  0  0  0
   32.7630   32.4030   38.0330 H   0  0  0  0  0  0  0  0  0  0  0  0
   35.1930   32.8880   37.7460 H   0  0  0  0  0  0  0  0  0  0  0  0
  1  4  1  0  0  0  0
  1  3  1  0  0  0  0
  1  2  1  0  0  0  0
  4  6  1  0  0  0  0
  5  4  1  0  0  0  0
  7  4  1  0  0  0  0
  8 13  1  0  0  0  0
  8  7  2  0  0  0  0
  9  8  1  0  0  0  0
 10  9  2  0  0  0  0
 10 11  1  0  0  0  0
 11 12  2  0  0  0  0
 12  7  1  0  0  0  0
 14  9  1  0  0  0  0
 15 11  1  0  0  0  0
 15 16  1  0  0  0  0
 15 18  1  0  0  0  0
 17 15  1  0  0  0  0
 18 23  1  0  0  0  0
 19 18  2  0  0  0  0
 19 21  1  0  0  0  0
 20 19  1  0  0  0  0
 21 22  2  0  0  0  0
 23 22  1  0  0  0  0
 24  1  1  0  0  0  0
 25 30  2  0  0  0  0
 25 26  1  0  0  0  0
 26 27  2  0  0  0  0
 27 28  1  0  0  0  0
 27 35  1  0  0  0  0
 29 24  1  0  0  0  0
 29 28  2  0  0  0  0
 30 29  1  0  0  0  0
 31 25  1  0  0  0  0
 32 26  1  0  0  0  0
 33 34  1  0  0  0  0
 34 39  1  0  0  0  0
 35 36  1  0  0  0  0
 35 34  2  0  0  0  0
 36 37  2  0  0  0  0
 37 41  1  0  0  0  0
 37 38  1  0  0  0  0
 38 42  1  0  0  0  0
 39 38  2  0  0  0  0
 39 43  1  0  0  0  0
 40 36  1  0  0  0  0
M  END
>  <minimizedAffinity>
-5.88271618

$$$$

 OpenBabel03272509593D

 43 46  0  0  0  0  0  0  0  0999 V2000
   37.0940   26.7050   34.9240 C   0  0  0  0  0  0  0  0  0  0  0  0
   36.6620   27.6170   35.4230 H   0  0  0  0  0  0  0  0  0  0  0  0
   36.4100   25.8540   35.1710 H   0  0  0  0  0  0  0  0  0  0  0  0
   38.4920   26.4350   35.3770 C   0  0  0  0  0  0  0  0  0  0  0  0
   39.1680   26.4560   34.4880 H   0  0  0  0  0  0  0  0  0  0  0  0
   38.8980   27.1740   36.0760 H   0  0  0  0  0  0  0  0  0  0  0  0
   38.6580   25.0750   35.9760 C   0  0  0  0  0  0  0  0  0  0  0  0
   37.6830   24.6380   36.8550 C   0  0  0  0  0  0  0  0  0  0  0  0
   37.7550   23.4090   37.4480 C   0  0  0  0  0  0  0  0  0  0  0  0
   38.7920   22.6050   37.1760 N   0  0  0  0  0  0  0  0  0  0  0  0
   39.7440   23.0540   36.3060 C   0  0  0  0  0  0  0  0  0  0  0  0
   39.6950   24.2510   35.7130 N   0  0  0  0  0  0  0  0  0  0  0  0
   36.8210   25.2360   37.1180 H   0  0  0  0  0  0  0  0  0  0  0  0
   36.9990   23.0450   38.1420 H   0  0  0  0  0  0  0  0  0  0  0  0
   40.8710   22.1250   36.0390 C   0  0  0  0  0  0  0  0  0  0  0  0
   41.0970   21.5460   36.9570 H   0  0  0  0  0  0  0  0  0  0  0  0
   40.6340   21.4620   35.1780 H   0  0  0  0  0  0  0  0  0  0  0  0
   42.1090   22.9160   35.7760 C   0  0  0  0  0  0  0  0  0  0  0  0
   43.0060   23.4980   36.5910 C   0  0  0  0  0  0  0  0  0  0  0  0
   42.8250   23.3950   37.6490 H   0  0  0  0  0  0  0  0  0  0  0  0
   44.0690   24.1740   36.0790 C   0  0  0  0  0  3  0  0  0  0  0  0
   44.1420   24.2050   34.6280 C   0  0  0  0  0  3  0  0  0  0  0  0
   42.6060   23.2170   34.1400 S   0  0  0  0  0  0  0  0  0  0  0  0
   37.0370   26.9700   33.5340 O   0  0  0  0  0  0  0  0  0  0  0  0
   36.2310   29.9450   31.6490 C   0  0  0  0  0  0  0  0  0  0  0  0
   35.5520   30.6920   32.6340 C   0  0  0  0  0  0  0  0  0  0  0  0
   35.4150   30.1230   33.8890 C   0  0  0  0  0  0  0  0  0  0  0  0
   35.9580   28.8690   34.0590 N   0  0  0  0  0  0  0  0  0  0  0  0
   36.5950   28.1830   33.1130 C   0  0  0  0  0  0  0  0  0  0  0  0
   36.7260   28.7440   31.8870 N   0  0  0  0  0  0  0  0  0  0  0  0
   36.3010   30.4480   30.6950 H   0  0  0  0  0  0  0  0  0  0  0  0
   35.1250   31.6640   32.5180 H   0  0  0  0  0  0  0  0  0  0  0  0
   32.6570   29.8030   34.7180 F   0  0  0  0  0  0  0  0  0  0  0  0
   33.4660   30.5830   35.4280 C   0  0  0  0  0  0  0  0  0  0  0  0
   34.7540   30.7270   35.0340 C   0  0  0  0  0  0  0  0  0  0  0  0
   35.5110   31.5620   35.8440 C   0  0  0  0  0  0  0  0  0  0  0  0
   34.9980   32.1870   36.9480 C   0  0  0  0  0  0  0  0  0  0  0  0
   33.6870   32.0160   37.3180 C   0  0  0  0  0  0  0  0  0  0  0  0
   32.9250   31.2010   36.5370 C   0  0  0  0  0  0  0  0  0  0  0  0
   36.5640   31.7590   35.6300 H   0  0  0  0  0  0  0  0  0  0  0  0
   35.6170   32.8330   37.5590 H   0  0  0  0  0  0  0  0  0  0  0  0
   33.3230   32.5320   38.2030 H   0  0  0  0  0  0  0  0  0  0  0  0
   31.8850   31.0480   36.8050 H   0  0  0  0  0  0  0  0  0  0  0  0
  1  3  1  0  0  0  0
  1  4  1  0  0  0  0
  1  2  1  0  0  0  0
  4  7  1  0  0  0  0
  4  6  1  0  0  0  0
  5  4  1  0  0  0  0
  7  8  1  0  0  0  0
  8 13  1  0  0  0  0
  8  9  2  0  0  0  0
  9 14  1  0  0  0  0
 10  9  1  0  0  0  0
 11 10  2  0  0  0  0
 12  7  2  0  0  0  0
 12 11  1  0  0  0  0
 15 11  1  0  0  0  0
 15 16  1  0  0  0  0
 17 15  1  0  0  0  0
 18 15  1  0  0  0  0
 18 19  2  0  0  0  0
 19 20  1  0  0  0  0
 21 19  1  0  0  0  0
 22 21  2  0  0  0  0
 23 22  1  0  0  0  0
 23 18  1  0  0  0  0
 24  1  1  0  0  0  0
 25 30  2  0  0  0  0
 25 26  1  0  0  0  0
 26 27  2  0  0  0  0
 27 28  1  0  0  0  0
 27 35  1  0  0  0  0
 29 24  1  0  0  0  0
 29 28  2  0  0  0  0
 30 29  1  0  0  0  0
 31 25  1  0  0  0  0
 32 26  1  0  0  0  0
 33 34  1  0  0  0  0
 34 39  1  0  0  0  0
 35 34  2  0  0  0  0
 35 36  1  0  0  0  0
 36 37  2  0  0  0  0
 37 38  1  0  0  0  0
 37 41  1  0  0  0  0
 38 42  1  0  0  0  0
 39 43  1  0  0  0  0
 39 38  2  0  0  0  0
 40 36  1  0  0  0  0
M  END
>  <minimizedAffinity>
-5.87263727

$$$$

 OpenBabel03272509593D

 43 46  0  0  0  0  0  0  0  0999 V2000
   37.0300   26.9590   34.9260 C   0  0  0  0  0  0  0  0  0  0  0  0
   36.2490   27.6180   35.3980 H   0  0  0  0  0  0  0  0  0  0  0  0
   36.7080   25.9030   35.1120 H   0  0  0  0  0  0  0  0  0  0  0  0
   38.3900   27.2240   35.4840 C   0  0  0  0  0  0  0  0  0  0  0  0
   38.8730   28.0350   34.8850 H   0  0  0  0  0  0  0  0  0  0  0  0
   38.4000   27.5760   36.5210 H   0  0  0  0  0  0  0  0  0  0  0  0
   39.3050   26.0460   35.3740 C   0  0  0  0  0  0  0  0  0  0  0  0
   40.5750   26.2650   34.8700 C   0  0  0  0  0  0  0  0  0  0  0  0
   41.4750   25.2460   34.7350 C   0  0  0  0  0  0  0  0  0  0  0  0
   41.1250   24.0040   35.0990 N   0  0  0  0  0  0  0  0  0  0  0  0
   39.8680   23.8080   35.5950 C   0  0  0  0  0  0  0  0  0  0  0  0
   38.9710   24.7890   35.7360 N   0  0  0  0  0  0  0  0  0  0  0  0
   40.9200   27.2410   34.5590 H   0  0  0  0  0  0  0  0  0  0  0  0
   42.4790   25.3960   34.3410 H   0  0  0  0  0  0  0  0  0  0  0  0
   39.5320   22.4160   35.9820 C   0  0  0  0  0  0  0  0  0  0  0  0
   40.3560   21.7390   35.6790 H   0  0  0  0  0  0  0  0  0  0  0  0
   39.3240   22.3530   37.0730 H   0  0  0  0  0  0  0  0  0  0  0  0
   38.3540   21.9540   35.1880 C   0  0  0  0  0  0  0  0  0  0  0  0
   37.1210   21.5540   35.5400 C   0  0  0  0  0  0  0  0  0  0  0  0
   36.9040   21.5510   36.5970 H   0  0  0  0  0  0  0  0  0  0  0  0
   36.2190   21.1780   34.5950 C   0  0  0  0  0  3  0  0  0  0  0  0
   36.6950   21.2470   33.2240 C   0  0  0  0  0  3  0  0  0  0  0  0
   38.4640   21.8730   33.4570 S   0  0  0  0  0  0  0  0  0  0  0  0
   36.9710   27.2350   33.5390 O   0  0  0  0  0  0  0  0  0  0  0  0
   35.9640   30.1540   31.6640 C   0  0  0  0  0  0  0  0  0  0  0  0
   35.2720   30.8690   32.6630 C   0  0  0  0  0  0  0  0  0  0  0  0
   35.1950   30.3000   33.9230 C   0  0  0  0  0  0  0  0  0  0  0  0
   35.8070   29.0770   34.0840 N   0  0  0  0  0  0  0  0  0  0  0  0
   36.4560   28.4210   33.1240 C   0  0  0  0  0  0  0  0  0  0  0  0
   36.5270   28.9830   31.8930 N   0  0  0  0  0  0  0  0  0  0  0  0
   35.9850   30.6560   30.7070 H   0  0  0  0  0  0  0  0  0  0  0  0
   34.7910   31.8180   32.5540 H   0  0  0  0  0  0  0  0  0  0  0  0
   32.4690   29.8640   34.8030 F   0  0  0  0  0  0  0  0  0  0  0  0
   33.2580   30.6750   35.5000 C   0  0  0  0  0  0  0  0  0  0  0  0
   34.5310   30.8740   35.0820 C   0  0  0  0  0  0  0  0  0  0  0  0
   35.2680   31.7370   35.8800 C   0  0  0  0  0  0  0  0  0  0  0  0
   34.7510   32.3380   36.9960 C   0  0  0  0  0  0  0  0  0  0  0  0
   33.4550   32.1120   37.3890 C   0  0  0  0  0  0  0  0  0  0  0  0
   32.7130   31.2680   36.6210 C   0  0  0  0  0  0  0  0  0  0  0  0
   36.3080   31.9780   35.6470 H   0  0  0  0  0  0  0  0  0  0  0  0
   35.3540   33.0080   37.5970 H   0  0  0  0  0  0  0  0  0  0  0  0
   33.0870   32.6110   38.2820 H   0  0  0  0  0  0  0  0  0  0  0  0
   31.6850   31.0720   36.9080 H   0  0  0  0  0  0  0  0  0  0  0  0
  1  3  1  0  0  0  0
  1  2  1  0  0  0  0
  1  4  1  0  0  0  0
  4  6  1  0  0  0  0
  5  4  1  0  0  0  0
  7  4  1  0  0  0  0
  7 12  1  0  0  0  0
  8  7  2  0  0  0  0
  9  8  1  0  0  0  0
  9 10  2  0  0  0  0
 10 11  1  0  0  0  0
 11 12  2  0  0  0  0
 11 15  1  0  0  0  0
 13  8  1  0  0  0  0
 14  9  1  0  0  0  0
 15 17  1  0  0  0  0
 16 15  1  0  0  0  0
 18 19  2  0  0  0  0
 18 15  1  0  0  0  0
 19 20  1  0  0  0  0
 21 19  1  0  0  0  0
 22 23  1  0  0  0  0
 22 21  2  0  0  0  0
 23 18  1  0  0  0  0
 24  1  1  0  0  0  0
 25 30  2  0  0  0  0
 25 26  1  0  0  0  0
 26 27  2  0  0  0  0
 27 28  1  0  0  0  0
 27 35  1  0  0  0  0
 29 24  1  0  0  0  0
 29 28  2  0  0  0  0
 30 29  1  0  0  0  0
 31 25  1  0  0  0  0
 32 26  1  0  0  0  0
 33 34  1  0  0  0  0
 34 39  1  0  0  0  0
 35 34  2  0  0  0  0
 35 36  1  0  0  0  0
 36 37  2  0  0  0  0
 37 38  1  0  0  0  0
 37 41  1  0  0  0  0
 38 42  1  0  0  0  0
 39 43  1  0  0  0  0
 39 38  2  0  0  0  0
 40 36  1  0  0  0  0
M  END
>  <minimizedAffinity>
-5.81758881

$$$$

 OpenBabel03272509593D

 43 46  0  0  0  0  0  0  0  0999 V2000
   36.5020   21.7180   32.4880 C   0  0  0  0  0  0  0  0  0  0  0  0
   35.6740   21.0420   32.8390 H   0  0  0  0  0  0  0  0  0  0  0  0
   36.6400   22.4910   33.2850 H   0  0  0  0  0  0  0  0  0  0  0  0
   36.1870   22.3410   31.1670 C   0  0  0  0  0  0  0  0  0  0  0  0
   36.8810   21.9220   30.3980 H   0  0  0  0  0  0  0  0  0  0  0  0
   35.1770   22.1400   30.7950 H   0  0  0  0  0  0  0  0  0  0  0  0
   36.4140   23.8190   31.1510 C   0  0  0  0  0  0  0  0  0  0  0  0
   35.3000   24.6390   31.1320 C   0  0  0  0  0  0  0  0  0  0  0  0
   35.4150   26.0000   31.1160 C   0  0  0  0  0  0  0  0  0  0  0  0
   36.6330   26.5590   31.1200 N   0  0  0  0  0  0  0  0  0  0  0  0
   37.7210   25.7340   31.1390 C   0  0  0  0  0  0  0  0  0  0  0  0
   37.6330   24.4000   31.1550 N   0  0  0  0  0  0  0  0  0  0  0  0
   34.2900   24.2530   31.1280 H   0  0  0  0  0  0  0  0  0  0  0  0
   34.5520   26.6630   31.1010 H   0  0  0  0  0  0  0  0  0  0  0  0
   39.0450   26.4030   31.1420 C   0  0  0  0  0  0  0  0  0  0  0  0
   39.7700   25.7900   30.5680 H   0  0  0  0  0  0  0  0  0  0  0  0
   38.9620   27.4350   30.7360 H   0  0  0  0  0  0  0  0  0  0  0  0
   39.5860   26.4190   32.5340 C   0  0  0  0  0  0  0  0  0  0  0  0
   39.1340   26.9590   33.6780 C   0  0  0  0  0  0  0  0  0  0  0  0
   38.1990   27.4950   33.6160 H   0  0  0  0  0  0  0  0  0  0  0  0
   39.8380   26.8220   34.8330 C   0  0  0  0  0  3  0  0  0  0  0  0
   41.0750   26.0670   34.7180 C   0  0  0  0  0  3  0  0  0  0  0  0
   41.0880   25.6200   32.8820 S   0  0  0  0  0  0  0  0  0  0  0  0
   37.6560   20.8990   32.4190 O   0  0  0  0  0  0  0  0  0  0  0  0
   41.0590   21.6160   33.3950 C   0  0  0  0  0  0  0  0  0  0  0  0
   40.8380   22.2550   34.6320 C   0  0  0  0  0  0  0  0  0  0  0  0
   39.5270   22.3990   35.0540 C   0  0  0  0  0  0  0  0  0  0  0  0
   38.5530   21.9010   34.2180 N   0  0  0  0  0  0  0  0  0  0  0  0
   38.7870   21.3000   33.0530 C   0  0  0  0  0  0  0  0  0  0  0  0
   40.0720   21.1630   32.6450 N   0  0  0  0  0  0  0  0  0  0  0  0
   42.1030   21.5390   33.1280 H   0  0  0  0  0  0  0  0  0  0  0  0
   41.5810   22.6480   35.2910 H   0  0  0  0  0  0  0  0  0  0  0  0
   40.4660   21.8620   37.7420 F   0  0  0  0  0  0  0  0  0  0  0  0
   39.5240   22.7790   37.5510 C   0  0  0  0  0  0  0  0  0  0  0  0
   39.0910   23.0250   36.2910 C   0  0  0  0  0  0  0  0  0  0  0  0
   38.1070   24.0000   36.2040 C   0  0  0  0  0  0  0  0  0  0  0  0
   37.6160   24.6580   37.2990 C   0  0  0  0  0  0  0  0  0  0  0  0
   38.0810   24.3830   38.5620 C   0  0  0  0  0  0  0  0  0  0  0  0
   39.0470   23.4290   38.6710 C   0  0  0  0  0  0  0  0  0  0  0  0
   37.6750   24.2870   35.2420 H   0  0  0  0  0  0  0  0  0  0  0  0
   36.8470   25.4140   37.1950 H   0  0  0  0  0  0  0  0  0  0  0  0
   37.6620   24.9310   39.4020 H   0  0  0  0  0  0  0  0  0  0  0  0
   39.4320   23.1900   39.6570 H   0  0  0  0  0  0  0  0  0  0  0  0
  1  2  1  0  0  0  0
  1  3  1  0  0  0  0
  4  1  1  0  0  0  0
  5  4  1  0  0  0  0
  6  4  1  0  0  0  0
  7 12  1  0  0  0  0
  7  4  1  0  0  0  0
  8  7  2  0  0  0  0
  9 10  2  0  0  0  0
  9  8  1  0  0  0  0
 10 11  1  0  0  0  0
 11 15  1  0  0  0  0
 11 12  2  0  0  0  0
 13  8  1  0  0  0  0
 14  9  1  0  0  0  0
 15 18  1  0  0  0  0
 16 15  1  0  0  0  0
 17 15  1  0  0  0  0
 18 23  1  0  0  0  0
 18 19  2  0  0  0  0
 19 21  1  0  0  0  0
 20 19  1  0  0  0  0
 22 21  2  0  0  0  0
 23 22  1  0  0  0  0
 24  1  1  0  0  0  0
 24 29  1  0  0  0  0
 25 26  1  0  0  0  0
 26 27  2  0  0  0  0
 26 32  1  0  0  0  0
 27 35  1  0  0  0  0
 28 27  1  0  0  0  0
 29 28  2  0  0  0  0
 30 29  1  0  0  0  0
 30 25  2  0  0  0  0
 31 25  1  0  0  0  0
 34 33  1  0  0  0  0
 34 39  1  0  0  0  0
 35 34  2  0  0  0  0
 36 35  1  0  0  0  0
 36 37  2  0  0  0  0
 37 38  1  0  0  0  0
 38 39  2  0  0  0  0
 38 42  1  0  0  0  0
 39 43  1  0  0  0  0
 40 36  1  0  0  0  0
 41 37  1  0  0  0  0
M  END
>  <minimizedAffinity>
-5.79773521

$$$$

 OpenBabel03272509593D

 43 46  0  0  0  0  0  0  0  0999 V2000
   36.7820   21.7750   31.5620 C   0  0  0  0  0  0  0  0  0  0  0  0
   36.8270   21.3600   30.5160 H   0  0  0  0  0  0  0  0  0  0  0  0
   37.6550   22.4680   31.6650 H   0  0  0  0  0  0  0  0  0  0  0  0
   36.8190   20.6910   32.5900 C   0  0  0  0  0  0  0  0  0  0  0  0
   35.8820   20.0880   32.5100 H   0  0  0  0  0  0  0  0  0  0  0  0
   37.6420   19.9780   32.4740 H   0  0  0  0  0  0  0  0  0  0  0  0
   36.8400   21.2160   33.9900 C   0  0  0  0  0  0  0  0  0  0  0  0
   35.8750   20.7510   34.8640 C   0  0  0  0  0  0  0  0  0  0  0  0
   35.8190   21.1770   36.1610 C   0  0  0  0  0  0  0  0  0  0  0  0
   36.7200   22.0670   36.6020 N   0  0  0  0  0  0  0  0  0  0  0  0
   37.6650   22.5150   35.7240 C   0  0  0  0  0  0  0  0  0  0  0  0
   37.7390   22.1120   34.4510 N   0  0  0  0  0  0  0  0  0  0  0  0
   35.1200   20.0330   34.5740 H   0  0  0  0  0  0  0  0  0  0  0  0
   35.0680   20.8230   36.8650 H   0  0  0  0  0  0  0  0  0  0  0  0
   38.6370   23.4990   36.2620 C   0  0  0  0  0  0  0  0  0  0  0  0
   38.8030   24.3010   35.5140 H   0  0  0  0  0  0  0  0  0  0  0  0
   38.2840   23.9060   37.2340 H   0  0  0  0  0  0  0  0  0  0  0  0
   39.9700   22.8430   36.4120 C   0  0  0  0  0  0  0  0  0  0  0  0
   40.4610   21.9760   37.3140 C   0  0  0  0  0  0  0  0  0  0  0  0
   39.7860   21.6740   38.1000 H   0  0  0  0  0  0  0  0  0  0  0  0
   41.7400   21.5250   37.2150 C   0  0  0  0  0  3  0  0  0  0  0  0
   42.4950   22.0470   36.0880 C   0  0  0  0  0  3  0  0  0  0  0  0
   41.2260   23.1780   35.2600 S   0  0  0  0  0  0  0  0  0  0  0  0
   35.5780   22.5160   31.6250 O   0  0  0  0  0  0  0  0  0  0  0  0
   35.1170   25.9880   30.7430 C   0  0  0  0  0  0  0  0  0  0  0  0
   36.0140   26.5990   31.6430 C   0  0  0  0  0  0  0  0  0  0  0  0
   36.7240   25.7740   32.5000 C   0  0  0  0  0  0  0  0  0  0  0  0
   36.4840   24.4230   32.3910 N   0  0  0  0  0  0  0  0  0  0  0  0
   35.6310   23.8690   31.5320 C   0  0  0  0  0  0  0  0  0  0  0  0
   34.9390   24.6810   30.6970 N   0  0  0  0  0  0  0  0  0  0  0  0
   34.5980   26.6900   30.1050 H   0  0  0  0  0  0  0  0  0  0  0  0
   36.2110   27.6450   31.7390 H   0  0  0  0  0  0  0  0  0  0  0  0
   39.6140   25.7250   32.3030 F   0  0  0  0  0  0  0  0  0  0  0  0
   39.0430   26.1850   33.4110 C   0  0  0  0  0  0  0  0  0  0  0  0
   37.6920   26.2050   33.4950 C   0  0  0  0  0  0  0  0  0  0  0  0
   37.1990   26.7040   34.6930 C   0  0  0  0  0  0  0  0  0  0  0  0
   38.0120   27.1390   35.7040 C   0  0  0  0  0  0  0  0  0  0  0  0
   39.3790   27.1050   35.5830 C   0  0  0  0  0  0  0  0  0  0  0  0
   39.8850   26.6190   34.4150 C   0  0  0  0  0  0  0  0  0  0  0  0
   36.1250   26.7710   34.8820 H   0  0  0  0  0  0  0  0  0  0  0  0
   37.5940   27.5230   36.6280 H   0  0  0  0  0  0  0  0  0  0  0  0
   39.9850   27.4610   36.4120 H   0  0  0  0  0  0  0  0  0  0  0  0
   40.9620   26.5790   34.2920 H   0  0  0  0  0  0  0  0  0  0  0  0
  1 24  1  0  0  0  0
  1  3  1  0  0  0  0
  1  4  1  0  0  0  0
  2  1  1  0  0  0  0
  4  7  1  0  0  0  0
  5  4  1  0  0  0  0
  6  4  1  0  0  0  0
  7 12  2  0  0  0  0
  7  8  1  0  0  0  0
  8  9  2  0  0  0  0
  9 10  1  0  0  0  0
  9 14  1  0  0  0  0
 11 15  1  0  0  0  0
 11 10  2  0  0  0  0
 12 11  1  0  0  0  0
 13  8  1  0  0  0  0
 15 18  1  0  0  0  0
 15 17  1  0  0  0  0
 16 15  1  0  0  0  0
 18 19  2  0  0  0  0
 19 20  1  0  0  0  0
 21 19  1  0  0  0  0
 22 21  2  0  0  0  0
 23 22  1  0  0  0  0
 23 18  1  0  0  0  0
 25 26  1  0  0  0  0
 26 32  1  0  0  0  0
 26 27  2  0  0  0  0
 27 35  1  0  0  0  0
 28 27  1  0  0  0  0
 29 24  1  0  0  0  0
 29 28  2  0  0  0  0
 30 25  2  0  0  0  0
 30 29  1  0  0  0  0
 31 25  1  0  0  0  0
 33 34  1  0  0  0  0
 34 35  2  0  0  0  0
 34 39  1  0  0  0  0
 35 36  1  0  0  0  0
 36 40  1  0  0  0  0
 36 37  2  0  0  0  0
 37 41  1  0  0  0  0
 38 37  1  0  0  0  0
 38 42  1  0  0  0  0
 39 38  2  0  0  0  0
 43 39  1  0  0  0  0
M  END
>  <minimizedAffinity>
-5.79741764

$$$$
