
 OpenBabel03272508503D

 37 41  0  0  0  0  0  0  0  0999 V2000
   37.3820   27.8140   32.2840 C   0  0  0  0  0  0  0  0  0  0  0  0
   36.7890   28.4590   31.2060 C   0  0  0  0  0  0  0  0  0  0  0  0
   35.8490   29.2910   31.8060 C   0  0  0  0  0  0  0  0  0  0  0  0
   35.9050   29.1260   33.1640 C   0  0  0  0  0  0  0  0  0  0  0  0
   36.8400   28.2290   33.4170 O   0  0  0  0  0  0  0  0  0  0  0  0
   36.9690   28.3790   30.1440 H   0  0  0  0  0  0  0  0  0  0  0  0
   35.1610   29.9760   31.3300 H   0  0  0  0  0  0  0  0  0  0  0  0
   33.7580   29.4770   34.2960 C   0  0  0  0  0  0  0  0  0  0  0  0
   35.0990   29.8000   34.1760 C   0  0  0  0  0  0  0  0  0  0  0  0
   35.7050   30.7490   34.9930 C   0  0  0  0  0  0  0  0  0  0  0  0
   34.9480   31.3970   35.9600 C   0  0  0  0  0  0  0  0  0  0  0  0
   35.2190   32.3450   36.8910 N   0  0  0  0  0  0  0  0  0  0  0  0
   34.0920   32.5780   37.5390 N   0  0  0  0  0  0  0  0  0  0  0  0
   33.0970   31.8150   37.0590 C   0  0  0  0  0  0  0  0  0  0  0  0
   33.6220   31.0410   36.0370 C   0  0  0  0  0  0  0  0  0  0  0  0
   32.9650   30.1130   35.2620 C   0  0  0  0  0  0  0  0  0  0  0  0
   33.3320   28.7260   33.6320 H   0  0  0  0  0  0  0  0  0  0  0  0
   36.7510   31.0200   34.9190 H   0  0  0  0  0  0  0  0  0  0  0  0
   36.1610   32.7900   37.0420 H   0  0  0  0  0  0  0  0  0  0  0  0
   32.0660   31.8120   37.4170 H   0  0  0  0  0  0  0  0  0  0  0  0
   31.9300   29.8830   35.3760 H   0  0  0  0  0  0  0  0  0  0  0  0
   38.4490   26.8230   32.1530 C   0  0  0  0  0  0  0  0  0  0  0  0
   39.4960   27.1490   31.5640 O   0  0  0  0  0  0  0  0  0  0  0  0
   37.4970   23.3230   32.3710 C   0  0  0  0  0  0  0  0  0  0  0  0
   37.8420   22.9580   33.6790 C   0  0  0  0  0  0  0  0  0  0  0  0
   38.4000   23.9200   34.4760 C   0  0  0  0  0  0  0  0  0  0  0  0
   38.5970   25.1570   33.9950 N   0  0  0  0  0  0  0  0  0  0  0  0
   38.2520   25.4940   32.7130 C   0  0  0  0  0  0  0  0  0  0  0  0
   37.7060   24.5550   31.9310 N   0  0  0  0  0  0  0  0  0  0  0  0
   37.0540   22.5910   31.7080 H   0  0  0  0  0  0  0  0  0  0  0  0
   37.6490   21.9490   33.9760 H   0  0  0  0  0  0  0  0  0  0  0  0
   38.7760   23.5890   35.8430 C   0  0  0  0  0  0  0  0  0  0  0  0
   39.8230   22.9640   36.3930 C   0  0  0  0  0  0  0  0  0  0  0  0
   40.5690   22.6190   35.6860 H   0  0  0  0  0  0  0  0  0  0  0  0
   39.9370   22.7800   37.7230 C   0  0  0  0  0  3  0  0  0  0  0  0
   38.8340   23.3140   38.4870 C   0  0  0  0  0  3  0  0  0  0  0  0
   37.7370   24.0340   37.1890 S   0  0  0  0  0  0  0  0  0  0  0  0
  1  5  1  0  0  0  0
  2  3  1  0  0  0  0
  2  1  2  0  0  0  0
  3  4  2  0  0  0  0
  4  5  1  0  0  0  0
  4  9  1  0  0  0  0
  6  2  1  0  0  0  0
  7  3  1  0  0  0  0
  8 16  1  0  0  0  0
  9  8  2  0  0  0  0
  9 10  1  0  0  0  0
 10 11  2  0  0  0  0
 11 15  1  0  0  0  0
 11 12  1  0  0  0  0
 12 19  1  0  0  0  0
 12 13  1  0  0  0  0
 14 20  1  0  0  0  0
 14 13  2  0  0  0  0
 15 14  1  0  0  0  0
 16 21  1  0  0  0  0
 16 15  2  0  0  0  0
 17  8  1  0  0  0  0
 18 10  1  0  0  0  0
 22  1  1  0  0  0  0
 22 28  1  0  0  0  0
 23 22  2  0  0  0  0
 24 25  1  0  0  0  0
 25 31  1  0  0  0  0
 25 26  2  0  0  0  0
 26 32  1  0  0  0  0
 27 26  1  0  0  0  0
 28 27  2  0  0  0  0
 29 24  2  0  0  0  0
 29 28  1  0  0  0  0
 30 24  1  0  0  0  0
 32 33  2  0  0  0  0
 32 37  1  0  0  0  0
 33 35  1  0  0  0  0
 34 33  1  0  0  0  0
 35 36  2  0  0  0  0
 37 36  1  0  0  0  0
M  END
>  <minimizedAffinity>
-6.43471336

$$$$

 OpenBabel03272508503D

 37 41  0  0  0  0  0  0  0  0999 V2000
   36.6470   25.9700   31.9340 C   0  0  0  0  0  0  0  0  0  0  0  0
   35.4540   25.9300   31.2250 C   0  0  0  0  0  0  0  0  0  0  0  0
   35.1860   24.5690   31.1210 C   0  0  0  0  0  0  0  0  0  0  0  0
   36.1840   23.8660   31.7430 C   0  0  0  0  0  0  0  0  0  0  0  0
   37.0470   24.7430   32.2220 O   0  0  0  0  0  0  0  0  0  0  0  0
   34.8370   26.7230   30.8270 H   0  0  0  0  0  0  0  0  0  0  0  0
   34.3460   24.0860   30.6410 H   0  0  0  0  0  0  0  0  0  0  0  0
   37.5610   21.8530   31.9910 C   0  0  0  0  0  0  0  0  0  0  0  0
   36.3040   22.4190   31.8740 C   0  0  0  0  0  0  0  0  0  0  0  0
   35.1450   21.6480   31.8770 C   0  0  0  0  0  0  0  0  0  0  0  0
   35.2460   20.2690   32.0000 C   0  0  0  0  0  0  0  0  0  0  0  0
   34.3430   19.2570   32.0370 N   0  0  0  0  0  0  0  0  0  0  0  0
   35.0300   18.1370   32.1710 N   0  0  0  0  0  0  0  0  0  0  0  0
   36.3490   18.3870   32.2210 C   0  0  0  0  0  0  0  0  0  0  0  0
   36.5170   19.7570   32.1130 C   0  0  0  0  0  0  0  0  0  0  0  0
   37.6990   20.4630   32.1180 C   0  0  0  0  0  0  0  0  0  0  0  0
   38.4370   22.5000   31.9840 H   0  0  0  0  0  0  0  0  0  0  0  0
   34.1500   22.0660   31.7860 H   0  0  0  0  0  0  0  0  0  0  0  0
   33.3000   19.3770   31.9690 H   0  0  0  0  0  0  0  0  0  0  0  0
   37.1360   17.6380   32.3290 H   0  0  0  0  0  0  0  0  0  0  0  0
   38.6560   20.0010   32.2100 H   0  0  0  0  0  0  0  0  0  0  0  0
   37.3390   27.2070   32.2950 C   0  0  0  0  0  0  0  0  0  0  0  0
   38.5540   27.1560   32.5590 O   0  0  0  0  0  0  0  0  0  0  0  0
   35.7540   30.2700   31.1490 C   0  0  0  0  0  0  0  0  0  0  0  0
   35.1810   30.8100   32.3070 C   0  0  0  0  0  0  0  0  0  0  0  0
   35.3440   30.1150   33.4750 C   0  0  0  0  0  0  0  0  0  0  0  0
   36.0320   28.9630   33.4780 N   0  0  0  0  0  0  0  0  0  0  0  0
   36.5850   28.4530   32.3350 C   0  0  0  0  0  0  0  0  0  0  0  0
   36.4280   29.1290   31.1910 N   0  0  0  0  0  0  0  0  0  0  0  0
   35.6490   30.7890   30.2040 H   0  0  0  0  0  0  0  0  0  0  0  0
   34.6490   31.7330   32.2100 H   0  0  0  0  0  0  0  0  0  0  0  0
   34.7650   30.6360   34.7050 C   0  0  0  0  0  0  0  0  0  0  0  0
   35.1860   31.4980   35.6370 C   0  0  0  0  0  0  0  0  0  0  0  0
   36.1720   31.9140   35.4600 H   0  0  0  0  0  0  0  0  0  0  0  0
   34.4390   31.8220   36.7110 C   0  0  0  0  0  3  0  0  0  0  0  0
   33.1590   31.1570   36.7580 C   0  0  0  0  0  3  0  0  0  0  0  0
   33.1680   30.1220   35.2290 S   0  0  0  0  0  0  0  0  0  0  0  0
  1  5  1  0  0  0  0
  1 22  1  0  0  0  0
  2  1  2  0  0  0  0
  3  2  1  0  0  0  0
  3  4  2  0  0  0  0
  4  9  1  0  0  0  0
  4  5  1  0  0  0  0
  6  2  1  0  0  0  0
  7  3  1  0  0  0  0
  8 16  1  0  0  0  0
  9 10  1  0  0  0  0
  9  8  2  0  0  0  0
 10 11  2  0  0  0  0
 11 12  1  0  0  0  0
 11 15  1  0  0  0  0
 12 13  1  0  0  0  0
 13 14  2  0  0  0  0
 14 20  1  0  0  0  0
 15 16  2  0  0  0  0
 15 14  1  0  0  0  0
 16 21  1  0  0  0  0
 17  8  1  0  0  0  0
 18 10  1  0  0  0  0
 19 12  1  0  0  0  0
 22 28  1  0  0  0  0
 22 23  2  0  0  0  0
 24 29  2  0  0  0  0
 24 25  1  0  0  0  0
 25 26  2  0  0  0  0
 26 27  1  0  0  0  0
 26 32  1  0  0  0  0
 28 27  2  0  0  0  0
 29 28  1  0  0  0  0
 30 24  1  0  0  0  0
 31 25  1  0  0  0  0
 32 37  1  0  0  0  0
 32 33  2  0  0  0  0
 33 35  1  0  0  0  0
 34 33  1  0  0  0  0
 35 36  2  0  0  0  0
 37 36  1  0  0  0  0
M  END
>  <minimizedAffinity>
-6.38530445

$$$$

 OpenBabel03272508503D

 37 41  0  0  0  0  0  0  0  0999 V2000
   37.0550   27.3850   32.8990 C   0  0  0  0  0  0  0  0  0  0  0  0
   36.9380   28.2520   31.8200 C   0  0  0  0  0  0  0  0  0  0  0  0
   36.1560   29.2880   32.3230 C   0  0  0  0  0  0  0  0  0  0  0  0
   35.8430   29.0210   33.6290 C   0  0  0  0  0  0  0  0  0  0  0  0
   36.4010   27.8660   33.9420 O   0  0  0  0  0  0  0  0  0  0  0  0
   37.3320   28.1940   30.8150 H   0  0  0  0  0  0  0  0  0  0  0  0
   35.8200   30.1810   31.8140 H   0  0  0  0  0  0  0  0  0  0  0  0
   33.6860   29.5960   34.6430 C   0  0  0  0  0  0  0  0  0  0  0  0
   35.0450   29.8370   34.5360 C   0  0  0  0  0  0  0  0  0  0  0  0
   35.6770   30.8350   35.2710 C   0  0  0  0  0  0  0  0  0  0  0  0
   34.9270   31.6190   36.1390 C   0  0  0  0  0  0  0  0  0  0  0  0
   35.2220   32.6450   36.9750 N   0  0  0  0  0  0  0  0  0  0  0  0
   34.0900   33.0010   37.5560 N   0  0  0  0  0  0  0  0  0  0  0  0
   33.0710   32.2420   37.1230 C   0  0  0  0  0  0  0  0  0  0  0  0
   33.5830   31.3390   36.2060 C   0  0  0  0  0  0  0  0  0  0  0  0
   32.9000   30.3690   35.5100 C   0  0  0  0  0  0  0  0  0  0  0  0
   33.2390   28.8020   34.0460 H   0  0  0  0  0  0  0  0  0  0  0  0
   36.7370   31.0440   35.2060 H   0  0  0  0  0  0  0  0  0  0  0  0
   36.1810   33.0550   37.1120 H   0  0  0  0  0  0  0  0  0  0  0  0
   32.0300   32.3290   37.4440 H   0  0  0  0  0  0  0  0  0  0  0  0
   31.8510   30.2050   35.6100 H   0  0  0  0  0  0  0  0  0  0  0  0
   37.8000   26.1280   32.8550 C   0  0  0  0  0  0  0  0  0  0  0  0
   37.2890   25.1520   32.2770 O   0  0  0  0  0  0  0  0  0  0  0  0
   41.1540   27.1020   33.8620 C   0  0  0  0  0  0  0  0  0  0  0  0
   41.6010   26.0260   34.6390 C   0  0  0  0  0  0  0  0  0  0  0  0
   40.7440   24.9720   34.8120 C   0  0  0  0  0  0  0  0  0  0  0  0
   39.5280   24.9990   34.2450 N   0  0  0  0  0  0  0  0  0  0  0  0
   39.1110   26.0600   33.4870 C   0  0  0  0  0  0  0  0  0  0  0  0
   39.9460   27.0920   33.3160 N   0  0  0  0  0  0  0  0  0  0  0  0
   41.8020   27.9540   33.7010 H   0  0  0  0  0  0  0  0  0  0  0  0
   42.5850   26.0910   35.0530 H   0  0  0  0  0  0  0  0  0  0  0  0
   41.1630   23.8310   35.6130 C   0  0  0  0  0  0  0  0  0  0  0  0
   42.3520   23.3340   35.9690 C   0  0  0  0  0  0  0  0  0  0  0  0
   43.2070   23.8830   35.5910 H   0  0  0  0  0  0  0  0  0  0  0  0
   42.4730   22.2350   36.7390 C   0  0  0  0  0  3  0  0  0  0  0  0
   41.2130   21.6530   37.1360 C   0  0  0  0  0  3  0  0  0  0  0  0
   39.9710   22.7680   36.3470 S   0  0  0  0  0  0  0  0  0  0  0  0
  1  5  1  0  0  0  0
  2  3  1  0  0  0  0
  2  1  2  0  0  0  0
  3  4  2  0  0  0  0
  4  5  1  0  0  0  0
  4  9  1  0  0  0  0
  6  2  1  0  0  0  0
  7  3  1  0  0  0  0
  8 16  1  0  0  0  0
  9  8  2  0  0  0  0
  9 10  1  0  0  0  0
 10 11  2  0  0  0  0
 11 15  1  0  0  0  0
 11 12  1  0  0  0  0
 12 19  1  0  0  0  0
 12 13  1  0  0  0  0
 14 20  1  0  0  0  0
 14 13  2  0  0  0  0
 15 14  1  0  0  0  0
 16 21  1  0  0  0  0
 16 15  2  0  0  0  0
 17  8  1  0  0  0  0
 18 10  1  0  0  0  0
 22  1  1  0  0  0  0
 22 28  1  0  0  0  0
 23 22  2  0  0  0  0
 24 25  1  0  0  0  0
 25 26  2  0  0  0  0
 25 31  1  0  0  0  0
 26 32  1  0  0  0  0
 27 26  1  0  0  0  0
 28 27  2  0  0  0  0
 29 28  1  0  0  0  0
 29 24  2  0  0  0  0
 30 24  1  0  0  0  0
 32 33  2  0  0  0  0
 32 37  1  0  0  0  0
 33 35  1  0  0  0  0
 34 33  1  0  0  0  0
 35 36  2  0  0  0  0
 37 36  1  0  0  0  0
M  END
>  <minimizedAffinity>
-6.29248524

$$$$

 OpenBabel03272508503D

 37 41  0  0  0  0  0  0  0  0999 V2000
   36.6220   27.9180   32.5070 C   0  0  0  0  0  0  0  0  0  0  0  0
   37.2510   27.3380   33.6010 C   0  0  0  0  0  0  0  0  0  0  0  0
   36.7960   28.0980   34.6740 C   0  0  0  0  0  0  0  0  0  0  0  0
   35.9460   29.0670   34.2100 C   0  0  0  0  0  0  0  0  0  0  0  0
   35.8650   28.9290   32.8990 O   0  0  0  0  0  0  0  0  0  0  0  0
   37.9340   26.5040   33.6690 H   0  0  0  0  0  0  0  0  0  0  0  0
   37.0370   27.9890   35.7220 H   0  0  0  0  0  0  0  0  0  0  0  0
   35.9740   31.0380   35.6680 C   0  0  0  0  0  0  0  0  0  0  0  0
   35.2430   30.0800   34.9880 C   0  0  0  0  0  0  0  0  0  0  0  0
   33.8510   30.0520   35.0220 C   0  0  0  0  0  0  0  0  0  0  0  0
   33.1700   31.0110   35.7600 C   0  0  0  0  0  0  0  0  0  0  0  0
   31.8580   31.2610   35.9980 N   0  0  0  0  0  0  0  0  0  0  0  0
   31.8080   32.3210   36.7840 N   0  0  0  0  0  0  0  0  0  0  0  0
   33.0430   32.7680   37.0650 C   0  0  0  0  0  0  0  0  0  0  0  0
   33.9430   31.9400   36.4160 C   0  0  0  0  0  0  0  0  0  0  0  0
   35.3170   32.0220   36.4220 C   0  0  0  0  0  0  0  0  0  0  0  0
   37.0610   31.0170   35.6080 H   0  0  0  0  0  0  0  0  0  0  0  0
   33.2560   29.3130   34.5000 H   0  0  0  0  0  0  0  0  0  0  0  0
   31.0570   30.6970   35.6130 H   0  0  0  0  0  0  0  0  0  0  0  0
   33.2820   33.6290   37.6930 H   0  0  0  0  0  0  0  0  0  0  0  0
   35.8570   32.7710   36.9550 H   0  0  0  0  0  0  0  0  0  0  0  0
   36.7940   27.4550   31.1310 C   0  0  0  0  0  0  0  0  0  0  0  0
   36.4260   28.1970   30.2020 O   0  0  0  0  0  0  0  0  0  0  0  0
   39.2240   24.9440   30.1320 C   0  0  0  0  0  0  0  0  0  0  0  0
   38.5890   23.7270   30.4100 C   0  0  0  0  0  0  0  0  0  0  0  0
   37.3280   23.7800   30.9400 C   0  0  0  0  0  0  0  0  0  0  0  0
   36.7490   24.9680   31.1730 N   0  0  0  0  0  0  0  0  0  0  0  0
   37.3870   26.1460   30.8930 C   0  0  0  0  0  0  0  0  0  0  0  0
   38.6200   26.0990   30.3750 N   0  0  0  0  0  0  0  0  0  0  0  0
   40.2220   24.9460   29.7120 H   0  0  0  0  0  0  0  0  0  0  0  0
   39.1270   22.8290   30.1930 H   0  0  0  0  0  0  0  0  0  0  0  0
   36.6270   22.5410   31.2460 C   0  0  0  0  0  0  0  0  0  0  0  0
   35.4510   22.2560   31.8140 C   0  0  0  0  0  0  0  0  0  0  0  0
   34.8730   23.1210   32.1240 H   0  0  0  0  0  0  0  0  0  0  0  0
   35.0200   20.9910   31.9870 C   0  0  0  0  0  3  0  0  0  0  0  0
   35.9390   19.9870   31.5070 C   0  0  0  0  0  3  0  0  0  0  0  0
   37.3440   20.9860   30.8490 S   0  0  0  0  0  0  0  0  0  0  0  0
  1  5  1  0  0  0  0
  1  2  2  0  0  0  0
  2  6  1  0  0  0  0
  2  3  1  0  0  0  0
  3  7  1  0  0  0  0
  4  3  2  0  0  0  0
  4  9  1  0  0  0  0
  5  4  1  0  0  0  0
  8 16  1  0  0  0  0
  9 10  1  0  0  0  0
  9  8  2  0  0  0  0
 10 11  2  0  0  0  0
 11 12  1  0  0  0  0
 11 15  1  0  0  0  0
 12 13  1  0  0  0  0
 13 14  2  0  0  0  0
 14 20  1  0  0  0  0
 15 16  2  0  0  0  0
 15 14  1  0  0  0  0
 16 21  1  0  0  0  0
 17  8  1  0  0  0  0
 18 10  1  0  0  0  0
 19 12  1  0  0  0  0
 22  1  1  0  0  0  0
 23 22  2  0  0  0  0
 24 29  2  0  0  0  0
 24 25  1  0  0  0  0
 25 26  2  0  0  0  0
 26 27  1  0  0  0  0
 26 32  1  0  0  0  0
 28 22  1  0  0  0  0
 28 27  2  0  0  0  0
 29 28  1  0  0  0  0
 30 24  1  0  0  0  0
 31 25  1  0  0  0  0
 32 33  2  0  0  0  0
 33 35  1  0  0  0  0
 33 34  1  0  0  0  0
 36 35  2  0  0  0  0
 37 32  1  0  0  0  0
 37 36  1  0  0  0  0
M  END
>  <minimizedAffinity>
-6.28495836

$$$$

 OpenBabel03272508503D

 37 41  0  0  0  0  0  0  0  0999 V2000
   37.9830   27.3720   34.2480 C   0  0  0  0  0  0  0  0  0  0  0  0
   37.3690   27.2580   33.0070 C   0  0  0  0  0  0  0  0  0  0  0  0
   36.3010   28.1450   33.0930 C   0  0  0  0  0  0  0  0  0  0  0  0
   36.3060   28.7360   34.3280 C   0  0  0  0  0  0  0  0  0  0  0  0
   37.3330   28.2470   34.9980 O   0  0  0  0  0  0  0  0  0  0  0  0
   37.6130   26.6510   32.1470 H   0  0  0  0  0  0  0  0  0  0  0  0
   35.5570   28.3720   32.3420 H   0  0  0  0  0  0  0  0  0  0  0  0
   34.0840   29.7720   34.3330 C   0  0  0  0  0  0  0  0  0  0  0  0
   35.3690   29.7270   34.8440 C   0  0  0  0  0  0  0  0  0  0  0  0
   35.7980   30.6010   35.8390 C   0  0  0  0  0  0  0  0  0  0  0  0
   34.9140   31.5490   36.3380 C   0  0  0  0  0  0  0  0  0  0  0  0
   35.0070   32.5210   37.2790 N   0  0  0  0  0  0  0  0  0  0  0  0
   33.8310   33.1190   37.3290 N   0  0  0  0  0  0  0  0  0  0  0  0
   32.9770   32.5690   36.4500 C   0  0  0  0  0  0  0  0  0  0  0  0
   33.6500   31.5510   35.7960 C   0  0  0  0  0  0  0  0  0  0  0  0
   33.1660   30.7170   34.8150 C   0  0  0  0  0  0  0  0  0  0  0  0
   33.7970   29.0650   33.5550 H   0  0  0  0  0  0  0  0  0  0  0  0
   36.7970   30.5870   36.2550 H   0  0  0  0  0  0  0  0  0  0  0  0
   35.8690   32.7320   37.8450 H   0  0  0  0  0  0  0  0  0  0  0  0
   31.9410   32.8760   36.2900 H   0  0  0  0  0  0  0  0  0  0  0  0
   32.1700   30.7720   34.4380 H   0  0  0  0  0  0  0  0  0  0  0  0
   39.1730   26.6190   34.6400 C   0  0  0  0  0  0  0  0  0  0  0  0
   40.2870   27.0310   34.2720 O   0  0  0  0  0  0  0  0  0  0  0  0
   37.6410   24.1700   36.8460 C   0  0  0  0  0  0  0  0  0  0  0  0
   38.6210   23.1790   36.9870 C   0  0  0  0  0  0  0  0  0  0  0  0
   39.8030   23.3610   36.3210 C   0  0  0  0  0  0  0  0  0  0  0  0
   39.9860   24.4580   35.5690 N   0  0  0  0  0  0  0  0  0  0  0  0
   39.0140   25.4150   35.4450 C   0  0  0  0  0  0  0  0  0  0  0  0
   37.8580   25.2400   36.0950 N   0  0  0  0  0  0  0  0  0  0  0  0
   36.6920   24.0630   37.3560 H   0  0  0  0  0  0  0  0  0  0  0  0
   38.3880   22.3390   37.6050 H   0  0  0  0  0  0  0  0  0  0  0  0
   40.8520   22.3590   36.4350 C   0  0  0  0  0  0  0  0  0  0  0  0
   41.3480   21.6460   37.4520 C   0  0  0  0  0  0  0  0  0  0  0  0
   40.8830   21.8390   38.4130 H   0  0  0  0  0  0  0  0  0  0  0  0
   42.3480   20.7570   37.2910 C   0  0  0  0  0  3  0  0  0  0  0  0
   42.8260   20.6500   35.9320 C   0  0  0  0  0  3  0  0  0  0  0  0
   41.7690   21.8590   35.0210 S   0  0  0  0  0  0  0  0  0  0  0  0
  1 22  1  0  0  0  0
  1  5  1  0  0  0  0
  2  3  1  0  0  0  0
  2  1  2  0  0  0  0
  3  4  2  0  0  0  0
  4  9  1  0  0  0  0
  4  5  1  0  0  0  0
  6  2  1  0  0  0  0
  7  3  1  0  0  0  0
  8 16  2  0  0  0  0
  8  9  1  0  0  0  0
  9 10  2  0  0  0  0
 10 18  1  0  0  0  0
 10 11  1  0  0  0  0
 11 12  1  0  0  0  0
 12 13  1  0  0  0  0
 12 19  1  0  0  0  0
 14 13  2  0  0  0  0
 15 11  2  0  0  0  0
 15 14  1  0  0  0  0
 16 15  1  0  0  0  0
 17  8  1  0  0  0  0
 20 14  1  0  0  0  0
 21 16  1  0  0  0  0
 22 28  1  0  0  0  0
 23 22  2  0  0  0  0
 24 25  1  0  0  0  0
 24 30  1  0  0  0  0
 25 31  1  0  0  0  0
 26 32  1  0  0  0  0
 26 25  2  0  0  0  0
 27 26  1  0  0  0  0
 28 27  2  0  0  0  0
 28 29  1  0  0  0  0
 29 24  2  0  0  0  0
 32 33  2  0  0  0  0
 33 34  1  0  0  0  0
 35 33  1  0  0  0  0
 36 35  2  0  0  0  0
 37 36  1  0  0  0  0
 37 32  1  0  0  0  0
M  END
>  <minimizedAffinity>
-6.26192474

$$$$

 OpenBabel03272508503D

 37 41  0  0  0  0  0  0  0  0999 V2000
   36.1450   24.6180   31.6200 C   0  0  0  0  0  0  0  0  0  0  0  0
   36.0390   23.2780   31.2680 C   0  0  0  0  0  0  0  0  0  0  0  0
   36.9720   22.6540   32.0890 C   0  0  0  0  0  0  0  0  0  0  0  0
   37.5830   23.5960   32.8730 C   0  0  0  0  0  0  0  0  0  0  0  0
   37.0600   24.7680   32.5640 O   0  0  0  0  0  0  0  0  0  0  0  0
   35.4070   22.7820   30.5450 H   0  0  0  0  0  0  0  0  0  0  0  0
   37.2180   21.6020   32.1440 H   0  0  0  0  0  0  0  0  0  0  0  0
   39.9490   23.5290   33.5140 C   0  0  0  0  0  0  0  0  0  0  0  0
   38.6210   23.3830   33.8750 C   0  0  0  0  0  0  0  0  0  0  0  0
   38.2420   23.0370   35.1690 C   0  0  0  0  0  0  0  0  0  0  0  0
   39.2220   22.8310   36.1310 C   0  0  0  0  0  0  0  0  0  0  0  0
   39.1960   22.4940   37.4450 N   0  0  0  0  0  0  0  0  0  0  0  0
   40.4520   22.4420   37.8510 N   0  0  0  0  0  0  0  0  0  0  0  0
   41.2920   22.7330   36.8450 C   0  0  0  0  0  0  0  0  0  0  0  0
   40.5240   22.9890   35.7210 C   0  0  0  0  0  0  0  0  0  0  0  0
   40.9620   23.3290   34.4620 C   0  0  0  0  0  0  0  0  0  0  0  0
   40.1920   23.8020   32.4880 H   0  0  0  0  0  0  0  0  0  0  0  0
   37.2110   22.9160   35.4770 H   0  0  0  0  0  0  0  0  0  0  0  0
   38.3230   22.3150   38.0050 H   0  0  0  0  0  0  0  0  0  0  0  0
   42.3820   22.7610   36.9120 H   0  0  0  0  0  0  0  0  0  0  0  0
   41.9940   23.4350   34.2100 H   0  0  0  0  0  0  0  0  0  0  0  0
   35.3490   25.6840   31.0160 C   0  0  0  0  0  0  0  0  0  0  0  0
   34.3740   25.3720   30.3080 O   0  0  0  0  0  0  0  0  0  0  0  0
   36.9280   28.9240   30.5480 C   0  0  0  0  0  0  0  0  0  0  0  0
   36.4800   29.6810   31.6380 C   0  0  0  0  0  0  0  0  0  0  0  0
   35.6360   29.0710   32.5260 C   0  0  0  0  0  0  0  0  0  0  0  0
   35.2710   27.7940   32.3340 N   0  0  0  0  0  0  0  0  0  0  0  0
   35.7210   27.0710   31.2620 C   0  0  0  0  0  0  0  0  0  0  0  0
   36.5460   27.6640   30.3910 N   0  0  0  0  0  0  0  0  0  0  0  0
   37.5960   29.3700   29.8220 H   0  0  0  0  0  0  0  0  0  0  0  0
   36.8220   30.6910   31.7100 H   0  0  0  0  0  0  0  0  0  0  0  0
   35.1430   29.8170   33.6750 C   0  0  0  0  0  0  0  0  0  0  0  0
   35.7050   30.6650   34.5420 C   0  0  0  0  0  0  0  0  0  0  0  0
   36.7600   30.8530   34.3750 H   0  0  0  0  0  0  0  0  0  0  0  0
   35.0110   31.2370   35.5450 C   0  0  0  0  0  3  0  0  0  0  0  0
   33.6210   30.8520   35.5920 C   0  0  0  0  0  3  0  0  0  0  0  0
   33.4600   29.6900   34.1670 S   0  0  0  0  0  0  0  0  0  0  0  0
  1  5  1  0  0  0  0
  2  1  2  0  0  0  0
  2  3  1  0  0  0  0
  3  7  1  0  0  0  0
  3  4  2  0  0  0  0
  4  9  1  0  0  0  0
  5  4  1  0  0  0  0
  6  2  1  0  0  0  0
  8  9  2  0  0  0  0
  8 16  1  0  0  0  0
  9 10  1  0  0  0  0
 10 18  1  0  0  0  0
 10 11  2  0  0  0  0
 11 12  1  0  0  0  0
 12 13  1  0  0  0  0
 12 19  1  0  0  0  0
 14 20  1  0  0  0  0
 14 13  2  0  0  0  0
 15 11  1  0  0  0  0
 15 14  1  0  0  0  0
 16 15  2  0  0  0  0
 17  8  1  0  0  0  0
 21 16  1  0  0  0  0
 22 28  1  0  0  0  0
 22  1  1  0  0  0  0
 23 22  2  0  0  0  0
 24 25  1  0  0  0  0
 25 31  1  0  0  0  0
 25 26  2  0  0  0  0
 26 32  1  0  0  0  0
 27 26  1  0  0  0  0
 28 27  2  0  0  0  0
 29 24  2  0  0  0  0
 29 28  1  0  0  0  0
 30 24  1  0  0  0  0
 32 37  1  0  0  0  0
 32 33  2  0  0  0  0
 33 35  1  0  0  0  0
 34 33  1  0  0  0  0
 35 36  2  0  0  0  0
 37 36  1  0  0  0  0
M  END
>  <minimizedAffinity>
-6.23060513

$$$$

 OpenBabel03272508503D

 37 41  0  0  0  0  0  0  0  0999 V2000
   37.8930   25.5660   35.7170 C   0  0  0  0  0  0  0  0  0  0  0  0
   38.5390   26.6040   36.3790 C   0  0  0  0  0  0  0  0  0  0  0  0
   38.0970   27.7390   35.7060 C   0  0  0  0  0  0  0  0  0  0  0  0
   37.2380   27.3640   34.7070 C   0  0  0  0  0  0  0  0  0  0  0  0
   37.1390   26.0480   34.7430 O   0  0  0  0  0  0  0  0  0  0  0  0
   39.2250   26.5960   37.2130 H   0  0  0  0  0  0  0  0  0  0  0  0
   38.3540   28.7720   35.8960 H   0  0  0  0  0  0  0  0  0  0  0  0
   36.7940   28.0870   32.4070 C   0  0  0  0  0  0  0  0  0  0  0  0
   36.5430   28.2280   33.7610 C   0  0  0  0  0  0  0  0  0  0  0  0
   35.6450   29.1730   34.2510 C   0  0  0  0  0  0  0  0  0  0  0  0
   34.9780   30.0020   33.3590 C   0  0  0  0  0  0  0  0  0  0  0  0
   34.0670   30.9970   33.4990 N   0  0  0  0  0  0  0  0  0  0  0  0
   33.7850   31.4310   32.2840 N   0  0  0  0  0  0  0  0  0  0  0  0
   34.4830   30.7510   31.3590 C   0  0  0  0  0  0  0  0  0  0  0  0
   35.2630   29.8210   32.0260 C   0  0  0  0  0  0  0  0  0  0  0  0
   36.1360   28.9090   31.4800 C   0  0  0  0  0  0  0  0  0  0  0  0
   37.5050   27.3330   32.0750 H   0  0  0  0  0  0  0  0  0  0  0  0
   35.4320   29.3030   35.3040 H   0  0  0  0  0  0  0  0  0  0  0  0
   33.6790   31.3350   34.4170 H   0  0  0  0  0  0  0  0  0  0  0  0
   34.4360   30.9110   30.2800 H   0  0  0  0  0  0  0  0  0  0  0  0
   36.3110   28.8210   30.4310 H   0  0  0  0  0  0  0  0  0  0  0  0
   38.0460   24.1560   36.0700 C   0  0  0  0  0  0  0  0  0  0  0  0
   37.8140   23.8060   37.2410 O   0  0  0  0  0  0  0  0  0  0  0  0
   40.2280   22.2680   33.8610 C   0  0  0  0  0  0  0  0  0  0  0  0
   39.3510   21.4600   33.1260 C   0  0  0  0  0  0  0  0  0  0  0  0
   38.0140   21.5700   33.3970 C   0  0  0  0  0  0  0  0  0  0  0  0
   37.5900   22.4300   34.3370 N   0  0  0  0  0  0  0  0  0  0  0  0
   38.4640   23.2120   35.0430 C   0  0  0  0  0  0  0  0  0  0  0  0
   39.7720   23.1060   34.7810 N   0  0  0  0  0  0  0  0  0  0  0  0
   41.2930   22.2100   33.6760 H   0  0  0  0  0  0  0  0  0  0  0  0
   39.7780   20.8030   32.3980 H   0  0  0  0  0  0  0  0  0  0  0  0
   37.0630   20.7500   32.6610 C   0  0  0  0  0  0  0  0  0  0  0  0
   37.0560   20.2090   31.4380 C   0  0  0  0  0  0  0  0  0  0  0  0
   37.9410   20.4110   30.8460 H   0  0  0  0  0  0  0  0  0  0  0  0
   36.0250   19.4700   30.9820 C   0  0  0  0  0  3  0  0  0  0  0  0
   34.9440   19.3220   31.9280 C   0  0  0  0  0  3  0  0  0  0  0  0
   35.5360   20.2760   33.3920 S   0  0  0  0  0  0  0  0  0  0  0  0
  1 22  1  0  0  0  0
  1  2  2  0  0  0  0
  2  6  1  0  0  0  0
  3  7  1  0  0  0  0
  3  2  1  0  0  0  0
  4  5  1  0  0  0  0
  4  3  2  0  0  0  0
  5  1  1  0  0  0  0
  8  9  1  0  0  0  0
  9 10  2  0  0  0  0
  9  4  1  0  0  0  0
 10 18  1  0  0  0  0
 11 12  1  0  0  0  0
 11 10  1  0  0  0  0
 12 19  1  0  0  0  0
 13 12  1  0  0  0  0
 14 15  1  0  0  0  0
 14 13  2  0  0  0  0
 15 11  2  0  0  0  0
 16 15  1  0  0  0  0
 16  8  2  0  0  0  0
 17  8  1  0  0  0  0
 20 14  1  0  0  0  0
 21 16  1  0  0  0  0
 22 23  2  0  0  0  0
 24 29  1  0  0  0  0
 25 26  1  0  0  0  0
 25 24  2  0  0  0  0
 26 27  2  0  0  0  0
 27 28  1  0  0  0  0
 28 22  1  0  0  0  0
 29 28  2  0  0  0  0
 30 24  1  0  0  0  0
 31 25  1  0  0  0  0
 32 37  1  0  0  0  0
 32 26  1  0  0  0  0
 33 32  2  0  0  0  0
 34 33  1  0  0  0  0
 35 33  1  0  0  0  0
 35 36  2  0  0  0  0
 36 37  1  0  0  0  0
M  END
>  <minimizedAffinity>
-6.15958071

$$$$

 OpenBabel03272508503D

 37 41  0  0  0  0  0  0  0  0999 V2000
   37.3880   27.7790   32.5980 C   0  0  0  0  0  0  0  0  0  0  0  0
   36.7340   28.2650   31.4720 C   0  0  0  0  0  0  0  0  0  0  0  0
   35.7470   29.0890   32.0040 C   0  0  0  0  0  0  0  0  0  0  0  0
   35.8350   29.0720   33.3710 C   0  0  0  0  0  0  0  0  0  0  0  0
   36.8350   28.2720   33.6940 O   0  0  0  0  0  0  0  0  0  0  0  0
   36.9030   28.0860   30.4210 H   0  0  0  0  0  0  0  0  0  0  0  0
   35.0050   29.6710   31.4760 H   0  0  0  0  0  0  0  0  0  0  0  0
   33.6320   29.5750   34.3220 C   0  0  0  0  0  0  0  0  0  0  0  0
   34.9990   29.7910   34.3250 C   0  0  0  0  0  0  0  0  0  0  0  0
   35.6050   30.6750   35.2140 C   0  0  0  0  0  0  0  0  0  0  0  0
   34.8180   31.3650   36.1270 C   0  0  0  0  0  0  0  0  0  0  0  0
   35.0810   32.2720   37.1000 N   0  0  0  0  0  0  0  0  0  0  0  0
   33.9240   32.5850   37.6540 N   0  0  0  0  0  0  0  0  0  0  0  0
   32.9180   31.9110   37.0720 C   0  0  0  0  0  0  0  0  0  0  0  0
   33.4670   31.1150   36.0810 C   0  0  0  0  0  0  0  0  0  0  0  0
   32.8100   30.2560   35.2310 C   0  0  0  0  0  0  0  0  0  0  0  0
   33.2080   28.8720   33.6060 H   0  0  0  0  0  0  0  0  0  0  0  0
   36.6710   30.8610   35.2360 H   0  0  0  0  0  0  0  0  0  0  0  0
   36.0390   32.6370   37.3420 H   0  0  0  0  0  0  0  0  0  0  0  0
   31.8620   31.9860   37.3410 H   0  0  0  0  0  0  0  0  0  0  0  0
   31.7530   30.1090   35.2490 H   0  0  0  0  0  0  0  0  0  0  0  0
   38.5210   26.8560   32.5460 C   0  0  0  0  0  0  0  0  0  0  0  0
   39.5810   27.1810   33.1110 O   0  0  0  0  0  0  0  0  0  0  0  0
   38.8970   24.3350   29.9560 C   0  0  0  0  0  0  0  0  0  0  0  0
   38.1500   23.2490   30.4280 C   0  0  0  0  0  0  0  0  0  0  0  0
   37.5220   23.3910   31.6360 C   0  0  0  0  0  0  0  0  0  0  0  0
   37.6370   24.5410   32.3190 N   0  0  0  0  0  0  0  0  0  0  0  0
   38.3710   25.5920   31.8380 C   0  0  0  0  0  0  0  0  0  0  0  0
   38.9860   25.4560   30.6570 N   0  0  0  0  0  0  0  0  0  0  0  0
   39.4080   24.2630   29.0040 H   0  0  0  0  0  0  0  0  0  0  0  0
   38.1150   22.3710   29.8180 H   0  0  0  0  0  0  0  0  0  0  0  0
   36.7350   22.2890   32.1700 C   0  0  0  0  0  0  0  0  0  0  0  0
   36.6660   21.6900   33.3630 C   0  0  0  0  0  0  0  0  0  0  0  0
   37.3320   22.0970   34.1160 H   0  0  0  0  0  0  0  0  0  0  0  0
   35.8300   20.6620   33.6070 C   0  0  0  0  0  3  0  0  0  0  0  0
   35.0280   20.2730   32.4710 C   0  0  0  0  0  3  0  0  0  0  0  0
   35.5720   21.4480   31.1550 S   0  0  0  0  0  0  0  0  0  0  0  0
  1  5  1  0  0  0  0
  2  3  1  0  0  0  0
  2  1  2  0  0  0  0
  3  4  2  0  0  0  0
  4  5  1  0  0  0  0
  4  9  1  0  0  0  0
  6  2  1  0  0  0  0
  7  3  1  0  0  0  0
  8  9  2  0  0  0  0
  8 16  1  0  0  0  0
  9 10  1  0  0  0  0
 10 18  1  0  0  0  0
 10 11  2  0  0  0  0
 11 12  1  0  0  0  0
 12 19  1  0  0  0  0
 12 13  1  0  0  0  0
 14 20  1  0  0  0  0
 14 13  2  0  0  0  0
 15 11  1  0  0  0  0
 15 14  1  0  0  0  0
 16 21  1  0  0  0  0
 16 15  2  0  0  0  0
 17  8  1  0  0  0  0
 22  1  1  0  0  0  0
 22 23  2  0  0  0  0
 24 25  2  0  0  0  0
 24 29  1  0  0  0  0
 25 26  1  0  0  0  0
 26 32  1  0  0  0  0
 26 27  2  0  0  0  0
 28 27  1  0  0  0  0
 28 22  1  0  0  0  0
 29 28  2  0  0  0  0
 30 24  1  0  0  0  0
 31 25  1  0  0  0  0
 32 33  2  0  0  0  0
 33 35  1  0  0  0  0
 33 34  1  0  0  0  0
 36 35  2  0  0  0  0
 37 32  1  0  0  0  0
 37 36  1  0  0  0  0
M  END
>  <minimizedAffinity>
-6.11154318

$$$$

 OpenBabel03272508503D

 37 41  0  0  0  0  0  0  0  0999 V2000
   38.6530   24.6060   35.5930 C   0  0  0  0  0  0  0  0  0  0  0  0
   39.8600   25.2900   35.5240 C   0  0  0  0  0  0  0  0  0  0  0  0
   39.5330   26.4510   34.8310 C   0  0  0  0  0  0  0  0  0  0  0  0
   38.1990   26.4280   34.5190 C   0  0  0  0  0  0  0  0  0  0  0  0
   37.7010   25.3010   34.9940 O   0  0  0  0  0  0  0  0  0  0  0  0
   40.8420   25.0370   35.8970 H   0  0  0  0  0  0  0  0  0  0  0  0
   40.1810   27.2720   34.5550 H   0  0  0  0  0  0  0  0  0  0  0  0
   36.4820   28.1770   34.4780 C   0  0  0  0  0  0  0  0  0  0  0  0
   37.4370   27.4410   33.7990 C   0  0  0  0  0  0  0  0  0  0  0  0
   37.6940   27.6370   32.4450 C   0  0  0  0  0  0  0  0  0  0  0  0
   36.9740   28.5990   31.7490 C   0  0  0  0  0  0  0  0  0  0  0  0
   36.9760   29.0290   30.4630 N   0  0  0  0  0  0  0  0  0  0  0  0
   36.0640   29.9800   30.3770 N   0  0  0  0  0  0  0  0  0  0  0  0
   35.4690   30.1810   31.5650 C   0  0  0  0  0  0  0  0  0  0  0  0
   36.0380   29.3020   32.4700 C   0  0  0  0  0  0  0  0  0  0  0  0
   35.7370   29.1560   33.8050 C   0  0  0  0  0  0  0  0  0  0  0  0
   36.3190   27.9860   35.5380 H   0  0  0  0  0  0  0  0  0  0  0  0
   38.4350   27.0740   31.8910 H   0  0  0  0  0  0  0  0  0  0  0  0
   37.5990   28.6550   29.7020 H   0  0  0  0  0  0  0  0  0  0  0  0
   34.6810   30.9100   31.7680 H   0  0  0  0  0  0  0  0  0  0  0  0
   34.9950   29.7380   34.3040 H   0  0  0  0  0  0  0  0  0  0  0  0
   38.4910   23.3050   36.2400 C   0  0  0  0  0  0  0  0  0  0  0  0
   39.1800   23.0490   37.2450 O   0  0  0  0  0  0  0  0  0  0  0  0
   35.6500   21.0460   36.0610 C   0  0  0  0  0  0  0  0  0  0  0  0
   35.6800   20.5670   34.7460 C   0  0  0  0  0  0  0  0  0  0  0  0
   36.6780   21.0250   33.9290 C   0  0  0  0  0  0  0  0  0  0  0  0
   37.5790   21.9000   34.4000 N   0  0  0  0  0  0  0  0  0  0  0  0
   37.5330   22.3560   35.6900 C   0  0  0  0  0  0  0  0  0  0  0  0
   36.5580   21.9100   36.4920 N   0  0  0  0  0  0  0  0  0  0  0  0
   34.8760   20.7080   36.7390 H   0  0  0  0  0  0  0  0  0  0  0  0
   34.9200   19.8720   34.4570 H   0  0  0  0  0  0  0  0  0  0  0  0
   36.7500   20.5570   32.5520 C   0  0  0  0  0  0  0  0  0  0  0  0
   36.0130   19.7160   31.8180 C   0  0  0  0  0  0  0  0  0  0  0  0
   35.1730   19.2720   32.3410 H   0  0  0  0  0  0  0  0  0  0  0  0
   36.2980   19.4430   30.5290 C   0  0  0  0  0  3  0  0  0  0  0  0
   37.4590   20.1380   30.0250 C   0  0  0  0  0  3  0  0  0  0  0  0
   38.0240   21.1210   31.4810 S   0  0  0  0  0  0  0  0  0  0  0  0
  1 22  1  0  0  0  0
  2  1  2  0  0  0  0
  2  6  1  0  0  0  0
  3  2  1  0  0  0  0
  4  3  2  0  0  0  0
  4  5  1  0  0  0  0
  5  1  1  0  0  0  0
  7  3  1  0  0  0  0
  8 17  1  0  0  0  0
  9  8  2  0  0  0  0
  9  4  1  0  0  0  0
 10  9  1  0  0  0  0
 11 10  2  0  0  0  0
 11 15  1  0  0  0  0
 12 11  1  0  0  0  0
 13 12  1  0  0  0  0
 13 14  2  0  0  0  0
 14 20  1  0  0  0  0
 14 15  1  0  0  0  0
 15 16  2  0  0  0  0
 16 21  1  0  0  0  0
 16  8  1  0  0  0  0
 18 10  1  0  0  0  0
 19 12  1  0  0  0  0
 22 23  2  0  0  0  0
 24 29  1  0  0  0  0
 24 30  1  0  0  0  0
 25 24  2  0  0  0  0
 26 27  2  0  0  0  0
 26 25  1  0  0  0  0
 27 28  1  0  0  0  0
 28 22  1  0  0  0  0
 28 29  2  0  0  0  0
 31 25  1  0  0  0  0
 32 26  1  0  0  0  0
 33 34  1  0  0  0  0
 33 32  2  0  0  0  0
 35 33  1  0  0  0  0
 36 35  2  0  0  0  0
 36 37  1  0  0  0  0
 37 32  1  0  0  0  0
M  END
>  <minimizedAffinity>
-6.10824966

$$$$
