
 OpenBabel03272509423D

 35 37  0  0  1  0  0  0  0  0999 V2000
   37.0190   30.9210   49.0450 C   0  0  0  0  0  0  0  0  0  0  0  0
   36.7180   31.8050   50.0820 C   0  0  0  0  0  0  0  0  0  0  0  0
   37.3020   33.0600   50.1690 C   0  0  0  0  0  0  0  0  0  0  0  0
   38.2220   33.4590   49.1920 C   0  0  0  0  0  0  0  0  0  0  0  0
   38.5080   32.5830   48.1830 C   0  0  0  0  0  0  0  0  0  0  0  0
   37.9040   31.3380   48.1320 C   0  0  0  0  0  0  0  0  0  0  0  0
   36.0060   31.5050   50.8430 H   0  0  0  0  0  0  0  0  0  0  0  0
   37.0180   33.6770   50.9950 H   0  0  0  0  0  0  0  0  0  0  0  0
   38.6130   34.4350   49.3460 H   0  0  0  0  0  0  0  0  0  0  0  0
   39.2360   33.0340   47.5090 H   0  0  0  0  0  0  0  0  0  0  0  0
   36.4360   29.6000   48.9730 C   0  0  2  0  0  0  0  0  0  0  0  0
   36.9620   29.0860   48.0800 H   0  0  0  0  0  0  0  0  0  0  0  0
   33.5840   30.0800   46.7710 C   0  0  0  0  0  0  0  0  0  0  0  0
   32.8820   28.8950   46.8700 C   0  0  0  0  0  0  0  0  0  0  0  0
   33.3470   27.9340   47.7470 C   0  0  0  0  0  0  0  0  0  0  0  0
   34.4830   28.1840   48.4850 N   0  0  0  0  0  0  0  0  0  0  0  0
   35.1110   29.3340   48.3440 C   0  0  0  0  0  0  0  0  0  0  0  0
   34.6690   30.2880   47.4930 N   0  0  0  0  0  0  0  0  0  0  0  0
   33.2470   30.8610   46.0890 H   0  0  0  0  0  0  0  0  0  0  0  0
   32.0070   28.8050   46.2430 H   0  0  0  0  0  0  0  0  0  0  0  0
   32.7950   27.0080   47.8250 H   0  0  0  0  0  0  0  0  0  0  0  0
   36.8830   28.8150   49.8880 O   0  0  0  0  0  0  0  0  0  0  0  0
   36.4280   28.6450   50.7300 H   0  0  0  0  0  0  0  0  0  0  0  0
   38.3270   30.5020   47.0330 C   0  0  0  0  0  3  0  0  0  0  0  0
   39.0020   30.9490   45.9700 C   0  0  0  0  0  3  0  0  0  0  0  0
   39.5240   30.1790   44.8170 C   0  0  0  0  0  0  0  0  0  0  0  0
   38.7460   29.4790   44.4320 H   0  0  0  0  0  0  0  0  0  0  0  0
   40.4240   29.5950   45.1450 H   0  0  0  0  0  0  0  0  0  0  0  0
   40.0680   31.3100   43.5340 S   0  0  0  0  0  0  0  0  0  0  0  0
   38.6700   32.1540   42.8260 C   0  0  0  0  0  0  0  0  0  0  0  0
   38.9600   32.9910   41.7150 C   0  0  0  0  0  0  0  0  0  0  0  0
   39.8650   33.2400   41.1850 H   0  0  0  0  0  0  0  0  0  0  0  0
   38.0340   33.7150   41.0410 C   0  0  0  0  0  3  0  0  0  0  0  0
   36.6790   33.5890   41.5250 C   0  0  0  0  0  3  0  0  0  0  0  0
   36.8100   32.3850   42.9890 S   0  0  0  0  0  0  0  0  0  0  0  0
  1  2  1  0  0  0  0
  2  3  2  0  0  0  0
  2  7  1  0  0  0  0
  3  8  1  0  0  0  0
  4  9  1  0  0  0  0
  4  3  1  0  0  0  0
  5  4  2  0  0  0  0
  6  5  1  0  0  0  0
  6  1  2  0  0  0  0
 10  5  1  0  0  0  0
 11 12  1  6  0  0  0
 11  1  1  0  0  0  0
 11 22  1  0  0  0  0
 13 14  2  0  0  0  0
 13 18  1  0  0  0  0
 14 15  1  0  0  0  0
 15 21  1  0  0  0  0
 15 16  2  0  0  0  0
 17 16  1  0  0  0  0
 17 11  1  0  0  0  0
 18 17  2  0  0  0  0
 19 13  1  0  0  0  0
 20 14  1  0  0  0  0
 22 23  1  0  0  0  0
 24  6  1  0  0  0  0
 25 24  2  0  0  0  0
 26 28  1  0  0  0  0
 26 25  1  0  0  0  0
 27 26  1  0  0  0  0
 29 26  1  0  0  0  0
 30 35  1  0  0  0  0
 30 29  1  0  0  0  0
 31 30  2  0  0  0  0
 32 31  1  0  0  0  0
 33 34  2  0  0  0  0
 33 31  1  0  0  0  0
 34 35  1  0  0  0  0
M  END
>  <minimizedAffinity>
-5.70258474

>  <minimizedRMSD>
1.10293114

$$$$
