
 OpenBabel03272510013D

 18 19  0  0  0  0  0  0  0  0999 V2000
   38.2630   31.3450   50.2210 C   0  0  0  0  0  0  0  0  0  0  0  0
   38.4990   31.4160   48.8310 C   0  0  0  0  0  0  0  0  0  0  0  0
   37.5840   30.7750   48.0110 C   0  0  0  0  0  0  0  0  0  0  0  0
   36.5280   30.1260   48.5540 N   0  0  0  0  0  0  0  0  0  0  0  0
   36.3370   30.0820   49.8930 C   0  0  0  0  0  0  0  0  0  0  0  0
   37.2100   30.6930   50.7030 N   0  0  0  0  0  0  0  0  0  0  0  0
   38.9660   31.8390   50.8880 H   0  0  0  0  0  0  0  0  0  0  0  0
   39.3510   31.9450   48.4890 H   0  0  0  0  0  0  0  0  0  0  0  0
   37.7660   30.8080   46.5770 C   0  0  0  0  0  0  0  0  0  0  0  0
   36.9520   30.7010   45.5080 C   0  0  0  0  0  0  0  0  0  0  0  0
   35.9030   30.5560   45.7760 H   0  0  0  0  0  0  0  0  0  0  0  0
   37.4330   30.7740   44.2510 C   0  0  0  0  0  3  0  0  0  0  0  0
   38.8000   30.9630   44.1250 C   0  0  0  0  0  3  0  0  0  0  0  0
   39.3790   31.0330   45.8960 S   0  0  0  0  0  0  0  0  0  0  0  0
   35.1600   29.3510   50.4120 C   0  0  0  0  0  0  0  0  0  0  0  0
   35.2400   29.0990   51.7720 F   0  0  0  0  0  0  0  0  0  0  0  0
   33.9920   30.0700   50.2150 F   0  0  0  0  0  0  0  0  0  0  0  0
   34.9570   28.1430   49.7760 F   0  0  0  0  0  0  0  0  0  0  0  0
  1  6  1  0  0  0  0
  1  7  1  0  0  0  0
  2  1  2  0  0  0  0
  3  4  2  0  0  0  0
  3  2  1  0  0  0  0
  4  5  1  0  0  0  0
  5 15  1  0  0  0  0
  5  6  2  0  0  0  0
  8  2  1  0  0  0  0
  9  3  1  0  0  0  0
 10 11  1  0  0  0  0
 10  9  2  0  0  0  0
 12 10  1  0  0  0  0
 13 12  2  0  0  0  0
 13 14  1  0  0  0  0
 14  9  1  0  0  0  0
 15 16  1  0  0  0  0
 17 15  1  0  0  0  0
 18 15  1  0  0  0  0
M  END
>  <minimizedAffinity>
-5.05142307

>  <minimizedRMSD>
0.857928693

$$$$
