
 OpenBabel03272507583D

 29 31  0  0  0  0  0  0  0  0999 V2000
   37.0270   31.3500   48.5850 C   0  0  0  0  0  0  0  0  0  0  0  0
   37.1960   32.2900   49.5960 C   0  0  0  0  0  0  0  0  0  0  0  0
   38.1370   33.2910   49.4430 C   0  0  0  0  0  0  0  0  0  0  0  0
   38.9060   33.3750   48.3170 C   0  0  0  0  0  0  0  0  0  0  0  0
   38.7160   32.4330   47.3380 C   0  0  0  0  0  0  0  0  0  0  0  0
   37.7970   31.4450   47.4730 N   0  0  0  0  0  0  0  0  0  0  0  0
   36.6730   32.3650   50.5410 H   0  0  0  0  0  0  0  0  0  0  0  0
   38.3360   34.0590   50.1710 H   0  0  0  0  0  0  0  0  0  0  0  0
   39.6710   34.0710   48.0310 H   0  0  0  0  0  0  0  0  0  0  0  0
   35.1670   28.5420   50.2220 C   0  0  0  0  0  0  0  0  0  0  0  0
   36.1890   29.4990   49.9480 C   0  0  0  0  0  0  0  0  0  0  0  0
   36.0080   30.3670   48.8880 C   0  0  0  0  0  0  0  0  0  0  0  0
   34.8630   30.2680   48.1580 N   0  0  0  0  0  0  0  0  0  0  0  0
   33.9100   29.3380   48.4530 C   0  0  0  0  0  0  0  0  0  0  0  0
   34.0520   28.4880   49.4660 N   0  0  0  0  0  0  0  0  0  0  0  0
   32.8050   29.4340   47.5410 N   0  0  0  0  0  0  0  0  0  0  0  0
   35.2650   27.8440   51.0390 H   0  0  0  0  0  0  0  0  0  0  0  0
   32.9640   29.0160   46.5850 H   0  0  0  0  0  0  0  0  0  0  0  0
   32.0760   29.9260   48.0880 H   0  0  0  0  0  0  0  0  0  0  0  0
   37.4010   29.5100   50.8200 C   0  0  0  0  0  0  0  0  0  0  0  0
   38.5400   29.8160   50.0830 F   0  0  0  0  0  0  0  0  0  0  0  0
   37.2250   30.4620   51.7830 F   0  0  0  0  0  0  0  0  0  0  0  0
   37.6270   28.3010   51.4430 F   0  0  0  0  0  0  0  0  0  0  0  0
   39.3810   32.2490   46.0150 C   0  0  0  0  0  0  0  0  0  0  0  0
   39.6240   31.0130   45.6120 C   0  0  0  0  0  0  0  0  0  0  0  0
   39.4340   30.0220   46.0590 H   0  0  0  0  0  0  0  0  0  0  0  0
   40.2100   30.6150   44.4620 C   0  0  0  0  0  3  0  0  0  0  0  0
   40.5590   31.8030   43.6790 C   0  0  0  0  0  3  0  0  0  0  0  0
   39.9650   33.2710   44.7730 S   0  0  0  0  0  0  0  0  0  0  0  0
  1 12  1  0  0  0  0
  1  2  1  0  0  0  0
  2  7  1  0  0  0  0
  3  2  2  0  0  0  0
  3  8  1  0  0  0  0
  4  3  1  0  0  0  0
  5  6  1  0  0  0  0
  5  4  2  0  0  0  0
  6  1  2  0  0  0  0
  9  4  1  0  0  0  0
 10 17  1  0  0  0  0
 11 10  1  0  0  0  0
 11 20  1  0  0  0  0
 12 11  2  0  0  0  0
 13 14  2  0  0  0  0
 13 12  1  0  0  0  0
 14 15  1  0  0  0  0
 15 10  2  0  0  0  0
 16 19  1  0  0  0  0
 16 14  1  0  0  0  0
 18 16  1  0  0  0  0
 20 23  1  0  0  0  0
 20 22  1  0  0  0  0
 21 20  1  0  0  0  0
 24  5  1  0  0  0  0
 25 24  2  0  0  0  0
 25 26  1  0  0  0  0
 27 25  1  0  0  0  0
 28 27  2  0  0  0  0
 28 29  1  0  0  0  0
 29 24  1  0  0  0  0
M  END
>  <minimizedAffinity>
-7.06658506

>  <minimizedRMSD>
1.0136497

$$$$
