REMARK  Name = 
REMARK  5 active torsions:
REMARK  status: ('A' for Active; 'I' for Inactive)
REMARK    1  A    between atoms: C_11  and  C_12
REMARK    2  A    between atoms: C_11  and  C_16
REMARK    3  A    between atoms: C_16  and  O_17
REMARK    4  A    between atoms: C_16  and  C_33
REMARK    5  A    between atoms: O_17  and  C_18
REMARK                            x       y       z     vdW  Elec       q    Type
REMARK                         _______ _______ _______ _____ _____    ______ ____
ROOT
ATOM      1  C   UNL     1      36.687  29.958  49.015  0.00  0.00    +0.000 A 
ATOM      2  C   UNL     1      37.721  30.620  48.320  0.00  0.00    +0.000 A 
ATOM      3  C   UNL     1      37.498  30.906  46.974  0.00  0.00    +0.000 A 
ATOM      4  N   UNL     1      36.331  30.544  46.413  0.00  0.00    +0.000 NA
ATOM      5  C   UNL     1      35.363  29.912  47.107  0.00  0.00    +0.000 A 
ATOM      6  N   UNL     1      35.541  29.623  48.395  0.00  0.00    +0.000 NA
ATOM      7  N   UNL     1      38.464  31.560  46.217  0.00  0.00    +0.000 N 
ATOM      8  C   UNL     1      39.426  32.573  46.730  0.00  0.00    +0.000 C 
ATOM      9  C   UNL     1      40.104  33.184  45.575  0.00  0.00    +0.000 C 
ATOM     10  C   UNL     1      39.220  32.861  44.450  0.00  0.00    +0.000 C 
ATOM     11  C   UNL     1      38.786  31.492  44.829  0.00  0.00    +0.000 C 
ATOM     12  H   UNL     1      36.975  29.788  50.059  0.00  0.00    +0.000 HD
ATOM     13  H   UNL     1      38.662  30.926  48.724  0.00  0.00    +0.000 HD
ATOM     14  H   UNL     1      34.406  29.592  46.728  0.00  0.00    +0.000 HD
ATOM     15  H   UNL     1      38.632  33.352  47.122  0.00  0.00    +0.000 HD
ATOM     16  H   UNL     1      39.929  32.338  47.633  0.00  0.00    +0.000 HD
ATOM     17  H   UNL     1      39.907  34.334  45.716  0.00  0.00    +0.000 HD
ATOM     18  H   UNL     1      41.161  33.200  45.485  0.00  0.00    +0.000 HD
ATOM     19  H   UNL     1      38.351  33.515  44.341  0.00  0.00    +0.000 HD
ATOM     20  H   UNL     1      39.774  32.868  43.473  0.00  0.00    +0.000 HD
ENDROOT
BRANCH  11  21
ATOM     21  C   UNL     1      37.640  31.029  43.931  0.00  0.00    +0.000 C 
ATOM     22  F   UNL     1      36.508  31.741  44.282  0.00  0.00    +0.000 F 
ATOM     23  F   UNL     1      37.315  29.708  44.026  0.00  0.00    +0.000 F 
ATOM     24  F   UNL     1      37.958  31.422  42.650  0.00  0.00    +0.000 F 
ENDBRANCH  11  21
BRANCH  11  25
ATOM     25  C   UNL     1      39.840  30.521  44.675  0.00  0.00    +0.000 C 
ATOM     26  H   UNL     1      39.544  29.551  45.055  0.00  0.00    +0.000 HD
BRANCH  25  27
ATOM     27  C   UNL     1      41.116  30.670  45.548  0.00  0.00    +0.000 A 
ATOM     28  C   UNL     1      41.756  29.730  46.426  0.00  0.00    +0.000 A 
ATOM     29  H   UNL     1      41.161  28.845  46.530  0.00  0.00    +0.000 HD
ATOM     30  C   UNL     1      42.942  30.081  46.956  0.00  0.00    +0.000 A 
ATOM     31  C   UNL     1      43.511  31.354  46.632  0.00  0.00    +0.000 A 
ATOM     32  S   UNL     1      42.364  32.139  45.529  0.00  0.00    +0.000 S 
ENDBRANCH  25  27
BRANCH  25  33
ATOM     33  O   UNL     1      40.344  30.676  43.535  0.00  0.00    +0.000 OA
BRANCH  33  34
ATOM     34  C   UNL     1      40.986  29.983  42.581  0.00  0.00    +0.000 C 
ATOM     35  O   UNL     1      40.760  30.428  41.452  0.00  0.00    +0.000 OA
ATOM     36  N   UNL     1      41.863  28.912  42.253  0.00  0.00    +0.000 N 
ATOM     37  H   UNL     1      41.515  27.965  41.934  0.00  0.00    +0.000 HD
ATOM     38  H   UNL     1      42.853  29.199  42.373  0.00  0.00    +0.000 HD
ENDBRANCH  33  34
ENDBRANCH  25  33
ENDBRANCH  11  25
TORSDOF 5
