
 OpenBabel03272510273D

 42 46  0  0  1  0  0  0  0  0999 V2000
   36.0920   30.2460   46.8340 C   0  0  0  0  0  0  0  0  0  0  0  0
   37.0430   30.6910   47.7190 C   0  0  0  0  0  0  0  0  0  0  0  0
   38.1220   31.4840   47.2930 C   0  0  0  0  0  0  0  0  0  0  0  0
   38.1560   31.7810   45.9290 C   0  0  0  0  0  0  0  0  0  0  0  0
   39.0990   32.5350   45.2710 N   0  0  0  0  0  0  0  0  0  0  0  0
   38.7240   32.5530   43.9820 C   0  0  0  0  0  0  0  0  0  0  0  0
   37.6160   31.8550   43.8330 N   0  0  0  0  0  0  0  0  0  0  0  0
   37.2300   31.3580   45.0180 C   0  0  0  0  0  0  0  0  0  0  0  0
   36.1730   30.5710   45.4900 C   0  0  0  0  0  0  0  0  0  0  0  0
   35.2550   29.6330   47.1570 H   0  0  0  0  0  0  0  0  0  0  0  0
   38.8870   31.8480   47.9670 H   0  0  0  0  0  0  0  0  0  0  0  0
   39.9360   32.9980   45.6960 H   0  0  0  0  0  0  0  0  0  0  0  0
   35.4330   30.2300   44.7730 H   0  0  0  0  0  0  0  0  0  0  0  0
   37.5630   30.1970   51.4180 C   0  0  0  0  0  0  0  0  0  0  0  0
   37.8410   30.6120   50.1160 C   0  0  0  0  0  0  0  0  0  0  0  0
   36.9350   30.3420   49.1240 C   0  0  0  0  0  0  0  0  0  0  0  0
   35.7880   29.6670   49.4890 N   0  0  0  0  0  0  0  0  0  0  0  0
   35.5280   29.2700   50.7500 C   0  0  0  0  0  0  0  0  0  0  0  0
   36.4030   29.5340   51.6930 N   0  0  0  0  0  0  0  0  0  0  0  0
   38.3040   30.4290   52.1760 H   0  0  0  0  0  0  0  0  0  0  0  0
   38.7340   31.1410   49.8140 H   0  0  0  0  0  0  0  0  0  0  0  0
   34.5950   28.7460   50.9260 H   0  0  0  0  0  0  0  0  0  0  0  0
   39.4500   33.2320   43.0020 O   0  0  0  0  0  0  0  0  0  0  0  0
   38.5550   31.5360   41.7210 N   0  0  0  0  0  0  0  0  0  0  0  0
   39.1850   32.8450   41.6630 C   0  0  1  0  0  0  0  0  0  0  0  0
   38.3070   33.8030   41.0100 C   0  0  0  0  0  0  0  0  0  0  0  0
   38.0920   33.3960   39.6830 O   0  0  0  0  0  0  0  0  0  0  0  0
   37.6200   32.1240   39.5360 C   0  0  0  0  0  0  0  0  0  0  0  0
   38.4130   31.1260   40.3320 C   0  0  1  0  0  0  0  0  0  0  0  0
   37.6320   31.4680   42.1130 H   0  0  0  0  0  0  0  0  0  0  0  0
   40.1110   32.6960   41.0830 H   0  0  0  0  0  0  0  0  0  0  0  0
   37.3440   34.0810   41.3430 H   0  0  0  0  0  0  0  0  0  0  0  0
   38.8940   34.7660   40.8920 H   0  0  0  0  0  0  0  0  0  0  0  0
   36.5700   32.0390   39.8790 H   0  0  0  0  0  0  0  0  0  0  0  0
   37.7200   31.8620   38.4630 H   0  0  0  0  0  0  0  0  0  0  0  0
   37.8660   30.1610   40.2480 H   0  0  0  0  0  0  0  0  0  0  0  0
   39.7680   31.0540   39.7490 C   0  0  0  0  0  0  0  0  0  0  0  0
   40.2460   31.5350   38.6050 C   0  0  0  0  0  0  0  0  0  0  0  0
   39.5660   32.0860   37.9440 H   0  0  0  0  0  0  0  0  0  0  0  0
   41.5540   31.3630   38.2330 C   0  0  0  0  0  3  0  0  0  0  0  0
   42.3320   30.6230   39.1960 C   0  0  0  0  0  3  0  0  0  0  0  0
   41.1700   30.2390   40.5220 S   0  0  0  0  0  0  0  0  0  0  0  0
  1 10  1  0  0  0  0
  1  2  1  0  0  0  0
  2 16  1  0  0  0  0
  3  2  2  0  0  0  0
  3 11  1  0  0  0  0
  4  3  1  0  0  0  0
  5 12  1  0  0  0  0
  5  4  1  0  0  0  0
  6  5  1  0  0  0  0
  7  6  2  0  0  0  0
  7  8  1  0  0  0  0
  8  9  1  0  0  0  0
  8  4  2  0  0  0  0
  9  1  2  0  0  0  0
 13  9  1  0  0  0  0
 14 19  1  0  0  0  0
 14 20  1  0  0  0  0
 15 14  2  0  0  0  0
 16 17  2  0  0  0  0
 16 15  1  0  0  0  0
 17 18  1  0  0  0  0
 18 22  1  0  0  0  0
 18 19  2  0  0  0  0
 21 15  1  0  0  0  0
 23  6  1  0  0  0  0
 24 30  1  0  0  0  0
 25 31  1  6  0  0  0
 25 24  1  0  0  0  0
 25 23  1  0  0  0  0
 26 32  1  0  0  0  0
 26 25  1  0  0  0  0
 27 26  1  0  0  0  0
 28 27  1  0  0  0  0
 28 34  1  0  0  0  0
 28 29  1  0  0  0  0
 29 36  1  6  0  0  0
 29 24  1  0  0  0  0
 33 26  1  0  0  0  0
 35 28  1  0  0  0  0
 37 29  1  0  0  0  0
 37 42  1  0  0  0  0
 38 37  2  0  0  0  0
 39 38  1  0  0  0  0
 40 38  1  0  0  0  0
 40 41  2  0  0  0  0
 41 42  1  0  0  0  0
M  END
>  <minimizedAffinity>
-5.68703699

>  <minimizedRMSD>
1.24781179

$$$$
