
 OpenBabel03272510013D

 18 19  0  0  0  0  0  0  0  0999 V2000
   38.3250   31.2600   50.2460 C   0  0  0  0  0  0  0  0  0  0  0  0
   38.4480   31.5610   48.8730 C   0  0  0  0  0  0  0  0  0  0  0  0
   37.4390   31.1040   48.0420 C   0  0  0  0  0  0  0  0  0  0  0  0
   36.4010   30.4060   48.5590 N   0  0  0  0  0  0  0  0  0  0  0  0
   36.3190   30.1390   49.8830 C   0  0  0  0  0  0  0  0  0  0  0  0
   37.2840   30.5710   50.7040 N   0  0  0  0  0  0  0  0  0  0  0  0
   39.1030   31.6070   50.9230 H   0  0  0  0  0  0  0  0  0  0  0  0
   39.2940   32.1120   48.5510 H   0  0  0  0  0  0  0  0  0  0  0  0
   37.5040   31.3770   46.6240 C   0  0  0  0  0  0  0  0  0  0  0  0
   38.1920   32.2350   45.8450 C   0  0  0  0  0  0  0  0  0  0  0  0
   38.8670   32.8830   46.4100 H   0  0  0  0  0  0  0  0  0  0  0  0
   38.0310   32.2520   44.5080 C   0  0  0  0  0  3  0  0  0  0  0  0
   37.1230   31.3460   43.9850 C   0  0  0  0  0  3  0  0  0  0  0  0
   36.5000   30.4550   45.5010 S   0  0  0  0  0  0  0  0  0  0  0  0
   35.1540   29.3700   50.3740 C   0  0  0  0  0  0  0  0  0  0  0  0
   35.2210   29.1000   51.7320 F   0  0  0  0  0  0  0  0  0  0  0  0
   33.9710   30.0600   50.1710 F   0  0  0  0  0  0  0  0  0  0  0  0
   34.9930   28.1660   49.7190 F   0  0  0  0  0  0  0  0  0  0  0  0
  1  6  1  0  0  0  0
  1  7  1  0  0  0  0
  2  1  2  0  0  0  0
  3  4  2  0  0  0  0
  3  2  1  0  0  0  0
  4  5  1  0  0  0  0
  5 15  1  0  0  0  0
  5  6  2  0  0  0  0
  8  2  1  0  0  0  0
  9  3  1  0  0  0  0
 10 11  1  0  0  0  0
 10  9  2  0  0  0  0
 12 10  1  0  0  0  0
 13 12  2  0  0  0  0
 13 14  1  0  0  0  0
 14  9  1  0  0  0  0
 15 16  1  0  0  0  0
 17 15  1  0  0  0  0
 18 15  1  0  0  0  0
M  END
>  <minimizedAffinity>
-5.04895353

>  <minimizedRMSD>
0.415007472

$$$$
