
 OpenBabel03272509423D

 35 37  0  0  1  0  0  0  0  0999 V2000
   37.0640   30.9320   49.0460 C   0  0  0  0  0  0  0  0  0  0  0  0
   36.7930   31.8330   50.0760 C   0  0  0  0  0  0  0  0  0  0  0  0
   37.3820   33.0880   50.1280 C   0  0  0  0  0  0  0  0  0  0  0  0
   38.2770   33.4690   49.1200 C   0  0  0  0  0  0  0  0  0  0  0  0
   38.5330   32.5760   48.1180 C   0  0  0  0  0  0  0  0  0  0  0  0
   37.9250   31.3320   48.1040 C   0  0  0  0  0  0  0  0  0  0  0  0
   36.1010   31.5470   50.8620 H   0  0  0  0  0  0  0  0  0  0  0  0
   37.1220   33.7180   50.9520 H   0  0  0  0  0  0  0  0  0  0  0  0
   38.6740   34.4460   49.2490 H   0  0  0  0  0  0  0  0  0  0  0  0
   39.2430   33.0150   47.4180 H   0  0  0  0  0  0  0  0  0  0  0  0
   36.4760   29.6110   49.0110 C   0  0  2  0  0  0  0  0  0  0  0  0
   36.9800   29.0810   48.1140 H   0  0  0  0  0  0  0  0  0  0  0  0
   33.6060   30.0180   46.8180 C   0  0  0  0  0  0  0  0  0  0  0  0
   32.8760   28.8600   47.0040 C   0  0  0  0  0  0  0  0  0  0  0  0
   33.3290   27.9480   47.9380 C   0  0  0  0  0  0  0  0  0  0  0  0
   34.4820   28.2170   48.6430 N   0  0  0  0  0  0  0  0  0  0  0  0
   35.1360   29.3390   48.4180 C   0  0  0  0  0  0  0  0  0  0  0  0
   34.7060   30.2450   47.5100 N   0  0  0  0  0  0  0  0  0  0  0  0
   33.2780   30.7610   46.0900 H   0  0  0  0  0  0  0  0  0  0  0  0
   31.9900   28.7520   46.3960 H   0  0  0  0  0  0  0  0  0  0  0  0
   32.7560   27.0430   48.0840 H   0  0  0  0  0  0  0  0  0  0  0  0
   36.9430   28.8410   49.9290 O   0  0  0  0  0  0  0  0  0  0  0  0
   36.5070   28.6870   50.7840 H   0  0  0  0  0  0  0  0  0  0  0  0
   38.3150   30.4780   47.0060 C   0  0  0  0  0  3  0  0  0  0  0  0
   38.9270   30.9130   45.9010 C   0  0  0  0  0  3  0  0  0  0  0  0
   39.4130   30.1260   44.7430 C   0  0  0  0  0  0  0  0  0  0  0  0
   38.7650   29.2320   44.5810 H   0  0  0  0  0  0  0  0  0  0  0  0
   40.4650   29.7940   44.9440 H   0  0  0  0  0  0  0  0  0  0  0  0
   39.4560   31.1670   43.2820 S   0  0  0  0  0  0  0  0  0  0  0  0
   37.8150   31.3780   42.6280 C   0  0  0  0  0  0  0  0  0  0  0  0
   37.1140   32.5220   43.0970 C   0  0  0  0  0  0  0  0  0  0  0  0
   37.3580   33.3180   43.7810 H   0  0  0  0  0  0  0  0  0  0  0  0
   35.8550   32.8550   42.7180 C   0  0  0  0  0  3  0  0  0  0  0  0
   35.2360   31.9550   41.7740 C   0  0  0  0  0  3  0  0  0  0  0  0
   36.5470   30.6160   41.4670 S   0  0  0  0  0  0  0  0  0  0  0  0
  1  2  1  0  0  0  0
  2  3  2  0  0  0  0
  2  7  1  0  0  0  0
  3  8  1  0  0  0  0
  4  9  1  0  0  0  0
  4  3  1  0  0  0  0
  5  4  2  0  0  0  0
  6  5  1  0  0  0  0
  6  1  2  0  0  0  0
 10  5  1  0  0  0  0
 11 12  1  6  0  0  0
 11  1  1  0  0  0  0
 11 22  1  0  0  0  0
 13 14  2  0  0  0  0
 13 18  1  0  0  0  0
 14 15  1  0  0  0  0
 15 21  1  0  0  0  0
 15 16  2  0  0  0  0
 17 16  1  0  0  0  0
 17 11  1  0  0  0  0
 18 17  2  0  0  0  0
 19 13  1  0  0  0  0
 20 14  1  0  0  0  0
 22 23  1  0  0  0  0
 24  6  1  0  0  0  0
 25 24  2  0  0  0  0
 26 28  1  0  0  0  0
 26 25  1  0  0  0  0
 27 26  1  0  0  0  0
 29 26  1  0  0  0  0
 30 31  2  0  0  0  0
 30 29  1  0  0  0  0
 31 32  1  0  0  0  0
 33 31  1  0  0  0  0
 34 33  2  0  0  0  0
 35 34  1  0  0  0  0
 35 30  1  0  0  0  0
M  END
>  <minimizedAffinity>
-5.47709894

>  <minimizedRMSD>
0.27680999

$$$$
