
 OpenBabel03272509533D

 40 43  0  0  0  0  0  0  0  0999 V2000
   34.7900   28.3750   49.3570 O   0  0  0  0  0  0  0  0  0  0  0  0
   37.1150   29.9930   51.5880 C   0  0  0  0  0  0  0  0  0  0  0  0
   37.8970   30.7160   50.6540 C   0  0  0  0  0  0  0  0  0  0  0  0
   37.5670   30.5950   49.3140 C   0  0  0  0  0  0  0  0  0  0  0  0
   36.5070   29.7810   49.0130 N   0  0  0  0  0  0  0  0  0  0  0  0
   35.7820   29.1080   49.9130 C   0  0  0  0  0  0  0  0  0  0  0  0
   36.1020   29.2240   51.2150 N   0  0  0  0  0  0  0  0  0  0  0  0
   37.4040   30.1140   52.6260 H   0  0  0  0  0  0  0  0  0  0  0  0
   38.7270   31.3530   50.8870 H   0  0  0  0  0  0  0  0  0  0  0  0
   38.7830   33.2180   49.2810 F   0  0  0  0  0  0  0  0  0  0  0  0
   38.8120   32.4740   48.1910 C   0  0  0  0  0  0  0  0  0  0  0  0
   38.2390   31.2480   48.2190 C   0  0  0  0  0  0  0  0  0  0  0  0
   38.3290   30.5560   47.0220 C   0  0  0  0  0  0  0  0  0  0  0  0
   38.9460   31.0660   45.9000 C   0  0  0  0  0  0  0  0  0  0  0  0
   39.5160   32.3180   45.9140 C   0  0  0  0  0  0  0  0  0  0  0  0
   39.4430   33.0290   47.0880 C   0  0  0  0  0  0  0  0  0  0  0  0
   37.9240   29.5640   46.8770 H   0  0  0  0  0  0  0  0  0  0  0  0
   39.0160   30.5260   44.9640 H   0  0  0  0  0  0  0  0  0  0  0  0
   40.0010   32.7370   45.0500 H   0  0  0  0  0  0  0  0  0  0  0  0
   39.8810   34.0060   47.1190 H   0  0  0  0  0  0  0  0  0  0  0  0
   34.2530   28.7720   48.1040 C   0  0  0  0  0  0  0  0  0  0  0  0
   35.1020   28.9940   47.4200 H   0  0  0  0  0  0  0  0  0  0  0  0
   33.6550   29.6950   48.2280 H   0  0  0  0  0  0  0  0  0  0  0  0
   33.3980   27.6900   47.5330 C   0  0  0  0  0  0  0  0  0  0  0  0
   33.5200   27.5780   46.4260 H   0  0  0  0  0  0  0  0  0  0  0  0
   33.6740   26.7220   47.9700 H   0  0  0  0  0  0  0  0  0  0  0  0
   31.9500   27.9230   47.7550 C   0  0  0  0  0  0  0  0  0  0  0  0
   31.3530   27.3980   48.9020 C   0  0  0  0  0  0  0  0  0  0  0  0
   30.0340   27.5580   49.1940 C   0  0  0  0  0  0  0  0  0  0  0  0
   29.2840   28.2520   48.3370 N   0  0  0  0  0  0  0  0  0  0  0  0
   29.8540   28.7680   47.2160 C   0  0  0  0  0  0  0  0  0  0  0  0
   31.1530   28.6270   46.9010 N   0  0  0  0  0  0  0  0  0  0  0  0
   31.9890   26.8390   49.5790 H   0  0  0  0  0  0  0  0  0  0  0  0
   29.6630   27.1140   50.1060 H   0  0  0  0  0  0  0  0  0  0  0  0
   28.9680   29.4990   46.3520 C   0  0  0  0  0  0  0  0  0  0  0  0
   29.1860   30.0970   45.1060 C   0  0  0  0  0  0  0  0  0  0  0  0
   30.1890   29.9980   44.7200 H   0  0  0  0  0  0  0  0  0  0  0  0
   28.1680   30.7480   44.4690 C   0  0  0  0  0  3  0  0  0  0  0  0
   26.9080   30.7910   45.1090 C   0  0  0  0  0  3  0  0  0  0  0  0
   27.1350   29.8870   46.6750 S   0  0  0  0  0  0  0  0  0  0  0  0
  1  6  1  0  0  0  0
  2  8  1  0  0  0  0
  3  9  1  0  0  0  0
  3  2  2  0  0  0  0
  4  3  1  0  0  0  0
  5  4  2  0  0  0  0
  5  6  1  0  0  0  0
  6  7  2  0  0  0  0
  7  2  1  0  0  0  0
 11 12  1  0  0  0  0
 11 10  1  0  0  0  0
 12  4  1  0  0  0  0
 13 12  2  0  0  0  0
 14 15  2  0  0  0  0
 14 13  1  0  0  0  0
 15 16  1  0  0  0  0
 16 20  1  0  0  0  0
 16 11  2  0  0  0  0
 17 13  1  0  0  0  0
 18 14  1  0  0  0  0
 19 15  1  0  0  0  0
 21 23  1  0  0  0  0
 21  1  1  0  0  0  0
 22 21  1  0  0  0  0
 24 27  1  0  0  0  0
 24 26  1  0  0  0  0
 24 21  1  0  0  0  0
 25 24  1  0  0  0  0
 27 28  1  0  0  0  0
 28 29  2  0  0  0  0
 28 33  1  0  0  0  0
 29 34  1  0  0  0  0
 30 29  1  0  0  0  0
 31 30  2  0  0  0  0
 32 31  1  0  0  0  0
 32 27  2  0  0  0  0
 35 40  1  0  0  0  0
 35 31  1  0  0  0  0
 36 35  2  0  0  0  0
 37 36  1  0  0  0  0
 38 36  1  0  0  0  0
 38 39  2  0  0  0  0
 39 40  1  0  0  0  0
M  END
>  <minimizedAffinity>
-6.61928892

>  <minimizedRMSD>
0.559385896

$$$$
