
 OpenBabel03272507283D

 38 40  0  0  1  0  0  0  0  0999 V2000
   36.7350   30.4310   48.5730 C   0  0  0  0  0  0  0  0  0  0  0  0
   36.9680   30.7820   47.2260 C   0  0  0  0  0  0  0  0  0  0  0  0
   36.0200   30.3710   46.2910 C   0  0  0  0  0  0  0  0  0  0  0  0
   34.9490   29.6730   46.7080 N   0  0  0  0  0  0  0  0  0  0  0  0
   34.7570   29.3540   48.0040 C   0  0  0  0  0  0  0  0  0  0  0  0
   35.6420   29.7310   48.9260 N   0  0  0  0  0  0  0  0  0  0  0  0
   36.1710   30.6790   44.9430 N   0  0  0  0  0  0  0  0  0  0  0  0
   36.8220   31.9040   44.4030 C   0  0  0  0  0  0  0  0  0  0  0  0
   36.5630   31.9570   42.9550 C   0  0  0  0  0  0  0  0  0  0  0  0
   35.4220   31.0530   42.7790 C   0  0  0  0  0  0  0  0  0  0  0  0
   35.7590   29.9930   43.7630 C   0  0  2  0  0  0  0  0  0  0  0  0
   37.5430   30.8070   49.2110 H   0  0  0  0  0  0  0  0  0  0  0  0
   37.8020   31.3350   46.8500 H   0  0  0  0  0  0  0  0  0  0  0  0
   33.9280   28.8000   48.4130 H   0  0  0  0  0  0  0  0  0  0  0  0
   36.1100   32.6930   44.9150 H   0  0  0  0  0  0  0  0  0  0  0  0
   37.7530   32.1770   44.8300 H   0  0  0  0  0  0  0  0  0  0  0  0
   36.0650   33.0100   42.8020 H   0  0  0  0  0  0  0  0  0  0  0  0
   37.3470   32.0320   42.2440 H   0  0  0  0  0  0  0  0  0  0  0  0
   34.4460   31.4870   43.0130 H   0  0  0  0  0  0  0  0  0  0  0  0
   35.3700   30.6500   41.7310 H   0  0  0  0  0  0  0  0  0  0  0  0
   34.5740   29.0480   43.9550 C   0  0  0  0  0  0  0  0  0  0  0  0
   33.6260   29.7030   44.7200 F   0  0  0  0  0  0  0  0  0  0  0  0
   34.8520   27.8780   44.5980 F   0  0  0  0  0  0  0  0  0  0  0  0
   34.0060   28.8670   42.7140 F   0  0  0  0  0  0  0  0  0  0  0  0
   36.8640   29.1740   43.3290 C   0  0  2  0  0  0  0  0  0  0  0  0
   37.1000   28.4090   44.0570 H   0  0  0  0  0  0  0  0  0  0  0  0
   38.2800   29.8110   43.2770 C   0  0  0  0  0  0  0  0  0  0  0  0
   38.9720   30.4500   42.1930 C   0  0  0  0  0  0  0  0  0  0  0  0
   38.4170   30.3560   41.2810 H   0  0  0  0  0  0  0  0  0  0  0  0
   40.1500   31.0410   42.4700 C   0  0  0  0  0  3  0  0  0  0  0  0
   40.6590   31.0100   43.8060 C   0  0  0  0  0  3  0  0  0  0  0  0
   39.4630   30.1180   44.7680 S   0  0  0  0  0  0  0  0  0  0  0  0
   36.7000   28.9210   42.1090 O   0  0  0  0  0  0  0  0  0  0  0  0
   36.7890   27.9010   41.2400 C   0  0  0  0  0  0  0  0  0  0  0  0
   35.9130   27.9540   40.3720 O   0  0  0  0  0  0  0  0  0  0  0  0
   37.4700   26.7210   40.8320 N   0  0  0  0  0  0  0  0  0  0  0  0
   37.1370   25.7500   41.0890 H   0  0  0  0  0  0  0  0  0  0  0  0
   38.3080   26.9580   40.2680 H   0  0  0  0  0  0  0  0  0  0  0  0
  1  6  1  0  0  0  0
  1 12  1  0  0  0  0
  2  1  2  0  0  0  0
  3  4  2  0  0  0  0
  3  2  1  0  0  0  0
  4  5  1  0  0  0  0
  5 14  1  0  0  0  0
  5  6  2  0  0  0  0
  7  3  1  0  0  0  0
  8 16  1  0  0  0  0
  8 15  1  0  0  0  0
  8  7  1  0  0  0  0
  9  8  1  0  0  0  0
 10  9  1  0  0  0  0
 10 19  1  0  0  0  0
 10 11  1  0  0  0  0
 11 21  1  1  0  0  0
 11  7  1  0  0  0  0
 13  2  1  0  0  0  0
 17  9  1  0  0  0  0
 18  9  1  0  0  0  0
 20 10  1  0  0  0  0
 21 23  1  0  0  0  0
 21 22  1  0  0  0  0
 24 21  1  0  0  0  0
 25 11  1  0  0  0  0
 25 26  1  1  0  0  0
 27 25  1  0  0  0  0
 27 32  1  0  0  0  0
 28 30  1  0  0  0  0
 28 27  2  0  0  0  0
 29 28  1  0  0  0  0
 30 31  2  0  0  0  0
 31 32  1  0  0  0  0
 33 25  1  0  0  0  0
 34 33  1  0  0  0  0
 35 34  2  0  0  0  0
 36 37  1  0  0  0  0
 36 34  1  0  0  0  0
 38 36  1  0  0  0  0
M  END
>  <minimizedAffinity>
-3.32705665

>  <minimizedRMSD>
3.71945691

$$$$
