
 OpenBabel03272509433D

 35 37  0  0  1  0  0  0  0  0999 V2000
   37.0330   30.9230   49.0290 C   0  0  0  0  0  0  0  0  0  0  0  0
   36.7490   31.8040   50.0730 C   0  0  0  0  0  0  0  0  0  0  0  0
   37.3350   33.0580   50.1550 C   0  0  0  0  0  0  0  0  0  0  0  0
   38.2390   33.4610   49.1650 C   0  0  0  0  0  0  0  0  0  0  0  0
   38.5080   32.5870   48.1480 C   0  0  0  0  0  0  0  0  0  0  0  0
   37.9030   31.3430   48.1030 C   0  0  0  0  0  0  0  0  0  0  0  0
   36.0490   31.5010   50.8450 H   0  0  0  0  0  0  0  0  0  0  0  0
   37.0640   33.6720   50.9880 H   0  0  0  0  0  0  0  0  0  0  0  0
   38.6330   34.4360   49.3160 H   0  0  0  0  0  0  0  0  0  0  0  0
   39.2250   33.0410   47.4640 H   0  0  0  0  0  0  0  0  0  0  0  0
   36.4480   29.6020   48.9620 C   0  0  2  0  0  0  0  0  0  0  0  0
   36.9780   29.0820   48.0740 H   0  0  0  0  0  0  0  0  0  0  0  0
   33.5570   30.1350   46.8240 C   0  0  0  0  0  0  0  0  0  0  0  0
   32.8980   28.9210   46.8440 C   0  0  0  0  0  0  0  0  0  0  0  0
   33.4060   27.9180   47.6470 C   0  0  0  0  0  0  0  0  0  0  0  0
   34.5410   28.1560   48.3910 N   0  0  0  0  0  0  0  0  0  0  0  0
   35.1260   29.3350   48.3260 C   0  0  0  0  0  0  0  0  0  0  0  0
   34.6420   30.3300   47.5490 N   0  0  0  0  0  0  0  0  0  0  0  0
   33.1850   30.9500   46.2020 H   0  0  0  0  0  0  0  0  0  0  0  0
   32.0200   28.8460   46.2200 H   0  0  0  0  0  0  0  0  0  0  0  0
   32.8880   26.9700   47.6630 H   0  0  0  0  0  0  0  0  0  0  0  0
   36.8890   28.8220   49.8840 O   0  0  0  0  0  0  0  0  0  0  0  0
   36.4290   28.6580   50.7240 H   0  0  0  0  0  0  0  0  0  0  0  0
   38.3070   30.5110   46.9940 C   0  0  0  0  0  3  0  0  0  0  0  0
   39.0430   30.9410   45.9650 C   0  0  0  0  0  3  0  0  0  0  0  0
   39.5530   30.1700   44.8070 C   0  0  0  0  0  0  0  0  0  0  0  0
   39.2330   29.1040   44.8790 H   0  0  0  0  0  0  0  0  0  0  0  0
   40.6730   30.2250   44.7970 H   0  0  0  0  0  0  0  0  0  0  0  0
   38.9730   30.9190   43.2820 S   0  0  0  0  0  0  0  0  0  0  0  0
   37.1950   30.8980   43.2250 C   0  0  0  0  0  0  0  0  0  0  0  0
   36.5870   29.6660   43.5920 C   0  0  0  0  0  0  0  0  0  0  0  0
   36.9710   28.7110   43.9070 H   0  0  0  0  0  0  0  0  0  0  0  0
   35.2490   29.4520   43.6110 C   0  0  0  0  0  3  0  0  0  0  0  0
   34.4360   30.5810   43.2280 C   0  0  0  0  0  3  0  0  0  0  0  0
   35.6890   31.9550   42.8390 S   0  0  0  0  0  0  0  0  0  0  0  0
  1  2  1  0  0  0  0
  2  3  2  0  0  0  0
  2  7  1  0  0  0  0
  3  8  1  0  0  0  0
  4  9  1  0  0  0  0
  4  3  1  0  0  0  0
  5  4  2  0  0  0  0
  6  5  1  0  0  0  0
  6  1  2  0  0  0  0
 10  5  1  0  0  0  0
 11 12  1  6  0  0  0
 11  1  1  0  0  0  0
 11 22  1  0  0  0  0
 13 14  2  0  0  0  0
 13 18  1  0  0  0  0
 14 15  1  0  0  0  0
 15 21  1  0  0  0  0
 15 16  2  0  0  0  0
 17 16  1  0  0  0  0
 17 11  1  0  0  0  0
 18 17  2  0  0  0  0
 19 13  1  0  0  0  0
 20 14  1  0  0  0  0
 22 23  1  0  0  0  0
 24  6  1  0  0  0  0
 25 24  2  0  0  0  0
 26 27  1  0  0  0  0
 26 25  1  0  0  0  0
 28 26  1  0  0  0  0
 29 26  1  0  0  0  0
 30 29  1  0  0  0  0
 30 31  2  0  0  0  0
 31 33  1  0  0  0  0
 31 32  1  0  0  0  0
 34 33  2  0  0  0  0
 35 30  1  0  0  0  0
 35 34  1  0  0  0  0
M  END
>  <minimizedAffinity>
-5.3693428

>  <minimizedRMSD>
0.689617038

$$$$
