
 OpenBabel03272501173D

 32 35  0  0  1  0  0  0  0  0999 V2000
   37.2670   26.7530   34.9460 C   0  0  1  0  0  0  0  0  0  0  0  0
   38.1510   25.7560   35.4620 C   0  0  1  0  0  0  0  0  0  0  0  0
   38.5220   27.1850   35.7210 C   0  0  0  0  0  0  0  0  0  0  0  0
   36.3250   27.0910   35.4530 H   0  0  0  0  0  0  0  0  0  0  0  0
   38.8070   25.2270   34.7070 H   0  0  0  0  0  0  0  0  0  0  0  0
   39.3760   27.6060   35.1620 H   0  0  0  0  0  0  0  0  0  0  0  0
   38.3660   27.4810   36.7770 H   0  0  0  0  0  0  0  0  0  0  0  0
   37.3190   27.1870   33.4970 C   0  0  0  0  0  0  0  0  0  0  0  0
   36.5550   28.2960   33.1750 C   0  0  0  0  0  0  0  0  0  0  0  0
   36.5960   28.6660   31.8140 C   0  0  0  0  0  0  0  0  0  0  0  0
   37.3390   27.9610   30.9330 N   0  0  0  0  0  0  0  0  0  0  0  0
   38.0830   26.8650   31.2990 C   0  0  0  0  0  0  0  0  0  0  0  0
   38.0630   26.4810   32.6150 N   0  0  0  0  0  0  0  0  0  0  0  0
   35.9850   28.8100   33.9330 H   0  0  0  0  0  0  0  0  0  0  0  0
   36.0200   29.5210   31.5150 H   0  0  0  0  0  0  0  0  0  0  0  0
   38.6510   26.3430   30.5720 H   0  0  0  0  0  0  0  0  0  0  0  0
   37.6960   24.8380   36.5570 C   0  0  0  0  0  0  0  0  0  0  0  0
   36.7620   24.3080   36.3320 H   0  0  0  0  0  0  0  0  0  0  0  0
   37.5030   25.4650   37.4730 H   0  0  0  0  0  0  0  0  0  0  0  0
   38.7290   23.8370   36.9400 C   0  0  0  0  0  0  0  0  0  0  0  0
   38.8230   23.3070   38.2010 C   0  0  0  0  0  0  0  0  0  0  0  0
   39.8310   22.4380   38.2850 N   0  0  0  0  0  0  0  0  0  0  0  0
   40.3780   22.4190   37.0630 C   0  0  0  0  0  0  0  0  0  0  0  0
   39.7200   23.2600   36.2440 N   0  0  0  0  0  0  0  0  0  0  0  0
   38.1670   23.5480   39.0540 H   0  0  0  0  0  0  0  0  0  0  0  0
   40.0990   21.9060   39.1460 H   0  0  0  0  0  0  0  0  0  0  0  0
   41.5380   21.5930   36.6750 C   0  0  0  0  0  0  0  0  0  0  0  0
   42.2490   20.7480   37.4020 C   0  0  0  0  0  0  0  0  0  0  0  0
   41.9870   20.5950   38.4600 H   0  0  0  0  0  0  0  0  0  0  0  0
   43.2950   20.0800   36.8260 C   0  0  0  0  0  3  0  0  0  0  0  0
   43.5500   20.3350   35.4900 C   0  0  0  0  0  3  0  0  0  0  0  0
   42.2340   21.5720   35.0750 S   0  0  0  0  0  0  0  0  0  0  0  0
  1  4  1  1  0  0  0
  1  2  1  0  0  0  0
  1  3  1  0  0  0  0
  2  5  1  6  0  0  0
  2  3  1  0  0  0  0
  2 17  1  0  0  0  0
  3  7  1  0  0  0  0
  6  3  1  0  0  0  0
  8  1  1  0  0  0  0
  9  8  1  0  0  0  0
  9 14  1  0  0  0  0
 10  9  2  0  0  0  0
 11 12  2  0  0  0  0
 11 10  1  0  0  0  0
 12 13  1  0  0  0  0
 13  8  2  0  0  0  0
 15 10  1  0  0  0  0
 16 12  1  0  0  0  0
 17 20  1  0  0  0  0
 17 19  1  0  0  0  0
 18 17  1  0  0  0  0
 20 21  2  0  0  0  0
 21 22  1  0  0  0  0
 21 25  1  0  0  0  0
 22 26  1  0  0  0  0
 23 22  1  0  0  0  0
 24 20  1  0  0  0  0
 24 23  2  0  0  0  0
 27 23  1  0  0  0  0
 27 28  2  0  0  0  0
 28 29  1  0  0  0  0
 30 28  1  0  0  0  0
 31 30  2  0  0  0  0
 32 31  1  0  0  0  0
 32 27  1  0  0  0  0
M  END
>  <minimizedAffinity>
-5.47011805

$$$$

 OpenBabel03272501173D

 32 35  0  0  1  0  0  0  0  0999 V2000
   38.7900   25.5990   34.8260 C   0  0  1  0  0  0  0  0  0  0  0  0
   37.6410   26.3810   34.4950 C   0  0  1  0  0  0  0  0  0  0  0  0
   38.7640   27.0920   35.1860 C   0  0  0  0  0  0  0  0  0  0  0  0
   39.6200   25.3550   34.1120 H   0  0  0  0  0  0  0  0  0  0  0  0
   36.7210   26.2170   35.1340 H   0  0  0  0  0  0  0  0  0  0  0  0
   38.6190   27.3850   36.2410 H   0  0  0  0  0  0  0  0  0  0  0  0
   39.3220   27.7680   34.5080 H   0  0  0  0  0  0  0  0  0  0  0  0
   38.8250   24.7200   36.0570 C   0  0  0  0  0  0  0  0  0  0  0  0
   39.8190   23.7570   36.0810 C   0  0  0  0  0  0  0  0  0  0  0  0
   39.8150   22.9320   37.2250 C   0  0  0  0  0  0  0  0  0  0  0  0
   38.8920   23.1070   38.1950 N   0  0  0  0  0  0  0  0  0  0  0  0
   37.9220   24.0780   38.1300 C   0  0  0  0  0  0  0  0  0  0  0  0
   37.8990   24.8960   37.0290 N   0  0  0  0  0  0  0  0  0  0  0  0
   40.5240   23.6760   35.2680 H   0  0  0  0  0  0  0  0  0  0  0  0
   40.5700   22.1700   37.2890 H   0  0  0  0  0  0  0  0  0  0  0  0
   37.2170   24.1780   38.9160 H   0  0  0  0  0  0  0  0  0  0  0  0
   37.2930   26.6400   33.0600 C   0  0  0  0  0  0  0  0  0  0  0  0
   38.1350   27.0020   32.4570 H   0  0  0  0  0  0  0  0  0  0  0  0
   36.5060   27.4480   33.0380 H   0  0  0  0  0  0  0  0  0  0  0  0
   36.7000   25.4540   32.3830 C   0  0  0  0  0  0  0  0  0  0  0  0
   35.7640   25.5540   31.3870 C   0  0  0  0  0  0  0  0  0  0  0  0
   35.3930   24.3500   30.9510 N   0  0  0  0  0  0  0  0  0  0  0  0
   36.1030   23.4810   31.6810 C   0  0  0  0  0  0  0  0  0  0  0  0
   36.8950   24.1370   32.5480 N   0  0  0  0  0  0  0  0  0  0  0  0
   35.3520   26.4920   30.9780 H   0  0  0  0  0  0  0  0  0  0  0  0
   34.6910   24.1710   30.1950 H   0  0  0  0  0  0  0  0  0  0  0  0
   36.0250   22.0130   31.5490 C   0  0  0  0  0  0  0  0  0  0  0  0
   35.0730   21.1830   31.9390 C   0  0  0  0  0  0  0  0  0  0  0  0
   34.1800   21.5860   32.4430 H   0  0  0  0  0  0  0  0  0  0  0  0
   35.2130   19.8420   31.7100 C   0  0  0  0  0  3  0  0  0  0  0  0
   36.3680   19.4260   31.0700 C   0  0  0  0  0  3  0  0  0  0  0  0
   37.2580   21.0300   30.8020 S   0  0  0  0  0  0  0  0  0  0  0  0
  1  4  1  6  0  0  0
  1  3  1  0  0  0  0
  1  8  1  0  0  0  0
  2  1  1  0  0  0  0
  2  5  1  1  0  0  0
  2  3  1  0  0  0  0
  3  6  1  0  0  0  0
  7  3  1  0  0  0  0
  8  9  2  0  0  0  0
  8 13  1  0  0  0  0
  9 10  1  0  0  0  0
 10 15  1  0  0  0  0
 10 11  2  0  0  0  0
 12 11  1  0  0  0  0
 12 16  1  0  0  0  0
 13 12  2  0  0  0  0
 14  9  1  0  0  0  0
 17  2  1  0  0  0  0
 18 17  1  0  0  0  0
 19 17  1  0  0  0  0
 20 24  1  0  0  0  0
 20 17  1  0  0  0  0
 21 20  2  0  0  0  0
 22 21  1  0  0  0  0
 22 23  1  0  0  0  0
 23 24  2  0  0  0  0
 25 21  1  0  0  0  0
 26 22  1  0  0  0  0
 27 23  1  0  0  0  0
 27 28  2  0  0  0  0
 28 29  1  0  0  0  0
 30 28  1  0  0  0  0
 31 30  2  0  0  0  0
 32 31  1  0  0  0  0
 32 27  1  0  0  0  0
M  END
>  <minimizedAffinity>
-5.3133812

$$$$

 OpenBabel03272501173D

 32 35  0  0  1  0  0  0  0  0999 V2000
   37.6860   26.3990   35.2410 C   0  0  1  0  0  0  0  0  0  0  0  0
   39.0070   25.9040   35.0080 C   0  0  1  0  0  0  0  0  0  0  0  0
   38.8940   27.1970   35.7570 C   0  0  0  0  0  0  0  0  0  0  0  0
   37.0200   26.0610   36.0760 H   0  0  0  0  0  0  0  0  0  0  0  0
   39.4020   26.0030   33.9520 H   0  0  0  0  0  0  0  0  0  0  0  0
   39.1850   28.1250   35.2340 H   0  0  0  0  0  0  0  0  0  0  0  0
   39.1280   27.0870   36.8350 H   0  0  0  0  0  0  0  0  0  0  0  0
   36.9230   27.1550   34.1750 C   0  0  0  0  0  0  0  0  0  0  0  0
   36.9830   26.6200   32.9000 C   0  0  0  0  0  0  0  0  0  0  0  0
   36.2880   27.3550   31.9180 C   0  0  0  0  0  0  0  0  0  0  0  0
   35.6280   28.4880   32.2460 N   0  0  0  0  0  0  0  0  0  0  0  0
   35.5950   28.9820   33.5270 C   0  0  0  0  0  0  0  0  0  0  0  0
   36.2630   28.2890   34.5050 N   0  0  0  0  0  0  0  0  0  0  0  0
   37.5310   25.7090   32.7110 H   0  0  0  0  0  0  0  0  0  0  0  0
   36.3050   26.9790   30.9120 H   0  0  0  0  0  0  0  0  0  0  0  0
   35.0640   29.8750   33.7390 H   0  0  0  0  0  0  0  0  0  0  0  0
   39.4640   24.6370   35.6650 C   0  0  0  0  0  0  0  0  0  0  0  0
   39.5780   24.7160   36.7530 H   0  0  0  0  0  0  0  0  0  0  0  0
   40.4800   24.3810   35.2490 H   0  0  0  0  0  0  0  0  0  0  0  0
   38.5810   23.4760   35.3650 C   0  0  0  0  0  0  0  0  0  0  0  0
   38.0250   22.6890   36.3400 C   0  0  0  0  0  0  0  0  0  0  0  0
   37.2800   21.7190   35.8110 N   0  0  0  0  0  0  0  0  0  0  0  0
   37.3660   21.8970   34.4860 C   0  0  0  0  0  0  0  0  0  0  0  0
   38.1480   22.9550   34.2070 N   0  0  0  0  0  0  0  0  0  0  0  0
   38.1590   22.8150   37.4270 H   0  0  0  0  0  0  0  0  0  0  0  0
   36.7560   20.9940   36.3550 H   0  0  0  0  0  0  0  0  0  0  0  0
   36.6950   21.0500   33.4800 C   0  0  0  0  0  0  0  0  0  0  0  0
   35.5600   20.3790   33.5670 C   0  0  0  0  0  0  0  0  0  0  0  0
   34.9820   20.4180   34.5040 H   0  0  0  0  0  0  0  0  0  0  0  0
   35.1230   19.6510   32.4940 C   0  0  0  0  0  3  0  0  0  0  0  0
   35.9140   19.6620   31.3590 C   0  0  0  0  0  3  0  0  0  0  0  0
   37.3170   20.7570   31.8760 S   0  0  0  0  0  0  0  0  0  0  0  0
  1  3  1  0  0  0  0
  1  4  1  1  0  0  0
  2  5  1  6  0  0  0
  2  1  1  0  0  0  0
  2 17  1  0  0  0  0
  2  3  1  0  0  0  0
  3  7  1  0  0  0  0
  6  3  1  0  0  0  0
  8 13  1  0  0  0  0
  8  1  1  0  0  0  0
  9  8  2  0  0  0  0
 10 11  2  0  0  0  0
 10  9  1  0  0  0  0
 11 12  1  0  0  0  0
 12 16  1  0  0  0  0
 12 13  2  0  0  0  0
 14  9  1  0  0  0  0
 15 10  1  0  0  0  0
 17 18  1  0  0  0  0
 19 17  1  0  0  0  0
 20 17  1  0  0  0  0
 20 21  2  0  0  0  0
 21 25  1  0  0  0  0
 22 21  1  0  0  0  0
 22 26  1  0  0  0  0
 23 22  1  0  0  0  0
 24 23  2  0  0  0  0
 24 20  1  0  0  0  0
 27 28  2  0  0  0  0
 27 23  1  0  0  0  0
 28 29  1  0  0  0  0
 30 28  1  0  0  0  0
 31 32  1  0  0  0  0
 31 30  2  0  0  0  0
 32 27  1  0  0  0  0
M  END
>  <minimizedAffinity>
-5.24992514

$$$$

 OpenBabel03272501173D

 32 35  0  0  1  0  0  0  0  0999 V2000
   36.0610   23.3540   31.8960 C   0  0  1  0  0  0  0  0  0  0  0  0
   36.7220   24.2560   31.0060 C   0  0  1  0  0  0  0  0  0  0  0  0
   35.2270   24.2050   30.9250 C   0  0  0  0  0  0  0  0  0  0  0  0
   35.8200   23.5830   32.9670 H   0  0  0  0  0  0  0  0  0  0  0  0
   37.2590   23.7890   30.1250 H   0  0  0  0  0  0  0  0  0  0  0  0
   34.7720   23.7190   30.0440 H   0  0  0  0  0  0  0  0  0  0  0  0
   34.7450   25.1060   31.3560 H   0  0  0  0  0  0  0  0  0  0  0  0
   35.9510   21.8760   31.5920 C   0  0  0  0  0  0  0  0  0  0  0  0
   34.9570   21.1950   32.2720 C   0  0  0  0  0  0  0  0  0  0  0  0
   34.8900   19.8140   31.9940 C   0  0  0  0  0  0  0  0  0  0  0  0
   35.7530   19.2460   31.1230 N   0  0  0  0  0  0  0  0  0  0  0  0
   36.7260   19.9620   30.4690 C   0  0  0  0  0  0  0  0  0  0  0  0
   36.8160   21.3080   30.7190 N   0  0  0  0  0  0  0  0  0  0  0  0
   34.3030   21.7150   32.9540 H   0  0  0  0  0  0  0  0  0  0  0  0
   34.1330   19.2430   32.4980 H   0  0  0  0  0  0  0  0  0  0  0  0
   37.3810   19.4740   29.7930 H   0  0  0  0  0  0  0  0  0  0  0  0
   37.4530   25.4480   31.5450 C   0  0  0  0  0  0  0  0  0  0  0  0
   36.9980   26.4090   31.2730 H   0  0  0  0  0  0  0  0  0  0  0  0
   38.4910   25.4430   31.1050 H   0  0  0  0  0  0  0  0  0  0  0  0
   37.6220   25.4050   33.0240 C   0  0  0  0  0  0  0  0  0  0  0  0
   37.1520   26.3870   33.8580 C   0  0  0  0  0  0  0  0  0  0  0  0
   37.4330   26.1130   35.1320 N   0  0  0  0  0  0  0  0  0  0  0  0
   38.0880   24.9450   35.1010 C   0  0  0  0  0  0  0  0  0  0  0  0
   38.2060   24.5100   33.8330 N   0  0  0  0  0  0  0  0  0  0  0  0
   36.6100   27.2950   33.5460 H   0  0  0  0  0  0  0  0  0  0  0  0
   37.1760   26.7140   35.9500 H   0  0  0  0  0  0  0  0  0  0  0  0
   38.6030   24.2400   36.2910 C   0  0  0  0  0  0  0  0  0  0  0  0
   38.1410   24.2320   37.5290 C   0  0  0  0  0  0  0  0  0  0  0  0
   37.2410   24.8190   37.7730 H   0  0  0  0  0  0  0  0  0  0  0  0
   38.7870   23.4960   38.4850 C   0  0  0  0  0  3  0  0  0  0  0  0
   39.9090   22.7890   38.0870 C   0  0  0  0  0  3  0  0  0  0  0  0
   40.0140   23.2140   36.2860 S   0  0  0  0  0  0  0  0  0  0  0  0
  1  4  1  1  0  0  0
  2  5  1  6  0  0  0
  2 17  1  0  0  0  0
  2  1  1  0  0  0  0
  3  2  1  0  0  0  0
  3  7  1  0  0  0  0
  3  1  1  0  0  0  0
  6  3  1  0  0  0  0
  8  1  1  0  0  0  0
  8  9  1  0  0  0  0
  9 14  1  0  0  0  0
 10  9  2  0  0  0  0
 10 15  1  0  0  0  0
 11 10  1  0  0  0  0
 12 13  1  0  0  0  0
 12 11  2  0  0  0  0
 13  8  2  0  0  0  0
 16 12  1  0  0  0  0
 17 20  1  0  0  0  0
 18 17  1  0  0  0  0
 19 17  1  0  0  0  0
 20 24  1  0  0  0  0
 20 21  2  0  0  0  0
 21 22  1  0  0  0  0
 22 26  1  0  0  0  0
 23 22  1  0  0  0  0
 23 27  1  0  0  0  0
 24 23  2  0  0  0  0
 25 21  1  0  0  0  0
 27 28  2  0  0  0  0
 28 29  1  0  0  0  0
 28 30  1  0  0  0  0
 31 30  2  0  0  0  0
 32 27  1  0  0  0  0
 32 31  1  0  0  0  0
M  END
>  <minimizedAffinity>
-5.18584585

$$$$

 OpenBabel03272501173D

 32 35  0  0  1  0  0  0  0  0999 V2000
   38.7090   25.3400   34.8140 C   0  0  1  0  0  0  0  0  0  0  0  0
   38.0210   26.5910   34.7470 C   0  0  1  0  0  0  0  0  0  0  0  0
   39.5140   26.6480   34.8620 C   0  0  0  0  0  0  0  0  0  0  0  0
   38.9780   24.7150   33.9230 H   0  0  0  0  0  0  0  0  0  0  0  0
   37.4630   26.9080   35.6800 H   0  0  0  0  0  0  0  0  0  0  0  0
   39.9470   26.9750   35.8240 H   0  0  0  0  0  0  0  0  0  0  0  0
   40.0030   26.9560   33.9160 H   0  0  0  0  0  0  0  0  0  0  0  0
   38.8170   24.5620   36.1070 C   0  0  0  0  0  0  0  0  0  0  0  0
   39.7720   23.5600   36.1270 C   0  0  0  0  0  0  0  0  0  0  0  0
   39.8360   22.8290   37.3320 C   0  0  0  0  0  0  0  0  0  0  0  0
   39.0080   23.1230   38.3580 N   0  0  0  0  0  0  0  0  0  0  0  0
   38.0740   24.1280   38.2940 C   0  0  0  0  0  0  0  0  0  0  0  0
   37.9870   24.8560   37.1350 N   0  0  0  0  0  0  0  0  0  0  0  0
   40.3990   23.3810   35.2670 H   0  0  0  0  0  0  0  0  0  0  0  0
   40.5630   22.0410   37.3950 H   0  0  0  0  0  0  0  0  0  0  0  0
   37.4460   24.3230   39.1250 H   0  0  0  0  0  0  0  0  0  0  0  0
   37.3000   26.9890   33.4950 C   0  0  0  0  0  0  0  0  0  0  0  0
   36.6810   26.1920   33.0660 H   0  0  0  0  0  0  0  0  0  0  0  0
   38.0760   27.2520   32.7200 H   0  0  0  0  0  0  0  0  0  0  0  0
   36.4540   28.2020   33.6730 C   0  0  0  0  0  0  0  0  0  0  0  0
   35.7270   28.7610   32.6540 C   0  0  0  0  0  0  0  0  0  0  0  0
   35.0600   29.8370   33.0730 N   0  0  0  0  0  0  0  0  0  0  0  0
   35.3700   29.9570   34.3700 C   0  0  0  0  0  0  0  0  0  0  0  0
   36.2110   28.9750   34.7420 N   0  0  0  0  0  0  0  0  0  0  0  0
   35.6800   28.3930   31.6160 H   0  0  0  0  0  0  0  0  0  0  0  0
   34.4370   30.4310   32.4760 H   0  0  0  0  0  0  0  0  0  0  0  0
   34.8590   31.0180   35.2610 C   0  0  0  0  0  0  0  0  0  0  0  0
   35.4760   31.6690   36.2320 C   0  0  0  0  0  0  0  0  0  0  0  0
   36.5270   31.4310   36.4580 H   0  0  0  0  0  0  0  0  0  0  0  0
   34.7980   32.6270   36.9360 C   0  0  0  0  0  3  0  0  0  0  0  0
   33.4810   32.8600   36.5810 C   0  0  0  0  0  3  0  0  0  0  0  0
   33.2360   31.6540   35.1940 S   0  0  0  0  0  0  0  0  0  0  0  0
  1  4  1  6  0  0  0
  1  3  1  0  0  0  0
  1  8  1  0  0  0  0
  2  1  1  0  0  0  0
  2  3  1  0  0  0  0
  2  5  1  1  0  0  0
  3  6  1  0  0  0  0
  7  3  1  0  0  0  0
  8  9  2  0  0  0  0
  8 13  1  0  0  0  0
  9 10  1  0  0  0  0
 10 15  1  0  0  0  0
 10 11  2  0  0  0  0
 12 11  1  0  0  0  0
 12 16  1  0  0  0  0
 13 12  2  0  0  0  0
 14  9  1  0  0  0  0
 17 20  1  0  0  0  0
 17  2  1  0  0  0  0
 18 17  1  0  0  0  0
 19 17  1  0  0  0  0
 20 24  1  0  0  0  0
 21 22  1  0  0  0  0
 21 20  2  0  0  0  0
 22 23  1  0  0  0  0
 23 24  2  0  0  0  0
 23 27  1  0  0  0  0
 25 21  1  0  0  0  0
 26 22  1  0  0  0  0
 27 28  2  0  0  0  0
 28 29  1  0  0  0  0
 28 30  1  0  0  0  0
 31 30  2  0  0  0  0
 32 27  1  0  0  0  0
 32 31  1  0  0  0  0
M  END
>  <minimizedAffinity>
-5.16443062

$$$$

 OpenBabel03272501173D

 32 35  0  0  1  0  0  0  0  0999 V2000
   35.7110   29.9210   33.6820 C   0  0  1  0  0  0  0  0  0  0  0  0
   35.8480   28.5030   33.5740 C   0  0  1  0  0  0  0  0  0  0  0  0
   34.7440   29.1350   32.7830 C   0  0  0  0  0  0  0  0  0  0  0  0
   36.3150   30.6640   33.0980 H   0  0  0  0  0  0  0  0  0  0  0  0
   35.5030   27.8950   34.4650 H   0  0  0  0  0  0  0  0  0  0  0  0
   33.7060   28.9760   33.1250 H   0  0  0  0  0  0  0  0  0  0  0  0
   34.9580   29.1600   31.6960 H   0  0  0  0  0  0  0  0  0  0  0  0
   35.0000   30.5630   34.8530 C   0  0  0  0  0  0  0  0  0  0  0  0
   35.7630   31.4260   35.6200 C   0  0  0  0  0  0  0  0  0  0  0  0
   35.0890   31.9910   36.7220 C   0  0  0  0  0  0  0  0  0  0  0  0
   33.7970   31.6830   36.9690 N   0  0  0  0  0  0  0  0  0  0  0  0
   33.0760   30.8200   36.1790 C   0  0  0  0  0  0  0  0  0  0  0  0
   33.7050   30.2530   35.1000 N   0  0  0  0  0  0  0  0  0  0  0  0
   36.7920   31.6250   35.3620 H   0  0  0  0  0  0  0  0  0  0  0  0
   35.6400   32.6680   37.3470 H   0  0  0  0  0  0  0  0  0  0  0  0
   32.0640   30.6070   36.4110 H   0  0  0  0  0  0  0  0  0  0  0  0
   37.0600   27.9100   32.9210 C   0  0  0  0  0  0  0  0  0  0  0  0
   37.9240   28.5840   32.8920 H   0  0  0  0  0  0  0  0  0  0  0  0
   36.7940   27.6750   31.8510 H   0  0  0  0  0  0  0  0  0  0  0  0
   37.4830   26.6240   33.5430 C   0  0  0  0  0  0  0  0  0  0  0  0
   37.5640   25.4480   32.8430 C   0  0  0  0  0  0  0  0  0  0  0  0
   37.9630   24.4470   33.6270 N   0  0  0  0  0  0  0  0  0  0  0  0
   38.1350   24.9980   34.8360 C   0  0  0  0  0  0  0  0  0  0  0  0
   37.8480   26.3120   34.7950 N   0  0  0  0  0  0  0  0  0  0  0  0
   37.3370   25.3160   31.7720 H   0  0  0  0  0  0  0  0  0  0  0  0
   38.0990   23.4550   33.3190 H   0  0  0  0  0  0  0  0  0  0  0  0
   38.5770   24.2640   36.0380 C   0  0  0  0  0  0  0  0  0  0  0  0
   39.5510   23.3800   36.1730 C   0  0  0  0  0  0  0  0  0  0  0  0
   40.1580   23.1090   35.2950 H   0  0  0  0  0  0  0  0  0  0  0  0
   39.7860   22.8190   37.3990 C   0  0  0  0  0  3  0  0  0  0  0  0
   38.9740   23.2210   38.4450 C   0  0  0  0  0  3  0  0  0  0  0  0
   37.8500   24.4390   37.6140 S   0  0  0  0  0  0  0  0  0  0  0  0
  1  4  1  6  0  0  0
  1  8  1  0  0  0  0
  2  1  1  0  0  0  0
  2  5  1  1  0  0  0
  3  6  1  0  0  0  0
  3  2  1  0  0  0  0
  3  1  1  0  0  0  0
  7  3  1  0  0  0  0
  8 13  2  0  0  0  0
  8  9  1  0  0  0  0
  9 10  2  0  0  0  0
 10 11  1  0  0  0  0
 10 15  1  0  0  0  0
 12 16  1  0  0  0  0
 12 11  2  0  0  0  0
 13 12  1  0  0  0  0
 14  9  1  0  0  0  0
 17 20  1  0  0  0  0
 17  2  1  0  0  0  0
 18 17  1  0  0  0  0
 19 17  1  0  0  0  0
 20 24  1  0  0  0  0
 21 20  2  0  0  0  0
 21 22  1  0  0  0  0
 22 23  1  0  0  0  0
 23 27  1  0  0  0  0
 24 23  2  0  0  0  0
 25 21  1  0  0  0  0
 26 22  1  0  0  0  0
 27 28  2  0  0  0  0
 27 32  1  0  0  0  0
 28 30  1  0  0  0  0
 29 28  1  0  0  0  0
 30 31  2  0  0  0  0
 32 31  1  0  0  0  0
M  END
>  <minimizedAffinity>
-5.03495264

$$$$

 OpenBabel03272501173D

 32 35  0  0  1  0  0  0  0  0999 V2000
   35.5700   30.6090   33.6250 C   0  0  1  0  0  0  0  0  0  0  0  0
   35.3360   29.2370   33.9520 C   0  0  1  0  0  0  0  0  0  0  0  0
   34.3100   29.9090   33.0910 C   0  0  0  0  0  0  0  0  0  0  0  0
   36.2380   30.9590   32.7950 H   0  0  0  0  0  0  0  0  0  0  0  0
   34.9980   29.0230   35.0110 H   0  0  0  0  0  0  0  0  0  0  0  0
   33.3320   30.1500   33.5440 H   0  0  0  0  0  0  0  0  0  0  0  0
   34.3490   29.5700   32.0370 H   0  0  0  0  0  0  0  0  0  0  0  0
   35.2320   31.7230   34.5910 C   0  0  0  0  0  0  0  0  0  0  0  0
   35.3750   31.4190   35.9330 C   0  0  0  0  0  0  0  0  0  0  0  0
   35.0280   32.4630   36.8160 C   0  0  0  0  0  0  0  0  0  0  0  0
   34.5950   33.6500   36.3390 N   0  0  0  0  0  0  0  0  0  0  0  0
   34.4680   33.9090   34.9960 C   0  0  0  0  0  0  0  0  0  0  0  0
   34.7980   32.9130   34.1120 N   0  0  0  0  0  0  0  0  0  0  0  0
   35.7270   30.4470   36.2420 H   0  0  0  0  0  0  0  0  0  0  0  0
   35.1240   32.2740   37.8690 H   0  0  0  0  0  0  0  0  0  0  0  0
   34.1240   34.8560   34.6670 H   0  0  0  0  0  0  0  0  0  0  0  0
   36.2470   28.1700   33.4240 C   0  0  0  0  0  0  0  0  0  0  0  0
   36.9390   28.5200   32.6480 H   0  0  0  0  0  0  0  0  0  0  0  0
   35.6050   27.3720   32.9520 H   0  0  0  0  0  0  0  0  0  0  0  0
   37.0360   27.4990   34.4940 C   0  0  0  0  0  0  0  0  0  0  0  0
   37.7390   28.1900   35.4470 C   0  0  0  0  0  0  0  0  0  0  0  0
   38.3590   27.3600   36.2850 N   0  0  0  0  0  0  0  0  0  0  0  0
   38.0430   26.1310   35.8560 C   0  0  0  0  0  0  0  0  0  0  0  0
   37.2450   26.2050   34.7760 N   0  0  0  0  0  0  0  0  0  0  0  0
   37.8030   29.2870   35.5340 H   0  0  0  0  0  0  0  0  0  0  0  0
   38.9570   27.6520   37.0940 H   0  0  0  0  0  0  0  0  0  0  0  0
   38.5080   24.8770   36.4820 C   0  0  0  0  0  0  0  0  0  0  0  0
   38.1400   24.3210   37.6240 C   0  0  0  0  0  0  0  0  0  0  0  0
   37.3780   24.8190   38.2440 H   0  0  0  0  0  0  0  0  0  0  0  0
   38.7100   23.1400   38.0120 C   0  0  0  0  0  3  0  0  0  0  0  0
   39.6580   22.5880   37.1680 C   0  0  0  0  0  3  0  0  0  0  0  0
   39.7100   23.8220   35.7860 S   0  0  0  0  0  0  0  0  0  0  0  0
  1  4  1  6  0  0  0
  1  2  1  0  0  0  0
  1  8  1  0  0  0  0
  2  5  1  1  0  0  0
  3  6  1  0  0  0  0
  3  1  1  0  0  0  0
  3  2  1  0  0  0  0
  7  3  1  0  0  0  0
  8  9  1  0  0  0  0
  9 14  1  0  0  0  0
  9 10  2  0  0  0  0
 10 15  1  0  0  0  0
 11 10  1  0  0  0  0
 12 11  2  0  0  0  0
 13  8  2  0  0  0  0
 13 12  1  0  0  0  0
 16 12  1  0  0  0  0
 17  2  1  0  0  0  0
 17 20  1  0  0  0  0
 18 17  1  0  0  0  0
 19 17  1  0  0  0  0
 20 24  1  0  0  0  0
 20 21  2  0  0  0  0
 21 25  1  0  0  0  0
 21 22  1  0  0  0  0
 22 26  1  0  0  0  0
 23 22  1  0  0  0  0
 23 27  1  0  0  0  0
 24 23  2  0  0  0  0
 27 28  2  0  0  0  0
 28 30  1  0  0  0  0
 28 29  1  0  0  0  0
 31 30  2  0  0  0  0
 32 27  1  0  0  0  0
 32 31  1  0  0  0  0
M  END
>  <minimizedAffinity>
-5.03084373

$$$$

 OpenBabel03272501173D

 32 35  0  0  1  0  0  0  0  0999 V2000
   38.7840   23.5420   34.5790 C   0  0  1  0  0  0  0  0  0  0  0  0
   37.9560   24.4500   33.8490 C   0  0  1  0  0  0  0  0  0  0  0  0
   39.4020   24.8190   33.9870 C   0  0  0  0  0  0  0  0  0  0  0  0
   39.2440   22.6150   34.1480 H   0  0  0  0  0  0  0  0  0  0  0  0
   37.2460   25.0860   34.4600 H   0  0  0  0  0  0  0  0  0  0  0  0
   39.6610   25.6510   34.6650 H   0  0  0  0  0  0  0  0  0  0  0  0
   39.9660   24.6950   33.0410 H   0  0  0  0  0  0  0  0  0  0  0  0
   38.8220   23.5440   36.0920 C   0  0  0  0  0  0  0  0  0  0  0  0
   39.8750   22.8540   36.6670 C   0  0  0  0  0  0  0  0  0  0  0  0
   39.8750   22.8450   38.0780 C   0  0  0  0  0  0  0  0  0  0  0  0
   38.9000   23.4760   38.7690 N   0  0  0  0  0  0  0  0  0  0  0  0
   37.8720   24.1500   38.1550 C   0  0  0  0  0  0  0  0  0  0  0  0
   37.8450   24.1760   36.7840 N   0  0  0  0  0  0  0  0  0  0  0  0
   40.6180   22.3730   36.0510 H   0  0  0  0  0  0  0  0  0  0  0  0
   40.6740   22.3230   38.5700 H   0  0  0  0  0  0  0  0  0  0  0  0
   37.1290   24.6310   38.7380 H   0  0  0  0  0  0  0  0  0  0  0  0
   37.3590   24.0380   32.5370 C   0  0  0  0  0  0  0  0  0  0  0  0
   36.5450   23.3090   32.6300 H   0  0  0  0  0  0  0  0  0  0  0  0
   38.1700   23.5450   31.9290 H   0  0  0  0  0  0  0  0  0  0  0  0
   36.8720   25.1930   31.7340 C   0  0  0  0  0  0  0  0  0  0  0  0
   35.6850   25.1770   31.0460 C   0  0  0  0  0  0  0  0  0  0  0  0
   35.4820   26.3290   30.4070 N   0  0  0  0  0  0  0  0  0  0  0  0
   36.5530   27.0810   30.6950 C   0  0  0  0  0  0  0  0  0  0  0  0
   37.3970   26.4040   31.4950 N   0  0  0  0  0  0  0  0  0  0  0  0
   34.9730   24.3370   31.0080 H   0  0  0  0  0  0  0  0  0  0  0  0
   34.6470   26.5540   29.8170 H   0  0  0  0  0  0  0  0  0  0  0  0
   36.7710   28.4550   30.2030 C   0  0  0  0  0  0  0  0  0  0  0  0
   37.4150   28.8700   29.1250 C   0  0  0  0  0  0  0  0  0  0  0  0
   37.8800   28.1280   28.4560 H   0  0  0  0  0  0  0  0  0  0  0  0
   37.4930   30.2100   28.8610 C   0  0  0  0  0  3  0  0  0  0  0  0
   36.8780   31.0680   29.7570 C   0  0  0  0  0  3  0  0  0  0  0  0
   36.1790   29.8870   31.0030 S   0  0  0  0  0  0  0  0  0  0  0  0
  1  4  1  6  0  0  0
  1  8  1  0  0  0  0
  2  3  1  0  0  0  0
  2  5  1  1  0  0  0
  2  1  1  0  0  0  0
  3  1  1  0  0  0  0
  3  6  1  0  0  0  0
  7  3  1  0  0  0  0
  8  9  2  0  0  0  0
  8 13  1  0  0  0  0
  9 10  1  0  0  0  0
 10 15  1  0  0  0  0
 10 11  2  0  0  0  0
 12 16  1  0  0  0  0
 12 11  1  0  0  0  0
 13 12  2  0  0  0  0
 14  9  1  0  0  0  0
 17 18  1  0  0  0  0
 17  2  1  0  0  0  0
 19 17  1  0  0  0  0
 20 17  1  0  0  0  0
 21 20  2  0  0  0  0
 22 23  1  0  0  0  0
 22 21  1  0  0  0  0
 23 24  2  0  0  0  0
 24 20  1  0  0  0  0
 25 21  1  0  0  0  0
 26 22  1  0  0  0  0
 27 23  1  0  0  0  0
 27 32  1  0  0  0  0
 28 27  2  0  0  0  0
 29 28  1  0  0  0  0
 30 28  1  0  0  0  0
 30 31  2  0  0  0  0
 31 32  1  0  0  0  0
M  END
>  <minimizedAffinity>
-4.90892839

$$$$

 OpenBabel03272501173D

 32 35  0  0  1  0  0  0  0  0999 V2000
   36.1880   29.3910   33.5820 C   0  0  1  0  0  0  0  0  0  0  0  0
   35.9040   28.2990   32.7060 C   0  0  1  0  0  0  0  0  0  0  0  0
   35.8830   29.6700   32.1020 C   0  0  0  0  0  0  0  0  0  0  0  0
   37.2200   29.7250   33.8680 H   0  0  0  0  0  0  0  0  0  0  0  0
   34.8850   27.8170   32.8180 H   0  0  0  0  0  0  0  0  0  0  0  0
   34.9040   30.1010   31.8290 H   0  0  0  0  0  0  0  0  0  0  0  0
   36.7600   29.8620   31.4510 H   0  0  0  0  0  0  0  0  0  0  0  0
   35.1310   29.9720   34.4960 C   0  0  0  0  0  0  0  0  0  0  0  0
   35.5490   31.0020   35.3200 C   0  0  0  0  0  0  0  0  0  0  0  0
   34.5550   31.5090   36.1830 C   0  0  0  0  0  0  0  0  0  0  0  0
   33.3050   30.9950   36.1690 N   0  0  0  0  0  0  0  0  0  0  0  0
   32.9340   29.9710   35.3320 C   0  0  0  0  0  0  0  0  0  0  0  0
   33.8790   29.4560   34.4810 N   0  0  0  0  0  0  0  0  0  0  0  0
   36.5650   31.3620   35.2770 H   0  0  0  0  0  0  0  0  0  0  0  0
   34.8320   32.3110   36.8420 H   0  0  0  0  0  0  0  0  0  0  0  0
   31.9410   29.5990   35.3550 H   0  0  0  0  0  0  0  0  0  0  0  0
   36.9700   27.2970   32.3790 C   0  0  0  0  0  0  0  0  0  0  0  0
   37.6850   27.1280   33.1930 H   0  0  0  0  0  0  0  0  0  0  0  0
   37.5590   27.6950   31.5050 H   0  0  0  0  0  0  0  0  0  0  0  0
   36.4170   25.9820   31.9520 C   0  0  0  0  0  0  0  0  0  0  0  0
   35.3900   25.8600   31.0520 C   0  0  0  0  0  0  0  0  0  0  0  0
   35.0820   24.5800   30.8420 N   0  0  0  0  0  0  0  0  0  0  0  0
   35.9250   23.8860   31.6180 C   0  0  0  0  0  0  0  0  0  0  0  0
   36.7350   24.7230   32.2910 N   0  0  0  0  0  0  0  0  0  0  0  0
   34.8670   26.6920   30.5520 H   0  0  0  0  0  0  0  0  0  0  0  0
   34.3320   24.2370   30.1970 H   0  0  0  0  0  0  0  0  0  0  0  0
   35.9570   22.4140   31.7160 C   0  0  0  0  0  0  0  0  0  0  0  0
   35.0700   21.5870   32.2410 C   0  0  0  0  0  0  0  0  0  0  0  0
   34.1500   21.9960   32.6880 H   0  0  0  0  0  0  0  0  0  0  0  0
   35.3100   20.2400   32.2210 C   0  0  0  0  0  3  0  0  0  0  0  0
   36.4930   19.8170   31.6390 C   0  0  0  0  0  3  0  0  0  0  0  0
   37.2600   21.4210   31.1150 S   0  0  0  0  0  0  0  0  0  0  0  0
  1  4  1  1  0  0  0
  1  8  1  0  0  0  0
  2  5  1  1  0  0  0
  2  1  1  0  0  0  0
  3  2  1  0  0  0  0
  3  1  1  0  0  0  0
  6  3  1  0  0  0  0
  7  3  1  0  0  0  0
  8  9  1  0  0  0  0
  9 10  2  0  0  0  0
 10 15  1  0  0  0  0
 11 10  1  0  0  0  0
 12 16  1  0  0  0  0
 12 11  2  0  0  0  0
 13  8  2  0  0  0  0
 13 12  1  0  0  0  0
 14  9  1  0  0  0  0
 17  2  1  0  0  0  0
 17 18  1  0  0  0  0
 19 17  1  0  0  0  0
 20 24  1  0  0  0  0
 20 17  1  0  0  0  0
 21 20  2  0  0  0  0
 22 21  1  0  0  0  0
 22 23  1  0  0  0  0
 23 27  1  0  0  0  0
 23 24  2  0  0  0  0
 25 21  1  0  0  0  0
 26 22  1  0  0  0  0
 27 28  2  0  0  0  0
 28 29  1  0  0  0  0
 30 28  1  0  0  0  0
 31 30  2  0  0  0  0
 32 31  1  0  0  0  0
 32 27  1  0  0  0  0
M  END
>  <minimizedAffinity>
-4.87400913

$$$$
