
 OpenBabel03272509423D

 35 37  0  0  1  0  0  0  0  0999 V2000
   37.0400   30.9180   49.0380 C   0  0  0  0  0  0  0  0  0  0  0  0
   36.7660   31.8140   50.0710 C   0  0  0  0  0  0  0  0  0  0  0  0
   37.3560   33.0670   50.1330 C   0  0  0  0  0  0  0  0  0  0  0  0
   38.2560   33.4520   49.1320 C   0  0  0  0  0  0  0  0  0  0  0  0
   38.5160   32.5640   48.1260 C   0  0  0  0  0  0  0  0  0  0  0  0
   37.9060   31.3220   48.1020 C   0  0  0  0  0  0  0  0  0  0  0  0
   36.0690   31.5240   50.8520 H   0  0  0  0  0  0  0  0  0  0  0  0
   37.0930   33.6930   50.9590 H   0  0  0  0  0  0  0  0  0  0  0  0
   38.6540   34.4280   49.2680 H   0  0  0  0  0  0  0  0  0  0  0  0
   39.2310   33.0050   47.4320 H   0  0  0  0  0  0  0  0  0  0  0  0
   36.4500   29.5980   48.9920 C   0  0  2  0  0  0  0  0  0  0  0  0
   36.9820   29.0600   48.1170 H   0  0  0  0  0  0  0  0  0  0  0  0
   33.5580   30.1170   46.8520 C   0  0  0  0  0  0  0  0  0  0  0  0
   32.9040   28.9010   46.8720 C   0  0  0  0  0  0  0  0  0  0  0  0
   33.4160   27.9000   47.6750 C   0  0  0  0  0  0  0  0  0  0  0  0
   34.5500   28.1430   48.4210 N   0  0  0  0  0  0  0  0  0  0  0  0
   35.1300   29.3250   48.3560 C   0  0  0  0  0  0  0  0  0  0  0  0
   34.6410   30.3170   47.5780 N   0  0  0  0  0  0  0  0  0  0  0  0
   33.1820   30.9310   46.2300 H   0  0  0  0  0  0  0  0  0  0  0  0
   32.0270   28.8210   46.2480 H   0  0  0  0  0  0  0  0  0  0  0  0
   32.9030   26.9490   47.6920 H   0  0  0  0  0  0  0  0  0  0  0  0
   36.8830   28.8340   49.9310 O   0  0  0  0  0  0  0  0  0  0  0  0
   36.4190   28.6870   50.7720 H   0  0  0  0  0  0  0  0  0  0  0  0
   38.3010   30.4720   47.0020 C   0  0  0  0  0  3  0  0  0  0  0  0
   38.9520   30.9060   45.9180 C   0  0  0  0  0  3  0  0  0  0  0  0
   39.4450   30.1230   44.7620 C   0  0  0  0  0  0  0  0  0  0  0  0
   39.2490   29.0350   44.9160 H   0  0  0  0  0  0  0  0  0  0  0  0
   40.5480   30.2920   44.6500 H   0  0  0  0  0  0  0  0  0  0  0  0
   38.6650   30.7130   43.2570 S   0  0  0  0  0  0  0  0  0  0  0  0
   36.9610   30.2050   43.2080 C   0  0  0  0  0  0  0  0  0  0  0  0
   36.0110   31.2280   43.4780 C   0  0  0  0  0  0  0  0  0  0  0  0
   36.0910   32.2760   43.7140 H   0  0  0  0  0  0  0  0  0  0  0  0
   34.6680   31.0410   43.4880 C   0  0  0  0  0  3  0  0  0  0  0  0
   34.2300   29.6960   43.1980 C   0  0  0  0  0  3  0  0  0  0  0  0
   35.8380   28.7250   42.9140 S   0  0  0  0  0  0  0  0  0  0  0  0
  1  2  1  0  0  0  0
  2  3  2  0  0  0  0
  2  7  1  0  0  0  0
  3  8  1  0  0  0  0
  4  9  1  0  0  0  0
  4  3  1  0  0  0  0
  5  4  2  0  0  0  0
  6  5  1  0  0  0  0
  6  1  2  0  0  0  0
 10  5  1  0  0  0  0
 11 12  1  6  0  0  0
 11  1  1  0  0  0  0
 11 22  1  0  0  0  0
 13 14  2  0  0  0  0
 13 18  1  0  0  0  0
 14 15  1  0  0  0  0
 15 21  1  0  0  0  0
 15 16  2  0  0  0  0
 17 16  1  0  0  0  0
 17 11  1  0  0  0  0
 18 17  2  0  0  0  0
 19 13  1  0  0  0  0
 20 14  1  0  0  0  0
 22 23  1  0  0  0  0
 24  6  1  0  0  0  0
 25 24  2  0  0  0  0
 26 27  1  0  0  0  0
 26 25  1  0  0  0  0
 28 26  1  0  0  0  0
 29 26  1  0  0  0  0
 30 29  1  0  0  0  0
 30 31  2  0  0  0  0
 31 33  1  0  0  0  0
 31 32  1  0  0  0  0
 34 33  2  0  0  0  0
 35 34  1  0  0  0  0
 35 30  1  0  0  0  0
M  END
>  <minimizedAffinity>
-5.30637503

>  <minimizedRMSD>
0.936819673

$$$$
