
 OpenBabel03272503033D

 25 27  0  0  0  0  0  0  0  0999 V2000
   37.7330   23.1440   33.2410 F   0  0  0  0  0  0  0  0  0  0  0  0
   36.9580   23.9780   32.5190 C   0  0  0  0  0  0  0  0  0  0  0  0
   36.0290   23.4610   31.6630 C   0  0  0  0  0  0  0  0  0  0  0  0
   35.2750   24.3540   30.9570 C   0  0  0  0  0  0  0  0  0  0  0  0
   35.4070   25.7160   31.0690 C   0  0  0  0  0  0  0  0  0  0  0  0
   36.3460   26.2150   31.9350 C   0  0  0  0  0  0  0  0  0  0  0  0
   37.1330   25.3310   32.6700 C   0  0  0  0  0  0  0  0  0  0  0  0
   34.5320   23.9780   30.2720 H   0  0  0  0  0  0  0  0  0  0  0  0
   34.7700   26.3580   30.4750 H   0  0  0  0  0  0  0  0  0  0  0  0
   36.4380   27.2880   32.0120 H   0  0  0  0  0  0  0  0  0  0  0  0
   34.8840   19.8850   32.1820 C   0  0  0  0  0  0  0  0  0  0  0  0
   34.9620   21.2870   32.3010 C   0  0  0  0  0  0  0  0  0  0  0  0
   35.9120   22.0120   31.5680 C   0  0  0  0  0  0  0  0  0  0  0  0
   36.7050   21.2710   30.7750 N   0  0  0  0  0  0  0  0  0  0  0  0
   36.6310   19.9410   30.6600 C   0  0  0  0  0  0  0  0  0  0  0  0
   35.7280   19.2630   31.3610 N   0  0  0  0  0  0  0  0  0  0  0  0
   34.1450   19.3510   32.7570 H   0  0  0  0  0  0  0  0  0  0  0  0
   34.2980   21.8300   32.9560 H   0  0  0  0  0  0  0  0  0  0  0  0
   37.2960   19.3970   30.0050 H   0  0  0  0  0  0  0  0  0  0  0  0
   38.1460   25.9350   33.6040 C   0  0  0  0  0  0  0  0  0  0  0  0
   37.9890   26.6340   34.7050 C   0  0  0  0  0  0  0  0  0  0  0  0
   37.0220   26.9130   35.1590 H   0  0  0  0  0  0  0  0  0  0  0  0
   39.0570   27.0840   35.3990 C   0  0  0  0  0  3  0  0  0  0  0  0
   40.2900   26.7780   34.9010 C   0  0  0  0  0  3  0  0  0  0  0  0
   39.8460   25.7980   33.3650 S   0  0  0  0  0  0  0  0  0  0  0  0
  2  7  1  0  0  0  0
  2  1  1  0  0  0  0
  3  2  2  0  0  0  0
  4  5  2  0  0  0  0
  4  3  1  0  0  0  0
  5  6  1  0  0  0  0
  6 10  1  0  0  0  0
  6  7  2  0  0  0  0
  7 20  1  0  0  0  0
  8  4  1  0  0  0  0
  9  5  1  0  0  0  0
 11 12  1  0  0  0  0
 11 17  1  0  0  0  0
 12 18  1  0  0  0  0
 13  3  1  0  0  0  0
 13 12  2  0  0  0  0
 14 13  1  0  0  0  0
 15 14  2  0  0  0  0
 15 16  1  0  0  0  0
 16 11  2  0  0  0  0
 19 15  1  0  0  0  0
 20 21  2  0  0  0  0
 21 22  1  0  0  0  0
 21 23  1  0  0  0  0
 24 23  2  0  0  0  0
 25 20  1  0  0  0  0
 25 24  1  0  0  0  0
M  END
>  <minimizedAffinity>
-5.07172728

$$$$

 OpenBabel03272503033D

 25 27  0  0  0  0  0  0  0  0999 V2000
   35.4040   28.4840   34.5150 F   0  0  0  0  0  0  0  0  0  0  0  0
   35.7130   29.3630   33.5410 C   0  0  0  0  0  0  0  0  0  0  0  0
   36.2210   28.9080   32.3590 C   0  0  0  0  0  0  0  0  0  0  0  0
   36.5160   29.8450   31.4110 C   0  0  0  0  0  0  0  0  0  0  0  0
   36.3270   31.1940   31.5910 C   0  0  0  0  0  0  0  0  0  0  0  0
   35.8150   31.6300   32.7860 C   0  0  0  0  0  0  0  0  0  0  0  0
   35.5040   30.7000   33.7740 C   0  0  0  0  0  0  0  0  0  0  0  0
   36.9190   29.5180   30.4660 H   0  0  0  0  0  0  0  0  0  0  0  0
   36.5850   31.8740   30.7890 H   0  0  0  0  0  0  0  0  0  0  0  0
   35.6720   32.6930   32.9120 H   0  0  0  0  0  0  0  0  0  0  0  0
   37.6210   25.3940   32.6100 C   0  0  0  0  0  0  0  0  0  0  0  0
   37.4750   26.7840   32.7930 C   0  0  0  0  0  0  0  0  0  0  0  0
   36.4080   27.4710   32.1980 C   0  0  0  0  0  0  0  0  0  0  0  0
   35.5740   26.7090   31.4710 N   0  0  0  0  0  0  0  0  0  0  0  0
   35.7110   25.3900   31.2980 C   0  0  0  0  0  0  0  0  0  0  0  0
   36.7270   24.7480   31.8640 N   0  0  0  0  0  0  0  0  0  0  0  0
   38.4510   24.8890   33.0780 H   0  0  0  0  0  0  0  0  0  0  0  0
   38.1780   27.3460   33.3890 H   0  0  0  0  0  0  0  0  0  0  0  0
   35.0090   24.8270   30.7010 H   0  0  0  0  0  0  0  0  0  0  0  0
   34.9450   31.2370   35.0650 C   0  0  0  0  0  0  0  0  0  0  0  0
   35.5140   31.9300   36.0240 C   0  0  0  0  0  0  0  0  0  0  0  0
   36.5690   32.2560   36.0450 H   0  0  0  0  0  0  0  0  0  0  0  0
   34.8120   32.3150   37.1110 C   0  0  0  0  0  3  0  0  0  0  0  0
   33.4980   31.9500   37.1590 C   0  0  0  0  0  3  0  0  0  0  0  0
   33.3070   31.0130   35.5460 S   0  0  0  0  0  0  0  0  0  0  0  0
  2  7  1  0  0  0  0
  2  1  1  0  0  0  0
  3  2  2  0  0  0  0
  4  5  2  0  0  0  0
  4  3  1  0  0  0  0
  5  6  1  0  0  0  0
  6 10  1  0  0  0  0
  6  7  2  0  0  0  0
  7 20  1  0  0  0  0
  8  4  1  0  0  0  0
  9  5  1  0  0  0  0
 11 12  1  0  0  0  0
 11 17  1  0  0  0  0
 12 18  1  0  0  0  0
 13  3  1  0  0  0  0
 13 12  2  0  0  0  0
 14 13  1  0  0  0  0
 15 14  2  0  0  0  0
 15 16  1  0  0  0  0
 16 11  2  0  0  0  0
 19 15  1  0  0  0  0
 20 25  1  0  0  0  0
 20 21  2  0  0  0  0
 21 22  1  0  0  0  0
 21 23  1  0  0  0  0
 23 24  2  0  0  0  0
 25 24  1  0  0  0  0
M  END
>  <minimizedAffinity>
-4.96197176

$$$$

 OpenBabel03272503033D

 25 27  0  0  0  0  0  0  0  0999 V2000
   35.4940   28.2420   34.4550 F   0  0  0  0  0  0  0  0  0  0  0  0
   35.7480   29.0670   33.4190 C   0  0  0  0  0  0  0  0  0  0  0  0
   36.1900   28.5460   32.2380 C   0  0  0  0  0  0  0  0  0  0  0  0
   36.4320   29.4300   31.2250 C   0  0  0  0  0  0  0  0  0  0  0  0
   36.2530   30.7870   31.3420 C   0  0  0  0  0  0  0  0  0  0  0  0
   35.8070   31.2890   32.5370 C   0  0  0  0  0  0  0  0  0  0  0  0
   35.5520   30.4150   33.5910 C   0  0  0  0  0  0  0  0  0  0  0  0
   36.7830   29.0510   30.2790 H   0  0  0  0  0  0  0  0  0  0  0  0
   36.4670   31.4210   30.4910 H   0  0  0  0  0  0  0  0  0  0  0  0
   35.6720   32.3580   32.6120 H   0  0  0  0  0  0  0  0  0  0  0  0
   35.7640   24.9050   31.2730 C   0  0  0  0  0  0  0  0  0  0  0  0
   35.5600   26.2980   31.3310 C   0  0  0  0  0  0  0  0  0  0  0  0
   36.3690   27.1030   32.1460 C   0  0  0  0  0  0  0  0  0  0  0  0
   37.3170   26.4450   32.8340 N   0  0  0  0  0  0  0  0  0  0  0  0
   37.5120   25.1230   32.7780 C   0  0  0  0  0  0  0  0  0  0  0  0
   36.7400   24.3690   32.0050 N   0  0  0  0  0  0  0  0  0  0  0  0
   35.1280   24.3090   30.6390 H   0  0  0  0  0  0  0  0  0  0  0  0
   34.7800   26.7730   30.7550 H   0  0  0  0  0  0  0  0  0  0  0  0
   38.2920   24.6470   33.3550 H   0  0  0  0  0  0  0  0  0  0  0  0
   35.0640   31.0230   34.8780 C   0  0  0  0  0  0  0  0  0  0  0  0
   35.7060   31.6890   35.8100 C   0  0  0  0  0  0  0  0  0  0  0  0
   36.7840   31.9300   35.8030 H   0  0  0  0  0  0  0  0  0  0  0  0
   35.0600   32.1520   36.9010 C   0  0  0  0  0  3  0  0  0  0  0  0
   33.7230   31.8950   36.9820 C   0  0  0  0  0  3  0  0  0  0  0  0
   33.4240   30.9410   35.3960 S   0  0  0  0  0  0  0  0  0  0  0  0
  2  7  1  0  0  0  0
  2  1  1  0  0  0  0
  3  2  2  0  0  0  0
  4  5  2  0  0  0  0
  4  3  1  0  0  0  0
  5  6  1  0  0  0  0
  6 10  1  0  0  0  0
  6  7  2  0  0  0  0
  7 20  1  0  0  0  0
  8  4  1  0  0  0  0
  9  5  1  0  0  0  0
 11 12  2  0  0  0  0
 11 16  1  0  0  0  0
 12 13  1  0  0  0  0
 13  3  1  0  0  0  0
 13 14  2  0  0  0  0
 15 14  1  0  0  0  0
 15 19  1  0  0  0  0
 16 15  2  0  0  0  0
 17 11  1  0  0  0  0
 18 12  1  0  0  0  0
 20 25  1  0  0  0  0
 20 21  2  0  0  0  0
 21 23  1  0  0  0  0
 22 21  1  0  0  0  0
 23 24  2  0  0  0  0
 25 24  1  0  0  0  0
M  END
>  <minimizedAffinity>
-4.94567871

$$$$

 OpenBabel03272503033D

 25 27  0  0  0  0  0  0  0  0999 V2000
   37.3020   28.4690   35.7110 F   0  0  0  0  0  0  0  0  0  0  0  0
   36.7780   28.3650   34.4740 C   0  0  0  0  0  0  0  0  0  0  0  0
   37.2230   27.3870   33.6330 C   0  0  0  0  0  0  0  0  0  0  0  0
   36.6570   27.3320   32.3920 C   0  0  0  0  0  0  0  0  0  0  0  0
   35.6810   28.1990   31.9640 C   0  0  0  0  0  0  0  0  0  0  0  0
   35.2470   29.1750   32.8240 C   0  0  0  0  0  0  0  0  0  0  0  0
   35.8050   29.2580   34.0970 C   0  0  0  0  0  0  0  0  0  0  0  0
   36.9870   26.5710   31.7040 H   0  0  0  0  0  0  0  0  0  0  0  0
   35.2810   28.0900   30.9640 H   0  0  0  0  0  0  0  0  0  0  0  0
   34.4800   29.8480   32.4720 H   0  0  0  0  0  0  0  0  0  0  0  0
   40.5850   25.9250   34.5980 C   0  0  0  0  0  0  0  0  0  0  0  0
   39.6160   26.8300   34.1230 C   0  0  0  0  0  0  0  0  0  0  0  0
   38.2580   26.4820   34.1180 C   0  0  0  0  0  0  0  0  0  0  0  0
   37.9840   25.2550   34.5900 N   0  0  0  0  0  0  0  0  0  0  0  0
   38.9030   24.3950   35.0420 C   0  0  0  0  0  0  0  0  0  0  0  0
   40.1870   24.7340   35.0420 N   0  0  0  0  0  0  0  0  0  0  0  0
   41.6230   26.2170   34.5910 H   0  0  0  0  0  0  0  0  0  0  0  0
   39.8950   27.8060   33.7530 H   0  0  0  0  0  0  0  0  0  0  0  0
   38.6240   23.4180   35.4120 H   0  0  0  0  0  0  0  0  0  0  0  0
   35.2900   30.3490   34.9970 C   0  0  0  0  0  0  0  0  0  0  0  0
   35.9300   31.2440   35.7140 C   0  0  0  0  0  0  0  0  0  0  0  0
   37.0270   31.3520   35.7790 H   0  0  0  0  0  0  0  0  0  0  0  0
   35.2560   32.1440   36.4610 C   0  0  0  0  0  3  0  0  0  0  0  0
   33.8940   32.0750   36.4320 C   0  0  0  0  0  3  0  0  0  0  0  0
   33.6130   30.6350   35.2650 S   0  0  0  0  0  0  0  0  0  0  0  0
  2  1  1  0  0  0  0
  3 13  1  0  0  0  0
  3  2  2  0  0  0  0
  4  3  1  0  0  0  0
  5  4  2  0  0  0  0
  5  6  1  0  0  0  0
  6  7  2  0  0  0  0
  7  2  1  0  0  0  0
  7 20  1  0  0  0  0
  8  4  1  0  0  0  0
  9  5  1  0  0  0  0
 10  6  1  0  0  0  0
 11 16  1  0  0  0  0
 12 11  2  0  0  0  0
 13 12  1  0  0  0  0
 13 14  2  0  0  0  0
 14 15  1  0  0  0  0
 15 16  2  0  0  0  0
 15 19  1  0  0  0  0
 17 11  1  0  0  0  0
 18 12  1  0  0  0  0
 20 25  1  0  0  0  0
 20 21  2  0  0  0  0
 21 22  1  0  0  0  0
 21 23  1  0  0  0  0
 24 23  2  0  0  0  0
 25 24  1  0  0  0  0
M  END
>  <minimizedAffinity>
-4.89892673

$$$$

 OpenBabel03272503033D

 25 27  0  0  0  0  0  0  0  0999 V2000
   37.5900   23.3100   33.4510 F   0  0  0  0  0  0  0  0  0  0  0  0
   36.8430   24.0510   32.6070 C   0  0  0  0  0  0  0  0  0  0  0  0
   36.9410   25.4120   32.6410 C   0  0  0  0  0  0  0  0  0  0  0  0
   36.1590   26.1090   31.7650 C   0  0  0  0  0  0  0  0  0  0  0  0
   35.3010   25.5140   30.8720 C   0  0  0  0  0  0  0  0  0  0  0  0
   35.2190   24.1460   30.8540 C   0  0  0  0  0  0  0  0  0  0  0  0
   36.0020   23.4040   31.7360 C   0  0  0  0  0  0  0  0  0  0  0  0
   36.2120   27.1860   31.7650 H   0  0  0  0  0  0  0  0  0  0  0  0
   34.7160   26.1370   30.2080 H   0  0  0  0  0  0  0  0  0  0  0  0
   34.5400   23.6930   30.1470 H   0  0  0  0  0  0  0  0  0  0  0  0
   40.0470   26.8980   34.2250 C   0  0  0  0  0  0  0  0  0  0  0  0
   39.1890   26.3200   33.2690 C   0  0  0  0  0  0  0  0  0  0  0  0
   37.8610   26.0130   33.5980 C   0  0  0  0  0  0  0  0  0  0  0  0
   37.5030   26.3110   34.8580 N   0  0  0  0  0  0  0  0  0  0  0  0
   38.3170   26.8610   35.7650 C   0  0  0  0  0  0  0  0  0  0  0  0
   39.5730   27.1470   35.4450 N   0  0  0  0  0  0  0  0  0  0  0  0
   41.0640   27.1250   33.9470 H   0  0  0  0  0  0  0  0  0  0  0  0
   39.5320   26.1010   32.2690 H   0  0  0  0  0  0  0  0  0  0  0  0
   37.9740   27.0800   36.7670 H   0  0  0  0  0  0  0  0  0  0  0  0
   35.8700   21.9070   31.6710 C   0  0  0  0  0  0  0  0  0  0  0  0
   34.9470   21.1050   32.1510 C   0  0  0  0  0  0  0  0  0  0  0  0
   34.0540   21.4180   32.7200 H   0  0  0  0  0  0  0  0  0  0  0  0
   35.0290   19.7690   31.9720 C   0  0  0  0  0  3  0  0  0  0  0  0
   36.1060   19.3040   31.2760 C   0  0  0  0  0  3  0  0  0  0  0  0
   37.0170   20.8940   30.8810 S   0  0  0  0  0  0  0  0  0  0  0  0
  2  3  1  0  0  0  0
  2  1  1  0  0  0  0
  3 13  1  0  0  0  0
  4  8  1  0  0  0  0
  4  3  2  0  0  0  0
  5  4  1  0  0  0  0
  6  5  2  0  0  0  0
  6  7  1  0  0  0  0
  7  2  2  0  0  0  0
  9  5  1  0  0  0  0
 10  6  1  0  0  0  0
 11 16  1  0  0  0  0
 12 13  1  0  0  0  0
 12 11  2  0  0  0  0
 13 14  2  0  0  0  0
 14 15  1  0  0  0  0
 15 19  1  0  0  0  0
 16 15  2  0  0  0  0
 17 11  1  0  0  0  0
 18 12  1  0  0  0  0
 20  7  1  0  0  0  0
 20 21  2  0  0  0  0
 21 22  1  0  0  0  0
 23 21  1  0  0  0  0
 24 23  2  0  0  0  0
 25 24  1  0  0  0  0
 25 20  1  0  0  0  0
M  END
>  <minimizedAffinity>
-4.85403013

$$$$

 OpenBabel03272503033D

 25 27  0  0  0  0  0  0  0  0999 V2000
   39.5800   25.4350   32.5000 F   0  0  0  0  0  0  0  0  0  0  0  0
   39.0380   26.0950   33.5440 C   0  0  0  0  0  0  0  0  0  0  0  0
   39.8510   26.5910   34.5220 C   0  0  0  0  0  0  0  0  0  0  0  0
   39.2450   27.2480   35.5550 C   0  0  0  0  0  0  0  0  0  0  0  0
   37.8870   27.4260   35.6490 C   0  0  0  0  0  0  0  0  0  0  0  0
   37.0880   26.9200   34.6570 C   0  0  0  0  0  0  0  0  0  0  0  0
   37.6740   26.2440   33.5890 C   0  0  0  0  0  0  0  0  0  0  0  0
   39.8590   27.6520   36.3440 H   0  0  0  0  0  0  0  0  0  0  0  0
   37.4830   27.9590   36.5010 H   0  0  0  0  0  0  0  0  0  0  0  0
   36.0220   27.0680   34.7460 H   0  0  0  0  0  0  0  0  0  0  0  0
   43.4890   27.0180   33.5480 C   0  0  0  0  0  0  0  0  0  0  0  0
   42.1040   27.2530   33.6510 C   0  0  0  0  0  0  0  0  0  0  0  0
   41.2880   26.3870   34.3920 C   0  0  0  0  0  0  0  0  0  0  0  0
   41.9280   25.3570   34.9690 N   0  0  0  0  0  0  0  0  0  0  0  0
   43.2430   25.1330   34.8730 C   0  0  0  0  0  0  0  0  0  0  0  0
   44.0080   25.9590   34.1670 N   0  0  0  0  0  0  0  0  0  0  0  0
   44.0950   27.6990   32.9720 H   0  0  0  0  0  0  0  0  0  0  0  0
   41.6430   28.0990   33.1640 H   0  0  0  0  0  0  0  0  0  0  0  0
   43.7050   24.2860   35.3600 H   0  0  0  0  0  0  0  0  0  0  0  0
   36.7480   25.7100   32.5290 C   0  0  0  0  0  0  0  0  0  0  0  0
   36.4910   24.4780   32.1550 C   0  0  0  0  0  0  0  0  0  0  0  0
   36.9420   23.5670   32.5860 H   0  0  0  0  0  0  0  0  0  0  0  0
   35.6090   24.2240   31.1650 C   0  0  0  0  0  3  0  0  0  0  0  0
   35.0080   25.3010   30.5820 C   0  0  0  0  0  3  0  0  0  0  0  0
   35.7750   26.7230   31.5320 S   0  0  0  0  0  0  0  0  0  0  0  0
  1  2  1  0  0  0  0
  2  7  2  0  0  0  0
  2  3  1  0  0  0  0
  3  4  2  0  0  0  0
  4  5  1  0  0  0  0
  4  8  1  0  0  0  0
  5  9  1  0  0  0  0
  6 10  1  0  0  0  0
  6  5  2  0  0  0  0
  7  6  1  0  0  0  0
 11 12  2  0  0  0  0
 11 16  1  0  0  0  0
 12 13  1  0  0  0  0
 13  3  1  0  0  0  0
 13 14  2  0  0  0  0
 15 14  1  0  0  0  0
 15 19  1  0  0  0  0
 16 15  2  0  0  0  0
 17 11  1  0  0  0  0
 18 12  1  0  0  0  0
 20  7  1  0  0  0  0
 21 20  2  0  0  0  0
 21 22  1  0  0  0  0
 23 21  1  0  0  0  0
 24 23  2  0  0  0  0
 24 25  1  0  0  0  0
 25 20  1  0  0  0  0
M  END
>  <minimizedAffinity>
-4.8254528

$$$$

 OpenBabel03272503033D

 25 27  0  0  0  0  0  0  0  0999 V2000
   40.3010   24.7220   34.4290 F   0  0  0  0  0  0  0  0  0  0  0  0
   39.6680   24.2870   35.5370 C   0  0  0  0  0  0  0  0  0  0  0  0
   38.4080   24.7340   35.8120 C   0  0  0  0  0  0  0  0  0  0  0  0
   37.8180   24.2610   36.9490 C   0  0  0  0  0  0  0  0  0  0  0  0
   38.4240   23.3750   37.8060 C   0  0  0  0  0  0  0  0  0  0  0  0
   39.6890   22.9380   37.5120 C   0  0  0  0  0  0  0  0  0  0  0  0
   40.3200   23.4020   36.3600 C   0  0  0  0  0  0  0  0  0  0  0  0
   36.8230   24.5940   37.1950 H   0  0  0  0  0  0  0  0  0  0  0  0
   37.8890   23.0450   38.6880 H   0  0  0  0  0  0  0  0  0  0  0  0
   40.1520   22.2420   38.1960 H   0  0  0  0  0  0  0  0  0  0  0  0
   36.8860   27.8660   34.3130 C   0  0  0  0  0  0  0  0  0  0  0  0
   37.4830   26.9910   35.2420 C   0  0  0  0  0  0  0  0  0  0  0  0
   37.7930   25.6720   34.8820 C   0  0  0  0  0  0  0  0  0  0  0  0
   37.4780   25.3390   33.6190 N   0  0  0  0  0  0  0  0  0  0  0  0
   36.9120   26.1680   32.7360 C   0  0  0  0  0  0  0  0  0  0  0  0
   36.6220   27.4160   33.0870 N   0  0  0  0  0  0  0  0  0  0  0  0
   36.6580   28.8750   34.6150 H   0  0  0  0  0  0  0  0  0  0  0  0
   37.7140   27.3150   36.2460 H   0  0  0  0  0  0  0  0  0  0  0  0
   36.6810   25.8440   31.7310 H   0  0  0  0  0  0  0  0  0  0  0  0
   41.7080   22.8880   36.0880 C   0  0  0  0  0  0  0  0  0  0  0  0
   42.8760   23.2950   36.5290 C   0  0  0  0  0  0  0  0  0  0  0  0
   43.0450   24.1400   37.2200 H   0  0  0  0  0  0  0  0  0  0  0  0
   44.0140   22.6770   36.1500 C   0  0  0  0  0  3  0  0  0  0  0  0
   43.8880   21.6200   35.2950 C   0  0  0  0  0  3  0  0  0  0  0  0
   42.0300   21.5500   35.0530 S   0  0  0  0  0  0  0  0  0  0  0  0
  1  2  1  0  0  0  0
  2  3  2  0  0  0  0
  2  7  1  0  0  0  0
  3  4  1  0  0  0  0
  4  8  1  0  0  0  0
  4  5  2  0  0  0  0
  5  9  1  0  0  0  0
  6  5  1  0  0  0  0
  6 10  1  0  0  0  0
  7  6  2  0  0  0  0
 11 17  1  0  0  0  0
 11 12  1  0  0  0  0
 12 18  1  0  0  0  0
 13 12  2  0  0  0  0
 13  3  1  0  0  0  0
 14 13  1  0  0  0  0
 15 16  1  0  0  0  0
 15 14  2  0  0  0  0
 16 11  2  0  0  0  0
 19 15  1  0  0  0  0
 20  7  1  0  0  0  0
 20 21  2  0  0  0  0
 21 22  1  0  0  0  0
 23 21  1  0  0  0  0
 24 23  2  0  0  0  0
 25 24  1  0  0  0  0
 25 20  1  0  0  0  0
M  END
>  <minimizedAffinity>
-4.81820488

$$$$

 OpenBabel03272503033D

 25 27  0  0  0  0  0  0  0  0999 V2000
   38.4120   23.3130   34.0670 F   0  0  0  0  0  0  0  0  0  0  0  0
   38.9240   24.5600   34.0870 C   0  0  0  0  0  0  0  0  0  0  0  0
   40.0020   24.8330   34.8780 C   0  0  0  0  0  0  0  0  0  0  0  0
   40.4750   26.1130   34.8580 C   0  0  0  0  0  0  0  0  0  0  0  0
   39.9270   27.1140   34.0930 C   0  0  0  0  0  0  0  0  0  0  0  0
   38.8450   26.8190   33.3050 C   0  0  0  0  0  0  0  0  0  0  0  0
   38.3360   25.5230   33.3030 C   0  0  0  0  0  0  0  0  0  0  0  0
   41.3260   26.3620   35.4720 H   0  0  0  0  0  0  0  0  0  0  0  0
   40.3610   28.1050   34.1320 H   0  0  0  0  0  0  0  0  0  0  0  0
   38.4250   27.6170   32.7110 H   0  0  0  0  0  0  0  0  0  0  0  0
   42.2950   22.1010   36.1620 C   0  0  0  0  0  0  0  0  0  0  0  0
   41.7900   23.1480   35.3660 C   0  0  0  0  0  0  0  0  0  0  0  0
   40.5620   23.7490   35.6750 C   0  0  0  0  0  0  0  0  0  0  0  0
   39.9420   23.2510   36.7580 N   0  0  0  0  0  0  0  0  0  0  0  0
   40.4200   22.2580   37.5140 C   0  0  0  0  0  0  0  0  0  0  0  0
   41.5840   21.6940   37.2120 N   0  0  0  0  0  0  0  0  0  0  0  0
   43.2420   21.6550   35.9020 H   0  0  0  0  0  0  0  0  0  0  0  0
   42.3340   23.5080   34.5050 H   0  0  0  0  0  0  0  0  0  0  0  0
   39.8770   21.8970   38.3760 H   0  0  0  0  0  0  0  0  0  0  0  0
   37.1480   25.2570   32.4190 C   0  0  0  0  0  0  0  0  0  0  0  0
   36.6150   24.1280   32.0140 C   0  0  0  0  0  0  0  0  0  0  0  0
   36.9750   23.1160   32.2720 H   0  0  0  0  0  0  0  0  0  0  0  0
   35.5300   24.1220   31.2100 C   0  0  0  0  0  3  0  0  0  0  0  0
   35.0240   25.3360   30.8470 C   0  0  0  0  0  3  0  0  0  0  0  0
   36.1940   26.5110   31.7230 S   0  0  0  0  0  0  0  0  0  0  0  0
  1  2  1  0  0  0  0
  2  3  1  0  0  0  0
  3 13  1  0  0  0  0
  4  3  2  0  0  0  0
  4  8  1  0  0  0  0
  5  9  1  0  0  0  0
  5  4  1  0  0  0  0
  6  5  2  0  0  0  0
  7  6  1  0  0  0  0
  7  2  2  0  0  0  0
 10  6  1  0  0  0  0
 11 16  1  0  0  0  0
 12 13  1  0  0  0  0
 12 11  2  0  0  0  0
 13 14  2  0  0  0  0
 14 15  1  0  0  0  0
 15 19  1  0  0  0  0
 16 15  2  0  0  0  0
 17 11  1  0  0  0  0
 18 12  1  0  0  0  0
 20  7  1  0  0  0  0
 21 22  1  0  0  0  0
 21 20  2  0  0  0  0
 23 21  1  0  0  0  0
 24 23  2  0  0  0  0
 24 25  1  0  0  0  0
 25 20  1  0  0  0  0
M  END
>  <minimizedAffinity>
-4.69903803

$$$$

 OpenBabel03272503033D

 25 27  0  0  0  0  0  0  0  0999 V2000
   35.1170   28.4410   34.2940 F   0  0  0  0  0  0  0  0  0  0  0  0
   35.5490   29.2310   33.2910 C   0  0  0  0  0  0  0  0  0  0  0  0
   35.4480   30.5870   33.4100 C   0  0  0  0  0  0  0  0  0  0  0  0
   35.9000   31.3350   32.3620 C   0  0  0  0  0  0  0  0  0  0  0  0
   36.4400   30.7960   31.2200 C   0  0  0  0  0  0  0  0  0  0  0  0
   36.5320   29.4320   31.1200 C   0  0  0  0  0  0  0  0  0  0  0  0
   36.0790   28.6390   32.1710 C   0  0  0  0  0  0  0  0  0  0  0  0
   35.8340   32.4100   32.4250 H   0  0  0  0  0  0  0  0  0  0  0  0
   36.7770   31.4580   30.4320 H   0  0  0  0  0  0  0  0  0  0  0  0
   36.9590   29.0230   30.2160 H   0  0  0  0  0  0  0  0  0  0  0  0
   35.0680   32.0720   36.8770 C   0  0  0  0  0  0  0  0  0  0  0  0
   35.6650   31.5570   35.7100 C   0  0  0  0  0  0  0  0  0  0  0  0
   34.8730   31.1290   34.6350 C   0  0  0  0  0  0  0  0  0  0  0  0
   33.5480   31.2540   34.8190 N   0  0  0  0  0  0  0  0  0  0  0  0
   32.9810   31.7430   35.9270 C   0  0  0  0  0  0  0  0  0  0  0  0
   33.7400   32.1450   36.9400 N   0  0  0  0  0  0  0  0  0  0  0  0
   35.6990   32.3940   37.6900 H   0  0  0  0  0  0  0  0  0  0  0  0
   36.7370   31.4790   35.6180 H   0  0  0  0  0  0  0  0  0  0  0  0
   31.9070   31.8210   36.0200 H   0  0  0  0  0  0  0  0  0  0  0  0
   36.2060   27.1480   32.0060 C   0  0  0  0  0  0  0  0  0  0  0  0
   35.5770   26.3160   31.2080 C   0  0  0  0  0  0  0  0  0  0  0  0
   34.7970   26.5910   30.4770 H   0  0  0  0  0  0  0  0  0  0  0  0
   35.8540   24.9950   31.2260 C   0  0  0  0  0  3  0  0  0  0  0  0
   36.8100   24.5770   32.1050 C   0  0  0  0  0  3  0  0  0  0  0  0
   37.3050   26.1900   32.9220 S   0  0  0  0  0  0  0  0  0  0  0  0
  2  3  1  0  0  0  0
  2  1  1  0  0  0  0
  3 13  1  0  0  0  0
  4  8  1  0  0  0  0
  4  3  2  0  0  0  0
  5  4  1  0  0  0  0
  6  5  2  0  0  0  0
  6  7  1  0  0  0  0
  7  2  2  0  0  0  0
  9  5  1  0  0  0  0
 10  6  1  0  0  0  0
 11 16  1  0  0  0  0
 11 17  1  0  0  0  0
 12 11  2  0  0  0  0
 13 14  2  0  0  0  0
 13 12  1  0  0  0  0
 14 15  1  0  0  0  0
 15 19  1  0  0  0  0
 15 16  2  0  0  0  0
 18 12  1  0  0  0  0
 20  7  1  0  0  0  0
 20 25  1  0  0  0  0
 21 23  1  0  0  0  0
 21 20  2  0  0  0  0
 22 21  1  0  0  0  0
 23 24  2  0  0  0  0
 24 25  1  0  0  0  0
M  END
>  <minimizedAffinity>
-4.64835167

$$$$
