
 OpenBabel03272510273D

 42 46  0  0  1  0  0  0  0  0999 V2000
   36.0330   30.2630   46.9770 C   0  0  0  0  0  0  0  0  0  0  0  0
   37.0630   30.4120   47.8740 C   0  0  0  0  0  0  0  0  0  0  0  0
   38.3300   30.8560   47.4610 C   0  0  0  0  0  0  0  0  0  0  0  0
   38.4650   31.1290   46.0990 C   0  0  0  0  0  0  0  0  0  0  0  0
   39.5930   31.5750   45.4520 N   0  0  0  0  0  0  0  0  0  0  0  0
   39.2550   31.7000   44.1590 C   0  0  0  0  0  0  0  0  0  0  0  0
   37.9930   31.3540   43.9960 N   0  0  0  0  0  0  0  0  0  0  0  0
   37.4650   30.9930   45.1770 C   0  0  0  0  0  0  0  0  0  0  0  0
   36.2200   30.5480   45.6350 C   0  0  0  0  0  0  0  0  0  0  0  0
   35.0500   29.9200   47.2900 H   0  0  0  0  0  0  0  0  0  0  0  0
   39.1610   30.9830   48.1440 H   0  0  0  0  0  0  0  0  0  0  0  0
   40.5250   31.7740   45.8880 H   0  0  0  0  0  0  0  0  0  0  0  0
   35.4210   30.4370   44.9100 H   0  0  0  0  0  0  0  0  0  0  0  0
   37.3080   29.9990   51.6100 C   0  0  0  0  0  0  0  0  0  0  0  0
   37.6950   30.3580   50.3210 C   0  0  0  0  0  0  0  0  0  0  0  0
   36.8420   30.1120   49.2770 C   0  0  0  0  0  0  0  0  0  0  0  0
   35.6360   29.5140   49.5810 N   0  0  0  0  0  0  0  0  0  0  0  0
   35.2700   29.1700   50.8320 C   0  0  0  0  0  0  0  0  0  0  0  0
   36.0960   29.4120   51.8240 N   0  0  0  0  0  0  0  0  0  0  0  0
   38.0100   30.2100   52.4110 H   0  0  0  0  0  0  0  0  0  0  0  0
   38.6350   30.8260   50.0660 H   0  0  0  0  0  0  0  0  0  0  0  0
   34.2980   28.7060   50.9570 H   0  0  0  0  0  0  0  0  0  0  0  0
   40.1570   32.1360   43.1890 O   0  0  0  0  0  0  0  0  0  0  0  0
   39.2920   30.5550   41.7500 N   0  0  0  0  0  0  0  0  0  0  0  0
   39.7600   31.9280   41.8430 C   0  0  1  0  0  0  0  0  0  0  0  0
   38.7030   32.8530   41.4640 C   0  0  0  0  0  0  0  0  0  0  0  0
   38.3600   32.6300   40.1210 O   0  0  0  0  0  0  0  0  0  0  0  0
   38.0150   31.3450   39.8160 C   0  0  0  0  0  0  0  0  0  0  0  0
   39.0130   30.3480   40.3380 C   0  0  1  0  0  0  0  0  0  0  0  0
   38.4430   30.3080   42.2280 H   0  0  0  0  0  0  0  0  0  0  0  0
   40.6110   31.9920   41.1440 H   0  0  0  0  0  0  0  0  0  0  0  0
   37.7680   32.9480   41.9470 H   0  0  0  0  0  0  0  0  0  0  0  0
   39.1590   33.8910   41.4450 H   0  0  0  0  0  0  0  0  0  0  0  0
   37.0360   31.0720   40.2570 H   0  0  0  0  0  0  0  0  0  0  0  0
   38.0000   31.2660   38.7100 H   0  0  0  0  0  0  0  0  0  0  0  0
   38.5690   29.3450   40.1550 H   0  0  0  0  0  0  0  0  0  0  0  0
   40.2770   30.5440   39.6010 C   0  0  0  0  0  0  0  0  0  0  0  0
   40.5410   31.2470   38.5030 C   0  0  0  0  0  0  0  0  0  0  0  0
   39.7200   31.7920   38.0210 H   0  0  0  0  0  0  0  0  0  0  0  0
   41.8000   31.3070   37.9630 C   0  0  0  0  0  3  0  0  0  0  0  0
   42.7780   30.5440   38.6970 C   0  0  0  0  0  3  0  0  0  0  0  0
   41.8520   29.8190   40.0660 S   0  0  0  0  0  0  0  0  0  0  0  0
  1 10  1  0  0  0  0
  1  2  1  0  0  0  0
  2 16  1  0  0  0  0
  3  2  2  0  0  0  0
  3 11  1  0  0  0  0
  4  3  1  0  0  0  0
  5 12  1  0  0  0  0
  5  4  1  0  0  0  0
  6  5  1  0  0  0  0
  7  6  2  0  0  0  0
  7  8  1  0  0  0  0
  8  9  1  0  0  0  0
  8  4  2  0  0  0  0
  9  1  2  0  0  0  0
 13  9  1  0  0  0  0
 14 19  1  0  0  0  0
 14 20  1  0  0  0  0
 15 14  2  0  0  0  0
 16 17  2  0  0  0  0
 16 15  1  0  0  0  0
 17 18  1  0  0  0  0
 18 22  1  0  0  0  0
 18 19  2  0  0  0  0
 21 15  1  0  0  0  0
 23  6  1  0  0  0  0
 24 25  1  0  0  0  0
 24 30  1  0  0  0  0
 25 31  1  6  0  0  0
 25 23  1  0  0  0  0
 26 25  1  0  0  0  0
 26 32  1  0  0  0  0
 27 26  1  0  0  0  0
 28 27  1  0  0  0  0
 28 34  1  0  0  0  0
 28 29  1  0  0  0  0
 29 36  1  6  0  0  0
 29 24  1  0  0  0  0
 33 26  1  0  0  0  0
 35 28  1  0  0  0  0
 37 42  1  0  0  0  0
 37 29  1  0  0  0  0
 38 37  2  0  0  0  0
 39 38  1  0  0  0  0
 40 38  1  0  0  0  0
 40 41  2  0  0  0  0
 41 42  1  0  0  0  0
M  END
>  <minimizedAffinity>
-5.58614111

>  <minimizedRMSD>
1.38064003

$$$$
