
     RDKit          3D

 31 33  0  0  0  0  0  0  0  0999 V2000
   35.1696   28.6713   50.0278 C   0  0  0  0  0  0  0  0  0  0  0  0
   36.2375   29.6008   49.8505 C   0  0  0  0  0  0  0  0  0  0  0  0
   36.1548   30.5020   48.8057 C   0  0  0  0  0  0  0  0  0  0  0  0
   35.0599   30.4587   47.9978 N   0  0  0  0  0  0  0  0  0  0  0  0
   34.0610   29.5535   48.2023 C   0  0  0  0  0  0  0  0  0  0  0  0
   34.1080   28.6727   49.1972 N   0  0  0  0  0  0  0  0  0  0  0  0
   33.0242   29.7095   47.2210 N   0  0  0  0  0  0  0  0  0  0  0  0
   37.2221   31.4587   48.5999 C   0  0  0  0  0  0  0  0  0  0  0  0
   37.1965   32.5086   49.5121 C   0  0  0  0  0  0  0  0  0  0  0  0
   38.1584   33.4995   49.4346 C   0  0  0  0  0  0  0  0  0  0  0  0
   39.1338   33.4671   48.4789 C   0  0  0  0  0  0  0  0  0  0  0  0
   39.1322   32.4192   47.5943 C   0  0  0  0  0  0  0  0  0  0  0  0
   38.1959   31.4396   47.6570 N   0  0  0  0  0  0  0  0  0  0  0  0
   37.3856   29.5503   50.8020 C   0  0  0  0  0  0  0  0  0  0  0  0
   38.5847   29.8085   50.1456 F   0  0  0  0  0  0  0  0  0  0  0  0
   37.1902   30.5035   51.7603 F   0  0  0  0  0  0  0  0  0  0  0  0
   37.5145   28.3275   51.4269 F   0  0  0  0  0  0  0  0  0  0  0  0
   35.1902   27.9488   50.8298 H   0  0  0  0  0  0  0  0  0  0  0  0
   33.2349   29.3105   46.2662 H   0  0  0  0  0  0  0  0  0  0  0  0
   32.2745   30.2105   47.7310 H   0  0  0  0  0  0  0  0  0  0  0  0
   36.4995   32.6818   50.3220 H   0  0  0  0  0  0  0  0  0  0  0  0
   38.2157   34.3473   50.0971 H   0  0  0  0  0  0  0  0  0  0  0  0
   39.9460   34.1375   48.2727 H   0  0  0  0  0  0  0  0  0  0  0  0
   40.0424   32.0981   46.4566 C   0  0  0  0  0  0  0  0  0  0  0  0
   40.9228   31.1249   46.6255 C   0  0  0  0  0  0  0  0  0  0  0  0
   41.1526   30.4527   47.4708 H   0  0  0  0  0  0  0  0  0  0  0  0
   41.8359   30.6690   45.7405 C   0  0  0  0  0  0  0  0  0  0  0  0
   41.7114   31.4407   44.5017 C   0  0  0  0  0  0  0  0  0  0  0  0
   40.2867   32.6824   44.8668 S   0  0  0  0  0  0  0  0  0  0  0  0
   42.6235   30.1169   45.2813 H   0  0  0  0  0  0  0  0  0  0  0  0
   42.0206   31.7286   43.3547 H   0  0  0  0  0  0  0  0  0  0  0  0
  2  1  2  0
  2 14  1  0
  3  2  1  0
  4  5  1  0
  4  3  2  0
  5  6  2  0
  6  1  1  0
  7  5  1  0
  8  3  1  0
  8  9  2  0
 10  9  1  0
 11 10  2  0
 12 13  2  0
 12 11  1  0
 13  8  1  0
 14 17  1  0
 14 16  1  0
 15 14  1  0
  1 18  1  0
  7 19  1  0
  7 20  1  0
  9 21  1  0
 10 22  1  0
 11 23  1  0
 24 25  2  0
 25 26  1  0
 25 27  1  0
 27 28  2  0
 28 29  1  0
 29 24  1  0
 27 30  1  0
 28 31  1  0
 12 24  1  0
M  ISO  5  18  14  21  14  22  14  23  14  26  15
M  END
>  <DihAtoms>  (1) 
12,11,23,24

>  <DihDeg>  (1) 
-179.99929514486138

$$$$
