
 OpenBabel03272508273D

 35 38  0  0  1  0  0  0  0  0999 V2000
   33.6260   28.7840   47.1640 C   0  0  2  0  0  0  0  0  0  0  0  0
   34.3580   28.0100   48.2480 C   0  0  2  0  0  0  0  0  0  0  0  0
   33.4270   27.8000   49.2310 O   0  0  0  0  0  0  0  0  0  0  0  0
   32.1710   27.8640   48.7190 C   0  0  0  0  0  0  0  0  0  0  0  0
   32.2770   28.0800   47.2390 C   0  0  1  0  0  0  0  0  0  0  0  0
   33.4780   29.8400   47.3980 H   0  0  0  0  0  0  0  0  0  0  0  0
   34.6870   27.0470   47.8140 H   0  0  0  0  0  0  0  0  0  0  0  0
   31.6790   28.7750   49.1650 H   0  0  0  0  0  0  0  0  0  0  0  0
   31.5160   27.0080   48.9790 H   0  0  0  0  0  0  0  0  0  0  0  0
   32.3270   27.1090   46.6730 H   0  0  0  0  0  0  0  0  0  0  0  0
   35.4120   30.2620   48.9420 C   0  0  1  0  0  0  0  0  0  0  0  0
   35.5010   28.8300   48.7410 C   0  0  1  0  0  0  0  0  0  0  0  0
   35.5790   29.3280   50.1480 C   0  0  0  0  0  0  0  0  0  0  0  0
   34.4820   30.8600   49.0740 H   0  0  0  0  0  0  0  0  0  0  0  0
   36.4970   28.4780   48.3300 H   0  0  0  0  0  0  0  0  0  0  0  0
   36.5260   29.3380   50.6860 H   0  0  0  0  0  0  0  0  0  0  0  0
   34.6940   29.1060   50.7800 H   0  0  0  0  0  0  0  0  0  0  0  0
   36.6010   31.1630   48.7430 C   0  0  0  0  0  0  0  0  0  0  0  0
   36.8930   32.0980   49.7380 C   0  0  0  0  0  0  0  0  0  0  0  0
   37.9720   32.9170   49.5070 C   0  0  0  0  0  0  0  0  0  0  0  0
   38.7050   32.8040   48.3520 N   0  0  0  0  0  0  0  0  0  0  0  0
   38.3900   31.8800   47.4060 C   0  0  0  0  0  0  0  0  0  0  0  0
   37.3320   31.0530   47.5960 N   0  0  0  0  0  0  0  0  0  0  0  0
   36.3220   32.1980   50.6460 H   0  0  0  0  0  0  0  0  0  0  0  0
   38.2780   33.6810   50.2350 H   0  0  0  0  0  0  0  0  0  0  0  0
   38.9530   31.7620   46.4770 H   0  0  0  0  0  0  0  0  0  0  0  0
   34.1940   28.6350   45.9110 O   0  0  0  0  0  0  0  0  0  0  0  0
   34.7700   27.8040   45.9070 H   0  0  0  0  0  0  0  0  0  0  0  0
   31.2630   28.8630   46.7220 O   0  0  0  0  0  0  0  0  0  0  0  0
   29.8670   28.0100   46.8580 C   0  0  0  0  0  0  0  0  0  0  0  0
   29.1110   29.3350   47.0190 C   0  0  0  0  0  0  0  0  0  0  0  0
   29.1980   30.4460   47.0670 H   0  0  0  0  0  0  0  0  0  0  0  0
   27.7680   29.3150   47.1870 C   0  0  0  0  0  3  0  0  0  0  0  0
   27.0970   28.0340   47.2080 C   0  0  0  0  0  3  0  0  0  0  0  0
   28.5630   26.8350   46.9650 S   0  0  0  0  0  0  0  0  0  0  0  0
  1  5  1  0  0  0  0
  1  6  1  1  0  0  0
  1  2  1  0  0  0  0
  2  7  1  6  0  0  0
  2 12  1  0  0  0  0
  2  3  1  0  0  0  0
  4  9  1  0  0  0  0
  4  8  1  0  0  0  0
  4  3  1  0  0  0  0
  5 10  1  6  0  0  0
  5  4  1  0  0  0  0
 11 14  1  6  0  0  0
 11 13  1  0  0  0  0
 12 15  1  6  0  0  0
 12 11  1  0  0  0  0
 12 13  1  0  0  0  0
 13 16  1  0  0  0  0
 13 17  1  0  0  0  0
 18 11  1  0  0  0  0
 18 19  1  0  0  0  0
 19 24  1  0  0  0  0
 20 19  2  0  0  0  0
 20 25  1  0  0  0  0
 21 20  1  0  0  0  0
 22 23  1  0  0  0  0
 22 21  2  0  0  0  0
 23 18  2  0  0  0  0
 26 22  1  0  0  0  0
 27  1  1  0  0  0  0
 28 27  1  0  0  0  0
 29 30  1  0  0  0  0
 29  5  1  0  0  0  0
 30 35  1  0  0  0  0
 30 31  2  0  0  0  0
 31 32  1  0  0  0  0
 31 33  1  0  0  0  0
 33 34  2  0  0  0  0
 35 34  1  0  0  0  0
M  END
>  <minimizedAffinity>
-5.31749487

>  <minimizedRMSD>
2.14074183

$$$$
