REMARK  Name = 
REMARK  3 active torsions:
REMARK  status: ('A' for Active; 'I' for Inactive)
REMARK    1  A    between atoms: C_1  and  C_9
REMARK    2  A    between atoms: C_5  and  C_13
REMARK    3  A    between atoms: C_11  and  C_21
REMARK                            x       y       z     vdW  Elec       q    Type
REMARK                         _______ _______ _______ _____ _____    ______ ____
ROOT
ATOM      1  C   UNL     1      37.718  30.370  51.134  0.00  0.00    +0.000 A 
ATOM      2  C   UNL     1      38.086  30.944  49.913  0.00  0.00    +0.000 A 
ATOM      3  C   UNL     1      37.457  30.549  48.748  0.00  0.00    +0.000 A 
ATOM      4  N   UNL     1      36.491  29.601  48.857  0.00  0.00    +0.000 NA
ATOM      5  C   UNL     1      36.150  29.061  50.036  0.00  0.00    +0.000 A 
ATOM      6  N   UNL     1      36.766  29.449  51.169  0.00  0.00    +0.000 NA
ATOM      7  H   UNL     1      38.188  30.656  52.058  0.00  0.00    +0.000 HD
ATOM      8  H   UNL     1      38.842  31.682  49.852  0.00  0.00    +0.000 HD
ENDROOT
BRANCH   3   9
ATOM      9  C   UNL     1      37.766  31.065  47.422  0.00  0.00    +0.000 A 
ATOM     10  C   UNL     1      37.019  30.730  46.321  0.00  0.00    +0.000 A 
ATOM     11  C   UNL     1      37.310  31.208  45.052  0.00  0.00    +0.000 A 
ATOM     12  N   UNL     1      38.367  32.038  44.880  0.00  0.00    +0.000 NA
ATOM     13  C   UNL     1      39.082  32.352  45.968  0.00  0.00    +0.000 A 
ATOM     14  N   UNL     1      38.811  31.897  47.198  0.00  0.00    +0.000 NA
ATOM     15  H   UNL     1      36.166  30.067  46.425  0.00  0.00    +0.000 HD
ATOM     16  H   UNL     1      36.719  30.941  44.186  0.00  0.00    +0.000 HD
BRANCH  13  17
ATOM     17  C   UNL     1      40.252  33.262  45.820  0.00  0.00    +0.000 C 
ATOM     18  F   UNL     1      40.368  34.001  46.975  0.00  0.00    +0.000 F 
ATOM     19  F   UNL     1      41.418  32.523  45.558  0.00  0.00    +0.000 F 
ATOM     20  F   UNL     1      40.085  34.138  44.792  0.00  0.00    +0.000 F 
ENDBRANCH  13  17
ENDBRANCH   3   9
BRANCH   5  21
ATOM     21  C   UNL     1      35.066  28.035  49.955  0.00  0.00    +0.000 A 
ATOM     22  C   UNL     1      34.771  26.995  49.196  0.00  0.00    +0.000 A 
ATOM     23  H   UNL     1      35.510  26.839  48.424  0.00  0.00    +0.000 HD
ATOM     24  C   UNL     1      33.636  26.279  49.457  0.00  0.00    +0.000 A 
ATOM     25  C   UNL     1      32.848  26.706  50.533  0.00  0.00    +0.000 A 
ATOM     26  S   UNL     1      33.838  28.202  51.149  0.00  0.00    +0.000 S 
ENDBRANCH   5  21
TORSDOF 3
