
     RDKit          3D

 24 25  0  0  0  0  0  0  0  0999 V2000
   37.3548   30.2226   51.4173 C   0  0  0  0  0  0  0  0  0  0  0  0
   38.1255   30.7130   50.3530 C   0  0  0  0  0  0  0  0  0  0  0  0
   37.7089   30.3946   49.0529 C   0  0  0  0  0  0  0  0  0  0  0  0
   36.5785   29.6268   48.9086 N   0  0  0  0  0  0  0  0  0  0  0  0
   35.8805   29.1853   49.9639 C   0  0  0  0  0  0  0  0  0  0  0  0
   36.2726   29.4853   51.1998 N   0  0  0  0  0  0  0  0  0  0  0  0
   34.7020   28.3815   49.6968 C   0  0  0  0  0  0  0  0  0  0  0  0
   34.4689   28.0240   48.4736 C   0  0  0  0  0  0  0  0  0  0  0  0
   33.3274   27.2038   47.9691 C   0  0  0  0  0  0  0  0  0  0  0  0
   37.7493   30.5164   52.3771 H   0  0  0  0  0  0  0  0  0  0  0  0
   39.0074   31.3093   50.3708 H   0  0  0  0  0  0  0  0  0  0  0  0
   38.1877   30.6917   48.1259 H   0  0  0  0  0  0  0  0  0  0  0  0
   33.9871   28.0471   50.4374 H   0  0  0  0  0  0  0  0  0  0  0  0
   35.1111   28.2962   47.6418 H   0  0  0  0  0  0  0  0  0  0  0  0
   32.6995   26.9523   48.8474 H   0  0  0  0  0  0  0  0  0  0  0  0
   32.6960   27.8547   47.3255 H   0  0  0  0  0  0  0  0  0  0  0  0
   33.8048   26.0020   47.3350 C   0  0  0  0  0  0  0  0  0  0  0  0
   33.2584   25.0483   46.5078 C   0  0  0  0  0  0  0  0  0  0  0  0
   32.2216   25.2374   46.2711 H   0  0  0  0  0  0  0  0  0  0  0  0
   33.9881   23.9948   46.0607 C   0  0  0  0  0  0  0  0  0  0  0  0
   35.3154   23.9031   46.4640 C   0  0  0  0  0  0  0  0  0  0  0  0
   35.4982   25.4468   47.5574 S   0  0  0  0  0  0  0  0  0  0  0  0
   33.5624   23.2437   45.4109 H   0  0  0  0  0  0  0  0  0  0  0  0
   36.0111   23.0660   46.1494 H   0  0  0  0  0  0  0  0  0  0  0  0
  2  1  2  0
  3  2  1  0
  4  3  2  0
  4  5  1  0
  5  6  2  0
  6  1  1  0
  7  5  1  0
  8  7  2  0
  9  8  1  0
  1 10  1  0
  2 11  1  0
  3 12  1  0
  7 13  1  0
  8 14  1  0
  9 15  1  0
  9 16  1  0
 17 18  2  0
 18 19  1  0
 18 20  1  0
 20 21  2  0
 21 22  1  0
 22 17  1  0
 20 23  1  0
 21 24  1  0
  9 17  1  0
M  ISO  6  10  14  11  14  12  14  15   8  16   8  19  15
M  END
>  <DihAtoms>  (1) 
7,8,16,17

>  <DihDeg>  (1) 
-90.35735993206369

$$$$
