
 OpenBabel03272507403D

 31 33  0  0  0  0  0  0  0  0999 V2000
   38.2160   25.6820   33.4280 C   0  0  0  0  0  0  0  0  0  0  0  0
   38.3380   25.1880   34.7130 C   0  0  0  0  0  0  0  0  0  0  0  0
   38.1870   26.0250   35.8050 C   0  0  0  0  0  0  0  0  0  0  0  0
   37.9120   27.3720   35.6050 C   0  0  0  0  0  0  0  0  0  0  0  0
   37.7910   27.8610   34.3190 C   0  0  0  0  0  0  0  0  0  0  0  0
   37.9460   27.0060   33.2560 C   0  0  0  0  0  0  0  0  0  0  0  0
   38.2680   25.7080   36.8310 H   0  0  0  0  0  0  0  0  0  0  0  0
   37.7900   28.0420   36.4570 H   0  0  0  0  0  0  0  0  0  0  0  0
   37.5770   28.9120   34.2150 H   0  0  0  0  0  0  0  0  0  0  0  0
   37.8140   27.5460   31.9080 C   0  0  0  0  0  0  0  0  0  0  0  0
   38.7890   27.8460   31.0060 C   0  0  0  0  0  0  0  0  0  0  0  0
   39.8430   27.6750   31.2870 H   0  0  0  0  0  0  0  0  0  0  0  0
   38.4720   28.3420   29.7980 C   0  0  0  0  0  3  0  0  0  0  0  0
   37.0970   28.5160   29.5550 C   0  0  0  0  0  3  0  0  0  0  0  0
   36.2930   27.9360   31.1410 S   0  0  0  0  0  0  0  0  0  0  0  0
   38.5360   23.9940   31.5170 N   0  0  0  0  0  0  0  0  0  0  0  0
   38.3830   24.7470   32.3660 C   0  0  0  0  0  0  0  0  0  0  0  0
   38.6070   23.8800   35.0600 O   0  0  0  0  0  0  0  0  0  0  0  0
   39.7740   23.4450   35.6070 C   0  0  0  0  0  0  0  0  0  0  0  0
   39.5690   22.7620   36.8080 C   0  0  0  0  0  0  0  0  0  0  0  0
   40.6340   22.2470   37.5070 C   0  0  0  0  0  0  0  0  0  0  0  0
   41.8840   22.4320   36.9810 N   0  0  0  0  0  0  0  0  0  0  0  0
   42.0670   23.0930   35.8220 C   0  0  0  0  0  0  0  0  0  0  0  0
   41.0350   23.5850   35.1570 N   0  0  0  0  0  0  0  0  0  0  0  0
   40.5690   21.7070   38.4420 H   0  0  0  0  0  0  0  0  0  0  0  0
   43.0000   23.2900   35.3260 H   0  0  0  0  0  0  0  0  0  0  0  0
   37.7890   23.4260   38.3510 C   0  0  0  0  0  0  0  0  0  0  0  0
   38.2440   24.4880   38.9400 O   0  0  0  0  0  0  0  0  0  0  0  0
   38.3350   22.5010   37.4100 N   0  0  0  0  0  0  0  0  0  0  0  0
   37.0570   23.8690   39.0150 H   0  0  0  0  0  0  0  0  0  0  0  0
   37.5380   21.8670   37.5140 H   0  0  0  0  0  0  0  0  0  0  0  0
  1  2  1  0  0  0  0
  2 18  1  0  0  0  0
  2  3  2  0  0  0  0
  3  7  1  0  0  0  0
  4  3  1  0  0  0  0
  4  8  1  0  0  0  0
  5  4  2  0  0  0  0
  6  1  2  0  0  0  0
  6  5  1  0  0  0  0
  9  5  1  0  0  0  0
 10  6  1  0  0  0  0
 11 12  1  0  0  0  0
 11 10  2  0  0  0  0
 13 11  1  0  0  0  0
 14 13  2  0  0  0  0
 14 15  1  0  0  0  0
 15 10  1  0  0  0  0
 16 17  3  0  0  0  0
 17  1  1  0  0  0  0
 18 19  1  0  0  0  0
 19 20  1  0  0  0  0
 20 29  1  0  0  0  0
 20 21  2  0  0  0  0
 21 25  1  0  0  0  0
 22 21  1  0  0  0  0
 23 22  2  0  0  0  0
 24 19  2  0  0  0  0
 24 23  1  0  0  0  0
 26 23  1  0  0  0  0
 27 28  2  0  0  0  0
 27 30  1  0  0  0  0
 29 31  1  0  0  0  0
 29 27  1  0  0  0  0
M  END
>  <minimizedAffinity>
-5.17279863

$$$$

 OpenBabel03272507403D

 31 33  0  0  0  0  0  0  0  0999 V2000
   37.7020   25.6550   33.4790 C   0  0  0  0  0  0  0  0  0  0  0  0
   37.9450   24.3770   33.9440 C   0  0  0  0  0  0  0  0  0  0  0  0
   37.8430   23.2880   33.0940 C   0  0  0  0  0  0  0  0  0  0  0  0
   37.4920   23.4860   31.7640 C   0  0  0  0  0  0  0  0  0  0  0  0
   37.2510   24.7660   31.3040 C   0  0  0  0  0  0  0  0  0  0  0  0
   37.3600   25.8250   32.1720 C   0  0  0  0  0  0  0  0  0  0  0  0
   38.0180   22.2680   33.3890 H   0  0  0  0  0  0  0  0  0  0  0  0
   37.4090   22.6380   31.0850 H   0  0  0  0  0  0  0  0  0  0  0  0
   36.9820   24.8680   30.2650 H   0  0  0  0  0  0  0  0  0  0  0  0
   37.1000   27.1660   31.6620 C   0  0  0  0  0  0  0  0  0  0  0  0
   37.9090   27.9720   30.9180 C   0  0  0  0  0  0  0  0  0  0  0  0
   38.9100   27.6040   30.6370 H   0  0  0  0  0  0  0  0  0  0  0  0
   37.4920   29.1910   30.5360 C   0  0  0  0  0  3  0  0  0  0  0  0
   36.1960   29.5480   30.9540 C   0  0  0  0  0  3  0  0  0  0  0  0
   35.6170   28.0540   31.9170 S   0  0  0  0  0  0  0  0  0  0  0  0
   37.9620   27.5580   35.1870 N   0  0  0  0  0  0  0  0  0  0  0  0
   37.8360   26.7140   34.4230 C   0  0  0  0  0  0  0  0  0  0  0  0
   38.3000   24.0330   35.2320 O   0  0  0  0  0  0  0  0  0  0  0  0
   39.5610   23.7200   35.6330 C   0  0  0  0  0  0  0  0  0  0  0  0
   39.5670   22.9910   36.8250 C   0  0  0  0  0  0  0  0  0  0  0  0
   40.7530   22.5830   37.3850 C   0  0  0  0  0  0  0  0  0  0  0  0
   41.9100   22.9190   36.7330 N   0  0  0  0  0  0  0  0  0  0  0  0
   41.8880   23.6220   35.5850 C   0  0  0  0  0  0  0  0  0  0  0  0
   40.7410   24.0090   35.0530 N   0  0  0  0  0  0  0  0  0  0  0  0
   40.8530   22.0180   38.3030 H   0  0  0  0  0  0  0  0  0  0  0  0
   42.7320   23.9320   34.9970 H   0  0  0  0  0  0  0  0  0  0  0  0
   37.7870   23.4940   38.4280 C   0  0  0  0  0  0  0  0  0  0  0  0
   38.0630   24.6840   38.8620 O   0  0  0  0  0  0  0  0  0  0  0  0
   38.4440   22.5800   37.5490 N   0  0  0  0  0  0  0  0  0  0  0  0
   37.0240   23.8700   39.0980 H   0  0  0  0  0  0  0  0  0  0  0  0
   37.7920   21.8270   37.7830 H   0  0  0  0  0  0  0  0  0  0  0  0
  1  2  1  0  0  0  0
  1 17  1  0  0  0  0
  2 18  1  0  0  0  0
  3  7  1  0  0  0  0
  3  2  2  0  0  0  0
  4  3  1  0  0  0  0
  5  4  2  0  0  0  0
  5  6  1  0  0  0  0
  6  1  2  0  0  0  0
  8  4  1  0  0  0  0
  9  5  1  0  0  0  0
 10 15  1  0  0  0  0
 10  6  1  0  0  0  0
 11 10  2  0  0  0  0
 12 11  1  0  0  0  0
 13 11  1  0  0  0  0
 13 14  2  0  0  0  0
 14 15  1  0  0  0  0
 17 16  3  0  0  0  0
 18 19  1  0  0  0  0
 19 20  1  0  0  0  0
 20 21  2  0  0  0  0
 20 29  1  0  0  0  0
 21 25  1  0  0  0  0
 22 21  1  0  0  0  0
 23 22  2  0  0  0  0
 24 23  1  0  0  0  0
 24 19  2  0  0  0  0
 26 23  1  0  0  0  0
 27 28  2  0  0  0  0
 27 30  1  0  0  0  0
 29 31  1  0  0  0  0
 29 27  1  0  0  0  0
M  END
>  <minimizedAffinity>
-5.09711123

$$$$

 OpenBabel03272507403D

 31 33  0  0  0  0  0  0  0  0999 V2000
   37.8300   25.4530   34.0100 C   0  0  0  0  0  0  0  0  0  0  0  0
   37.1280   26.5720   33.6030 C   0  0  0  0  0  0  0  0  0  0  0  0
   37.1150   27.7150   34.3840 C   0  0  0  0  0  0  0  0  0  0  0  0
   37.8120   27.7350   35.5850 C   0  0  0  0  0  0  0  0  0  0  0  0
   38.5120   26.6140   35.9880 C   0  0  0  0  0  0  0  0  0  0  0  0
   38.5060   25.4950   35.1920 C   0  0  0  0  0  0  0  0  0  0  0  0
   36.5910   28.6210   34.1270 H   0  0  0  0  0  0  0  0  0  0  0  0
   37.8100   28.6290   36.2080 H   0  0  0  0  0  0  0  0  0  0  0  0
   39.0360   26.6780   36.9270 H   0  0  0  0  0  0  0  0  0  0  0  0
   39.2520   24.3250   35.6390 C   0  0  0  0  0  0  0  0  0  0  0  0
   40.5530   23.9980   35.4050 C   0  0  0  0  0  0  0  0  0  0  0  0
   41.1710   24.6810   34.7980 H   0  0  0  0  0  0  0  0  0  0  0  0
   41.0730   22.8640   35.9060 C   0  0  0  0  0  3  0  0  0  0  0  0
   40.1880   22.0740   36.6650 C   0  0  0  0  0  3  0  0  0  0  0  0
   38.5870   23.0390   36.6180 S   0  0  0  0  0  0  0  0  0  0  0  0
   37.7630   23.4050   32.4590 N   0  0  0  0  0  0  0  0  0  0  0  0
   37.7910   24.3240   33.1420 C   0  0  0  0  0  0  0  0  0  0  0  0
   36.3950   26.6940   32.4410 O   0  0  0  0  0  0  0  0  0  0  0  0
   36.3870   27.7940   31.6400 C   0  0  0  0  0  0  0  0  0  0  0  0
   37.2230   27.6430   30.5310 C   0  0  0  0  0  0  0  0  0  0  0  0
   37.3430   28.6520   29.6070 C   0  0  0  0  0  0  0  0  0  0  0  0
   36.6170   29.7940   29.8200 N   0  0  0  0  0  0  0  0  0  0  0  0
   35.8150   29.9250   30.8940 C   0  0  0  0  0  0  0  0  0  0  0  0
   35.7070   28.9470   31.7780 N   0  0  0  0  0  0  0  0  0  0  0  0
   37.9650   28.6230   28.7230 H   0  0  0  0  0  0  0  0  0  0  0  0
   35.2060   30.7730   31.1510 H   0  0  0  0  0  0  0  0  0  0  0  0
   39.3570   26.4460   30.5880 C   0  0  0  0  0  0  0  0  0  0  0  0
   40.1990   27.2990   31.0850 O   0  0  0  0  0  0  0  0  0  0  0  0
   37.9800   26.5120   30.2150 N   0  0  0  0  0  0  0  0  0  0  0  0
   40.3370   26.0110   30.7380 H   0  0  0  0  0  0  0  0  0  0  0  0
   38.0170   25.5890   29.7720 H   0  0  0  0  0  0  0  0  0  0  0  0
  1  6  1  0  0  0  0
  2  1  2  0  0  0  0
  2  3  1  0  0  0  0
  3  4  2  0  0  0  0
  4  5  1  0  0  0  0
  4  8  1  0  0  0  0
  5  9  1  0  0  0  0
  6 10  1  0  0  0  0
  6  5  2  0  0  0  0
  7  3  1  0  0  0  0
 10 15  1  0  0  0  0
 11 10  2  0  0  0  0
 11 13  1  0  0  0  0
 12 11  1  0  0  0  0
 13 14  2  0  0  0  0
 15 14  1  0  0  0  0
 16 17  3  0  0  0  0
 17  1  1  0  0  0  0
 18  2  1  0  0  0  0
 19 24  1  0  0  0  0
 19 18  1  0  0  0  0
 20 19  2  0  0  0  0
 21 22  2  0  0  0  0
 21 20  1  0  0  0  0
 22 23  1  0  0  0  0
 23 26  1  0  0  0  0
 23 24  2  0  0  0  0
 25 21  1  0  0  0  0
 27 30  1  0  0  0  0
 27 28  2  0  0  0  0
 29 20  1  0  0  0  0
 29 27  1  0  0  0  0
 31 29  1  0  0  0  0
M  END
>  <minimizedAffinity>
-4.99994421

$$$$

 OpenBabel03272507403D

 31 33  0  0  0  0  0  0  0  0999 V2000
   36.2450   29.1650   32.9200 C   0  0  0  0  0  0  0  0  0  0  0  0
   36.6790   28.7560   31.6730 C   0  0  0  0  0  0  0  0  0  0  0  0
   36.5010   29.5690   30.5660 C   0  0  0  0  0  0  0  0  0  0  0  0
   35.8810   30.8040   30.7130 C   0  0  0  0  0  0  0  0  0  0  0  0
   35.4500   31.2080   31.9620 C   0  0  0  0  0  0  0  0  0  0  0  0
   35.6410   30.3790   33.0410 C   0  0  0  0  0  0  0  0  0  0  0  0
   36.8140   29.3140   29.5680 H   0  0  0  0  0  0  0  0  0  0  0  0
   35.7360   31.4530   29.8500 H   0  0  0  0  0  0  0  0  0  0  0  0
   34.9760   32.1730   32.0240 H   0  0  0  0  0  0  0  0  0  0  0  0
   35.1760   30.8290   34.3480 C   0  0  0  0  0  0  0  0  0  0  0  0
   35.8660   31.4830   35.3230 C   0  0  0  0  0  0  0  0  0  0  0  0
   36.9270   31.7300   35.1490 H   0  0  0  0  0  0  0  0  0  0  0  0
   35.2630   31.8200   36.4760 C   0  0  0  0  0  3  0  0  0  0  0  0
   33.9080   31.4530   36.5820 C   0  0  0  0  0  3  0  0  0  0  0  0
   33.5530   30.6050   34.9550 S   0  0  0  0  0  0  0  0  0  0  0  0
   36.6710   27.5330   34.8600 N   0  0  0  0  0  0  0  0  0  0  0  0
   36.4750   28.2670   34.0020 C   0  0  0  0  0  0  0  0  0  0  0  0
   37.3070   27.5630   31.3810 O   0  0  0  0  0  0  0  0  0  0  0  0
   36.6750   26.3670   31.2380 C   0  0  0  0  0  0  0  0  0  0  0  0
   37.5680   25.2940   31.2870 C   0  0  0  0  0  0  0  0  0  0  0  0
   37.1120   24.0030   31.1600 C   0  0  0  0  0  0  0  0  0  0  0  0
   35.7650   23.8220   30.9880 N   0  0  0  0  0  0  0  0  0  0  0  0
   34.9170   24.8670   30.9430 C   0  0  0  0  0  0  0  0  0  0  0  0
   35.3660   26.1050   31.0650 N   0  0  0  0  0  0  0  0  0  0  0  0
   37.7280   23.1150   31.1850 H   0  0  0  0  0  0  0  0  0  0  0  0
   33.8510   24.8340   30.8150 H   0  0  0  0  0  0  0  0  0  0  0  0
   39.5000   25.1590   32.7820 C   0  0  0  0  0  0  0  0  0  0  0  0
   38.9900   25.0130   33.9660 O   0  0  0  0  0  0  0  0  0  0  0  0
   38.9490   25.3750   31.4830 N   0  0  0  0  0  0  0  0  0  0  0  0
   40.2610   25.0100   33.5380 H   0  0  0  0  0  0  0  0  0  0  0  0
   39.8730   25.5510   31.0780 H   0  0  0  0  0  0  0  0  0  0  0  0
  1  6  1  0  0  0  0
  1 17  1  0  0  0  0
  2  1  2  0  0  0  0
  3  4  2  0  0  0  0
  3  2  1  0  0  0  0
  4  5  1  0  0  0  0
  5  9  1  0  0  0  0
  5  6  2  0  0  0  0
  6 10  1  0  0  0  0
  7  3  1  0  0  0  0
  8  4  1  0  0  0  0
 10 15  1  0  0  0  0
 10 11  2  0  0  0  0
 11 13  1  0  0  0  0
 12 11  1  0  0  0  0
 13 14  2  0  0  0  0
 15 14  1  0  0  0  0
 17 16  3  0  0  0  0
 18  2  1  0  0  0  0
 19 20  1  0  0  0  0
 19 18  1  0  0  0  0
 20 29  1  0  0  0  0
 21 25  1  0  0  0  0
 21 20  2  0  0  0  0
 22 21  1  0  0  0  0
 23 22  2  0  0  0  0
 23 24  1  0  0  0  0
 24 19  2  0  0  0  0
 26 23  1  0  0  0  0
 27 30  1  0  0  0  0
 27 28  2  0  0  0  0
 29 27  1  0  0  0  0
 31 29  1  0  0  0  0
M  END
>  <minimizedAffinity>
-4.88954592

$$$$

 OpenBabel03272507403D

 31 33  0  0  0  0  0  0  0  0999 V2000
   37.2440   23.0580   32.8360 C   0  0  0  0  0  0  0  0  0  0  0  0
   37.3190   24.4360   32.7610 C   0  0  0  0  0  0  0  0  0  0  0  0
   36.4760   25.1400   31.9180 C   0  0  0  0  0  0  0  0  0  0  0  0
   35.5500   24.4540   31.1420 C   0  0  0  0  0  0  0  0  0  0  0  0
   35.4790   23.0770   31.2210 C   0  0  0  0  0  0  0  0  0  0  0  0
   36.3290   22.4060   32.0660 C   0  0  0  0  0  0  0  0  0  0  0  0
   36.4790   26.2120   31.8110 H   0  0  0  0  0  0  0  0  0  0  0  0
   34.8810   24.9980   30.4750 H   0  0  0  0  0  0  0  0  0  0  0  0
   34.7450   22.5910   30.5990 H   0  0  0  0  0  0  0  0  0  0  0  0
   36.2340   20.9530   32.1310 C   0  0  0  0  0  0  0  0  0  0  0  0
   35.4180   20.1810   32.9010 C   0  0  0  0  0  0  0  0  0  0  0  0
   34.7130   20.6770   33.5890 H   0  0  0  0  0  0  0  0  0  0  0  0
   35.4740   18.8400   32.8230 C   0  0  0  0  0  3  0  0  0  0  0  0
   36.4120   18.3240   31.9090 C   0  0  0  0  0  3  0  0  0  0  0  0
   37.2030   19.8520   31.1780 S   0  0  0  0  0  0  0  0  0  0  0  0
   38.8870   21.9110   34.4450 N   0  0  0  0  0  0  0  0  0  0  0  0
   38.1460   22.4170   33.7340 C   0  0  0  0  0  0  0  0  0  0  0  0
   38.1840   25.2430   33.4700 O   0  0  0  0  0  0  0  0  0  0  0  0
   39.2130   25.9460   32.9250 C   0  0  0  0  0  0  0  0  0  0  0  0
   39.9770   26.5960   33.8980 C   0  0  0  0  0  0  0  0  0  0  0  0
   41.0630   27.3570   33.5360 C   0  0  0  0  0  0  0  0  0  0  0  0
   41.3560   27.4460   32.2010 N   0  0  0  0  0  0  0  0  0  0  0  0
   40.6100   26.8140   31.2750 C   0  0  0  0  0  0  0  0  0  0  0  0
   39.5670   26.0840   31.6340 N   0  0  0  0  0  0  0  0  0  0  0  0
   41.7080   27.8940   34.2180 H   0  0  0  0  0  0  0  0  0  0  0  0
   40.7550   26.8170   30.2110 H   0  0  0  0  0  0  0  0  0  0  0  0
   38.6510   27.2090   35.8610 C   0  0  0  0  0  0  0  0  0  0  0  0
   37.7520   28.0270   35.4090 O   0  0  0  0  0  0  0  0  0  0  0  0
   39.7730   26.5460   35.2790 N   0  0  0  0  0  0  0  0  0  0  0  0
   37.9430   27.5010   36.6270 H   0  0  0  0  0  0  0  0  0  0  0  0
   40.1030   26.2210   36.1920 H   0  0  0  0  0  0  0  0  0  0  0  0
  1 17  1  0  0  0  0
  2  1  1  0  0  0  0
  2 18  1  0  0  0  0
  3  2  2  0  0  0  0
  4  5  2  0  0  0  0
  4  3  1  0  0  0  0
  5  6  1  0  0  0  0
  6 10  1  0  0  0  0
  6  1  2  0  0  0  0
  7  3  1  0  0  0  0
  8  4  1  0  0  0  0
  9  5  1  0  0  0  0
 10 11  2  0  0  0  0
 11 12  1  0  0  0  0
 13 11  1  0  0  0  0
 14 13  2  0  0  0  0
 15 14  1  0  0  0  0
 15 10  1  0  0  0  0
 17 16  3  0  0  0  0
 19 18  1  0  0  0  0
 19 20  1  0  0  0  0
 20 29  1  0  0  0  0
 21 20  2  0  0  0  0
 21 25  1  0  0  0  0
 22 21  1  0  0  0  0
 23 24  1  0  0  0  0
 23 22  2  0  0  0  0
 24 19  2  0  0  0  0
 26 23  1  0  0  0  0
 27 30  1  0  0  0  0
 28 27  2  0  0  0  0
 29 27  1  0  0  0  0
 29 31  1  0  0  0  0
M  END
>  <minimizedAffinity>
-4.86773062

$$$$

 OpenBabel03272507403D

 31 33  0  0  0  0  0  0  0  0999 V2000
   37.3990   26.1690   31.8090 C   0  0  0  0  0  0  0  0  0  0  0  0
   37.2540   24.8380   32.1500 C   0  0  0  0  0  0  0  0  0  0  0  0
   36.1180   24.1380   31.7820 C   0  0  0  0  0  0  0  0  0  0  0  0
   35.1170   24.7810   31.0650 C   0  0  0  0  0  0  0  0  0  0  0  0
   35.2670   26.1120   30.7260 C   0  0  0  0  0  0  0  0  0  0  0  0
   36.4050   26.7790   31.1060 C   0  0  0  0  0  0  0  0  0  0  0  0
   35.9400   23.1010   32.0130 H   0  0  0  0  0  0  0  0  0  0  0  0
   34.2180   24.2410   30.7680 H   0  0  0  0  0  0  0  0  0  0  0  0
   34.4630   26.5670   30.1700 H   0  0  0  0  0  0  0  0  0  0  0  0
   36.5390   28.1830   30.7360 C   0  0  0  0  0  0  0  0  0  0  0  0
   36.0690   29.2880   31.3800 C   0  0  0  0  0  0  0  0  0  0  0  0
   35.5010   29.1540   32.3170 H   0  0  0  0  0  0  0  0  0  0  0  0
   36.2950   30.5160   30.8830 C   0  0  0  0  0  3  0  0  0  0  0  0
   37.0320   30.5590   29.6840 C   0  0  0  0  0  3  0  0  0  0  0  0
   37.3780   28.7590   29.3140 S   0  0  0  0  0  0  0  0  0  0  0  0
   39.5810   27.3030   32.5560 N   0  0  0  0  0  0  0  0  0  0  0  0
   38.6030   26.8070   32.2250 C   0  0  0  0  0  0  0  0  0  0  0  0
   38.1620   24.0750   32.8560 O   0  0  0  0  0  0  0  0  0  0  0  0
   38.1030   23.8360   34.1930 C   0  0  0  0  0  0  0  0  0  0  0  0
   38.0030   22.4720   34.4780 C   0  0  0  0  0  0  0  0  0  0  0  0
   37.9320   22.0360   35.7800 C   0  0  0  0  0  0  0  0  0  0  0  0
   37.9640   22.9850   36.7670 N   0  0  0  0  0  0  0  0  0  0  0  0
   38.0610   24.2960   36.4760 C   0  0  0  0  0  0  0  0  0  0  0  0
   38.1280   24.7050   35.2200 N   0  0  0  0  0  0  0  0  0  0  0  0
   37.8520   21.0040   36.0930 H   0  0  0  0  0  0  0  0  0  0  0  0
   38.0960   25.1150   37.1710 H   0  0  0  0  0  0  0  0  0  0  0  0
   36.7460   20.8690   33.1220 C   0  0  0  0  0  0  0  0  0  0  0  0
   35.5150   21.0060   33.5070 O   0  0  0  0  0  0  0  0  0  0  0  0
   37.9880   21.4310   33.5460 N   0  0  0  0  0  0  0  0  0  0  0  0
   36.0660   20.2600   32.5380 H   0  0  0  0  0  0  0  0  0  0  0  0
   38.5240   20.7900   32.9540 H   0  0  0  0  0  0  0  0  0  0  0  0
  1  2  1  0  0  0  0
  1 17  1  0  0  0  0
  2 18  1  0  0  0  0
  3  7  1  0  0  0  0
  3  2  2  0  0  0  0
  4  3  1  0  0  0  0
  5  4  2  0  0  0  0
  5  6  1  0  0  0  0
  6  1  2  0  0  0  0
  8  4  1  0  0  0  0
  9  5  1  0  0  0  0
 10  6  1  0  0  0  0
 10 11  2  0  0  0  0
 11 12  1  0  0  0  0
 13 11  1  0  0  0  0
 14 13  2  0  0  0  0
 15 14  1  0  0  0  0
 15 10  1  0  0  0  0
 17 16  3  0  0  0  0
 18 19  1  0  0  0  0
 19 20  2  0  0  0  0
 19 24  1  0  0  0  0
 20 21  1  0  0  0  0
 21 25  1  0  0  0  0
 21 22  2  0  0  0  0
 23 22  1  0  0  0  0
 23 26  1  0  0  0  0
 24 23  2  0  0  0  0
 27 28  2  0  0  0  0
 27 29  1  0  0  0  0
 29 20  1  0  0  0  0
 30 27  1  0  0  0  0
 31 29  1  0  0  0  0
M  END
>  <minimizedAffinity>
-4.86386395

$$$$

 OpenBabel03272507403D

 31 33  0  0  0  0  0  0  0  0999 V2000
   37.2020   22.8410   32.4400 C   0  0  0  0  0  0  0  0  0  0  0  0
   37.2830   24.2190   32.3770 C   0  0  0  0  0  0  0  0  0  0  0  0
   36.3230   24.9500   31.6980 C   0  0  0  0  0  0  0  0  0  0  0  0
   35.2710   24.2890   31.0750 C   0  0  0  0  0  0  0  0  0  0  0  0
   35.1940   22.9120   31.1410 C   0  0  0  0  0  0  0  0  0  0  0  0
   36.1620   22.2150   31.8220 C   0  0  0  0  0  0  0  0  0  0  0  0
   36.3240   26.0230   31.6100 H   0  0  0  0  0  0  0  0  0  0  0  0
   34.5080   24.8530   30.5380 H   0  0  0  0  0  0  0  0  0  0  0  0
   34.3600   22.4460   30.6420 H   0  0  0  0  0  0  0  0  0  0  0  0
   36.0590   20.7620   31.8760 C   0  0  0  0  0  0  0  0  0  0  0  0
   35.4180   19.9820   32.7910 C   0  0  0  0  0  0  0  0  0  0  0  0
   34.8890   20.4710   33.6270 H   0  0  0  0  0  0  0  0  0  0  0  0
   35.4320   18.6430   32.6760 C   0  0  0  0  0  3  0  0  0  0  0  0
   36.1380   18.1370   31.5690 C   0  0  0  0  0  3  0  0  0  0  0  0
   36.7760   19.6720   30.7130 S   0  0  0  0  0  0  0  0  0  0  0  0
   39.0630   21.6540   33.7560 N   0  0  0  0  0  0  0  0  0  0  0  0
   38.2310   22.1740   33.1640 C   0  0  0  0  0  0  0  0  0  0  0  0
   38.2660   25.0030   32.9460 O   0  0  0  0  0  0  0  0  0  0  0  0
   38.0370   26.0440   33.7910 C   0  0  0  0  0  0  0  0  0  0  0  0
   38.5460   25.8030   35.0700 C   0  0  0  0  0  0  0  0  0  0  0  0
   38.4100   26.7450   36.0610 C   0  0  0  0  0  0  0  0  0  0  0  0
   37.7640   27.9100   35.7430 N   0  0  0  0  0  0  0  0  0  0  0  0
   37.2800   28.1280   34.5060 C   0  0  0  0  0  0  0  0  0  0  0  0
   37.4150   27.2150   33.5590 N   0  0  0  0  0  0  0  0  0  0  0  0
   38.7700   26.6440   37.0760 H   0  0  0  0  0  0  0  0  0  0  0  0
   36.7630   29.0020   34.1550 H   0  0  0  0  0  0  0  0  0  0  0  0
   38.6570   23.7820   36.4450 C   0  0  0  0  0  0  0  0  0  0  0  0
   37.6030   23.8390   37.1990 O   0  0  0  0  0  0  0  0  0  0  0  0
   39.2380   24.6620   35.4830 N   0  0  0  0  0  0  0  0  0  0  0  0
   38.5460   22.8960   37.0580 H   0  0  0  0  0  0  0  0  0  0  0  0
   40.0860   24.0910   35.4160 H   0  0  0  0  0  0  0  0  0  0  0  0
  1 17  1  0  0  0  0
  2  1  1  0  0  0  0
  2 18  1  0  0  0  0
  3  2  2  0  0  0  0
  4  5  2  0  0  0  0
  4  3  1  0  0  0  0
  5  6  1  0  0  0  0
  6 10  1  0  0  0  0
  6  1  2  0  0  0  0
  7  3  1  0  0  0  0
  8  4  1  0  0  0  0
  9  5  1  0  0  0  0
 10 11  2  0  0  0  0
 11 12  1  0  0  0  0
 13 11  1  0  0  0  0
 14 13  2  0  0  0  0
 15 14  1  0  0  0  0
 15 10  1  0  0  0  0
 17 16  3  0  0  0  0
 18 19  1  0  0  0  0
 19 20  1  0  0  0  0
 20 29  1  0  0  0  0
 20 21  2  0  0  0  0
 21 25  1  0  0  0  0
 22 21  1  0  0  0  0
 23 22  2  0  0  0  0
 24 19  2  0  0  0  0
 24 23  1  0  0  0  0
 26 23  1  0  0  0  0
 27 30  1  0  0  0  0
 27 28  2  0  0  0  0
 29 27  1  0  0  0  0
 31 29  1  0  0  0  0
M  END
>  <minimizedAffinity>
-4.82440042

$$$$

 OpenBabel03272507403D

 31 33  0  0  0  0  0  0  0  0999 V2000
   37.5900   25.7440   33.8550 C   0  0  0  0  0  0  0  0  0  0  0  0
   38.0330   25.0850   34.9860 C   0  0  0  0  0  0  0  0  0  0  0  0
   38.4180   25.7980   36.1090 C   0  0  0  0  0  0  0  0  0  0  0  0
   38.3580   27.1860   36.0950 C   0  0  0  0  0  0  0  0  0  0  0  0
   37.9150   27.8390   34.9610 C   0  0  0  0  0  0  0  0  0  0  0  0
   37.5400   27.1040   33.8640 C   0  0  0  0  0  0  0  0  0  0  0  0
   38.7710   25.3500   37.0220 H   0  0  0  0  0  0  0  0  0  0  0  0
   38.6580   27.7590   36.9730 H   0  0  0  0  0  0  0  0  0  0  0  0
   37.8860   28.9160   35.0000 H   0  0  0  0  0  0  0  0  0  0  0  0
   37.0760   27.8180   32.6800 C   0  0  0  0  0  0  0  0  0  0  0  0
   35.9270   28.5270   32.5030 C   0  0  0  0  0  0  0  0  0  0  0  0
   35.2150   28.6030   33.3430 H   0  0  0  0  0  0  0  0  0  0  0  0
   35.6670   29.1240   31.3270 C   0  0  0  0  0  3  0  0  0  0  0  0
   36.6490   28.9580   30.3320 C   0  0  0  0  0  3  0  0  0  0  0  0
   37.9510   27.9090   31.1690 S   0  0  0  0  0  0  0  0  0  0  0  0
   36.8860   24.2720   31.8680 N   0  0  0  0  0  0  0  0  0  0  0  0
   37.2100   24.9290   32.7490 C   0  0  0  0  0  0  0  0  0  0  0  0
   38.1440   23.7190   35.1410 O   0  0  0  0  0  0  0  0  0  0  0  0
   39.1680   23.0890   35.7760 C   0  0  0  0  0  0  0  0  0  0  0  0
   40.1130   22.5870   34.8780 C   0  0  0  0  0  0  0  0  0  0  0  0
   41.2230   21.9190   35.3370 C   0  0  0  0  0  0  0  0  0  0  0  0
   41.3560   21.7690   36.6920 N   0  0  0  0  0  0  0  0  0  0  0  0
   40.4370   22.2590   37.5450 C   0  0  0  0  0  0  0  0  0  0  0  0
   39.3720   22.9010   37.0940 N   0  0  0  0  0  0  0  0  0  0  0  0
   42.0020   21.4970   34.7170 H   0  0  0  0  0  0  0  0  0  0  0  0
   40.4480   22.1980   38.6180 H   0  0  0  0  0  0  0  0  0  0  0  0
   40.7350   23.8050   32.8490 C   0  0  0  0  0  0  0  0  0  0  0  0
   41.3080   24.8870   33.2770 O   0  0  0  0  0  0  0  0  0  0  0  0
   40.0780   22.7100   33.4870 N   0  0  0  0  0  0  0  0  0  0  0  0
   41.1290   24.4060   32.0380 H   0  0  0  0  0  0  0  0  0  0  0  0
   39.7480   22.3370   32.5920 H   0  0  0  0  0  0  0  0  0  0  0  0
  1  6  2  0  0  0  0
  1  2  1  0  0  0  0
  2 18  1  0  0  0  0
  2  3  2  0  0  0  0
  3  7  1  0  0  0  0
  4  3  1  0  0  0  0
  4  8  1  0  0  0  0
  5  9  1  0  0  0  0
  5  4  2  0  0  0  0
  6  5  1  0  0  0  0
 10  6  1  0  0  0  0
 11 10  2  0  0  0  0
 11 12  1  0  0  0  0
 13 11  1  0  0  0  0
 14 15  1  0  0  0  0
 14 13  2  0  0  0  0
 15 10  1  0  0  0  0
 16 17  3  0  0  0  0
 17  1  1  0  0  0  0
 18 19  1  0  0  0  0
 19 24  1  0  0  0  0
 20 21  1  0  0  0  0
 20 19  2  0  0  0  0
 21 22  2  0  0  0  0
 22 23  1  0  0  0  0
 23 26  1  0  0  0  0
 24 23  2  0  0  0  0
 25 21  1  0  0  0  0
 27 28  2  0  0  0  0
 27 29  1  0  0  0  0
 29 20  1  0  0  0  0
 30 27  1  0  0  0  0
 31 29  1  0  0  0  0
M  END
>  <minimizedAffinity>
-4.82252264

$$$$

 OpenBabel03272507403D

 31 33  0  0  0  0  0  0  0  0999 V2000
   39.3430   24.5680   34.7000 C   0  0  0  0  0  0  0  0  0  0  0  0
   38.7590   25.7550   34.2980 C   0  0  0  0  0  0  0  0  0  0  0  0
   39.5200   26.9050   34.1720 C   0  0  0  0  0  0  0  0  0  0  0  0
   40.8800   26.8630   34.4550 C   0  0  0  0  0  0  0  0  0  0  0  0
   41.4580   25.6740   34.8560 C   0  0  0  0  0  0  0  0  0  0  0  0
   40.6770   24.5510   34.9720 C   0  0  0  0  0  0  0  0  0  0  0  0
   39.1320   27.8600   33.8640 H   0  0  0  0  0  0  0  0  0  0  0  0
   41.4900   27.7610   34.3590 H   0  0  0  0  0  0  0  0  0  0  0  0
   42.5160   25.6930   35.0640 H   0  0  0  0  0  0  0  0  0  0  0  0
   41.3110   23.3090   35.3980 C   0  0  0  0  0  0  0  0  0  0  0  0
   41.5280   22.8470   36.6600 C   0  0  0  0  0  0  0  0  0  0  0  0
   41.1970   23.4620   37.5150 H   0  0  0  0  0  0  0  0  0  0  0  0
   42.1350   21.6640   36.8590 C   0  0  0  0  0  3  0  0  0  0  0  0
   42.5100   20.9710   35.6940 C   0  0  0  0  0  3  0  0  0  0  0  0
   41.9530   22.0990   34.3110 S   0  0  0  0  0  0  0  0  0  0  0  0
   37.8090   22.5120   34.8690 N   0  0  0  0  0  0  0  0  0  0  0  0
   38.4840   23.4360   34.7960 C   0  0  0  0  0  0  0  0  0  0  0  0
   37.4290   25.9430   33.9850 O   0  0  0  0  0  0  0  0  0  0  0  0
   36.9560   26.8980   33.1400 C   0  0  0  0  0  0  0  0  0  0  0  0
   36.9580   26.4690   31.8110 C   0  0  0  0  0  0  0  0  0  0  0  0
   36.5130   27.3010   30.8110 C   0  0  0  0  0  0  0  0  0  0  0  0
   36.0760   28.5470   31.1730 N   0  0  0  0  0  0  0  0  0  0  0  0
   36.0800   28.9460   32.4590 C   0  0  0  0  0  0  0  0  0  0  0  0
   36.5100   28.1380   33.4140 N   0  0  0  0  0  0  0  0  0  0  0  0
   36.4800   27.0550   29.7580 H   0  0  0  0  0  0  0  0  0  0  0  0
   35.7580   29.8950   32.8460 H   0  0  0  0  0  0  0  0  0  0  0  0
   36.3990   24.1700   31.1860 C   0  0  0  0  0  0  0  0  0  0  0  0
   35.1490   24.0370   31.5070 O   0  0  0  0  0  0  0  0  0  0  0  0
   37.3590   25.2140   31.3470 N   0  0  0  0  0  0  0  0  0  0  0  0
   36.0020   23.2070   30.8890 H   0  0  0  0  0  0  0  0  0  0  0  0
   38.1250   24.6090   31.0370 H   0  0  0  0  0  0  0  0  0  0  0  0
  1 17  1  0  0  0  0
  1  6  1  0  0  0  0
  2  1  2  0  0  0  0
  3  2  1  0  0  0  0
  3  4  2  0  0  0  0
  4  5  1  0  0  0  0
  5  6  2  0  0  0  0
  5  9  1  0  0  0  0
  6 10  1  0  0  0  0
  7  3  1  0  0  0  0
  8  4  1  0  0  0  0
 10 11  2  0  0  0  0
 11 13  1  0  0  0  0
 11 12  1  0  0  0  0
 14 13  2  0  0  0  0
 15 10  1  0  0  0  0
 15 14  1  0  0  0  0
 17 16  3  0  0  0  0
 18  2  1  0  0  0  0
 19 24  1  0  0  0  0
 19 18  1  0  0  0  0
 20 19  2  0  0  0  0
 21 22  2  0  0  0  0
 21 20  1  0  0  0  0
 22 23  1  0  0  0  0
 23 26  1  0  0  0  0
 23 24  2  0  0  0  0
 25 21  1  0  0  0  0
 27 29  1  0  0  0  0
 27 28  2  0  0  0  0
 29 20  1  0  0  0  0
 30 27  1  0  0  0  0
 31 29  1  0  0  0  0
M  END
>  <minimizedAffinity>
-4.70385456

$$$$
