REMARK  Name = 
REMARK  4 active torsions:
REMARK  status: ('A' for Active; 'I' for Inactive)
REMARK    1  A    between atoms: C_3  and  C_7
REMARK    2  A    between atoms: C_8  and  C_9
REMARK    3  A    between atoms: C_9  and  S_10
REMARK    4  A    between atoms: S_10  and  C_18
REMARK                            x       y       z     vdW  Elec       q    Type
REMARK                         _______ _______ _______ _____ _____    ______ ____
ROOT
ATOM      1  C   UNL     1      38.226  30.832  47.831  0.00  0.00    +0.000 C 
ATOM      2  C   UNL     1      38.763  32.038  47.800  0.00  0.00    +0.000 C 
ENDROOT
BRANCH   1   5
ATOM      3  C   UNL     1      37.327  30.240  51.402  0.00  0.00    +0.000 A 
ATOM      4  C   UNL     1      37.981  30.706  50.260  0.00  0.00    +0.000 A 
ATOM      5  C   UNL     1      37.538  30.341  48.994  0.00  0.00    +0.000 A 
ATOM      6  N   UNL     1      36.453  29.520  48.913  0.00  0.00    +0.000 NA
ATOM      7  C   UNL     1      35.849  29.091  50.023  0.00  0.00    +0.000 A 
ATOM      8  N   UNL     1      36.271  29.439  51.249  0.00  0.00    +0.000 NA
ATOM      9  H   UNL     1      37.610  30.479  52.413  0.00  0.00    +0.000 HD
ATOM     10  H   UNL     1      38.828  31.350  50.441  0.00  0.00    +0.000 HD
ATOM     11  H   UNL     1      34.982  28.433  49.869  0.00  0.00    +0.000 HD
ENDBRANCH   1   5
BRANCH   2  12
ATOM     12  C   UNL     1      39.457  32.439  46.525  0.00  0.00    +0.000 C 
ATOM     13  H   UNL     1      39.821  33.478  46.632  0.00  0.00    +0.000 HD
ATOM     14  H   UNL     1      40.274  31.719  46.281  0.00  0.00    +0.000 HD
BRANCH  12  15
ATOM     15  S   UNL     1      38.234  32.363  45.175  0.00  0.00    +0.000 S 
BRANCH  15  16
ATOM     16  C   UNL     1      38.869  32.794  43.642  0.00  0.00    +0.000 A 
ATOM     17  C   UNL     1      39.205  34.086  43.119  0.00  0.00    +0.000 A 
ATOM     18  H   UNL     1      39.045  34.936  43.763  0.00  0.00    +0.000 HD
ATOM     19  C   UNL     1      39.703  34.150  41.842  0.00  0.00    +0.000 A 
ATOM     20  C   UNL     1      39.856  32.957  41.122  0.00  0.00    +0.000 A 
ATOM     21  S   UNL     1      39.283  31.654  42.258  0.00  0.00    +0.000 S 
ENDBRANCH  15  16
ENDBRANCH  12  15
ENDBRANCH   2  12
TORSDOF 4
