
 OpenBabel03272510133D

 38 41  0  0  0  0  0  0  0  0999 V2000
   37.5300   30.7780   49.7200 O   0  0  0  0  0  0  0  0  0  0  0  0
   34.0350   28.8690   48.3560 C   0  0  0  0  0  0  0  0  0  0  0  0
   34.7770   28.3450   49.3730 C   0  0  0  0  0  0  0  0  0  0  0  0
   35.9210   28.9100   49.8670 C   0  0  0  0  0  0  0  0  0  0  0  0
   36.3960   30.0760   49.3430 C   0  0  0  0  0  0  0  0  0  0  0  0
   35.6470   30.6250   48.3000 C   0  0  0  0  0  0  0  0  0  0  0  0
   34.5250   30.0420   47.8390 N   0  0  0  0  0  0  0  0  0  0  0  0
   34.4630   27.4230   49.8390 H   0  0  0  0  0  0  0  0  0  0  0  0
   36.5050   28.4860   50.6760 H   0  0  0  0  0  0  0  0  0  0  0  0
   35.9530   31.5500   47.8270 H   0  0  0  0  0  0  0  0  0  0  0  0
   32.1200   27.2820   48.4860 C   0  0  0  0  0  0  0  0  0  0  0  0
   32.8380   28.2930   47.8270 C   0  0  0  0  0  0  0  0  0  0  0  0
   32.3420   28.7220   46.6240 C   0  0  0  0  0  0  0  0  0  0  0  0
   31.1980   28.1690   46.1190 N   0  0  0  0  0  0  0  0  0  0  0  0
   30.5400   27.1860   46.8050 C   0  0  0  0  0  0  0  0  0  0  0  0
   30.9940   26.7360   47.9910 N   0  0  0  0  0  0  0  0  0  0  0  0
   32.4680   26.9120   49.4330 H   0  0  0  0  0  0  0  0  0  0  0  0
   32.8730   29.5040   46.0860 H   0  0  0  0  0  0  0  0  0  0  0  0
   29.6330   26.7380   46.4170 H   0  0  0  0  0  0  0  0  0  0  0  0
   38.2270   31.5820   48.8490 C   0  0  0  0  0  0  0  0  0  0  0  0
   38.4340   32.8650   49.3060 C   0  0  0  0  0  0  0  0  0  0  0  0
   39.1490   33.5520   48.3210 C   0  0  0  0  0  0  0  0  0  0  0  0
   39.3480   32.6940   47.3270 N   0  0  0  0  0  0  0  0  0  0  0  0
   38.8110   31.5560   47.6420 N   0  0  0  0  0  0  0  0  0  0  0  0
   38.1870   33.4380   50.2030 H   0  0  0  0  0  0  0  0  0  0  0  0
   39.5090   34.5750   48.2870 H   0  0  0  0  0  0  0  0  0  0  0  0
   40.0480   32.9500   46.0860 C   0  0  0  0  0  0  0  0  0  0  0  0
   40.4930   33.9590   46.0850 H   0  0  0  0  0  0  0  0  0  0  0  0
   40.8490   32.1740   45.9880 H   0  0  0  0  0  0  0  0  0  0  0  0
   39.0710   32.9000   44.9560 C   0  0  0  0  0  0  0  0  0  0  0  0
   38.0980   33.3270   45.3470 H   0  0  0  0  0  0  0  0  0  0  0  0
   39.3850   33.6820   44.2030 H   0  0  0  0  0  0  0  0  0  0  0  0
   38.8660   31.6040   44.3350 C   0  0  0  0  0  0  0  0  0  0  0  0
   37.8220   30.5880   44.0390 C   0  0  0  0  0  0  0  0  0  0  0  0
   36.8830   30.9220   44.4210 H   0  0  0  0  0  0  0  0  0  0  0  0
   38.2860   29.4980   43.3640 C   0  0  0  0  0  3  0  0  0  0  0  0
   39.6030   29.3300   42.9810 C   0  0  0  0  0  3  0  0  0  0  0  0
   40.4180   30.8220   43.5770 S   0  0  0  0  0  0  0  0  0  0  0  0
  2  3  1  0  0  0  0
  3  8  1  0  0  0  0
  3  4  2  0  0  0  0
  4  9  1  0  0  0  0
  5  1  1  0  0  0  0
  5  4  1  0  0  0  0
  6  5  2  0  0  0  0
  7  6  1  0  0  0  0
  7  2  2  0  0  0  0
 10  6  1  0  0  0  0
 11 17  1  0  0  0  0
 12  2  1  0  0  0  0
 12 11  2  0  0  0  0
 13 12  1  0  0  0  0
 14 13  2  0  0  0  0
 14 15  1  0  0  0  0
 15 16  2  0  0  0  0
 16 11  1  0  0  0  0
 18 13  1  0  0  0  0
 19 15  1  0  0  0  0
 20 21  1  0  0  0  0
 20  1  1  0  0  0  0
 21 25  1  0  0  0  0
 22 21  2  0  0  0  0
 23 24  1  0  0  0  0
 23 22  1  0  0  0  0
 24 20  2  0  0  0  0
 26 22  1  0  0  0  0
 27 23  1  0  0  0  0
 28 27  1  0  0  0  0
 29 27  1  0  0  0  0
 30 31  1  0  0  0  0
 30 27  1  0  0  0  0
 32 30  1  0  0  0  0
 33 30  1  0  0  0  0
 34 33  2  0  0  0  0
 34 35  1  0  0  0  0
 36 34  1  0  0  0  0
 37 36  2  0  0  0  0
 37 38  1  0  0  0  0
 38 33  1  0  0  0  0
M  END
>  <minimizedAffinity>
-5.78625917

>  <minimizedRMSD>
2.36908984

$$$$
