
     RDKit          3D

 27 29  0  0  0  0  0  0  0  0999 V2000
   38.0049   33.1012   49.4759 C   0  0  0  0  0  0  0  0  0  0  0  0
   38.9663   33.2152   48.4722 C   0  0  0  0  0  0  0  0  0  0  0  0
   38.9460   32.2280   47.4692 C   0  0  0  0  0  0  0  0  0  0  0  0
   38.0172   31.2412   47.5272 N   0  0  0  0  0  0  0  0  0  0  0  0
   37.1123   31.1713   48.5108 C   0  0  0  0  0  0  0  0  0  0  0  0
   37.1107   32.1128   49.4919 N   0  0  0  0  0  0  0  0  0  0  0  0
   36.1048   30.1318   48.6032 C   0  0  0  0  0  0  0  0  0  0  0  0
   35.2848   29.9507   47.5102 C   0  0  0  0  0  0  0  0  0  0  0  0
   34.2981   28.9853   47.5136 C   0  0  0  0  0  0  0  0  0  0  0  0
   34.1478   28.2030   48.6343 C   0  0  0  0  0  0  0  0  0  0  0  0
   34.9541   28.3628   49.7406 C   0  0  0  0  0  0  0  0  0  0  0  0
   35.9382   29.3327   49.7250 C   0  0  0  0  0  0  0  0  0  0  0  0
   38.0166   33.8698   50.2610 H   0  0  0  0  0  0  0  0  0  0  0  0
   39.6756   34.0418   48.5041 H   0  0  0  0  0  0  0  0  0  0  0  0
   39.6905   32.3203   46.6957 H   0  0  0  0  0  0  0  0  0  0  0  0
   35.4020   30.5744   46.6106 H   0  0  0  0  0  0  0  0  0  0  0  0
   33.6541   28.8410   46.6542 H   0  0  0  0  0  0  0  0  0  0  0  0
   33.3951   27.4230   48.7178 H   0  0  0  0  0  0  0  0  0  0  0  0
   34.9048   27.7893   50.6657 H   0  0  0  0  0  0  0  0  0  0  0  0
   36.8305   29.5496   50.8771 C   0  0  0  0  0  0  0  0  0  0  0  0
   36.3569   29.6655   52.2223 C   0  0  0  0  0  0  0  0  0  0  0  0
   35.3049   29.5965   52.4446 H   0  0  0  0  0  0  0  0  0  0  0  0
   37.2872   29.8658   53.2047 C   0  0  0  0  0  0  0  0  0  0  0  0
   38.6585   29.9480   52.8427 C   0  0  0  0  0  0  0  0  0  0  0  0
   38.6754   29.7366   51.0417 S   0  0  0  0  0  0  0  0  0  0  0  0
   37.0585   29.9692   54.2544 H   0  0  0  0  0  0  0  0  0  0  0  0
   39.4948   30.0943   53.4326 H   0  0  0  0  0  0  0  0  0  0  0  0
  1  6  2  0
  2  1  1  0
  3  4  1  0
  3  2  2  0
  4  5  2  0
  5  7  1  0
  5  6  1  0
  7 12  1  0
  8  7  2  0
  9  8  1  0
  9 10  2  0
 10 11  1  0
 12 11  2  0
  1 13  1  0
  2 14  1  0
  3 15  1  0
  8 16  1  0
  9 17  1  0
 10 18  1  0
 11 19  1  0
 20 21  2  0
 21 22  1  0
 21 23  1  0
 23 24  2  0
 24 25  1  0
 25 20  1  0
 23 26  1  0
 24 27  1  0
 12 20  1  0
M  ISO  8  13  14  14  14  15  14  16  14  17  14  18  14  19  14  22  15
M  END
>  <DihAtoms>  (1) 
6,11,19,20

>  <DihDeg>  (1) 
-62.93245828529943

$$$$
