
 OpenBabel03272510303D

 25 27  0  0  0  0  0  0  0  0999 V2000
   38.0560   24.8920   35.4030 C   0  0  0  0  0  0  0  0  0  0  0  0
   37.8510   24.5370   36.7420 C   0  0  0  0  0  0  0  0  0  0  0  0
   37.8040   23.1980   37.0190 C   0  0  0  0  0  0  0  0  0  0  0  0
   37.9540   22.3000   36.0130 N   0  0  0  0  0  0  0  0  0  0  0  0
   38.1520   22.6740   34.7260 C   0  0  0  0  0  0  0  0  0  0  0  0
   38.2040   24.0130   34.4100 N   0  0  0  0  0  0  0  0  0  0  0  0
   37.7410   25.2950   37.4930 H   0  0  0  0  0  0  0  0  0  0  0  0
   37.6460   22.9370   38.0500 H   0  0  0  0  0  0  0  0  0  0  0  0
   38.1510   26.3550   35.0570 C   0  0  0  0  0  0  0  0  0  0  0  0
   38.5130   27.3680   36.0130 C   0  0  0  0  0  0  0  0  0  0  0  0
   39.5930   26.8700   35.0710 C   0  0  0  0  0  0  0  0  0  0  0  0
   37.5670   26.6310   34.1270 H   0  0  0  0  0  0  0  0  0  0  0  0
   38.1010   28.3880   35.9000 H   0  0  0  0  0  0  0  0  0  0  0  0
   38.6830   27.0410   37.0780 H   0  0  0  0  0  0  0  0  0  0  0  0
   40.3910   26.2190   35.4460 H   0  0  0  0  0  0  0  0  0  0  0  0
   39.8130   27.5980   34.2810 H   0  0  0  0  0  0  0  0  0  0  0  0
   38.3410   21.7190   33.6470 C   0  0  0  0  0  0  0  0  0  0  0  0
   39.1920   21.9620   32.9530 H   0  0  0  0  0  0  0  0  0  0  0  0
   38.6990   20.7640   34.1400 H   0  0  0  0  0  0  0  0  0  0  0  0
   37.1140   21.3940   32.9040 C   0  0  0  0  0  0  0  0  0  0  0  0
   36.7440   21.6490   31.5650 C   0  0  0  0  0  0  0  0  0  0  0  0
   37.4640   22.1720   30.9670 H   0  0  0  0  0  0  0  0  0  0  0  0
   35.5180   21.2150   31.1510 C   0  0  0  0  0  3  0  0  0  0  0  0
   34.6670   20.5310   32.0640 C   0  0  0  0  0  3  0  0  0  0  0  0
   35.6720   20.4980   33.6270 S   0  0  0  0  0  0  0  0  0  0  0  0
  1  2  1  0  0  0  0
  2  3  2  0  0  0  0
  2  7  1  0  0  0  0
  3  8  1  0  0  0  0
  4  3  1  0  0  0  0
  5  4  2  0  0  0  0
  6  5  1  0  0  0  0
  6  1  2  0  0  0  0
  9 11  1  0  0  0  0
  9  1  1  0  0  0  0
  9 10  1  0  0  0  0
 10 14  1  0  0  0  0
 11 15  1  0  0  0  0
 11 10  1  0  0  0  0
 12  9  1  0  0  0  0
 13 10  1  0  0  0  0
 16 11  1  0  0  0  0
 17 19  1  0  0  0  0
 17  5  1  0  0  0  0
 18 17  1  0  0  0  0
 20 25  1  0  0  0  0
 20 17  1  0  0  0  0
 21 20  2  0  0  0  0
 22 21  1  0  0  0  0
 23 21  1  0  0  0  0
 23 24  2  0  0  0  0
 24 25  1  0  0  0  0
M  END
>  <minimizedAffinity>
-4.53530025

$$$$

 OpenBabel03272510303D

 25 27  0  0  0  0  0  0  0  0999 V2000
   36.1750   21.4730   32.8800 C   0  0  0  0  0  0  0  0  0  0  0  0
   35.5670   22.2890   31.9160 C   0  0  0  0  0  0  0  0  0  0  0  0
   36.1360   23.5140   31.7050 C   0  0  0  0  0  0  0  0  0  0  0  0
   37.2320   23.8760   32.4180 N   0  0  0  0  0  0  0  0  0  0  0  0
   37.7990   23.0650   33.3440 C   0  0  0  0  0  0  0  0  0  0  0  0
   37.2530   21.8240   33.5830 N   0  0  0  0  0  0  0  0  0  0  0  0
   34.7020   21.9450   31.3840 H   0  0  0  0  0  0  0  0  0  0  0  0
   35.6610   24.1320   30.9640 H   0  0  0  0  0  0  0  0  0  0  0  0
   35.6040   20.1000   33.1190 C   0  0  0  0  0  0  0  0  0  0  0  0
   34.7940   19.4060   32.1530 C   0  0  0  0  0  0  0  0  0  0  0  0
   36.2610   19.0290   32.2440 C   0  0  0  0  0  0  0  0  0  0  0  0
   35.5410   19.8300   34.2160 H   0  0  0  0  0  0  0  0  0  0  0  0
   34.0150   18.7040   32.5070 H   0  0  0  0  0  0  0  0  0  0  0  0
   34.5440   19.9470   31.1970 H   0  0  0  0  0  0  0  0  0  0  0  0
   36.9550   19.3360   31.4530 H   0  0  0  0  0  0  0  0  0  0  0  0
   36.4060   18.0680   32.7510 H   0  0  0  0  0  0  0  0  0  0  0  0
   38.9890   23.4330   34.0920 C   0  0  0  0  0  0  0  0  0  0  0  0
   39.9000   22.8170   33.8520 H   0  0  0  0  0  0  0  0  0  0  0  0
   39.2870   24.4580   33.7130 H   0  0  0  0  0  0  0  0  0  0  0  0
   38.7820   23.5450   35.5430 C   0  0  0  0  0  0  0  0  0  0  0  0
   37.8900   24.3410   36.2960 C   0  0  0  0  0  0  0  0  0  0  0  0
   37.2430   24.9870   35.7340 H   0  0  0  0  0  0  0  0  0  0  0  0
   37.9250   24.2240   37.6560 C   0  0  0  0  0  3  0  0  0  0  0  0
   38.8430   23.3210   38.2610 C   0  0  0  0  0  3  0  0  0  0  0  0
   39.7240   22.5790   36.8020 S   0  0  0  0  0  0  0  0  0  0  0  0
  1  9  1  0  0  0  0
  1  6  1  0  0  0  0
  2  1  2  0  0  0  0
  3  2  1  0  0  0  0
  3  4  2  0  0  0  0
  4  5  1  0  0  0  0
  5  6  2  0  0  0  0
  5 17  1  0  0  0  0
  7  2  1  0  0  0  0
  8  3  1  0  0  0  0
  9 12  1  0  0  0  0
 10 11  1  0  0  0  0
 10 13  1  0  0  0  0
 10  9  1  0  0  0  0
 11 16  1  0  0  0  0
 11  9  1  0  0  0  0
 14 10  1  0  0  0  0
 15 11  1  0  0  0  0
 17 20  1  0  0  0  0
 18 17  1  0  0  0  0
 19 17  1  0  0  0  0
 20 21  2  0  0  0  0
 20 25  1  0  0  0  0
 21 23  1  0  0  0  0
 22 21  1  0  0  0  0
 23 24  2  0  0  0  0
 25 24  1  0  0  0  0
M  END
>  <minimizedAffinity>
-4.32592154

$$$$

 OpenBabel03272510303D

 25 27  0  0  0  0  0  0  0  0999 V2000
   36.1020   23.0400   31.6130 C   0  0  0  0  0  0  0  0  0  0  0  0
   35.4240   24.1900   31.1870 C   0  0  0  0  0  0  0  0  0  0  0  0
   35.9210   25.3880   31.6190 C   0  0  0  0  0  0  0  0  0  0  0  0
   37.0170   25.4100   32.4180 N   0  0  0  0  0  0  0  0  0  0  0  0
   37.6530   24.2810   32.8140 C   0  0  0  0  0  0  0  0  0  0  0  0
   37.1800   23.0560   32.3990 N   0  0  0  0  0  0  0  0  0  0  0  0
   34.5620   24.1070   30.5530 H   0  0  0  0  0  0  0  0  0  0  0  0
   35.3930   26.2640   31.2870 H   0  0  0  0  0  0  0  0  0  0  0  0
   35.6110   21.7000   31.1310 C   0  0  0  0  0  0  0  0  0  0  0  0
   36.1680   20.4510   31.5770 C   0  0  0  0  0  0  0  0  0  0  0  0
   34.8750   20.9160   32.2220 C   0  0  0  0  0  0  0  0  0  0  0  0
   35.0560   21.7590   30.1460 H   0  0  0  0  0  0  0  0  0  0  0  0
   36.1670   19.5840   30.8890 H   0  0  0  0  0  0  0  0  0  0  0  0
   37.0440   20.4940   32.2830 H   0  0  0  0  0  0  0  0  0  0  0  0
   34.8810   21.2960   33.2500 H   0  0  0  0  0  0  0  0  0  0  0  0
   34.0100   20.3520   31.8570 H   0  0  0  0  0  0  0  0  0  0  0  0
   38.8430   24.2960   33.6460 C   0  0  0  0  0  0  0  0  0  0  0  0
   39.6620   23.6030   33.3030 H   0  0  0  0  0  0  0  0  0  0  0  0
   39.3140   25.3150   33.4940 H   0  0  0  0  0  0  0  0  0  0  0  0
   38.5780   24.1470   35.0850 C   0  0  0  0  0  0  0  0  0  0  0  0
   38.1320   25.0780   36.0490 C   0  0  0  0  0  0  0  0  0  0  0  0
   37.9500   26.0740   35.6960 H   0  0  0  0  0  0  0  0  0  0  0  0
   37.9710   24.6370   37.3310 C   0  0  0  0  0  3  0  0  0  0  0  0
   38.2530   23.2800   37.6500 C   0  0  0  0  0  3  0  0  0  0  0  0
   38.7860   22.5680   36.0180 S   0  0  0  0  0  0  0  0  0  0  0  0
  1  6  1  0  0  0  0
  2  1  2  0  0  0  0
  2  3  1  0  0  0  0
  3  4  2  0  0  0  0
  4  5  1  0  0  0  0
  5 17  1  0  0  0  0
  6  5  2  0  0  0  0
  7  2  1  0  0  0  0
  8  3  1  0  0  0  0
  9 10  1  0  0  0  0
  9  1  1  0  0  0  0
  9 11  1  0  0  0  0
 10 11  1  0  0  0  0
 10 14  1  0  0  0  0
 11 15  1  0  0  0  0
 12  9  1  0  0  0  0
 13 10  1  0  0  0  0
 16 11  1  0  0  0  0
 17 20  1  0  0  0  0
 18 17  1  0  0  0  0
 19 17  1  0  0  0  0
 20 25  1  0  0  0  0
 20 21  2  0  0  0  0
 21 23  1  0  0  0  0
 22 21  1  0  0  0  0
 23 24  2  0  0  0  0
 25 24  1  0  0  0  0
M  END
>  <minimizedAffinity>
-4.29253292

$$$$

 OpenBabel03272510303D

 25 27  0  0  0  0  0  0  0  0999 V2000
   37.1800   26.5680   33.7540 C   0  0  0  0  0  0  0  0  0  0  0  0
   36.5820   27.5460   32.9500 C   0  0  0  0  0  0  0  0  0  0  0  0
   36.3500   27.2090   31.6450 C   0  0  0  0  0  0  0  0  0  0  0  0
   36.7000   25.9750   31.2000 N   0  0  0  0  0  0  0  0  0  0  0  0
   37.2770   25.0480   32.0020 C   0  0  0  0  0  0  0  0  0  0  0  0
   37.5260   25.3540   33.3210 N   0  0  0  0  0  0  0  0  0  0  0  0
   36.3270   28.5040   33.3610 H   0  0  0  0  0  0  0  0  0  0  0  0
   35.8920   27.9670   31.0370 H   0  0  0  0  0  0  0  0  0  0  0  0
   37.4200   26.8840   35.2070 C   0  0  0  0  0  0  0  0  0  0  0  0
   38.1910   26.0390   36.0800 C   0  0  0  0  0  0  0  0  0  0  0  0
   38.8760   27.2600   35.4940 C   0  0  0  0  0  0  0  0  0  0  0  0
   36.6600   27.6050   35.6360 H   0  0  0  0  0  0  0  0  0  0  0  0
   37.9400   26.0030   37.1560 H   0  0  0  0  0  0  0  0  0  0  0  0
   38.5870   25.0740   35.6530 H   0  0  0  0  0  0  0  0  0  0  0  0
   39.6260   27.1420   34.7030 H   0  0  0  0  0  0  0  0  0  0  0  0
   38.9910   28.0590   36.2360 H   0  0  0  0  0  0  0  0  0  0  0  0
   37.6290   23.7160   31.5420 C   0  0  0  0  0  0  0  0  0  0  0  0
   37.7460   23.6230   30.4260 H   0  0  0  0  0  0  0  0  0  0  0  0
   38.6850   23.5320   31.9080 H   0  0  0  0  0  0  0  0  0  0  0  0
   36.7830   22.6430   32.0860 C   0  0  0  0  0  0  0  0  0  0  0  0
   35.5220   22.1560   31.6780 C   0  0  0  0  0  0  0  0  0  0  0  0
   35.0820   22.6380   30.8270 H   0  0  0  0  0  0  0  0  0  0  0  0
   34.9770   21.1270   32.3900 C   0  0  0  0  0  3  0  0  0  0  0  0
   35.6830   20.5880   33.5020 C   0  0  0  0  0  3  0  0  0  0  0  0
   37.2360   21.6080   33.5460 S   0  0  0  0  0  0  0  0  0  0  0  0
  1  9  1  0  0  0  0
  2  7  1  0  0  0  0
  2  1  2  0  0  0  0
  3  2  1  0  0  0  0
  4  3  2  0  0  0  0
  4  5  1  0  0  0  0
  5  6  2  0  0  0  0
  6  1  1  0  0  0  0
  8  3  1  0  0  0  0
  9 11  1  0  0  0  0
  9 12  1  0  0  0  0
  9 10  1  0  0  0  0
 10 13  1  0  0  0  0
 11 10  1  0  0  0  0
 11 16  1  0  0  0  0
 14 10  1  0  0  0  0
 15 11  1  0  0  0  0
 17 19  1  0  0  0  0
 17  5  1  0  0  0  0
 17 20  1  0  0  0  0
 18 17  1  0  0  0  0
 20 25  1  0  0  0  0
 21 20  2  0  0  0  0
 21 23  1  0  0  0  0
 22 21  1  0  0  0  0
 23 24  2  0  0  0  0
 24 25  1  0  0  0  0
M  END
>  <minimizedAffinity>
-4.2686677

$$$$

 OpenBabel03272510303D

 25 27  0  0  0  0  0  0  0  0999 V2000
   36.5380   26.6770   32.4160 C   0  0  0  0  0  0  0  0  0  0  0  0
   37.0880   26.1600   33.5960 C   0  0  0  0  0  0  0  0  0  0  0  0
   37.1200   26.9990   34.6750 C   0  0  0  0  0  0  0  0  0  0  0  0
   36.6310   28.2590   34.5580 N   0  0  0  0  0  0  0  0  0  0  0  0
   36.1040   28.7320   33.4040 C   0  0  0  0  0  0  0  0  0  0  0  0
   36.0570   27.9160   32.2960 N   0  0  0  0  0  0  0  0  0  0  0  0
   37.4570   25.1530   33.6250 H   0  0  0  0  0  0  0  0  0  0  0  0
   37.5440   26.5910   35.5750 H   0  0  0  0  0  0  0  0  0  0  0  0
   36.4500   25.7760   31.2120 C   0  0  0  0  0  0  0  0  0  0  0  0
   36.1430   24.3720   31.3010 C   0  0  0  0  0  0  0  0  0  0  0  0
   35.0170   25.3180   30.9240 C   0  0  0  0  0  0  0  0  0  0  0  0
   36.9980   26.1840   30.3100 H   0  0  0  0  0  0  0  0  0  0  0  0
   36.5640   23.6800   30.5480 H   0  0  0  0  0  0  0  0  0  0  0  0
   36.0120   23.9320   32.3290 H   0  0  0  0  0  0  0  0  0  0  0  0
   34.2270   25.5450   31.6480 H   0  0  0  0  0  0  0  0  0  0  0  0
   34.7750   25.2610   29.8560 H   0  0  0  0  0  0  0  0  0  0  0  0
   35.5530   30.0710   33.2770 C   0  0  0  0  0  0  0  0  0  0  0  0
   36.1800   30.7770   32.6660 H   0  0  0  0  0  0  0  0  0  0  0  0
   34.6240   29.9630   32.6390 H   0  0  0  0  0  0  0  0  0  0  0  0
   35.1420   30.6790   34.5510 C   0  0  0  0  0  0  0  0  0  0  0  0
   35.8620   31.4590   35.4840 C   0  0  0  0  0  0  0  0  0  0  0  0
   36.8900   31.6520   35.2460 H   0  0  0  0  0  0  0  0  0  0  0  0
   35.1980   31.8960   36.5940 C   0  0  0  0  0  3  0  0  0  0  0  0
   33.8270   31.5570   36.7740 C   0  0  0  0  0  3  0  0  0  0  0  0
   33.4440   30.5460   35.2620 S   0  0  0  0  0  0  0  0  0  0  0  0
  1  2  1  0  0  0  0
  2  7  1  0  0  0  0
  2  3  2  0  0  0  0
  3  8  1  0  0  0  0
  4  3  1  0  0  0  0
  5  4  2  0  0  0  0
  6  1  2  0  0  0  0
  6  5  1  0  0  0  0
  9 10  1  0  0  0  0
  9  1  1  0  0  0  0
 10 14  1  0  0  0  0
 11  9  1  0  0  0  0
 11 10  1  0  0  0  0
 11 15  1  0  0  0  0
 12  9  1  0  0  0  0
 13 10  1  0  0  0  0
 16 11  1  0  0  0  0
 17  5  1  0  0  0  0
 17 20  1  0  0  0  0
 18 17  1  0  0  0  0
 19 17  1  0  0  0  0
 20 25  1  0  0  0  0
 20 21  2  0  0  0  0
 21 23  1  0  0  0  0
 22 21  1  0  0  0  0
 23 24  2  0  0  0  0
 25 24  1  0  0  0  0
M  END
>  <minimizedAffinity>
-4.26012516

$$$$

 OpenBabel03272510303D

 25 27  0  0  0  0  0  0  0  0999 V2000
   37.4050   25.5780   31.9370 C   0  0  0  0  0  0  0  0  0  0  0  0
   38.4000   26.3800   31.3650 C   0  0  0  0  0  0  0  0  0  0  0  0
   39.1420   27.1420   32.2250 C   0  0  0  0  0  0  0  0  0  0  0  0
   38.8890   27.0860   33.5570 N   0  0  0  0  0  0  0  0  0  0  0  0
   37.9190   26.2990   34.0830 C   0  0  0  0  0  0  0  0  0  0  0  0
   37.1510   25.5210   33.2460 N   0  0  0  0  0  0  0  0  0  0  0  0
   38.5530   26.3790   30.3030 H   0  0  0  0  0  0  0  0  0  0  0  0
   39.9030   27.7540   31.7760 H   0  0  0  0  0  0  0  0  0  0  0  0
   36.5870   24.6960   31.0300 C   0  0  0  0  0  0  0  0  0  0  0  0
   35.5310   23.8420   31.5050 C   0  0  0  0  0  0  0  0  0  0  0  0
   35.1390   25.1740   30.8940 C   0  0  0  0  0  0  0  0  0  0  0  0
   37.0990   24.4770   30.0440 H   0  0  0  0  0  0  0  0  0  0  0  0
   35.3190   22.8980   30.9680 H   0  0  0  0  0  0  0  0  0  0  0  0
   35.3510   23.8060   32.6170 H   0  0  0  0  0  0  0  0  0  0  0  0
   34.7810   25.9880   31.5350 H   0  0  0  0  0  0  0  0  0  0  0  0
   34.7240   25.0550   29.8860 H   0  0  0  0  0  0  0  0  0  0  0  0
   37.6590   26.2130   35.5090 C   0  0  0  0  0  0  0  0  0  0  0  0
   37.8550   27.1650   36.0780 H   0  0  0  0  0  0  0  0  0  0  0  0
   36.5370   26.1000   35.6120 H   0  0  0  0  0  0  0  0  0  0  0  0
   38.2780   25.0540   36.1690 C   0  0  0  0  0  0  0  0  0  0  0  0
   37.9890   24.4210   37.3980 C   0  0  0  0  0  0  0  0  0  0  0  0
   37.1860   24.8420   37.9700 H   0  0  0  0  0  0  0  0  0  0  0  0
   38.7470   23.3410   37.7510 C   0  0  0  0  0  3  0  0  0  0  0  0
   39.7840   22.8960   36.8840 C   0  0  0  0  0  3  0  0  0  0  0  0
   39.6850   24.0900   35.4640 S   0  0  0  0  0  0  0  0  0  0  0  0
  1  6  1  0  0  0  0
  2  1  2  0  0  0  0
  2  3  1  0  0  0  0
  3  4  2  0  0  0  0
  4  5  1  0  0  0  0
  5 17  1  0  0  0  0
  6  5  2  0  0  0  0
  7  2  1  0  0  0  0
  8  3  1  0  0  0  0
  9 10  1  0  0  0  0
  9  1  1  0  0  0  0
 10 14  1  0  0  0  0
 11  9  1  0  0  0  0
 11 10  1  0  0  0  0
 11 15  1  0  0  0  0
 12  9  1  0  0  0  0
 13 10  1  0  0  0  0
 16 11  1  0  0  0  0
 17 19  1  0  0  0  0
 17 18  1  0  0  0  0
 17 20  1  0  0  0  0
 20 21  2  0  0  0  0
 21 23  1  0  0  0  0
 21 22  1  0  0  0  0
 24 23  2  0  0  0  0
 25 20  1  0  0  0  0
 25 24  1  0  0  0  0
M  END
>  <minimizedAffinity>
-4.2320857

$$$$

 OpenBabel03272510303D

 25 27  0  0  0  0  0  0  0  0999 V2000
   38.5990   24.0510   36.1940 C   0  0  0  0  0  0  0  0  0  0  0  0
   39.8590   23.5060   35.9170 C   0  0  0  0  0  0  0  0  0  0  0  0
   40.4690   23.9270   34.7680 C   0  0  0  0  0  0  0  0  0  0  0  0
   39.8430   24.8280   33.9700 N   0  0  0  0  0  0  0  0  0  0  0  0
   38.6240   25.3400   34.2640 C   0  0  0  0  0  0  0  0  0  0  0  0
   37.9800   24.9380   35.4120 N   0  0  0  0  0  0  0  0  0  0  0  0
   40.3020   22.7970   36.5890 H   0  0  0  0  0  0  0  0  0  0  0  0
   41.4350   23.5020   34.5650 H   0  0  0  0  0  0  0  0  0  0  0  0
   37.9070   23.6430   37.4680 C   0  0  0  0  0  0  0  0  0  0  0  0
   38.6120   23.3520   38.6890 C   0  0  0  0  0  0  0  0  0  0  0  0
   37.9800   24.7250   38.5500 C   0  0  0  0  0  0  0  0  0  0  0  0
   36.8680   23.2270   37.2960 H   0  0  0  0  0  0  0  0  0  0  0  0
   38.1880   22.6120   39.3930 H   0  0  0  0  0  0  0  0  0  0  0  0
   39.7380   23.3890   38.6610 H   0  0  0  0  0  0  0  0  0  0  0  0
   38.6120   25.6050   38.3850 H   0  0  0  0  0  0  0  0  0  0  0  0
   37.0670   24.8170   39.1490 H   0  0  0  0  0  0  0  0  0  0  0  0
   37.9590   26.3260   33.4290 C   0  0  0  0  0  0  0  0  0  0  0  0
   37.5540   27.2150   33.9890 H   0  0  0  0  0  0  0  0  0  0  0  0
   38.7730   26.7930   32.7950 H   0  0  0  0  0  0  0  0  0  0  0  0
   36.9570   25.7650   32.5100 C   0  0  0  0  0  0  0  0  0  0  0  0
   36.6650   24.4300   32.1560 C   0  0  0  0  0  0  0  0  0  0  0  0
   37.2670   23.6740   32.6220 H   0  0  0  0  0  0  0  0  0  0  0  0
   35.6550   24.2150   31.2620 C   0  0  0  0  0  3  0  0  0  0  0  0
   34.9420   25.3240   30.7260 C   0  0  0  0  0  3  0  0  0  0  0  0
   35.7560   26.7810   31.5440 S   0  0  0  0  0  0  0  0  0  0  0  0
  1  9  1  0  0  0  0
  2  1  1  0  0  0  0
  2  7  1  0  0  0  0
  3  2  2  0  0  0  0
  4  5  2  0  0  0  0
  4  3  1  0  0  0  0
  5  6  1  0  0  0  0
  6  1  2  0  0  0  0
  8  3  1  0  0  0  0
  9 11  1  0  0  0  0
  9 10  1  0  0  0  0
 10 13  1  0  0  0  0
 11 10  1  0  0  0  0
 11 16  1  0  0  0  0
 12  9  1  0  0  0  0
 14 10  1  0  0  0  0
 15 11  1  0  0  0  0
 17 18  1  0  0  0  0
 17  5  1  0  0  0  0
 19 17  1  0  0  0  0
 20 17  1  0  0  0  0
 21 20  2  0  0  0  0
 21 22  1  0  0  0  0
 23 21  1  0  0  0  0
 24 23  2  0  0  0  0
 24 25  1  0  0  0  0
 25 20  1  0  0  0  0
M  END
>  <minimizedAffinity>
-4.21632862

$$$$

 OpenBabel03272510303D

 25 27  0  0  0  0  0  0  0  0999 V2000
   36.2460   23.8450   31.6760 C   0  0  0  0  0  0  0  0  0  0  0  0
   35.0190   24.1040   31.0520 C   0  0  0  0  0  0  0  0  0  0  0  0
   34.7570   25.4080   30.7340 C   0  0  0  0  0  0  0  0  0  0  0  0
   35.6730   26.3660   31.0270 N   0  0  0  0  0  0  0  0  0  0  0  0
   36.8530   26.0860   31.6310 C   0  0  0  0  0  0  0  0  0  0  0  0
   37.1490   24.7840   31.9670 N   0  0  0  0  0  0  0  0  0  0  0  0
   34.3370   23.3020   30.8450 H   0  0  0  0  0  0  0  0  0  0  0  0
   33.8130   25.5950   30.2560 H   0  0  0  0  0  0  0  0  0  0  0  0
   36.5920   22.4180   32.0120 C   0  0  0  0  0  0  0  0  0  0  0  0
   36.0370   21.2890   31.3140 C   0  0  0  0  0  0  0  0  0  0  0  0
   37.4300   21.7440   30.9220 C   0  0  0  0  0  0  0  0  0  0  0  0
   37.0050   22.2960   33.0590 H   0  0  0  0  0  0  0  0  0  0  0  0
   35.8930   20.3360   31.8580 H   0  0  0  0  0  0  0  0  0  0  0  0
   35.2720   21.4960   30.5130 H   0  0  0  0  0  0  0  0  0  0  0  0
   37.5900   22.2640   29.9710 H   0  0  0  0  0  0  0  0  0  0  0  0
   38.2040   21.0710   31.3090 H   0  0  0  0  0  0  0  0  0  0  0  0
   37.8500   27.1010   31.9240 C   0  0  0  0  0  0  0  0  0  0  0  0
   38.7020   27.1440   31.1890 H   0  0  0  0  0  0  0  0  0  0  0  0
   37.3360   28.0960   31.7540 H   0  0  0  0  0  0  0  0  0  0  0  0
   38.3350   27.0910   33.3120 C   0  0  0  0  0  0  0  0  0  0  0  0
   39.6320   26.9130   33.8420 C   0  0  0  0  0  0  0  0  0  0  0  0
   40.4170   26.7520   33.1280 H   0  0  0  0  0  0  0  0  0  0  0  0
   39.7770   26.9600   35.1990 C   0  0  0  0  0  3  0  0  0  0  0  0
   38.6370   27.1810   36.0210 C   0  0  0  0  0  3  0  0  0  0  0  0
   37.2550   27.3370   34.7880 S   0  0  0  0  0  0  0  0  0  0  0  0
  1  6  1  0  0  0  0
  1  9  1  0  0  0  0
  2  1  2  0  0  0  0
  3  4  2  0  0  0  0
  3  2  1  0  0  0  0
  4  5  1  0  0  0  0
  5 17  1  0  0  0  0
  5  6  2  0  0  0  0
  7  2  1  0  0  0  0
  8  3  1  0  0  0  0
  9 12  1  0  0  0  0
 10 13  1  0  0  0  0
 10  9  1  0  0  0  0
 11 16  1  0  0  0  0
 11 10  1  0  0  0  0
 11  9  1  0  0  0  0
 14 10  1  0  0  0  0
 15 11  1  0  0  0  0
 17 20  1  0  0  0  0
 18 17  1  0  0  0  0
 19 17  1  0  0  0  0
 20 21  2  0  0  0  0
 20 25  1  0  0  0  0
 21 23  1  0  0  0  0
 22 21  1  0  0  0  0
 23 24  2  0  0  0  0
 25 24  1  0  0  0  0
M  END
>  <minimizedAffinity>
-4.17907619

$$$$

 OpenBabel03272510303D

 25 27  0  0  0  0  0  0  0  0999 V2000
   36.1920   21.3560   32.9820 C   0  0  0  0  0  0  0  0  0  0  0  0
   35.7610   22.1970   31.9480 C   0  0  0  0  0  0  0  0  0  0  0  0
   36.4210   23.3880   31.8130 C   0  0  0  0  0  0  0  0  0  0  0  0
   37.4340   23.6920   32.6630 N   0  0  0  0  0  0  0  0  0  0  0  0
   37.8290   22.8580   33.6540 C   0  0  0  0  0  0  0  0  0  0  0  0
   37.1870   21.6520   33.8210 N   0  0  0  0  0  0  0  0  0  0  0  0
   34.9540   21.8990   31.3080 H   0  0  0  0  0  0  0  0  0  0  0  0
   36.0820   24.0250   31.0160 H   0  0  0  0  0  0  0  0  0  0  0  0
   35.5170   20.0190   33.1450 C   0  0  0  0  0  0  0  0  0  0  0  0
   34.7210   19.4090   32.1140 C   0  0  0  0  0  0  0  0  0  0  0  0
   36.1520   18.9310   32.2750 C   0  0  0  0  0  0  0  0  0  0  0  0
   35.3730   19.7230   34.2280 H   0  0  0  0  0  0  0  0  0  0  0  0
   33.8780   18.7520   32.4010 H   0  0  0  0  0  0  0  0  0  0  0  0
   34.5640   19.9930   31.1630 H   0  0  0  0  0  0  0  0  0  0  0  0
   36.9100   19.2120   31.5350 H   0  0  0  0  0  0  0  0  0  0  0  0
   36.2030   17.9480   32.7580 H   0  0  0  0  0  0  0  0  0  0  0  0
   38.9300   23.1640   34.5510 C   0  0  0  0  0  0  0  0  0  0  0  0
   38.9600   22.5370   35.4850 H   0  0  0  0  0  0  0  0  0  0  0  0
   39.8690   22.8320   34.0110 H   0  0  0  0  0  0  0  0  0  0  0  0
   39.0840   24.5950   34.8560 C   0  0  0  0  0  0  0  0  0  0  0  0
   40.0610   25.5310   34.4530 C   0  0  0  0  0  0  0  0  0  0  0  0
   40.8380   25.1590   33.8140 H   0  0  0  0  0  0  0  0  0  0  0  0
   39.9350   26.8150   34.9020 C   0  0  0  0  0  3  0  0  0  0  0  0
   38.8440   27.1610   35.7480 C   0  0  0  0  0  3  0  0  0  0  0  0
   37.9240   25.5560   35.9230 S   0  0  0  0  0  0  0  0  0  0  0  0
  1  9  1  0  0  0  0
  1  6  1  0  0  0  0
  2  1  2  0  0  0  0
  3  2  1  0  0  0  0
  3  4  2  0  0  0  0
  4  5  1  0  0  0  0
  5  6  2  0  0  0  0
  5 17  1  0  0  0  0
  7  2  1  0  0  0  0
  8  3  1  0  0  0  0
  9 12  1  0  0  0  0
 10 11  1  0  0  0  0
 10 13  1  0  0  0  0
 10  9  1  0  0  0  0
 11 16  1  0  0  0  0
 11  9  1  0  0  0  0
 14 10  1  0  0  0  0
 15 11  1  0  0  0  0
 17 20  1  0  0  0  0
 17 18  1  0  0  0  0
 19 17  1  0  0  0  0
 20 25  1  0  0  0  0
 21 20  2  0  0  0  0
 21 23  1  0  0  0  0
 22 21  1  0  0  0  0
 23 24  2  0  0  0  0
 24 25  1  0  0  0  0
M  END
>  <minimizedAffinity>
-4.13922358

$$$$
