
 OpenBabel03272502233D

 26 28  0  0  0  0  0  0  0  0999 V2000
   37.3970   29.7350   50.2230 C   0  0  0  0  0  0  0  0  0  0  0  0
   37.8880   30.4560   49.1290 C   0  0  0  0  0  0  0  0  0  0  0  0
   37.2090   30.4290   47.9260 C   0  0  0  0  0  0  0  0  0  0  0  0
   36.0740   29.6860   47.8720 N   0  0  0  0  0  0  0  0  0  0  0  0
   35.6170   29.0010   48.9300 C   0  0  0  0  0  0  0  0  0  0  0  0
   36.2820   29.0300   50.1010 N   0  0  0  0  0  0  0  0  0  0  0  0
   37.9020   29.7360   51.1730 H   0  0  0  0  0  0  0  0  0  0  0  0
   38.7750   31.0290   49.1950 H   0  0  0  0  0  0  0  0  0  0  0  0
   37.6320   31.1260   46.7190 C   0  0  0  0  0  0  0  0  0  0  0  0
   36.9520   31.0020   45.5340 C   0  0  0  0  0  0  0  0  0  0  0  0
   37.3510   31.6540   44.3770 C   0  0  0  0  0  0  0  0  0  0  0  0
   38.4500   32.4460   44.4040 N   0  0  0  0  0  0  0  0  0  0  0  0
   39.0990   32.5520   45.5720 C   0  0  0  0  0  0  0  0  0  0  0  0
   38.7230   31.9280   46.6950 N   0  0  0  0  0  0  0  0  0  0  0  0
   36.0680   30.3760   45.4790 H   0  0  0  0  0  0  0  0  0  0  0  0
   36.8130   31.5530   43.4440 H   0  0  0  0  0  0  0  0  0  0  0  0
   40.3120   33.4140   45.6430 C   0  0  0  0  0  0  0  0  0  0  0  0
   40.3360   34.0180   46.8790 F   0  0  0  0  0  0  0  0  0  0  0  0
   41.4690   32.6500   45.4170 F   0  0  0  0  0  0  0  0  0  0  0  0
   40.2870   34.4020   44.7070 F   0  0  0  0  0  0  0  0  0  0  0  0
   34.3540   28.2440   48.6770 C   0  0  0  0  0  0  0  0  0  0  0  0
   33.9710   27.2150   47.9430 C   0  0  0  0  0  0  0  0  0  0  0  0
   34.7890   26.8050   47.3690 H   0  0  0  0  0  0  0  0  0  0  0  0
   32.6660   26.8100   47.9910 C   0  0  0  0  0  3  0  0  0  0  0  0
   31.8080   27.5290   48.8310 C   0  0  0  0  0  3  0  0  0  0  0  0
   32.9900   28.8250   49.5520 S   0  0  0  0  0  0  0  0  0  0  0  0
  1  7  1  0  0  0  0
  2  8  1  0  0  0  0
  2  1  2  0  0  0  0
  3  2  1  0  0  0  0
  4  3  2  0  0  0  0
  4  5  1  0  0  0  0
  5  6  2  0  0  0  0
  6  1  1  0  0  0  0
  9  3  1  0  0  0  0
 10  9  2  0  0  0  0
 11 12  2  0  0  0  0
 11 10  1  0  0  0  0
 12 13  1  0  0  0  0
 13 17  1  0  0  0  0
 13 14  2  0  0  0  0
 14  9  1  0  0  0  0
 15 10  1  0  0  0  0
 16 11  1  0  0  0  0
 17 18  1  0  0  0  0
 19 17  1  0  0  0  0
 20 17  1  0  0  0  0
 21  5  1  0  0  0  0
 21 26  1  0  0  0  0
 22 24  1  0  0  0  0
 22 21  2  0  0  0  0
 23 22  1  0  0  0  0
 24 25  2  0  0  0  0
 25 26  1  0  0  0  0
M  END
>  <minimizedAffinity>
-5.6609292

>  <minimizedRMSD>
1.0809412

$$$$
