
 OpenBabel03272504223D

 36 38  0  0  1  0  0  0  0  0999 V2000
   36.8340   31.5840   48.6930 O   0  0  0  0  0  0  0  0  0  0  0  0
   38.8470   32.4000   47.8440 C   0  0  2  0  0  0  0  0  0  0  0  0
   38.1960   31.3860   48.7580 C   0  0  1  0  0  0  0  0  0  0  0  0
   38.7290   31.9210   50.0900 C   0  0  0  0  0  0  0  0  0  0  0  0
   38.3940   33.2670   49.9820 O   0  0  0  0  0  0  0  0  0  0  0  0
   38.6530   33.6570   48.6910 C   0  0  0  0  0  0  0  0  0  0  0  0
   39.9050   32.1590   47.7090 H   0  0  0  0  0  0  0  0  0  0  0  0
   38.5210   30.3490   48.5800 H   0  0  0  0  0  0  0  0  0  0  0  0
   39.8060   31.7400   50.1560 H   0  0  0  0  0  0  0  0  0  0  0  0
   38.1300   31.4410   50.8730 H   0  0  0  0  0  0  0  0  0  0  0  0
   39.5850   34.2680   48.6080 H   0  0  0  0  0  0  0  0  0  0  0  0
   37.8420   34.3010   48.2690 H   0  0  0  0  0  0  0  0  0  0  0  0
   38.1160   32.4400   46.6610 O   0  0  0  0  0  0  0  0  0  0  0  0
   38.8000   31.9860   45.5070 C   0  0  0  0  0  0  0  0  0  0  0  0
   39.0580   30.6540   45.1730 C   0  0  0  0  0  0  0  0  0  0  0  0
   38.7170   29.8750   45.8350 H   0  0  0  0  0  0  0  0  0  0  0  0
   39.7310   30.3750   44.0210 C   0  0  0  0  0  3  0  0  0  0  0  0
   40.1550   31.4750   43.1870 C   0  0  0  0  0  3  0  0  0  0  0  0
   39.5920   32.9100   44.0460 S   0  0  0  0  0  0  0  0  0  0  0  0
   35.9240   29.8530   46.9800 O   0  0  0  0  0  0  0  0  0  0  0  0
   35.9700   30.1650   48.4570 P   0  0  1  0  0  0  0  0  0  0  0  0
   36.7500   28.8680   49.2460 O   0  0  0  0  0  0  0  0  0  0  0  0
   37.4410   29.1710   49.8840 H   0  0  0  0  0  0  0  0  0  0  0  0
   34.3930   30.3310   49.0720 O   0  0  0  0  0  0  0  0  0  0  0  0
   34.1230   29.1880   49.7980 C   0  0  0  0  0  0  0  0  0  0  0  0
   33.6110   29.4550   50.7660 H   0  0  0  0  0  0  0  0  0  0  0  0
   35.0330   28.6450   50.1190 H   0  0  0  0  0  0  0  0  0  0  0  0
   33.2620   28.2210   49.0850 C   0  0  0  0  0  0  0  0  0  0  0  0
   33.8920   27.3310   48.2470 C   0  0  0  0  0  0  0  0  0  0  0  0
   33.1350   26.3920   47.5440 C   0  0  0  0  0  0  0  0  0  0  0  0
   31.7850   26.4170   47.7350 N   0  0  0  0  0  0  0  0  0  0  0  0
   31.1910   27.2990   48.5620 C   0  0  0  0  0  0  0  0  0  0  0  0
   31.9260   28.2080   49.2420 N   0  0  0  0  0  0  0  0  0  0  0  0
   34.9420   27.2340   48.0310 H   0  0  0  0  0  0  0  0  0  0  0  0
   33.5300   25.6620   46.8720 H   0  0  0  0  0  0  0  0  0  0  0  0
   30.1170   27.2310   48.6400 H   0  0  0  0  0  0  0  0  0  0  0  0
  1  3  1  0  0  0  0
  2  7  1  6  0  0  0
  2  6  1  0  0  0  0
  2  3  1  0  0  0  0
  3  8  1  6  0  0  0
  3  4  1  0  0  0  0
  4  9  1  0  0  0  0
  4 10  1  0  0  0  0
  5  4  1  0  0  0  0
  6  5  1  0  0  0  0
 11  6  1  0  0  0  0
 12  6  1  0  0  0  0
 13  2  1  0  0  0  0
 14 13  1  0  0  0  0
 15 14  2  0  0  0  0
 15 16  1  0  0  0  0
 17 15  1  0  0  0  0
 18 17  2  0  0  0  0
 18 19  1  0  0  0  0
 19 14  1  0  0  0  0
 21 20  2  6  0  0  0
 21  1  1  0  0  0  0
 21 24  1  0  0  0  0
 21 22  1  0  0  0  0
 22 23  1  0  0  0  0
 24 25  1  0  0  0  0
 25 27  1  0  0  0  0
 25 26  1  0  0  0  0
 28 33  1  0  0  0  0
 28 25  1  0  0  0  0
 29 28  2  0  0  0  0
 30 31  2  0  0  0  0
 30 29  1  0  0  0  0
 31 32  1  0  0  0  0
 32 36  1  0  0  0  0
 32 33  2  0  0  0  0
 34 29  1  0  0  0  0
 35 30  1  0  0  0  0
M  END
>  <minimizedAffinity>
-4.59663534

>  <minimizedRMSD>
0.284950078

$$$$
