
 OpenBabel03272506023D

 43 46  0  0  1  0  0  0  0  0999 V2000
   35.2780   30.2090   49.4830 C   0  0  2  0  0  0  0  0  0  0  0  0
   36.2060   31.2770   49.1360 C   0  0  0  0  0  0  0  0  0  0  0  0
   37.6960   30.8130   49.1670 C   0  0  2  0  0  0  0  0  0  0  0  0
   38.1160   30.2890   50.4430 C   0  0  0  0  0  0  0  0  0  0  0  0
   37.0380   29.4660   51.1580 C   0  0  0  0  0  0  0  0  0  0  0  0
   35.9720   29.0370   50.1910 C   0  0  0  0  0  0  0  0  0  0  0  0
   34.5300   30.5540   50.2600 H   0  0  0  0  0  0  0  0  0  0  0  0
   36.2070   32.0390   49.9890 H   0  0  0  0  0  0  0  0  0  0  0  0
   36.1300   31.8630   48.2480 H   0  0  0  0  0  0  0  0  0  0  0  0
   37.8320   30.1040   48.3330 H   0  0  0  0  0  0  0  0  0  0  0  0
   38.3800   31.0880   51.1620 H   0  0  0  0  0  0  0  0  0  0  0  0
   39.0460   29.7000   50.3120 H   0  0  0  0  0  0  0  0  0  0  0  0
   36.6440   29.9510   52.0480 H   0  0  0  0  0  0  0  0  0  0  0  0
   37.5300   28.5320   51.4960 H   0  0  0  0  0  0  0  0  0  0  0  0
   35.2160   28.4640   50.7320 H   0  0  0  0  0  0  0  0  0  0  0  0
   36.4270   28.3620   49.4400 H   0  0  0  0  0  0  0  0  0  0  0  0
   38.5490   31.0420   46.3510 Cl  0  0  0  0  0  0  0  0  0  0  0  0
   38.9290   32.2550   47.5450 C   0  0  0  0  0  0  0  0  0  0  0  0
   38.4400   32.0620   48.8130 C   0  0  0  0  0  0  0  0  0  0  0  0
   38.7570   33.0900   49.6880 C   0  0  0  0  0  0  0  0  0  0  0  0
   39.4930   34.1990   49.3210 C   0  0  0  0  0  0  0  0  0  0  0  0
   39.9550   34.3190   48.0130 C   0  0  0  0  0  0  0  0  0  0  0  0
   39.6600   33.3090   47.0950 C   0  0  0  0  0  0  0  0  0  0  0  0
   38.3960   33.0020   50.7090 H   0  0  0  0  0  0  0  0  0  0  0  0
   39.6810   34.9390   50.0860 H   0  0  0  0  0  0  0  0  0  0  0  0
   40.5310   35.1920   47.7390 H   0  0  0  0  0  0  0  0  0  0  0  0
   40.1300   33.4310   45.7650 N   0  0  0  0  0  0  0  0  0  0  0  0
   39.8830   34.1810   45.0990 H   0  0  0  0  0  0  0  0  0  0  0  0
   40.7870   32.8020   45.2470 H   0  0  0  0  0  0  0  0  0  0  0  0
   34.5030   29.6350   48.3880 C   0  0  0  0  0  0  0  0  0  0  0  0
   35.1210   29.7210   47.1490 C   0  0  0  0  0  0  0  0  0  0  0  0
   34.4800   29.1790   46.0400 C   0  0  0  0  0  0  0  0  0  0  0  0
   33.2350   28.5720   46.2290 N   0  0  0  0  0  0  0  0  0  0  0  0
   32.6720   28.5120   47.4420 C   0  0  0  0  0  0  0  0  0  0  0  0
   33.3250   29.0440   48.4800 N   0  0  0  0  0  0  0  0  0  0  0  0
   36.0330   30.1160   46.7240 H   0  0  0  0  0  0  0  0  0  0  0  0
   34.7350   29.1160   45.0080 H   0  0  0  0  0  0  0  0  0  0  0  0
   31.3690   27.8750   47.6400 C   0  0  0  0  0  0  0  0  0  0  0  0
   30.9900   27.6800   48.8970 C   0  0  0  0  0  0  0  0  0  0  0  0
   31.4360   27.8900   49.8870 H   0  0  0  0  0  0  0  0  0  0  0  0
   29.8410   27.1160   49.3640 C   0  0  0  0  0  0  0  0  0  0  0  0
   29.0150   26.7230   48.1850 C   0  0  0  0  0  0  0  0  0  0  0  0
   30.0280   27.2290   46.6710 S   0  0  0  0  0  0  0  0  0  0  0  0
  1  6  1  0  0  0  0
  1  7  1  1  0  0  0
  2  3  1  0  0  0  0
  2  1  1  0  0  0  0
  2  8  1  0  0  0  0
  3 10  1  6  0  0  0
  3  4  1  0  0  0  0
  4  5  1  0  0  0  0
  4 11  1  0  0  0  0
  5 14  1  0  0  0  0
  5 13  1  0  0  0  0
  6 15  1  0  0  0  0
  6  5  1  0  0  0  0
  9  2  1  0  0  0  0
 12  4  1  0  0  0  0
 16  6  1  0  0  0  0
 17 18  1  0  0  0  0
 18 19  1  0  0  0  0
 19  3  1  0  0  0  0
 19 20  2  0  0  0  0
 20 24  1  0  0  0  0
 21 20  1  0  0  0  0
 21 25  1  0  0  0  0
 22 21  2  0  0  0  0
 23 18  2  0  0  0  0
 23 22  1  0  0  0  0
 26 22  1  0  0  0  0
 27 23  1  0  0  0  0
 28 27  1  0  0  0  0
 29 27  1  0  0  0  0
 30 35  1  0  0  0  0
 30  1  1  0  0  0  0
 31 30  2  0  0  0  0
 32 33  2  0  0  0  0
 32 31  1  0  0  0  0
 33 34  1  0  0  0  0
 34 38  1  0  0  0  0
 34 35  2  0  0  0  0
 36 31  1  0  0  0  0
 37 32  1  0  0  0  0
 38 39  2  0  0  0  0
 39 41  1  0  0  0  0
 39 40  1  0  0  0  0
 42 41  2  0  0  0  0
 43 38  1  0  0  0  0
 43 42  1  0  0  0  0
M  END
>  <minimizedAffinity>
-7.56552172

>  <minimizedRMSD>
1.21106839

$$$$
