
 OpenBabel03272509423D

 35 37  0  0  1  0  0  0  0  0999 V2000
   36.9180   30.9090   48.9650 C   0  0  0  0  0  0  0  0  0  0  0  0
   36.6450   31.7890   50.0120 C   0  0  0  0  0  0  0  0  0  0  0  0
   37.2800   33.0170   50.1240 C   0  0  0  0  0  0  0  0  0  0  0  0
   38.2240   33.3930   49.1600 C   0  0  0  0  0  0  0  0  0  0  0  0
   38.4820   32.5200   48.1400 C   0  0  0  0  0  0  0  0  0  0  0  0
   37.8270   31.3030   48.0650 C   0  0  0  0  0  0  0  0  0  0  0  0
   35.9150   31.5070   50.7640 H   0  0  0  0  0  0  0  0  0  0  0  0
   37.0150   33.6320   50.9570 H   0  0  0  0  0  0  0  0  0  0  0  0
   38.6540   34.3490   49.3330 H   0  0  0  0  0  0  0  0  0  0  0  0
   39.2330   32.9510   47.4790 H   0  0  0  0  0  0  0  0  0  0  0  0
   36.2810   29.6140   48.8680 C   0  0  2  0  0  0  0  0  0  0  0  0
   36.7800   29.1000   47.9590 H   0  0  0  0  0  0  0  0  0  0  0  0
   33.5170   30.1360   46.5650 C   0  0  0  0  0  0  0  0  0  0  0  0
   32.6960   29.0460   46.7760 C   0  0  0  0  0  0  0  0  0  0  0  0
   33.0500   28.1460   47.7620 C   0  0  0  0  0  0  0  0  0  0  0  0
   34.1980   28.3590   48.4940 N   0  0  0  0  0  0  0  0  0  0  0  0
   34.9430   29.4170   48.2420 C   0  0  0  0  0  0  0  0  0  0  0  0
   34.6100   30.3110   47.2830 N   0  0  0  0  0  0  0  0  0  0  0  0
   33.2700   30.8680   45.7950 H   0  0  0  0  0  0  0  0  0  0  0  0
   31.8230   28.9780   46.1440 H   0  0  0  0  0  0  0  0  0  0  0  0
   32.4050   27.2950   47.9280 H   0  0  0  0  0  0  0  0  0  0  0  0
   36.7020   28.7920   49.7620 O   0  0  0  0  0  0  0  0  0  0  0  0
   36.2450   28.6210   50.6030 H   0  0  0  0  0  0  0  0  0  0  0  0
   38.2240   30.4670   46.9560 C   0  0  0  0  0  3  0  0  0  0  0  0
   38.9250   30.9020   45.9050 C   0  0  0  0  0  3  0  0  0  0  0  0
   39.4240   30.1290   44.7440 C   0  0  0  0  0  0  0  0  0  0  0  0
   38.8860   29.1540   44.6650 H   0  0  0  0  0  0  0  0  0  0  0  0
   40.5220   29.9410   44.8750 H   0  0  0  0  0  0  0  0  0  0  0  0
   39.2290   31.0980   43.2460 S   0  0  0  0  0  0  0  0  0  0  0  0
   37.5330   31.5980   43.0530 C   0  0  0  0  0  0  0  0  0  0  0  0
   37.3280   32.7860   42.3010 C   0  0  0  0  0  0  0  0  0  0  0  0
   37.9880   33.4770   41.8040 H   0  0  0  0  0  0  0  0  0  0  0  0
   36.1110   33.3260   42.0450 C   0  0  0  0  0  3  0  0  0  0  0  0
   34.9860   32.6080   42.5950 C   0  0  0  0  0  3  0  0  0  0  0  0
   35.7650   31.1270   43.4920 S   0  0  0  0  0  0  0  0  0  0  0  0
  1  2  1  0  0  0  0
  2  3  2  0  0  0  0
  2  7  1  0  0  0  0
  3  8  1  0  0  0  0
  4  9  1  0  0  0  0
  4  3  1  0  0  0  0
  5  4  2  0  0  0  0
  6  5  1  0  0  0  0
  6  1  2  0  0  0  0
 10  5  1  0  0  0  0
 11 12  1  6  0  0  0
 11  1  1  0  0  0  0
 11 22  1  0  0  0  0
 13 14  2  0  0  0  0
 13 18  1  0  0  0  0
 14 15  1  0  0  0  0
 15 21  1  0  0  0  0
 15 16  2  0  0  0  0
 17 16  1  0  0  0  0
 17 11  1  0  0  0  0
 18 17  2  0  0  0  0
 19 13  1  0  0  0  0
 20 14  1  0  0  0  0
 22 23  1  0  0  0  0
 24  6  1  0  0  0  0
 25 24  2  0  0  0  0
 26 28  1  0  0  0  0
 26 25  1  0  0  0  0
 27 26  1  0  0  0  0
 29 26  1  0  0  0  0
 30 29  1  0  0  0  0
 30 35  1  0  0  0  0
 31 30  2  0  0  0  0
 32 31  1  0  0  0  0
 33 31  1  0  0  0  0
 33 34  2  0  0  0  0
 34 35  1  0  0  0  0
M  END
>  <minimizedAffinity>
-5.45658064

>  <minimizedRMSD>
0.619612038

$$$$
