
 OpenBabel03272509463D

 22 23  0  0  0  0  0  0  0  0999 V2000
   34.2010   28.4080   48.4660 C   0  0  0  0  0  0  0  0  0  0  0  0
   33.3170   29.0650   48.5650 H   0  0  0  0  0  0  0  0  0  0  0  0
   34.9110   28.9230   47.7870 H   0  0  0  0  0  0  0  0  0  0  0  0
   33.8330   27.0340   47.9590 C   0  0  0  0  0  0  0  0  0  0  0  0
   33.0500   26.6640   48.6830 H   0  0  0  0  0  0  0  0  0  0  0  0
   34.6550   26.3230   47.9950 H   0  0  0  0  0  0  0  0  0  0  0  0
   33.2590   27.1780   46.5950 C   0  0  0  0  0  0  0  0  0  0  0  0
   33.4650   28.0550   45.5820 C   0  0  0  0  0  0  0  0  0  0  0  0
   34.2100   28.8270   45.8040 H   0  0  0  0  0  0  0  0  0  0  0  0
   32.7870   27.9460   44.4210 C   0  0  0  0  0  3  0  0  0  0  0  0
   31.8900   26.9090   44.3290 C   0  0  0  0  0  3  0  0  0  0  0  0
   32.0470   26.0570   46.0150 S   0  0  0  0  0  0  0  0  0  0  0  0
   34.7320   28.3010   49.7850 O   0  0  0  0  0  0  0  0  0  0  0  0
   37.3430   30.2300   51.4130 C   0  0  0  0  0  0  0  0  0  0  0  0
   38.0600   30.6670   50.3020 C   0  0  0  0  0  0  0  0  0  0  0  0
   37.6180   30.2800   49.0430 C   0  0  0  0  0  0  0  0  0  0  0  0
   36.4950   29.4900   48.9930 N   0  0  0  0  0  0  0  0  0  0  0  0
   35.8280   29.0890   50.0950 C   0  0  0  0  0  0  0  0  0  0  0  0
   36.2690   29.4710   51.3010 N   0  0  0  0  0  0  0  0  0  0  0  0
   37.7060   30.5460   52.3960 H   0  0  0  0  0  0  0  0  0  0  0  0
   38.9430   31.2880   50.3330 H   0  0  0  0  0  0  0  0  0  0  0  0
   38.1230   30.5790   48.1360 H   0  0  0  0  0  0  0  0  0  0  0  0
  1  2  1  0  0  0  0
  1 13  1  0  0  0  0
  3  1  1  0  0  0  0
  4  6  1  0  0  0  0
  4  1  1  0  0  0  0
  4  5  1  0  0  0  0
  7  4  1  0  0  0  0
  8  9  1  0  0  0  0
  8  7  2  0  0  0  0
 10  8  1  0  0  0  0
 11 10  2  0  0  0  0
 11 12  1  0  0  0  0
 12  7  1  0  0  0  0
 13 18  1  0  0  0  0
 14 20  1  0  0  0  0
 15 21  1  0  0  0  0
 15 14  2  0  0  0  0
 16 15  1  0  0  0  0
 17 16  2  0  0  0  0
 17 18  1  0  0  0  0
 18 19  2  0  0  0  0
 19 14  1  0  0  0  0
 22 16  1  0  0  0  0
M  END
>  <minimizedAffinity>
-3.56324506

>  <minimizedRMSD>
0.0678240061

$$$$
