
     RDKit          3D

 42 45  0  0  0  0  0  0  0  0999 V2000
   37.3381   30.1694   51.5104 C   0  0  0  0  0  0  0  0  0  0  0  0
   38.0741   30.8569   50.5149 C   0  0  0  0  0  0  0  0  0  0  0  0
   37.7112   30.6518   49.1945 C   0  0  0  0  0  0  0  0  0  0  0  0
   36.6652   29.7961   48.9696 N   0  0  0  0  0  0  0  0  0  0  0  0
   35.9834   29.1566   49.9273 C   0  0  0  0  0  0  0  0  0  0  0  0
   36.3356   29.3555   51.2109 N   0  0  0  0  0  0  0  0  0  0  0  0
   38.9450   33.2604   49.0074 F   0  0  0  0  0  0  0  0  0  0  0  0
   38.9159   32.4768   47.9450 C   0  0  0  0  0  0  0  0  0  0  0  0
   38.3354   31.2575   48.0448 C   0  0  0  0  0  0  0  0  0  0  0  0
   38.3623   30.5231   46.8713 C   0  0  0  0  0  0  0  0  0  0  0  0
   38.9280   30.9865   45.7032 C   0  0  0  0  0  0  0  0  0  0  0  0
   39.5078   32.2322   45.6444 C   0  0  0  0  0  0  0  0  0  0  0  0
   39.4967   32.9849   46.7931 C   0  0  0  0  0  0  0  0  0  0  0  0
   34.9959   28.3688   49.4423 O   0  0  0  0  0  0  0  0  0  0  0  0
   34.4491   28.6512   48.1625 C   0  0  0  0  0  0  0  0  0  0  0  0
   33.5688   27.5331   47.7100 C   0  0  0  0  0  0  0  0  0  0  0  0
   32.1316   27.8990   47.7056 C   0  0  0  0  0  0  0  0  0  0  0  0
   31.3421   27.5356   48.7979 C   0  0  0  0  0  0  0  0  0  0  0  0
   30.0158   27.8254   48.8870 C   0  0  0  0  0  0  0  0  0  0  0  0
   29.4529   28.4887   47.8767 N   0  0  0  0  0  0  0  0  0  0  0  0
   30.2113   28.8480   46.8075 C   0  0  0  0  0  0  0  0  0  0  0  0
   31.5220   28.5765   46.6907 N   0  0  0  0  0  0  0  0  0  0  0  0
   37.6517   30.3556   52.5308 H   0  0  0  0  0  0  0  0  0  0  0  0
   38.8931   31.5272   50.6884 H   0  0  0  0  0  0  0  0  0  0  0  0
   37.9416   29.5302   46.7822 H   0  0  0  0  0  0  0  0  0  0  0  0
   38.9488   30.4117   44.7855 H   0  0  0  0  0  0  0  0  0  0  0  0
   39.9553   32.6142   44.7432 H   0  0  0  0  0  0  0  0  0  0  0  0
   39.9437   33.9590   46.7683 H   0  0  0  0  0  0  0  0  0  0  0  0
   35.2927   28.7902   47.4499 H   0  0  0  0  0  0  0  0  0  0  0  0
   33.8684   29.5924   48.2031 H   0  0  0  0  0  0  0  0  0  0  0  0
   33.7984   27.1944   46.6691 H   0  0  0  0  0  0  0  0  0  0  0  0
   33.7125   26.6571   48.3553 H   0  0  0  0  0  0  0  0  0  0  0  0
   31.8297   26.9971   49.6029 H   0  0  0  0  0  0  0  0  0  0  0  0
   29.4890   27.5022   49.7723 H   0  0  0  0  0  0  0  0  0  0  0  0
   29.5173   29.5584   45.7683 C   0  0  0  0  0  0  0  0  0  0  0  0
   29.8149   29.7222   44.4103 C   0  0  0  0  0  0  0  0  0  0  0  0
   30.7186   29.2348   44.0784 H   0  0  0  0  0  0  0  0  0  0  0  0
   28.9867   30.4560   43.6088 C   0  0  0  0  0  0  0  0  0  0  0  0
   27.8384   31.0322   44.1969 C   0  0  0  0  0  0  0  0  0  0  0  0
   27.8990   30.5383   45.9507 S   0  0  0  0  0  0  0  0  0  0  0  0
   29.1971   30.5952   42.5592 H   0  0  0  0  0  0  0  0  0  0  0  0
   27.1092   31.6486   43.6057 H   0  0  0  0  0  0  0  0  0  0  0  0
  2  1  2  0
  3  2  1  0
  4  3  2  0
  4  5  1  0
  5  6  2  0
  6  1  1  0
  8  9  2  0
  8  7  1  0
  9  3  1  0
 10  9  1  0
 11 10  2  0
 12 11  1  0
 12 13  2  0
 13  8  1  0
 14  5  1  0
 15 14  1  0
 16 15  1  0
 17 16  1  0
 17 18  2  0
 18 19  1  0
 20 19  2  0
 21 20  1  0
 22 21  2  0
 22 17  1  0
  1 23  1  0
  2 24  1  0
 10 25  1  0
 11 26  1  0
 12 27  1  0
 13 28  1  0
 15 29  1  0
 15 30  1  0
 16 31  1  0
 16 32  1  0
 18 33  1  0
 19 34  1  0
 35 36  2  0
 36 37  1  0
 36 38  1  0
 38 39  2  0
 39 40  1  0
 40 35  1  0
 38 41  1  0
 39 42  1  0
 21 35  1  0
M  ISO  8  23  14  24  14  25  14  26  14  27  14  28  14  29   8  30   8
M  ISO  5  31   8  32   8  33  14  34  14  37  15
M  END
>  <DihAtoms>  (1) 
19,20,34,35

>  <DihDeg>  (1) 
-52.771797779462126

$$$$
