
 OpenBabel03272510113D

 32 35  0  0  0  0  0  0  0  0999 V2000
   33.2190   28.3090   48.9970 C   0  0  0  0  0  0  0  0  0  0  0  0
   33.4980   28.9590   50.1490 C   0  0  0  0  0  0  0  0  0  0  0  0
   34.7390   29.4750   50.4810 C   0  0  0  0  0  0  0  0  0  0  0  0
   35.7810   29.3410   49.6150 C   0  0  0  0  0  0  0  0  0  0  0  0
   35.5000   28.6690   48.4180 C   0  0  0  0  0  0  0  0  0  0  0  0
   34.2730   28.1860   48.1450 N   0  0  0  0  0  0  0  0  0  0  0  0
   32.7330   29.1130   50.8980 H   0  0  0  0  0  0  0  0  0  0  0  0
   34.9620   29.9950   51.4020 H   0  0  0  0  0  0  0  0  0  0  0  0
   36.2470   28.4980   47.6450 H   0  0  0  0  0  0  0  0  0  0  0  0
   30.7800   27.9390   49.4520 C   0  0  0  0  0  0  0  0  0  0  0  0
   31.9290   27.7760   48.6590 C   0  0  0  0  0  0  0  0  0  0  0  0
   31.7750   27.0510   47.4860 C   0  0  0  0  0  0  0  0  0  0  0  0
   30.5640   26.5400   47.1530 N   0  0  0  0  0  0  0  0  0  0  0  0
   29.4890   26.7300   47.9580 C   0  0  0  0  0  0  0  0  0  0  0  0
   29.5910   27.4210   49.0950 N   0  0  0  0  0  0  0  0  0  0  0  0
   30.8640   28.4920   50.3630 H   0  0  0  0  0  0  0  0  0  0  0  0
   32.6390   26.8900   46.8220 H   0  0  0  0  0  0  0  0  0  0  0  0
   28.5450   26.2940   47.6320 H   0  0  0  0  0  0  0  0  0  0  0  0
   37.0940   29.7950   49.7770 O   0  0  0  0  0  0  0  0  0  0  0  0
   37.6780   30.6720   48.8790 C   0  0  0  0  0  0  0  0  0  0  0  0
   38.2790   31.7890   49.4730 C   0  0  0  0  0  0  0  0  0  0  0  0
   38.8270   32.5910   48.4930 C   0  0  0  0  0  0  0  0  0  0  0  0
   38.5470   31.9490   47.3510 N   0  0  0  0  0  0  0  0  0  0  0  0
   37.8830   30.8380   47.5660 N   0  0  0  0  0  0  0  0  0  0  0  0
   38.3930   32.1340   50.5150 H   0  0  0  0  0  0  0  0  0  0  0  0
   39.3690   33.5310   48.5470 H   0  0  0  0  0  0  0  0  0  0  0  0
   38.8640   32.3080   45.9900 C   0  0  0  0  0  0  0  0  0  0  0  0
   39.9540   33.0920   45.7340 C   0  0  0  0  0  0  0  0  0  0  0  0
   40.6720   33.5200   46.4180 H   0  0  0  0  0  0  0  0  0  0  0  0
   40.3570   33.4950   44.5240 C   0  0  0  0  0  3  0  0  0  0  0  0
   39.5210   33.0260   43.4260 C   0  0  0  0  0  3  0  0  0  0  0  0
   38.1600   31.9890   44.3100 S   0  0  0  0  0  0  0  0  0  0  0  0
  1  2  1  0  0  0  0
  2  3  2  0  0  0  0
  2  7  1  0  0  0  0
  3  8  1  0  0  0  0
  4 19  1  0  0  0  0
  4  3  1  0  0  0  0
  5  4  2  0  0  0  0
  6  5  1  0  0  0  0
  6  1  2  0  0  0  0
  9  5  1  0  0  0  0
 10 16  1  0  0  0  0
 11  1  1  0  0  0  0
 11 10  2  0  0  0  0
 12 11  1  0  0  0  0
 13 12  2  0  0  0  0
 13 14  1  0  0  0  0
 14 15  2  0  0  0  0
 15 10  1  0  0  0  0
 17 12  1  0  0  0  0
 18 14  1  0  0  0  0
 20 21  1  0  0  0  0
 20 19  1  0  0  0  0
 21 25  1  0  0  0  0
 22 26  1  0  0  0  0
 22 21  2  0  0  0  0
 23 24  1  0  0  0  0
 23 22  1  0  0  0  0
 24 20  2  0  0  0  0
 27 23  1  0  0  0  0
 28 27  2  0  0  0  0
 28 29  1  0  0  0  0
 30 28  1  0  0  0  0
 31 32  1  0  0  0  0
 31 30  2  0  0  0  0
 32 27  1  0  0  0  0
M  END
>  <minimizedAffinity>
-5.66814518

>  <minimizedRMSD>
1.76834679

$$$$
