
 OpenBabel03272507283D

 38 40  0  0  1  0  0  0  0  0999 V2000
   36.3140   30.4580   48.2640 C   0  0  0  0  0  0  0  0  0  0  0  0
   36.5330   30.7070   46.8930 C   0  0  0  0  0  0  0  0  0  0  0  0
   35.6570   30.1040   45.9910 C   0  0  0  0  0  0  0  0  0  0  0  0
   34.6640   29.3300   46.4620 N   0  0  0  0  0  0  0  0  0  0  0  0
   34.4820   29.1140   47.7810 C   0  0  0  0  0  0  0  0  0  0  0  0
   35.3000   29.6730   48.6710 N   0  0  0  0  0  0  0  0  0  0  0  0
   35.8000   30.3010   44.6220 N   0  0  0  0  0  0  0  0  0  0  0  0
   36.3200   31.5360   43.9750 C   0  0  0  0  0  0  0  0  0  0  0  0
   36.0870   31.4240   42.5250 C   0  0  0  0  0  0  0  0  0  0  0  0
   35.0580   30.3830   42.4240 C   0  0  0  0  0  0  0  0  0  0  0  0
   35.4930   29.4650   43.5080 C   0  0  2  0  0  0  0  0  0  0  0  0
   37.0610   30.9810   48.8720 H   0  0  0  0  0  0  0  0  0  0  0  0
   37.3070   31.3130   46.4740 H   0  0  0  0  0  0  0  0  0  0  0  0
   33.7130   28.5080   48.2320 H   0  0  0  0  0  0  0  0  0  0  0  0
   35.5130   32.2830   44.4020 H   0  0  0  0  0  0  0  0  0  0  0  0
   37.2050   31.9520   44.3840 H   0  0  0  0  0  0  0  0  0  0  0  0
   35.4760   32.3940   42.2680 H   0  0  0  0  0  0  0  0  0  0  0  0
   36.8720   31.5220   41.8190 H   0  0  0  0  0  0  0  0  0  0  0  0
   34.0360   30.7230   42.6070 H   0  0  0  0  0  0  0  0  0  0  0  0
   35.0750   29.8810   41.4200 H   0  0  0  0  0  0  0  0  0  0  0  0
   34.4190   28.4130   43.7780 C   0  0  0  0  0  0  0  0  0  0  0  0
   33.3650   29.0340   44.4220 F   0  0  0  0  0  0  0  0  0  0  0  0
   34.8010   27.3710   44.5700 F   0  0  0  0  0  0  0  0  0  0  0  0
   33.9370   28.0160   42.5500 F   0  0  0  0  0  0  0  0  0  0  0  0
   36.6920   28.7410   43.1650 C   0  0  2  0  0  0  0  0  0  0  0  0
   36.9460   28.0120   43.9240 H   0  0  0  0  0  0  0  0  0  0  0  0
   38.0470   29.5010   43.1900 C   0  0  0  0  0  0  0  0  0  0  0  0
   38.9780   29.7050   44.2650 C   0  0  0  0  0  0  0  0  0  0  0  0
   38.5740   29.3410   45.1880 H   0  0  0  0  0  0  0  0  0  0  0  0
   40.1530   30.2890   43.9680 C   0  0  0  0  0  3  0  0  0  0  0  0
   40.4270   30.6780   42.6180 C   0  0  0  0  0  3  0  0  0  0  0  0
   38.9950   30.2230   41.6740 S   0  0  0  0  0  0  0  0  0  0  0  0
   36.6330   28.4540   41.9430 O   0  0  0  0  0  0  0  0  0  0  0  0
   36.8350   27.4210   41.1090 C   0  0  0  0  0  0  0  0  0  0  0  0
   35.9720   27.3600   40.2280 O   0  0  0  0  0  0  0  0  0  0  0  0
   37.6360   26.3020   40.7480 N   0  0  0  0  0  0  0  0  0  0  0  0
   37.3960   25.3120   41.0320 H   0  0  0  0  0  0  0  0  0  0  0  0
   38.4560   26.6040   40.1880 H   0  0  0  0  0  0  0  0  0  0  0  0
  1  6  1  0  0  0  0
  1 12  1  0  0  0  0
  2  1  2  0  0  0  0
  3  4  2  0  0  0  0
  3  2  1  0  0  0  0
  4  5  1  0  0  0  0
  5 14  1  0  0  0  0
  5  6  2  0  0  0  0
  7  3  1  0  0  0  0
  8 16  1  0  0  0  0
  8 15  1  0  0  0  0
  8  7  1  0  0  0  0
  9  8  1  0  0  0  0
 10  9  1  0  0  0  0
 10 19  1  0  0  0  0
 10 11  1  0  0  0  0
 11 21  1  1  0  0  0
 11  7  1  0  0  0  0
 13  2  1  0  0  0  0
 17  9  1  0  0  0  0
 18  9  1  0  0  0  0
 20 10  1  0  0  0  0
 21 22  1  0  0  0  0
 21 23  1  0  0  0  0
 24 21  1  0  0  0  0
 25 27  1  0  0  0  0
 25 11  1  0  0  0  0
 25 26  1  1  0  0  0
 27 28  2  0  0  0  0
 28 29  1  0  0  0  0
 30 28  1  0  0  0  0
 31 30  2  0  0  0  0
 32 31  1  0  0  0  0
 32 27  1  0  0  0  0
 33 25  1  0  0  0  0
 34 33  1  0  0  0  0
 35 34  2  0  0  0  0
 36 37  1  0  0  0  0
 36 34  1  0  0  0  0
 38 36  1  0  0  0  0
M  END
>  <minimizedAffinity>
-3.07562208

>  <minimizedRMSD>
4.08472681

$$$$
