
 OpenBabel03272507583D

 29 31  0  0  0  0  0  0  0  0999 V2000
   37.0030   31.3210   48.5670 C   0  0  0  0  0  0  0  0  0  0  0  0
   37.1880   32.2680   49.5680 C   0  0  0  0  0  0  0  0  0  0  0  0
   38.1260   33.2680   49.3940 C   0  0  0  0  0  0  0  0  0  0  0  0
   38.8770   33.3450   48.2550 C   0  0  0  0  0  0  0  0  0  0  0  0
   38.6720   32.3960   47.2850 C   0  0  0  0  0  0  0  0  0  0  0  0
   37.7550   31.4090   47.4420 N   0  0  0  0  0  0  0  0  0  0  0  0
   36.6790   32.3490   50.5210 H   0  0  0  0  0  0  0  0  0  0  0  0
   38.3350   34.0420   50.1140 H   0  0  0  0  0  0  0  0  0  0  0  0
   39.6370   34.0400   47.9530 H   0  0  0  0  0  0  0  0  0  0  0  0
   35.1640   28.5340   50.2610 C   0  0  0  0  0  0  0  0  0  0  0  0
   36.1810   29.4900   49.9650 C   0  0  0  0  0  0  0  0  0  0  0  0
   35.9890   30.3390   48.8920 C   0  0  0  0  0  0  0  0  0  0  0  0
   34.8400   30.2240   48.1710 N   0  0  0  0  0  0  0  0  0  0  0  0
   33.8920   29.2960   48.4880 C   0  0  0  0  0  0  0  0  0  0  0  0
   34.0440   28.4640   49.5130 N   0  0  0  0  0  0  0  0  0  0  0  0
   32.7810   29.3740   47.5820 N   0  0  0  0  0  0  0  0  0  0  0  0
   35.2690   27.8500   51.0890 H   0  0  0  0  0  0  0  0  0  0  0  0
   32.9360   28.9400   46.6310 H   0  0  0  0  0  0  0  0  0  0  0  0
   32.0540   29.8720   48.1250 H   0  0  0  0  0  0  0  0  0  0  0  0
   37.3970   29.5190   50.8290 C   0  0  0  0  0  0  0  0  0  0  0  0
   38.5300   29.8200   50.0800 F   0  0  0  0  0  0  0  0  0  0  0  0
   37.2240   30.4850   51.7780 F   0  0  0  0  0  0  0  0  0  0  0  0
   37.6330   28.3210   51.4690 F   0  0  0  0  0  0  0  0  0  0  0  0
   39.3150   32.2040   45.9540 C   0  0  0  0  0  0  0  0  0  0  0  0
   40.2390   31.2620   45.8440 C   0  0  0  0  0  0  0  0  0  0  0  0
   40.6690   30.5390   46.5590 H   0  0  0  0  0  0  0  0  0  0  0  0
   40.9450   30.9160   44.7450 C   0  0  0  0  0  3  0  0  0  0  0  0
   40.5270   31.7740   43.6330 C   0  0  0  0  0  3  0  0  0  0  0  0
   39.1860   32.9170   44.4040 S   0  0  0  0  0  0  0  0  0  0  0  0
  1 12  1  0  0  0  0
  1  2  1  0  0  0  0
  2  7  1  0  0  0  0
  3  2  2  0  0  0  0
  3  8  1  0  0  0  0
  4  3  1  0  0  0  0
  5  6  1  0  0  0  0
  5  4  2  0  0  0  0
  6  1  2  0  0  0  0
  9  4  1  0  0  0  0
 10 17  1  0  0  0  0
 11 10  1  0  0  0  0
 11 20  1  0  0  0  0
 12 11  2  0  0  0  0
 13 14  2  0  0  0  0
 13 12  1  0  0  0  0
 14 15  1  0  0  0  0
 15 10  2  0  0  0  0
 16 19  1  0  0  0  0
 16 14  1  0  0  0  0
 18 16  1  0  0  0  0
 20 23  1  0  0  0  0
 20 22  1  0  0  0  0
 21 20  1  0  0  0  0
 24  5  1  0  0  0  0
 25 24  2  0  0  0  0
 25 26  1  0  0  0  0
 27 25  1  0  0  0  0
 28 29  1  0  0  0  0
 28 27  2  0  0  0  0
 29 24  1  0  0  0  0
M  END
>  <minimizedAffinity>
-7.01623487

>  <minimizedRMSD>
0.6502918

$$$$
