REMARK  Name = 
REMARK  8 active torsions:
REMARK  status: ('A' for Active; 'I' for Inactive)
REMARK    1  A    between atoms: P_2  and  O_3
REMARK    2  A    between atoms: P_2  and  O_4
REMARK    3  A    between atoms: P_2  and  O_12
REMARK    4  A    between atoms: O_4  and  C_5
REMARK    5  A    between atoms: C_5  and  C_6
REMARK    6  A    between atoms: O_12  and  C_14
REMARK    7  A    between atoms: C_13  and  O_18
REMARK    8  A    between atoms: O_18  and  C_31
REMARK                            x       y       z     vdW  Elec       q    Type
REMARK                         _______ _______ _______ _____ _____    ______ ____
ROOT
ATOM      1  O   UNL     1      36.886  31.642  48.744  0.00  0.00    +0.000 OA
ENDROOT
BRANCH   1   3
ATOM      2  C   UNL     1      38.858  32.473  47.817  0.00  0.00    +0.000 C 
ATOM      3  C   UNL     1      38.252  31.462  48.765  0.00  0.00    +0.000 C 
ATOM      4  C   UNL     1      38.823  32.020  50.071  0.00  0.00    +0.000 C 
ATOM      5  O   UNL     1      38.467  33.361  49.959  0.00  0.00    +0.000 OA
ATOM      6  C   UNL     1      38.677  33.738  48.655  0.00  0.00    +0.000 C 
ATOM      7  H   UNL     1      39.914  32.244  47.649  0.00  0.00    +0.000 HD
ATOM      8  H   UNL     1      38.585  30.427  48.588  0.00  0.00    +0.000 HD
ATOM      9  H   UNL     1      39.904  31.854  50.103  0.00  0.00    +0.000 HD
ATOM     10  H   UNL     1      38.258  31.543  50.880  0.00  0.00    +0.000 HD
ATOM     11  H   UNL     1      39.597  34.359  48.533  0.00  0.00    +0.000 HD
ATOM     12  H   UNL     1      37.844  34.366  48.253  0.00  0.00    +0.000 HD
BRANCH   2  13
ATOM     13  O   UNL     1      38.087  32.489  46.659  0.00  0.00    +0.000 OA
BRANCH  13  14
ATOM     14  C   UNL     1      38.785  32.210  45.459  0.00  0.00    +0.000 A 
ATOM     15  C   UNL     1      39.409  33.149  44.632  0.00  0.00    +0.000 A 
ATOM     16  H   UNL     1      39.374  34.191  44.904  0.00  0.00    +0.000 HD
ATOM     17  C   UNL     1      40.044  32.722  43.504  0.00  0.00    +0.000 A 
ATOM     18  C   UNL     1      40.048  31.310  43.206  0.00  0.00    +0.000 A 
ATOM     19  S   UNL     1      39.143  30.586  44.538  0.00  0.00    +0.000 S 
ENDBRANCH  13  14
ENDBRANCH   2  13
ENDBRANCH   1   3
BRANCH   1  21
ATOM     20  O   UNL     1      36.036  29.947  46.966  0.00  0.00    +0.000 OA
ATOM     21  P   UNL     1      36.037  30.225  48.450  0.00  0.00    +0.000 P 
BRANCH  21  22
ATOM     22  O   UNL     1      36.801  28.913  49.231  0.00  0.00    +0.000 OA
ATOM     23  H   UNL     1      37.471  29.205  49.896  0.00  0.00    +0.000 HD
ENDBRANCH  21  22
BRANCH  21  24
ATOM     24  O   UNL     1      34.442  30.369  49.022  0.00  0.00    +0.000 OA
BRANCH  24  25
ATOM     25  C   UNL     1      34.178  29.235  49.764  0.00  0.00    +0.000 C 
ATOM     26  H   UNL     1      33.669  29.513  50.731  0.00  0.00    +0.000 HD
ATOM     27  H   UNL     1      35.090  28.698  50.088  0.00  0.00    +0.000 HD
BRANCH  25  28
ATOM     28  C   UNL     1      33.315  28.257  49.067  0.00  0.00    +0.000 A 
ATOM     29  C   UNL     1      33.939  27.382  48.210  0.00  0.00    +0.000 A 
ATOM     30  C   UNL     1      33.180  26.434  47.521  0.00  0.00    +0.000 A 
ATOM     31  N   UNL     1      31.835  26.436  47.745  0.00  0.00    +0.000 NA
ATOM     32  C   UNL     1      31.247  27.304  48.590  0.00  0.00    +0.000 A 
ATOM     33  N   UNL     1      31.984  28.222  49.257  0.00  0.00    +0.000 NA
ATOM     34  H   UNL     1      34.985  27.303  47.968  0.00  0.00    +0.000 HD
ATOM     35  H   UNL     1      33.570  25.713  46.836  0.00  0.00    +0.000 HD
ATOM     36  H   UNL     1      30.177  27.218  48.694  0.00  0.00    +0.000 HD
ENDBRANCH  25  28
ENDBRANCH  24  25
ENDBRANCH  21  24
ENDBRANCH   1  21
TORSDOF 8
