
     RDKit          3D

 28 29  0  0  0  0  0  0  0  0999 V2000
   38.2253   31.5899   47.7908 C   0  0  0  0  0  0  0  0  0  0  0  0
   38.2119   32.5962   48.6095 C   0  0  0  0  0  0  0  0  0  0  0  0
   40.5635   32.7493   45.1222 C   0  0  0  0  0  0  0  0  0  0  0  0
   39.7794   32.6997   46.2793 C   0  0  0  0  0  0  0  0  0  0  0  0
   39.0058   31.5883   46.5882 C   0  0  0  0  0  0  0  0  0  0  0  0
   39.0520   30.5666   45.7181 N   0  0  0  0  0  0  0  0  0  0  0  0
   39.7973   30.6052   44.6127 C   0  0  0  0  0  0  0  0  0  0  0  0
   40.5514   31.6764   44.2998 N   0  0  0  0  0  0  0  0  0  0  0  0
   37.3766   32.4617   49.8464 C   0  0  2  0  0  0  0  0  0  0  0  0
   36.3763   30.9689   49.6936 S   0  0  0  0  0  0  0  0  0  0  0  0
   36.7257   29.8133   51.0186 C   0  0  0  0  0  0  0  0  0  0  0  0
   37.5443   30.3596   52.0003 F   0  0  0  0  0  0  0  0  0  0  0  0
   35.5830   29.2421   51.5427 F   0  0  0  0  0  0  0  0  0  0  0  0
   37.4417   28.7348   50.4407 F   0  0  0  0  0  0  0  0  0  0  0  0
   37.6175   30.6808   47.9690 H   0  0  0  0  0  0  0  0  0  0  0  0
   38.7186   33.5366   48.5721 H   0  0  0  0  0  0  0  0  0  0  0  0
   41.1620   33.6128   44.8952 H   0  0  0  0  0  0  0  0  0  0  0  0
   39.8450   33.5838   46.8892 H   0  0  0  0  0  0  0  0  0  0  0  0
   39.7587   29.7478   43.9728 H   0  0  0  0  0  0  0  0  0  0  0  0
   38.1101   32.2934   50.7214 H   0  0  0  0  0  0  0  0  0  0  0  0
   36.6293   33.6301   50.1415 C   0  0  0  0  0  0  0  0  0  0  0  0
   35.9179   34.3083   51.1594 C   0  0  0  0  0  0  0  0  0  0  0  0
   35.9382   33.7139   52.0462 H   0  0  0  0  0  0  0  0  0  0  0  0
   35.3615   35.5286   50.8708 C   0  0  0  0  0  0  0  0  0  0  0  0
   35.5454   36.0258   49.5538 C   0  0  0  0  0  0  0  0  0  0  0  0
   36.5077   34.7341   48.7556 S   0  0  0  0  0  0  0  0  0  0  0  0
   34.8192   36.0407   51.6846 H   0  0  0  0  0  0  0  0  0  0  0  0
   35.1702   36.9595   49.2123 H   0  0  0  0  0  0  0  0  0  0  0  0
  1  2  2  0
  2  9  1  0
  3  4  2  0
  4  5  1  0
  5  1  1  0
  6  5  2  0
  7  6  1  0
  8  7  2  0
  8  3  1  0
 10  9  1  0
 10 11  1  0
 11 13  1  0
 11 12  1  0
 14 11  1  0
  1 15  1  0
  2 16  1  0
  3 17  1  0
  4 18  1  0
  7 19  1  0
  9 20  1  1
 21 22  2  0
 22 23  1  0
 22 24  1  0
 24 25  2  0
 25 26  1  0
 26 21  1  0
 24 27  1  0
 25 28  1  0
  9 21  1  0
M  ISO  5  17  14  18  14  19  14  20   8  23  15
M  END
>  <DihAtoms>  (1) 
1,8,20,21

>  <DihDeg>  (1) 
-102.10005803191174

$$$$
