REMARK  Name = 
REMARK  2 active torsions:
REMARK  status: ('A' for Active; 'I' for Inactive)
REMARK    1  A    between atoms: C_2  and  C_12
REMARK    2  A    between atoms: C_20  and  C_36
REMARK                            x       y       z     vdW  Elec       q    Type
REMARK                         _______ _______ _______ _____ _____    ______ ____
ROOT
ATOM      1  C   UNL     1      35.838  28.930  49.387  0.00  0.00    +0.000 A 
ATOM      2  C   UNL     1      35.843  30.091  48.581  0.00  0.00    +0.000 A 
ATOM      3  C   UNL     1      34.778  30.307  47.684  0.00  0.00    +0.000 A 
ATOM      4  N   UNL     1      33.775  29.386  47.617  0.00  0.00    +0.000 NA
ATOM      5  C   UNL     1      33.818  28.289  48.407  0.00  0.00    +0.000 A 
ATOM      6  N   UNL     1      34.813  28.060  49.269  0.00  0.00    +0.000 NA
ATOM      7  N   UNL     1      32.736  27.339  48.272  0.00  0.00    +0.000 N 
ATOM      8  C   UNL     1      31.359  27.636  48.537  0.00  0.00    +0.000 C 
ATOM      9  C   UNL     1      30.611  26.441  48.045  0.00  0.00    +0.000 C 
ATOM     10  C   UNL     1      31.597  25.607  47.239  0.00  0.00    +0.000 C 
ATOM     11  C   UNL     1      32.903  25.942  47.843  0.00  0.00    +0.000 C 
ATOM     12  H   UNL     1      36.685  28.836  50.051  0.00  0.00    +0.000 HD
ATOM     13  H   UNL     1      34.704  31.157  47.043  0.00  0.00    +0.000 HD
ATOM     14  H   UNL     1      31.107  28.562  47.964  0.00  0.00    +0.000 HD
ATOM     15  H   UNL     1      31.251  27.790  49.642  0.00  0.00    +0.000 HD
ATOM     16  H   UNL     1      29.688  26.658  47.485  0.00  0.00    +0.000 HD
ATOM     17  H   UNL     1      30.338  25.833  48.941  0.00  0.00    +0.000 HD
ATOM     18  H   UNL     1      31.517  25.918  46.193  0.00  0.00    +0.000 HD
ATOM     19  H   UNL     1      31.322  24.520  47.316  0.00  0.00    +0.000 HD
ATOM     20  H   UNL     1      33.684  25.953  47.065  0.00  0.00    +0.000 HD
ATOM     21  H   UNL     1      33.180  25.303  48.705  0.00  0.00    +0.000 HD
ENDROOT
BRANCH   2  22
ATOM     22  C   UNL     1      36.839  31.116  48.548  0.00  0.00    +0.000 A 
ATOM     23  N   UNL     1      36.792  32.023  49.567  0.00  0.00    +0.000 NA
ATOM     24  C   UNL     1      37.679  33.025  49.605  0.00  0.00    +0.000 A 
ATOM     25  N   UNL     1      38.660  33.227  48.679  0.00  0.00    +0.000 NA
ATOM     26  C   UNL     1      38.735  32.343  47.651  0.00  0.00    +0.000 A 
ATOM     27  C   UNL     1      39.673  32.462  46.638  0.00  0.00    +0.000 A 
ATOM     28  C   UNL     1      39.718  31.572  45.585  0.00  0.00    +0.000 A 
ATOM     29  C   UNL     1      38.789  30.530  45.555  0.00  0.00    +0.000 A 
ATOM     30  C   UNL     1      37.864  30.441  46.589  0.00  0.00    +0.000 A 
ATOM     31  C   UNL     1      37.822  31.318  47.621  0.00  0.00    +0.000 A 
ATOM     32  H   UNL     1      37.638  33.745  50.419  0.00  0.00    +0.000 HD
ATOM     33  H   UNL     1      40.327  33.285  46.767  0.00  0.00    +0.000 HD
ATOM     34  H   UNL     1      40.489  31.773  44.866  0.00  0.00    +0.000 HD
ATOM     35  H   UNL     1      38.981  29.948  44.665  0.00  0.00    +0.000 HD
BRANCH  30  36
ATOM     36  C   UNL     1      37.096  29.259  46.166  0.00  0.00    +0.000 A 
ATOM     37  C   UNL     1      37.750  28.286  45.233  0.00  0.00    +0.000 A 
ATOM     38  H   UNL     1      38.769  28.455  44.897  0.00  0.00    +0.000 HD
ATOM     39  C   UNL     1      37.037  27.220  44.840  0.00  0.00    +0.000 A 
ATOM     40  C   UNL     1      35.780  27.040  45.275  0.00  0.00    +0.000 A 
ATOM     41  S   UNL     1      35.413  28.495  46.402  0.00  0.00    +0.000 S 
ENDBRANCH  30  36
ENDBRANCH   2  22
TORSDOF 2
