
 OpenBabel03272501163D

 32 35  0  0  1  0  0  0  0  0999 V2000
   36.8350   31.1850   50.2260 C   0  0  1  0  0  0  0  0  0  0  0  0
   36.5600   29.7830   50.2130 C   0  0  1  0  0  0  0  0  0  0  0  0
   37.5560   30.2650   51.2230 C   0  0  0  0  0  0  0  0  0  0  0  0
   36.2020   31.9510   50.7450 H   0  0  0  0  0  0  0  0  0  0  0  0
   37.0050   29.1910   49.3560 H   0  0  0  0  0  0  0  0  0  0  0  0
   38.6210   30.0250   51.0550 H   0  0  0  0  0  0  0  0  0  0  0  0
   37.1560   30.2540   52.2560 H   0  0  0  0  0  0  0  0  0  0  0  0
   37.7940   31.8150   49.2400 C   0  0  0  0  0  0  0  0  0  0  0  0
   38.2490   33.0800   49.5700 C   0  0  0  0  0  0  0  0  0  0  0  0
   39.1200   33.6600   48.6240 C   0  0  0  0  0  0  0  0  0  0  0  0
   39.4560   32.9920   47.4990 N   0  0  0  0  0  0  0  0  0  0  0  0
   38.9800   31.7350   47.2120 C   0  0  0  0  0  0  0  0  0  0  0  0
   38.1300   31.1450   48.1130 N   0  0  0  0  0  0  0  0  0  0  0  0
   37.9380   33.5540   50.4880 H   0  0  0  0  0  0  0  0  0  0  0  0
   39.5010   34.6420   48.8360 H   0  0  0  0  0  0  0  0  0  0  0  0
   39.2700   31.2480   46.3160 H   0  0  0  0  0  0  0  0  0  0  0  0
   35.2050   29.2750   50.6060 C   0  0  0  0  0  0  0  0  0  0  0  0
   34.6920   29.9050   51.3430 H   0  0  0  0  0  0  0  0  0  0  0  0
   35.3420   28.2620   51.0820 H   0  0  0  0  0  0  0  0  0  0  0  0
   34.3010   29.0750   49.4400 C   0  0  0  0  0  0  0  0  0  0  0  0
   34.3500   29.8570   48.3150 C   0  0  0  0  0  0  0  0  0  0  0  0
   33.4360   29.4750   47.4220 N   0  0  0  0  0  0  0  0  0  0  0  0
   32.8040   28.4400   47.9910 C   0  0  0  0  0  0  0  0  0  0  0  0
   33.3190   28.1910   49.2090 N   0  0  0  0  0  0  0  0  0  0  0  0
   35.0410   30.6980   48.1420 H   0  0  0  0  0  0  0  0  0  0  0  0
   33.2820   29.9190   46.4870 H   0  0  0  0  0  0  0  0  0  0  0  0
   31.7010   27.6830   47.3670 C   0  0  0  0  0  0  0  0  0  0  0  0
   31.4830   27.4140   46.0910 C   0  0  0  0  0  0  0  0  0  0  0  0
   32.1930   27.7820   45.3330 H   0  0  0  0  0  0  0  0  0  0  0  0
   30.3800   26.6860   45.7360 C   0  0  0  0  0  0  0  0  0  0  0  0
   29.5450   26.2650   46.7550 C   0  0  0  0  0  0  0  0  0  0  0  0
   30.3910   26.9510   48.2550 S   0  0  0  0  0  0  0  0  0  0  0  0
  1  4  1  1  0  0  0
  1  3  1  0  0  0  0
  2  5  1  6  0  0  0
  2  1  1  0  0  0  0
  2 17  1  0  0  0  0
  2  3  1  0  0  0  0
  3  7  1  0  0  0  0
  6  3  1  0  0  0  0
  8  9  1  0  0  0  0
  8  1  1  0  0  0  0
  9 14  1  0  0  0  0
 10 15  1  0  0  0  0
 10  9  2  0  0  0  0
 11 10  1  0  0  0  0
 12 11  2  0  0  0  0
 12 13  1  0  0  0  0
 13  8  2  0  0  0  0
 16 12  1  0  0  0  0
 17 19  1  0  0  0  0
 17 18  1  0  0  0  0
 20 17  1  0  0  0  0
 21 20  2  0  0  0  0
 22 23  1  0  0  0  0
 22 21  1  0  0  0  0
 23 24  2  0  0  0  0
 24 20  1  0  0  0  0
 25 21  1  0  0  0  0
 26 22  1  0  0  0  0
 27 23  1  0  0  0  0
 27 32  1  0  0  0  0
 28 27  2  0  0  0  0
 29 28  1  0  0  0  0
 30 28  1  0  0  0  0
 30 31  2  0  0  0  0
 31 32  1  0  0  0  0
M  END
>  <minimizedAffinity>
-5.65402699

>  <minimizedRMSD>
0.263284653

$$$$
