
     RDKit          3D

 38 40  0  0  0  0  0  0  0  0999 V2000
   36.0359   29.9471   46.9657 O   0  0  0  0  0  0  0  0  0  0  0  0
   36.0374   30.2246   48.4496 P   0  0  2  0  0  0  0  0  0  0  0  0
   36.8006   28.9132   49.2311 O   0  0  0  0  0  0  0  0  0  0  0  0
   34.4424   30.3689   49.0217 O   0  0  0  0  0  0  0  0  0  0  0  0
   34.1780   29.2354   49.7645 C   0  0  0  0  0  0  0  0  0  0  0  0
   33.3146   28.2573   49.0666 C   0  0  0  0  0  0  0  0  0  0  0  0
   33.9390   27.3823   48.2104 C   0  0  0  0  0  0  0  0  0  0  0  0
   33.1802   26.4343   47.5211 C   0  0  0  0  0  0  0  0  0  0  0  0
   31.8353   26.4355   47.7455 N   0  0  0  0  0  0  0  0  0  0  0  0
   31.2474   27.3040   48.5902 C   0  0  0  0  0  0  0  0  0  0  0  0
   31.9843   28.2221   49.2574 N   0  0  0  0  0  0  0  0  0  0  0  0
   36.8858   31.6422   48.7442 O   0  0  0  0  0  0  0  0  0  0  0  0
   38.8579   32.4726   47.8174 C   0  0  2  0  0  0  0  0  0  0  0  0
   38.2515   31.4616   48.7654 C   0  0  1  0  0  0  0  0  0  0  0  0
   38.8231   32.0199   50.0712 C   0  0  0  0  0  0  0  0  0  0  0  0
   38.4674   33.3608   49.9589 O   0  0  0  0  0  0  0  0  0  0  0  0
   38.6768   33.7383   48.6551 C   0  0  0  0  0  0  0  0  0  0  0  0
   38.0874   32.4891   46.6590 O   0  0  0  0  0  0  0  0  0  0  0  0
   37.4712   29.2050   49.8962 H   0  0  0  0  0  0  0  0  0  0  0  0
   33.6693   29.5128   50.7314 H   0  0  0  0  0  0  0  0  0  0  0  0
   35.0903   28.6976   50.0883 H   0  0  0  0  0  0  0  0  0  0  0  0
   34.9847   27.3032   47.9684 H   0  0  0  0  0  0  0  0  0  0  0  0
   33.5703   25.7135   46.8364 H   0  0  0  0  0  0  0  0  0  0  0  0
   30.1768   27.2182   48.6942 H   0  0  0  0  0  0  0  0  0  0  0  0
   39.9144   32.2439   47.6494 H   0  0  0  0  0  0  0  0  0  0  0  0
   38.5850   30.4268   48.5883 H   0  0  0  0  0  0  0  0  0  0  0  0
   39.9035   31.8539   50.1028 H   0  0  0  0  0  0  0  0  0  0  0  0
   38.2581   31.5434   50.8800 H   0  0  0  0  0  0  0  0  0  0  0  0
   39.5971   34.3591   48.5328 H   0  0  0  0  0  0  0  0  0  0  0  0
   37.8445   34.3664   48.2530 H   0  0  0  0  0  0  0  0  0  0  0  0
   38.7850   32.2104   45.4594 C   0  0  0  0  0  0  0  0  0  0  0  0
   38.5233   31.1552   44.5803 C   0  0  0  0  0  0  0  0  0  0  0  0
   37.7222   30.4721   44.8081 H   0  0  0  0  0  0  0  0  0  0  0  0
   39.2875   31.0190   43.4598 C   0  0  0  0  0  0  0  0  0  0  0  0
   40.3430   31.9744   43.2228 C   0  0  0  0  0  0  0  0  0  0  0  0
   40.2472   33.0727   44.6026 S   0  0  0  0  0  0  0  0  0  0  0  0
   39.1618   30.2385   42.7238 H   0  0  0  0  0  0  0  0  0  0  0  0
   41.0129   31.9815   42.3857 H   0  0  0  0  0  0  0  0  0  0  0  0
  2  1  2  0
  2 12  1  6
  2  4  1  0
  2  3  1  0
  4  5  1  0
  6 11  1  0
  6  5  1  0
  7  6  2  0
  8  9  2  0
  8  7  1  0
  9 10  1  0
 10 11  2  0
 13 18  1  0
 13 17  1  0
 13 14  1  0
 14 12  1  0
 14 15  1  0
 16 15  1  0
 17 16  1  0
  3 19  1  0
  5 20  1  0
  5 21  1  0
  7 22  1  0
  8 23  1  0
 10 24  1  0
 13 25  1  6
 14 26  1  6
 15 27  1  0
 15 28  1  0
 17 29  1  0
 17 30  1  0
 31 32  2  0
 32 33  1  0
 32 34  1  0
 34 35  2  0
 35 36  1  0
 36 31  1  0
 34 37  1  0
 35 38  1  0
 18 31  1  0
M  ISO  8  19   3  20   8  21   8  22  14  23  14  24  14  25  13  26  13
M  ISO  5  27  13  28  13  29  13  30  13  33  15
M  END
>  <DihAtoms>  (1) 
12,17,30,31

>  <DihDeg>  (1) 
179.99972228097525

$$$$
