REMARK  Name = 
REMARK  5 active torsions:
REMARK  status: ('A' for Active; 'I' for Inactive)
REMARK    1  A    between atoms: C_1  and  C_7
REMARK    2  A    between atoms: C_6  and  C_15
REMARK    3  A    between atoms: C_7  and  C_13
REMARK    4  A    between atoms: C_16  and  C_17
REMARK    5  A    between atoms: C_17  and  C_29
REMARK                            x       y       z     vdW  Elec       q    Type
REMARK                         _______ _______ _______ _____ _____    ______ ____
ROOT
ATOM      1  C   UNL     1      37.131  30.957  49.012  0.00  0.00    +0.000 A 
ATOM      2  C   UNL     1      36.911  31.939  49.998  0.00  0.00    +0.000 A 
ATOM      3  C   UNL     1      37.556  33.168  49.978  0.00  0.00    +0.000 A 
ATOM      4  C   UNL     1      38.453  33.459  48.959  0.00  0.00    +0.000 A 
ATOM      5  C   UNL     1      38.656  32.488  48.004  0.00  0.00    +0.000 A 
ATOM      6  C   UNL     1      38.008  31.278  48.041  0.00  0.00    +0.000 A 
ATOM      7  H   UNL     1      36.218  31.759  50.816  0.00  0.00    +0.000 HD
ATOM      8  H   UNL     1      37.343  33.879  50.764  0.00  0.00    +0.000 HD
ATOM      9  H   UNL     1      38.942  34.426  48.969  0.00  0.00    +0.000 HD
ATOM     10  H   UNL     1      39.373  32.789  47.238  0.00  0.00    +0.000 HD
ENDROOT
BRANCH   1  11
ATOM     11  C   UNL     1      36.412  29.705  49.117  0.00  0.00    +0.000 C 
ATOM     12  O   UNL     1      36.926  28.874  49.953  0.00  0.00    +0.000 OA
BRANCH  11  17
ATOM     13  C   UNL     1      33.628  30.176  46.854  0.00  0.00    +0.000 A 
ATOM     14  C   UNL     1      32.963  28.950  46.877  0.00  0.00    +0.000 A 
ATOM     15  C   UNL     1      33.477  27.959  47.676  0.00  0.00    +0.000 A 
ATOM     16  N   UNL     1      34.593  28.193  48.405  0.00  0.00    +0.000 NA
ATOM     17  C   UNL     1      35.208  29.366  48.367  0.00  0.00    +0.000 A 
ATOM     18  N   UNL     1      34.717  30.341  47.592  0.00  0.00    +0.000 NA
ATOM     19  H   UNL     1      33.273  31.008  46.240  0.00  0.00    +0.000 HD
ATOM     20  H   UNL     1      32.084  28.921  46.237  0.00  0.00    +0.000 HD
ATOM     21  H   UNL     1      32.941  27.034  47.668  0.00  0.00    +0.000 HD
ENDBRANCH  11  17
ENDBRANCH   1  11
BRANCH   6  22
ATOM     22  C   UNL     1      38.340  30.383  46.963  0.00  0.00    +0.000 C 
ATOM     23  C   UNL     1      38.804  30.709  45.757  0.00  0.00    +0.000 C 
BRANCH  23  24
ATOM     24  C   UNL     1      39.175  29.913  44.590  0.00  0.00    +0.000 C 
ATOM     25  H   UNL     1      38.495  30.168  43.726  0.00  0.00    +0.000 HD
ATOM     26  H   UNL     1      38.932  28.832  44.787  0.00  0.00    +0.000 HD
BRANCH  24  27
ATOM     27  C   UNL     1      40.522  30.028  44.149  0.00  0.00    +0.000 A 
ATOM     28  C   UNL     1      41.532  29.068  44.026  0.00  0.00    +0.000 A 
ATOM     29  H   UNL     1      41.298  28.053  44.301  0.00  0.00    +0.000 HD
ATOM     30  C   UNL     1      42.772  29.423  43.570  0.00  0.00    +0.000 A 
ATOM     31  C   UNL     1      42.959  30.845  43.230  0.00  0.00    +0.000 A 
ATOM     32  S   UNL     1      41.233  31.527  43.630  0.00  0.00    +0.000 S 
ENDBRANCH  24  27
ENDBRANCH  23  24
ENDBRANCH   6  22
TORSDOF 5
