
     RDKit          3D

 39 41  0  0  0  0  0  0  0  0999 V2000
   37.0794   30.9469   49.0293 C   0  0  0  0  0  0  0  0  0  0  0  0
   36.8138   31.8771   50.0355 C   0  0  0  0  0  0  0  0  0  0  0  0
   37.4260   33.1209   50.0642 C   0  0  0  0  0  0  0  0  0  0  0  0
   38.3376   33.4622   49.0583 C   0  0  0  0  0  0  0  0  0  0  0  0
   38.5883   32.5412   48.0790 C   0  0  0  0  0  0  0  0  0  0  0  0
   37.9567   31.3094   48.0868 C   0  0  0  0  0  0  0  0  0  0  0  0
   36.4663   29.6373   49.0182 C   0  0  1  0  0  0  0  0  0  0  0  0
   36.8648   28.8999   49.9928 O   0  0  0  0  0  0  0  0  0  0  0  0
   33.6124   30.1486   46.8258 C   0  0  0  0  0  0  0  0  0  0  0  0
   32.9536   28.9354   46.8440 C   0  0  0  0  0  0  0  0  0  0  0  0
   33.4488   27.9391   47.6637 C   0  0  0  0  0  0  0  0  0  0  0  0
   34.5712   28.1845   48.4260 N   0  0  0  0  0  0  0  0  0  0  0  0
   35.1558   29.3631   48.3618 C   0  0  0  0  0  0  0  0  0  0  0  0
   34.6841   30.3509   47.5678 N   0  0  0  0  0  0  0  0  0  0  0  0
   38.3425   30.4220   47.0138 C   0  0  0  0  0  0  0  0  0  0  0  0
   38.8159   30.8364   45.8347 C   0  0  0  0  0  0  0  0  0  0  0  0
   39.2854   30.0211   44.6904 C   0  0  0  0  0  0  0  0  0  0  0  0
   39.1907   30.9902   43.1820 S   0  0  0  0  0  0  0  0  0  0  0  0
   36.1080   31.6223   50.8188 H   0  0  0  0  0  0  0  0  0  0  0  0
   37.1687   33.7749   50.8695 H   0  0  0  0  0  0  0  0  0  0  0  0
   38.7515   34.4344   49.1683 H   0  0  0  0  0  0  0  0  0  0  0  0
   39.3143   32.9499   47.3770 H   0  0  0  0  0  0  0  0  0  0  0  0
   37.0078   29.0576   48.1754 H   0  0  0  0  0  0  0  0  0  0  0  0
   36.3790   28.7917   50.8276 H   0  0  0  0  0  0  0  0  0  0  0  0
   33.2496   30.9594   46.1913 H   0  0  0  0  0  0  0  0  0  0  0  0
   32.0868   28.8534   46.2064 H   0  0  0  0  0  0  0  0  0  0  0  0
   32.9323   26.9904   47.6788 H   0  0  0  0  0  0  0  0  0  0  0  0
   38.3637   29.3253   46.8987 H   0  0  0  0  0  0  0  0  0  0  0  0
   38.9072   31.9331   45.6894 H   0  0  0  0  0  0  0  0  0  0  0  0
   38.6819   29.0858   44.6054 H   0  0  0  0  0  0  0  0  0  0  0  0
   40.3637   29.7578   44.8466 H   0  0  0  0  0  0  0  0  0  0  0  0
   37.4926   31.3325   42.7763 C   0  0  0  0  0  0  0  0  0  0  0  0
   36.5589   30.3349   43.1666 C   0  0  0  0  0  0  0  0  0  0  0  0
   36.6483   29.3861   43.6695 H   0  0  0  0  0  0  0  0  0  0  0  0
   35.2235   30.4114   42.9474 C   0  0  0  0  0  0  0  0  0  0  0  0
   34.7754   31.6057   42.2706 C   0  0  0  0  0  0  0  0  0  0  0  0
   36.3640   32.6020   41.9689 S   0  0  0  0  0  0  0  0  0  0  0  0
   34.2385   30.0269   43.0129 H   0  0  0  0  0  0  0  0  0  0  0  0
   34.0421   32.3072   41.8100 H   0  0  0  0  0  0  0  0  0  0  0  0
  1  7  1  0
  1  2  2  0
  2  3  1  0
  4  3  2  0
  5  6  2  0
  5  4  1  0
  6  1  1  0
  7  8  1  0
  9 10  2  0
  9 14  1  0
 10 11  1  0
 11 12  2  0
 13 12  1  0
 13  7  1  0
 14 13  2  0
 15  6  1  0
 16 15  2  0
 17 16  1  0
 18 17  1  0
  2 19  1  0
  3 20  1  0
  4 21  1  0
  5 22  1  0
  7 23  1  6
  8 24  1  0
  9 25  1  0
 10 26  1  0
 11 27  1  0
 15 28  1  0
 16 29  1  0
 17 30  1  0
 17 31  1  0
 32 33  2  0
 33 34  1  0
 33 35  1  0
 35 36  2  0
 36 37  1  0
 37 32  1  0
 35 38  1  0
 36 39  1  0
 18 32  1  0
M  ISO  8  19  14  20  14  21  14  22  14  23   8  24   3  25  14  26  14
M  ISO  4  27  14  30   8  31   8  34  15
M  END
>  <DihAtoms>  (1) 
16,17,31,32

>  <DihDeg>  (1) 
-91.37095438422931

$$$$
