
 OpenBabel03272509243D

 21 22  0  0  0  0  0  0  0  0999 V2000
   35.2890   30.0890   47.1930 C   0  0  0  0  0  0  0  0  0  0  0  0
   35.7120   29.7040   46.2420 H   0  0  0  0  0  0  0  0  0  0  0  0
   34.9870   31.1590   47.0990 H   0  0  0  0  0  0  0  0  0  0  0  0
   32.7000   27.8360   48.7200 C   0  0  0  0  0  0  0  0  0  0  0  0
   33.9110   28.5410   48.5800 C   0  0  0  0  0  0  0  0  0  0  0  0
   34.0520   29.3190   47.4440 C   0  0  0  0  0  0  0  0  0  0  0  0
   33.0240   29.3590   46.5370 N   0  0  0  0  0  0  0  0  0  0  0  0
   31.8840   28.6720   46.7060 C   0  0  0  0  0  0  0  0  0  0  0  0
   31.7130   27.9060   47.7990 N   0  0  0  0  0  0  0  0  0  0  0  0
   32.5750   27.2230   49.6030 H   0  0  0  0  0  0  0  0  0  0  0  0
   34.6810   28.4740   49.3190 H   0  0  0  0  0  0  0  0  0  0  0  0
   31.1880   28.8230   45.8920 H   0  0  0  0  0  0  0  0  0  0  0  0
   36.2680   29.9730   48.3360 C   0  0  0  0  0  0  0  0  0  0  0  0
   35.7720   29.7880   49.3090 H   0  0  0  0  0  0  0  0  0  0  0  0
   36.8050   29.0040   48.1410 H   0  0  0  0  0  0  0  0  0  0  0  0
   37.2350   31.0810   48.3830 C   0  0  0  0  0  0  0  0  0  0  0  0
   38.2410   31.5880   47.6420 C   0  0  0  0  0  0  0  0  0  0  0  0
   38.4750   31.0860   46.7150 H   0  0  0  0  0  0  0  0  0  0  0  0
   38.9140   32.6950   48.0750 C   0  0  0  0  0  0  0  0  0  0  0  0
   38.5380   33.2710   49.2790 C   0  0  0  0  0  0  0  0  0  0  0  0
   37.1830   32.2350   49.8500 S   0  0  0  0  0  0  0  0  0  0  0  0
  1  6  1  0  0  0  0
  1 13  1  0  0  0  0
  2  1  1  0  0  0  0
  3  1  1  0  0  0  0
  4 10  1  0  0  0  0
  5  4  1  0  0  0  0
  5 11  1  0  0  0  0
  6  5  2  0  0  0  0
  7  8  2  0  0  0  0
  7  6  1  0  0  0  0
  8  9  1  0  0  0  0
  9  4  2  0  0  0  0
 12  8  1  0  0  0  0
 13 16  1  0  0  0  0
 13 14  1  0  0  0  0
 15 13  1  0  0  0  0
 16 21  1  0  0  0  0
 17 19  1  0  0  0  0
 17 16  2  0  0  0  0
 18 17  1  0  0  0  0
 19 20  2  0  0  0  0
 20 21  1  0  0  0  0
M  END
>  <minimizedAffinity>
-3.90604067

>  <minimizedRMSD>
4.21254492

$$$$
