
 OpenBabel03272509473D

 22 23  0  0  0  0  0  0  0  0999 V2000
   34.1880   28.4150   48.4720 C   0  0  0  0  0  0  0  0  0  0  0  0
   33.2940   29.0570   48.5880 H   0  0  0  0  0  0  0  0  0  0  0  0
   34.8840   28.9500   47.7950 H   0  0  0  0  0  0  0  0  0  0  0  0
   33.8370   27.0420   47.9500 C   0  0  0  0  0  0  0  0  0  0  0  0
   32.9920   26.6940   48.6130 H   0  0  0  0  0  0  0  0  0  0  0  0
   34.6410   26.3190   48.0580 H   0  0  0  0  0  0  0  0  0  0  0  0
   33.3750   27.1820   46.5440 C   0  0  0  0  0  0  0  0  0  0  0  0
   32.5670   26.4390   45.7480 C   0  0  0  0  0  0  0  0  0  0  0  0
   32.1630   25.5430   46.2340 H   0  0  0  0  0  0  0  0  0  0  0  0
   32.3120   26.8110   44.4760 C   0  0  0  0  0  3  0  0  0  0  0  0
   32.9120   27.9690   44.0440 C   0  0  0  0  0  3  0  0  0  0  0  0
   33.8900   28.5370   45.5650 S   0  0  0  0  0  0  0  0  0  0  0  0
   34.7310   28.2990   49.7860 O   0  0  0  0  0  0  0  0  0  0  0  0
   37.3450   30.2310   51.4060 C   0  0  0  0  0  0  0  0  0  0  0  0
   38.0580   30.6680   50.2930 C   0  0  0  0  0  0  0  0  0  0  0  0
   37.6130   30.2800   49.0350 C   0  0  0  0  0  0  0  0  0  0  0  0
   36.4910   29.4890   48.9890 N   0  0  0  0  0  0  0  0  0  0  0  0
   35.8270   29.0880   50.0930 C   0  0  0  0  0  0  0  0  0  0  0  0
   36.2710   29.4700   51.2970 N   0  0  0  0  0  0  0  0  0  0  0  0
   37.7100   30.5470   52.3880 H   0  0  0  0  0  0  0  0  0  0  0  0
   38.9410   31.2900   50.3210 H   0  0  0  0  0  0  0  0  0  0  0  0
   38.1150   30.5790   48.1270 H   0  0  0  0  0  0  0  0  0  0  0  0
  1  2  1  0  0  0  0
  1 13  1  0  0  0  0
  3  1  1  0  0  0  0
  4  6  1  0  0  0  0
  4  1  1  0  0  0  0
  4  5  1  0  0  0  0
  7  4  1  0  0  0  0
  8  9  1  0  0  0  0
  8  7  2  0  0  0  0
 10  8  1  0  0  0  0
 11 10  2  0  0  0  0
 11 12  1  0  0  0  0
 12  7  1  0  0  0  0
 13 18  1  0  0  0  0
 14 20  1  0  0  0  0
 15 21  1  0  0  0  0
 15 14  2  0  0  0  0
 16 15  1  0  0  0  0
 17 16  2  0  0  0  0
 17 18  1  0  0  0  0
 18 19  2  0  0  0  0
 19 14  1  0  0  0  0
 22 16  1  0  0  0  0
M  END
>  <minimizedAffinity>
-3.5601337

>  <minimizedRMSD>
0.162858292

$$$$
