
 OpenBabel03272509403D

 32 34  0  0  1  0  0  0  0  0999 V2000
   37.0530   30.9510   49.0730 C   0  0  0  0  0  0  0  0  0  0  0  0
   36.7960   31.9120   50.0710 C   0  0  0  0  0  0  0  0  0  0  0  0
   37.4170   33.1540   50.0830 C   0  0  0  0  0  0  0  0  0  0  0  0
   38.3250   33.4800   49.0850 C   0  0  0  0  0  0  0  0  0  0  0  0
   38.5630   32.5300   48.1170 C   0  0  0  0  0  0  0  0  0  0  0  0
   37.9400   31.3070   48.1230 C   0  0  0  0  0  0  0  0  0  0  0  0
   36.0930   31.7040   50.8740 H   0  0  0  0  0  0  0  0  0  0  0  0
   37.1760   33.8460   50.8770 H   0  0  0  0  0  0  0  0  0  0  0  0
   38.7940   34.4560   49.1190 H   0  0  0  0  0  0  0  0  0  0  0  0
   39.2870   32.8580   47.3690 H   0  0  0  0  0  0  0  0  0  0  0  0
   36.3580   29.6840   49.1440 C   0  0  1  0  0  3  0  0  0  0  0  0
   36.8820   28.8450   49.9660 O   0  0  0  0  0  1  0  0  0  0  0  0
   33.6040   30.1390   46.8410 C   0  0  0  0  0  0  0  0  0  0  0  0
   32.9460   28.9090   46.8540 C   0  0  0  0  0  0  0  0  0  0  0  0
   33.4540   27.9210   47.6600 C   0  0  0  0  0  0  0  0  0  0  0  0
   34.5580   28.1610   48.4050 N   0  0  0  0  0  0  0  0  0  0  0  0
   35.1670   29.3380   48.3770 C   0  0  0  0  0  0  0  0  0  0  0  0
   34.6820   30.3100   47.5950 N   0  0  0  0  0  0  0  0  0  0  0  0
   33.2530   30.9690   46.2220 H   0  0  0  0  0  0  0  0  0  0  0  0
   32.0770   28.8750   46.2020 H   0  0  0  0  0  0  0  0  0  0  0  0
   32.9240   26.9930   47.6440 H   0  0  0  0  0  0  0  0  0  0  0  0
   38.3080   30.4370   47.0360 C   0  0  0  0  0  3  0  0  0  0  0  0
   38.9070   30.7790   45.8950 C   0  0  0  0  0  3  0  0  0  0  0  0
   39.3300   30.0100   44.7280 C   0  0  0  0  0  0  0  0  0  0  0  0
   38.6450   29.1230   44.5920 H   0  0  0  0  0  0  0  0  0  0  0  0
   40.3230   29.5260   44.9440 H   0  0  0  0  0  0  0  0  0  0  0  0
   39.3990   30.7160   43.4960 C   0  0  0  0  0  0  0  0  0  0  0  0
   40.2530   30.5650   42.3990 C   0  0  0  0  0  0  0  0  0  0  0  0
   41.0050   29.7950   42.4480 H   0  0  0  0  0  0  0  0  0  0  0  0
   40.1250   31.3780   41.3060 C   0  0  0  0  0  3  0  0  0  0  0  0
   39.0560   32.3910   41.3680 C   0  0  0  0  0  3  0  0  0  0  0  0
   38.3310   32.0250   43.0840 S   0  0  0  0  0  0  0  0  0  0  0  0
  1 11  1  0  0  0  0
  1  2  1  0  0  0  0
  2  3  2  0  0  0  0
  2  7  1  0  0  0  0
  3  8  1  0  0  0  0
  4  9  1  0  0  0  0
  4  3  1  0  0  0  0
  5  6  1  0  0  0  0
  5  4  2  0  0  0  0
  6  1  2  0  0  0  0
 10  5  1  0  0  0  0
 11 12  1  1  0  0  0
 13 14  2  0  0  0  0
 13 18  1  0  0  0  0
 14 15  1  0  0  0  0
 15 16  2  0  0  0  0
 17 16  1  0  0  0  0
 17 11  1  0  0  0  0
 18 17  2  0  0  0  0
 19 13  1  0  0  0  0
 20 14  1  0  0  0  0
 21 15  1  0  0  0  0
 22  6  1  0  0  0  0
 23 22  2  0  0  0  0
 24 26  1  0  0  0  0
 24 23  1  0  0  0  0
 25 24  1  0  0  0  0
 27 24  1  0  0  0  0
 28 29  1  0  0  0  0
 28 27  2  0  0  0  0
 30 31  2  0  0  0  0
 30 28  1  0  0  0  0
 31 32  1  0  0  0  0
 32 27  1  0  0  0  0
M  END
>  <minimizedAffinity>
-5.8242774

>  <minimizedRMSD>
1.58032906

$$$$
