
     RDKit          3D

 25 26  0  0  0  0  0  0  0  0999 V2000
   37.3269   30.2403   51.4018 C   0  0  0  0  0  0  0  0  0  0  0  0
   37.9807   30.7060   50.2602 C   0  0  0  0  0  0  0  0  0  0  0  0
   37.5377   30.3408   48.9936 C   0  0  0  0  0  0  0  0  0  0  0  0
   36.4533   29.5202   48.9126 N   0  0  0  0  0  0  0  0  0  0  0  0
   35.8495   29.0915   50.0233 C   0  0  0  0  0  0  0  0  0  0  0  0
   36.2710   29.4395   51.2495 N   0  0  0  0  0  0  0  0  0  0  0  0
   38.2259   30.8320   47.8311 C   0  0  0  0  0  0  0  0  0  0  0  0
   38.7627   32.0380   47.7996 C   0  0  0  0  0  0  0  0  0  0  0  0
   39.4573   32.4386   46.5250 C   0  0  0  0  0  0  0  0  0  0  0  0
   38.2339   32.3628   45.1753 S   0  0  0  0  0  0  0  0  0  0  0  0
   37.6100   30.4786   52.4131 H   0  0  0  0  0  0  0  0  0  0  0  0
   38.8281   31.3501   50.4409 H   0  0  0  0  0  0  0  0  0  0  0  0
   34.9822   28.4330   49.8694 H   0  0  0  0  0  0  0  0  0  0  0  0
   38.2908   30.1716   46.9698 H   0  0  0  0  0  0  0  0  0  0  0  0
   38.7001   32.7041   48.6611 H   0  0  0  0  0  0  0  0  0  0  0  0
   39.8205   33.4779   46.6318 H   0  0  0  0  0  0  0  0  0  0  0  0
   40.2739   31.7190   46.2806 H   0  0  0  0  0  0  0  0  0  0  0  0
   38.8691   32.7936   43.6418 C   0  0  0  0  0  0  0  0  0  0  0  0
   39.2046   34.0860   43.1192 C   0  0  0  0  0  0  0  0  0  0  0  0
   39.0449   34.9361   43.7629 H   0  0  0  0  0  0  0  0  0  0  0  0
   39.7030   34.1498   41.8419 C   0  0  0  0  0  0  0  0  0  0  0  0
   39.8564   32.9569   41.1218 C   0  0  0  0  0  0  0  0  0  0  0  0
   39.2835   31.6535   42.2583 S   0  0  0  0  0  0  0  0  0  0  0  0
   39.9756   35.0885   41.3873 H   0  0  0  0  0  0  0  0  0  0  0  0
   40.2129   32.8303   40.1620 H   0  0  0  0  0  0  0  0  0  0  0  0
  2  1  2  0
  3  2  1  0
  4  3  2  0
  4  5  1  0
  5  6  2  0
  6  1  1  0
  7  3  1  0
  8  7  2  0
  9  8  1  0
 10  9  1  0
  1 11  1  0
  2 12  1  0
  5 13  1  0
  7 14  1  0
  8 15  1  0
  9 16  1  0
  9 17  1  0
 18 19  2  0
 19 20  1  0
 19 21  1  0
 21 22  2  0
 22 23  1  0
 23 18  1  0
 21 24  1  0
 22 25  1  0
 10 18  1  0
M  ISO  6  11  14  12  14  13  14  16   8  17   8  20  15
M  END
>  <DihAtoms>  (1) 
8,9,17,18

>  <DihDeg>  (1) 
89.9975951745121

$$$$
