
 OpenBabel03262521543D

 36 38  0  0  1  0  0  0  0  0999 V2000
   32.5270   26.9280   48.2230 C   0  0  1  0  0  0  0  0  0  0  0  0
   33.1260   28.2840   48.5060 C   0  0  2  0  0  0  0  0  0  0  0  0
   33.0620   29.0810   47.2370 C   0  0  0  0  0  0  0  0  0  0  0  0
   32.5190   28.3860   46.1690 O   0  0  0  0  0  0  0  0  0  0  0  0
   31.2180   27.9500   46.4440 C   0  0  0  0  0  0  0  0  0  0  0  0
   31.1100   27.1710   47.7200 C   0  0  2  0  0  0  0  0  0  0  0  0
   32.5550   26.2600   49.0960 H   0  0  0  0  0  0  0  0  0  0  0  0
   32.4890   28.7570   49.2780 H   0  0  0  0  0  0  0  0  0  0  0  0
   34.0810   29.3890   46.9380 H   0  0  0  0  0  0  0  0  0  0  0  0
   32.4910   30.0250   47.4100 H   0  0  0  0  0  0  0  0  0  0  0  0
   30.5800   28.8690   46.4920 H   0  0  0  0  0  0  0  0  0  0  0  0
   30.8640   27.3920   45.5470 H   0  0  0  0  0  0  0  0  0  0  0  0
   30.6600   26.1860   47.5010 H   0  0  0  0  0  0  0  0  0  0  0  0
   33.2130   26.2760   47.1900 O   0  0  0  0  0  0  0  0  0  0  0  0
   32.6170   25.9260   46.4890 H   0  0  0  0  0  0  0  0  0  0  0  0
   34.8150   28.1660   49.1350 S   0  0  0  0  0  0  0  0  0  0  0  0
   35.0940   29.4420   50.3930 C   0  0  0  0  0  0  0  0  0  0  0  0
   34.6680   30.3950   49.9680 H   0  0  0  0  0  0  0  0  0  0  0  0
   34.4780   29.2310   51.3020 H   0  0  0  0  0  0  0  0  0  0  0  0
   36.8160   29.7290   50.7620 S   0  0  0  0  0  0  0  0  0  0  0  0
   37.5200   30.7370   49.4760 C   0  0  0  0  0  0  0  0  0  0  0  0
   37.7670   32.0490   49.8210 C   0  0  0  0  0  0  0  0  0  0  0  0
   38.3190   32.9220   48.8780 C   0  0  0  0  0  0  0  0  0  0  0  0
   38.5890   32.4060   47.6340 N   0  0  0  0  0  0  0  0  0  0  0  0
   38.3310   31.1150   47.3420 C   0  0  0  0  0  0  0  0  0  0  0  0
   37.8070   30.2990   48.2470 N   0  0  0  0  0  0  0  0  0  0  0  0
   37.5550   32.4630   50.8020 H   0  0  0  0  0  0  0  0  0  0  0  0
   38.5070   33.9380   49.1560 H   0  0  0  0  0  0  0  0  0  0  0  0
   38.5660   30.7600   46.3390 H   0  0  0  0  0  0  0  0  0  0  0  0
   30.4940   27.9240   48.7030 O   0  0  0  0  0  0  0  0  0  0  0  0
   29.5680   27.7750   49.5320 C   0  0  0  0  0  0  0  0  0  0  0  0
   29.1420   26.9640   50.5980 C   0  0  0  0  0  0  0  0  0  0  0  0
   29.8730   26.1900   50.7630 H   0  0  0  0  0  0  0  0  0  0  0  0
   27.9780   27.1610   51.2870 C   0  0  0  0  0  0  0  0  0  0  0  0
   27.1550   28.2760   50.8730 C   0  0  0  0  0  0  0  0  0  0  0  0
   28.1680   29.0060   49.4460 S   0  0  0  0  0  0  0  0  0  0  0  0
  1  2  1  0  0  0  0
  1  7  1  1  0  0  0
  2 16  1  0  0  0  0
  2  8  1  1  0  0  0
  3 10  1  0  0  0  0
  3  2  1  0  0  0  0
  4  5  1  0  0  0  0
  4  3  1  0  0  0  0
  5 11  1  0  0  0  0
  5  6  1  0  0  0  0
  6 13  1  6  0  0  0
  6  1  1  0  0  0  0
  6 30  1  0  0  0  0
  9  3  1  0  0  0  0
 12  5  1  0  0  0  0
 14  1  1  0  0  0  0
 15 14  1  0  0  0  0
 16 17  1  0  0  0  0
 17 20  1  0  0  0  0
 17 19  1  0  0  0  0
 18 17  1  0  0  0  0
 21 22  1  0  0  0  0
 21 20  1  0  0  0  0
 22 27  1  0  0  0  0
 23 28  1  0  0  0  0
 23 22  2  0  0  0  0
 24 23  1  0  0  0  0
 25 24  2  0  0  0  0
 25 26  1  0  0  0  0
 26 21  2  0  0  0  0
 29 25  1  0  0  0  0
 30 31  1  0  0  0  0
 31 32  2  0  0  0  0
 32 33  1  0  0  0  0
 32 34  1  0  0  0  0
 35 34  2  0  0  0  0
 36 31  1  0  0  0  0
 36 35  1  0  0  0  0
M  END
>  <minimizedAffinity>
-5.40330172

>  <minimizedRMSD>
0.876044512

$$$$
