
 OpenBabel03272508273D

 35 38  0  0  1  0  0  0  0  0999 V2000
   33.8810   28.9510   47.2750 C   0  0  2  0  0  0  0  0  0  0  0  0
   34.6100   28.1950   48.3740 C   0  0  2  0  0  0  0  0  0  0  0  0
   33.6780   28.0090   49.3610 O   0  0  0  0  0  0  0  0  0  0  0  0
   32.4230   28.0680   48.8490 C   0  0  0  0  0  0  0  0  0  0  0  0
   32.5290   28.2550   47.3650 C   0  0  1  0  0  0  0  0  0  0  0  0
   33.7370   30.0130   47.4880 H   0  0  0  0  0  0  0  0  0  0  0  0
   34.9350   27.2220   47.9590 H   0  0  0  0  0  0  0  0  0  0  0  0
   31.9350   28.9900   49.2770 H   0  0  0  0  0  0  0  0  0  0  0  0
   31.7640   27.2210   49.1260 H   0  0  0  0  0  0  0  0  0  0  0  0
   32.5740   27.2730   46.8180 H   0  0  0  0  0  0  0  0  0  0  0  0
   35.6780   30.4580   49.0110 C   0  0  1  0  0  0  0  0  0  0  0  0
   35.7570   29.0200   48.8500 C   0  0  1  0  0  0  0  0  0  0  0  0
   35.8320   29.5560   50.2430 C   0  0  0  0  0  0  0  0  0  0  0  0
   34.7520   31.0660   49.1220 H   0  0  0  0  0  0  0  0  0  0  0  0
   36.7520   28.6490   48.4530 H   0  0  0  0  0  0  0  0  0  0  0  0
   36.7760   29.5730   50.7850 H   0  0  0  0  0  0  0  0  0  0  0  0
   34.9420   29.3580   50.8760 H   0  0  0  0  0  0  0  0  0  0  0  0
   36.8750   31.3440   48.7940 C   0  0  0  0  0  0  0  0  0  0  0  0
   37.0920   32.3900   49.6920 C   0  0  0  0  0  0  0  0  0  0  0  0
   38.1820   33.1900   49.4450 C   0  0  0  0  0  0  0  0  0  0  0  0
   38.9960   32.9530   48.3660 N   0  0  0  0  0  0  0  0  0  0  0  0
   38.7520   31.9230   47.5130 C   0  0  0  0  0  0  0  0  0  0  0  0
   37.6860   31.1110   47.7210 N   0  0  0  0  0  0  0  0  0  0  0  0
   36.4580   32.5870   50.5400 H   0  0  0  0  0  0  0  0  0  0  0  0
   38.4320   34.0360   50.1000 H   0  0  0  0  0  0  0  0  0  0  0  0
   39.3810   31.7050   46.6450 H   0  0  0  0  0  0  0  0  0  0  0  0
   34.4470   28.7760   46.0260 O   0  0  0  0  0  0  0  0  0  0  0  0
   35.0200   27.9420   46.0370 H   0  0  0  0  0  0  0  0  0  0  0  0
   31.5170   29.0330   46.8330 O   0  0  0  0  0  0  0  0  0  0  0  0
   30.8240   28.1720   45.6190 C   0  0  0  0  0  0  0  0  0  0  0  0
   31.0360   29.3720   44.6900 C   0  0  0  0  0  0  0  0  0  0  0  0
   31.4220   30.4150   44.6040 H   0  0  0  0  0  0  0  0  0  0  0  0
   30.6340   29.2880   43.3990 C   0  0  0  0  0  3  0  0  0  0  0  0
   30.0160   28.0620   42.9490 C   0  0  0  0  0  3  0  0  0  0  0  0
   30.0550   27.0120   44.5430 S   0  0  0  0  0  0  0  0  0  0  0  0
  1  5  1  0  0  0  0
  1  6  1  1  0  0  0
  1  2  1  0  0  0  0
  2  7  1  6  0  0  0
  2 12  1  0  0  0  0
  2  3  1  0  0  0  0
  4  9  1  0  0  0  0
  4  8  1  0  0  0  0
  4  3  1  0  0  0  0
  5 10  1  6  0  0  0
  5  4  1  0  0  0  0
 11 14  1  6  0  0  0
 11 13  1  0  0  0  0
 12 15  1  6  0  0  0
 12 11  1  0  0  0  0
 12 13  1  0  0  0  0
 13 16  1  0  0  0  0
 13 17  1  0  0  0  0
 18 11  1  0  0  0  0
 18 19  1  0  0  0  0
 19 24  1  0  0  0  0
 20 19  2  0  0  0  0
 20 25  1  0  0  0  0
 21 20  1  0  0  0  0
 22 23  1  0  0  0  0
 22 21  2  0  0  0  0
 23 18  2  0  0  0  0
 26 22  1  0  0  0  0
 27 28  1  0  0  0  0
 27  1  1  0  0  0  0
 29  5  1  0  0  0  0
 30 29  1  0  0  0  0
 31 30  2  0  0  0  0
 32 31  1  0  0  0  0
 33 31  1  0  0  0  0
 34 33  2  0  0  0  0
 34 35  1  0  0  0  0
 35 30  1  0  0  0  0
M  END
>  <minimizedAffinity>
-4.66378498

>  <minimizedRMSD>
0.362084299

$$$$
