
 OpenBabel03272510333D

 25 27  0  0  0  0  0  0  0  0999 V2000
   35.9640   30.1060   46.9800 C   0  0  0  0  0  0  0  0  0  0  0  0
   35.4300   30.0990   45.7090 C   0  0  0  0  0  0  0  0  0  0  0  0
   34.3230   29.3310   45.4070 C   0  0  0  0  0  0  0  0  0  0  0  0
   33.7600   28.5690   46.4020 C   0  0  0  0  0  0  0  0  0  0  0  0
   34.2730   28.5570   47.6810 C   0  0  0  0  0  0  0  0  0  0  0  0
   35.3810   29.3300   47.9720 C   0  0  0  0  0  0  0  0  0  0  0  0
   35.8780   30.7070   44.9090 H   0  0  0  0  0  0  0  0  0  0  0  0
   33.9040   29.3250   44.4070 H   0  0  0  0  0  0  0  0  0  0  0  0
   32.8870   27.9400   46.2470 H   0  0  0  0  0  0  0  0  0  0  0  0
   33.8910   27.9850   48.5260 H   0  0  0  0  0  0  0  0  0  0  0  0
   38.0450   32.6910   48.4530 C   0  0  0  0  0  0  0  0  0  0  0  0
   39.2500   32.6170   47.7550 C   0  0  0  0  0  0  0  0  0  0  0  0
   39.3330   31.6370   46.7470 C   0  0  0  0  0  0  0  0  0  0  0  0
   38.2640   30.8360   46.5110 N   0  0  0  0  0  0  0  0  0  0  0  0
   37.1250   30.9440   47.2070 C   0  0  0  0  0  0  0  0  0  0  0  0
   37.0210   31.8820   48.1860 N   0  0  0  0  0  0  0  0  0  0  0  0
   37.9770   33.4540   49.2400 H   0  0  0  0  0  0  0  0  0  0  0  0
   40.0590   33.3010   48.0120 H   0  0  0  0  0  0  0  0  0  0  0  0
   40.2660   31.5830   46.2120 H   0  0  0  0  0  0  0  0  0  0  0  0
   35.9750   29.3570   49.3200 C   0  0  0  0  0  0  0  0  0  0  0  0
   35.1990   29.5080   50.5130 C   0  0  0  0  0  0  0  0  0  0  0  0
   34.1270   29.6090   50.4650 H   0  0  0  0  0  0  0  0  0  0  0  0
   35.8690   29.5190   51.7050 C   0  0  0  0  0  3  0  0  0  0  0  0
   37.2830   29.3810   51.6970 C   0  0  0  0  0  3  0  0  0  0  0  0
   37.7230   29.2270   49.9450 S   0  0  0  0  0  0  0  0  0  0  0  0
  1 15  1  0  0  0  0
  1  6  1  0  0  0  0
  2  1  2  0  0  0  0
  3  2  1  0  0  0  0
  3  4  2  0  0  0  0
  4  5  1  0  0  0  0
  5  6  2  0  0  0  0
  5 10  1  0  0  0  0
  6 20  1  0  0  0  0
  7  2  1  0  0  0  0
  8  3  1  0  0  0  0
  9  4  1  0  0  0  0
 11 17  1  0  0  0  0
 12 18  1  0  0  0  0
 12 11  2  0  0  0  0
 13 12  1  0  0  0  0
 14 13  2  0  0  0  0
 14 15  1  0  0  0  0
 15 16  2  0  0  0  0
 16 11  1  0  0  0  0
 19 13  1  0  0  0  0
 20 25  1  0  0  0  0
 20 21  2  0  0  0  0
 21 23  1  0  0  0  0
 22 21  1  0  0  0  0
 24 23  2  0  0  0  0
 25 24  1  0  0  0  0
M  END
>  <minimizedAffinity>
-4.24317884

>  <minimizedRMSD>
1.76578963

$$$$
