REMARK  Name = 
REMARK  3 active torsions:
REMARK  status: ('A' for Active; 'I' for Inactive)
REMARK    1  A    between atoms: C_1  and  C_7
REMARK    2  A    between atoms: C_5  and  C_10
REMARK    3  A    between atoms: C_10  and  C_20
REMARK                            x       y       z     vdW  Elec       q    Type
REMARK                         _______ _______ _______ _____ _____    ______ ____
ROOT
ATOM      1  C   UNL     1      37.365  31.359  49.200  0.00  0.00    +0.000 A 
ATOM      2  C   UNL     1      37.719  32.657  49.590  0.00  0.00    +0.000 A 
ATOM      3  C   UNL     1      38.594  33.323  48.777  0.00  0.00    +0.000 A 
ATOM      4  N   UNL     1      39.066  32.714  47.660  0.00  0.00    +0.000 NA
ATOM      5  C   UNL     1      38.705  31.457  47.307  0.00  0.00    +0.000 A 
ATOM      6  N   UNL     1      37.827  30.756  48.103  0.00  0.00    +0.000 NA
ATOM      7  H   UNL     1      37.310  33.084  50.485  0.00  0.00    +0.000 HD
ATOM      8  H   UNL     1      38.859  34.318  49.086  0.00  0.00    +0.000 HD
ENDROOT
BRANCH   1   9
ATOM      9  C   UNL     1      36.376  30.602  50.047  0.00  0.00    +0.000 C 
ATOM     10  C   UNL     1      36.283  29.166  50.055  0.00  0.00    +0.000 C 
ATOM     11  C   UNL     1      37.047  29.829  51.186  0.00  0.00    +0.000 C 
ATOM     12  H   UNL     1      35.493  31.233  50.370  0.00  0.00    +0.000 HD
ATOM     13  H   UNL     1      35.303  28.690  50.248  0.00  0.00    +0.000 HD
ATOM     14  H   UNL     1      36.956  28.597  49.353  0.00  0.00    +0.000 HD
ATOM     15  H   UNL     1      38.141  29.767  51.219  0.00  0.00    +0.000 HD
ATOM     16  H   UNL     1      36.475  29.829  52.121  0.00  0.00    +0.000 HD
ENDBRANCH   1   9
BRANCH   5  17
ATOM     17  C   UNL     1      39.184  30.808  46.099  0.00  0.00    +0.000 C 
ATOM     18  H   UNL     1      38.406  30.205  45.553  0.00  0.00    +0.000 HD
ATOM     19  H   UNL     1      39.398  31.643  45.364  0.00  0.00    +0.000 HD
BRANCH  17  20
ATOM     20  C   UNL     1      40.431  30.048  46.273  0.00  0.00    +0.000 A 
ATOM     21  C   UNL     1      40.843  29.159  47.290  0.00  0.00    +0.000 A 
ATOM     22  H   UNL     1      40.144  28.995  48.087  0.00  0.00    +0.000 HD
ATOM     23  C   UNL     1      42.079  28.590  47.175  0.00  0.00    +0.000 A 
ATOM     24  C   UNL     1      42.898  28.906  46.055  0.00  0.00    +0.000 A 
ATOM     25  S   UNL     1      41.846  30.095  45.089  0.00  0.00    +0.000 S 
ENDBRANCH  17  20
ENDBRANCH   5  17
TORSDOF 3
