
     RDKit          3D

 28 30  0  0  0  0  0  0  0  0999 V2000
   37.7659   31.0654   47.4224 C   0  0  0  0  0  0  0  0  0  0  0  0
   37.0191   30.7297   46.3208 C   0  0  0  0  0  0  0  0  0  0  0  0
   37.3103   31.2080   45.0520 C   0  0  0  0  0  0  0  0  0  0  0  0
   38.3675   32.0375   44.8799 N   0  0  0  0  0  0  0  0  0  0  0  0
   39.0818   32.3519   45.9682 C   0  0  0  0  0  0  0  0  0  0  0  0
   38.8112   31.8971   47.1984 N   0  0  0  0  0  0  0  0  0  0  0  0
   37.7175   30.3702   51.1336 C   0  0  0  0  0  0  0  0  0  0  0  0
   38.0858   30.9441   49.9132 C   0  0  0  0  0  0  0  0  0  0  0  0
   37.4567   30.5490   48.7480 C   0  0  0  0  0  0  0  0  0  0  0  0
   36.4909   29.6012   48.8572 N   0  0  0  0  0  0  0  0  0  0  0  0
   36.1504   29.0612   50.0364 C   0  0  0  0  0  0  0  0  0  0  0  0
   36.7661   29.4488   51.1695 N   0  0  0  0  0  0  0  0  0  0  0  0
   40.2525   33.2619   45.8199 C   0  0  0  0  0  0  0  0  0  0  0  0
   40.3680   34.0010   46.9750 F   0  0  0  0  0  0  0  0  0  0  0  0
   41.4183   32.5230   45.5577 F   0  0  0  0  0  0  0  0  0  0  0  0
   40.0849   34.1382   44.7918 F   0  0  0  0  0  0  0  0  0  0  0  0
   36.1656   30.0671   46.4247 H   0  0  0  0  0  0  0  0  0  0  0  0
   36.7189   30.9407   44.1859 H   0  0  0  0  0  0  0  0  0  0  0  0
   38.1876   30.6558   52.0576 H   0  0  0  0  0  0  0  0  0  0  0  0
   38.8415   31.6818   49.8525 H   0  0  0  0  0  0  0  0  0  0  0  0
   35.0660   28.0348   49.9547 C   0  0  0  0  0  0  0  0  0  0  0  0
   34.9688   26.7200   50.0266 C   0  0  0  0  0  0  0  0  0  0  0  0
   35.9305   26.2546   50.1884 H   0  0  0  0  0  0  0  0  0  0  0  0
   33.7414   26.1329   49.8967 C   0  0  0  0  0  0  0  0  0  0  0  0
   32.6481   26.9847   49.6920 C   0  0  0  0  0  0  0  0  0  0  0  0
   33.4926   28.6825   49.6975 S   0  0  0  0  0  0  0  0  0  0  0  0
   33.7087   25.0326   49.9636 H   0  0  0  0  0  0  0  0  0  0  0  0
   31.5890   26.3809   49.5862 H   0  0  0  0  0  0  0  0  0  0  0  0
  1  9  1  0
  2  1  2  0
  3  2  1  0
  4  3  2  0
  4  5  1  0
  5  6  2  0
  6  1  1  0
  7 12  2  0
  8  7  1  0
  9 10  1  0
  9  8  2  0
 10 11  2  0
 11 12  1  0
 13  5  1  0
 13 14  1  0
 15 13  1  0
 16 13  1  0
  2 17  1  0
  3 18  1  0
  7 19  1  0
  8 20  1  0
 21 22  2  0
 22 23  1  0
 22 24  1  0
 24 25  2  0
 25 26  1  0
 26 21  1  0
 24 27  1  0
 25 28  1  0
 11 21  1  0
M  ISO  5  17  14  18  14  19  14  20  14  23  15
M  END
>  <DihAtoms>  (1) 
9,10,20,21

>  <DihDeg>  (1) 
-74.54673473050474

$$$$
