
 OpenBabel03272509463D

 22 23  0  0  0  0  0  0  0  0999 V2000
   34.2310   28.3920   48.4330 C   0  0  0  0  0  0  0  0  0  0  0  0
   33.3660   29.0780   48.4890 H   0  0  0  0  0  0  0  0  0  0  0  0
   34.9730   28.8620   47.7550 H   0  0  0  0  0  0  0  0  0  0  0  0
   33.8330   27.0130   47.9630 C   0  0  0  0  0  0  0  0  0  0  0  0
   33.0240   26.6910   48.6810 H   0  0  0  0  0  0  0  0  0  0  0  0
   34.6330   26.2810   48.0400 H   0  0  0  0  0  0  0  0  0  0  0  0
   33.2920   27.1290   46.5830 C   0  0  0  0  0  0  0  0  0  0  0  0
   33.8670   27.2600   45.3610 C   0  0  0  0  0  0  0  0  0  0  0  0
   34.9620   27.2890   45.3840 H   0  0  0  0  0  0  0  0  0  0  0  0
   33.1130   27.3440   44.2450 C   0  0  0  0  0  3  0  0  0  0  0  0
   31.7510   27.2900   44.4180 C   0  0  0  0  0  3  0  0  0  0  0  0
   31.5660   27.1080   46.2960 S   0  0  0  0  0  0  0  0  0  0  0  0
   34.7270   28.3130   49.7680 O   0  0  0  0  0  0  0  0  0  0  0  0
   37.3390   30.2250   51.4140 C   0  0  0  0  0  0  0  0  0  0  0  0
   38.0620   30.6640   50.3080 C   0  0  0  0  0  0  0  0  0  0  0  0
   37.6230   30.2850   49.0450 C   0  0  0  0  0  0  0  0  0  0  0  0
   36.4970   29.4990   48.9880 N   0  0  0  0  0  0  0  0  0  0  0  0
   35.8240   29.0960   50.0860 C   0  0  0  0  0  0  0  0  0  0  0  0
   36.2630   29.4700   51.2950 N   0  0  0  0  0  0  0  0  0  0  0  0
   37.7000   30.5350   52.4000 H   0  0  0  0  0  0  0  0  0  0  0  0
   38.9470   31.2820   50.3440 H   0  0  0  0  0  0  0  0  0  0  0  0
   38.1320   30.5860   48.1420 H   0  0  0  0  0  0  0  0  0  0  0  0
  1  2  1  0  0  0  0
  1 13  1  0  0  0  0
  3  1  1  0  0  0  0
  4  6  1  0  0  0  0
  4  1  1  0  0  0  0
  4  5  1  0  0  0  0
  7  4  1  0  0  0  0
  8  9  1  0  0  0  0
  8  7  2  0  0  0  0
 10 11  2  0  0  0  0
 10  8  1  0  0  0  0
 11 12  1  0  0  0  0
 12  7  1  0  0  0  0
 13 18  1  0  0  0  0
 14 20  1  0  0  0  0
 15 21  1  0  0  0  0
 15 14  2  0  0  0  0
 16 15  1  0  0  0  0
 17 16  2  0  0  0  0
 17 18  1  0  0  0  0
 18 19  2  0  0  0  0
 19 14  1  0  0  0  0
 22 16  1  0  0  0  0
M  END
>  <minimizedAffinity>
-3.6205759

>  <minimizedRMSD>
0.126737222

$$$$
