
 OpenBabel03272510113D

 32 35  0  0  0  0  0  0  0  0999 V2000
   33.3980   28.4090   48.5900 C   0  0  0  0  0  0  0  0  0  0  0  0
   33.8800   28.4730   49.8520 C   0  0  0  0  0  0  0  0  0  0  0  0
   35.1340   28.9500   50.1920 C   0  0  0  0  0  0  0  0  0  0  0  0
   35.9750   29.3980   49.2190 C   0  0  0  0  0  0  0  0  0  0  0  0
   35.4820   29.3360   47.9090 C   0  0  0  0  0  0  0  0  0  0  0  0
   34.2530   28.8610   47.6330 N   0  0  0  0  0  0  0  0  0  0  0  0
   33.2830   28.1390   50.6910 H   0  0  0  0  0  0  0  0  0  0  0  0
   35.5190   29.0010   51.2010 H   0  0  0  0  0  0  0  0  0  0  0  0
   36.0570   29.6630   47.0450 H   0  0  0  0  0  0  0  0  0  0  0  0
   31.0650   27.6960   49.1740 C   0  0  0  0  0  0  0  0  0  0  0  0
   32.0960   27.9120   48.2440 C   0  0  0  0  0  0  0  0  0  0  0  0
   31.8070   27.6180   46.9190 C   0  0  0  0  0  0  0  0  0  0  0  0
   30.5820   27.1480   46.5750 N   0  0  0  0  0  0  0  0  0  0  0  0
   29.6250   26.9590   47.5180 C   0  0  0  0  0  0  0  0  0  0  0  0
   29.8590   27.2290   48.8040 N   0  0  0  0  0  0  0  0  0  0  0  0
   31.2540   27.9130   50.2040 H   0  0  0  0  0  0  0  0  0  0  0  0
   32.5740   27.7670   46.1430 H   0  0  0  0  0  0  0  0  0  0  0  0
   28.6630   26.5790   47.1750 H   0  0  0  0  0  0  0  0  0  0  0  0
   37.2660   29.9110   49.3730 O   0  0  0  0  0  0  0  0  0  0  0  0
   37.8080   30.8050   48.4640 C   0  0  0  0  0  0  0  0  0  0  0  0
   38.4010   31.9320   49.0480 C   0  0  0  0  0  0  0  0  0  0  0  0
   38.9050   32.7490   48.0580 C   0  0  0  0  0  0  0  0  0  0  0  0
   38.6090   32.1070   46.9200 N   0  0  0  0  0  0  0  0  0  0  0  0
   37.9740   30.9810   47.1470 N   0  0  0  0  0  0  0  0  0  0  0  0
   38.5350   32.2740   50.0880 H   0  0  0  0  0  0  0  0  0  0  0  0
   39.4290   33.7010   48.1030 H   0  0  0  0  0  0  0  0  0  0  0  0
   38.8820   32.4790   45.5530 C   0  0  0  0  0  0  0  0  0  0  0  0
   37.9110   32.3240   44.6040 C   0  0  0  0  0  0  0  0  0  0  0  0
   36.9030   31.9450   44.7020 H   0  0  0  0  0  0  0  0  0  0  0  0
   38.0320   32.6280   43.3080 C   0  0  0  0  0  3  0  0  0  0  0  0
   39.3350   33.1670   42.9380 C   0  0  0  0  0  3  0  0  0  0  0  0
   40.3060   33.1790   44.6010 S   0  0  0  0  0  0  0  0  0  0  0  0
  1  2  1  0  0  0  0
  2  3  2  0  0  0  0
  2  7  1  0  0  0  0
  3  8  1  0  0  0  0
  4 19  1  0  0  0  0
  4  3  1  0  0  0  0
  5  4  2  0  0  0  0
  6  5  1  0  0  0  0
  6  1  2  0  0  0  0
  9  5  1  0  0  0  0
 10 16  1  0  0  0  0
 11  1  1  0  0  0  0
 11 10  2  0  0  0  0
 12 11  1  0  0  0  0
 13 12  2  0  0  0  0
 13 14  1  0  0  0  0
 14 15  2  0  0  0  0
 15 10  1  0  0  0  0
 17 12  1  0  0  0  0
 18 14  1  0  0  0  0
 20 21  1  0  0  0  0
 20 19  1  0  0  0  0
 21 25  1  0  0  0  0
 22 26  1  0  0  0  0
 22 21  2  0  0  0  0
 23 24  1  0  0  0  0
 23 22  1  0  0  0  0
 24 20  2  0  0  0  0
 27 23  1  0  0  0  0
 28 29  1  0  0  0  0
 28 27  2  0  0  0  0
 30 28  1  0  0  0  0
 31 30  2  0  0  0  0
 31 32  1  0  0  0  0
 32 27  1  0  0  0  0
M  END
>  <minimizedAffinity>
-5.60885859

>  <minimizedRMSD>
1.54042768

$$$$
