REMARK  Name = 
REMARK  3 active torsions:
REMARK  status: ('A' for Active; 'I' for Inactive)
REMARK    1  A    between atoms: C_1  and  C_7
REMARK    2  A    between atoms: C_3  and  N_13
REMARK    3  A    between atoms: C_17  and  C_38
REMARK                            x       y       z     vdW  Elec       q    Type
REMARK                         _______ _______ _______ _____ _____    ______ ____
ROOT
ATOM      1  C   UNL     1      35.241  30.318  49.577  0.00  0.00    +0.000 C 
ATOM      2  C   UNL     1      36.251  30.987  48.712  0.00  0.00    +0.000 C 
ATOM      3  C   UNL     1      37.641  30.400  48.883  0.00  0.00    +0.000 C 
ATOM      4  C   UNL     1      38.111  30.447  50.291  0.00  0.00    +0.000 C 
ATOM      5  C   UNL     1      37.033  30.096  51.293  0.00  0.00    +0.000 C 
ATOM      6  C   UNL     1      35.858  29.423  50.627  0.00  0.00    +0.000 C 
ATOM      7  H   UNL     1      34.601  31.032  50.173  0.00  0.00    +0.000 HD
ATOM      8  H   UNL     1      36.349  32.039  49.138  0.00  0.00    +0.000 HD
ATOM      9  H   UNL     1      36.093  31.013  47.644  0.00  0.00    +0.000 HD
ATOM     10  H   UNL     1      37.563  29.335  48.580  0.00  0.00    +0.000 HD
ATOM     11  H   UNL     1      38.876  29.622  50.396  0.00  0.00    +0.000 HD
ATOM     12  H   UNL     1      38.578  31.345  50.657  0.00  0.00    +0.000 HD
ATOM     13  H   UNL     1      37.404  29.537  52.151  0.00  0.00    +0.000 HD
ATOM     14  H   UNL     1      36.617  31.048  51.709  0.00  0.00    +0.000 HD
ATOM     15  H   UNL     1      36.167  28.445  50.157  0.00  0.00    +0.000 HD
ATOM     16  H   UNL     1      35.101  29.201  51.390  0.00  0.00    +0.000 HD
ENDROOT
BRANCH   3  17
ATOM     17  N   UNL     1      38.591  31.034  48.025  0.00  0.00    +0.000 NA
ATOM     18  C   UNL     1      38.459  30.635  46.634  0.00  0.00    +0.000 C 
ATOM     19  C   UNL     1      39.629  31.412  46.027  0.00  0.00    +0.000 C 
ATOM     20  C   UNL     1      39.518  32.717  46.761  0.00  0.00    +0.000 C 
ATOM     21  C   UNL     1      38.679  32.425  48.037  0.00  0.00    +0.000 C 
ATOM     22  H   UNL     1      38.586  29.569  46.455  0.00  0.00    +0.000 HD
ATOM     23  H   UNL     1      37.524  31.058  46.180  0.00  0.00    +0.000 HD
ATOM     24  H   UNL     1      39.369  31.608  44.957  0.00  0.00    +0.000 HD
ATOM     25  H   UNL     1      40.574  30.878  46.154  0.00  0.00    +0.000 HD
ATOM     26  H   UNL     1      39.060  33.517  46.157  0.00  0.00    +0.000 HD
ATOM     27  H   UNL     1      40.543  33.043  47.024  0.00  0.00    +0.000 HD
ATOM     28  H   UNL     1      37.693  32.879  47.820  0.00  0.00    +0.000 HD
BRANCH  21  29
ATOM     29  C   UNL     1      39.335  33.152  49.061  0.00  0.00    +0.000 A 
ATOM     30  C   UNL     1      40.349  34.099  49.058  0.00  0.00    +0.000 A 
ATOM     31  H   UNL     1      40.752  34.368  48.094  0.00  0.00    +0.000 HD
ATOM     32  C   UNL     1      40.786  34.639  50.240  0.00  0.00    +0.000 A 
ATOM     33  C   UNL     1      40.160  34.188  51.443  0.00  0.00    +0.000 A 
ATOM     34  S   UNL     1      38.926  32.972  50.870  0.00  0.00    +0.000 S 
ENDBRANCH  21  29
ENDBRANCH   3  17
BRANCH   1  35
ATOM     35  C   UNL     1      34.286  29.486  48.808  0.00  0.00    +0.000 A 
ATOM     36  C   UNL     1      34.146  29.857  47.468  0.00  0.00    +0.000 A 
ATOM     37  C   UNL     1      33.262  29.090  46.687  0.00  0.00    +0.000 A 
ATOM     38  N   UNL     1      32.593  28.031  47.275  0.00  0.00    +0.000 NA
ATOM     39  C   UNL     1      32.766  27.712  48.586  0.00  0.00    +0.000 A 
ATOM     40  N   UNL     1      33.597  28.437  49.312  0.00  0.00    +0.000 NA
ATOM     41  H   UNL     1      34.509  30.599  46.787  0.00  0.00    +0.000 HD
ATOM     42  H   UNL     1      32.983  29.164  45.657  0.00  0.00    +0.000 HD
ATOM     43  H   UNL     1      32.234  26.885  49.018  0.00  0.00    +0.000 HD
ENDBRANCH   1  35
TORSDOF 3
