
 OpenBabel03272509383D

 27 29  0  0  1  0  0  0  0  0999 V2000
   36.0730   29.6030   49.0080 C   0  0  0  0  0  0  0  0  0  0  0  0
   36.0690   29.6490   50.4250 C   0  0  0  0  0  0  0  0  0  0  0  0
   37.0350   30.4020   51.1110 C   0  0  0  0  0  0  0  0  0  0  0  0
   37.9930   31.1020   50.4070 C   0  0  0  0  0  0  0  0  0  0  0  0
   37.9510   31.0230   49.0440 C   0  0  0  0  0  0  0  0  0  0  0  0
   37.0140   30.2870   48.3210 C   0  0  0  0  0  0  0  0  0  0  0  0
   35.2950   29.0810   50.9230 H   0  0  0  0  0  0  0  0  0  0  0  0
   36.8930   30.3330   52.1640 H   0  0  0  0  0  0  0  0  0  0  0  0
   38.6980   31.6580   51.0020 H   0  0  0  0  0  0  0  0  0  0  0  0
   38.7710   31.6320   48.6220 H   0  0  0  0  0  0  0  0  0  0  0  0
   37.2300   30.4510   46.9110 C   0  0  0  0  0  0  0  0  0  0  0  0
   38.6650   30.5590   46.5030 C   0  0  0  0  0  0  0  0  0  0  0  0
   39.5510   30.6190   47.1680 H   0  0  0  0  0  0  0  0  0  0  0  0
   39.0720   30.5930   45.2270 C   0  0  0  0  0  3  0  0  0  0  0  0
   38.0230   30.5190   44.2810 C   0  0  0  0  0  3  0  0  0  0  0  0
   36.5940   30.4120   45.2000 S   0  0  0  0  0  0  0  0  0  0  0  0
   35.0410   28.7910   48.3630 C   0  0  1  0  0  3  0  0  0  0  0  0
   34.9330   27.5930   48.8510 O   0  0  0  0  0  1  0  0  0  0  0  0
   32.9100   31.0300   46.4720 C   0  0  0  0  0  0  0  0  0  0  0  0
   32.5570   30.2950   45.3510 C   0  0  0  0  0  0  0  0  0  0  0  0
   33.0520   28.9930   45.2340 C   0  0  0  0  0  0  0  0  0  0  0  0
   33.8700   28.4760   46.2190 N   0  0  0  0  0  0  0  0  0  0  0  0
   34.1790   29.2210   47.2740 C   0  0  0  0  0  0  0  0  0  0  0  0
   33.6970   30.4830   47.3870 N   0  0  0  0  0  0  0  0  0  0  0  0
   32.4840   32.0210   46.4820 H   0  0  0  0  0  0  0  0  0  0  0  0
   31.9410   30.5810   44.5300 H   0  0  0  0  0  0  0  0  0  0  0  0
   32.8240   28.3450   44.3830 H   0  0  0  0  0  0  0  0  0  0  0  0
  1  2  1  0  0  0  0
  2  7  1  0  0  0  0
  2  3  2  0  0  0  0
  3  8  1  0  0  0  0
  4  9  1  0  0  0  0
  4  3  1  0  0  0  0
  5  4  2  0  0  0  0
  6  1  2  0  0  0  0
  6  5  1  0  0  0  0
 10  5  1  0  0  0  0
 11  6  1  0  0  0  0
 12 11  2  0  0  0  0
 12 13  1  0  0  0  0
 14 12  1  0  0  0  0
 15 16  1  0  0  0  0
 15 14  2  0  0  0  0
 16 11  1  0  0  0  0
 17 18  1  1  0  0  0
 17  1  1  0  0  0  0
 19 25  1  0  0  0  0
 19 24  1  0  0  0  0
 20 19  2  0  0  0  0
 21 20  1  0  0  0  0
 21 22  2  0  0  0  0
 22 23  1  0  0  0  0
 23 24  2  0  0  0  0
 23 17  1  0  0  0  0
 26 20  1  0  0  0  0
 27 21  1  0  0  0  0
M  END
>  <minimizedAffinity>
-4.97651911

>  <minimizedRMSD>
0.466846138

$$$$
