
     RDKit          3D

 29 31  0  0  0  0  0  0  0  0999 V2000
   36.7537   30.7722   50.7186 C   0  0  1  0  0  0  0  0  0  0  0  0
   36.0309   29.5085   50.8546 C   0  0  2  0  0  0  0  0  0  0  0  0
   37.4789   29.5130   51.2433 C   0  0  0  0  0  0  0  0  0  0  0  0
   37.3125   31.2243   49.4065 C   0  0  0  0  0  0  0  0  0  0  0  0
   38.3108   32.1899   49.4554 C   0  0  0  0  0  0  0  0  0  0  0  0
   38.8026   32.5983   48.2202 C   0  0  0  0  0  0  0  0  0  0  0  0
   38.3215   32.0729   47.0593 N   0  0  0  0  0  0  0  0  0  0  0  0
   37.3437   31.1300   47.0544 C   0  0  0  0  0  0  0  0  0  0  0  0
   36.8326   30.6999   48.2409 N   0  0  0  0  0  0  0  0  0  0  0  0
   35.6488   28.8689   49.6837 O   0  0  0  0  0  0  0  0  0  0  0  0
   34.4377   28.3940   49.3074 C   0  0  0  0  0  0  0  0  0  0  0  0
   34.3086   27.4000   48.5644 O   0  0  0  0  0  0  0  0  0  0  0  0
   33.4548   29.1992   49.8873 N   0  0  0  0  0  0  0  0  0  0  0  0
   36.7021   31.6061   51.4726 H   0  0  0  0  0  0  0  0  0  0  0  0
   35.2091   29.5585   51.6156 H   0  0  0  0  0  0  0  0  0  0  0  0
   37.6352   29.4765   52.3574 H   0  0  0  0  0  0  0  0  0  0  0  0
   38.2253   29.0244   50.6158 H   0  0  0  0  0  0  0  0  0  0  0  0
   38.6810   32.5957   50.3660 H   0  0  0  0  0  0  0  0  0  0  0  0
   39.5833   33.3463   48.1356 H   0  0  0  0  0  0  0  0  0  0  0  0
   33.1563   30.0524   49.4049 H   0  0  0  0  0  0  0  0  0  0  0  0
   33.2224   28.6873   50.7844 H   0  0  0  0  0  0  0  0  0  0  0  0
   36.9324   30.6664   45.7738 C   0  0  0  0  0  0  0  0  0  0  0  0
   36.3059   29.5545   45.3244 C   0  0  0  0  0  0  0  0  0  0  0  0
   36.0443   28.8271   46.1108 H   0  0  0  0  0  0  0  0  0  0  0  0
   36.0297   29.3657   44.0112 C   0  0  0  0  0  0  0  0  0  0  0  0
   36.4255   30.3765   43.1534 C   0  0  0  0  0  0  0  0  0  0  0  0
   37.2190   31.6140   44.3532 S   0  0  0  0  0  0  0  0  0  0  0  0
   35.5307   28.4874   43.6263 H   0  0  0  0  0  0  0  0  0  0  0  0
   36.2610   30.3581   42.0229 H   0  0  0  0  0  0  0  0  0  0  0  0
  1  2  1  0
  1  3  1  0
  2  3  1  0
  4  5  2  0
  4  1  1  0
  6  5  1  0
  7  6  2  0
  8  7  1  0
  8  9  2  0
  9  4  1  0
 10  2  1  0
 11 10  1  0
 11 13  1  0
 12 11  2  0
  1 14  1  1
  2 15  1  1
  3 16  1  0
  3 17  1  0
  5 18  1  0
  6 19  1  0
 13 20  1  0
 13 21  1  0
 22 23  2  0
 23 24  1  0
 23 25  1  0
 25 26  2  0
 26 27  1  0
 27 22  1  0
 25 28  1  0
 26 29  1  0
  8 22  1  0
M  ISO  7  14  13  15  13  16  13  17  13  18  14  19  14  24  15
M  END
>  <DihAtoms>  (1) 
6,7,21,22

>  <DihDeg>  (1) 
-66.15559063043314

$$$$
