REMARK  Name = 
REMARK  4 active torsions:
REMARK  status: ('A' for Active; 'I' for Inactive)
REMARK    1  A    between atoms: C_1  and  C_4
REMARK    2  A    between atoms: C_2  and  O_10
REMARK    3  A    between atoms: C_8  and  C_22
REMARK    4  A    between atoms: O_10  and  C_11
REMARK                            x       y       z     vdW  Elec       q    Type
REMARK                         _______ _______ _______ _____ _____    ______ ____
ROOT
ATOM      1  C   UNL     1      37.312  31.224  49.407  0.00  0.00    +0.000 A 
ATOM      2  C   UNL     1      38.311  32.190  49.455  0.00  0.00    +0.000 A 
ATOM      3  C   UNL     1      38.803  32.598  48.220  0.00  0.00    +0.000 A 
ATOM      4  N   UNL     1      38.322  32.073  47.059  0.00  0.00    +0.000 NA
ATOM      5  C   UNL     1      37.344  31.130  47.054  0.00  0.00    +0.000 A 
ATOM      6  N   UNL     1      36.833  30.700  48.241  0.00  0.00    +0.000 NA
ATOM      7  H   UNL     1      38.681  32.596  50.366  0.00  0.00    +0.000 HD
ATOM      8  H   UNL     1      39.583  33.346  48.136  0.00  0.00    +0.000 HD
ENDROOT
BRANCH   1   9
ATOM      9  C   UNL     1      36.754  30.772  50.719  0.00  0.00    +0.000 C 
ATOM     10  C   UNL     1      36.031  29.509  50.855  0.00  0.00    +0.000 C 
ATOM     11  C   UNL     1      37.479  29.513  51.243  0.00  0.00    +0.000 C 
ATOM     12  H   UNL     1      36.702  31.606  51.473  0.00  0.00    +0.000 HD
ATOM     13  H   UNL     1      35.209  29.558  51.616  0.00  0.00    +0.000 HD
ATOM     14  H   UNL     1      37.635  29.477  52.357  0.00  0.00    +0.000 HD
ATOM     15  H   UNL     1      38.225  29.024  50.616  0.00  0.00    +0.000 HD
BRANCH  10  16
ATOM     16  O   UNL     1      35.649  28.869  49.684  0.00  0.00    +0.000 OA
BRANCH  16  17
ATOM     17  C   UNL     1      34.438  28.394  49.307  0.00  0.00    +0.000 C 
ATOM     18  O   UNL     1      34.309  27.400  48.564  0.00  0.00    +0.000 OA
ATOM     19  N   UNL     1      33.455  29.199  49.887  0.00  0.00    +0.000 N 
ATOM     20  H   UNL     1      33.156  30.052  49.405  0.00  0.00    +0.000 HD
ATOM     21  H   UNL     1      33.222  28.687  50.784  0.00  0.00    +0.000 HD
ENDBRANCH  16  17
ENDBRANCH  10  16
ENDBRANCH   1   9
BRANCH   5  22
ATOM     22  C   UNL     1      36.932  30.666  45.774  0.00  0.00    +0.000 A 
ATOM     23  C   UNL     1      36.306  29.555  45.324  0.00  0.00    +0.000 A 
ATOM     24  H   UNL     1      36.044  28.827  46.111  0.00  0.00    +0.000 HD
ATOM     25  C   UNL     1      36.030  29.366  44.011  0.00  0.00    +0.000 A 
ATOM     26  C   UNL     1      36.425  30.377  43.153  0.00  0.00    +0.000 A 
ATOM     27  S   UNL     1      37.219  31.614  44.353  0.00  0.00    +0.000 S 
ENDBRANCH   5  22
TORSDOF 4
