
 OpenBabel03272509383D

 27 29  0  0  1  0  0  0  0  0999 V2000
   36.0440   29.5720   48.9490 C   0  0  0  0  0  0  0  0  0  0  0  0
   36.1120   29.4590   50.3610 C   0  0  0  0  0  0  0  0  0  0  0  0
   37.1010   30.1520   51.0790 C   0  0  0  0  0  0  0  0  0  0  0  0
   38.0080   30.9480   50.4110 C   0  0  0  0  0  0  0  0  0  0  0  0
   37.8970   31.0210   49.0520 C   0  0  0  0  0  0  0  0  0  0  0  0
   36.9360   30.3500   48.2980 C   0  0  0  0  0  0  0  0  0  0  0  0
   35.3760   28.8210   50.8290 H   0  0  0  0  0  0  0  0  0  0  0  0
   37.0140   29.9630   52.1220 H   0  0  0  0  0  0  0  0  0  0  0  0
   38.7340   31.4490   51.0290 H   0  0  0  0  0  0  0  0  0  0  0  0
   38.6840   31.6910   48.6610 H   0  0  0  0  0  0  0  0  0  0  0  0
   37.0760   30.6750   46.9070 C   0  0  0  0  0  0  0  0  0  0  0  0
   37.8890   31.8990   46.6250 C   0  0  0  0  0  0  0  0  0  0  0  0
   38.3060   32.6150   47.3640 H   0  0  0  0  0  0  0  0  0  0  0  0
   38.2340   32.2930   45.3920 C   0  0  0  0  0  3  0  0  0  0  0  0
   37.7590   31.4490   44.3590 C   0  0  0  0  0  3  0  0  0  0  0  0
   36.8980   30.2100   45.1500 S   0  0  0  0  0  0  0  0  0  0  0  0
   34.9940   28.8140   48.2680 C   0  0  1  0  0  3  0  0  0  0  0  0
   34.7940   27.6310   48.7630 O   0  0  0  0  0  1  0  0  0  0  0  0
   32.8970   31.0720   46.3620 C   0  0  0  0  0  0  0  0  0  0  0  0
   32.6940   30.4120   45.1610 C   0  0  0  0  0  0  0  0  0  0  0  0
   33.2810   29.1550   44.9920 C   0  0  0  0  0  0  0  0  0  0  0  0
   34.0400   28.6070   46.0070 N   0  0  0  0  0  0  0  0  0  0  0  0
   34.2050   29.2810   47.1400 C   0  0  0  0  0  0  0  0  0  0  0  0
   33.6340   30.4990   47.3020 N   0  0  0  0  0  0  0  0  0  0  0  0
   32.4090   32.0340   46.4070 H   0  0  0  0  0  0  0  0  0  0  0  0
   32.1350   30.7280   44.3090 H   0  0  0  0  0  0  0  0  0  0  0  0
   33.1710   28.5660   44.0770 H   0  0  0  0  0  0  0  0  0  0  0  0
  1  2  1  0  0  0  0
  2  7  1  0  0  0  0
  2  3  2  0  0  0  0
  3  8  1  0  0  0  0
  4  9  1  0  0  0  0
  4  3  1  0  0  0  0
  5  4  2  0  0  0  0
  6  1  2  0  0  0  0
  6  5  1  0  0  0  0
 10  5  1  0  0  0  0
 11  6  1  0  0  0  0
 12 11  2  0  0  0  0
 12 13  1  0  0  0  0
 14 12  1  0  0  0  0
 15 16  1  0  0  0  0
 15 14  2  0  0  0  0
 16 11  1  0  0  0  0
 17 18  1  1  0  0  0
 17  1  1  0  0  0  0
 19 25  1  0  0  0  0
 19 24  1  0  0  0  0
 20 19  2  0  0  0  0
 21 20  1  0  0  0  0
 21 22  2  0  0  0  0
 22 23  1  0  0  0  0
 23 24  2  0  0  0  0
 23 17  1  0  0  0  0
 26 20  1  0  0  0  0
 27 21  1  0  0  0  0
M  END
>  <minimizedAffinity>
-5.06004572

>  <minimizedRMSD>
0.68400979

$$$$
