
 OpenBabel03272501233D

 37 40  0  0  0  0  0  0  0  0999 V2000
   36.4690   28.2190   33.6620 C   0  0  0  0  0  0  0  0  0  0  0  0
   35.8950   29.4730   33.5040 C   0  0  0  0  0  0  0  0  0  0  0  0
   36.0070   30.0130   32.2250 C   0  0  0  0  0  0  0  0  0  0  0  0
   36.6550   29.3220   31.1970 C   0  0  0  0  0  0  0  0  0  0  0  0
   37.2040   28.0750   31.4260 C   0  0  0  0  0  0  0  0  0  0  0  0
   37.1100   27.5150   32.6760 C   0  0  0  0  0  0  0  0  0  0  0  0
   35.5920   30.9890   31.9980 H   0  0  0  0  0  0  0  0  0  0  0  0
   36.7450   29.7370   30.2040 H   0  0  0  0  0  0  0  0  0  0  0  0
   37.7040   27.5490   30.6220 H   0  0  0  0  0  0  0  0  0  0  0  0
   35.9530   30.9940   35.4340 C   0  0  0  0  0  0  0  0  0  0  0  0
   35.2370   30.1670   34.5630 C   0  0  0  0  0  0  0  0  0  0  0  0
   33.8580   30.0530   34.7790 C   0  0  0  0  0  0  0  0  0  0  0  0
   33.2930   30.7440   35.8110 N   0  0  0  0  0  0  0  0  0  0  0  0
   34.0300   31.5310   36.6240 C   0  0  0  0  0  0  0  0  0  0  0  0
   35.3640   31.6590   36.4390 N   0  0  0  0  0  0  0  0  0  0  0  0
   37.0200   31.0700   35.2510 H   0  0  0  0  0  0  0  0  0  0  0  0
   33.2540   29.4220   34.1300 H   0  0  0  0  0  0  0  0  0  0  0  0
   33.4410   32.0150   37.4000 H   0  0  0  0  0  0  0  0  0  0  0  0
   36.4090   27.5840   34.9200 O   0  0  0  0  0  0  0  0  0  0  0  0
   36.8330   28.0630   35.6930 H   0  0  0  0  0  0  0  0  0  0  0  0
   37.6610   26.2620   32.9080 O   0  0  0  0  0  0  0  0  0  0  0  0
   37.9660   23.6610   34.4080 Cl  0  0  0  0  0  0  0  0  0  0  0  0
   39.1890   24.8910   34.3210 C   0  0  0  0  0  0  0  0  0  0  0  0
   38.8460   26.0160   33.5770 C   0  0  0  0  0  0  0  0  0  0  0  0
   39.8040   27.0240   33.4860 C   0  0  0  0  0  0  0  0  0  0  0  0
   41.0350   26.9510   34.0850 C   0  0  0  0  0  0  0  0  0  0  0  0
   41.3600   25.8150   34.8260 C   0  0  0  0  0  0  0  0  0  0  0  0
   40.4210   24.8290   34.9140 C   0  0  0  0  0  0  0  0  0  0  0  0
   39.6290   27.9400   32.9280 H   0  0  0  0  0  0  0  0  0  0  0  0
   41.7660   27.7400   34.0050 H   0  0  0  0  0  0  0  0  0  0  0  0
   42.3100   25.7090   35.3150 H   0  0  0  0  0  0  0  0  0  0  0  0
   40.7480   23.6600   35.6730 C   0  0  0  0  0  0  0  0  0  0  0  0
   40.2530   23.1410   36.9060 C   0  0  0  0  0  0  0  0  0  0  0  0
   39.4830   23.7510   37.3480 H   0  0  0  0  0  0  0  0  0  0  0  0
   40.8310   21.9680   37.3190 C   0  0  0  0  0  3  0  0  0  0  0  0
   41.7880   21.3870   36.5850 C   0  0  0  0  0  3  0  0  0  0  0  0
   42.0470   22.4370   35.1300 S   0  0  0  0  0  0  0  0  0  0  0  0
  1 19  1  0  0  0  0
  2  1  1  0  0  0  0
  2 11  1  0  0  0  0
  3  2  2  0  0  0  0
  4  5  2  0  0  0  0
  4  3  1  0  0  0  0
  5  6  1  0  0  0  0
  6 21  1  0  0  0  0
  6  1  2  0  0  0  0
  7  3  1  0  0  0  0
  8  4  1  0  0  0  0
  9  5  1  0  0  0  0
 10 15  1  0  0  0  0
 11 12  1  0  0  0  0
 11 10  2  0  0  0  0
 12 13  2  0  0  0  0
 13 14  1  0  0  0  0
 14 18  1  0  0  0  0
 15 14  2  0  0  0  0
 16 10  1  0  0  0  0
 17 12  1  0  0  0  0
 19 20  1  0  0  0  0
 21 24  1  0  0  0  0
 23 22  1  0  0  0  0
 23 28  1  0  0  0  0
 24 23  2  0  0  0  0
 25 24  1  0  0  0  0
 25 26  2  0  0  0  0
 26 27  1  0  0  0  0
 27 28  2  0  0  0  0
 27 31  1  0  0  0  0
 28 32  1  0  0  0  0
 29 25  1  0  0  0  0
 30 26  1  0  0  0  0
 32 33  2  0  0  0  0
 33 35  1  0  0  0  0
 33 34  1  0  0  0  0
 36 35  2  0  0  0  0
 37 32  1  0  0  0  0
 37 36  1  0  0  0  0
M  END
>  <minimizedAffinity>
-5.96891832

$$$$

 OpenBabel03272501233D

 37 40  0  0  0  0  0  0  0  0999 V2000
   36.1630   29.1020   33.4720 C   0  0  0  0  0  0  0  0  0  0  0  0
   35.5650   30.3510   33.5780 C   0  0  0  0  0  0  0  0  0  0  0  0
   35.6070   31.1210   32.4190 C   0  0  0  0  0  0  0  0  0  0  0  0
   36.2130   30.6480   31.2510 C   0  0  0  0  0  0  0  0  0  0  0  0
   36.7890   29.3920   31.2170 C   0  0  0  0  0  0  0  0  0  0  0  0
   36.7640   28.6080   32.3430 C   0  0  0  0  0  0  0  0  0  0  0  0
   35.1680   32.1130   32.3970 H   0  0  0  0  0  0  0  0  0  0  0  0
   36.2480   31.2420   30.3490 H   0  0  0  0  0  0  0  0  0  0  0  0
   37.2550   29.0360   30.3070 H   0  0  0  0  0  0  0  0  0  0  0  0
   33.5930   30.5960   35.0240 C   0  0  0  0  0  0  0  0  0  0  0  0
   34.9520   30.8200   34.7760 C   0  0  0  0  0  0  0  0  0  0  0  0
   35.6710   31.5220   35.7520 C   0  0  0  0  0  0  0  0  0  0  0  0
   35.0210   31.9430   36.8760 N   0  0  0  0  0  0  0  0  0  0  0  0
   33.7060   31.7000   37.0660 C   0  0  0  0  0  0  0  0  0  0  0  0
   32.9870   31.0250   36.1410 N   0  0  0  0  0  0  0  0  0  0  0  0
   33.0530   30.0510   34.2580 H   0  0  0  0  0  0  0  0  0  0  0  0
   36.7310   31.7240   35.6090 H   0  0  0  0  0  0  0  0  0  0  0  0
   33.3300   32.0970   38.0070 H   0  0  0  0  0  0  0  0  0  0  0  0
   36.1740   28.2430   34.5910 O   0  0  0  0  0  0  0  0  0  0  0  0
   36.6290   28.5800   35.4190 H   0  0  0  0  0  0  0  0  0  0  0  0
   37.3430   27.3460   32.3120 O   0  0  0  0  0  0  0  0  0  0  0  0
   38.6480   24.7050   32.9630 Cl  0  0  0  0  0  0  0  0  0  0  0  0
   37.1330   24.8700   32.1310 C   0  0  0  0  0  0  0  0  0  0  0  0
   36.7070   26.1790   31.9310 C   0  0  0  0  0  0  0  0  0  0  0  0
   35.4950   26.3490   31.2640 C   0  0  0  0  0  0  0  0  0  0  0  0
   34.7280   25.3060   30.8140 C   0  0  0  0  0  0  0  0  0  0  0  0
   35.1730   24.0010   31.0250 C   0  0  0  0  0  0  0  0  0  0  0  0
   36.3590   23.8360   31.6780 C   0  0  0  0  0  0  0  0  0  0  0  0
   35.0800   27.3330   31.0610 H   0  0  0  0  0  0  0  0  0  0  0  0
   33.7920   25.4540   30.3000 H   0  0  0  0  0  0  0  0  0  0  0  0
   34.6100   23.1490   30.6920 H   0  0  0  0  0  0  0  0  0  0  0  0
   36.8210   22.4990   31.8980 C   0  0  0  0  0  0  0  0  0  0  0  0
   36.5020   21.5180   32.8830 C   0  0  0  0  0  0  0  0  0  0  0  0
   35.7690   21.8530   33.5980 H   0  0  0  0  0  0  0  0  0  0  0  0
   37.1700   20.3270   32.7590 C   0  0  0  0  0  3  0  0  0  0  0  0
   38.0510   20.1430   31.7680 C   0  0  0  0  0  3  0  0  0  0  0  0
   38.0900   21.6780   30.8040 S   0  0  0  0  0  0  0  0  0  0  0  0
  1  2  1  0  0  0  0
  1 19  1  0  0  0  0
  2 11  1  0  0  0  0
  3  2  2  0  0  0  0
  4  3  1  0  0  0  0
  5  4  2  0  0  0  0
  5  6  1  0  0  0  0
  6  1  2  0  0  0  0
  7  3  1  0  0  0  0
  8  4  1  0  0  0  0
  9  5  1  0  0  0  0
 10 15  1  0  0  0  0
 11 10  2  0  0  0  0
 11 12  1  0  0  0  0
 12 13  2  0  0  0  0
 13 14  1  0  0  0  0
 14 18  1  0  0  0  0
 15 14  2  0  0  0  0
 16 10  1  0  0  0  0
 17 12  1  0  0  0  0
 19 20  1  0  0  0  0
 21  6  1  0  0  0  0
 23 22  1  0  0  0  0
 24 23  1  0  0  0  0
 24 21  1  0  0  0  0
 25 24  2  0  0  0  0
 26 27  2  0  0  0  0
 26 25  1  0  0  0  0
 27 28  1  0  0  0  0
 28 32  1  0  0  0  0
 28 23  2  0  0  0  0
 29 25  1  0  0  0  0
 30 26  1  0  0  0  0
 31 27  1  0  0  0  0
 32 33  2  0  0  0  0
 33 34  1  0  0  0  0
 35 33  1  0  0  0  0
 36 35  2  0  0  0  0
 37 36  1  0  0  0  0
 37 32  1  0  0  0  0
M  END
>  <minimizedAffinity>
-5.79631901

$$$$

 OpenBabel03272501233D

 37 40  0  0  0  0  0  0  0  0999 V2000
   39.4780   25.0570   33.9930 C   0  0  0  0  0  0  0  0  0  0  0  0
   40.6200   24.8710   34.7610 C   0  0  0  0  0  0  0  0  0  0  0  0
   41.5500   25.9050   34.6880 C   0  0  0  0  0  0  0  0  0  0  0  0
   41.3250   27.0320   33.8930 C   0  0  0  0  0  0  0  0  0  0  0  0
   40.1640   27.1510   33.1540 C   0  0  0  0  0  0  0  0  0  0  0  0
   39.2270   26.1490   33.2040 C   0  0  0  0  0  0  0  0  0  0  0  0
   42.4760   25.8570   35.2500 H   0  0  0  0  0  0  0  0  0  0  0  0
   42.0440   27.8370   33.8330 H   0  0  0  0  0  0  0  0  0  0  0  0
   40.0010   28.0290   32.5410 H   0  0  0  0  0  0  0  0  0  0  0  0
   40.0800   23.4940   36.7230 C   0  0  0  0  0  0  0  0  0  0  0  0
   40.8360   23.7150   35.5670 C   0  0  0  0  0  0  0  0  0  0  0  0
   41.8050   22.7570   35.2450 C   0  0  0  0  0  0  0  0  0  0  0  0
   41.9590   21.6730   36.0610 N   0  0  0  0  0  0  0  0  0  0  0  0
   41.2020   21.5070   37.1670 C   0  0  0  0  0  0  0  0  0  0  0  0
   40.2590   22.4160   37.5030 N   0  0  0  0  0  0  0  0  0  0  0  0
   39.3350   24.2470   36.9570 H   0  0  0  0  0  0  0  0  0  0  0  0
   42.4210   22.8800   34.3560 H   0  0  0  0  0  0  0  0  0  0  0  0
   41.4410   20.5980   37.7160 H   0  0  0  0  0  0  0  0  0  0  0  0
   38.4730   24.0670   33.9970 O   0  0  0  0  0  0  0  0  0  0  0  0
   38.7360   23.1490   33.6910 H   0  0  0  0  0  0  0  0  0  0  0  0
   38.0590   26.2660   32.4620 O   0  0  0  0  0  0  0  0  0  0  0  0
   36.7800   27.4470   34.9260 Cl  0  0  0  0  0  0  0  0  0  0  0  0
   36.6320   28.1140   33.3290 C   0  0  0  0  0  0  0  0  0  0  0  0
   37.3010   27.4140   32.3300 C   0  0  0  0  0  0  0  0  0  0  0  0
   37.2020   27.9210   31.0360 C   0  0  0  0  0  0  0  0  0  0  0  0
   36.4930   29.0500   30.7190 C   0  0  0  0  0  0  0  0  0  0  0  0
   35.8290   29.7380   31.7350 C   0  0  0  0  0  0  0  0  0  0  0  0
   35.9270   29.2410   33.0020 C   0  0  0  0  0  0  0  0  0  0  0  0
   37.6890   27.4440   30.1900 H   0  0  0  0  0  0  0  0  0  0  0  0
   36.4270   29.4300   29.7120 H   0  0  0  0  0  0  0  0  0  0  0  0
   35.2600   30.6270   31.5400 H   0  0  0  0  0  0  0  0  0  0  0  0
   35.2490   29.9420   34.0490 C   0  0  0  0  0  0  0  0  0  0  0  0
   35.6830   30.9130   35.0000 C   0  0  0  0  0  0  0  0  0  0  0  0
   36.7260   31.1640   34.9070 H   0  0  0  0  0  0  0  0  0  0  0  0
   34.7150   31.3590   35.8630 C   0  0  0  0  0  3  0  0  0  0  0  0
   33.4640   30.8890   35.7820 C   0  0  0  0  0  3  0  0  0  0  0  0
   33.4380   29.6900   34.4220 S   0  0  0  0  0  0  0  0  0  0  0  0
  1 19  1  0  0  0  0
  1  2  1  0  0  0  0
  2 11  1  0  0  0  0
  3  2  2  0  0  0  0
  3  7  1  0  0  0  0
  4  3  1  0  0  0  0
  5  6  1  0  0  0  0
  5  4  2  0  0  0  0
  6  1  2  0  0  0  0
  8  4  1  0  0  0  0
  9  5  1  0  0  0  0
 10 16  1  0  0  0  0
 10 15  1  0  0  0  0
 11 10  2  0  0  0  0
 12 11  1  0  0  0  0
 12 13  2  0  0  0  0
 13 14  1  0  0  0  0
 14 15  2  0  0  0  0
 14 18  1  0  0  0  0
 17 12  1  0  0  0  0
 20 19  1  0  0  0  0
 21  6  1  0  0  0  0
 23 22  1  0  0  0  0
 24 21  1  0  0  0  0
 24 23  2  0  0  0  0
 25 24  1  0  0  0  0
 26 25  2  0  0  0  0
 26 27  1  0  0  0  0
 27 28  2  0  0  0  0
 28 23  1  0  0  0  0
 28 32  1  0  0  0  0
 29 25  1  0  0  0  0
 30 26  1  0  0  0  0
 31 27  1  0  0  0  0
 32 37  1  0  0  0  0
 32 33  2  0  0  0  0
 33 35  1  0  0  0  0
 34 33  1  0  0  0  0
 36 35  2  0  0  0  0
 37 36  1  0  0  0  0
M  END
>  <minimizedAffinity>
-5.74543047

$$$$

 OpenBabel03272501233D

 37 40  0  0  0  0  0  0  0  0999 V2000
   36.7210   25.9420   31.1720 C   0  0  0  0  0  0  0  0  0  0  0  0
   37.4510   24.8480   31.6160 C   0  0  0  0  0  0  0  0  0  0  0  0
   38.6140   25.1610   32.3140 C   0  0  0  0  0  0  0  0  0  0  0  0
   38.9940   26.4880   32.5370 C   0  0  0  0  0  0  0  0  0  0  0  0
   38.2180   27.5300   32.0660 C   0  0  0  0  0  0  0  0  0  0  0  0
   37.0660   27.2540   31.3740 C   0  0  0  0  0  0  0  0  0  0  0  0
   39.2550   24.3780   32.7030 H   0  0  0  0  0  0  0  0  0  0  0  0
   39.8960   26.7370   33.0770 H   0  0  0  0  0  0  0  0  0  0  0  0
   38.5230   28.5540   32.2440 H   0  0  0  0  0  0  0  0  0  0  0  0
   37.9170   22.5890   30.7660 C   0  0  0  0  0  0  0  0  0  0  0  0
   37.0510   23.4990   31.3810 C   0  0  0  0  0  0  0  0  0  0  0  0
   35.7850   23.0270   31.7490 C   0  0  0  0  0  0  0  0  0  0  0  0
   35.4670   21.7240   31.4950 N   0  0  0  0  0  0  0  0  0  0  0  0
   36.3410   20.8860   30.8980 C   0  0  0  0  0  0  0  0  0  0  0  0
   37.5690   21.3140   30.5310 N   0  0  0  0  0  0  0  0  0  0  0  0
   38.8920   22.9730   30.4870 H   0  0  0  0  0  0  0  0  0  0  0  0
   35.0720   23.6930   32.2310 H   0  0  0  0  0  0  0  0  0  0  0  0
   35.9450   19.8810   30.7620 H   0  0  0  0  0  0  0  0  0  0  0  0
   35.5250   25.7320   30.4550 O   0  0  0  0  0  0  0  0  0  0  0  0
   35.5930   25.2150   29.5980 H   0  0  0  0  0  0  0  0  0  0  0  0
   36.2840   28.2990   30.9000 O   0  0  0  0  0  0  0  0  0  0  0  0
   35.1710   28.7240   33.6720 Cl  0  0  0  0  0  0  0  0  0  0  0  0
   35.7910   29.9910   32.6600 C   0  0  0  0  0  0  0  0  0  0  0  0
   36.2570   29.5820   31.4150 C   0  0  0  0  0  0  0  0  0  0  0  0
   36.7610   30.5740   30.5760 C   0  0  0  0  0  0  0  0  0  0  0  0
   36.8140   31.9000   30.9210 C   0  0  0  0  0  0  0  0  0  0  0  0
   36.3410   32.2900   32.1740 C   0  0  0  0  0  0  0  0  0  0  0  0
   35.8480   31.3180   32.9950 C   0  0  0  0  0  0  0  0  0  0  0  0
   37.1480   30.3520   29.5850 H   0  0  0  0  0  0  0  0  0  0  0  0
   37.2070   32.6550   30.2610 H   0  0  0  0  0  0  0  0  0  0  0  0
   36.3600   33.3150   32.4930 H   0  0  0  0  0  0  0  0  0  0  0  0
   35.3620   31.7120   34.2820 C   0  0  0  0  0  0  0  0  0  0  0  0
   35.9680   31.7500   35.5720 C   0  0  0  0  0  0  0  0  0  0  0  0
   36.9920   31.4160   35.5730 H   0  0  0  0  0  0  0  0  0  0  0  0
   35.1590   32.1990   36.5840 C   0  0  0  0  0  3  0  0  0  0  0  0
   33.8960   32.5650   36.3330 C   0  0  0  0  0  3  0  0  0  0  0  0
   33.6230   32.3290   34.5560 S   0  0  0  0  0  0  0  0  0  0  0  0
  1  6  2  0  0  0  0
  1  2  1  0  0  0  0
  2  3  2  0  0  0  0
  3  4  1  0  0  0  0
  3  7  1  0  0  0  0
  4  8  1  0  0  0  0
  5  9  1  0  0  0  0
  5  4  2  0  0  0  0
  6  5  1  0  0  0  0
 10 11  1  0  0  0  0
 11  2  1  0  0  0  0
 11 12  2  0  0  0  0
 12 17  1  0  0  0  0
 13 12  1  0  0  0  0
 14 13  2  0  0  0  0
 15 10  2  0  0  0  0
 15 14  1  0  0  0  0
 16 10  1  0  0  0  0
 18 14  1  0  0  0  0
 19  1  1  0  0  0  0
 20 19  1  0  0  0  0
 21  6  1  0  0  0  0
 21 24  1  0  0  0  0
 23 28  1  0  0  0  0
 23 22  1  0  0  0  0
 24 23  2  0  0  0  0
 25 26  2  0  0  0  0
 25 24  1  0  0  0  0
 26 27  1  0  0  0  0
 27 31  1  0  0  0  0
 27 28  2  0  0  0  0
 28 32  1  0  0  0  0
 29 25  1  0  0  0  0
 30 26  1  0  0  0  0
 32 37  1  0  0  0  0
 32 33  2  0  0  0  0
 33 34  1  0  0  0  0
 33 35  1  0  0  0  0
 36 35  2  0  0  0  0
 37 36  1  0  0  0  0
M  END
>  <minimizedAffinity>
-5.66823387

$$$$

 OpenBabel03272501233D

 37 40  0  0  0  0  0  0  0  0999 V2000
   37.3550   25.3350   31.7150 C   0  0  0  0  0  0  0  0  0  0  0  0
   36.8410   24.0560   31.5430 C   0  0  0  0  0  0  0  0  0  0  0  0
   35.5130   24.0080   31.1270 C   0  0  0  0  0  0  0  0  0  0  0  0
   34.7760   25.1760   30.9080 C   0  0  0  0  0  0  0  0  0  0  0  0
   35.3530   26.4170   31.0990 C   0  0  0  0  0  0  0  0  0  0  0  0
   36.6600   26.4980   31.5090 C   0  0  0  0  0  0  0  0  0  0  0  0
   35.0180   23.0570   30.9640 H   0  0  0  0  0  0  0  0  0  0  0  0
   33.7460   25.1440   30.5860 H   0  0  0  0  0  0  0  0  0  0  0  0
   34.7720   27.3140   30.9260 H   0  0  0  0  0  0  0  0  0  0  0  0
   37.6610   22.2870   33.0400 C   0  0  0  0  0  0  0  0  0  0  0  0
   37.6050   22.8730   31.7710 C   0  0  0  0  0  0  0  0  0  0  0  0
   38.3300   22.2500   30.7470 C   0  0  0  0  0  0  0  0  0  0  0  0
   39.0400   21.1200   31.0350 N   0  0  0  0  0  0  0  0  0  0  0  0
   39.0600   20.5950   32.2790 C   0  0  0  0  0  0  0  0  0  0  0  0
   38.3710   21.1760   33.2860 N   0  0  0  0  0  0  0  0  0  0  0  0
   37.0940   22.7840   33.8200 H   0  0  0  0  0  0  0  0  0  0  0  0
   38.3210   22.6640   29.7410 H   0  0  0  0  0  0  0  0  0  0  0  0
   39.6700   19.6960   32.3530 H   0  0  0  0  0  0  0  0  0  0  0  0
   38.6920   25.4920   32.1340 O   0  0  0  0  0  0  0  0  0  0  0  0
   38.9440   25.0880   33.0170 H   0  0  0  0  0  0  0  0  0  0  0  0
   37.2410   27.7440   31.7010 O   0  0  0  0  0  0  0  0  0  0  0  0
   36.5030   28.3120   34.5710 Cl  0  0  0  0  0  0  0  0  0  0  0  0
   36.1320   29.3610   33.2380 C   0  0  0  0  0  0  0  0  0  0  0  0
   36.5620   28.9120   31.9930 C   0  0  0  0  0  0  0  0  0  0  0  0
   36.2800   29.7290   30.9000 C   0  0  0  0  0  0  0  0  0  0  0  0
   35.6150   30.9230   31.0020 C   0  0  0  0  0  0  0  0  0  0  0  0
   35.1920   31.3560   32.2590 C   0  0  0  0  0  0  0  0  0  0  0  0
   35.4690   30.5550   33.3280 C   0  0  0  0  0  0  0  0  0  0  0  0
   36.5750   29.4630   29.8880 H   0  0  0  0  0  0  0  0  0  0  0  0
   35.4040   31.5440   30.1460 H   0  0  0  0  0  0  0  0  0  0  0  0
   34.6670   32.2830   32.3930 H   0  0  0  0  0  0  0  0  0  0  0  0
   35.0380   30.9930   34.6210 C   0  0  0  0  0  0  0  0  0  0  0  0
   35.6990   31.6950   35.6720 C   0  0  0  0  0  0  0  0  0  0  0  0
   36.7230   31.9410   35.4440 H   0  0  0  0  0  0  0  0  0  0  0  0
   34.9340   31.9370   36.7840 C   0  0  0  0  0  3  0  0  0  0  0  0
   33.6610   31.5250   36.8350 C   0  0  0  0  0  3  0  0  0  0  0  0
   33.3120   30.6940   35.2620 S   0  0  0  0  0  0  0  0  0  0  0  0
  1 19  1  0  0  0  0
  2  1  1  0  0  0  0
  2 11  1  0  0  0  0
  3  2  2  0  0  0  0
  4  5  2  0  0  0  0
  4  3  1  0  0  0  0
  5  6  1  0  0  0  0
  6 21  1  0  0  0  0
  6  1  2  0  0  0  0
  7  3  1  0  0  0  0
  8  4  1  0  0  0  0
  9  5  1  0  0  0  0
 10 15  1  0  0  0  0
 10 16  1  0  0  0  0
 11 10  2  0  0  0  0
 12 13  2  0  0  0  0
 12 11  1  0  0  0  0
 13 14  1  0  0  0  0
 14 18  1  0  0  0  0
 14 15  2  0  0  0  0
 17 12  1  0  0  0  0
 19 20  1  0  0  0  0
 21 24  1  0  0  0  0
 23 28  1  0  0  0  0
 23 22  1  0  0  0  0
 24 23  2  0  0  0  0
 25 26  2  0  0  0  0
 25 24  1  0  0  0  0
 26 27  1  0  0  0  0
 27 31  1  0  0  0  0
 27 28  2  0  0  0  0
 28 32  1  0  0  0  0
 29 25  1  0  0  0  0
 30 26  1  0  0  0  0
 32 37  1  0  0  0  0
 32 33  2  0  0  0  0
 33 35  1  0  0  0  0
 34 33  1  0  0  0  0
 35 36  2  0  0  0  0
 37 36  1  0  0  0  0
M  END
>  <minimizedAffinity>
-5.65273714

$$$$

 OpenBabel03272501233D

 37 40  0  0  0  0  0  0  0  0999 V2000
   36.1990   28.8200   33.4120 C   0  0  0  0  0  0  0  0  0  0  0  0
   35.0930   29.6500   33.2810 C   0  0  0  0  0  0  0  0  0  0  0  0
   34.8500   30.1020   31.9870 C   0  0  0  0  0  0  0  0  0  0  0  0
   35.6730   29.7330   30.9190 C   0  0  0  0  0  0  0  0  0  0  0  0
   36.7580   28.9020   31.1230 C   0  0  0  0  0  0  0  0  0  0  0  0
   37.0250   28.4390   32.3870 C   0  0  0  0  0  0  0  0  0  0  0  0
   34.0100   30.7560   31.7770 H   0  0  0  0  0  0  0  0  0  0  0  0
   35.4890   30.0820   29.9130 H   0  0  0  0  0  0  0  0  0  0  0  0
   37.3890   28.6230   30.2880 H   0  0  0  0  0  0  0  0  0  0  0  0
   34.6370   31.0460   35.2520 C   0  0  0  0  0  0  0  0  0  0  0  0
   34.2620   30.0180   34.3790 C   0  0  0  0  0  0  0  0  0  0  0  0
   33.0450   29.3750   34.6360 C   0  0  0  0  0  0  0  0  0  0  0  0
   32.2980   29.7780   35.7060 N   0  0  0  0  0  0  0  0  0  0  0  0
   32.7060   30.7770   36.5170 C   0  0  0  0  0  0  0  0  0  0  0  0
   33.8770   31.4150   36.2940 N   0  0  0  0  0  0  0  0  0  0  0  0
   35.5820   31.5320   35.0370 H   0  0  0  0  0  0  0  0  0  0  0  0
   32.7060   28.5680   33.9890 H   0  0  0  0  0  0  0  0  0  0  0  0
   32.0070   30.9830   37.3250 H   0  0  0  0  0  0  0  0  0  0  0  0
   36.5310   28.3060   34.6830 O   0  0  0  0  0  0  0  0  0  0  0  0
   36.7330   28.9730   35.4050 H   0  0  0  0  0  0  0  0  0  0  0  0
   38.1150   27.6040   32.5950 O   0  0  0  0  0  0  0  0  0  0  0  0
   39.5040   26.7710   35.1400 Cl  0  0  0  0  0  0  0  0  0  0  0  0
   38.6150   25.6920   34.1110 C   0  0  0  0  0  0  0  0  0  0  0  0
   38.0500   26.2780   32.9840 C   0  0  0  0  0  0  0  0  0  0  0  0
   37.3290   25.4410   32.1340 C   0  0  0  0  0  0  0  0  0  0  0  0
   37.1600   24.1000   32.3620 C   0  0  0  0  0  0  0  0  0  0  0  0
   37.7340   23.5300   33.4990 C   0  0  0  0  0  0  0  0  0  0  0  0
   38.4390   24.3510   34.3290 C   0  0  0  0  0  0  0  0  0  0  0  0
   36.8520   25.8070   31.2290 H   0  0  0  0  0  0  0  0  0  0  0  0
   36.5990   23.4650   31.6950 H   0  0  0  0  0  0  0  0  0  0  0  0
   37.6310   22.4850   33.7230 H   0  0  0  0  0  0  0  0  0  0  0  0
   39.0300   23.7730   35.4970 C   0  0  0  0  0  0  0  0  0  0  0  0
   40.2580   23.0810   35.7160 C   0  0  0  0  0  0  0  0  0  0  0  0
   40.8530   22.9750   34.8240 H   0  0  0  0  0  0  0  0  0  0  0  0
   40.4750   22.6700   37.0060 C   0  0  0  0  0  3  0  0  0  0  0  0
   39.5710   22.9230   37.9610 C   0  0  0  0  0  3  0  0  0  0  0  0
   38.2070   23.8180   37.1700 S   0  0  0  0  0  0  0  0  0  0  0  0
  1 19  1  0  0  0  0
  2  1  1  0  0  0  0
  2 11  1  0  0  0  0
  3  2  2  0  0  0  0
  4  5  2  0  0  0  0
  4  3  1  0  0  0  0
  5  6  1  0  0  0  0
  6 21  1  0  0  0  0
  6  1  2  0  0  0  0
  7  3  1  0  0  0  0
  8  4  1  0  0  0  0
  9  5  1  0  0  0  0
 10 15  1  0  0  0  0
 11 12  1  0  0  0  0
 11 10  2  0  0  0  0
 12 13  2  0  0  0  0
 13 14  1  0  0  0  0
 14 18  1  0  0  0  0
 15 14  2  0  0  0  0
 16 10  1  0  0  0  0
 17 12  1  0  0  0  0
 19 20  1  0  0  0  0
 21 24  1  0  0  0  0
 23 28  1  0  0  0  0
 23 22  1  0  0  0  0
 24 23  2  0  0  0  0
 25 26  2  0  0  0  0
 25 24  1  0  0  0  0
 26 27  1  0  0  0  0
 27 31  1  0  0  0  0
 27 28  2  0  0  0  0
 28 32  1  0  0  0  0
 29 25  1  0  0  0  0
 30 26  1  0  0  0  0
 32 33  2  0  0  0  0
 32 37  1  0  0  0  0
 33 35  1  0  0  0  0
 34 33  1  0  0  0  0
 35 36  2  0  0  0  0
 37 36  1  0  0  0  0
M  END
>  <minimizedAffinity>
-5.63501787

$$$$

 OpenBabel03272501233D

 37 40  0  0  0  0  0  0  0  0999 V2000
   38.8670   24.9840   33.8530 C   0  0  0  0  0  0  0  0  0  0  0  0
   38.7170   23.6700   34.2770 C   0  0  0  0  0  0  0  0  0  0  0  0
   37.8140   22.9140   33.5340 C   0  0  0  0  0  0  0  0  0  0  0  0
   37.1240   23.4630   32.4490 C   0  0  0  0  0  0  0  0  0  0  0  0
   37.3230   24.7800   32.0830 C   0  0  0  0  0  0  0  0  0  0  0  0
   38.2060   25.5520   32.7950 C   0  0  0  0  0  0  0  0  0  0  0  0
   37.6240   21.8760   33.7830 H   0  0  0  0  0  0  0  0  0  0  0  0
   36.4220   22.8810   31.8700 H   0  0  0  0  0  0  0  0  0  0  0  0
   36.7830   25.1950   31.2410 H   0  0  0  0  0  0  0  0  0  0  0  0
   40.5990   22.3830   35.1950 C   0  0  0  0  0  0  0  0  0  0  0  0
   39.4280   23.1240   35.3860 C   0  0  0  0  0  0  0  0  0  0  0  0
   38.9920   23.3010   36.7050 C   0  0  0  0  0  0  0  0  0  0  0  0
   39.7210   22.7510   37.7200 N   0  0  0  0  0  0  0  0  0  0  0  0
   40.8460   22.0430   37.4810 C   0  0  0  0  0  0  0  0  0  0  0  0
   41.2890   21.8560   36.2170 N   0  0  0  0  0  0  0  0  0  0  0  0
   40.9200   22.2570   34.1660 H   0  0  0  0  0  0  0  0  0  0  0  0
   38.0870   23.8690   36.9100 H   0  0  0  0  0  0  0  0  0  0  0  0
   41.3160   21.6680   38.3870 H   0  0  0  0  0  0  0  0  0  0  0  0
   39.7600   25.8340   34.5390 O   0  0  0  0  0  0  0  0  0  0  0  0
   39.5830   25.9890   35.5140 H   0  0  0  0  0  0  0  0  0  0  0  0
   38.4080   26.8770   32.4290 O   0  0  0  0  0  0  0  0  0  0  0  0
   36.9100   27.7850   34.8860 Cl  0  0  0  0  0  0  0  0  0  0  0  0
   36.6170   28.3830   33.2820 C   0  0  0  0  0  0  0  0  0  0  0  0
   37.4190   27.8320   32.2880 C   0  0  0  0  0  0  0  0  0  0  0  0
   37.2100   28.2880   30.9880 C   0  0  0  0  0  0  0  0  0  0  0  0
   36.2710   29.2330   30.6620 C   0  0  0  0  0  0  0  0  0  0  0  0
   35.4770   29.7740   31.6730 C   0  0  0  0  0  0  0  0  0  0  0  0
   35.6830   29.3260   32.9450 C   0  0  0  0  0  0  0  0  0  0  0  0
   37.7860   27.9170   30.1450 H   0  0  0  0  0  0  0  0  0  0  0  0
   36.1220   29.5760   29.6510 H   0  0  0  0  0  0  0  0  0  0  0  0
   34.7290   30.5160   31.4700 H   0  0  0  0  0  0  0  0  0  0  0  0
   34.8720   29.8770   33.9880 C   0  0  0  0  0  0  0  0  0  0  0  0
   33.5450   29.5970   34.4280 C   0  0  0  0  0  0  0  0  0  0  0  0
   33.0630   28.8170   33.8620 H   0  0  0  0  0  0  0  0  0  0  0  0
   33.1070   30.3550   35.4830 C   0  0  0  0  0  3  0  0  0  0  0  0
   33.9040   31.2820   36.0300 C   0  0  0  0  0  3  0  0  0  0  0  0
   35.4670   31.2400   35.1140 S   0  0  0  0  0  0  0  0  0  0  0  0
  1  2  1  0  0  0  0
  1 19  1  0  0  0  0
  2 11  1  0  0  0  0
  3  7  1  0  0  0  0
  3  2  2  0  0  0  0
  4  3  1  0  0  0  0
  5  4  2  0  0  0  0
  5  6  1  0  0  0  0
  6  1  2  0  0  0  0
  8  4  1  0  0  0  0
  9  5  1  0  0  0  0
 10 11  2  0  0  0  0
 10 15  1  0  0  0  0
 11 12  1  0  0  0  0
 12 17  1  0  0  0  0
 12 13  2  0  0  0  0
 14 13  1  0  0  0  0
 14 18  1  0  0  0  0
 15 14  2  0  0  0  0
 16 10  1  0  0  0  0
 19 20  1  0  0  0  0
 21  6  1  0  0  0  0
 23 22  1  0  0  0  0
 24 21  1  0  0  0  0
 24 23  2  0  0  0  0
 25 24  1  0  0  0  0
 26 25  2  0  0  0  0
 26 27  1  0  0  0  0
 27 28  2  0  0  0  0
 28 23  1  0  0  0  0
 28 32  1  0  0  0  0
 29 25  1  0  0  0  0
 30 26  1  0  0  0  0
 31 27  1  0  0  0  0
 32 33  2  0  0  0  0
 32 37  1  0  0  0  0
 33 35  1  0  0  0  0
 34 33  1  0  0  0  0
 35 36  2  0  0  0  0
 37 36  1  0  0  0  0
M  END
>  <minimizedAffinity>
-5.60302639

$$$$

 OpenBabel03272501233D

 37 40  0  0  0  0  0  0  0  0999 V2000
   36.6660   29.4010   30.1640 C   0  0  0  0  0  0  0  0  0  0  0  0
   37.2280   30.6100   29.7750 C   0  0  0  0  0  0  0  0  0  0  0  0
   37.0460   31.6570   30.6740 C   0  0  0  0  0  0  0  0  0  0  0  0
   36.3450   31.4770   31.8710 C   0  0  0  0  0  0  0  0  0  0  0  0
   35.8130   30.2430   32.1940 C   0  0  0  0  0  0  0  0  0  0  0  0
   35.9750   29.1910   31.3290 C   0  0  0  0  0  0  0  0  0  0  0  0
   37.4450   32.6430   30.4640 H   0  0  0  0  0  0  0  0  0  0  0  0
   36.2010   32.2860   32.5710 H   0  0  0  0  0  0  0  0  0  0  0  0
   35.2720   30.1150   33.1230 H   0  0  0  0  0  0  0  0  0  0  0  0
   37.3170   31.3330   27.4280 C   0  0  0  0  0  0  0  0  0  0  0  0
   37.9400   30.7790   28.5510 C   0  0  0  0  0  0  0  0  0  0  0  0
   39.2820   30.4010   28.4160 C   0  0  0  0  0  0  0  0  0  0  0  0
   39.9030   30.5910   27.2150 N   0  0  0  0  0  0  0  0  0  0  0  0
   39.2550   31.1320   26.1610 C   0  0  0  0  0  0  0  0  0  0  0  0
   37.9600   31.5050   26.2630 N   0  0  0  0  0  0  0  0  0  0  0  0
   36.2780   31.6190   27.5520 H   0  0  0  0  0  0  0  0  0  0  0  0
   39.8140   29.9650   29.2590 H   0  0  0  0  0  0  0  0  0  0  0  0
   39.8800   31.2190   25.2750 H   0  0  0  0  0  0  0  0  0  0  0  0
   36.7950   28.2760   29.3230 O   0  0  0  0  0  0  0  0  0  0  0  0
   36.4130   28.3510   28.3990 H   0  0  0  0  0  0  0  0  0  0  0  0
   35.4400   27.9500   31.6510 O   0  0  0  0  0  0  0  0  0  0  0  0
   34.7670   25.2370   30.5170 Cl  0  0  0  0  0  0  0  0  0  0  0  0
   36.0120   25.5260   31.6920 C   0  0  0  0  0  0  0  0  0  0  0  0
   36.1600   26.8520   32.0840 C   0  0  0  0  0  0  0  0  0  0  0  0
   37.1500   27.1210   33.0280 C   0  0  0  0  0  0  0  0  0  0  0  0
   37.9600   26.1550   33.5680 C   0  0  0  0  0  0  0  0  0  0  0  0
   37.7960   24.8310   33.1610 C   0  0  0  0  0  0  0  0  0  0  0  0
   36.8270   24.5700   32.2370 C   0  0  0  0  0  0  0  0  0  0  0  0
   37.3410   28.1250   33.3960 H   0  0  0  0  0  0  0  0  0  0  0  0
   38.7220   26.3800   34.2960 H   0  0  0  0  0  0  0  0  0  0  0  0
   38.4050   24.0380   33.5530 H   0  0  0  0  0  0  0  0  0  0  0  0
   36.6530   23.2130   31.8160 C   0  0  0  0  0  0  0  0  0  0  0  0
   35.5910   22.2780   31.9880 C   0  0  0  0  0  0  0  0  0  0  0  0
   34.7580   22.6740   32.5440 H   0  0  0  0  0  0  0  0  0  0  0  0
   35.8010   21.0450   31.4250 C   0  0  0  0  0  3  0  0  0  0  0  0
   36.9380   20.7830   30.7690 C   0  0  0  0  0  3  0  0  0  0  0  0
   37.9450   22.2890   30.8380 S   0  0  0  0  0  0  0  0  0  0  0  0
  1  6  1  0  0  0  0
  2  1  2  0  0  0  0
  2  3  1  0  0  0  0
  3  4  2  0  0  0  0
  4  5  1  0  0  0  0
  4  8  1  0  0  0  0
  5  9  1  0  0  0  0
  6 21  1  0  0  0  0
  6  5  2  0  0  0  0
  7  3  1  0  0  0  0
 10 16  1  0  0  0  0
 10 11  1  0  0  0  0
 11  2  1  0  0  0  0
 12 11  2  0  0  0  0
 12 17  1  0  0  0  0
 13 12  1  0  0  0  0
 14 15  1  0  0  0  0
 14 13  2  0  0  0  0
 15 10  2  0  0  0  0
 18 14  1  0  0  0  0
 19  1  1  0  0  0  0
 20 19  1  0  0  0  0
 21 24  1  0  0  0  0
 22 23  1  0  0  0  0
 23 24  2  0  0  0  0
 23 28  1  0  0  0  0
 24 25  1  0  0  0  0
 25 29  1  0  0  0  0
 25 26  2  0  0  0  0
 26 30  1  0  0  0  0
 27 31  1  0  0  0  0
 27 26  1  0  0  0  0
 28 27  2  0  0  0  0
 32 33  2  0  0  0  0
 32 28  1  0  0  0  0
 33 34  1  0  0  0  0
 35 33  1  0  0  0  0
 36 37  1  0  0  0  0
 36 35  2  0  0  0  0
 37 32  1  0  0  0  0
M  END
>  <minimizedAffinity>
-5.58104753

$$$$

 OpenBabel03272501233D

 37 40  0  0  0  0  0  0  0  0999 V2000
   38.6860   25.7610   33.7820 C   0  0  0  0  0  0  0  0  0  0  0  0
   39.5240   25.5700   34.8720 C   0  0  0  0  0  0  0  0  0  0  0  0
   40.7360   26.2520   34.8080 C   0  0  0  0  0  0  0  0  0  0  0  0
   41.0590   27.0610   33.7150 C   0  0  0  0  0  0  0  0  0  0  0  0
   40.1750   27.2070   32.6630 C   0  0  0  0  0  0  0  0  0  0  0  0
   38.9720   26.5470   32.6960 C   0  0  0  0  0  0  0  0  0  0  0  0
   41.4610   26.1690   35.6100 H   0  0  0  0  0  0  0  0  0  0  0  0
   41.9980   27.5920   33.6600 H   0  0  0  0  0  0  0  0  0  0  0  0
   40.4360   27.8360   31.8210 H   0  0  0  0  0  0  0  0  0  0  0  0
   38.1890   25.1270   36.8890 C   0  0  0  0  0  0  0  0  0  0  0  0
   39.1810   24.7400   35.9810 C   0  0  0  0  0  0  0  0  0  0  0  0
   39.8140   23.5120   36.2120 C   0  0  0  0  0  0  0  0  0  0  0  0
   39.4360   22.7680   37.2920 N   0  0  0  0  0  0  0  0  0  0  0  0
   38.4720   23.1880   38.1390 C   0  0  0  0  0  0  0  0  0  0  0  0
   37.8450   24.3700   37.9410 N   0  0  0  0  0  0  0  0  0  0  0  0
   37.7110   26.0810   36.6940 H   0  0  0  0  0  0  0  0  0  0  0  0
   40.5920   23.1630   35.5360 H   0  0  0  0  0  0  0  0  0  0  0  0
   38.2820   22.4900   38.9510 H   0  0  0  0  0  0  0  0  0  0  0  0
   37.4330   25.1150   33.7500 O   0  0  0  0  0  0  0  0  0  0  0  0
   37.4370   24.1120   33.7870 H   0  0  0  0  0  0  0  0  0  0  0  0
   38.0820   26.6920   31.6400 O   0  0  0  0  0  0  0  0  0  0  0  0
   36.4200   28.5090   33.3820 Cl  0  0  0  0  0  0  0  0  0  0  0  0
   36.8730   28.8670   31.7440 C   0  0  0  0  0  0  0  0  0  0  0  0
   37.6430   27.8940   31.1160 C   0  0  0  0  0  0  0  0  0  0  0  0
   38.0250   28.1470   29.8000 C   0  0  0  0  0  0  0  0  0  0  0  0
   37.6810   29.2880   29.1210 C   0  0  0  0  0  0  0  0  0  0  0  0
   36.9080   30.2520   29.7680 C   0  0  0  0  0  0  0  0  0  0  0  0
   36.5360   30.0030   31.0570 C   0  0  0  0  0  0  0  0  0  0  0  0
   38.6260   27.4470   29.2270 H   0  0  0  0  0  0  0  0  0  0  0  0
   37.9840   29.4690   28.1030 H   0  0  0  0  0  0  0  0  0  0  0  0
   36.6120   31.1620   29.2810 H   0  0  0  0  0  0  0  0  0  0  0  0
   35.7440   30.9880   31.7270 C   0  0  0  0  0  0  0  0  0  0  0  0
   36.0820   32.1710   32.4480 C   0  0  0  0  0  0  0  0  0  0  0  0
   37.1430   32.3540   32.4950 H   0  0  0  0  0  0  0  0  0  0  0  0
   35.0180   32.8700   32.9560 C   0  0  0  0  0  3  0  0  0  0  0  0
   33.7660   32.4360   32.7640 C   0  0  0  0  0  3  0  0  0  0  0  0
   33.8810   30.9070   31.7970 S   0  0  0  0  0  0  0  0  0  0  0  0
  1  2  1  0  0  0  0
  2 11  1  0  0  0  0
  3  2  2  0  0  0  0
  3  7  1  0  0  0  0
  4  3  1  0  0  0  0
  5  6  1  0  0  0  0
  5  4  2  0  0  0  0
  6  1  2  0  0  0  0
  8  4  1  0  0  0  0
  9  5  1  0  0  0  0
 10 15  1  0  0  0  0
 11 12  1  0  0  0  0
 11 10  2  0  0  0  0
 12 13  2  0  0  0  0
 13 14  1  0  0  0  0
 14 18  1  0  0  0  0
 15 14  2  0  0  0  0
 16 10  1  0  0  0  0
 17 12  1  0  0  0  0
 19  1  1  0  0  0  0
 19 20  1  0  0  0  0
 21  6  1  0  0  0  0
 23 22  1  0  0  0  0
 24 21  1  0  0  0  0
 24 23  1  0  0  0  0
 25 24  2  0  0  0  0
 26 27  2  0  0  0  0
 26 25  1  0  0  0  0
 27 28  1  0  0  0  0
 28 32  1  0  0  0  0
 28 23  2  0  0  0  0
 29 25  1  0  0  0  0
 30 26  1  0  0  0  0
 31 27  1  0  0  0  0
 32 37  1  0  0  0  0
 32 33  2  0  0  0  0
 33 34  1  0  0  0  0
 33 35  1  0  0  0  0
 36 35  2  0  0  0  0
 37 36  1  0  0  0  0
M  END
>  <minimizedAffinity>
-5.54100466

$$$$
