REMARK  Name = 
REMARK  2 active torsions:
REMARK  status: ('A' for Active; 'I' for Inactive)
REMARK    1  A    between atoms: C_1  and  N_7
REMARK    2  A    between atoms: C_10  and  C_25
REMARK                            x       y       z     vdW  Elec       q    Type
REMARK                         _______ _______ _______ _____ _____    ______ ____
ROOT
ATOM      1  N   UNL     1      36.508  29.596  48.882  0.00  0.00    +0.000 N 
ATOM      2  C   UNL     1      37.004  29.281  50.193  0.00  0.00    +0.000 C 
ATOM      3  C   UNL     1      37.650  30.360  50.962  0.00  0.00    +0.000 C 
ATOM      4  C   UNL     1      38.320  31.448  50.188  0.00  0.00    +0.000 C 
ATOM      5  C   UNL     1      37.755  31.668  48.816  0.00  0.00    +0.000 C 
ATOM      6  C   UNL     1      37.552  30.282  48.163  0.00  0.00    +0.000 C 
ATOM      7  H   UNL     1      37.719  28.430  50.061  0.00  0.00    +0.000 HD
ATOM      8  H   UNL     1      36.143  28.863  50.770  0.00  0.00    +0.000 HD
ATOM      9  H   UNL     1      36.884  30.812  51.648  0.00  0.00    +0.000 HD
ATOM     10  H   UNL     1      38.408  29.924  51.648  0.00  0.00    +0.000 HD
ATOM     11  H   UNL     1      39.402  31.236  50.083  0.00  0.00    +0.000 HD
ATOM     12  H   UNL     1      36.781  32.168  48.825  0.00  0.00    +0.000 HD
ATOM     13  H   UNL     1      38.524  32.183  48.211  0.00  0.00    +0.000 HD
ATOM     14  H   UNL     1      37.297  30.402  47.092  0.00  0.00    +0.000 HD
ATOM     15  H   UNL     1      38.531  29.770  48.196  0.00  0.00    +0.000 HD
ENDROOT
BRANCH   1  16
ATOM     16  C   UNL     1      35.209  29.286  48.379  0.00  0.00    +0.000 A 
ATOM     17  C   UNL     1      34.651  29.829  47.223  0.00  0.00    +0.000 A 
ATOM     18  C   UNL     1      33.374  29.419  46.873  0.00  0.00    +0.000 A 
ATOM     19  N   UNL     1      32.718  28.518  47.654  0.00  0.00    +0.000 NA
ATOM     20  C   UNL     1      33.294  28.017  48.764  0.00  0.00    +0.000 A 
ATOM     21  N   UNL     1      34.522  28.405  49.109  0.00  0.00    +0.000 NA
ATOM     22  H   UNL     1      35.263  30.534  46.682  0.00  0.00    +0.000 HD
ATOM     23  H   UNL     1      32.963  29.846  45.984  0.00  0.00    +0.000 HD
ATOM     24  H   UNL     1      32.761  27.294  49.385  0.00  0.00    +0.000 HD
ENDBRANCH   1  16
BRANCH   4  25
ATOM     25  C   UNL     1      38.185  32.712  50.934  0.00  0.00    +0.000 A 
ATOM     26  C   UNL     1      39.111  33.658  51.199  0.00  0.00    +0.000 A 
ATOM     27  H   UNL     1      40.139  33.521  50.829  0.00  0.00    +0.000 HD
ATOM     28  C   UNL     1      38.745  34.767  51.924  0.00  0.00    +0.000 A 
ATOM     29  C   UNL     1      37.452  34.849  52.339  0.00  0.00    +0.000 A 
ATOM     30  S   UNL     1      36.685  33.312  51.698  0.00  0.00    +0.000 S 
ENDBRANCH   4  25
TORSDOF 2
