
 OpenBabel03272509113D

 25 27  0  0  0  0  0  0  0  0999 V2000
   35.0540   29.6590   50.4870 C   0  0  0  0  0  0  0  0  0  0  0  0
   35.6810   30.1600   49.3120 C   0  0  0  0  0  0  0  0  0  0  0  0
   35.2340   29.7160   48.0850 C   0  0  0  0  0  0  0  0  0  0  0  0
   34.2050   28.8110   48.0390 N   0  0  0  0  0  0  0  0  0  0  0  0
   33.6300   28.3540   49.1890 C   0  0  0  0  0  0  0  0  0  0  0  0
   34.0460   28.7700   50.3850 N   0  0  0  0  0  0  0  0  0  0  0  0
   35.3620   29.9700   51.4680 H   0  0  0  0  0  0  0  0  0  0  0  0
   32.8330   27.6450   49.0010 H   0  0  0  0  0  0  0  0  0  0  0  0
   35.8080   30.1610   46.8280 C   0  0  0  0  0  0  0  0  0  0  0  0
   37.0800   30.6730   46.8680 C   0  0  0  0  0  0  0  0  0  0  0  0
   37.7020   31.1200   45.6890 C   0  0  0  0  0  0  0  0  0  0  0  0
   36.9920   31.0260   44.4980 C   0  0  0  0  0  0  0  0  0  0  0  0
   35.7160   30.5180   44.4230 C   0  0  0  0  0  0  0  0  0  0  0  0
   35.1410   30.0870   45.6210 C   0  0  0  0  0  0  0  0  0  0  0  0
   37.7500   30.8230   47.6890 H   0  0  0  0  0  0  0  0  0  0  0  0
   38.6970   31.5360   45.6240 H   0  0  0  0  0  0  0  0  0  0  0  0
   37.4320   31.3600   43.5560 H   0  0  0  0  0  0  0  0  0  0  0  0
   35.2060   30.4650   43.4800 H   0  0  0  0  0  0  0  0  0  0  0  0
   34.1370   29.6830   45.5860 H   0  0  0  0  0  0  0  0  0  0  0  0
   36.7420   31.0920   49.5290 C   0  0  0  0  0  0  0  0  0  0  0  0
   38.1320   30.7460   49.7890 C   0  0  0  0  0  0  0  0  0  0  0  0
   38.3980   29.7090   49.8230 H   0  0  0  0  0  0  0  0  0  0  0  0
   38.9970   31.7770   49.9730 C   0  0  0  0  0  3  0  0  0  0  0  0
   38.5410   33.1510   49.9080 C   0  0  0  0  0  3  0  0  0  0  0  0
   36.7480   32.9660   49.5610 S   0  0  0  0  0  0  0  0  0  0  0  0
  1  7  1  0  0  0  0
  2 20  1  0  0  0  0
  2  1  2  0  0  0  0
  3  2  1  0  0  0  0
  4  3  2  0  0  0  0
  4  5  1  0  0  0  0
  5  6  2  0  0  0  0
  6  1  1  0  0  0  0
  8  5  1  0  0  0  0
  9 10  1  0  0  0  0
  9  3  1  0  0  0  0
 10 15  1  0  0  0  0
 11 10  2  0  0  0  0
 12 11  1  0  0  0  0
 13 12  2  0  0  0  0
 13 14  1  0  0  0  0
 14  9  2  0  0  0  0
 16 11  1  0  0  0  0
 17 12  1  0  0  0  0
 18 13  1  0  0  0  0
 19 14  1  0  0  0  0
 20 25  1  0  0  0  0
 20 21  2  0  0  0  0
 21 22  1  0  0  0  0
 21 23  1  0  0  0  0
 24 23  2  0  0  0  0
 25 24  1  0  0  0  0
M  END
>  <minimizedAffinity>
-3.5156045

>  <minimizedRMSD>
3.00955629

$$$$
