
 OpenBabel03272507193D

 27 29  0  0  1  0  0  0  0  0999 V2000
   37.3250   31.2570   49.4130 C   0  0  0  0  0  0  0  0  0  0  0  0
   38.2790   32.2670   49.4720 C   0  0  0  0  0  0  0  0  0  0  0  0
   38.7850   32.6800   48.2440 C   0  0  0  0  0  0  0  0  0  0  0  0
   38.3570   32.1190   47.0790 N   0  0  0  0  0  0  0  0  0  0  0  0
   37.4220   31.1340   47.0630 C   0  0  0  0  0  0  0  0  0  0  0  0
   36.9000   30.6970   48.2420 N   0  0  0  0  0  0  0  0  0  0  0  0
   38.6080   32.7000   50.3860 H   0  0  0  0  0  0  0  0  0  0  0  0
   39.5330   33.4600   48.1690 H   0  0  0  0  0  0  0  0  0  0  0  0
   36.7540   30.7980   50.7160 C   0  0  1  0  0  0  0  0  0  0  0  0
   36.0410   29.5280   50.8410 C   0  0  2  0  0  0  0  0  0  0  0  0
   37.4830   29.5450   51.2480 C   0  0  0  0  0  0  0  0  0  0  0  0
   36.6840   31.6300   51.4710 H   0  0  0  0  0  0  0  0  0  0  0  0
   35.2080   29.5690   51.5910 H   0  0  0  0  0  0  0  0  0  0  0  0
   37.6250   29.5090   52.3640 H   0  0  0  0  0  0  0  0  0  0  0  0
   38.2420   29.0640   50.6300 H   0  0  0  0  0  0  0  0  0  0  0  0
   35.6800   28.8870   49.6640 O   0  0  0  0  0  0  0  0  0  0  0  0
   34.4730   28.4260   49.2580 C   0  0  0  0  0  0  0  0  0  0  0  0
   34.3500   27.4410   48.5020 O   0  0  0  0  0  0  0  0  0  0  0  0
   33.4850   29.2330   49.8280 N   0  0  0  0  0  0  0  0  0  0  0  0
   33.2030   30.0940   49.3500 H   0  0  0  0  0  0  0  0  0  0  0  0
   33.2310   28.7130   50.7150 H   0  0  0  0  0  0  0  0  0  0  0  0
   37.0630   30.6360   45.7790 C   0  0  0  0  0  0  0  0  0  0  0  0
   35.9030   30.2470   45.2030 C   0  0  0  0  0  0  0  0  0  0  0  0
   35.0180   30.3240   45.8570 H   0  0  0  0  0  0  0  0  0  0  0  0
   35.8490   29.8010   43.9240 C   0  0  0  0  0  3  0  0  0  0  0  0
   37.0510   29.7650   43.2400 C   0  0  0  0  0  3  0  0  0  0  0  0
   38.2610   30.4140   44.5490 S   0  0  0  0  0  0  0  0  0  0  0  0
  1  2  1  0  0  0  0
  1  9  1  0  0  0  0
  2  7  1  0  0  0  0
  3  2  2  0  0  0  0
  4  3  1  0  0  0  0
  5  4  2  0  0  0  0
  5  6  1  0  0  0  0
  6  1  2  0  0  0  0
  8  3  1  0  0  0  0
  9 10  1  0  0  0  0
  9 11  1  0  0  0  0
  9 12  1  1  0  0  0
 10 11  1  0  0  0  0
 10 13  1  1  0  0  0
 11 14  1  0  0  0  0
 15 11  1  0  0  0  0
 16 10  1  0  0  0  0
 17 16  1  0  0  0  0
 17 19  1  0  0  0  0
 18 17  2  0  0  0  0
 19 21  1  0  0  0  0
 20 19  1  0  0  0  0
 22  5  1  0  0  0  0
 23 22  2  0  0  0  0
 23 24  1  0  0  0  0
 25 23  1  0  0  0  0
 26 25  2  0  0  0  0
 26 27  1  0  0  0  0
 27 22  1  0  0  0  0
M  END
>  <minimizedAffinity>
-5.26122761

>  <minimizedRMSD>
0.168090478

$$$$
