
 OpenBabel03272509383D

 27 29  0  0  1  0  0  0  0  0999 V2000
   35.9960   29.5730   48.8780 C   0  0  0  0  0  0  0  0  0  0  0  0
   36.0370   29.4510   50.2900 C   0  0  0  0  0  0  0  0  0  0  0  0
   37.0150   30.1360   51.0300 C   0  0  0  0  0  0  0  0  0  0  0  0
   37.9380   30.9310   50.3850 C   0  0  0  0  0  0  0  0  0  0  0  0
   37.8530   31.0130   49.0240 C   0  0  0  0  0  0  0  0  0  0  0  0
   36.9030   30.3510   48.2490 C   0  0  0  0  0  0  0  0  0  0  0  0
   35.2890   28.8140   50.7400 H   0  0  0  0  0  0  0  0  0  0  0  0
   36.9070   29.9410   52.0710 H   0  0  0  0  0  0  0  0  0  0  0  0
   38.6540   31.4260   51.0190 H   0  0  0  0  0  0  0  0  0  0  0  0
   38.6490   31.6820   48.6520 H   0  0  0  0  0  0  0  0  0  0  0  0
   37.0710   30.6840   46.8620 C   0  0  0  0  0  0  0  0  0  0  0  0
   37.8960   31.9050   46.6040 C   0  0  0  0  0  0  0  0  0  0  0  0
   38.3020   32.6140   47.3540 H   0  0  0  0  0  0  0  0  0  0  0  0
   38.2650   32.3040   45.3790 C   0  0  0  0  0  3  0  0  0  0  0  0
   37.8050   31.4700   44.3320 C   0  0  0  0  0  3  0  0  0  0  0  0
   36.9220   30.2310   45.0990 S   0  0  0  0  0  0  0  0  0  0  0  0
   34.9550   28.8240   48.1730 C   0  0  1  0  0  3  0  0  0  0  0  0
   34.7610   27.6280   48.6390 O   0  0  0  0  0  1  0  0  0  0  0  0
   32.8400   31.1040   46.3130 C   0  0  0  0  0  0  0  0  0  0  0  0
   32.6590   30.4770   45.0910 C   0  0  0  0  0  0  0  0  0  0  0  0
   33.2690   29.2350   44.8910 C   0  0  0  0  0  0  0  0  0  0  0  0
   34.0260   28.6690   45.8970 N   0  0  0  0  0  0  0  0  0  0  0  0
   34.1700   29.3120   47.0510 C   0  0  0  0  0  0  0  0  0  0  0  0
   33.5770   30.5150   47.2440 N   0  0  0  0  0  0  0  0  0  0  0  0
   32.3360   32.0560   46.3830 H   0  0  0  0  0  0  0  0  0  0  0  0
   32.1040   30.8090   44.2440 H   0  0  0  0  0  0  0  0  0  0  0  0
   33.1770   28.6720   43.9580 H   0  0  0  0  0  0  0  0  0  0  0  0
  1  2  1  0  0  0  0
  2  7  1  0  0  0  0
  2  3  2  0  0  0  0
  3  8  1  0  0  0  0
  4  9  1  0  0  0  0
  4  3  1  0  0  0  0
  5  4  2  0  0  0  0
  6  1  2  0  0  0  0
  6  5  1  0  0  0  0
 10  5  1  0  0  0  0
 11  6  1  0  0  0  0
 12 11  2  0  0  0  0
 12 13  1  0  0  0  0
 14 12  1  0  0  0  0
 15 16  1  0  0  0  0
 15 14  2  0  0  0  0
 16 11  1  0  0  0  0
 17 18  1  1  0  0  0
 17  1  1  0  0  0  0
 19 25  1  0  0  0  0
 19 24  1  0  0  0  0
 20 19  2  0  0  0  0
 21 20  1  0  0  0  0
 21 22  2  0  0  0  0
 22 23  1  0  0  0  0
 23 24  2  0  0  0  0
 23 17  1  0  0  0  0
 26 20  1  0  0  0  0
 27 21  1  0  0  0  0
M  END
>  <minimizedAffinity>
-5.01301765

>  <minimizedRMSD>
0.711077511

$$$$
