
 OpenBabel03272509113D

 25 27  0  0  0  0  0  0  0  0999 V2000
   35.7890   30.6890   48.5480 C   0  0  0  0  0  0  0  0  0  0  0  0
   34.8520   29.7470   48.0400 C   0  0  0  0  0  0  0  0  0  0  0  0
   34.4600   28.7020   48.8510 C   0  0  0  0  0  0  0  0  0  0  0  0
   34.9840   28.6090   50.1150 N   0  0  0  0  0  0  0  0  0  0  0  0
   35.8810   29.5330   50.5650 C   0  0  0  0  0  0  0  0  0  0  0  0
   36.2730   30.5500   49.7980 N   0  0  0  0  0  0  0  0  0  0  0  0
   36.1290   31.5210   47.9600 H   0  0  0  0  0  0  0  0  0  0  0  0
   36.2090   29.3340   51.5780 H   0  0  0  0  0  0  0  0  0  0  0  0
   33.5150   27.6850   48.4270 C   0  0  0  0  0  0  0  0  0  0  0  0
   32.2040   27.8610   48.7900 C   0  0  0  0  0  0  0  0  0  0  0  0
   31.2320   26.9190   48.4130 C   0  0  0  0  0  0  0  0  0  0  0  0
   31.6400   25.8180   47.6690 C   0  0  0  0  0  0  0  0  0  0  0  0
   32.9460   25.6120   47.2890 C   0  0  0  0  0  0  0  0  0  0  0  0
   33.8740   26.5760   47.6880 C   0  0  0  0  0  0  0  0  0  0  0  0
   31.7320   28.6330   49.3620 H   0  0  0  0  0  0  0  0  0  0  0  0
   30.1790   26.9740   48.6520 H   0  0  0  0  0  0  0  0  0  0  0  0
   30.9220   25.0590   47.3520 H   0  0  0  0  0  0  0  0  0  0  0  0
   33.2150   24.7460   46.7140 H   0  0  0  0  0  0  0  0  0  0  0  0
   34.9090   26.4340   47.4000 H   0  0  0  0  0  0  0  0  0  0  0  0
   34.4070   29.9800   46.7020 C   0  0  0  0  0  0  0  0  0  0  0  0
   35.2180   29.8300   45.5020 C   0  0  0  0  0  0  0  0  0  0  0  0
   36.2360   29.5170   45.6150 H   0  0  0  0  0  0  0  0  0  0  0  0
   34.6150   30.1020   44.3160 C   0  0  0  0  0  3  0  0  0  0  0  0
   33.2270   30.5210   44.2650 C   0  0  0  0  0  3  0  0  0  0  0  0
   32.7430   30.5290   46.0360 S   0  0  0  0  0  0  0  0  0  0  0  0
  1  6  1  0  0  0  0
  2  1  2  0  0  0  0
  2  3  1  0  0  0  0
  3  4  2  0  0  0  0
  4  5  1  0  0  0  0
  5  8  1  0  0  0  0
  6  5  2  0  0  0  0
  7  1  1  0  0  0  0
  9 10  1  0  0  0  0
  9  3  1  0  0  0  0
 10 15  1  0  0  0  0
 11 16  1  0  0  0  0
 11 10  2  0  0  0  0
 12 11  1  0  0  0  0
 13 12  2  0  0  0  0
 13 14  1  0  0  0  0
 14  9  2  0  0  0  0
 17 12  1  0  0  0  0
 18 13  1  0  0  0  0
 19 14  1  0  0  0  0
 20  2  1  0  0  0  0
 21 22  1  0  0  0  0
 21 20  2  0  0  0  0
 23 21  1  0  0  0  0
 24 23  2  0  0  0  0
 24 25  1  0  0  0  0
 25 20  1  0  0  0  0
M  END
>  <minimizedAffinity>
-4.50180101

>  <minimizedRMSD>
7.33473635

$$$$
