
 OpenBabel03272506183D

 31 33  0  0  0  0  0  0  0  0999 V2000
   35.5510   30.3000   49.8490 C   0  0  0  0  0  0  0  0  0  0  0  0
   36.4650   31.2320   49.0870 C   0  0  0  0  0  0  0  0  0  0  0  0
   37.9140   30.8810   49.2460 C   0  0  0  0  0  0  0  0  0  0  0  0
   38.3620   30.7700   50.6760 C   0  0  0  0  0  0  0  0  0  0  0  0
   37.3580   30.0970   51.5630 C   0  0  0  0  0  0  0  0  0  0  0  0
   36.2730   29.3860   50.7790 C   0  0  0  0  0  0  0  0  0  0  0  0
   34.8030   30.8920   50.4130 H   0  0  0  0  0  0  0  0  0  0  0  0
   36.2390   31.2500   48.0150 H   0  0  0  0  0  0  0  0  0  0  0  0
   36.3540   32.2630   49.5230 H   0  0  0  0  0  0  0  0  0  0  0  0
   38.5030   31.6750   48.7640 H   0  0  0  0  0  0  0  0  0  0  0  0
   38.0980   29.9270   48.7070 H   0  0  0  0  0  0  0  0  0  0  0  0
   39.2860   30.1270   50.6760 H   0  0  0  0  0  0  0  0  0  0  0  0
   38.7000   31.7290   51.1060 H   0  0  0  0  0  0  0  0  0  0  0  0
   37.8260   29.3280   52.2080 H   0  0  0  0  0  0  0  0  0  0  0  0
   36.9230   30.8600   52.2130 H   0  0  0  0  0  0  0  0  0  0  0  0
   36.8040   28.6260   50.1550 H   0  0  0  0  0  0  0  0  0  0  0  0
   35.6020   28.9210   51.4970 H   0  0  0  0  0  0  0  0  0  0  0  0
   34.7800   29.4500   48.8900 C   0  0  0  0  0  0  0  0  0  0  0  0
   34.2260   30.1250   47.7860 C   0  0  0  0  0  0  0  0  0  0  0  0
   33.4870   29.3280   46.8870 C   0  0  0  0  0  0  0  0  0  0  0  0
   33.3440   27.9950   47.1150 N   0  0  0  0  0  0  0  0  0  0  0  0
   33.9030   27.3980   48.2000 C   0  0  0  0  0  0  0  0  0  0  0  0
   34.6080   28.1170   49.0720 N   0  0  0  0  0  0  0  0  0  0  0  0
   34.3030   31.1580   47.5580 H   0  0  0  0  0  0  0  0  0  0  0  0
   33.7890   26.3560   48.3740 H   0  0  0  0  0  0  0  0  0  0  0  0
   32.8860   29.8980   45.7430 C   0  0  0  0  0  0  0  0  0  0  0  0
   33.4710   30.3860   44.5940 C   0  0  0  0  0  0  0  0  0  0  0  0
   34.5490   30.3510   44.5050 H   0  0  0  0  0  0  0  0  0  0  0  0
   32.6850   30.8980   43.6040 C   0  0  0  0  0  3  0  0  0  0  0  0
   31.2860   30.8870   43.8440 C   0  0  0  0  0  3  0  0  0  0  0  0
   31.1490   30.1340   45.4970 S   0  0  0  0  0  0  0  0  0  0  0  0
  1  7  1  0  0  0  0
  1  6  1  0  0  0  0
  2  3  1  0  0  0  0
  2  9  1  0  0  0  0
  2  1  1  0  0  0  0
  3  4  1  0  0  0  0
  4 13  1  0  0  0  0
  4  5  1  0  0  0  0
  5 14  1  0  0  0  0
  5 15  1  0  0  0  0
  6 17  1  0  0  0  0
  6  5  1  0  0  0  0
  8  2  1  0  0  0  0
 10  3  1  0  0  0  0
 11  3  1  0  0  0  0
 12  4  1  0  0  0  0
 16  6  1  0  0  0  0
 18 23  1  0  0  0  0
 18  1  1  0  0  0  0
 19 18  2  0  0  0  0
 20 21  2  0  0  0  0
 20 19  1  0  0  0  0
 21 22  1  0  0  0  0
 22 25  1  0  0  0  0
 22 23  2  0  0  0  0
 24 19  1  0  0  0  0
 26 20  1  0  0  0  0
 27 26  2  0  0  0  0
 28 27  1  0  0  0  0
 29 30  2  0  0  0  0
 29 27  1  0  0  0  0
 30 31  1  0  0  0  0
 31 26  1  0  0  0  0
M  END
>  <minimizedAffinity>
-5.15624666

>  <minimizedRMSD>
0.157952085

$$$$
