
 OpenBabel03272505563D

 31 33  0  0  1  0  0  0  0  0999 V2000
   37.9180   26.1350   33.4330 C   0  0  2  0  0  0  0  0  0  0  0  0
   38.3200   25.0140   34.3600 C   0  0  0  0  0  0  0  0  0  0  0  0
   37.8620   25.1920   35.7690 C   0  0  2  0  0  0  0  0  0  0  0  0
   38.2390   26.5370   36.3500 C   0  0  0  0  0  0  0  0  0  0  0  0
   38.1220   27.6760   35.3890 C   0  0  0  0  0  0  0  0  0  0  0  0
   37.3320   27.2970   34.1560 C   0  0  0  0  0  0  0  0  0  0  0  0
   38.8160   26.3880   32.8400 H   0  0  0  0  0  0  0  0  0  0  0  0
   39.4170   24.8620   34.3680 H   0  0  0  0  0  0  0  0  0  0  0  0
   37.8940   24.0300   34.0230 H   0  0  0  0  0  0  0  0  0  0  0  0
   36.8110   24.9460   35.9290 H   0  0  0  0  0  0  0  0  0  0  0  0
   37.4620   26.7300   37.1460 H   0  0  0  0  0  0  0  0  0  0  0  0
   39.2070   26.5620   36.8530 H   0  0  0  0  0  0  0  0  0  0  0  0
   39.1270   28.0410   35.0880 H   0  0  0  0  0  0  0  0  0  0  0  0
   37.6100   28.5700   35.8280 H   0  0  0  0  0  0  0  0  0  0  0  0
   37.4610   28.1820   33.4630 H   0  0  0  0  0  0  0  0  0  0  0  0
   36.2700   27.1830   34.3750 H   0  0  0  0  0  0  0  0  0  0  0  0
   36.8960   25.6340   32.4620 C   0  0  0  0  0  0  0  0  0  0  0  0
   36.8640   24.2470   32.2390 C   0  0  0  0  0  0  0  0  0  0  0  0
   35.9240   23.7800   31.3260 C   0  0  0  0  0  0  0  0  0  0  0  0
   35.0820   24.6700   30.6910 N   0  0  0  0  0  0  0  0  0  0  0  0
   35.1510   26.0130   30.9420 C   0  0  0  0  0  0  0  0  0  0  0  0
   36.0520   26.4750   31.8180 N   0  0  0  0  0  0  0  0  0  0  0  0
   37.4850   23.5210   32.6970 H   0  0  0  0  0  0  0  0  0  0  0  0
   35.7940   22.7600   31.0680 H   0  0  0  0  0  0  0  0  0  0  0  0
   34.4920   26.7010   30.4430 H   0  0  0  0  0  0  0  0  0  0  0  0
   38.7150   24.2090   36.5760 C   0  0  0  0  0  0  0  0  0  0  0  0
   38.5290   23.8330   37.8510 C   0  0  0  0  0  0  0  0  0  0  0  0
   37.7040   24.2330   38.4270 H   0  0  0  0  0  0  0  0  0  0  0  0
   39.4210   22.9340   38.3770 C   0  0  0  0  0  3  0  0  0  0  0  0
   40.4410   22.4720   37.5920 C   0  0  0  0  0  3  0  0  0  0  0  0
   40.0980   23.3960   35.9690 S   0  0  0  0  0  0  0  0  0  0  0  0
  1  7  1  6  0  0  0
  1  6  1  0  0  0  0
  1  2  1  0  0  0  0
  2  8  1  0  0  0  0
  2  3  1  0  0  0  0
  3 10  1  1  0  0  0
  3  4  1  0  0  0  0
  3 26  1  0  0  0  0
  4 12  1  0  0  0  0
  4 11  1  0  0  0  0
  5 14  1  0  0  0  0
  5  4  1  0  0  0  0
  6 16  1  0  0  0  0
  6  5  1  0  0  0  0
  9  2  1  0  0  0  0
 13  5  1  0  0  0  0
 15  6  1  0  0  0  0
 17  1  1  0  0  0  0
 18 17  1  0  0  0  0
 18 23  1  0  0  0  0
 19 18  2  0  0  0  0
 20 21  2  0  0  0  0
 20 19  1  0  0  0  0
 21 22  1  0  0  0  0
 22 17  2  0  0  0  0
 24 19  1  0  0  0  0
 25 21  1  0  0  0  0
 26 27  2  0  0  0  0
 27 29  1  0  0  0  0
 27 28  1  0  0  0  0
 30 29  2  0  0  0  0
 31 26  1  0  0  0  0
 31 30  1  0  0  0  0
M  END
>  <minimizedAffinity>
-5.14599371

$$$$

 OpenBabel03272505563D

 31 33  0  0  1  0  0  0  0  0999 V2000
   37.9250   26.2050   33.4430 C   0  0  2  0  0  0  0  0  0  0  0  0
   38.5230   25.0350   34.1850 C   0  0  0  0  0  0  0  0  0  0  0  0
   38.1520   24.9760   35.6300 C   0  0  2  0  0  0  0  0  0  0  0  0
   38.4110   26.2730   36.3630 C   0  0  0  0  0  0  0  0  0  0  0  0
   38.0900   27.5000   35.5730 C   0  0  0  0  0  0  0  0  0  0  0  0
   37.2620   27.1830   34.3470 C   0  0  0  0  0  0  0  0  0  0  0  0
   38.7410   26.6420   32.8380 H   0  0  0  0  0  0  0  0  0  0  0  0
   39.6280   25.0240   34.1110 H   0  0  0  0  0  0  0  0  0  0  0  0
   38.1920   24.0560   33.7440 H   0  0  0  0  0  0  0  0  0  0  0  0
   37.1510   24.5810   35.8160 H   0  0  0  0  0  0  0  0  0  0  0  0
   37.6760   26.2650   37.2220 H   0  0  0  0  0  0  0  0  0  0  0  0
   39.4030   26.3560   36.8090 H   0  0  0  0  0  0  0  0  0  0  0  0
   39.0200   28.0240   35.2660 H   0  0  0  0  0  0  0  0  0  0  0  0
   37.5110   28.2600   36.1570 H   0  0  0  0  0  0  0  0  0  0  0  0
   37.2350   28.1580   33.7730 H   0  0  0  0  0  0  0  0  0  0  0  0
   36.2390   26.9100   34.6100 H   0  0  0  0  0  0  0  0  0  0  0  0
   36.9010   25.7060   32.4730 C   0  0  0  0  0  0  0  0  0  0  0  0
   36.1280   26.6760   31.8140 C   0  0  0  0  0  0  0  0  0  0  0  0
   35.1660   26.2140   30.9230 C   0  0  0  0  0  0  0  0  0  0  0  0
   35.0090   24.8570   30.7250 N   0  0  0  0  0  0  0  0  0  0  0  0
   35.7850   23.9500   31.3900 C   0  0  0  0  0  0  0  0  0  0  0  0
   36.7150   24.3820   32.2510 N   0  0  0  0  0  0  0  0  0  0  0  0
   36.2070   27.7270   31.9290 H   0  0  0  0  0  0  0  0  0  0  0  0
   34.5190   26.8390   30.3620 H   0  0  0  0  0  0  0  0  0  0  0  0
   35.6570   22.8940   31.2320 H   0  0  0  0  0  0  0  0  0  0  0  0
   39.1720   24.0140   36.2470 C   0  0  0  0  0  0  0  0  0  0  0  0
   40.3670   23.6690   35.7440 C   0  0  0  0  0  0  0  0  0  0  0  0
   40.7060   24.0800   34.8020 H   0  0  0  0  0  0  0  0  0  0  0  0
   41.1220   22.7850   36.4710 C   0  0  0  0  0  3  0  0  0  0  0  0
   40.6310   22.3040   37.6540 C   0  0  0  0  0  3  0  0  0  0  0  0
   38.9520   23.1870   37.7340 S   0  0  0  0  0  0  0  0  0  0  0  0
  1  7  1  6  0  0  0
  1  2  1  0  0  0  0
  1  6  1  0  0  0  0
  2  3  1  0  0  0  0
  3 10  1  1  0  0  0
  3 26  1  0  0  0  0
  3  4  1  0  0  0  0
  4 12  1  0  0  0  0
  4 11  1  0  0  0  0
  5 14  1  0  0  0  0
  5  4  1  0  0  0  0
  6 16  1  0  0  0  0
  6  5  1  0  0  0  0
  8  2  1  0  0  0  0
  9  2  1  0  0  0  0
 13  5  1  0  0  0  0
 15  6  1  0  0  0  0
 17  1  1  0  0  0  0
 18 23  1  0  0  0  0
 18 17  2  0  0  0  0
 19 18  1  0  0  0  0
 20 19  2  0  0  0  0
 20 21  1  0  0  0  0
 21 22  2  0  0  0  0
 22 17  1  0  0  0  0
 24 19  1  0  0  0  0
 25 21  1  0  0  0  0
 26 31  1  0  0  0  0
 27 26  2  0  0  0  0
 27 29  1  0  0  0  0
 28 27  1  0  0  0  0
 29 30  2  0  0  0  0
 30 31  1  0  0  0  0
M  END
>  <minimizedAffinity>
-4.99470854

$$$$

 OpenBabel03272505563D

 31 33  0  0  1  0  0  0  0  0999 V2000
   37.5670   26.9230   33.1760 C   0  0  2  0  0  0  0  0  0  0  0  0
   39.0360   26.5800   33.1450 C   0  0  0  0  0  0  0  0  0  0  0  0
   39.5850   26.1270   34.4570 C   0  0  2  0  0  0  0  0  0  0  0  0
   39.2740   27.0790   35.5910 C   0  0  0  0  0  0  0  0  0  0  0  0
   37.9050   27.6760   35.5340 C   0  0  0  0  0  0  0  0  0  0  0  0
   37.0100   26.9470   34.5560 C   0  0  0  0  0  0  0  0  0  0  0  0
   37.4580   27.8810   32.6360 H   0  0  0  0  0  0  0  0  0  0  0  0
   39.6480   27.4310   32.7890 H   0  0  0  0  0  0  0  0  0  0  0  0
   39.2480   25.7460   32.4210 H   0  0  0  0  0  0  0  0  0  0  0  0
   39.3490   25.0890   34.7030 H   0  0  0  0  0  0  0  0  0  0  0  0
   39.2840   26.4310   36.5170 H   0  0  0  0  0  0  0  0  0  0  0  0
   40.0220   27.8560   35.7520 H   0  0  0  0  0  0  0  0  0  0  0  0
   37.9560   28.7510   35.2590 H   0  0  0  0  0  0  0  0  0  0  0  0
   37.3760   27.6560   36.5200 H   0  0  0  0  0  0  0  0  0  0  0  0
   36.0820   27.5920   34.4980 H   0  0  0  0  0  0  0  0  0  0  0  0
   36.7220   25.9630   34.9280 H   0  0  0  0  0  0  0  0  0  0  0  0
   36.8030   25.9050   32.3890 C   0  0  0  0  0  0  0  0  0  0  0  0
   35.7920   26.3880   31.5420 C   0  0  0  0  0  0  0  0  0  0  0  0
   35.0720   25.4430   30.8200 C   0  0  0  0  0  0  0  0  0  0  0  0
   35.3670   24.1020   30.9600 N   0  0  0  0  0  0  0  0  0  0  0  0
   36.3610   23.6780   31.7970 C   0  0  0  0  0  0  0  0  0  0  0  0
   37.0620   24.5790   32.4980 N   0  0  0  0  0  0  0  0  0  0  0  0
   35.5250   27.4040   31.3980 H   0  0  0  0  0  0  0  0  0  0  0  0
   34.2860   25.6740   30.1470 H   0  0  0  0  0  0  0  0  0  0  0  0
   36.5850   22.6320   31.9020 H   0  0  0  0  0  0  0  0  0  0  0  0
   41.1030   26.2510   34.3010 C   0  0  0  0  0  0  0  0  0  0  0  0
   41.7750   27.2330   33.6800 C   0  0  0  0  0  0  0  0  0  0  0  0
   41.2440   28.0560   33.2190 H   0  0  0  0  0  0  0  0  0  0  0  0
   43.1430   27.1410   33.6600 C   0  0  0  0  0  3  0  0  0  0  0  0
   43.7480   26.0720   34.2620 C   0  0  0  0  0  3  0  0  0  0  0  0
   42.2390   25.1200   34.9100 S   0  0  0  0  0  0  0  0  0  0  0  0
  1  7  1  6  0  0  0
  1  6  1  0  0  0  0
  2  1  1  0  0  0  0
  2  3  1  0  0  0  0
  3 10  1  1  0  0  0
  3  4  1  0  0  0  0
  4 12  1  0  0  0  0
  4 11  1  0  0  0  0
  5  4  1  0  0  0  0
  5 14  1  0  0  0  0
  6 16  1  0  0  0  0
  6  5  1  0  0  0  0
  8  2  1  0  0  0  0
  9  2  1  0  0  0  0
 13  5  1  0  0  0  0
 15  6  1  0  0  0  0
 17 22  1  0  0  0  0
 17  1  1  0  0  0  0
 18 17  2  0  0  0  0
 19 20  2  0  0  0  0
 19 18  1  0  0  0  0
 20 21  1  0  0  0  0
 21 25  1  0  0  0  0
 21 22  2  0  0  0  0
 23 18  1  0  0  0  0
 24 19  1  0  0  0  0
 26  3  1  0  0  0  0
 26 31  1  0  0  0  0
 27 26  2  0  0  0  0
 28 27  1  0  0  0  0
 29 27  1  0  0  0  0
 29 30  2  0  0  0  0
 30 31  1  0  0  0  0
M  END
>  <minimizedAffinity>
-4.82641602

$$$$

 OpenBabel03272505563D

 31 33  0  0  1  0  0  0  0  0999 V2000
   36.9800   28.1390   32.1830 C   0  0  2  0  0  0  0  0  0  0  0  0
   36.2550   28.6970   33.3830 C   0  0  0  0  0  0  0  0  0  0  0  0
   35.1920   29.6890   33.0470 C   0  0  2  0  0  0  0  0  0  0  0  0
   35.6800   30.7990   32.1440 C   0  0  0  0  0  0  0  0  0  0  0  0
   36.6310   30.3530   31.0810 C   0  0  0  0  0  0  0  0  0  0  0  0
   36.6360   28.8490   30.9210 C   0  0  0  0  0  0  0  0  0  0  0  0
   38.0570   28.1650   32.4280 H   0  0  0  0  0  0  0  0  0  0  0  0
   36.9540   29.1670   34.1020 H   0  0  0  0  0  0  0  0  0  0  0  0
   35.7420   27.8850   33.9670 H   0  0  0  0  0  0  0  0  0  0  0  0
   34.2610   29.2400   32.6950 H   0  0  0  0  0  0  0  0  0  0  0  0
   34.7550   31.1480   31.5970 H   0  0  0  0  0  0  0  0  0  0  0  0
   36.0750   31.6720   32.6670 H   0  0  0  0  0  0  0  0  0  0  0  0
   37.6610   30.7060   31.3020 H   0  0  0  0  0  0  0  0  0  0  0  0
   36.3920   30.7770   30.0730 H   0  0  0  0  0  0  0  0  0  0  0  0
   37.4980   28.6500   30.2160 H   0  0  0  0  0  0  0  0  0  0  0  0
   35.7190   28.4890   30.4540 H   0  0  0  0  0  0  0  0  0  0  0  0
   36.6190   26.6970   32.0120 C   0  0  0  0  0  0  0  0  0  0  0  0
   35.4930   26.4160   31.2200 C   0  0  0  0  0  0  0  0  0  0  0  0
   35.1480   25.0770   31.0710 C   0  0  0  0  0  0  0  0  0  0  0  0
   35.9020   24.1010   31.6900 N   0  0  0  0  0  0  0  0  0  0  0  0
   36.9910   24.4220   32.4520 C   0  0  0  0  0  0  0  0  0  0  0  0
   37.3330   25.7090   32.6030 N   0  0  0  0  0  0  0  0  0  0  0  0
   34.8810   27.1250   30.7240 H   0  0  0  0  0  0  0  0  0  0  0  0
   34.3240   24.7310   30.5010 H   0  0  0  0  0  0  0  0  0  0  0  0
   37.5740   23.6570   32.9320 H   0  0  0  0  0  0  0  0  0  0  0  0
   34.9090   30.4090   34.3690 C   0  0  0  0  0  0  0  0  0  0  0  0
   35.8020   31.0120   35.1690 C   0  0  0  0  0  0  0  0  0  0  0  0
   36.8520   31.0260   34.9090 H   0  0  0  0  0  0  0  0  0  0  0  0
   35.3240   31.5990   36.3120 C   0  0  0  0  0  3  0  0  0  0  0  0
   33.9830   31.5420   36.5800 C   0  0  0  0  0  3  0  0  0  0  0  0
   33.3540   30.5730   35.0740 S   0  0  0  0  0  0  0  0  0  0  0  0
  1  7  1  1  0  0  0
  1  2  1  0  0  0  0
  2  9  1  0  0  0  0
  2  8  1  0  0  0  0
  3 10  1  6  0  0  0
  3  2  1  0  0  0  0
  3 26  1  0  0  0  0
  4 12  1  0  0  0  0
  4  3  1  0  0  0  0
  5 13  1  0  0  0  0
  5  4  1  0  0  0  0
  6  5  1  0  0  0  0
  6  1  1  0  0  0  0
 11  4  1  0  0  0  0
 14  5  1  0  0  0  0
 15  6  1  0  0  0  0
 16  6  1  0  0  0  0
 17  1  1  0  0  0  0
 17 22  1  0  0  0  0
 18 17  2  0  0  0  0
 19 18  1  0  0  0  0
 19 20  2  0  0  0  0
 20 21  1  0  0  0  0
 21 22  2  0  0  0  0
 21 25  1  0  0  0  0
 23 18  1  0  0  0  0
 24 19  1  0  0  0  0
 26 31  1  0  0  0  0
 26 27  2  0  0  0  0
 27 29  1  0  0  0  0
 28 27  1  0  0  0  0
 29 30  2  0  0  0  0
 31 30  1  0  0  0  0
M  END
>  <minimizedAffinity>
-4.724123

$$$$

 OpenBabel03272505563D

 31 33  0  0  1  0  0  0  0  0999 V2000
   38.1110   27.0930   33.9700 C   0  0  2  0  0  0  0  0  0  0  0  0
   37.1570   28.0140   34.6920 C   0  0  0  0  0  0  0  0  0  0  0  0
   35.9510   28.3870   33.8960 C   0  0  2  0  0  0  0  0  0  0  0  0
   36.2890   28.9240   32.5220 C   0  0  0  0  0  0  0  0  0  0  0  0
   37.4230   28.2220   31.8500 C   0  0  0  0  0  0  0  0  0  0  0  0
   37.7650   26.9160   32.5330 C   0  0  0  0  0  0  0  0  0  0  0  0
   39.1250   27.5010   34.1360 H   0  0  0  0  0  0  0  0  0  0  0  0
   37.6570   28.9450   35.0220 H   0  0  0  0  0  0  0  0  0  0  0  0
   36.7670   27.5430   35.6350 H   0  0  0  0  0  0  0  0  0  0  0  0
   35.1810   27.6140   33.8660 H   0  0  0  0  0  0  0  0  0  0  0  0
   35.3760   28.6960   31.8960 H   0  0  0  0  0  0  0  0  0  0  0  0
   36.4290   30.0060   32.4770 H   0  0  0  0  0  0  0  0  0  0  0  0
   38.3250   28.8710   31.8190 H   0  0  0  0  0  0  0  0  0  0  0  0
   37.2120   27.9710   30.7800 H   0  0  0  0  0  0  0  0  0  0  0  0
   38.7210   26.5840   32.0290 H   0  0  0  0  0  0  0  0  0  0  0  0
   37.0020   26.1570   32.3590 H   0  0  0  0  0  0  0  0  0  0  0  0
   38.0860   25.7460   34.6190 C   0  0  0  0  0  0  0  0  0  0  0  0
   38.0170   25.7210   36.0220 C   0  0  0  0  0  0  0  0  0  0  0  0
   38.0070   24.4690   36.6290 C   0  0  0  0  0  0  0  0  0  0  0  0
   38.0660   23.3300   35.8520 N   0  0  0  0  0  0  0  0  0  0  0  0
   38.1320   23.4040   34.4890 C   0  0  0  0  0  0  0  0  0  0  0  0
   38.1430   24.6030   33.8930 N   0  0  0  0  0  0  0  0  0  0  0  0
   37.9700   26.5630   36.6650 H   0  0  0  0  0  0  0  0  0  0  0  0
   37.9570   24.3110   37.6760 H   0  0  0  0  0  0  0  0  0  0  0  0
   38.1780   22.5120   33.8900 H   0  0  0  0  0  0  0  0  0  0  0  0
   35.3780   29.6090   34.6200 C   0  0  0  0  0  0  0  0  0  0  0  0
   36.0650   30.5490   35.2900 C   0  0  0  0  0  0  0  0  0  0  0  0
   37.1430   30.4930   35.3630 H   0  0  0  0  0  0  0  0  0  0  0  0
   35.3430   31.5620   35.8650 C   0  0  0  0  0  3  0  0  0  0  0  0
   33.9810   31.5680   35.7340 C   0  0  0  0  0  3  0  0  0  0  0  0
   33.7100   29.9980   34.7010 S   0  0  0  0  0  0  0  0  0  0  0  0
  1  7  1  1  0  0  0
  1 17  1  0  0  0  0
  1  2  1  0  0  0  0
  2  8  1  0  0  0  0
  2  9  1  0  0  0  0
  3 10  1  6  0  0  0
  3 26  1  0  0  0  0
  3  2  1  0  0  0  0
  4  3  1  0  0  0  0
  5  4  1  0  0  0  0
  5  6  1  0  0  0  0
  6  1  1  0  0  0  0
 11  4  1  0  0  0  0
 12  4  1  0  0  0  0
 13  5  1  0  0  0  0
 14  5  1  0  0  0  0
 15  6  1  0  0  0  0
 16  6  1  0  0  0  0
 17 18  1  0  0  0  0
 18 19  2  0  0  0  0
 18 23  1  0  0  0  0
 19 24  1  0  0  0  0
 20 19  1  0  0  0  0
 21 20  2  0  0  0  0
 22 21  1  0  0  0  0
 22 17  2  0  0  0  0
 25 21  1  0  0  0  0
 26 31  1  0  0  0  0
 26 27  2  0  0  0  0
 27 28  1  0  0  0  0
 27 29  1  0  0  0  0
 30 29  2  0  0  0  0
 31 30  1  0  0  0  0
M  END
>  <minimizedAffinity>
-4.67080212

$$$$

 OpenBabel03272505563D

 31 33  0  0  1  0  0  0  0  0999 V2000
   39.3340   26.4330   34.7530 C   0  0  2  0  0  0  0  0  0  0  0  0
   38.0240   27.1770   34.6640 C   0  0  0  0  0  0  0  0  0  0  0  0
   37.3830   27.1250   33.3170 C   0  0  2  0  0  0  0  0  0  0  0  0
   38.3160   27.5340   32.1990 C   0  0  0  0  0  0  0  0  0  0  0  0
   39.7190   27.0510   32.3630 C   0  0  0  0  0  0  0  0  0  0  0  0
   39.8290   25.9790   33.4250 C   0  0  0  0  0  0  0  0  0  0  0  0
   40.0370   27.1000   35.2850 H   0  0  0  0  0  0  0  0  0  0  0  0
   38.1360   28.2400   34.9540 H   0  0  0  0  0  0  0  0  0  0  0  0
   37.2650   26.7590   35.3800 H   0  0  0  0  0  0  0  0  0  0  0  0
   36.8630   26.1880   33.1090 H   0  0  0  0  0  0  0  0  0  0  0  0
   37.9150   27.0020   31.2870 H   0  0  0  0  0  0  0  0  0  0  0  0
   38.3040   28.6000   31.9630 H   0  0  0  0  0  0  0  0  0  0  0  0
   40.3990   27.8930   32.6160 H   0  0  0  0  0  0  0  0  0  0  0  0
   40.1450   26.6110   31.4250 H   0  0  0  0  0  0  0  0  0  0  0  0
   40.9430   25.8290   33.5510 H   0  0  0  0  0  0  0  0  0  0  0  0
   39.3900   25.0370   33.0940 H   0  0  0  0  0  0  0  0  0  0  0  0
   39.1600   25.2240   35.6170 C   0  0  0  0  0  0  0  0  0  0  0  0
   38.0670   25.2300   36.4990 C   0  0  0  0  0  0  0  0  0  0  0  0
   37.9110   24.1130   37.3140 C   0  0  0  0  0  0  0  0  0  0  0  0
   38.8120   23.0710   37.2290 N   0  0  0  0  0  0  0  0  0  0  0  0
   39.8610   23.1100   36.3540 C   0  0  0  0  0  0  0  0  0  0  0  0
   40.0220   24.1810   35.5650 N   0  0  0  0  0  0  0  0  0  0  0  0
   37.3480   26.0020   36.6050 H   0  0  0  0  0  0  0  0  0  0  0  0
   37.1300   23.9910   38.0200 H   0  0  0  0  0  0  0  0  0  0  0  0
   40.5590   22.2950   36.2930 H   0  0  0  0  0  0  0  0  0  0  0  0
   36.3480   28.2540   33.3430 C   0  0  0  0  0  0  0  0  0  0  0  0
   35.9330   28.9480   34.4140 C   0  0  0  0  0  0  0  0  0  0  0  0
   36.3350   28.7350   35.3960 H   0  0  0  0  0  0  0  0  0  0  0  0
   34.9910   29.9220   34.2040 C   0  0  0  0  0  3  0  0  0  0  0  0
   34.5260   30.1370   32.9360 C   0  0  0  0  0  3  0  0  0  0  0  0
   35.5150   28.8410   31.9630 S   0  0  0  0  0  0  0  0  0  0  0  0
  1  7  1  1  0  0  0
  1 17  1  0  0  0  0
  2  1  1  0  0  0  0
  2  8  1  0  0  0  0
  2  9  1  0  0  0  0
  3 10  1  6  0  0  0
  3 26  1  0  0  0  0
  3  2  1  0  0  0  0
  4  5  1  0  0  0  0
  4  3  1  0  0  0  0
  5 13  1  0  0  0  0
  5  6  1  0  0  0  0
  6 15  1  0  0  0  0
  6  1  1  0  0  0  0
 11  4  1  0  0  0  0
 12  4  1  0  0  0  0
 14  5  1  0  0  0  0
 16  6  1  0  0  0  0
 17 18  1  0  0  0  0
 18 23  1  0  0  0  0
 18 19  2  0  0  0  0
 19 24  1  0  0  0  0
 20 19  1  0  0  0  0
 21 20  2  0  0  0  0
 22 17  2  0  0  0  0
 22 21  1  0  0  0  0
 25 21  1  0  0  0  0
 26 27  2  0  0  0  0
 27 28  1  0  0  0  0
 29 27  1  0  0  0  0
 30 29  2  0  0  0  0
 31 30  1  0  0  0  0
 31 26  1  0  0  0  0
M  END
>  <minimizedAffinity>
-4.63677883

$$$$

 OpenBabel03272505563D

 31 33  0  0  1  0  0  0  0  0999 V2000
   39.6760   26.5490   34.9740 C   0  0  2  0  0  0  0  0  0  0  0  0
   38.7720   26.9090   33.8210 C   0  0  0  0  0  0  0  0  0  0  0  0
   39.3970   26.7300   32.4770 C   0  0  2  0  0  0  0  0  0  0  0  0
   40.7380   27.4170   32.3490 C   0  0  0  0  0  0  0  0  0  0  0  0
   41.5910   27.3310   33.5730 C   0  0  0  0  0  0  0  0  0  0  0  0
   41.0790   26.2940   34.5480 C   0  0  0  0  0  0  0  0  0  0  0  0
   39.5780   27.3640   35.7150 H   0  0  0  0  0  0  0  0  0  0  0  0
   38.4060   27.9510   33.8960 H   0  0  0  0  0  0  0  0  0  0  0  0
   37.8440   26.2750   33.8130 H   0  0  0  0  0  0  0  0  0  0  0  0
   39.4210   25.6940   32.1330 H   0  0  0  0  0  0  0  0  0  0  0  0
   41.2850   26.8270   31.5560 H   0  0  0  0  0  0  0  0  0  0  0  0
   40.6910   28.4470   31.9890 H   0  0  0  0  0  0  0  0  0  0  0  0
   41.6520   28.3180   34.0800 H   0  0  0  0  0  0  0  0  0  0  0  0
   42.6530   27.0570   33.3500 H   0  0  0  0  0  0  0  0  0  0  0  0
   41.7110   26.4500   35.4730 H   0  0  0  0  0  0  0  0  0  0  0  0
   41.2470   25.2800   34.1840 H   0  0  0  0  0  0  0  0  0  0  0  0
   39.1640   25.3100   35.6380 C   0  0  0  0  0  0  0  0  0  0  0  0
   39.8440   24.1140   35.3550 C   0  0  0  0  0  0  0  0  0  0  0  0
   39.3620   22.9590   35.9600 C   0  0  0  0  0  0  0  0  0  0  0  0
   38.2620   23.0270   36.7920 N   0  0  0  0  0  0  0  0  0  0  0  0
   37.6330   24.2150   37.0380 C   0  0  0  0  0  0  0  0  0  0  0  0
   38.0880   25.3350   36.4600 N   0  0  0  0  0  0  0  0  0  0  0  0
   40.6900   24.0050   34.7250 H   0  0  0  0  0  0  0  0  0  0  0  0
   39.7830   21.9940   35.8310 H   0  0  0  0  0  0  0  0  0  0  0  0
   36.7770   24.2610   37.6860 H   0  0  0  0  0  0  0  0  0  0  0  0
   38.5000   27.5310   31.5280 C   0  0  0  0  0  0  0  0  0  0  0  0
   37.3450   28.1440   31.8310 C   0  0  0  0  0  0  0  0  0  0  0  0
   36.9500   28.1060   32.8380 H   0  0  0  0  0  0  0  0  0  0  0  0
   36.7030   28.8090   30.8180 C   0  0  0  0  0  3  0  0  0  0  0  0
   37.2590   28.8150   29.5680 C   0  0  0  0  0  3  0  0  0  0  0  0
   38.8280   27.7880   29.8640 S   0  0  0  0  0  0  0  0  0  0  0  0
  1 17  1  0  0  0  0
  1  7  1  1  0  0  0
  2  8  1  0  0  0  0
  2  1  1  0  0  0  0
  3 10  1  6  0  0  0
  3  2  1  0  0  0  0
  4  3  1  0  0  0  0
  4  5  1  0  0  0  0
  5 13  1  0  0  0  0
  5  6  1  0  0  0  0
  6  1  1  0  0  0  0
  6 15  1  0  0  0  0
  9  2  1  0  0  0  0
 11  4  1  0  0  0  0
 12  4  1  0  0  0  0
 14  5  1  0  0  0  0
 16  6  1  0  0  0  0
 17 22  1  0  0  0  0
 18 17  2  0  0  0  0
 18 19  1  0  0  0  0
 19 20  2  0  0  0  0
 20 21  1  0  0  0  0
 21 25  1  0  0  0  0
 22 21  2  0  0  0  0
 23 18  1  0  0  0  0
 24 19  1  0  0  0  0
 26 27  2  0  0  0  0
 26  3  1  0  0  0  0
 27 28  1  0  0  0  0
 29 27  1  0  0  0  0
 30 31  1  0  0  0  0
 30 29  2  0  0  0  0
 31 26  1  0  0  0  0
M  END
>  <minimizedAffinity>
-4.59469318

$$$$

 OpenBabel03272505563D

 31 33  0  0  1  0  0  0  0  0999 V2000
   39.1520   22.6970   36.2740 C   0  0  2  0  0  0  0  0  0  0  0  0
   38.9900   23.7740   35.2300 C   0  0  0  0  0  0  0  0  0  0  0  0
   38.9790   25.1620   35.7800 C   0  0  2  0  0  0  0  0  0  0  0  0
   37.9880   25.3460   36.9070 C   0  0  0  0  0  0  0  0  0  0  0  0
   37.8980   24.1840   37.8420 C   0  0  0  0  0  0  0  0  0  0  0  0
   39.0530   23.2230   37.6630 C   0  0  0  0  0  0  0  0  0  0  0  0
   38.4040   21.9180   36.0390 H   0  0  0  0  0  0  0  0  0  0  0  0
   38.0680   23.6310   34.6330 H   0  0  0  0  0  0  0  0  0  0  0  0
   39.8280   23.7490   34.4800 H   0  0  0  0  0  0  0  0  0  0  0  0
   39.9700   25.5500   36.0250 H   0  0  0  0  0  0  0  0  0  0  0  0
   38.4090   26.1970   37.5190 H   0  0  0  0  0  0  0  0  0  0  0  0
   36.9910   25.6580   36.5910 H   0  0  0  0  0  0  0  0  0  0  0  0
   36.9390   23.6400   37.7040 H   0  0  0  0  0  0  0  0  0  0  0  0
   37.9050   24.4870   38.9200 H   0  0  0  0  0  0  0  0  0  0  0  0
   38.7740   22.3340   38.3050 H   0  0  0  0  0  0  0  0  0  0  0  0
   39.9870   23.6390   38.0400 H   0  0  0  0  0  0  0  0  0  0  0  0
   40.4950   22.0550   36.1200 C   0  0  0  0  0  0  0  0  0  0  0  0
   41.1300   21.6290   37.2980 C   0  0  0  0  0  0  0  0  0  0  0  0
   42.3840   21.0440   37.1590 C   0  0  0  0  0  0  0  0  0  0  0  0
   42.9440   20.9090   35.9040 N   0  0  0  0  0  0  0  0  0  0  0  0
   42.2860   21.3390   34.7860 C   0  0  0  0  0  0  0  0  0  0  0  0
   41.0780   21.9050   34.9070 N   0  0  0  0  0  0  0  0  0  0  0  0
   40.7480   21.7080   38.2840 H   0  0  0  0  0  0  0  0  0  0  0  0
   42.9690   20.6800   37.9650 H   0  0  0  0  0  0  0  0  0  0  0  0
   42.7280   21.2310   33.8110 H   0  0  0  0  0  0  0  0  0  0  0  0
   38.3930   26.0160   34.6520 C   0  0  0  0  0  0  0  0  0  0  0  0
   37.2470   26.7140   34.6780 C   0  0  0  0  0  0  0  0  0  0  0  0
   36.6230   26.7140   35.5630 H   0  0  0  0  0  0  0  0  0  0  0  0
   36.9130   27.4140   33.5470 C   0  0  0  0  0  3  0  0  0  0  0  0
   37.7480   27.3680   32.4640 C   0  0  0  0  0  3  0  0  0  0  0  0
   39.1230   26.2330   33.1160 S   0  0  0  0  0  0  0  0  0  0  0  0
  1  7  1  6  0  0  0
  1  6  1  0  0  0  0
  2  3  1  0  0  0  0
  2  1  1  0  0  0  0
  3 10  1  1  0  0  0
  3  4  1  0  0  0  0
  4 11  1  0  0  0  0
  4  5  1  0  0  0  0
  5 14  1  0  0  0  0
  6  5  1  0  0  0  0
  6 16  1  0  0  0  0
  6 15  1  0  0  0  0
  8  2  1  0  0  0  0
  9  2  1  0  0  0  0
 12  4  1  0  0  0  0
 13  5  1  0  0  0  0
 17  1  1  0  0  0  0
 17 18  1  0  0  0  0
 18 23  1  0  0  0  0
 19 18  2  0  0  0  0
 19 24  1  0  0  0  0
 20 19  1  0  0  0  0
 21 22  1  0  0  0  0
 21 20  2  0  0  0  0
 22 17  2  0  0  0  0
 25 21  1  0  0  0  0
 26 27  2  0  0  0  0
 26  3  1  0  0  0  0
 27 28  1  0  0  0  0
 29 27  1  0  0  0  0
 30 31  1  0  0  0  0
 30 29  2  0  0  0  0
 31 26  1  0  0  0  0
M  END
>  <minimizedAffinity>
-4.53629827

$$$$

 OpenBabel03272505563D

 31 33  0  0  1  0  0  0  0  0999 V2000
   35.4290   29.2670   33.5540 C   0  0  2  0  0  0  0  0  0  0  0  0
   36.2580   28.3060   34.3710 C   0  0  0  0  0  0  0  0  0  0  0  0
   37.3510   27.6400   33.6050 C   0  0  2  0  0  0  0  0  0  0  0  0
   36.8700   26.9900   32.3270 C   0  0  0  0  0  0  0  0  0  0  0  0
   35.8310   27.7730   31.5930 C   0  0  0  0  0  0  0  0  0  0  0  0
   35.7310   29.1950   32.0980 C   0  0  0  0  0  0  0  0  0  0  0  0
   34.3720   29.0550   33.7990 H   0  0  0  0  0  0  0  0  0  0  0  0
   35.6330   27.5200   34.8380 H   0  0  0  0  0  0  0  0  0  0  0  0
   36.7600   28.8270   35.2310 H   0  0  0  0  0  0  0  0  0  0  0  0
   38.2320   28.2670   33.4510 H   0  0  0  0  0  0  0  0  0  0  0  0
   37.7770   26.9820   31.6530 H   0  0  0  0  0  0  0  0  0  0  0  0
   36.5580   25.9490   32.4340 H   0  0  0  0  0  0  0  0  0  0  0  0
   34.8380   27.2810   31.6730 H   0  0  0  0  0  0  0  0  0  0  0  0
   36.0290   27.8430   30.4930 H   0  0  0  0  0  0  0  0  0  0  0  0
   34.8170   29.6100   31.5770 H   0  0  0  0  0  0  0  0  0  0  0  0
   36.5960   29.7900   31.8030 H   0  0  0  0  0  0  0  0  0  0  0  0
   35.6960   30.6660   34.0110 C   0  0  0  0  0  0  0  0  0  0  0  0
   35.8390   30.8620   35.3950 C   0  0  0  0  0  0  0  0  0  0  0  0
   36.0750   32.1640   35.8240 C   0  0  0  0  0  0  0  0  0  0  0  0
   36.1560   33.1870   34.9000 N   0  0  0  0  0  0  0  0  0  0  0  0
   36.0110   32.9470   33.5630 C   0  0  0  0  0  0  0  0  0  0  0  0
   35.7830   31.6970   33.1370 N   0  0  0  0  0  0  0  0  0  0  0  0
   35.7860   30.1160   36.1450 H   0  0  0  0  0  0  0  0  0  0  0  0
   36.2010   32.4480   36.8370 H   0  0  0  0  0  0  0  0  0  0  0  0
   36.0740   33.7490   32.8490 H   0  0  0  0  0  0  0  0  0  0  0  0
   37.7570   26.4470   34.4750 C   0  0  0  0  0  0  0  0  0  0  0  0
   37.9420   26.4410   35.8050 C   0  0  0  0  0  0  0  0  0  0  0  0
   37.8060   27.3460   36.3820 H   0  0  0  0  0  0  0  0  0  0  0  0
   38.3050   25.2520   36.3820 C   0  0  0  0  0  3  0  0  0  0  0  0
   38.4600   24.1460   35.5900 C   0  0  0  0  0  3  0  0  0  0  0  0
   38.0530   24.8650   33.8810 S   0  0  0  0  0  0  0  0  0  0  0  0
  1  7  1  1  0  0  0
  1 17  1  0  0  0  0
  1  2  1  0  0  0  0
  2  8  1  0  0  0  0
  2  9  1  0  0  0  0
  3 10  1  6  0  0  0
  3  2  1  0  0  0  0
  3 26  1  0  0  0  0
  4 12  1  0  0  0  0
  4  3  1  0  0  0  0
  5 13  1  0  0  0  0
  5  6  1  0  0  0  0
  5  4  1  0  0  0  0
  6  1  1  0  0  0  0
 11  4  1  0  0  0  0
 14  5  1  0  0  0  0
 15  6  1  0  0  0  0
 16  6  1  0  0  0  0
 17 18  1  0  0  0  0
 18 19  2  0  0  0  0
 18 23  1  0  0  0  0
 19 24  1  0  0  0  0
 20 19  1  0  0  0  0
 21 20  2  0  0  0  0
 22 21  1  0  0  0  0
 22 17  2  0  0  0  0
 25 21  1  0  0  0  0
 26 27  2  0  0  0  0
 27 28  1  0  0  0  0
 27 29  1  0  0  0  0
 30 29  2  0  0  0  0
 31 26  1  0  0  0  0
 31 30  1  0  0  0  0
M  END
>  <minimizedAffinity>
-4.52896166

$$$$
