
 OpenBabel03272506183D

 31 33  0  0  0  0  0  0  0  0999 V2000
   35.5330   30.3110   49.8070 C   0  0  0  0  0  0  0  0  0  0  0  0
   36.4600   31.2140   49.0260 C   0  0  0  0  0  0  0  0  0  0  0  0
   37.9040   30.8450   49.1920 C   0  0  0  0  0  0  0  0  0  0  0  0
   38.3510   30.7570   50.6240 C   0  0  0  0  0  0  0  0  0  0  0  0
   37.3370   30.1170   51.5240 C   0  0  0  0  0  0  0  0  0  0  0  0
   36.2420   29.4060   50.7550 C   0  0  0  0  0  0  0  0  0  0  0  0
   34.7940   30.9260   50.3580 H   0  0  0  0  0  0  0  0  0  0  0  0
   36.2350   31.2130   47.9530 H   0  0  0  0  0  0  0  0  0  0  0  0
   36.3640   32.2560   49.4410 H   0  0  0  0  0  0  0  0  0  0  0  0
   38.5050   31.6210   48.6940 H   0  0  0  0  0  0  0  0  0  0  0  0
   38.0740   29.8780   48.6720 H   0  0  0  0  0  0  0  0  0  0  0  0
   39.2650   30.1000   50.6370 H   0  0  0  0  0  0  0  0  0  0  0  0
   38.7020   31.7200   51.0340 H   0  0  0  0  0  0  0  0  0  0  0  0
   37.7940   29.3540   52.1850 H   0  0  0  0  0  0  0  0  0  0  0  0
   36.9130   30.8990   52.1580 H   0  0  0  0  0  0  0  0  0  0  0  0
   36.7610   28.6260   50.1460 H   0  0  0  0  0  0  0  0  0  0  0  0
   35.5640   28.9650   51.4820 H   0  0  0  0  0  0  0  0  0  0  0  0
   34.7490   29.4530   48.8650 C   0  0  0  0  0  0  0  0  0  0  0  0
   34.0990   30.1330   47.8170 C   0  0  0  0  0  0  0  0  0  0  0  0
   33.3490   29.3280   46.9360 C   0  0  0  0  0  0  0  0  0  0  0  0
   33.2840   27.9830   47.1260 N   0  0  0  0  0  0  0  0  0  0  0  0
   33.9350   27.3820   48.1570 C   0  0  0  0  0  0  0  0  0  0  0  0
   34.6540   28.1090   49.0110 N   0  0  0  0  0  0  0  0  0  0  0  0
   34.1120   31.1750   47.6200 H   0  0  0  0  0  0  0  0  0  0  0  0
   33.8820   26.3300   48.3020 H   0  0  0  0  0  0  0  0  0  0  0  0
   32.6540   29.9020   45.8490 C   0  0  0  0  0  0  0  0  0  0  0  0
   31.3120   30.1890   45.7160 C   0  0  0  0  0  0  0  0  0  0  0  0
   30.6480   29.9600   46.5400 H   0  0  0  0  0  0  0  0  0  0  0  0
   30.8550   30.7510   44.5590 C   0  0  0  0  0  3  0  0  0  0  0  0
   31.8280   31.0000   43.5560 C   0  0  0  0  0  3  0  0  0  0  0  0
   33.3760   30.4160   44.3160 S   0  0  0  0  0  0  0  0  0  0  0  0
  1  7  1  0  0  0  0
  1  6  1  0  0  0  0
  2  3  1  0  0  0  0
  2  9  1  0  0  0  0
  2  1  1  0  0  0  0
  3  4  1  0  0  0  0
  4 12  1  0  0  0  0
  4 13  1  0  0  0  0
  4  5  1  0  0  0  0
  5 15  1  0  0  0  0
  5 14  1  0  0  0  0
  6 17  1  0  0  0  0
  6  5  1  0  0  0  0
  8  2  1  0  0  0  0
 10  3  1  0  0  0  0
 11  3  1  0  0  0  0
 16  6  1  0  0  0  0
 18 23  1  0  0  0  0
 18  1  1  0  0  0  0
 19 18  2  0  0  0  0
 20 21  2  0  0  0  0
 20 19  1  0  0  0  0
 21 22  1  0  0  0  0
 22 25  1  0  0  0  0
 22 23  2  0  0  0  0
 24 19  1  0  0  0  0
 26 20  1  0  0  0  0
 27 26  2  0  0  0  0
 27 28  1  0  0  0  0
 29 27  1  0  0  0  0
 30 31  1  0  0  0  0
 30 29  2  0  0  0  0
 31 26  1  0  0  0  0
M  END
>  <minimizedAffinity>
-5.15282726

>  <minimizedRMSD>
0.293922961

$$$$
