
 OpenBabel03272507113D

 24 26  0  0  0  0  0  0  0  0999 V2000
   38.0180   25.4430   35.8990 C   0  0  0  0  0  0  0  0  0  0  0  0
   38.4100   26.6430   36.3980 C   0  0  0  0  0  0  0  0  0  0  0  0
   38.1590   27.6010   35.4200 C   0  0  0  0  0  0  0  0  0  0  0  0
   37.6100   26.8920   34.3470 C   0  0  0  0  0  0  0  0  0  0  0  0
   37.5580   25.6390   34.6970 O   0  0  0  0  0  0  0  0  0  0  0  0
   38.8500   26.9590   37.3540 H   0  0  0  0  0  0  0  0  0  0  0  0
   38.3160   28.6760   35.3920 H   0  0  0  0  0  0  0  0  0  0  0  0
   37.1570   27.3970   33.0450 C   0  0  0  0  0  0  0  0  0  0  0  0
   36.3990   28.4750   32.8050 C   0  0  0  0  0  0  0  0  0  0  0  0
   36.0420   29.0970   33.6450 H   0  0  0  0  0  0  0  0  0  0  0  0
   36.0630   28.8110   31.5300 C   0  0  0  0  0  3  0  0  0  0  0  0
   36.5560   27.9710   30.5250 C   0  0  0  0  0  3  0  0  0  0  0  0
   37.5100   26.6960   31.5000 S   0  0  0  0  0  0  0  0  0  0  0  0
   38.1340   24.2100   36.6530 C   0  0  0  0  0  0  0  0  0  0  0  0
   37.2210   23.8860   37.4440 O   0  0  0  0  0  0  0  0  0  0  0  0
   39.3270   23.4060   36.4410 C   0  0  0  0  0  0  0  0  0  0  0  0
   39.8540   22.7680   37.5670 C   0  0  0  0  0  0  0  0  0  0  0  0
   41.0060   21.9840   37.3990 C   0  0  0  0  0  0  0  0  0  0  0  0
   41.5360   21.8980   36.1390 N   0  0  0  0  0  0  0  0  0  0  0  0
   41.0000   22.5270   35.0840 C   0  0  0  0  0  0  0  0  0  0  0  0
   39.9030   23.2750   35.2410 N   0  0  0  0  0  0  0  0  0  0  0  0
   39.4310   22.8370   38.5710 H   0  0  0  0  0  0  0  0  0  0  0  0
   41.4480   21.4700   38.2480 H   0  0  0  0  0  0  0  0  0  0  0  0
   41.4340   22.4480   34.0880 H   0  0  0  0  0  0  0  0  0  0  0  0
  1  2  2  0  0  0  0
  1 14  1  0  0  0  0
  2  6  1  0  0  0  0
  3  2  1  0  0  0  0
  4  5  1  0  0  0  0
  4  3  2  0  0  0  0
  5  1  1  0  0  0  0
  7  3  1  0  0  0  0
  8  4  1  0  0  0  0
  9  8  2  0  0  0  0
  9 10  1  0  0  0  0
 11  9  1  0  0  0  0
 12 13  1  0  0  0  0
 12 11  2  0  0  0  0
 13  8  1  0  0  0  0
 14 15  2  0  0  0  0
 16 14  1  0  0  0  0
 16 17  1  0  0  0  0
 17 22  1  0  0  0  0
 18 17  2  0  0  0  0
 18 23  1  0  0  0  0
 19 18  1  0  0  0  0
 20 21  1  0  0  0  0
 20 19  2  0  0  0  0
 21 16  2  0  0  0  0
 24 20  1  0  0  0  0
M  END
>  <minimizedAffinity>
-4.87572622

$$$$

 OpenBabel03272507113D

 24 26  0  0  0  0  0  0  0  0999 V2000
   37.1150   26.6270   33.6400 C   0  0  0  0  0  0  0  0  0  0  0  0
   37.3780   27.6770   34.4600 C   0  0  0  0  0  0  0  0  0  0  0  0
   37.9520   27.1630   35.6190 C   0  0  0  0  0  0  0  0  0  0  0  0
   38.0010   25.7800   35.4210 C   0  0  0  0  0  0  0  0  0  0  0  0
   37.4960   25.5400   34.2450 O   0  0  0  0  0  0  0  0  0  0  0  0
   37.2310   28.7620   34.3730 H   0  0  0  0  0  0  0  0  0  0  0  0
   38.3140   27.6370   36.5280 H   0  0  0  0  0  0  0  0  0  0  0  0
   38.5100   24.7370   36.3210 C   0  0  0  0  0  0  0  0  0  0  0  0
   38.0710   24.4330   37.5490 C   0  0  0  0  0  0  0  0  0  0  0  0
   37.2300   24.9970   37.9910 H   0  0  0  0  0  0  0  0  0  0  0  0
   38.6550   23.4300   38.2600 C   0  0  0  0  0  3  0  0  0  0  0  0
   39.7130   22.7660   37.6290 C   0  0  0  0  0  3  0  0  0  0  0  0
   39.8170   23.6500   35.9860 S   0  0  0  0  0  0  0  0  0  0  0  0
   36.5100   26.7920   32.3330 C   0  0  0  0  0  0  0  0  0  0  0  0
   36.4010   25.8020   31.5770 O   0  0  0  0  0  0  0  0  0  0  0  0
   36.0560   28.1250   31.9690 C   0  0  0  0  0  0  0  0  0  0  0  0
   36.8390   28.8170   31.0410 C   0  0  0  0  0  0  0  0  0  0  0  0
   36.4300   30.1070   30.6680 C   0  0  0  0  0  0  0  0  0  0  0  0
   35.2870   30.6000   31.2410 N   0  0  0  0  0  0  0  0  0  0  0  0
   34.5640   29.9040   32.1290 C   0  0  0  0  0  0  0  0  0  0  0  0
   34.9510   28.6750   32.4860 N   0  0  0  0  0  0  0  0  0  0  0  0
   37.7500   28.4230   30.5850 H   0  0  0  0  0  0  0  0  0  0  0  0
   37.0090   30.6800   29.9490 H   0  0  0  0  0  0  0  0  0  0  0  0
   33.6580   30.3100   32.5750 H   0  0  0  0  0  0  0  0  0  0  0  0
  1  5  1  0  0  0  0
  1  2  2  0  0  0  0
  2  3  1  0  0  0  0
  3  7  1  0  0  0  0
  4  3  2  0  0  0  0
  4  8  1  0  0  0  0
  5  4  1  0  0  0  0
  6  2  1  0  0  0  0
  8  9  2  0  0  0  0
  9 10  1  0  0  0  0
  9 11  1  0  0  0  0
 12 11  2  0  0  0  0
 13  8  1  0  0  0  0
 13 12  1  0  0  0  0
 14  1  1  0  0  0  0
 15 14  2  0  0  0  0
 16 14  1  0  0  0  0
 16 21  1  0  0  0  0
 17 16  2  0  0  0  0
 18 17  1  0  0  0  0
 18 19  2  0  0  0  0
 19 20  1  0  0  0  0
 20 21  2  0  0  0  0
 20 24  1  0  0  0  0
 22 17  1  0  0  0  0
 23 18  1  0  0  0  0
M  END
>  <minimizedAffinity>
-4.87288332

$$$$

 OpenBabel03272507113D

 24 26  0  0  0  0  0  0  0  0999 V2000
   36.3350   26.0230   31.9070 C   0  0  0  0  0  0  0  0  0  0  0  0
   35.3170   25.9980   31.0070 C   0  0  0  0  0  0  0  0  0  0  0  0
   35.0020   24.6630   30.7750 C   0  0  0  0  0  0  0  0  0  0  0  0
   35.8840   23.9340   31.5790 C   0  0  0  0  0  0  0  0  0  0  0  0
   36.6320   24.7930   32.2110 O   0  0  0  0  0  0  0  0  0  0  0  0
   34.7520   26.7800   30.4810 H   0  0  0  0  0  0  0  0  0  0  0  0
   34.2620   24.1860   30.1370 H   0  0  0  0  0  0  0  0  0  0  0  0
   36.0020   22.4780   31.7330 C   0  0  0  0  0  0  0  0  0  0  0  0
   35.1200   21.6420   32.2950 C   0  0  0  0  0  0  0  0  0  0  0  0
   34.1740   22.0330   32.7090 H   0  0  0  0  0  0  0  0  0  0  0  0
   35.3810   20.3080   32.3600 C   0  0  0  0  0  3  0  0  0  0  0  0
   36.6010   19.8950   31.8120 C   0  0  0  0  0  3  0  0  0  0  0  0
   37.3350   21.5030   31.2100 S   0  0  0  0  0  0  0  0  0  0  0  0
   36.9220   27.2590   32.3840 C   0  0  0  0  0  0  0  0  0  0  0  0
   36.5790   28.3440   31.8640 O   0  0  0  0  0  0  0  0  0  0  0  0
   37.8960   27.1660   33.4610 C   0  0  0  0  0  0  0  0  0  0  0  0
   37.3960   27.2700   34.7610 C   0  0  0  0  0  0  0  0  0  0  0  0
   38.3080   27.1850   35.8250 C   0  0  0  0  0  0  0  0  0  0  0  0
   39.6300   27.0070   35.5130 N   0  0  0  0  0  0  0  0  0  0  0  0
   40.0700   26.9130   34.2510 C   0  0  0  0  0  0  0  0  0  0  0  0
   39.2030   26.9930   33.2360 N   0  0  0  0  0  0  0  0  0  0  0  0
   36.3420   27.4130   35.0090 H   0  0  0  0  0  0  0  0  0  0  0  0
   37.9620   27.2600   36.8520 H   0  0  0  0  0  0  0  0  0  0  0  0
   41.1240   26.7700   34.0200 H   0  0  0  0  0  0  0  0  0  0  0  0
  1  5  1  0  0  0  0
  1 14  1  0  0  0  0
  2  1  2  0  0  0  0
  3  2  1  0  0  0  0
  3  4  2  0  0  0  0
  4  8  1  0  0  0  0
  4  5  1  0  0  0  0
  6  2  1  0  0  0  0
  7  3  1  0  0  0  0
  8  9  2  0  0  0  0
  9 11  1  0  0  0  0
  9 10  1  0  0  0  0
 12 11  2  0  0  0  0
 13  8  1  0  0  0  0
 13 12  1  0  0  0  0
 14 16  1  0  0  0  0
 15 14  2  0  0  0  0
 16 17  1  0  0  0  0
 17 22  1  0  0  0  0
 17 18  2  0  0  0  0
 18 23  1  0  0  0  0
 19 18  1  0  0  0  0
 20 19  2  0  0  0  0
 21 16  2  0  0  0  0
 21 20  1  0  0  0  0
 24 20  1  0  0  0  0
M  END
>  <minimizedAffinity>
-4.81146622

$$$$

 OpenBabel03272507113D

 24 26  0  0  0  0  0  0  0  0999 V2000
   37.9010   25.6860   34.8180 C   0  0  0  0  0  0  0  0  0  0  0  0
   38.5140   26.5390   35.6780 C   0  0  0  0  0  0  0  0  0  0  0  0
   37.9440   27.7950   35.4930 C   0  0  0  0  0  0  0  0  0  0  0  0
   36.9840   27.6170   34.4930 C   0  0  0  0  0  0  0  0  0  0  0  0
   37.0150   26.3620   34.1460 O   0  0  0  0  0  0  0  0  0  0  0  0
   39.3090   26.4190   36.4260 H   0  0  0  0  0  0  0  0  0  0  0  0
   38.1270   28.7580   35.9630 H   0  0  0  0  0  0  0  0  0  0  0  0
   36.0790   28.6080   33.8970 C   0  0  0  0  0  0  0  0  0  0  0  0
   35.5900   29.7160   34.4690 C   0  0  0  0  0  0  0  0  0  0  0  0
   35.8630   29.9670   35.5090 H   0  0  0  0  0  0  0  0  0  0  0  0
   34.7550   30.5380   33.7760 C   0  0  0  0  0  3  0  0  0  0  0  0
   34.4600   30.1480   32.4650 C   0  0  0  0  0  3  0  0  0  0  0  0
   35.4320   28.5620   32.2900 S   0  0  0  0  0  0  0  0  0  0  0  0
   38.2460   24.2810   34.7360 C   0  0  0  0  0  0  0  0  0  0  0  0
   37.8970   23.6190   33.7330 O   0  0  0  0  0  0  0  0  0  0  0  0
   38.9930   23.7090   35.8460 C   0  0  0  0  0  0  0  0  0  0  0  0
   40.3100   23.3290   35.5780 C   0  0  0  0  0  0  0  0  0  0  0  0
   41.0600   22.7720   36.6260 C   0  0  0  0  0  0  0  0  0  0  0  0
   40.4460   22.6400   37.8440 N   0  0  0  0  0  0  0  0  0  0  0  0
   39.1780   23.0170   38.0590 C   0  0  0  0  0  0  0  0  0  0  0  0
   38.4610   23.5470   37.0630 N   0  0  0  0  0  0  0  0  0  0  0  0
   40.7990   23.4340   34.6070 H   0  0  0  0  0  0  0  0  0  0  0  0
   42.0880   22.4640   36.4610 H   0  0  0  0  0  0  0  0  0  0  0  0
   38.7050   22.9050   39.0340 H   0  0  0  0  0  0  0  0  0  0  0  0
  1  2  2  0  0  0  0
  2  6  1  0  0  0  0
  3  2  1  0  0  0  0
  3  7  1  0  0  0  0
  4  3  2  0  0  0  0
  5  4  1  0  0  0  0
  5  1  1  0  0  0  0
  8  9  2  0  0  0  0
  8  4  1  0  0  0  0
  9 10  1  0  0  0  0
 11  9  1  0  0  0  0
 12 11  2  0  0  0  0
 13 12  1  0  0  0  0
 13  8  1  0  0  0  0
 14  1  1  0  0  0  0
 14 16  1  0  0  0  0
 15 14  2  0  0  0  0
 16 21  1  0  0  0  0
 17 16  2  0  0  0  0
 17 18  1  0  0  0  0
 18 19  2  0  0  0  0
 19 20  1  0  0  0  0
 20 24  1  0  0  0  0
 21 20  2  0  0  0  0
 22 17  1  0  0  0  0
 23 18  1  0  0  0  0
M  END
>  <minimizedAffinity>
-4.77613115

$$$$

 OpenBabel03272507113D

 24 26  0  0  0  0  0  0  0  0999 V2000
   38.0010   24.4480   33.6990 C   0  0  0  0  0  0  0  0  0  0  0  0
   37.5100   25.1290   32.6310 C   0  0  0  0  0  0  0  0  0  0  0  0
   36.8190   24.2160   31.8390 C   0  0  0  0  0  0  0  0  0  0  0  0
   36.9410   22.9910   32.5030 C   0  0  0  0  0  0  0  0  0  0  0  0
   37.6430   23.2020   33.5790 O   0  0  0  0  0  0  0  0  0  0  0  0
   37.5590   26.1790   32.3150 H   0  0  0  0  0  0  0  0  0  0  0  0
   36.2760   24.3220   30.9040 H   0  0  0  0  0  0  0  0  0  0  0  0
   36.4080   21.6770   32.1190 C   0  0  0  0  0  0  0  0  0  0  0  0
   35.2140   21.1570   32.4330 C   0  0  0  0  0  0  0  0  0  0  0  0
   34.5050   21.7360   33.0500 H   0  0  0  0  0  0  0  0  0  0  0  0
   34.8680   19.9150   31.9960 C   0  0  0  0  0  3  0  0  0  0  0  0
   35.8240   19.2510   31.2190 C   0  0  0  0  0  3  0  0  0  0  0  0
   37.2210   20.4890   31.1560 S   0  0  0  0  0  0  0  0  0  0  0  0
   38.7800   25.0890   34.7390 C   0  0  0  0  0  0  0  0  0  0  0  0
   39.3250   26.1900   34.5090 O   0  0  0  0  0  0  0  0  0  0  0  0
   38.8830   24.4020   36.0180 C   0  0  0  0  0  0  0  0  0  0  0  0
   37.9650   24.7760   37.0010 C   0  0  0  0  0  0  0  0  0  0  0  0
   38.0370   24.1340   38.2470 C   0  0  0  0  0  0  0  0  0  0  0  0
   39.0070   23.1800   38.4130 N   0  0  0  0  0  0  0  0  0  0  0  0
   39.8710   22.8510   37.4430 C   0  0  0  0  0  0  0  0  0  0  0  0
   39.8050   23.4610   36.2560 N   0  0  0  0  0  0  0  0  0  0  0  0
   37.1920   25.5360   36.8680 H   0  0  0  0  0  0  0  0  0  0  0  0
   37.3420   24.3940   39.0400 H   0  0  0  0  0  0  0  0  0  0  0  0
   40.6360   22.0900   37.5910 H   0  0  0  0  0  0  0  0  0  0  0  0
  1 14  1  0  0  0  0
  2  1  2  0  0  0  0
  3  4  2  0  0  0  0
  3  2  1  0  0  0  0
  4  5  1  0  0  0  0
  5  1  1  0  0  0  0
  6  2  1  0  0  0  0
  7  3  1  0  0  0  0
  8  9  2  0  0  0  0
  8  4  1  0  0  0  0
  9 10  1  0  0  0  0
 11  9  1  0  0  0  0
 12 11  2  0  0  0  0
 13 12  1  0  0  0  0
 13  8  1  0  0  0  0
 14 16  1  0  0  0  0
 15 14  2  0  0  0  0
 16 21  2  0  0  0  0
 16 17  1  0  0  0  0
 17 18  2  0  0  0  0
 18 19  1  0  0  0  0
 18 23  1  0  0  0  0
 20 24  1  0  0  0  0
 20 19  2  0  0  0  0
 21 20  1  0  0  0  0
 22 17  1  0  0  0  0
M  END
>  <minimizedAffinity>
-4.71731281

$$$$

 OpenBabel03272507113D

 24 26  0  0  0  0  0  0  0  0999 V2000
   37.0440   26.4060   33.2100 C   0  0  0  0  0  0  0  0  0  0  0  0
   37.0370   27.4710   34.0530 C   0  0  0  0  0  0  0  0  0  0  0  0
   37.5440   27.0360   35.2740 C   0  0  0  0  0  0  0  0  0  0  0  0
   37.8370   25.6820   35.0860 C   0  0  0  0  0  0  0  0  0  0  0  0
   37.5200   25.3840   33.8590 O   0  0  0  0  0  0  0  0  0  0  0  0
   36.7290   28.5200   33.9460 H   0  0  0  0  0  0  0  0  0  0  0  0
   37.7150   27.5460   36.2180 H   0  0  0  0  0  0  0  0  0  0  0  0
   38.3960   24.7190   36.0430 C   0  0  0  0  0  0  0  0  0  0  0  0
   37.9730   24.4660   37.2880 C   0  0  0  0  0  0  0  0  0  0  0  0
   37.1070   25.0140   37.7000 H   0  0  0  0  0  0  0  0  0  0  0  0
   38.6050   23.5350   38.0550 C   0  0  0  0  0  3  0  0  0  0  0  0
   39.6930   22.8860   37.4580 C   0  0  0  0  0  3  0  0  0  0  0  0
   39.7530   23.6770   35.7670 S   0  0  0  0  0  0  0  0  0  0  0  0
   36.5800   26.4950   31.8390 C   0  0  0  0  0  0  0  0  0  0  0  0
   35.5880   25.8230   31.4820 O   0  0  0  0  0  0  0  0  0  0  0  0
   37.3080   27.3780   30.9410 C   0  0  0  0  0  0  0  0  0  0  0  0
   38.6950   27.2250   30.9080 C   0  0  0  0  0  0  0  0  0  0  0  0
   39.4290   28.0610   30.0530 C   0  0  0  0  0  0  0  0  0  0  0  0
   38.7310   28.9750   29.3070 N   0  0  0  0  0  0  0  0  0  0  0  0
   37.3970   29.0910   29.3690 C   0  0  0  0  0  0  0  0  0  0  0  0
   36.6960   28.2960   30.1830 N   0  0  0  0  0  0  0  0  0  0  0  0
   39.2510   26.4970   31.5030 H   0  0  0  0  0  0  0  0  0  0  0  0
   40.5100   27.9750   29.9950 H   0  0  0  0  0  0  0  0  0  0  0  0
   36.8570   29.8220   28.7690 H   0  0  0  0  0  0  0  0  0  0  0  0
  1  5  1  0  0  0  0
  1  2  2  0  0  0  0
  2  3  1  0  0  0  0
  3  7  1  0  0  0  0
  4  3  2  0  0  0  0
  4  8  1  0  0  0  0
  5  4  1  0  0  0  0
  6  2  1  0  0  0  0
  8  9  2  0  0  0  0
  9 10  1  0  0  0  0
  9 11  1  0  0  0  0
 12 11  2  0  0  0  0
 13  8  1  0  0  0  0
 13 12  1  0  0  0  0
 14  1  1  0  0  0  0
 15 14  2  0  0  0  0
 16 14  1  0  0  0  0
 17 16  1  0  0  0  0
 17 22  1  0  0  0  0
 18 17  2  0  0  0  0
 19 20  2  0  0  0  0
 19 18  1  0  0  0  0
 20 21  1  0  0  0  0
 21 16  2  0  0  0  0
 23 18  1  0  0  0  0
 24 20  1  0  0  0  0
M  END
>  <minimizedAffinity>
-4.68567944

$$$$

 OpenBabel03272507113D

 24 26  0  0  0  0  0  0  0  0999 V2000
   37.2130   25.9380   33.2530 C   0  0  0  0  0  0  0  0  0  0  0  0
   37.1120   27.0530   34.0220 C   0  0  0  0  0  0  0  0  0  0  0  0
   37.5690   26.7220   35.2950 C   0  0  0  0  0  0  0  0  0  0  0  0
   37.9320   25.3740   35.2130 C   0  0  0  0  0  0  0  0  0  0  0  0
   37.6960   24.9830   33.9930 O   0  0  0  0  0  0  0  0  0  0  0  0
   36.7650   28.0770   33.8300 H   0  0  0  0  0  0  0  0  0  0  0  0
   37.6640   27.2990   36.2110 H   0  0  0  0  0  0  0  0  0  0  0  0
   38.4780   24.5020   36.2600 C   0  0  0  0  0  0  0  0  0  0  0  0
   38.0330   24.3540   37.5150 C   0  0  0  0  0  0  0  0  0  0  0  0
   37.1560   24.9290   37.8610 H   0  0  0  0  0  0  0  0  0  0  0  0
   38.6570   23.4980   38.3700 C   0  0  0  0  0  3  0  0  0  0  0  0
   39.7590   22.8090   37.8520 C   0  0  0  0  0  3  0  0  0  0  0  0
   39.8460   23.4510   36.1000 S   0  0  0  0  0  0  0  0  0  0  0  0
   36.8230   25.9170   31.8580 C   0  0  0  0  0  0  0  0  0  0  0  0
   35.6530   26.2260   31.5420 O   0  0  0  0  0  0  0  0  0  0  0  0
   37.8330   25.5310   30.8850 C   0  0  0  0  0  0  0  0  0  0  0  0
   37.8730   24.1800   30.5330 C   0  0  0  0  0  0  0  0  0  0  0  0
   38.8360   23.7720   29.5970 C   0  0  0  0  0  0  0  0  0  0  0  0
   39.6750   24.7300   29.0920 N   0  0  0  0  0  0  0  0  0  0  0  0
   39.6040   26.0180   29.4570 C   0  0  0  0  0  0  0  0  0  0  0  0
   38.6880   26.4100   30.3480 N   0  0  0  0  0  0  0  0  0  0  0  0
   37.2040   23.4160   30.9360 H   0  0  0  0  0  0  0  0  0  0  0  0
   38.9010   22.7300   29.2950 H   0  0  0  0  0  0  0  0  0  0  0  0
   40.2780   26.7680   29.0450 H   0  0  0  0  0  0  0  0  0  0  0  0
  1  5  1  0  0  0  0
  1  2  2  0  0  0  0
  2  3  1  0  0  0  0
  3  7  1  0  0  0  0
  4  3  2  0  0  0  0
  4  8  1  0  0  0  0
  5  4  1  0  0  0  0
  6  2  1  0  0  0  0
  8  9  2  0  0  0  0
  9 10  1  0  0  0  0
  9 11  1  0  0  0  0
 12 11  2  0  0  0  0
 13  8  1  0  0  0  0
 13 12  1  0  0  0  0
 14  1  1  0  0  0  0
 15 14  2  0  0  0  0
 16 14  1  0  0  0  0
 17 16  1  0  0  0  0
 17 22  1  0  0  0  0
 18 17  2  0  0  0  0
 19 20  2  0  0  0  0
 19 18  1  0  0  0  0
 20 21  1  0  0  0  0
 21 16  2  0  0  0  0
 23 18  1  0  0  0  0
 24 20  1  0  0  0  0
M  END
>  <minimizedAffinity>
-4.6003871

$$$$

 OpenBabel03272507113D

 24 26  0  0  0  0  0  0  0  0999 V2000
   38.3810   25.4060   35.7880 C   0  0  0  0  0  0  0  0  0  0  0  0
   37.6200   24.7280   36.6870 C   0  0  0  0  0  0  0  0  0  0  0  0
   38.3740   23.6480   37.1360 C   0  0  0  0  0  0  0  0  0  0  0  0
   39.5900   23.7420   36.4530 C   0  0  0  0  0  0  0  0  0  0  0  0
   39.5230   24.7910   35.6840 O   0  0  0  0  0  0  0  0  0  0  0  0
   36.6070   24.8750   37.0840 H   0  0  0  0  0  0  0  0  0  0  0  0
   38.1630   22.8550   37.8490 H   0  0  0  0  0  0  0  0  0  0  0  0
   40.7640   22.8620   36.5360 C   0  0  0  0  0  0  0  0  0  0  0  0
   40.9430   21.8150   37.3510 C   0  0  0  0  0  0  0  0  0  0  0  0
   40.1520   21.5290   38.0670 H   0  0  0  0  0  0  0  0  0  0  0  0
   42.0980   21.0960   37.3040 C   0  0  0  0  0  3  0  0  0  0  0  0
   43.0490   21.5240   36.3690 C   0  0  0  0  0  3  0  0  0  0  0  0
   42.2020   22.9890   35.5790 S   0  0  0  0  0  0  0  0  0  0  0  0
   37.9100   26.5980   35.1110 C   0  0  0  0  0  0  0  0  0  0  0  0
   38.0770   27.7150   35.6480 O   0  0  0  0  0  0  0  0  0  0  0  0
   37.2590   26.4240   33.8220 C   0  0  0  0  0  0  0  0  0  0  0  0
   36.7060   27.5690   33.2450 C   0  0  0  0  0  0  0  0  0  0  0  0
   36.0690   27.4380   32.0010 C   0  0  0  0  0  0  0  0  0  0  0  0
   36.0330   26.1890   31.4370 N   0  0  0  0  0  0  0  0  0  0  0  0
   36.5750   25.1140   32.0250 C   0  0  0  0  0  0  0  0  0  0  0  0
   37.1820   25.2360   33.2090 N   0  0  0  0  0  0  0  0  0  0  0  0
   36.7350   28.5640   33.6950 H   0  0  0  0  0  0  0  0  0  0  0  0
   35.6270   28.3030   31.5170 H   0  0  0  0  0  0  0  0  0  0  0  0
   36.5380   24.1280   31.5630 H   0  0  0  0  0  0  0  0  0  0  0  0
  1  2  2  0  0  0  0
  2  6  1  0  0  0  0
  2  3  1  0  0  0  0
  3  7  1  0  0  0  0
  4  8  1  0  0  0  0
  4  3  2  0  0  0  0
  5  1  1  0  0  0  0
  5  4  1  0  0  0  0
  8  9  2  0  0  0  0
  9 10  1  0  0  0  0
 11  9  1  0  0  0  0
 12 11  2  0  0  0  0
 13 12  1  0  0  0  0
 13  8  1  0  0  0  0
 14 15  2  0  0  0  0
 14  1  1  0  0  0  0
 16 14  1  0  0  0  0
 17 22  1  0  0  0  0
 17 16  1  0  0  0  0
 18 17  2  0  0  0  0
 19 18  1  0  0  0  0
 19 20  2  0  0  0  0
 20 21  1  0  0  0  0
 21 16  2  0  0  0  0
 23 18  1  0  0  0  0
 24 20  1  0  0  0  0
M  END
>  <minimizedAffinity>
-4.5994916

$$$$

 OpenBabel03272507113D

 24 26  0  0  0  0  0  0  0  0999 V2000
   36.3990   24.1590   31.9080 C   0  0  0  0  0  0  0  0  0  0  0  0
   35.2500   24.1000   31.1850 C   0  0  0  0  0  0  0  0  0  0  0  0
   34.9380   25.3980   30.7940 C   0  0  0  0  0  0  0  0  0  0  0  0
   35.9570   26.1940   31.3270 C   0  0  0  0  0  0  0  0  0  0  0  0
   36.7730   25.4040   31.9640 O   0  0  0  0  0  0  0  0  0  0  0  0
   34.5870   23.2780   30.8830 H   0  0  0  0  0  0  0  0  0  0  0  0
   34.1190   25.8100   30.2120 H   0  0  0  0  0  0  0  0  0  0  0  0
   36.1370   27.6490   31.2280 C   0  0  0  0  0  0  0  0  0  0  0  0
   36.7900   28.3280   30.2760 C   0  0  0  0  0  0  0  0  0  0  0  0
   37.2710   27.7870   29.4420 H   0  0  0  0  0  0  0  0  0  0  0  0
   36.8670   29.6860   30.3300 C   0  0  0  0  0  3  0  0  0  0  0  0
   36.2320   30.2940   31.4190 C   0  0  0  0  0  3  0  0  0  0  0  0
   35.5320   28.8290   32.3430 S   0  0  0  0  0  0  0  0  0  0  0  0
   37.0220   22.9820   32.4780 C   0  0  0  0  0  0  0  0  0  0  0  0
   37.9220   23.1170   33.3360 O   0  0  0  0  0  0  0  0  0  0  0  0
   36.5550   21.6850   32.0130 C   0  0  0  0  0  0  0  0  0  0  0  0
   35.6140   21.0380   32.8170 C   0  0  0  0  0  0  0  0  0  0  0  0
   35.1430   19.7840   32.3980 C   0  0  0  0  0  0  0  0  0  0  0  0
   35.6400   19.2790   31.2250 N   0  0  0  0  0  0  0  0  0  0  0  0
   36.5450   19.9320   30.4820 C   0  0  0  0  0  0  0  0  0  0  0  0
   36.9950   21.1270   30.8790 N   0  0  0  0  0  0  0  0  0  0  0  0
   35.2190   21.4400   33.7520 H   0  0  0  0  0  0  0  0  0  0  0  0
   34.4100   19.2460   32.9930 H   0  0  0  0  0  0  0  0  0  0  0  0
   36.9290   19.5170   29.5520 H   0  0  0  0  0  0  0  0  0  0  0  0
  1  5  1  0  0  0  0
  1 14  1  0  0  0  0
  2  1  2  0  0  0  0
  3  2  1  0  0  0  0
  3  4  2  0  0  0  0
  4  5  1  0  0  0  0
  6  2  1  0  0  0  0
  7  3  1  0  0  0  0
  8  4  1  0  0  0  0
  8 13  1  0  0  0  0
  9 11  1  0  0  0  0
  9  8  2  0  0  0  0
 10  9  1  0  0  0  0
 11 12  2  0  0  0  0
 12 13  1  0  0  0  0
 14 15  2  0  0  0  0
 16 14  1  0  0  0  0
 16 17  1  0  0  0  0
 17 22  1  0  0  0  0
 18 17  2  0  0  0  0
 18 23  1  0  0  0  0
 19 18  1  0  0  0  0
 20 21  1  0  0  0  0
 20 19  2  0  0  0  0
 21 16  2  0  0  0  0
 24 20  1  0  0  0  0
M  END
>  <minimizedAffinity>
-4.57078695

$$$$
