
 OpenBabel03272509383D

 27 29  0  0  1  0  0  0  0  0999 V2000
   36.0440   29.5730   48.9500 C   0  0  0  0  0  0  0  0  0  0  0  0
   36.1130   29.4590   50.3610 C   0  0  0  0  0  0  0  0  0  0  0  0
   37.1010   30.1530   51.0790 C   0  0  0  0  0  0  0  0  0  0  0  0
   38.0080   30.9490   50.4120 C   0  0  0  0  0  0  0  0  0  0  0  0
   37.8970   31.0220   49.0520 C   0  0  0  0  0  0  0  0  0  0  0  0
   36.9370   30.3510   48.2990 C   0  0  0  0  0  0  0  0  0  0  0  0
   35.3760   28.8220   50.8290 H   0  0  0  0  0  0  0  0  0  0  0  0
   37.0140   29.9640   52.1230 H   0  0  0  0  0  0  0  0  0  0  0  0
   38.7340   31.4510   51.0300 H   0  0  0  0  0  0  0  0  0  0  0  0
   38.6830   31.6930   48.6610 H   0  0  0  0  0  0  0  0  0  0  0  0
   37.0760   30.6760   46.9070 C   0  0  0  0  0  0  0  0  0  0  0  0
   37.8910   31.8990   46.6260 C   0  0  0  0  0  0  0  0  0  0  0  0
   38.3090   32.6140   47.3640 H   0  0  0  0  0  0  0  0  0  0  0  0
   38.2350   32.2930   45.3920 C   0  0  0  0  0  3  0  0  0  0  0  0
   37.7590   31.4510   44.3600 C   0  0  0  0  0  3  0  0  0  0  0  0
   36.8970   30.2130   45.1500 S   0  0  0  0  0  0  0  0  0  0  0  0
   34.9950   28.8150   48.2690 C   0  0  1  0  0  3  0  0  0  0  0  0
   34.7950   27.6320   48.7630 O   0  0  0  0  0  1  0  0  0  0  0  0
   32.8970   31.0720   46.3620 C   0  0  0  0  0  0  0  0  0  0  0  0
   32.6940   30.4120   45.1610 C   0  0  0  0  0  0  0  0  0  0  0  0
   33.2820   29.1550   44.9920 C   0  0  0  0  0  0  0  0  0  0  0  0
   34.0400   28.6070   46.0070 N   0  0  0  0  0  0  0  0  0  0  0  0
   34.2060   29.2810   47.1400 C   0  0  0  0  0  0  0  0  0  0  0  0
   33.6340   30.4990   47.3030 N   0  0  0  0  0  0  0  0  0  0  0  0
   32.4080   32.0340   46.4080 H   0  0  0  0  0  0  0  0  0  0  0  0
   32.1350   30.7270   44.3100 H   0  0  0  0  0  0  0  0  0  0  0  0
   33.1720   28.5660   44.0770 H   0  0  0  0  0  0  0  0  0  0  0  0
  1  2  1  0  0  0  0
  2  7  1  0  0  0  0
  2  3  2  0  0  0  0
  3  8  1  0  0  0  0
  4  9  1  0  0  0  0
  4  3  1  0  0  0  0
  5  4  2  0  0  0  0
  6  1  2  0  0  0  0
  6  5  1  0  0  0  0
 10  5  1  0  0  0  0
 11  6  1  0  0  0  0
 12 11  2  0  0  0  0
 12 13  1  0  0  0  0
 14 12  1  0  0  0  0
 15 16  1  0  0  0  0
 15 14  2  0  0  0  0
 16 11  1  0  0  0  0
 17 18  1  1  0  0  0
 17  1  1  0  0  0  0
 19 25  1  0  0  0  0
 19 24  1  0  0  0  0
 20 19  2  0  0  0  0
 21 20  1  0  0  0  0
 21 22  2  0  0  0  0
 22 23  1  0  0  0  0
 23 24  2  0  0  0  0
 23 17  1  0  0  0  0
 26 20  1  0  0  0  0
 27 21  1  0  0  0  0
M  END
>  <minimizedAffinity>
-5.06123638

>  <minimizedRMSD>
0.623922229

$$$$
