
 OpenBabel03272506303D

 31 33  0  0  1  0  0  0  0  0999 V2000
   33.7870   28.9960   48.1630 C   0  0  1  0  0  0  0  0  0  0  0  0
   33.3990   29.4860   46.8430 C   0  0  0  0  0  0  0  0  0  0  0  0
   33.6800   28.6090   45.6720 C   0  0  0  0  0  0  0  0  0  0  0  0
   33.5900   27.1500   45.8940 C   0  0  0  0  0  0  0  0  0  0  0  0
   33.9600   26.6520   47.2320 C   0  0  0  0  0  0  0  0  0  0  0  0
   33.5380   27.5270   48.3550 C   0  0  2  0  0  0  0  0  0  0  0  0
   33.1200   29.4860   48.9410 H   0  0  0  0  0  0  0  0  0  0  0  0
   33.7110   30.4930   46.5670 H   0  0  0  0  0  0  0  0  0  0  0  0
   32.2660   29.5680   46.8630 H   0  0  0  0  0  0  0  0  0  0  0  0
   34.7120   28.8830   45.3130 H   0  0  0  0  0  0  0  0  0  0  0  0
   33.0060   28.8970   44.8370 H   0  0  0  0  0  0  0  0  0  0  0  0
   32.5810   26.7940   45.6110 H   0  0  0  0  0  0  0  0  0  0  0  0
   34.3040   26.6700   45.1560 H   0  0  0  0  0  0  0  0  0  0  0  0
   33.4490   25.6640   47.3840 H   0  0  0  0  0  0  0  0  0  0  0  0
   35.0710   26.4950   47.2700 H   0  0  0  0  0  0  0  0  0  0  0  0
   33.8350   27.1490   49.3280 H   0  0  0  0  0  0  0  0  0  0  0  0
   35.8900   30.4110   47.9860 C   0  0  0  0  0  0  0  0  0  0  0  0
   35.1360   29.4000   48.6300 C   0  0  0  0  0  0  0  0  0  0  0  0
   35.7380   28.8180   49.7280 C   0  0  0  0  0  0  0  0  0  0  0  0
   36.9740   29.2190   50.1300 N   0  0  0  0  0  0  0  0  0  0  0  0
   37.6500   30.1900   49.4800 C   0  0  0  0  0  0  0  0  0  0  0  0
   37.0950   30.7820   48.4040 N   0  0  0  0  0  0  0  0  0  0  0  0
   35.5400   30.9470   47.1200 H   0  0  0  0  0  0  0  0  0  0  0  0
   35.3190   28.0400   50.3410 H   0  0  0  0  0  0  0  0  0  0  0  0
   38.6270   30.4520   49.8620 H   0  0  0  0  0  0  0  0  0  0  0  0
   31.9960   27.3770   48.4100 C   0  0  0  0  0  0  0  0  0  0  0  0
   31.2440   27.9620   49.2820 C   0  0  0  0  0  0  0  0  0  0  0  0
   31.5100   28.6480   50.1080 H   0  0  0  0  0  0  0  0  0  0  0  0
   29.8820   27.8090   49.3160 C   0  0  0  0  0  3  0  0  0  0  0  0
   29.3580   27.0000   48.3760 C   0  0  0  0  0  3  0  0  0  0  0  0
   30.8900   26.4590   47.4280 S   0  0  0  0  0  0  0  0  0  0  0  0
  1  6  1  0  0  0  0
  1 18  1  0  0  0  0
  1  7  1  1  0  0  0
  2  9  1  0  0  0  0
  2  1  1  0  0  0  0
  3  4  1  0  0  0  0
  3  2  1  0  0  0  0
  4  5  1  0  0  0  0
  5 15  1  0  0  0  0
  5 14  1  0  0  0  0
  5  6  1  0  0  0  0
  6 26  1  0  0  0  0
  6 16  1  1  0  0  0
  8  2  1  0  0  0  0
 10  3  1  0  0  0  0
 11  3  1  0  0  0  0
 12  4  1  0  0  0  0
 13  4  1  0  0  0  0
 17 22  2  0  0  0  0
 17 18  1  0  0  0  0
 18 19  2  0  0  0  0
 19 20  1  0  0  0  0
 19 24  1  0  0  0  0
 21 25  1  0  0  0  0
 21 20  2  0  0  0  0
 22 21  1  0  0  0  0
 23 17  1  0  0  0  0
 26 27  2  0  0  0  0
 27 29  1  0  0  0  0
 27 28  1  0  0  0  0
 30 29  2  0  0  0  0
 31 30  1  0  0  0  0
 31 26  1  0  0  0  0
M  END
>  <minimizedAffinity>
-4.61450386

>  <minimizedRMSD>
1.80198383

$$$$
