
 OpenBabel03272506173D

 31 33  0  0  0  0  0  0  0  0999 V2000
   35.5330   30.3120   49.8070 C   0  0  0  0  0  0  0  0  0  0  0  0
   36.4600   31.2150   49.0270 C   0  0  0  0  0  0  0  0  0  0  0  0
   37.9040   30.8460   49.1920 C   0  0  0  0  0  0  0  0  0  0  0  0
   38.3510   30.7570   50.6240 C   0  0  0  0  0  0  0  0  0  0  0  0
   37.3380   30.1170   51.5250 C   0  0  0  0  0  0  0  0  0  0  0  0
   36.2420   29.4060   50.7550 C   0  0  0  0  0  0  0  0  0  0  0  0
   34.7940   30.9260   50.3590 H   0  0  0  0  0  0  0  0  0  0  0  0
   36.2340   31.2140   47.9540 H   0  0  0  0  0  0  0  0  0  0  0  0
   36.3640   32.2560   49.4420 H   0  0  0  0  0  0  0  0  0  0  0  0
   38.5040   31.6220   48.6940 H   0  0  0  0  0  0  0  0  0  0  0  0
   38.0740   29.8790   48.6730 H   0  0  0  0  0  0  0  0  0  0  0  0
   39.2650   30.1010   50.6370 H   0  0  0  0  0  0  0  0  0  0  0  0
   38.7030   31.7200   51.0350 H   0  0  0  0  0  0  0  0  0  0  0  0
   37.7950   29.3540   52.1850 H   0  0  0  0  0  0  0  0  0  0  0  0
   36.9140   30.8990   52.1590 H   0  0  0  0  0  0  0  0  0  0  0  0
   36.7620   28.6260   50.1470 H   0  0  0  0  0  0  0  0  0  0  0  0
   35.5650   28.9650   51.4830 H   0  0  0  0  0  0  0  0  0  0  0  0
   34.7490   29.4530   48.8660 C   0  0  0  0  0  0  0  0  0  0  0  0
   34.1000   30.1330   47.8180 C   0  0  0  0  0  0  0  0  0  0  0  0
   33.3490   29.3290   46.9370 C   0  0  0  0  0  0  0  0  0  0  0  0
   33.2850   27.9830   47.1270 N   0  0  0  0  0  0  0  0  0  0  0  0
   33.9340   27.3830   48.1580 C   0  0  0  0  0  0  0  0  0  0  0  0
   34.6540   28.1090   49.0120 N   0  0  0  0  0  0  0  0  0  0  0  0
   34.1130   31.1760   47.6210 H   0  0  0  0  0  0  0  0  0  0  0  0
   33.8820   26.3310   48.3030 H   0  0  0  0  0  0  0  0  0  0  0  0
   32.6550   29.9030   45.8490 C   0  0  0  0  0  0  0  0  0  0  0  0
   31.3130   30.1900   45.7160 C   0  0  0  0  0  0  0  0  0  0  0  0
   30.6500   29.9620   46.5410 H   0  0  0  0  0  0  0  0  0  0  0  0
   30.8570   30.7510   44.5600 C   0  0  0  0  0  3  0  0  0  0  0  0
   31.8290   31.0000   43.5560 C   0  0  0  0  0  3  0  0  0  0  0  0
   33.3760   30.4150   44.3170 S   0  0  0  0  0  0  0  0  0  0  0  0
  1  7  1  0  0  0  0
  1  6  1  0  0  0  0
  2  3  1  0  0  0  0
  2  9  1  0  0  0  0
  2  1  1  0  0  0  0
  3  4  1  0  0  0  0
  4 12  1  0  0  0  0
  4 13  1  0  0  0  0
  4  5  1  0  0  0  0
  5 15  1  0  0  0  0
  5 14  1  0  0  0  0
  6 17  1  0  0  0  0
  6  5  1  0  0  0  0
  8  2  1  0  0  0  0
 10  3  1  0  0  0  0
 11  3  1  0  0  0  0
 16  6  1  0  0  0  0
 18 23  1  0  0  0  0
 18  1  1  0  0  0  0
 19 18  2  0  0  0  0
 20 21  2  0  0  0  0
 20 19  1  0  0  0  0
 21 22  1  0  0  0  0
 22 25  1  0  0  0  0
 22 23  2  0  0  0  0
 24 19  1  0  0  0  0
 26 20  1  0  0  0  0
 27 26  2  0  0  0  0
 27 28  1  0  0  0  0
 29 27  1  0  0  0  0
 30 31  1  0  0  0  0
 30 29  2  0  0  0  0
 31 26  1  0  0  0  0
M  END
>  <minimizedAffinity>
-5.15259361

>  <minimizedRMSD>
0.321816295

$$$$
