
 OpenBabel03272507203D

 27 29  0  0  1  0  0  0  0  0999 V2000
   37.0470   31.3740   49.2500 C   0  0  0  0  0  0  0  0  0  0  0  0
   37.3400   32.5270   49.9690 C   0  0  0  0  0  0  0  0  0  0  0  0
   38.2510   33.3880   49.3650 C   0  0  0  0  0  0  0  0  0  0  0  0
   38.8020   33.0980   48.1540 N   0  0  0  0  0  0  0  0  0  0  0  0
   38.4880   31.9600   47.4820 C   0  0  0  0  0  0  0  0  0  0  0  0
   37.6010   31.0870   48.0360 N   0  0  0  0  0  0  0  0  0  0  0  0
   36.9050   32.7470   50.9140 H   0  0  0  0  0  0  0  0  0  0  0  0
   38.5540   34.3170   49.8340 H   0  0  0  0  0  0  0  0  0  0  0  0
   36.0620   30.4330   49.8670 C   0  0  1  0  0  0  0  0  0  0  0  0
   34.9110   29.9240   49.1230 C   0  0  2  0  0  0  0  0  0  0  0  0
   36.1170   29.0370   49.2080 C   0  0  0  0  0  0  0  0  0  0  0  0
   36.1430   30.4020   50.9890 H   0  0  0  0  0  0  0  0  0  0  0  0
   34.0090   29.7680   49.7700 H   0  0  0  0  0  0  0  0  0  0  0  0
   35.9750   28.1680   49.9090 H   0  0  0  0  0  0  0  0  0  0  0  0
   36.7550   28.8800   48.3380 H   0  0  0  0  0  0  0  0  0  0  0  0
   34.6140   30.5430   47.9170 O   0  0  0  0  0  0  0  0  0  0  0  0
   33.8910   30.0940   46.8630 C   0  0  0  0  0  0  0  0  0  0  0  0
   34.1390   29.0130   46.2910 O   0  0  0  0  0  0  0  0  0  0  0  0
   32.8940   31.0320   46.5880 N   0  0  0  0  0  0  0  0  0  0  0  0
   33.1060   31.8240   45.9730 H   0  0  0  0  0  0  0  0  0  0  0  0
   32.0630   30.6700   47.1350 H   0  0  0  0  0  0  0  0  0  0  0  0
   39.1330   31.7790   46.2270 C   0  0  0  0  0  0  0  0  0  0  0  0
   40.2830   31.1870   45.8290 C   0  0  0  0  0  0  0  0  0  0  0  0
   40.8700   30.7330   46.6440 H   0  0  0  0  0  0  0  0  0  0  0  0
   40.6660   31.1630   44.5290 C   0  0  0  0  0  0  0  0  0  0  0  0
   39.8140   31.7790   43.6300 C   0  0  0  0  0  0  0  0  0  0  0  0
   38.4280   32.3950   44.7710 S   0  0  0  0  0  0  0  0  0  0  0  0
  1  9  1  0  0  0  0
  1  2  1  0  0  0  0
  2  7  1  0  0  0  0
  3  8  1  0  0  0  0
  3  2  2  0  0  0  0
  4  3  1  0  0  0  0
  5  6  1  0  0  0  0
  5  4  2  0  0  0  0
  6  1  2  0  0  0  0
  9 12  1  1  0  0  0
 10 11  1  0  0  0  0
 10 13  1  1  0  0  0
 10  9  1  0  0  0  0
 11  9  1  0  0  0  0
 11 14  1  0  0  0  0
 15 11  1  0  0  0  0
 16 10  1  0  0  0  0
 17 16  1  0  0  0  0
 18 17  2  0  0  0  0
 19 17  1  0  0  0  0
 19 21  1  0  0  0  0
 20 19  1  0  0  0  0
 22  5  1  0  0  0  0
 23 22  2  0  0  0  0
 23 24  1  0  0  0  0
 25 23  1  0  0  0  0
 26 25  2  0  0  0  0
 26 27  1  0  0  0  0
 27 22  1  0  0  0  0
M  END
>  <minimizedAffinity>
-5.8306694

>  <minimizedRMSD>
2.62473607

$$$$
