
 OpenBabel03272500563D

 32 34  0  0  0  0  0  0  0  0999 V2000
   38.1570   31.8940   47.4210 C   0  0  0  0  0  0  0  0  0  0  0  0
   38.6630   32.7940   48.3130 C   0  0  0  0  0  0  0  0  0  0  0  0
   38.2010   32.8830   49.6320 C   0  0  0  0  0  0  0  0  0  0  0  0
   37.1460   31.9650   50.0220 C   0  0  0  0  0  0  0  0  0  0  0  0
   36.6860   31.0970   49.0930 C   0  0  0  0  0  0  0  0  0  0  0  0
   37.1370   31.0220   47.8270 C   0  0  0  0  0  0  0  0  0  0  0  0
   39.4630   33.4980   48.0390 H   0  0  0  0  0  0  0  0  0  0  0  0
   38.6450   33.6200   50.2880 H   0  0  0  0  0  0  0  0  0  0  0  0
   36.8980   32.1480   51.0440 H   0  0  0  0  0  0  0  0  0  0  0  0
   35.9430   30.5110   49.6090 H   0  0  0  0  0  0  0  0  0  0  0  0
   40.0000   31.2520   45.9450 C   0  0  0  0  0  0  0  0  0  0  0  0
   38.7510   31.9120   46.1030 C   0  0  0  0  0  0  0  0  0  0  0  0
   38.2550   32.4870   44.9600 C   0  0  0  0  0  0  0  0  0  0  0  0
   38.9330   32.4100   43.7960 N   0  0  0  0  0  0  0  0  0  0  0  0
   40.0830   31.7950   43.6740 C   0  0  0  0  0  0  0  0  0  0  0  0
   40.6170   31.2170   44.7470 N   0  0  0  0  0  0  0  0  0  0  0  0
   40.4540   30.7710   46.8220 H   0  0  0  0  0  0  0  0  0  0  0  0
   37.2950   32.9820   45.1340 H   0  0  0  0  0  0  0  0  0  0  0  0
   40.5340   31.7980   42.6880 H   0  0  0  0  0  0  0  0  0  0  0  0
   35.1650   30.0030   47.0470 C   0  0  0  0  0  0  0  0  0  0  0  0
   34.5630   30.6730   47.9780 O   0  0  0  0  0  0  0  0  0  0  0  0
   36.6070   30.1300   46.9250 N   0  0  0  0  0  0  0  0  0  0  0  0
   37.1610   29.5930   46.2250 H   0  0  0  0  0  0  0  0  0  0  0  0
   34.4280   29.2010   46.2160 O   0  0  0  0  0  0  0  0  0  0  0  0
   33.0490   29.2810   46.0600 C   0  0  0  0  0  0  0  0  0  0  0  0
   32.4950   29.9870   45.0990 O   0  0  0  0  0  0  0  0  0  0  0  0
   32.0700   28.5860   46.9150 C   0  0  0  0  0  0  0  0  0  0  0  0
   32.2440   27.8320   48.0000 C   0  0  0  0  0  0  0  0  0  0  0  0
   33.2510   27.6700   48.3580 H   0  0  0  0  0  0  0  0  0  0  0  0
   31.1690   27.2780   48.6440 C   0  0  0  0  0  3  0  0  0  0  0  0
   29.8930   27.5770   48.0590 C   0  0  0  0  0  3  0  0  0  0  0  0
   30.3820   28.6680   46.5830 S   0  0  0  0  0  0  0  0  0  0  0  0
  1  6  2  0  0  0  0
  1  2  1  0  0  0  0
  2  3  2  0  0  0  0
  3  4  1  0  0  0  0
  3  8  1  0  0  0  0
  4  9  1  0  0  0  0
  5 10  1  0  0  0  0
  5  4  2  0  0  0  0
  6  5  1  0  0  0  0
  7  2  1  0  0  0  0
 11 12  1  0  0  0  0
 11 17  1  0  0  0  0
 12  1  1  0  0  0  0
 13 18  1  0  0  0  0
 13 12  2  0  0  0  0
 14 13  1  0  0  0  0
 15 14  2  0  0  0  0
 15 16  1  0  0  0  0
 16 11  2  0  0  0  0
 19 15  1  0  0  0  0
 20 21  2  0  0  0  0
 22 20  1  0  0  0  0
 22  6  1  0  0  0  0
 23 22  1  0  0  0  0
 24 20  1  0  0  0  0
 25 24  1  0  0  0  0
 25 27  1  0  0  0  0
 26 25  2  0  0  0  0
 27 28  2  0  0  0  0
 28 29  1  0  0  0  0
 28 30  1  0  0  0  0
 31 30  2  0  0  0  0
 32 27  1  0  0  0  0
 32 31  1  0  0  0  0
M  END
>  <minimizedAffinity>
-5.730021

>  <minimizedRMSD>
1.36340559

$$$$
