
 OpenBabel03272500563D

 32 34  0  0  0  0  0  0  0  0999 V2000
   38.2350   31.9230   47.3980 C   0  0  0  0  0  0  0  0  0  0  0  0
   38.8320   32.7650   48.2900 C   0  0  0  0  0  0  0  0  0  0  0  0
   38.4160   32.8610   49.6230 C   0  0  0  0  0  0  0  0  0  0  0  0
   37.3090   32.0140   50.0290 C   0  0  0  0  0  0  0  0  0  0  0  0
   36.7590   31.2010   49.0990 C   0  0  0  0  0  0  0  0  0  0  0  0
   37.1660   31.1190   47.8180 C   0  0  0  0  0  0  0  0  0  0  0  0
   39.6740   33.4140   48.0050 H   0  0  0  0  0  0  0  0  0  0  0  0
   38.9330   33.5500   50.2800 H   0  0  0  0  0  0  0  0  0  0  0  0
   37.1050   32.1930   51.0620 H   0  0  0  0  0  0  0  0  0  0  0  0
   35.9910   30.6600   49.6270 H   0  0  0  0  0  0  0  0  0  0  0  0
   40.0270   31.2490   45.8730 C   0  0  0  0  0  0  0  0  0  0  0  0
   38.7910   31.9240   46.0630 C   0  0  0  0  0  0  0  0  0  0  0  0
   38.2680   32.4960   44.9300 C   0  0  0  0  0  0  0  0  0  0  0  0
   38.9100   32.4020   43.7480 N   0  0  0  0  0  0  0  0  0  0  0  0
   40.0490   31.7740   43.5960 C   0  0  0  0  0  0  0  0  0  0  0  0
   40.6080   31.1970   44.6580 N   0  0  0  0  0  0  0  0  0  0  0  0
   40.5010   30.7680   46.7400 H   0  0  0  0  0  0  0  0  0  0  0  0
   37.3190   33.0030   45.1280 H   0  0  0  0  0  0  0  0  0  0  0  0
   40.4710   31.7640   42.5980 H   0  0  0  0  0  0  0  0  0  0  0  0
   35.1400   30.0860   47.2190 C   0  0  0  0  0  0  0  0  0  0  0  0
   34.6510   30.6440   48.2800 O   0  0  0  0  0  0  0  0  0  0  0  0
   36.5470   30.2870   46.9180 N   0  0  0  0  0  0  0  0  0  0  0  0
   37.0160   29.8380   46.1030 H   0  0  0  0  0  0  0  0  0  0  0  0
   34.3220   29.3270   46.4230 O   0  0  0  0  0  0  0  0  0  0  0  0
   32.9340   29.4090   46.4140 C   0  0  0  0  0  0  0  0  0  0  0  0
   32.2990   30.4150   45.8540 O   0  0  0  0  0  0  0  0  0  0  0  0
   32.0340   28.3950   46.9910 C   0  0  0  0  0  0  0  0  0  0  0  0
   32.0870   27.7460   48.1540 C   0  0  0  0  0  0  0  0  0  0  0  0
   32.9060   27.9600   48.8240 H   0  0  0  0  0  0  0  0  0  0  0  0
   31.1240   26.8310   48.4860 C   0  0  0  0  0  3  0  0  0  0  0  0
   30.0960   26.6490   47.5000 C   0  0  0  0  0  3  0  0  0  0  0  0
   30.6360   27.8580   46.1400 S   0  0  0  0  0  0  0  0  0  0  0  0
  1  6  2  0  0  0  0
  1  2  1  0  0  0  0
  2  3  2  0  0  0  0
  3  4  1  0  0  0  0
  3  8  1  0  0  0  0
  4  9  1  0  0  0  0
  5 10  1  0  0  0  0
  5  4  2  0  0  0  0
  6  5  1  0  0  0  0
  7  2  1  0  0  0  0
 11 12  1  0  0  0  0
 11 17  1  0  0  0  0
 12  1  1  0  0  0  0
 13 18  1  0  0  0  0
 13 12  2  0  0  0  0
 14 13  1  0  0  0  0
 15 14  2  0  0  0  0
 15 16  1  0  0  0  0
 16 11  2  0  0  0  0
 19 15  1  0  0  0  0
 20 21  2  0  0  0  0
 22 20  1  0  0  0  0
 22  6  1  0  0  0  0
 23 22  1  0  0  0  0
 24 20  1  0  0  0  0
 25 24  1  0  0  0  0
 25 27  1  0  0  0  0
 26 25  2  0  0  0  0
 27 28  2  0  0  0  0
 28 30  1  0  0  0  0
 28 29  1  0  0  0  0
 31 30  2  0  0  0  0
 32 27  1  0  0  0  0
 32 31  1  0  0  0  0
M  END
>  <minimizedAffinity>
-5.85584021

>  <minimizedRMSD>
1.37200916

$$$$
