
 OpenBabel03272500563D

 32 34  0  0  0  0  0  0  0  0999 V2000
   38.2250   31.9130   47.3970 C   0  0  0  0  0  0  0  0  0  0  0  0
   38.8120   32.7660   48.2850 C   0  0  0  0  0  0  0  0  0  0  0  0
   38.3960   32.8630   49.6190 C   0  0  0  0  0  0  0  0  0  0  0  0
   37.2990   32.0050   50.0290 C   0  0  0  0  0  0  0  0  0  0  0  0
   36.7590   31.1810   49.1020 C   0  0  0  0  0  0  0  0  0  0  0  0
   37.1660   31.0980   47.8210 C   0  0  0  0  0  0  0  0  0  0  0  0
   39.6460   33.4240   47.9970 H   0  0  0  0  0  0  0  0  0  0  0  0
   38.9040   33.5600   50.2720 H   0  0  0  0  0  0  0  0  0  0  0  0
   37.0940   32.1850   51.0610 H   0  0  0  0  0  0  0  0  0  0  0  0
   35.9970   30.6330   49.6320 H   0  0  0  0  0  0  0  0  0  0  0  0
   40.0180   31.2430   45.8710 C   0  0  0  0  0  0  0  0  0  0  0  0
   38.7800   31.9160   46.0620 C   0  0  0  0  0  0  0  0  0  0  0  0
   38.2560   32.4880   44.9290 C   0  0  0  0  0  0  0  0  0  0  0  0
   38.8970   32.3950   43.7470 N   0  0  0  0  0  0  0  0  0  0  0  0
   40.0380   31.7690   43.5940 C   0  0  0  0  0  0  0  0  0  0  0  0
   40.5980   31.1930   44.6560 N   0  0  0  0  0  0  0  0  0  0  0  0
   40.4930   30.7630   46.7380 H   0  0  0  0  0  0  0  0  0  0  0  0
   37.3060   32.9930   45.1280 H   0  0  0  0  0  0  0  0  0  0  0  0
   40.4590   31.7600   42.5960 H   0  0  0  0  0  0  0  0  0  0  0  0
   35.1430   30.0690   47.2050 C   0  0  0  0  0  0  0  0  0  0  0  0
   34.6400   30.6490   48.2480 O   0  0  0  0  0  0  0  0  0  0  0  0
   36.5560   30.2550   46.9250 N   0  0  0  0  0  0  0  0  0  0  0  0
   37.0370   29.7890   46.1250 H   0  0  0  0  0  0  0  0  0  0  0  0
   34.3330   29.3030   46.4090 O   0  0  0  0  0  0  0  0  0  0  0  0
   32.9480   29.4110   46.3550 C   0  0  0  0  0  0  0  0  0  0  0  0
   32.3480   30.3390   45.6440 O   0  0  0  0  0  0  0  0  0  0  0  0
   32.0130   28.5080   47.0500 C   0  0  0  0  0  0  0  0  0  0  0  0
   32.2010   27.6880   48.0830 C   0  0  0  0  0  0  0  0  0  0  0  0
   33.1860   27.6370   48.5260 H   0  0  0  0  0  0  0  0  0  0  0  0
   31.1680   26.9310   48.5710 C   0  0  0  0  0  3  0  0  0  0  0  0
   29.9190   27.1020   47.8850 C   0  0  0  0  0  3  0  0  0  0  0  0
   30.3670   28.3820   46.5570 S   0  0  0  0  0  0  0  0  0  0  0  0
  1  6  2  0  0  0  0
  1  2  1  0  0  0  0
  2  3  2  0  0  0  0
  3  4  1  0  0  0  0
  3  8  1  0  0  0  0
  4  9  1  0  0  0  0
  5 10  1  0  0  0  0
  5  4  2  0  0  0  0
  6  5  1  0  0  0  0
  7  2  1  0  0  0  0
 11 12  1  0  0  0  0
 11 17  1  0  0  0  0
 12  1  1  0  0  0  0
 13 18  1  0  0  0  0
 13 12  2  0  0  0  0
 14 13  1  0  0  0  0
 15 14  2  0  0  0  0
 15 16  1  0  0  0  0
 16 11  2  0  0  0  0
 19 15  1  0  0  0  0
 20 21  2  0  0  0  0
 22 20  1  0  0  0  0
 22  6  1  0  0  0  0
 23 22  1  0  0  0  0
 24 20  1  0  0  0  0
 25 24  1  0  0  0  0
 25 27  1  0  0  0  0
 26 25  2  0  0  0  0
 27 28  2  0  0  0  0
 28 29  1  0  0  0  0
 28 30  1  0  0  0  0
 31 30  2  0  0  0  0
 32 27  1  0  0  0  0
 32 31  1  0  0  0  0
M  END
>  <minimizedAffinity>
-5.84220552

>  <minimizedRMSD>
1.39907467

$$$$
