
 OpenBabel03272500563D

 32 34  0  0  0  0  0  0  0  0999 V2000
   38.2230   31.9120   47.3970 C   0  0  0  0  0  0  0  0  0  0  0  0
   38.8100   32.7640   48.2870 C   0  0  0  0  0  0  0  0  0  0  0  0
   38.3920   32.8600   49.6200 C   0  0  0  0  0  0  0  0  0  0  0  0
   37.2950   32.0020   50.0280 C   0  0  0  0  0  0  0  0  0  0  0  0
   36.7550   31.1790   49.1000 C   0  0  0  0  0  0  0  0  0  0  0  0
   37.1640   31.0970   47.8200 C   0  0  0  0  0  0  0  0  0  0  0  0
   39.6440   33.4230   48.0000 H   0  0  0  0  0  0  0  0  0  0  0  0
   38.9000   33.5570   50.2740 H   0  0  0  0  0  0  0  0  0  0  0  0
   37.0890   32.1820   51.0600 H   0  0  0  0  0  0  0  0  0  0  0  0
   35.9930   30.6310   49.6300 H   0  0  0  0  0  0  0  0  0  0  0  0
   40.0170   31.2430   45.8730 C   0  0  0  0  0  0  0  0  0  0  0  0
   38.7790   31.9160   46.0630 C   0  0  0  0  0  0  0  0  0  0  0  0
   38.2560   32.4880   44.9300 C   0  0  0  0  0  0  0  0  0  0  0  0
   38.8980   32.3960   43.7480 N   0  0  0  0  0  0  0  0  0  0  0  0
   40.0390   31.7700   43.5960 C   0  0  0  0  0  0  0  0  0  0  0  0
   40.5980   31.1940   44.6580 N   0  0  0  0  0  0  0  0  0  0  0  0
   40.4920   30.7630   46.7400 H   0  0  0  0  0  0  0  0  0  0  0  0
   37.3050   32.9930   45.1280 H   0  0  0  0  0  0  0  0  0  0  0  0
   40.4610   31.7620   42.5980 H   0  0  0  0  0  0  0  0  0  0  0  0
   35.1410   30.0670   47.2020 C   0  0  0  0  0  0  0  0  0  0  0  0
   34.6380   30.6450   48.2470 O   0  0  0  0  0  0  0  0  0  0  0  0
   36.5540   30.2550   46.9220 N   0  0  0  0  0  0  0  0  0  0  0  0
   37.0350   29.7910   46.1220 H   0  0  0  0  0  0  0  0  0  0  0  0
   34.3320   29.3020   46.4050 O   0  0  0  0  0  0  0  0  0  0  0  0
   32.9460   29.4020   46.3580 C   0  0  0  0  0  0  0  0  0  0  0  0
   32.3390   30.3630   45.6970 O   0  0  0  0  0  0  0  0  0  0  0  0
   32.0180   28.4590   47.0060 C   0  0  0  0  0  0  0  0  0  0  0  0
   32.1240   27.7810   48.1480 C   0  0  0  0  0  0  0  0  0  0  0  0
   33.0200   27.9060   48.7390 H   0  0  0  0  0  0  0  0  0  0  0  0
   31.1180   26.9470   48.5590 C   0  0  0  0  0  3  0  0  0  0  0  0
   29.9890   26.8780   47.6750 C   0  0  0  0  0  3  0  0  0  0  0  0
   30.5030   28.0660   46.2870 S   0  0  0  0  0  0  0  0  0  0  0  0
  1  6  2  0  0  0  0
  1  2  1  0  0  0  0
  2  3  2  0  0  0  0
  3  4  1  0  0  0  0
  3  8  1  0  0  0  0
  4  9  1  0  0  0  0
  5 10  1  0  0  0  0
  5  4  2  0  0  0  0
  6  5  1  0  0  0  0
  7  2  1  0  0  0  0
 11 12  1  0  0  0  0
 11 17  1  0  0  0  0
 12  1  1  0  0  0  0
 13 18  1  0  0  0  0
 13 12  2  0  0  0  0
 14 13  1  0  0  0  0
 15 14  2  0  0  0  0
 15 16  1  0  0  0  0
 16 11  2  0  0  0  0
 19 15  1  0  0  0  0
 20 21  2  0  0  0  0
 22 20  1  0  0  0  0
 22  6  1  0  0  0  0
 23 22  1  0  0  0  0
 24 20  1  0  0  0  0
 25 24  1  0  0  0  0
 25 27  1  0  0  0  0
 26 25  2  0  0  0  0
 27 28  2  0  0  0  0
 28 30  1  0  0  0  0
 28 29  1  0  0  0  0
 31 30  2  0  0  0  0
 32 27  1  0  0  0  0
 32 31  1  0  0  0  0
M  END
>  <minimizedAffinity>
-5.83027983

>  <minimizedRMSD>
1.3716439

$$$$
