
 OpenBabel03272500543D

 29 31  0  0  0  0  0  0  0  0999 V2000
   35.1610   30.4040   43.7600 C   0  0  0  0  0  0  0  0  0  0  0  0
   34.8580   30.7430   42.4440 C   0  0  0  0  0  0  0  0  0  0  0  0
   35.8250   31.1590   41.5440 C   0  0  0  0  0  0  0  0  0  0  0  0
   37.1730   31.2470   41.9750 C   0  0  0  0  0  0  0  0  0  0  0  0
   37.4300   30.9060   43.2750 C   0  0  0  0  0  0  0  0  0  0  0  0
   36.4870   30.4920   44.1640 C   0  0  0  0  0  0  0  0  0  0  0  0
   33.8220   30.6840   42.0870 H   0  0  0  0  0  0  0  0  0  0  0  0
   35.4810   31.4010   40.5270 H   0  0  0  0  0  0  0  0  0  0  0  0
   37.7900   31.5810   41.1750 H   0  0  0  0  0  0  0  0  0  0  0  0
   38.4770   31.0930   43.3920 H   0  0  0  0  0  0  0  0  0  0  0  0
   33.8120   28.6720   44.7810 C   0  0  0  0  0  0  0  0  0  0  0  0
   34.0250   30.0470   44.5890 C   0  0  0  0  0  0  0  0  0  0  0  0
   33.1240   30.9190   45.2140 C   0  0  0  0  0  0  0  0  0  0  0  0
   32.1180   30.4260   45.9510 N   0  0  0  0  0  0  0  0  0  0  0  0
   31.9220   29.1150   46.1270 C   0  0  0  0  0  0  0  0  0  0  0  0
   32.7730   28.2540   45.5390 N   0  0  0  0  0  0  0  0  0  0  0  0
   34.3990   27.8640   44.3800 H   0  0  0  0  0  0  0  0  0  0  0  0
   33.3310   31.9740   45.0370 H   0  0  0  0  0  0  0  0  0  0  0  0
   31.0870   28.8300   46.7350 H   0  0  0  0  0  0  0  0  0  0  0  0
   37.3870   31.1990   46.2020 C   0  0  0  0  0  0  0  0  0  0  0  0
   37.6840   32.2610   45.5900 O   0  0  0  0  0  0  0  0  0  0  0  0
   36.7700   30.1120   45.4810 N   0  0  0  0  0  0  0  0  0  0  0  0
   36.5650   29.1880   45.8770 H   0  0  0  0  0  0  0  0  0  0  0  0
   37.6460   31.0170   47.6500 C   0  0  0  0  0  0  0  0  0  0  0  0
   37.4230   30.1520   48.5890 C   0  0  0  0  0  0  0  0  0  0  0  0
   36.8840   29.2980   48.2050 H   0  0  0  0  0  0  0  0  0  0  0  0
   37.8570   30.3820   49.8650 C   0  0  0  0  0  3  0  0  0  0  0  0
   38.5520   31.6170   50.0690 C   0  0  0  0  0  3  0  0  0  0  0  0
   38.5220   32.3650   48.3450 S   0  0  0  0  0  0  0  0  0  0  0  0
  1  6  1  0  0  0  0
  1 12  1  0  0  0  0
  2  1  2  0  0  0  0
  3  4  2  0  0  0  0
  3  2  1  0  0  0  0
  4  5  1  0  0  0  0
  5 10  1  0  0  0  0
  5  6  2  0  0  0  0
  6 22  1  0  0  0  0
  7  2  1  0  0  0  0
  8  3  1  0  0  0  0
  9  4  1  0  0  0  0
 11 16  1  0  0  0  0
 12 11  2  0  0  0  0
 12 13  1  0  0  0  0
 13 14  2  0  0  0  0
 14 15  1  0  0  0  0
 15 19  1  0  0  0  0
 16 15  2  0  0  0  0
 17 11  1  0  0  0  0
 18 13  1  0  0  0  0
 20 24  1  0  0  0  0
 21 20  2  0  0  0  0
 22 23  1  0  0  0  0
 22 20  1  0  0  0  0
 24 29  1  0  0  0  0
 24 25  2  0  0  0  0
 25 27  1  0  0  0  0
 26 25  1  0  0  0  0
 27 28  2  0  0  0  0
 29 28  1  0  0  0  0
M  END
>  <minimizedAffinity>
-3.784554

>  <minimizedRMSD>
5.4600358

$$$$
