
 OpenBabel03272508153D

 27 29  0  0  0  0  0  0  0  0999 V2000
   32.8060   28.1960   49.1300 Cl  0  0  0  0  0  0  0  0  0  0  0  0
   33.5090   28.9070   47.7140 C   0  0  0  0  0  0  0  0  0  0  0  0
   32.6550   28.9800   46.6510 C   0  0  0  0  0  0  0  0  0  0  0  0
   33.1230   29.5600   45.4600 C   0  0  0  0  0  0  0  0  0  0  0  0
   34.3950   30.0410   45.3490 C   0  0  0  0  0  0  0  0  0  0  0  0
   35.2350   29.9500   46.4450 C   0  0  0  0  0  0  0  0  0  0  0  0
   36.8700   30.5750   46.3310 Cl  0  0  0  0  0  0  0  0  0  0  0  0
   34.7790   29.3840   47.6090 C   0  0  0  0  0  0  0  0  0  0  0  0
   32.5290   29.6660   44.5640 H   0  0  0  0  0  0  0  0  0  0  0  0
   34.7930   30.4980   44.4410 H   0  0  0  0  0  0  0  0  0  0  0  0
   31.0500   27.1330   46.3100 C   0  0  0  0  0  0  0  0  0  0  0  0
   31.2640   28.5270   46.5310 C   0  0  0  0  0  0  0  0  0  0  0  0
   30.1570   29.3440   46.6140 C   0  0  0  0  0  0  0  0  0  0  0  0
   28.9260   28.7770   46.4800 N   0  0  0  0  0  0  0  0  0  0  0  0
   28.7560   27.4640   46.2730 C   0  0  0  0  0  0  0  0  0  0  0  0
   29.8160   26.6400   46.1880 N   0  0  0  0  0  0  0  0  0  0  0  0
   31.9380   26.5040   46.2480 H   0  0  0  0  0  0  0  0  0  0  0  0
   30.3280   30.4000   46.7820 H   0  0  0  0  0  0  0  0  0  0  0  0
   27.7320   27.1290   46.1820 H   0  0  0  0  0  0  0  0  0  0  0  0
   35.6510   29.2490   48.7690 C   0  0  0  0  0  0  0  0  0  0  0  0
   35.8380   28.2110   49.4760 O   0  0  0  0  0  0  0  0  0  0  0  0
   36.4380   30.4190   49.2370 C   0  0  0  0  0  0  0  0  0  0  0  0
   36.0290   31.6290   49.6390 C   0  0  0  0  0  0  0  0  0  0  0  0
   34.9570   31.8840   49.6810 H   0  0  0  0  0  0  0  0  0  0  0  0
   36.9090   32.5750   50.0070 C   0  0  0  0  0  3  0  0  0  0  0  0
   38.2580   32.2200   49.9430 C   0  0  0  0  0  3  0  0  0  0  0  0
   38.1960   30.4310   49.3190 S   0  0  0  0  0  0  0  0  0  0  0  0
  2  1  1  0  0  0  0
  3  2  2  0  0  0  0
  4  3  1  0  0  0  0
  5  4  2  0  0  0  0
  5  6  1  0  0  0  0
  6  8  2  0  0  0  0
  7  6  1  0  0  0  0
  8  2  1  0  0  0  0
  8 20  1  0  0  0  0
  9  4  1  0  0  0  0
 10  5  1  0  0  0  0
 11 12  1  0  0  0  0
 12 13  2  0  0  0  0
 12  3  1  0  0  0  0
 13 18  1  0  0  0  0
 14 13  1  0  0  0  0
 15 14  2  0  0  0  0
 16 15  1  0  0  0  0
 16 11  2  0  0  0  0
 17 11  1  0  0  0  0
 19 15  1  0  0  0  0
 20 22  1  0  0  0  0
 20 21  2  0  0  0  0
 22 27  1  0  0  0  0
 22 23  2  0  0  0  0
 23 24  1  0  0  0  0
 23 25  1  0  0  0  0
 26 25  2  0  0  0  0
 27 26  1  0  0  0  0
M  END
>  <minimizedAffinity>
-4.10672712

>  <minimizedRMSD>
4.88041925

$$$$
