REMARK  Name = 
REMARK  3 active torsions:
REMARK  status: ('A' for Active; 'I' for Inactive)
REMARK    1  A    between atoms: C_3  and  C_10
REMARK    2  A    between atoms: C_8  and  C_15
REMARK    3  A    between atoms: C_15  and  C_22
REMARK                            x       y       z     vdW  Elec       q    Type
REMARK                         _______ _______ _______ _____ _____    ______ ____
ROOT
ATOM      1 CL   UNL     1      36.735  31.811  50.231  0.00  0.00    +0.000 Cl
ATOM      2  C   UNL     1      37.389  31.731  48.627  0.00  0.00    +0.000 A 
ATOM      3  C   UNL     1      36.734  30.856  47.808  0.00  0.00    +0.000 A 
ATOM      4  C   UNL     1      37.174  30.732  46.479  0.00  0.00    +0.000 A 
ATOM      5  C   UNL     1      38.227  31.458  46.003  0.00  0.00    +0.000 A 
ATOM      6  C   UNL     1      38.869  32.335  46.860  0.00  0.00    +0.000 A 
ATOM      7 CL   UNL     1      40.215  33.289  46.266  0.00  0.00    +0.000 Cl
ATOM      8  C   UNL     1      38.440  32.456  48.158  0.00  0.00    +0.000 A 
ATOM      9  H   UNL     1      36.726  30.071  45.752  0.00  0.00    +0.000 HD
ATOM     10  H   UNL     1      38.596  31.389  44.978  0.00  0.00    +0.000 HD
ENDROOT
BRANCH   3  12
ATOM     11  C   UNL     1      35.777  28.991  49.115  0.00  0.00    +0.000 A 
ATOM     12  C   UNL     1      35.598  29.972  48.094  0.00  0.00    +0.000 A 
ATOM     13  C   UNL     1      34.380  30.019  47.451  0.00  0.00    +0.000 A 
ATOM     14  N   UNL     1      33.419  29.129  47.825  0.00  0.00    +0.000 NA
ATOM     15  C   UNL     1      33.616  28.219  48.788  0.00  0.00    +0.000 A 
ATOM     16  N   UNL     1      34.793  28.147  49.435  0.00  0.00    +0.000 NA
ATOM     17  H   UNL     1      36.747  28.971  49.612  0.00  0.00    +0.000 HD
ATOM     18  H   UNL     1      34.252  30.766  46.677  0.00  0.00    +0.000 HD
ATOM     19  H   UNL     1      32.780  27.565  48.999  0.00  0.00    +0.000 HD
ENDBRANCH   3  12
BRANCH   8  20
ATOM     20  C   UNL     1      39.115  33.350  49.090  0.00  0.00    +0.000 C 
ATOM     21  O   UNL     1      39.368  34.584  48.928  0.00  0.00    +0.000 OA
BRANCH  20  22
ATOM     22  C   UNL     1      39.592  32.827  50.396  0.00  0.00    +0.000 A 
ATOM     23  C   UNL     1      40.709  33.105  51.082  0.00  0.00    +0.000 A 
ATOM     24  H   UNL     1      41.441  33.840  50.705  0.00  0.00    +0.000 HD
ATOM     25  C   UNL     1      40.977  32.501  52.250  0.00  0.00    +0.000 A 
ATOM     26  C   UNL     1      40.030  31.577  52.699  0.00  0.00    +0.000 A 
ATOM     27  S   UNL     1      38.715  31.622  51.334  0.00  0.00    +0.000 S 
ENDBRANCH  20  22
ENDBRANCH   8  20
TORSDOF 3
