
 OpenBabel03272507433D

 38 41  0  0  0  0  0  0  0  0999 V2000
   37.9450   24.9970   34.7610 C   0  0  0  0  0  0  0  0  0  0  0  0
   37.5910   25.9050   33.7780 C   0  0  0  0  0  0  0  0  0  0  0  0
   37.5750   27.2570   34.0600 C   0  0  0  0  0  0  0  0  0  0  0  0
   37.9160   27.7010   35.3340 C   0  0  0  0  0  0  0  0  0  0  0  0
   38.2680   26.7870   36.3050 C   0  0  0  0  0  0  0  0  0  0  0  0
   38.2740   25.4530   35.9930 C   0  0  0  0  0  0  0  0  0  0  0  0
   37.3090   28.0220   33.3440 H   0  0  0  0  0  0  0  0  0  0  0  0
   37.9020   28.7630   35.5520 H   0  0  0  0  0  0  0  0  0  0  0  0
   38.5330   27.1450   37.2970 H   0  0  0  0  0  0  0  0  0  0  0  0
   38.6540   24.4830   37.0440 C   0  0  0  0  0  0  0  0  0  0  0  0
   38.0810   24.2690   38.2790 C   0  0  0  0  0  0  0  0  0  0  0  0
   38.8000   23.2470   38.8990 C   0  0  0  0  0  0  0  0  0  0  0  0
   39.7810   22.9010   37.9850 C   0  0  0  0  0  0  0  0  0  0  0  0
   39.6730   23.6450   36.8960 O   0  0  0  0  0  0  0  0  0  0  0  0
   37.2320   24.8050   38.6730 H   0  0  0  0  0  0  0  0  0  0  0  0
   38.6270   22.8210   39.8800 H   0  0  0  0  0  0  0  0  0  0  0  0
   40.5520   22.1310   38.1020 H   0  0  0  0  0  0  0  0  0  0  0  0
   37.9500   22.5060   34.0960 N   0  0  0  0  0  0  0  0  0  0  0  0
   37.9380   23.6180   34.3900 C   0  0  0  0  0  0  0  0  0  0  0  0
   37.2300   25.6050   32.4760 O   0  0  0  0  0  0  0  0  0  0  0  0
   38.0170   25.8130   31.3900 C   0  0  0  0  0  0  0  0  0  0  0  0
   38.3360   24.6160   30.7430 C   0  0  0  0  0  0  0  0  0  0  0  0
   39.1340   24.6310   29.6090 C   0  0  0  0  0  0  0  0  0  0  0  0
   39.5850   25.8390   29.1600 N   0  0  0  0  0  0  0  0  0  0  0  0
   39.2560   26.9890   29.8160 C   0  0  0  0  0  0  0  0  0  0  0  0
   38.4980   26.9550   30.8890 N   0  0  0  0  0  0  0  0  0  0  0  0
   39.4310   23.7810   29.0480 H   0  0  0  0  0  0  0  0  0  0  0  0
   39.6260   27.9450   29.4410 H   0  0  0  0  0  0  0  0  0  0  0  0
   36.5800   22.9560   30.9850 C   0  0  0  0  0  0  0  0  0  0  0  0
   35.4830   23.5990   30.6900 O   0  0  0  0  0  0  0  0  0  0  0  0
   37.9330   23.3390   31.1100 N   0  0  0  0  0  0  0  0  0  0  0  0
   38.5550   22.6180   31.4800 H   0  0  0  0  0  0  0  0  0  0  0  0
   36.1470   21.5390   31.2060 C   0  0  0  0  0  0  0  0  0  0  0  0
   35.1820   21.2070   32.0210 C   0  0  0  0  0  0  0  0  0  0  0  0
   34.5290   21.8170   32.6690 H   0  0  0  0  0  0  0  0  0  0  0  0
   34.6930   19.9860   32.3140 C   0  0  0  0  0  3  0  0  0  0  0  0
   35.4500   19.0040   31.5320 C   0  0  0  0  0  3  0  0  0  0  0  0
   36.7110   20.0690   30.5390 S   0  0  0  0  0  0  0  0  0  0  0  0
  1  6  1  0  0  0  0
  2  3  1  0  0  0  0
  2  1  2  0  0  0  0
  3  4  2  0  0  0  0
  4  8  1  0  0  0  0
  4  5  1  0  0  0  0
  5  9  1  0  0  0  0
  6  5  2  0  0  0  0
  6 10  1  0  0  0  0
  7  3  1  0  0  0  0
 10 11  2  0  0  0  0
 11 15  1  0  0  0  0
 11 12  1  0  0  0  0
 12 16  1  0  0  0  0
 13 17  1  0  0  0  0
 13 12  2  0  0  0  0
 14 10  1  0  0  0  0
 14 13  1  0  0  0  0
 18 19  3  0  0  0  0
 19  1  1  0  0  0  0
 20  2  1  0  0  0  0
 21 20  1  0  0  0  0
 22 31  1  0  0  0  0
 22 21  2  0  0  0  0
 23 22  1  0  0  0  0
 24 23  2  0  0  0  0
 24 25  1  0  0  0  0
 25 26  2  0  0  0  0
 26 21  1  0  0  0  0
 27 23  1  0  0  0  0
 28 25  1  0  0  0  0
 29 31  1  0  0  0  0
 29 33  1  0  0  0  0
 30 29  2  0  0  0  0
 31 32  1  0  0  0  0
 33 34  2  0  0  0  0
 34 36  1  0  0  0  0
 34 35  1  0  0  0  0
 37 36  2  0  0  0  0
 38 33  1  0  0  0  0
 38 37  1  0  0  0  0
M  END
>  <minimizedAffinity>
-5.89174318

$$$$

 OpenBabel03272507433D

 38 41  0  0  0  0  0  0  0  0999 V2000
   39.3990   24.4320   34.7340 C   0  0  0  0  0  0  0  0  0  0  0  0
   38.8700   25.6270   34.2780 C   0  0  0  0  0  0  0  0  0  0  0  0
   39.6710   26.7490   34.1880 C   0  0  0  0  0  0  0  0  0  0  0  0
   41.0120   26.6710   34.5570 C   0  0  0  0  0  0  0  0  0  0  0  0
   41.5280   25.4750   35.0080 C   0  0  0  0  0  0  0  0  0  0  0  0
   40.7060   24.3810   35.0850 C   0  0  0  0  0  0  0  0  0  0  0  0
   39.3270   27.7130   33.8420 H   0  0  0  0  0  0  0  0  0  0  0  0
   41.6370   27.5540   34.4840 H   0  0  0  0  0  0  0  0  0  0  0  0
   42.5760   25.4260   35.2930 H   0  0  0  0  0  0  0  0  0  0  0  0
   41.2740   23.1040   35.5720 C   0  0  0  0  0  0  0  0  0  0  0  0
   41.3750   22.6320   36.8620 C   0  0  0  0  0  0  0  0  0  0  0  0
   41.9850   21.3790   36.8000 C   0  0  0  0  0  0  0  0  0  0  0  0
   42.2190   21.1680   35.4510 C   0  0  0  0  0  0  0  0  0  0  0  0
   41.7890   22.2020   34.7460 O   0  0  0  0  0  0  0  0  0  0  0  0
   41.0370   23.1520   37.7440 H   0  0  0  0  0  0  0  0  0  0  0  0
   42.2220   20.7200   37.6260 H   0  0  0  0  0  0  0  0  0  0  0  0
   42.6870   20.2900   34.9920 H   0  0  0  0  0  0  0  0  0  0  0  0
   37.7800   22.4300   34.8630 N   0  0  0  0  0  0  0  0  0  0  0  0
   38.5070   23.3200   34.7970 C   0  0  0  0  0  0  0  0  0  0  0  0
   37.5620   25.8470   33.8810 O   0  0  0  0  0  0  0  0  0  0  0  0
   37.1920   26.6550   32.8560 C   0  0  0  0  0  0  0  0  0  0  0  0
   36.4080   25.9780   31.9170 C   0  0  0  0  0  0  0  0  0  0  0  0
   35.9360   26.6450   30.7970 C   0  0  0  0  0  0  0  0  0  0  0  0
   36.2620   27.9630   30.6520 N   0  0  0  0  0  0  0  0  0  0  0  0
   37.0300   28.5940   31.5870 C   0  0  0  0  0  0  0  0  0  0  0  0
   37.4680   27.9450   32.6420 N   0  0  0  0  0  0  0  0  0  0  0  0
   35.3360   26.2230   30.0300 H   0  0  0  0  0  0  0  0  0  0  0  0
   37.2800   29.6480   31.4530 H   0  0  0  0  0  0  0  0  0  0  0  0
   36.7410   23.6660   31.2520 C   0  0  0  0  0  0  0  0  0  0  0  0
   37.7130   23.7160   30.3820 O   0  0  0  0  0  0  0  0  0  0  0  0
   36.0180   24.6470   31.9650 N   0  0  0  0  0  0  0  0  0  0  0  0
   35.2160   24.2960   32.4920 H   0  0  0  0  0  0  0  0  0  0  0  0
   36.4520   22.2060   31.4220 C   0  0  0  0  0  0  0  0  0  0  0  0
   35.4090   21.7560   32.0660 C   0  0  0  0  0  0  0  0  0  0  0  0
   34.5850   22.2800   32.5810 H   0  0  0  0  0  0  0  0  0  0  0  0
   35.0290   20.4830   32.2940 C   0  0  0  0  0  3  0  0  0  0  0  0
   36.0220   19.6040   31.6710 C   0  0  0  0  0  3  0  0  0  0  0  0
   37.2970   20.8190   30.8890 S   0  0  0  0  0  0  0  0  0  0  0  0
  1 19  1  0  0  0  0
  1  6  1  0  0  0  0
  2  1  2  0  0  0  0
  3  2  1  0  0  0  0
  3  4  2  0  0  0  0
  4  5  1  0  0  0  0
  5  6  2  0  0  0  0
  5  9  1  0  0  0  0
  6 10  1  0  0  0  0
  7  3  1  0  0  0  0
  8  4  1  0  0  0  0
 10 11  2  0  0  0  0
 11 15  1  0  0  0  0
 12 11  1  0  0  0  0
 12 16  1  0  0  0  0
 13 12  2  0  0  0  0
 14 13  1  0  0  0  0
 14 10  1  0  0  0  0
 17 13  1  0  0  0  0
 19 18  3  0  0  0  0
 20  2  1  0  0  0  0
 21 20  1  0  0  0  0
 22 31  1  0  0  0  0
 22 21  2  0  0  0  0
 23 22  1  0  0  0  0
 24 23  2  0  0  0  0
 24 25  1  0  0  0  0
 25 26  2  0  0  0  0
 26 21  1  0  0  0  0
 27 23  1  0  0  0  0
 28 25  1  0  0  0  0
 29 33  1  0  0  0  0
 29 31  1  0  0  0  0
 30 29  2  0  0  0  0
 31 32  1  0  0  0  0
 33 34  2  0  0  0  0
 34 36  1  0  0  0  0
 34 35  1  0  0  0  0
 37 36  2  0  0  0  0
 38 33  1  0  0  0  0
 38 37  1  0  0  0  0
M  END
>  <minimizedAffinity>
-5.6088295

$$$$

 OpenBabel03272507433D

 38 41  0  0  0  0  0  0  0  0999 V2000
   37.4070   26.1860   31.7810 C   0  0  0  0  0  0  0  0  0  0  0  0
   37.2830   24.8610   32.1620 C   0  0  0  0  0  0  0  0  0  0  0  0
   36.1460   24.1500   31.8310 C   0  0  0  0  0  0  0  0  0  0  0  0
   35.1270   24.7710   31.1130 C   0  0  0  0  0  0  0  0  0  0  0  0
   35.2620   26.0910   30.7390 C   0  0  0  0  0  0  0  0  0  0  0  0
   36.4030   26.7680   31.0830 C   0  0  0  0  0  0  0  0  0  0  0  0
   35.9800   23.1150   32.0940 H   0  0  0  0  0  0  0  0  0  0  0  0
   34.2360   24.2100   30.8550 H   0  0  0  0  0  0  0  0  0  0  0  0
   34.4610   26.5660   30.1790 H   0  0  0  0  0  0  0  0  0  0  0  0
   36.5350   28.1850   30.6750 C   0  0  0  0  0  0  0  0  0  0  0  0
   36.1430   29.3230   31.3430 C   0  0  0  0  0  0  0  0  0  0  0  0
   36.4860   30.4140   30.5440 C   0  0  0  0  0  0  0  0  0  0  0  0
   37.0740   29.8560   29.4220 C   0  0  0  0  0  0  0  0  0  0  0  0
   37.0920   28.5370   29.5220 O   0  0  0  0  0  0  0  0  0  0  0  0
   35.6610   29.3440   32.3080 H   0  0  0  0  0  0  0  0  0  0  0  0
   36.3250   31.4640   30.7580 H   0  0  0  0  0  0  0  0  0  0  0  0
   37.4800   30.3900   28.5540 H   0  0  0  0  0  0  0  0  0  0  0  0
   39.5830   27.3960   32.4510 N   0  0  0  0  0  0  0  0  0  0  0  0
   38.6120   26.8500   32.1600 C   0  0  0  0  0  0  0  0  0  0  0  0
   38.2120   24.1210   32.8740 O   0  0  0  0  0  0  0  0  0  0  0  0
   38.1360   23.8610   34.2030 C   0  0  0  0  0  0  0  0  0  0  0  0
   38.0610   22.4890   34.4600 C   0  0  0  0  0  0  0  0  0  0  0  0
   37.9770   22.0310   35.7660 C   0  0  0  0  0  0  0  0  0  0  0  0
   37.9710   22.9570   36.7700 N   0  0  0  0  0  0  0  0  0  0  0  0
   38.0440   24.2900   36.4840 C   0  0  0  0  0  0  0  0  0  0  0  0
   38.1230   24.7040   35.2390 N   0  0  0  0  0  0  0  0  0  0  0  0
   37.9180   21.0150   36.0650 H   0  0  0  0  0  0  0  0  0  0  0  0
   38.0380   25.0140   37.3000 H   0  0  0  0  0  0  0  0  0  0  0  0
   36.8430   20.9140   33.0690 C   0  0  0  0  0  0  0  0  0  0  0  0
   35.5970   21.0600   33.4300 O   0  0  0  0  0  0  0  0  0  0  0  0
   38.0610   21.4650   33.5220 N   0  0  0  0  0  0  0  0  0  0  0  0
   38.9020   21.0550   33.1120 H   0  0  0  0  0  0  0  0  0  0  0  0
   36.8030   19.9360   31.9360 C   0  0  0  0  0  0  0  0  0  0  0  0
   37.1040   20.2560   30.7060 C   0  0  0  0  0  0  0  0  0  0  0  0
   37.4220   21.2130   30.2560 H   0  0  0  0  0  0  0  0  0  0  0  0
   37.1110   19.4870   29.5990 C   0  0  0  0  0  3  0  0  0  0  0  0
   36.7050   18.1350   29.9950 C   0  0  0  0  0  3  0  0  0  0  0  0
   36.3980   18.2760   31.8920 S   0  0  0  0  0  0  0  0  0  0  0  0
  1 19  1  0  0  0  0
  1  2  1  0  0  0  0
  2 20  1  0  0  0  0
  3  7  1  0  0  0  0
  3  2  2  0  0  0  0
  4  3  1  0  0  0  0
  5  6  1  0  0  0  0
  5  4  2  0  0  0  0
  6  1  2  0  0  0  0
  8  4  1  0  0  0  0
  9  5  1  0  0  0  0
 10  6  1  0  0  0  0
 10 11  2  0  0  0  0
 11 15  1  0  0  0  0
 12 16  1  0  0  0  0
 12 11  1  0  0  0  0
 13 14  1  0  0  0  0
 13 12  2  0  0  0  0
 14 10  1  0  0  0  0
 17 13  1  0  0  0  0
 19 18  3  0  0  0  0
 20 21  1  0  0  0  0
 21 22  2  0  0  0  0
 21 26  1  0  0  0  0
 22 23  1  0  0  0  0
 23 27  1  0  0  0  0
 23 24  2  0  0  0  0
 25 24  1  0  0  0  0
 25 28  1  0  0  0  0
 26 25  2  0  0  0  0
 29 30  2  0  0  0  0
 29 31  1  0  0  0  0
 31 22  1  0  0  0  0
 32 31  1  0  0  0  0
 33 29  1  0  0  0  0
 34 33  2  0  0  0  0
 35 34  1  0  0  0  0
 36 37  2  0  0  0  0
 36 34  1  0  0  0  0
 37 38  1  0  0  0  0
 38 33  1  0  0  0  0
M  END
>  <minimizedAffinity>
-5.51004744

$$$$

 OpenBabel03272507433D

 38 41  0  0  0  0  0  0  0  0999 V2000
   36.2350   29.1750   33.0390 C   0  0  0  0  0  0  0  0  0  0  0  0
   36.6350   28.7250   31.7930 C   0  0  0  0  0  0  0  0  0  0  0  0
   36.4200   29.5050   30.6730 C   0  0  0  0  0  0  0  0  0  0  0  0
   35.8000   30.7450   30.8040 C   0  0  0  0  0  0  0  0  0  0  0  0
   35.4070   31.1830   32.0510 C   0  0  0  0  0  0  0  0  0  0  0  0
   35.6360   30.3850   33.1410 C   0  0  0  0  0  0  0  0  0  0  0  0
   36.7040   29.2180   29.6710 H   0  0  0  0  0  0  0  0  0  0  0  0
   35.6330   31.3540   29.9230 H   0  0  0  0  0  0  0  0  0  0  0  0
   34.9240   32.1530   32.1420 H   0  0  0  0  0  0  0  0  0  0  0  0
   35.2080   30.8690   34.4730 C   0  0  0  0  0  0  0  0  0  0  0  0
   35.9330   31.5490   35.4260 C   0  0  0  0  0  0  0  0  0  0  0  0
   35.0840   31.7800   36.5090 C   0  0  0  0  0  0  0  0  0  0  0  0
   33.8760   31.2150   36.1350 C   0  0  0  0  0  0  0  0  0  0  0  0
   33.9750   30.6820   34.9280 O   0  0  0  0  0  0  0  0  0  0  0  0
   36.9670   31.8400   35.3320 H   0  0  0  0  0  0  0  0  0  0  0  0
   35.3210   32.2890   37.4350 H   0  0  0  0  0  0  0  0  0  0  0  0
   32.9500   31.1890   36.7210 H   0  0  0  0  0  0  0  0  0  0  0  0
   36.6920   27.6010   35.0290 N   0  0  0  0  0  0  0  0  0  0  0  0
   36.4940   28.3110   34.1450 C   0  0  0  0  0  0  0  0  0  0  0  0
   37.2580   27.5200   31.5170 O   0  0  0  0  0  0  0  0  0  0  0  0
   36.6250   26.3220   31.4440 C   0  0  0  0  0  0  0  0  0  0  0  0
   37.4090   25.2870   31.9640 C   0  0  0  0  0  0  0  0  0  0  0  0
   36.9260   23.9880   31.9730 C   0  0  0  0  0  0  0  0  0  0  0  0
   35.6780   23.7650   31.4650 N   0  0  0  0  0  0  0  0  0  0  0  0
   34.9400   24.7980   30.9640 C   0  0  0  0  0  0  0  0  0  0  0  0
   35.4150   26.0230   30.9640 N   0  0  0  0  0  0  0  0  0  0  0  0
   37.4400   23.1380   32.3450 H   0  0  0  0  0  0  0  0  0  0  0  0
   33.9440   24.5990   30.5630 H   0  0  0  0  0  0  0  0  0  0  0  0
   38.9300   25.0040   33.8360 C   0  0  0  0  0  0  0  0  0  0  0  0
   38.1620   24.6280   34.8230 O   0  0  0  0  0  0  0  0  0  0  0  0
   38.6830   25.4000   32.5040 N   0  0  0  0  0  0  0  0  0  0  0  0
   39.4960   25.7620   32.0010 H   0  0  0  0  0  0  0  0  0  0  0  0
   40.3210   24.9500   34.3890 C   0  0  0  0  0  0  0  0  0  0  0  0
   40.7890   23.9210   35.0440 C   0  0  0  0  0  0  0  0  0  0  0  0
   40.3270   22.9570   35.3190 H   0  0  0  0  0  0  0  0  0  0  0  0
   42.0060   23.7390   35.5920 C   0  0  0  0  0  3  0  0  0  0  0  0
   42.7970   24.9440   35.3300 C   0  0  0  0  0  3  0  0  0  0  0  0
   41.5980   26.0850   34.3440 S   0  0  0  0  0  0  0  0  0  0  0  0
  1  6  1  0  0  0  0
  1 19  1  0  0  0  0
  2  1  2  0  0  0  0
  3  4  2  0  0  0  0
  3  2  1  0  0  0  0
  4  5  1  0  0  0  0
  5  9  1  0  0  0  0
  5  6  2  0  0  0  0
  6 10  1  0  0  0  0
  7  3  1  0  0  0  0
  8  4  1  0  0  0  0
 10 14  1  0  0  0  0
 10 11  2  0  0  0  0
 11 12  1  0  0  0  0
 12 16  1  0  0  0  0
 13 12  2  0  0  0  0
 13 17  1  0  0  0  0
 14 13  1  0  0  0  0
 15 11  1  0  0  0  0
 19 18  3  0  0  0  0
 20  2  1  0  0  0  0
 21 20  1  0  0  0  0
 21 22  1  0  0  0  0
 22 23  2  0  0  0  0
 22 31  1  0  0  0  0
 23 27  1  0  0  0  0
 24 23  1  0  0  0  0
 25 24  2  0  0  0  0
 26 25  1  0  0  0  0
 26 21  2  0  0  0  0
 28 25  1  0  0  0  0
 29 33  1  0  0  0  0
 29 30  2  0  0  0  0
 31 29  1  0  0  0  0
 32 31  1  0  0  0  0
 33 34  2  0  0  0  0
 34 35  1  0  0  0  0
 34 36  1  0  0  0  0
 37 36  2  0  0  0  0
 38 33  1  0  0  0  0
 38 37  1  0  0  0  0
M  END
>  <minimizedAffinity>
-5.49331331

$$$$

 OpenBabel03272507433D

 38 41  0  0  0  0  0  0  0  0999 V2000
   39.6430   24.5650   35.2250 C   0  0  0  0  0  0  0  0  0  0  0  0
   38.4150   25.2020   35.2610 C   0  0  0  0  0  0  0  0  0  0  0  0
   37.5290   24.9360   36.2870 C   0  0  0  0  0  0  0  0  0  0  0  0
   37.8760   24.0260   37.2820 C   0  0  0  0  0  0  0  0  0  0  0  0
   39.1030   23.3980   37.2350 C   0  0  0  0  0  0  0  0  0  0  0  0
   39.9590   23.6850   36.2040 C   0  0  0  0  0  0  0  0  0  0  0  0
   36.5550   25.3940   36.3800 H   0  0  0  0  0  0  0  0  0  0  0  0
   37.1770   23.8200   38.0850 H   0  0  0  0  0  0  0  0  0  0  0  0
   39.3640   22.6890   38.0170 H   0  0  0  0  0  0  0  0  0  0  0  0
   41.2720   23.0030   36.1660 C   0  0  0  0  0  0  0  0  0  0  0  0
   41.5750   21.7160   35.7790 C   0  0  0  0  0  0  0  0  0  0  0  0
   42.9520   21.5510   35.9240 C   0  0  0  0  0  0  0  0  0  0  0  0
   43.4050   22.7700   36.3980 C   0  0  0  0  0  0  0  0  0  0  0  0
   42.3930   23.6130   36.5330 O   0  0  0  0  0  0  0  0  0  0  0  0
   40.8610   20.9870   35.4310 H   0  0  0  0  0  0  0  0  0  0  0  0
   43.5350   20.6630   35.7110 H   0  0  0  0  0  0  0  0  0  0  0  0
   44.4390   23.0420   36.6390 H   0  0  0  0  0  0  0  0  0  0  0  0
   41.2100   25.1560   33.2640 N   0  0  0  0  0  0  0  0  0  0  0  0
   40.5020   24.8950   34.1340 C   0  0  0  0  0  0  0  0  0  0  0  0
   37.9410   26.1240   34.3440 O   0  0  0  0  0  0  0  0  0  0  0  0
   37.2320   25.8110   33.2300 C   0  0  0  0  0  0  0  0  0  0  0  0
   36.6540   26.9420   32.6470 C   0  0  0  0  0  0  0  0  0  0  0  0
   35.8910   26.8160   31.4970 C   0  0  0  0  0  0  0  0  0  0  0  0
   35.7310   25.5680   30.9680 N   0  0  0  0  0  0  0  0  0  0  0  0
   36.3080   24.4840   31.5630 C   0  0  0  0  0  0  0  0  0  0  0  0
   37.0290   24.6230   32.6540 N   0  0  0  0  0  0  0  0  0  0  0  0
   35.4130   27.6100   30.9790 H   0  0  0  0  0  0  0  0  0  0  0  0
   36.1680   23.4940   31.1250 H   0  0  0  0  0  0  0  0  0  0  0  0
   35.5900   29.0300   33.2840 C   0  0  0  0  0  0  0  0  0  0  0  0
   34.3270   28.8480   33.0050 O   0  0  0  0  0  0  0  0  0  0  0  0
   36.7530   28.2520   33.0970 N   0  0  0  0  0  0  0  0  0  0  0  0
   37.6310   28.7270   33.3130 H   0  0  0  0  0  0  0  0  0  0  0  0
   35.6500   30.3800   33.9300 C   0  0  0  0  0  0  0  0  0  0  0  0
   35.8800   30.5510   35.2040 C   0  0  0  0  0  0  0  0  0  0  0  0
   36.0630   29.8280   36.0180 H   0  0  0  0  0  0  0  0  0  0  0  0
   35.9600   31.6950   35.9120 C   0  0  0  0  0  3  0  0  0  0  0  0
   35.7390   32.8080   34.9850 C   0  0  0  0  0  3  0  0  0  0  0  0
   35.4600   31.9510   33.2820 S   0  0  0  0  0  0  0  0  0  0  0  0
  1  2  2  0  0  0  0
  1  6  1  0  0  0  0
  2  3  1  0  0  0  0
  3  7  1  0  0  0  0
  3  4  2  0  0  0  0
  4  8  1  0  0  0  0
  5  4  1  0  0  0  0
  5  9  1  0  0  0  0
  6  5  2  0  0  0  0
 10  6  1  0  0  0  0
 10 14  1  0  0  0  0
 11 12  1  0  0  0  0
 11 10  2  0  0  0  0
 12 13  2  0  0  0  0
 13 14  1  0  0  0  0
 13 17  1  0  0  0  0
 15 11  1  0  0  0  0
 16 12  1  0  0  0  0
 18 19  3  0  0  0  0
 19  1  1  0  0  0  0
 20  2  1  0  0  0  0
 21 20  1  0  0  0  0
 22 31  1  0  0  0  0
 22 21  2  0  0  0  0
 23 22  1  0  0  0  0
 24 23  2  0  0  0  0
 24 25  1  0  0  0  0
 25 26  2  0  0  0  0
 26 21  1  0  0  0  0
 27 23  1  0  0  0  0
 28 25  1  0  0  0  0
 29 33  1  0  0  0  0
 30 29  2  0  0  0  0
 31 29  1  0  0  0  0
 31 32  1  0  0  0  0
 33 34  2  0  0  0  0
 34 36  1  0  0  0  0
 34 35  1  0  0  0  0
 37 36  2  0  0  0  0
 38 33  1  0  0  0  0
 38 37  1  0  0  0  0
M  END
>  <minimizedAffinity>
-5.46409035

$$$$

 OpenBabel03272507433D

 38 41  0  0  0  0  0  0  0  0999 V2000
   37.7970   25.5530   34.0630 C   0  0  0  0  0  0  0  0  0  0  0  0
   37.1360   26.7520   33.8640 C   0  0  0  0  0  0  0  0  0  0  0  0
   37.3080   27.7920   34.7570 C   0  0  0  0  0  0  0  0  0  0  0  0
   38.1490   27.6280   35.8550 C   0  0  0  0  0  0  0  0  0  0  0  0
   38.8020   26.4280   36.0410 C   0  0  0  0  0  0  0  0  0  0  0  0
   38.6100   25.4170   35.1370 C   0  0  0  0  0  0  0  0  0  0  0  0
   36.8250   28.7540   34.6670 H   0  0  0  0  0  0  0  0  0  0  0  0
   38.2810   28.4460   36.5540 H   0  0  0  0  0  0  0  0  0  0  0  0
   39.4560   26.3110   36.9020 H   0  0  0  0  0  0  0  0  0  0  0  0
   39.3180   24.1350   35.3500 C   0  0  0  0  0  0  0  0  0  0  0  0
   40.5810   23.7610   34.9480 C   0  0  0  0  0  0  0  0  0  0  0  0
   40.7890   22.4540   35.3910 C   0  0  0  0  0  0  0  0  0  0  0  0
   39.6170   22.1140   36.0440 C   0  0  0  0  0  0  0  0  0  0  0  0
   38.7630   23.1240   36.0070 O   0  0  0  0  0  0  0  0  0  0  0  0
   41.2680   24.3810   34.3930 H   0  0  0  0  0  0  0  0  0  0  0  0
   41.6730   21.8440   35.2520 H   0  0  0  0  0  0  0  0  0  0  0  0
   39.3870   21.1610   36.5350 H   0  0  0  0  0  0  0  0  0  0  0  0
   37.3640   23.7040   32.3180 N   0  0  0  0  0  0  0  0  0  0  0  0
   37.5670   24.5290   33.0950 C   0  0  0  0  0  0  0  0  0  0  0  0
   36.2750   27.0530   32.8230 O   0  0  0  0  0  0  0  0  0  0  0  0
   36.4710   28.0480   31.9210 C   0  0  0  0  0  0  0  0  0  0  0  0
   35.4860   29.0350   32.0150 C   0  0  0  0  0  0  0  0  0  0  0  0
   35.5230   30.1340   31.1700 C   0  0  0  0  0  0  0  0  0  0  0  0
   36.5400   30.2100   30.2620 N   0  0  0  0  0  0  0  0  0  0  0  0
   37.4850   29.2270   30.1970 C   0  0  0  0  0  0  0  0  0  0  0  0
   37.4330   28.1930   31.0060 N   0  0  0  0  0  0  0  0  0  0  0  0
   34.8260   30.9340   31.1630 H   0  0  0  0  0  0  0  0  0  0  0  0
   38.2900   29.3060   29.4640 H   0  0  0  0  0  0  0  0  0  0  0  0
   34.4600   29.8710   34.0520 C   0  0  0  0  0  0  0  0  0  0  0  0
   35.3950   30.5880   34.6150 O   0  0  0  0  0  0  0  0  0  0  0  0
   34.4140   29.0600   32.8970 N   0  0  0  0  0  0  0  0  0  0  0  0
   33.5560   28.5190   32.7820 H   0  0  0  0  0  0  0  0  0  0  0  0
   33.2580   30.0530   34.9260 C   0  0  0  0  0  0  0  0  0  0  0  0
   33.2270   30.8830   35.9340 C   0  0  0  0  0  0  0  0  0  0  0  0
   33.9910   31.5690   36.3400 H   0  0  0  0  0  0  0  0  0  0  0  0
   32.2250   31.1440   36.7960 C   0  0  0  0  0  3  0  0  0  0  0  0
   31.0830   30.3080   36.4160 C   0  0  0  0  0  3  0  0  0  0  0  0
   31.7150   29.3190   34.8890 S   0  0  0  0  0  0  0  0  0  0  0  0
  1  6  1  0  0  0  0
  2  1  2  0  0  0  0
  2  3  1  0  0  0  0
  3  4  2  0  0  0  0
  4  5  1  0  0  0  0
  4  8  1  0  0  0  0
  5  9  1  0  0  0  0
  6 10  1  0  0  0  0
  6  5  2  0  0  0  0
  7  3  1  0  0  0  0
 10 14  1  0  0  0  0
 11 10  2  0  0  0  0
 11 12  1  0  0  0  0
 12 13  2  0  0  0  0
 13 17  1  0  0  0  0
 14 13  1  0  0  0  0
 15 11  1  0  0  0  0
 16 12  1  0  0  0  0
 18 19  3  0  0  0  0
 19  1  1  0  0  0  0
 20  2  1  0  0  0  0
 21 22  1  0  0  0  0
 21 20  1  0  0  0  0
 22 31  1  0  0  0  0
 23 22  2  0  0  0  0
 24 23  1  0  0  0  0
 25 24  2  0  0  0  0
 25 26  1  0  0  0  0
 26 21  2  0  0  0  0
 27 23  1  0  0  0  0
 28 25  1  0  0  0  0
 29 30  2  0  0  0  0
 29 33  1  0  0  0  0
 31 29  1  0  0  0  0
 32 31  1  0  0  0  0
 33 34  2  0  0  0  0
 34 35  1  0  0  0  0
 34 36  1  0  0  0  0
 37 36  2  0  0  0  0
 38 33  1  0  0  0  0
 38 37  1  0  0  0  0
M  END
>  <minimizedAffinity>
-5.45341825

$$$$

 OpenBabel03272507433D

 38 41  0  0  0  0  0  0  0  0999 V2000
   37.1590   22.7450   32.4410 C   0  0  0  0  0  0  0  0  0  0  0  0
   37.2810   24.1180   32.3200 C   0  0  0  0  0  0  0  0  0  0  0  0
   36.3410   24.8360   31.6070 C   0  0  0  0  0  0  0  0  0  0  0  0
   35.2710   24.1730   31.0120 C   0  0  0  0  0  0  0  0  0  0  0  0
   35.1600   22.8050   31.1400 C   0  0  0  0  0  0  0  0  0  0  0  0
   36.1090   22.1220   31.8550 C   0  0  0  0  0  0  0  0  0  0  0  0
   36.3730   25.9070   31.4710 H   0  0  0  0  0  0  0  0  0  0  0  0
   34.5360   24.7400   30.4530 H   0  0  0  0  0  0  0  0  0  0  0  0
   34.3200   22.2970   30.6710 H   0  0  0  0  0  0  0  0  0  0  0  0
   35.9760   20.6540   31.9830 C   0  0  0  0  0  0  0  0  0  0  0  0
   35.3650   19.9190   32.9750 C   0  0  0  0  0  0  0  0  0  0  0  0
   35.5080   18.5710   32.6420 C   0  0  0  0  0  0  0  0  0  0  0  0
   36.2090   18.5760   31.4480 C   0  0  0  0  0  0  0  0  0  0  0  0
   36.4740   19.8190   31.0790 O   0  0  0  0  0  0  0  0  0  0  0  0
   34.8730   20.3300   33.8410 H   0  0  0  0  0  0  0  0  0  0  0  0
   35.1480   17.7140   33.1980 H   0  0  0  0  0  0  0  0  0  0  0  0
   36.5200   17.7050   30.8610 H   0  0  0  0  0  0  0  0  0  0  0  0
   38.9900   21.5540   33.8100 N   0  0  0  0  0  0  0  0  0  0  0  0
   38.1700   22.0760   33.1950 C   0  0  0  0  0  0  0  0  0  0  0  0
   38.2880   24.9030   32.8570 O   0  0  0  0  0  0  0  0  0  0  0  0
   38.0970   25.8850   33.7730 C   0  0  0  0  0  0  0  0  0  0  0  0
   38.6580   25.5570   35.0110 C   0  0  0  0  0  0  0  0  0  0  0  0
   38.5600   26.4420   36.0730 C   0  0  0  0  0  0  0  0  0  0  0  0
   37.9080   27.6230   35.8650 N   0  0  0  0  0  0  0  0  0  0  0  0
   37.3710   27.9120   34.6440 C   0  0  0  0  0  0  0  0  0  0  0  0
   37.4730   27.0590   33.6490 N   0  0  0  0  0  0  0  0  0  0  0  0
   38.9520   26.2870   37.0470 H   0  0  0  0  0  0  0  0  0  0  0  0
   36.8530   28.8610   34.4970 H   0  0  0  0  0  0  0  0  0  0  0  0
   40.7510   24.3560   35.2880 C   0  0  0  0  0  0  0  0  0  0  0  0
   41.6620   25.1930   34.8700 O   0  0  0  0  0  0  0  0  0  0  0  0
   39.3400   24.3910   35.3320 N   0  0  0  0  0  0  0  0  0  0  0  0
   38.8930   23.5150   35.6090 H   0  0  0  0  0  0  0  0  0  0  0  0
   41.5180   23.1740   35.7940 C   0  0  0  0  0  0  0  0  0  0  0  0
   41.1320   22.4560   36.8150 C   0  0  0  0  0  0  0  0  0  0  0  0
   40.2510   22.5380   37.4750 H   0  0  0  0  0  0  0  0  0  0  0  0
   41.7180   21.3780   37.3730 C   0  0  0  0  0  3  0  0  0  0  0  0
   42.9420   21.0970   36.6180 C   0  0  0  0  0  3  0  0  0  0  0  0
   42.9780   22.4630   35.2600 S   0  0  0  0  0  0  0  0  0  0  0  0
  1 19  1  0  0  0  0
  2  1  1  0  0  0  0
  2 20  1  0  0  0  0
  3  2  2  0  0  0  0
  4  5  2  0  0  0  0
  4  3  1  0  0  0  0
  5  6  1  0  0  0  0
  6 10  1  0  0  0  0
  6  1  2  0  0  0  0
  7  3  1  0  0  0  0
  8  4  1  0  0  0  0
  9  5  1  0  0  0  0
 10 11  2  0  0  0  0
 11 15  1  0  0  0  0
 12 11  1  0  0  0  0
 12 16  1  0  0  0  0
 13 12  2  0  0  0  0
 14 13  1  0  0  0  0
 14 10  1  0  0  0  0
 17 13  1  0  0  0  0
 19 18  3  0  0  0  0
 20 21  1  0  0  0  0
 21 22  1  0  0  0  0
 22 31  1  0  0  0  0
 22 23  2  0  0  0  0
 23 27  1  0  0  0  0
 24 23  1  0  0  0  0
 25 24  2  0  0  0  0
 26 21  2  0  0  0  0
 26 25  1  0  0  0  0
 28 25  1  0  0  0  0
 29 31  1  0  0  0  0
 29 33  1  0  0  0  0
 30 29  2  0  0  0  0
 31 32  1  0  0  0  0
 33 34  2  0  0  0  0
 34 36  1  0  0  0  0
 34 35  1  0  0  0  0
 37 36  2  0  0  0  0
 38 33  1  0  0  0  0
 38 37  1  0  0  0  0
M  END
>  <minimizedAffinity>
-5.36715031

$$$$

 OpenBabel03272507433D

 38 41  0  0  0  0  0  0  0  0999 V2000
   37.5910   24.3230   31.5960 C   0  0  0  0  0  0  0  0  0  0  0  0
   36.9720   25.5610   31.5680 C   0  0  0  0  0  0  0  0  0  0  0  0
   35.6250   25.6540   31.2780 C   0  0  0  0  0  0  0  0  0  0  0  0
   34.8930   24.4980   31.0150 C   0  0  0  0  0  0  0  0  0  0  0  0
   35.5210   23.2710   31.0470 C   0  0  0  0  0  0  0  0  0  0  0  0
   36.8590   23.2140   31.3380 C   0  0  0  0  0  0  0  0  0  0  0  0
   35.0760   26.5840   31.2380 H   0  0  0  0  0  0  0  0  0  0  0  0
   33.8360   24.5750   30.7880 H   0  0  0  0  0  0  0  0  0  0  0  0
   34.9400   22.3750   30.8400 H   0  0  0  0  0  0  0  0  0  0  0  0
   37.5190   21.8890   31.3680 C   0  0  0  0  0  0  0  0  0  0  0  0
   37.5680   20.9640   32.3870 C   0  0  0  0  0  0  0  0  0  0  0  0
   38.3100   19.8760   31.9260 C   0  0  0  0  0  0  0  0  0  0  0  0
   38.6710   20.2190   30.6340 C   0  0  0  0  0  0  0  0  0  0  0  0
   38.1910   21.4130   30.3270 O   0  0  0  0  0  0  0  0  0  0  0  0
   37.1080   21.0790   33.3560 H   0  0  0  0  0  0  0  0  0  0  0  0
   38.5500   18.9670   32.4640 H   0  0  0  0  0  0  0  0  0  0  0  0
   39.2640   19.6200   29.9330 H   0  0  0  0  0  0  0  0  0  0  0  0
   40.1100   24.2860   32.1440 N   0  0  0  0  0  0  0  0  0  0  0  0
   38.9850   24.3120   31.9040 C   0  0  0  0  0  0  0  0  0  0  0  0
   37.5730   26.7850   31.8080 O   0  0  0  0  0  0  0  0  0  0  0  0
   36.9790   27.8260   32.4430 C   0  0  0  0  0  0  0  0  0  0  0  0
   36.7720   27.5570   33.7990 C   0  0  0  0  0  0  0  0  0  0  0  0
   36.1730   28.5080   34.6110 C   0  0  0  0  0  0  0  0  0  0  0  0
   35.8030   29.6930   34.0430 N   0  0  0  0  0  0  0  0  0  0  0  0
   36.0180   29.9230   32.7150 C   0  0  0  0  0  0  0  0  0  0  0  0
   36.5870   29.0090   31.9610 N   0  0  0  0  0  0  0  0  0  0  0  0
   35.9740   28.4020   35.6480 H   0  0  0  0  0  0  0  0  0  0  0  0
   35.7150   30.8760   32.2800 H   0  0  0  0  0  0  0  0  0  0  0  0
   38.3380   26.3010   35.1650 C   0  0  0  0  0  0  0  0  0  0  0  0
   39.3930   27.0670   35.2360 O   0  0  0  0  0  0  0  0  0  0  0  0
   37.1090   26.3940   34.4770 N   0  0  0  0  0  0  0  0  0  0  0  0
   36.5210   25.5590   34.5250 H   0  0  0  0  0  0  0  0  0  0  0  0
   38.6520   25.1310   36.0460 C   0  0  0  0  0  0  0  0  0  0  0  0
   38.0510   24.9140   37.1860 C   0  0  0  0  0  0  0  0  0  0  0  0
   37.2600   25.4750   37.7140 H   0  0  0  0  0  0  0  0  0  0  0  0
   38.2320   23.9140   38.0710 C   0  0  0  0  0  3  0  0  0  0  0  0
   39.2750   23.0330   37.5390 C   0  0  0  0  0  3  0  0  0  0  0  0
   39.7700   23.8500   35.8660 S   0  0  0  0  0  0  0  0  0  0  0  0
  1 19  1  0  0  0  0
  2  1  1  0  0  0  0
  2 20  1  0  0  0  0
  3  2  2  0  0  0  0
  4  5  2  0  0  0  0
  4  3  1  0  0  0  0
  5  6  1  0  0  0  0
  6 10  1  0  0  0  0
  6  1  2  0  0  0  0
  7  3  1  0  0  0  0
  8  4  1  0  0  0  0
  9  5  1  0  0  0  0
 10 11  2  0  0  0  0
 11 15  1  0  0  0  0
 12 11  1  0  0  0  0
 12 16  1  0  0  0  0
 13 12  2  0  0  0  0
 14 13  1  0  0  0  0
 14 10  1  0  0  0  0
 17 13  1  0  0  0  0
 19 18  3  0  0  0  0
 20 21  1  0  0  0  0
 21 22  1  0  0  0  0
 22 31  1  0  0  0  0
 22 23  2  0  0  0  0
 23 27  1  0  0  0  0
 24 23  1  0  0  0  0
 25 24  2  0  0  0  0
 26 21  2  0  0  0  0
 26 25  1  0  0  0  0
 28 25  1  0  0  0  0
 29 30  2  0  0  0  0
 29 33  1  0  0  0  0
 31 32  1  0  0  0  0
 31 29  1  0  0  0  0
 33 34  2  0  0  0  0
 34 35  1  0  0  0  0
 34 36  1  0  0  0  0
 37 36  2  0  0  0  0
 38 33  1  0  0  0  0
 38 37  1  0  0  0  0
M  END
>  <minimizedAffinity>
-5.36068201

$$$$

 OpenBabel03272507433D

 38 41  0  0  0  0  0  0  0  0999 V2000
   38.0050   25.3740   34.5040 C   0  0  0  0  0  0  0  0  0  0  0  0
   37.5790   25.7530   33.2430 C   0  0  0  0  0  0  0  0  0  0  0  0
   37.2760   24.7930   32.2970 C   0  0  0  0  0  0  0  0  0  0  0  0
   37.3990   23.4440   32.6190 C   0  0  0  0  0  0  0  0  0  0  0  0
   37.8230   23.0780   33.8790 C   0  0  0  0  0  0  0  0  0  0  0  0
   38.1160   24.0560   34.7940 C   0  0  0  0  0  0  0  0  0  0  0  0
   36.9390   25.0140   31.2950 H   0  0  0  0  0  0  0  0  0  0  0  0
   37.1600   22.6930   31.8750 H   0  0  0  0  0  0  0  0  0  0  0  0
   37.9160   22.0220   34.1200 H   0  0  0  0  0  0  0  0  0  0  0  0
   38.5700   23.6490   36.1420 C   0  0  0  0  0  0  0  0  0  0  0  0
   37.8850   23.6770   37.3370 C   0  0  0  0  0  0  0  0  0  0  0  0
   38.7460   23.1900   38.3210 C   0  0  0  0  0  0  0  0  0  0  0  0
   39.9190   22.8940   37.6480 C   0  0  0  0  0  0  0  0  0  0  0  0
   39.7900   23.1730   36.3610 O   0  0  0  0  0  0  0  0  0  0  0  0
   36.8700   24.0160   37.4650 H   0  0  0  0  0  0  0  0  0  0  0  0
   38.5380   23.0730   39.3780 H   0  0  0  0  0  0  0  0  0  0  0  0
   40.8410   22.4860   38.0770 H   0  0  0  0  0  0  0  0  0  0  0  0
   38.5500   27.2750   36.1570 N   0  0  0  0  0  0  0  0  0  0  0  0
   38.2970   26.4260   35.4230 C   0  0  0  0  0  0  0  0  0  0  0  0
   37.4120   27.0500   32.7880 O   0  0  0  0  0  0  0  0  0  0  0  0
   37.9670   27.5480   31.6540 C   0  0  0  0  0  0  0  0  0  0  0  0
   37.0490   28.2970   30.9120 C   0  0  0  0  0  0  0  0  0  0  0  0
   37.4380   28.8860   29.7190 C   0  0  0  0  0  0  0  0  0  0  0  0
   38.7270   28.7080   29.3070 N   0  0  0  0  0  0  0  0  0  0  0  0
   39.5980   27.9700   30.0550 C   0  0  0  0  0  0  0  0  0  0  0  0
   39.2110   27.4190   31.1840 N   0  0  0  0  0  0  0  0  0  0  0  0
   36.8190   29.4720   29.0860 H   0  0  0  0  0  0  0  0  0  0  0  0
   40.6250   27.8390   29.7090 H   0  0  0  0  0  0  0  0  0  0  0  0
   35.3640   29.7130   31.9380 C   0  0  0  0  0  0  0  0  0  0  0  0
   36.0480   30.6620   32.5180 O   0  0  0  0  0  0  0  0  0  0  0  0
   35.7210   28.5420   31.2350 N   0  0  0  0  0  0  0  0  0  0  0  0
   34.9430   27.9230   31.0010 H   0  0  0  0  0  0  0  0  0  0  0  0
   33.9300   30.0900   32.1470 C   0  0  0  0  0  0  0  0  0  0  0  0
   33.1280   29.4340   32.9430 C   0  0  0  0  0  0  0  0  0  0  0  0
   33.2940   28.5470   33.5790 H   0  0  0  0  0  0  0  0  0  0  0  0
   31.8290   29.6590   33.2230 C   0  0  0  0  0  3  0  0  0  0  0  0
   31.4050   30.8330   32.4550 C   0  0  0  0  0  3  0  0  0  0  0  0
   32.9880   31.3560   31.4890 S   0  0  0  0  0  0  0  0  0  0  0  0
  1  6  1  0  0  0  0
  1 19  1  0  0  0  0
  2  1  2  0  0  0  0
  3  4  2  0  0  0  0
  3  2  1  0  0  0  0
  4  5  1  0  0  0  0
  5  9  1  0  0  0  0
  5  6  2  0  0  0  0
  6 10  1  0  0  0  0
  7  3  1  0  0  0  0
  8  4  1  0  0  0  0
 10 14  1  0  0  0  0
 10 11  2  0  0  0  0
 11 15  1  0  0  0  0
 11 12  1  0  0  0  0
 12 16  1  0  0  0  0
 13 17  1  0  0  0  0
 13 12  2  0  0  0  0
 14 13  1  0  0  0  0
 19 18  3  0  0  0  0
 20  2  1  0  0  0  0
 21 20  1  0  0  0  0
 22 31  1  0  0  0  0
 22 21  2  0  0  0  0
 23 22  1  0  0  0  0
 24 23  2  0  0  0  0
 24 25  1  0  0  0  0
 25 26  2  0  0  0  0
 26 21  1  0  0  0  0
 27 23  1  0  0  0  0
 28 25  1  0  0  0  0
 29 33  1  0  0  0  0
 29 30  2  0  0  0  0
 31 29  1  0  0  0  0
 32 31  1  0  0  0  0
 33 34  2  0  0  0  0
 34 36  1  0  0  0  0
 34 35  1  0  0  0  0
 37 36  2  0  0  0  0
 38 33  1  0  0  0  0
 38 37  1  0  0  0  0
M  END
>  <minimizedAffinity>
-5.3459816

$$$$
