
 OpenBabel03272507403D

 38 41  0  0  0  0  0  0  0  0999 V2000
   38.2650   32.2650   47.3020 C   0  0  0  0  0  0  0  0  0  0  0  0
   37.9010   32.6990   48.5640 C   0  0  0  0  0  0  0  0  0  0  0  0
   38.6720   33.6390   49.2210 C   0  0  0  0  0  0  0  0  0  0  0  0
   39.8140   34.1470   48.6070 C   0  0  0  0  0  0  0  0  0  0  0  0
   40.1650   33.7070   47.3490 C   0  0  0  0  0  0  0  0  0  0  0  0
   39.3790   32.7740   46.7250 C   0  0  0  0  0  0  0  0  0  0  0  0
   38.4500   34.0230   50.2060 H   0  0  0  0  0  0  0  0  0  0  0  0
   40.4160   34.8840   49.1260 H   0  0  0  0  0  0  0  0  0  0  0  0
   41.0590   34.1100   46.8790 H   0  0  0  0  0  0  0  0  0  0  0  0
   39.7690   32.3110   45.3740 C   0  0  0  0  0  0  0  0  0  0  0  0
   40.5930   31.2680   45.0150 C   0  0  0  0  0  0  0  0  0  0  0  0
   40.6440   31.2380   43.6210 C   0  0  0  0  0  0  0  0  0  0  0  0
   39.8330   32.2850   43.2170 C   0  0  0  0  0  0  0  0  0  0  0  0
   39.3270   32.9040   44.2710 O   0  0  0  0  0  0  0  0  0  0  0  0
   41.0960   30.6070   45.7030 H   0  0  0  0  0  0  0  0  0  0  0  0
   41.1980   30.5480   42.9970 H   0  0  0  0  0  0  0  0  0  0  0  0
   39.6140   32.5910   42.1880 H   0  0  0  0  0  0  0  0  0  0  0  0
   36.7350   30.5180   46.1810 N   0  0  0  0  0  0  0  0  0  0  0  0
   37.4160   31.2940   46.6900 C   0  0  0  0  0  0  0  0  0  0  0  0
   36.7980   32.2820   49.2900 O   0  0  0  0  0  0  0  0  0  0  0  0
   36.7850   31.2180   50.1320 C   0  0  0  0  0  0  0  0  0  0  0  0
   35.7240   30.3510   49.8570 C   0  0  0  0  0  0  0  0  0  0  0  0
   35.5500   29.2050   50.6180 C   0  0  0  0  0  0  0  0  0  0  0  0
   36.4390   28.9640   51.6260 N   0  0  0  0  0  0  0  0  0  0  0  0
   37.4630   29.8320   51.8680 C   0  0  0  0  0  0  0  0  0  0  0  0
   37.6120   30.9140   51.1360 N   0  0  0  0  0  0  0  0  0  0  0  0
   34.7800   28.4860   50.4890 H   0  0  0  0  0  0  0  0  0  0  0  0
   38.1640   29.6220   52.6790 H   0  0  0  0  0  0  0  0  0  0  0  0
   34.3370   29.3760   48.1170 C   0  0  0  0  0  0  0  0  0  0  0  0
   34.7340   28.1350   48.0440 O   0  0  0  0  0  0  0  0  0  0  0  0
   34.7670   30.4960   48.8620 N   0  0  0  0  0  0  0  0  0  0  0  0
   34.3260   31.3820   48.6060 H   0  0  0  0  0  0  0  0  0  0  0  0
   33.1880   29.4690   47.1620 C   0  0  0  0  0  0  0  0  0  0  0  0
   33.0200   30.4730   46.3430 C   0  0  0  0  0  0  0  0  0  0  0  0
   33.6130   31.3880   46.1770 H   0  0  0  0  0  0  0  0  0  0  0  0
   32.0410   30.6850   45.4400 C   0  0  0  0  0  3  0  0  0  0  0  0
   31.1210   29.5460   45.5070 C   0  0  0  0  0  3  0  0  0  0  0  0
   31.8750   28.4130   46.8690 S   0  0  0  0  0  0  0  0  0  0  0  0
  1  2  1  0  0  0  0
  2  3  2  0  0  0  0
  2 20  1  0  0  0  0
  3  7  1  0  0  0  0
  4  8  1  0  0  0  0
  4  3  1  0  0  0  0
  5  4  2  0  0  0  0
  6  1  2  0  0  0  0
  6  5  1  0  0  0  0
  9  5  1  0  0  0  0
 10  6  1  0  0  0  0
 11 10  2  0  0  0  0
 11 15  1  0  0  0  0
 12 11  1  0  0  0  0
 13 12  2  0  0  0  0
 13 14  1  0  0  0  0
 14 10  1  0  0  0  0
 16 12  1  0  0  0  0
 17 13  1  0  0  0  0
 18 19  3  0  0  0  0
 19  1  1  0  0  0  0
 20 21  1  0  0  0  0
 21 26  1  0  0  0  0
 22 21  2  0  0  0  0
 22 23  1  0  0  0  0
 23 24  2  0  0  0  0
 24 25  1  0  0  0  0
 25 28  1  0  0  0  0
 26 25  2  0  0  0  0
 27 23  1  0  0  0  0
 29 31  1  0  0  0  0
 30 29  2  0  0  0  0
 31 22  1  0  0  0  0
 32 31  1  0  0  0  0
 33 29  1  0  0  0  0
 34 33  2  0  0  0  0
 35 34  1  0  0  0  0
 36 37  2  0  0  0  0
 36 34  1  0  0  0  0
 37 38  1  0  0  0  0
 38 33  1  0  0  0  0
M  END
>  <minimizedAffinity>
-6.01470041

>  <minimizedRMSD>
0.442546338

$$$$
