
 OpenBabel03272508503D

 26 28  0  0  1  0  0  0  0  0999 V2000
   37.8630   30.6010   45.6870 C   0  0  2  0  0  0  0  0  0  0  0  0
   36.4280   30.4560   45.8950 C   0  0  0  0  0  0  0  0  0  0  0  0
   37.3400   31.1050   46.9500 C   0  0  1  0  0  0  0  0  0  0  0  0
   38.5510   29.7110   45.8140 H   0  0  0  0  0  0  0  0  0  0  0  0
   35.7050   31.0870   45.3430 H   0  0  0  0  0  0  0  0  0  0  0  0
   36.0060   29.4970   46.1920 H   0  0  0  0  0  0  0  0  0  0  0  0
   37.0070   32.1350   47.1170 H   0  0  0  0  0  0  0  0  0  0  0  0
   39.8100   33.4110   44.2490 C   0  0  0  0  0  0  0  0  0  0  0  0
   39.5150   33.2860   42.8670 C   0  0  0  0  0  0  0  0  0  0  0  0
   38.6420   32.2300   42.4350 C   0  0  0  0  0  0  0  0  0  0  0  0
   38.1420   31.4000   43.3940 N   0  0  0  0  0  0  0  0  0  0  0  0
   38.4570   31.5620   44.7070 C   0  0  0  0  0  0  0  0  0  0  0  0
   39.2690   32.5370   45.1600 N   0  0  0  0  0  0  0  0  0  0  0  0
   40.4690   34.2270   44.4740 H   0  0  0  0  0  0  0  0  0  0  0  0
   39.9250   33.9540   42.1500 H   0  0  0  0  0  0  0  0  0  0  0  0
   38.3990   32.1060   41.4090 H   0  0  0  0  0  0  0  0  0  0  0  0
   36.8970   30.6930   49.3440 C   0  0  0  0  0  0  0  0  0  0  0  0
   36.0590   31.6250   49.3270 O   0  0  0  0  0  0  0  0  0  0  0  0
   37.5500   30.2680   48.1350 N   0  0  0  0  0  0  0  0  0  0  0  0
   38.1520   29.4260   48.0370 H   0  0  0  0  0  0  0  0  0  0  0  0
   37.3580   29.8930   50.5110 C   0  0  0  0  0  0  0  0  0  0  0  0
   37.9520   28.6350   50.3540 C   0  0  0  0  0  0  0  0  0  0  0  0
   38.1130   28.1700   49.3930 H   0  0  0  0  0  0  0  0  0  0  0  0
   38.3600   27.9310   51.4250 C   0  0  0  0  0  3  0  0  0  0  0  0
   38.1360   28.5790   52.7630 C   0  0  0  0  0  3  0  0  0  0  0  0
   37.3200   30.2020   52.2100 S   0  0  0  0  0  0  0  0  0  0  0  0
  1  4  1  1  0  0  0
  1  2  1  0  0  0  0
  1  3  1  0  0  0  0
  2  6  1  0  0  0  0
  2  3  1  0  0  0  0
  3  7  1  1  0  0  0
  3 19  1  0  0  0  0
  5  2  1  0  0  0  0
  8 14  1  0  0  0  0
  8 13  1  0  0  0  0
  9  8  2  0  0  0  0
 10  9  1  0  0  0  0
 10 11  2  0  0  0  0
 11 12  1  0  0  0  0
 12 13  2  0  0  0  0
 12  1  1  0  0  0  0
 15  9  1  0  0  0  0
 16 10  1  0  0  0  0
 17 21  1  0  0  0  0
 18 17  2  0  0  0  0
 19 17  1  0  0  0  0
 20 19  1  0  0  0  0
 21 26  1  0  0  0  0
 22 21  2  0  0  0  0
 22 24  1  0  0  0  0
 23 22  1  0  0  0  0
 24 25  2  0  0  0  0
 26 25  1  0  0  0  0
M  END
>  <minimizedAffinity>
-1.15853179

>  <minimizedRMSD>
1.62920058

$$$$
