
 OpenBabel03272507413D

 38 41  0  0  0  0  0  0  0  0999 V2000
   38.1860   32.1640   47.2450 C   0  0  0  0  0  0  0  0  0  0  0  0
   37.7910   32.6120   48.4930 C   0  0  0  0  0  0  0  0  0  0  0  0
   38.5490   33.5540   49.1610 C   0  0  0  0  0  0  0  0  0  0  0  0
   39.7100   34.0490   48.5730 C   0  0  0  0  0  0  0  0  0  0  0  0
   40.0930   33.5950   47.3280 C   0  0  0  0  0  0  0  0  0  0  0  0
   39.3180   32.6600   46.6930 C   0  0  0  0  0  0  0  0  0  0  0  0
   38.3030   33.9500   50.1360 H   0  0  0  0  0  0  0  0  0  0  0  0
   40.3030   34.7880   49.1000 H   0  0  0  0  0  0  0  0  0  0  0  0
   41.0010   33.9890   46.8790 H   0  0  0  0  0  0  0  0  0  0  0  0
   39.7410   32.1820   45.3580 C   0  0  0  0  0  0  0  0  0  0  0  0
   40.5980   31.1540   45.0330 C   0  0  0  0  0  0  0  0  0  0  0  0
   40.6720   31.0980   43.6410 C   0  0  0  0  0  0  0  0  0  0  0  0
   39.8410   32.1150   43.2030 C   0  0  0  0  0  0  0  0  0  0  0  0
   39.3010   32.7410   44.2370 O   0  0  0  0  0  0  0  0  0  0  0  0
   41.1070   30.5200   45.7410 H   0  0  0  0  0  0  0  0  0  0  0  0
   41.2530   30.4100   43.0390 H   0  0  0  0  0  0  0  0  0  0  0  0
   39.6300   32.3960   42.1650 H   0  0  0  0  0  0  0  0  0  0  0  0
   36.6760   30.4140   46.1010 N   0  0  0  0  0  0  0  0  0  0  0  0
   37.3480   31.1910   46.6200 C   0  0  0  0  0  0  0  0  0  0  0  0
   36.6660   32.2090   49.1930 O   0  0  0  0  0  0  0  0  0  0  0  0
   36.6350   31.1810   50.0770 C   0  0  0  0  0  0  0  0  0  0  0  0
   35.5440   30.3350   49.8530 C   0  0  0  0  0  0  0  0  0  0  0  0
   35.3480   29.2270   50.6620 C   0  0  0  0  0  0  0  0  0  0  0  0
   36.2450   28.9990   51.6650 N   0  0  0  0  0  0  0  0  0  0  0  0
   37.2990   29.8450   51.8580 C   0  0  0  0  0  0  0  0  0  0  0  0
   37.4680   30.8910   51.0800 N   0  0  0  0  0  0  0  0  0  0  0  0
   34.5550   28.5270   50.5730 H   0  0  0  0  0  0  0  0  0  0  0  0
   38.0050   29.6460   52.6660 H   0  0  0  0  0  0  0  0  0  0  0  0
   34.2210   29.3660   48.0620 C   0  0  0  0  0  0  0  0  0  0  0  0
   34.7010   28.1600   47.9210 O   0  0  0  0  0  0  0  0  0  0  0  0
   34.5770   30.4700   48.8660 N   0  0  0  0  0  0  0  0  0  0  0  0
   34.0760   31.3360   48.6590 H   0  0  0  0  0  0  0  0  0  0  0  0
   33.0650   29.4330   47.1130 C   0  0  0  0  0  0  0  0  0  0  0  0
   32.1360   28.5150   47.0520 C   0  0  0  0  0  0  0  0  0  0  0  0
   31.9950   27.5800   47.6190 H   0  0  0  0  0  0  0  0  0  0  0  0
   31.0510   28.4480   46.2540 C   0  0  0  0  0  3  0  0  0  0  0  0
   31.0550   29.6380   45.3980 C   0  0  0  0  0  3  0  0  0  0  0  0
   32.6360   30.5980   45.9370 S   0  0  0  0  0  0  0  0  0  0  0  0
  1  2  1  0  0  0  0
  2  3  2  0  0  0  0
  2 20  1  0  0  0  0
  3  7  1  0  0  0  0
  4  8  1  0  0  0  0
  4  3  1  0  0  0  0
  5  4  2  0  0  0  0
  6  1  2  0  0  0  0
  6  5  1  0  0  0  0
  9  5  1  0  0  0  0
 10  6  1  0  0  0  0
 11 10  2  0  0  0  0
 11 15  1  0  0  0  0
 12 11  1  0  0  0  0
 13 12  2  0  0  0  0
 13 14  1  0  0  0  0
 14 10  1  0  0  0  0
 16 12  1  0  0  0  0
 17 13  1  0  0  0  0
 18 19  3  0  0  0  0
 19  1  1  0  0  0  0
 20 21  1  0  0  0  0
 21 26  1  0  0  0  0
 22 21  2  0  0  0  0
 22 23  1  0  0  0  0
 23 24  2  0  0  0  0
 24 25  1  0  0  0  0
 25 28  1  0  0  0  0
 26 25  2  0  0  0  0
 27 23  1  0  0  0  0
 29 31  1  0  0  0  0
 30 29  2  0  0  0  0
 31 22  1  0  0  0  0
 32 31  1  0  0  0  0
 33 29  1  0  0  0  0
 34 33  2  0  0  0  0
 34 35  1  0  0  0  0
 36 34  1  0  0  0  0
 37 38  1  0  0  0  0
 37 36  2  0  0  0  0
 38 33  1  0  0  0  0
M  END
>  <minimizedAffinity>
-5.89132166

>  <minimizedRMSD>
0.388651103

$$$$
