
 OpenBabel03272507303D

 26 28  0  0  0  0  0  0  0  0999 V2000
   35.9150   29.2680   49.4730 C   0  0  0  0  0  0  0  0  0  0  0  0
   34.8890   29.2110   50.3840 C   0  0  0  0  0  0  0  0  0  0  0  0
   33.7320   28.8060   49.6980 C   0  0  0  0  0  0  0  0  0  0  0  0
   34.1390   28.6390   48.3810 C   0  0  0  0  0  0  0  0  0  0  0  0
   35.4160   28.9220   48.3150 O   0  0  0  0  0  0  0  0  0  0  0  0
   34.8380   29.4100   51.4430 H   0  0  0  0  0  0  0  0  0  0  0  0
   32.7490   28.6590   50.0990 H   0  0  0  0  0  0  0  0  0  0  0  0
   37.2500   29.6520   49.8500 C   0  0  0  0  0  0  0  0  0  0  0  0
   37.8160   29.0840   50.7830 O   0  0  0  0  0  0  0  0  0  0  0  0
   37.8570   30.7260   49.0740 C   0  0  0  0  0  0  0  0  0  0  0  0
   38.0600   31.9430   49.7360 C   0  0  0  0  0  0  0  0  0  0  0  0
   38.6390   32.9940   49.0260 C   0  0  0  0  0  0  0  0  0  0  0  0
   38.9790   32.7800   47.7260 N   0  0  0  0  0  0  0  0  0  0  0  0
   38.7720   31.5990   47.1150 C   0  0  0  0  0  0  0  0  0  0  0  0
   38.2160   30.5820   47.7840 N   0  0  0  0  0  0  0  0  0  0  0  0
   37.7810   32.0820   50.7680 H   0  0  0  0  0  0  0  0  0  0  0  0
   38.7900   33.9300   49.5490 H   0  0  0  0  0  0  0  0  0  0  0  0
   39.0320   31.4040   46.0860 H   0  0  0  0  0  0  0  0  0  0  0  0
   33.2690   28.2190   47.2690 C   0  0  0  0  0  0  0  0  0  0  0  0
   33.1890   27.0040   46.9860 O   0  0  0  0  0  0  0  0  0  0  0  0
   32.5480   29.1960   46.5520 C   0  0  0  0  0  0  0  0  0  0  0  0
   32.8950   30.4450   46.1670 C   0  0  0  0  0  0  0  0  0  0  0  0
   33.8930   30.8240   46.4500 H   0  0  0  0  0  0  0  0  0  0  0  0
   32.0320   31.2240   45.4520 C   0  0  0  0  0  0  0  0  0  0  0  0
   30.7390   30.6350   45.1410 C   0  0  0  0  0  0  0  0  0  0  0  0
   30.9210   28.9730   45.9370 S   0  0  0  0  0  0  0  0  0  0  0  0
  1  8  1  0  0  0  0
  1  2  2  0  0  0  0
  2  6  1  0  0  0  0
  3  7  1  0  0  0  0
  3  2  1  0  0  0  0
  4  3  2  0  0  0  0
  5  4  1  0  0  0  0
  5  1  1  0  0  0  0
  8  9  2  0  0  0  0
 10 11  1  0  0  0  0
 10  8  1  0  0  0  0
 11 16  1  0  0  0  0
 12 17  1  0  0  0  0
 12 11  2  0  0  0  0
 13 12  1  0  0  0  0
 14 13  2  0  0  0  0
 14 15  1  0  0  0  0
 15 10  2  0  0  0  0
 18 14  1  0  0  0  0
 19  4  1  0  0  0  0
 20 19  2  0  0  0  0
 21 19  1  0  0  0  0
 22 23  1  0  0  0  0
 22 21  2  0  0  0  0
 24 22  1  0  0  0  0
 25 24  2  0  0  0  0
 25 26  1  0  0  0  0
 26 21  1  0  0  0  0
M  END
>  <minimizedAffinity>
-5.20375729

>  <minimizedRMSD>
3.04764104

$$$$
