
 OpenBabel03272508503D

 26 28  0  0  1  0  0  0  0  0999 V2000
   39.8670   32.2720   46.0670 C   0  0  2  0  0  0  0  0  0  0  0  0
   40.1060   33.6300   45.5930 C   0  0  0  0  0  0  0  0  0  0  0  0
   39.2210   32.6420   44.8130 C   0  0  1  0  0  0  0  0  0  0  0  0
   40.6610   31.4750   45.9390 H   0  0  0  0  0  0  0  0  0  0  0  0
   39.6370   34.4980   46.0930 H   0  0  0  0  0  0  0  0  0  0  0  0
   41.0410   33.8860   45.0980 H   0  0  0  0  0  0  0  0  0  0  0  0
   38.2130   33.0600   44.7350 H   0  0  0  0  0  0  0  0  0  0  0  0
   37.6330   30.4800   48.4220 C   0  0  0  0  0  0  0  0  0  0  0  0
   37.4900   31.4340   49.4630 C   0  0  0  0  0  0  0  0  0  0  0  0
   38.1660   32.6970   49.3470 C   0  0  0  0  0  0  0  0  0  0  0  0
   38.9150   32.9050   48.2270 N   0  0  0  0  0  0  0  0  0  0  0  0
   39.0200   31.9550   47.2580 C   0  0  0  0  0  0  0  0  0  0  0  0
   38.4050   30.7590   47.3220 N   0  0  0  0  0  0  0  0  0  0  0  0
   37.0920   29.5710   48.5990 H   0  0  0  0  0  0  0  0  0  0  0  0
   36.8960   31.2330   50.3210 H   0  0  0  0  0  0  0  0  0  0  0  0
   38.0820   33.4340   50.1060 H   0  0  0  0  0  0  0  0  0  0  0  0
   39.4810   30.8230   43.1640 C   0  0  0  0  0  0  0  0  0  0  0  0
   38.5550   30.2010   43.7360 O   0  0  0  0  0  0  0  0  0  0  0  0
   39.8410   32.1520   43.5790 N   0  0  0  0  0  0  0  0  0  0  0  0
   40.4990   32.7830   43.0800 H   0  0  0  0  0  0  0  0  0  0  0  0
   40.3320   30.3660   42.0320 C   0  0  0  0  0  0  0  0  0  0  0  0
   40.3520   31.0390   40.8050 C   0  0  0  0  0  0  0  0  0  0  0  0
   39.7610   31.9200   40.6020 H   0  0  0  0  0  0  0  0  0  0  0  0
   41.1290   30.6070   39.7970 C   0  0  0  0  0  3  0  0  0  0  0  0
   41.9510   29.3810   40.0800 C   0  0  0  0  0  3  0  0  0  0  0  0
   41.4260   29.0390   41.8730 S   0  0  0  0  0  0  0  0  0  0  0  0
  1  4  1  6  0  0  0
  1 12  1  0  0  0  0
  2  1  1  0  0  0  0
  2  5  1  0  0  0  0
  3  7  1  1  0  0  0
  3  2  1  0  0  0  0
  3  1  1  0  0  0  0
  6  2  1  0  0  0  0
  8 14  1  0  0  0  0
  8  9  1  0  0  0  0
  9 15  1  0  0  0  0
 10  9  2  0  0  0  0
 10 16  1  0  0  0  0
 11 10  1  0  0  0  0
 12 13  1  0  0  0  0
 12 11  2  0  0  0  0
 13  8  2  0  0  0  0
 17 19  1  0  0  0  0
 17 18  2  0  0  0  0
 19  3  1  0  0  0  0
 20 19  1  0  0  0  0
 21 17  1  0  0  0  0
 22 21  2  0  0  0  0
 23 22  1  0  0  0  0
 24 25  2  0  0  0  0
 24 22  1  0  0  0  0
 25 26  1  0  0  0  0
 26 21  1  0  0  0  0
M  END
>  <minimizedAffinity>
-4.83688068

>  <minimizedRMSD>
7.97349072

$$$$
