
 OpenBabel03262521023D

 34 36  0  0  1  0  0  0  0  0999 V2000
   38.5650   24.4060   36.5030 N   0  0  0  0  0  0  0  0  0  0  0  0
   39.5710   23.6100   35.8790 C   0  0  1  0  0  0  0  0  0  0  0  0
   40.5480   23.0950   36.9110 C   0  0  0  0  0  0  0  0  0  0  0  0
   39.7750   22.3090   37.8660 N   0  0  0  0  0  0  0  0  0  0  0  0
   38.9530   23.2790   38.5940 C   0  0  0  0  0  0  0  0  0  0  0  0
   37.9070   23.7580   37.6020 C   0  0  2  0  0  0  0  0  0  0  0  0
   38.0050   25.0130   35.9260 H   0  0  0  0  0  0  0  0  0  0  0  0
   40.1040   24.2130   35.1370 H   0  0  0  0  0  0  0  0  0  0  0  0
   41.1000   23.9110   37.4100 H   0  0  0  0  0  0  0  0  0  0  0  0
   41.3040   22.4240   36.4110 H   0  0  0  0  0  0  0  0  0  0  0  0
   40.4840   21.9270   38.5530 H   0  0  0  0  0  0  0  0  0  0  0  0
   39.5830   24.1340   38.9000 H   0  0  0  0  0  0  0  0  0  0  0  0
   38.4720   22.8100   39.4760 H   0  0  0  0  0  0  0  0  0  0  0  0
   37.2690   24.5000   38.1270 H   0  0  0  0  0  0  0  0  0  0  0  0
   37.0850   22.6540   37.2010 N   0  0  0  0  0  0  0  0  0  0  0  0
   36.4680   22.8970   36.4100 H   0  0  0  0  0  0  0  0  0  0  0  0
   36.5890   22.2930   38.0330 H   0  0  0  0  0  0  0  0  0  0  0  0
   38.8680   22.1130   35.0680 S   0  0  0  0  0  0  0  0  0  0  0  0
   36.1170   22.3340   32.0880 C   0  0  0  0  0  0  0  0  0  0  0  0
   36.8730   21.8060   33.1100 C   0  0  0  0  0  0  0  0  0  0  0  0
   37.8030   22.6220   33.7290 C   0  0  0  0  0  0  0  0  0  0  0  0
   37.9330   23.9400   33.2960 N   0  0  0  0  0  0  0  0  0  0  0  0
   37.1710   24.3830   32.3060 C   0  0  0  0  0  0  0  0  0  0  0  0
   36.2610   23.6000   31.6900 N   0  0  0  0  0  0  0  0  0  0  0  0
   35.3980   21.6680   31.6230 H   0  0  0  0  0  0  0  0  0  0  0  0
   36.8020   20.7990   33.4710 H   0  0  0  0  0  0  0  0  0  0  0  0
   37.2970   25.7500   31.8460 C   0  0  0  0  0  0  0  0  0  0  0  0
   37.8150   26.0490   30.7530 O   0  0  0  0  0  0  0  0  0  0  0  0
   36.8190   26.8390   32.6530 C   0  0  0  0  0  0  0  0  0  0  0  0
   37.0500   27.1490   33.9340 C   0  0  0  0  0  0  0  0  0  0  0  0
   37.6990   26.5210   34.5290 H   0  0  0  0  0  0  0  0  0  0  0  0
   36.4750   28.2540   34.5020 C   0  0  0  0  0  3  0  0  0  0  0  0
   35.6330   29.0210   33.6310 C   0  0  0  0  0  3  0  0  0  0  0  0
   35.7030   28.1140   32.0210 S   0  0  0  0  0  0  0  0  0  0  0  0
  1  6  1  0  0  0  0
  2  8  1  6  0  0  0
  2  1  1  0  0  0  0
  2  3  1  0  0  0  0
  3  9  1  0  0  0  0
  3  4  1  0  0  0  0
  4 11  1  0  0  0  0
  4  5  1  0  0  0  0
  5 12  1  0  0  0  0
  5 13  1  0  0  0  0
  6 14  1  1  0  0  0
  6  5  1  0  0  0  0
  7  1  1  0  0  0  0
 10  3  1  0  0  0  0
 15  6  1  0  0  0  0
 15 17  1  0  0  0  0
 16 15  1  0  0  0  0
 18  2  1  0  0  0  0
 19 20  1  0  0  0  0
 20 26  1  0  0  0  0
 20 21  2  0  0  0  0
 21 18  1  0  0  0  0
 22 21  1  0  0  0  0
 23 22  2  0  0  0  0
 24 19  2  0  0  0  0
 24 23  1  0  0  0  0
 25 19  1  0  0  0  0
 27 23  1  0  0  0  0
 27 29  1  0  0  0  0
 28 27  2  0  0  0  0
 29 30  2  0  0  0  0
 30 32  1  0  0  0  0
 30 31  1  0  0  0  0
 33 32  2  0  0  0  0
 34 29  1  0  0  0  0
 34 33  1  0  0  0  0
M  END
>  <minimizedAffinity>
-5.38448048

$$$$

 OpenBabel03262521023D

 34 36  0  0  1  0  0  0  0  0999 V2000
   37.8830   26.3060   32.1160 N   0  0  0  0  0  0  0  0  0  0  0  0
   36.4600   26.2120   32.0760 C   0  0  1  0  0  0  0  0  0  0  0  0
   35.8720   27.4230   31.3900 C   0  0  0  0  0  0  0  0  0  0  0  0
   36.4330   27.4580   30.0440 N   0  0  0  0  0  0  0  0  0  0  0  0
   37.8490   27.7880   30.2210 C   0  0  0  0  0  0  0  0  0  0  0  0
   38.4860   26.5560   30.8370 C   0  0  2  0  0  0  0  0  0  0  0  0
   38.3870   25.7100   32.7530 H   0  0  0  0  0  0  0  0  0  0  0  0
   36.0720   26.1420   33.0970 H   0  0  0  0  0  0  0  0  0  0  0  0
   36.0800   28.3580   31.9390 H   0  0  0  0  0  0  0  0  0  0  0  0
   34.7530   27.3080   31.3180 H   0  0  0  0  0  0  0  0  0  0  0  0
   35.9770   28.2880   29.5720 H   0  0  0  0  0  0  0  0  0  0  0  0
   37.9400   28.6360   30.9240 H   0  0  0  0  0  0  0  0  0  0  0  0
   38.3240   28.0320   29.2480 H   0  0  0  0  0  0  0  0  0  0  0  0
   39.5630   26.7800   30.9860 H   0  0  0  0  0  0  0  0  0  0  0  0
   38.3730   25.4520   29.9290 N   0  0  0  0  0  0  0  0  0  0  0  0
   38.6450   24.5580   30.3690 H   0  0  0  0  0  0  0  0  0  0  0  0
   38.8950   25.6790   29.0670 H   0  0  0  0  0  0  0  0  0  0  0  0
   35.8880   24.7590   31.0990 S   0  0  0  0  0  0  0  0  0  0  0  0
   35.8820   21.0290   32.7060 C   0  0  0  0  0  0  0  0  0  0  0  0
   35.4900   22.1070   31.9460 C   0  0  0  0  0  0  0  0  0  0  0  0
   36.2420   23.2660   32.0100 C   0  0  0  0  0  0  0  0  0  0  0  0
   37.3630   23.2930   32.8370 N   0  0  0  0  0  0  0  0  0  0  0  0
   37.6840   22.2170   33.5420 C   0  0  0  0  0  0  0  0  0  0  0  0
   36.9610   21.0790   33.4920 N   0  0  0  0  0  0  0  0  0  0  0  0
   35.2710   20.1360   32.6330 H   0  0  0  0  0  0  0  0  0  0  0  0
   34.6350   22.1250   31.2980 H   0  0  0  0  0  0  0  0  0  0  0  0
   38.8470   22.2330   34.4060 C   0  0  0  0  0  0  0  0  0  0  0  0
   39.9790   21.8910   34.0170 O   0  0  0  0  0  0  0  0  0  0  0  0
   38.7330   22.6530   35.7750 C   0  0  0  0  0  0  0  0  0  0  0  0
   37.7050   23.1850   36.4470 C   0  0  0  0  0  0  0  0  0  0  0  0
   36.7660   23.3580   35.9410 H   0  0  0  0  0  0  0  0  0  0  0  0
   37.8290   23.5130   37.7710 C   0  0  0  0  0  3  0  0  0  0  0  0
   39.1120   23.2450   38.3500 C   0  0  0  0  0  3  0  0  0  0  0  0
   40.0950   22.5270   36.9580 S   0  0  0  0  0  0  0  0  0  0  0  0
  1  7  1  0  0  0  0
  2  1  1  0  0  0  0
  2  8  1  1  0  0  0
  3  9  1  0  0  0  0
  3  2  1  0  0  0  0
  4  5  1  0  0  0  0
  4  3  1  0  0  0  0
  5  6  1  0  0  0  0
  5 12  1  0  0  0  0
  6 14  1  1  0  0  0
  6  1  1  0  0  0  0
 10  3  1  0  0  0  0
 11  4  1  0  0  0  0
 13  5  1  0  0  0  0
 15 16  1  0  0  0  0
 15  6  1  0  0  0  0
 17 15  1  0  0  0  0
 18 21  1  0  0  0  0
 18  2  1  0  0  0  0
 19 24  1  0  0  0  0
 20 21  1  0  0  0  0
 20 19  2  0  0  0  0
 21 22  2  0  0  0  0
 22 23  1  0  0  0  0
 23 27  1  0  0  0  0
 24 23  2  0  0  0  0
 25 19  1  0  0  0  0
 26 20  1  0  0  0  0
 27 29  1  0  0  0  0
 28 27  2  0  0  0  0
 29 30  2  0  0  0  0
 29 34  1  0  0  0  0
 30 32  1  0  0  0  0
 31 30  1  0  0  0  0
 32 33  2  0  0  0  0
 34 33  1  0  0  0  0
M  END
>  <minimizedAffinity>
-5.25702906

$$$$

 OpenBabel03262521023D

 34 36  0  0  1  0  0  0  0  0999 V2000
   38.4170   22.5730   35.9550 N   0  0  0  0  0  0  0  0  0  0  0  0
   37.8100   23.4600   36.8930 C   0  0  1  0  0  0  0  0  0  0  0  0
   38.2740   23.1390   38.2950 C   0  0  0  0  0  0  0  0  0  0  0  0
   39.7250   23.2820   38.3020 N   0  0  0  0  0  0  0  0  0  0  0  0
   40.2290   22.1740   37.4860 C   0  0  0  0  0  0  0  0  0  0  0  0
   39.8470   22.5080   36.0550 C   0  0  2  0  0  0  0  0  0  0  0  0
   38.0180   22.5010   35.0330 H   0  0  0  0  0  0  0  0  0  0  0  0
   36.7210   23.3620   36.8340 H   0  0  0  0  0  0  0  0  0  0  0  0
   37.9650   22.1290   38.6180 H   0  0  0  0  0  0  0  0  0  0  0  0
   37.8290   23.8810   39.0170 H   0  0  0  0  0  0  0  0  0  0  0  0
   40.0210   23.0930   39.3000 H   0  0  0  0  0  0  0  0  0  0  0  0
   39.7230   21.2390   37.7900 H   0  0  0  0  0  0  0  0  0  0  0  0
   41.3300   22.0760   37.5870 H   0  0  0  0  0  0  0  0  0  0  0  0
   40.2160   21.6800   35.4140 H   0  0  0  0  0  0  0  0  0  0  0  0
   40.5010   23.7190   35.6550 N   0  0  0  0  0  0  0  0  0  0  0  0
   40.1470   24.0710   34.7510 H   0  0  0  0  0  0  0  0  0  0  0  0
   41.5230   23.5670   35.6820 H   0  0  0  0  0  0  0  0  0  0  0  0
   38.2890   25.2140   36.6000 S   0  0  0  0  0  0  0  0  0  0  0  0
   36.8650   27.2230   33.3690 C   0  0  0  0  0  0  0  0  0  0  0  0
   37.2740   26.9810   34.6610 C   0  0  0  0  0  0  0  0  0  0  0  0
   37.7200   25.7110   34.9830 C   0  0  0  0  0  0  0  0  0  0  0  0
   37.7390   24.7350   33.9890 N   0  0  0  0  0  0  0  0  0  0  0  0
   37.3310   25.0380   32.7650 C   0  0  0  0  0  0  0  0  0  0  0  0
   36.8920   26.2700   32.4340 N   0  0  0  0  0  0  0  0  0  0  0  0
   36.5210   28.2270   33.1500 H   0  0  0  0  0  0  0  0  0  0  0  0
   37.2750   27.7050   35.4520 H   0  0  0  0  0  0  0  0  0  0  0  0
   37.3450   24.0310   31.7230 C   0  0  0  0  0  0  0  0  0  0  0  0
   37.8320   24.2360   30.5950 O   0  0  0  0  0  0  0  0  0  0  0  0
   36.7860   22.7290   31.9580 C   0  0  0  0  0  0  0  0  0  0  0  0
   35.5240   22.2900   31.8820 C   0  0  0  0  0  0  0  0  0  0  0  0
   34.7350   22.9730   31.6010 H   0  0  0  0  0  0  0  0  0  0  0  0
   35.2200   20.9830   32.1560 C   0  0  0  0  0  3  0  0  0  0  0  0
   36.3350   20.1590   32.5180 C   0  0  0  0  0  3  0  0  0  0  0  0
   37.7850   21.3050   32.4500 S   0  0  0  0  0  0  0  0  0  0  0  0
  1  6  1  0  0  0  0
  1  2  1  0  0  0  0
  2  8  1  6  0  0  0
  2  3  1  0  0  0  0
  3  4  1  0  0  0  0
  3  9  1  0  0  0  0
  3 10  1  0  0  0  0
  4 11  1  0  0  0  0
  5 13  1  0  0  0  0
  5 12  1  0  0  0  0
  5  4  1  0  0  0  0
  6 14  1  6  0  0  0
  6  5  1  0  0  0  0
  7  1  1  0  0  0  0
 15 17  1  0  0  0  0
 15  6  1  0  0  0  0
 16 15  1  0  0  0  0
 18  2  1  0  0  0  0
 19 20  1  0  0  0  0
 20 21  2  0  0  0  0
 20 26  1  0  0  0  0
 21 18  1  0  0  0  0
 22 21  1  0  0  0  0
 23 22  2  0  0  0  0
 24 23  1  0  0  0  0
 24 19  2  0  0  0  0
 25 19  1  0  0  0  0
 27 29  1  0  0  0  0
 27 23  1  0  0  0  0
 28 27  2  0  0  0  0
 29 34  1  0  0  0  0
 30 29  2  0  0  0  0
 30 32  1  0  0  0  0
 31 30  1  0  0  0  0
 32 33  2  0  0  0  0
 34 33  1  0  0  0  0
M  END
>  <minimizedAffinity>
-5.02895737

$$$$

 OpenBabel03262521023D

 34 36  0  0  1  0  0  0  0  0999 V2000
   37.8840   24.1220   35.8150 N   0  0  0  0  0  0  0  0  0  0  0  0
   39.0090   23.5520   35.1470 C   0  0  1  0  0  0  0  0  0  0  0  0
   40.1640   23.3930   36.1080 C   0  0  0  0  0  0  0  0  0  0  0  0
   39.7000   22.5270   37.1850 N   0  0  0  0  0  0  0  0  0  0  0  0
   38.7150   23.3200   37.9260 C   0  0  0  0  0  0  0  0  0  0  0  0
   37.5060   23.4300   37.0140 C   0  0  2  0  0  0  0  0  0  0  0  0
   37.1420   24.5150   35.2580 H   0  0  0  0  0  0  0  0  0  0  0  0
   39.3060   24.2010   34.3180 H   0  0  0  0  0  0  0  0  0  0  0  0
   40.5250   24.3620   36.4950 H   0  0  0  0  0  0  0  0  0  0  0  0
   41.0260   22.8920   35.5810 H   0  0  0  0  0  0  0  0  0  0  0  0
   40.5360   22.3970   37.8220 H   0  0  0  0  0  0  0  0  0  0  0  0
   39.1260   24.3300   38.1100 H   0  0  0  0  0  0  0  0  0  0  0  0
   38.4440   22.8250   38.8810 H   0  0  0  0  0  0  0  0  0  0  0  0
   36.7420   24.0310   37.5510 H   0  0  0  0  0  0  0  0  0  0  0  0
   36.9680   22.1230   36.7710 N   0  0  0  0  0  0  0  0  0  0  0  0
   36.2480   22.1320   36.0310 H   0  0  0  0  0  0  0  0  0  0  0  0
   36.6500   21.7250   37.6700 H   0  0  0  0  0  0  0  0  0  0  0  0
   38.6540   21.8600   34.5110 S   0  0  0  0  0  0  0  0  0  0  0  0
   35.9580   21.1270   31.5620 C   0  0  0  0  0  0  0  0  0  0  0  0
   36.8600   20.8890   32.5750 C   0  0  0  0  0  0  0  0  0  0  0  0
   37.4650   21.9740   33.1850 C   0  0  0  0  0  0  0  0  0  0  0  0
   37.1360   23.2570   32.7520 N   0  0  0  0  0  0  0  0  0  0  0  0
   36.2580   23.4130   31.7710 C   0  0  0  0  0  0  0  0  0  0  0  0
   35.6590   22.3660   31.1640 N   0  0  0  0  0  0  0  0  0  0  0  0
   35.5020   20.2560   31.1060 H   0  0  0  0  0  0  0  0  0  0  0  0
   37.1380   19.9190   32.9360 H   0  0  0  0  0  0  0  0  0  0  0  0
   35.9080   24.7410   31.3110 C   0  0  0  0  0  0  0  0  0  0  0  0
   34.8170   25.0010   30.7690 O   0  0  0  0  0  0  0  0  0  0  0  0
   36.8280   25.8330   31.4680 C   0  0  0  0  0  0  0  0  0  0  0  0
   36.7300   26.9700   32.1670 C   0  0  0  0  0  0  0  0  0  0  0  0
   35.8350   27.1710   32.7390 H   0  0  0  0  0  0  0  0  0  0  0  0
   37.7510   27.8820   32.1690 C   0  0  0  0  0  3  0  0  0  0  0  0
   38.8930   27.5220   31.3820 C   0  0  0  0  0  3  0  0  0  0  0  0
   38.4480   25.8760   30.6660 S   0  0  0  0  0  0  0  0  0  0  0  0
  1  6  1  0  0  0  0
  2  8  1  6  0  0  0
  2  1  1  0  0  0  0
  2  3  1  0  0  0  0
  3  9  1  0  0  0  0
  3  4  1  0  0  0  0
  4 11  1  0  0  0  0
  4  5  1  0  0  0  0
  5 12  1  0  0  0  0
  5 13  1  0  0  0  0
  6 14  1  1  0  0  0
  6  5  1  0  0  0  0
  7  1  1  0  0  0  0
 10  3  1  0  0  0  0
 15  6  1  0  0  0  0
 15 17  1  0  0  0  0
 16 15  1  0  0  0  0
 18  2  1  0  0  0  0
 19 20  1  0  0  0  0
 20 26  1  0  0  0  0
 20 21  2  0  0  0  0
 21 18  1  0  0  0  0
 22 21  1  0  0  0  0
 23 22  2  0  0  0  0
 24 19  2  0  0  0  0
 24 23  1  0  0  0  0
 25 19  1  0  0  0  0
 27 29  1  0  0  0  0
 27 23  1  0  0  0  0
 28 27  2  0  0  0  0
 29 30  2  0  0  0  0
 30 32  1  0  0  0  0
 30 31  1  0  0  0  0
 33 32  2  0  0  0  0
 34 33  1  0  0  0  0
 34 29  1  0  0  0  0
M  END
>  <minimizedAffinity>
-4.96697187

$$$$

 OpenBabel03262521023D

 34 36  0  0  1  0  0  0  0  0999 V2000
   37.9230   22.5200   36.7490 N   0  0  0  0  0  0  0  0  0  0  0  0
   38.2280   23.5330   35.7910 C   0  0  1  0  0  0  0  0  0  0  0  0
   37.7110   24.8730   36.2600 C   0  0  0  0  0  0  0  0  0  0  0  0
   38.3560   25.1490   37.5380 N   0  0  0  0  0  0  0  0  0  0  0  0
   37.7820   24.1850   38.4810 C   0  0  0  0  0  0  0  0  0  0  0  0
   38.3490   22.8330   38.0830 C   0  0  2  0  0  0  0  0  0  0  0  0
   37.9770   21.5560   36.4630 H   0  0  0  0  0  0  0  0  0  0  0  0
   37.7690   23.2760   34.8310 H   0  0  0  0  0  0  0  0  0  0  0  0
   36.6100   24.8890   36.3500 H   0  0  0  0  0  0  0  0  0  0  0  0
   38.0070   25.6700   35.5210 H   0  0  0  0  0  0  0  0  0  0  0  0
   38.0100   26.1070   37.8260 H   0  0  0  0  0  0  0  0  0  0  0  0
   36.6830   24.1690   38.3610 H   0  0  0  0  0  0  0  0  0  0  0  0
   38.0600   24.4360   39.5250 H   0  0  0  0  0  0  0  0  0  0  0  0
   37.9260   22.0800   38.7810 H   0  0  0  0  0  0  0  0  0  0  0  0
   39.7740   22.8470   38.2370 N   0  0  0  0  0  0  0  0  0  0  0  0
   40.2160   22.0080   37.8280 H   0  0  0  0  0  0  0  0  0  0  0  0
   39.9970   23.0020   39.2350 H   0  0  0  0  0  0  0  0  0  0  0  0
   40.0430   23.7510   35.5670 S   0  0  0  0  0  0  0  0  0  0  0  0
   41.3290   27.1530   33.7580 C   0  0  0  0  0  0  0  0  0  0  0  0
   41.2040   26.1630   34.7080 C   0  0  0  0  0  0  0  0  0  0  0  0
   40.3340   25.1180   34.4570 C   0  0  0  0  0  0  0  0  0  0  0  0
   39.6250   25.1080   33.2580 N   0  0  0  0  0  0  0  0  0  0  0  0
   39.7940   26.0930   32.3870 C   0  0  0  0  0  0  0  0  0  0  0  0
   40.6380   27.1210   32.6160 N   0  0  0  0  0  0  0  0  0  0  0  0
   42.0190   27.9580   33.9850 H   0  0  0  0  0  0  0  0  0  0  0  0
   41.7320   26.1360   35.6400 H   0  0  0  0  0  0  0  0  0  0  0  0
   39.0630   26.0950   31.1370 C   0  0  0  0  0  0  0  0  0  0  0  0
   39.5800   26.4280   30.0540 O   0  0  0  0  0  0  0  0  0  0  0  0
   37.6810   25.7010   31.1000 C   0  0  0  0  0  0  0  0  0  0  0  0
   36.5600   26.4280   31.1640 C   0  0  0  0  0  0  0  0  0  0  0  0
   36.6230   27.5030   31.2610 H   0  0  0  0  0  0  0  0  0  0  0  0
   35.3310   25.8270   31.1090 C   0  0  0  0  0  3  0  0  0  0  0  0
   35.3540   24.3990   30.9800 C   0  0  0  0  0  3  0  0  0  0  0  0
   37.1550   23.9780   30.9440 S   0  0  0  0  0  0  0  0  0  0  0  0
  1  6  1  0  0  0  0
  2  8  1  6  0  0  0
  2  3  1  0  0  0  0
  2  1  1  0  0  0  0
  3  9  1  0  0  0  0
  3  4  1  0  0  0  0
  4 11  1  0  0  0  0
  4  5  1  0  0  0  0
  5 13  1  0  0  0  0
  6 15  1  0  0  0  0
  6  5  1  0  0  0  0
  6 14  1  1  0  0  0
  7  1  1  0  0  0  0
 10  3  1  0  0  0  0
 12  5  1  0  0  0  0
 15 17  1  0  0  0  0
 16 15  1  0  0  0  0
 18  2  1  0  0  0  0
 19 25  1  0  0  0  0
 19 20  1  0  0  0  0
 20 26  1  0  0  0  0
 21 20  2  0  0  0  0
 21 18  1  0  0  0  0
 22 21  1  0  0  0  0
 23 24  1  0  0  0  0
 23 22  2  0  0  0  0
 24 19  2  0  0  0  0
 27 23  1  0  0  0  0
 28 27  2  0  0  0  0
 29 27  1  0  0  0  0
 29 30  2  0  0  0  0
 30 31  1  0  0  0  0
 32 30  1  0  0  0  0
 33 32  2  0  0  0  0
 34 33  1  0  0  0  0
 34 29  1  0  0  0  0
M  END
>  <minimizedAffinity>
-4.8089571

$$$$

 OpenBabel03262521023D

 34 36  0  0  1  0  0  0  0  0999 V2000
   39.4810   24.3150   35.7490 N   0  0  0  0  0  0  0  0  0  0  0  0
   40.0270   23.2860   34.9240 C   0  0  1  0  0  0  0  0  0  0  0  0
   40.8610   22.3370   35.7530 C   0  0  0  0  0  0  0  0  0  0  0  0
   39.9780   21.7800   36.7720 N   0  0  0  0  0  0  0  0  0  0  0  0
   39.6800   22.8920   37.6780 C   0  0  0  0  0  0  0  0  0  0  0  0
   38.7730   23.8270   36.8980 C   0  0  2  0  0  0  0  0  0  0  0  0
   39.1220   25.1460   35.3060 H   0  0  0  0  0  0  0  0  0  0  0  0
   40.6470   23.7360   34.1430 H   0  0  0  0  0  0  0  0  0  0  0  0
   41.7370   22.8340   36.2050 H   0  0  0  0  0  0  0  0  0  0  0  0
   41.2400   21.5000   35.0990 H   0  0  0  0  0  0  0  0  0  0  0  0
   40.5720   21.0900   37.3120 H   0  0  0  0  0  0  0  0  0  0  0  0
   40.6190   23.4190   37.9290 H   0  0  0  0  0  0  0  0  0  0  0  0
   39.1740   22.5300   38.5970 H   0  0  0  0  0  0  0  0  0  0  0  0
   38.5330   24.6840   37.5620 H   0  0  0  0  0  0  0  0  0  0  0  0
   37.5530   23.1500   36.5700 N   0  0  0  0  0  0  0  0  0  0  0  0
   36.9770   23.6900   35.9040 H   0  0  0  0  0  0  0  0  0  0  0  0
   37.0680   22.9000   37.4480 H   0  0  0  0  0  0  0  0  0  0  0  0
   38.7160   22.2500   34.1490 S   0  0  0  0  0  0  0  0  0  0  0  0
   36.0720   23.7560   31.4590 C   0  0  0  0  0  0  0  0  0  0  0  0
   36.8330   22.8360   32.1450 C   0  0  0  0  0  0  0  0  0  0  0  0
   37.6610   23.2910   33.1560 C   0  0  0  0  0  0  0  0  0  0  0  0
   37.6880   24.6550   33.4390 N   0  0  0  0  0  0  0  0  0  0  0  0
   36.9270   25.4850   32.7390 C   0  0  0  0  0  0  0  0  0  0  0  0
   36.1150   25.0590   31.7490 N   0  0  0  0  0  0  0  0  0  0  0  0
   35.4340   23.3680   30.6730 H   0  0  0  0  0  0  0  0  0  0  0  0
   36.8400   21.7810   31.9560 H   0  0  0  0  0  0  0  0  0  0  0  0
   36.9460   26.9050   33.0230 C   0  0  0  0  0  0  0  0  0  0  0  0
   36.9560   27.3600   34.1830 O   0  0  0  0  0  0  0  0  0  0  0  0
   36.9540   27.8640   31.9530 C   0  0  0  0  0  0  0  0  0  0  0  0
   36.1150   28.8670   31.6670 C   0  0  0  0  0  0  0  0  0  0  0  0
   35.2620   29.0500   32.3050 H   0  0  0  0  0  0  0  0  0  0  0  0
   36.3250   29.6650   30.5750 C   0  0  0  0  0  3  0  0  0  0  0  0
   37.4820   29.3410   29.7930 C   0  0  0  0  0  3  0  0  0  0  0  0
   38.2250   27.8900   30.6680 S   0  0  0  0  0  0  0  0  0  0  0  0
  1  6  1  0  0  0  0
  2  8  1  6  0  0  0
  2  1  1  0  0  0  0
  2  3  1  0  0  0  0
  3  9  1  0  0  0  0
  3  4  1  0  0  0  0
  4 11  1  0  0  0  0
  4  5  1  0  0  0  0
  5 12  1  0  0  0  0
  5 13  1  0  0  0  0
  6 14  1  1  0  0  0
  6  5  1  0  0  0  0
  7  1  1  0  0  0  0
 10  3  1  0  0  0  0
 15  6  1  0  0  0  0
 15 17  1  0  0  0  0
 16 15  1  0  0  0  0
 18  2  1  0  0  0  0
 19 24  2  0  0  0  0
 19 20  1  0  0  0  0
 20 21  2  0  0  0  0
 21 22  1  0  0  0  0
 21 18  1  0  0  0  0
 23 27  1  0  0  0  0
 23 22  2  0  0  0  0
 24 23  1  0  0  0  0
 25 19  1  0  0  0  0
 26 20  1  0  0  0  0
 27 28  2  0  0  0  0
 29 27  1  0  0  0  0
 30 29  2  0  0  0  0
 30 31  1  0  0  0  0
 32 30  1  0  0  0  0
 33 32  2  0  0  0  0
 33 34  1  0  0  0  0
 34 29  1  0  0  0  0
M  END
>  <minimizedAffinity>
-4.79455566

$$$$

 OpenBabel03262521023D

 34 36  0  0  1  0  0  0  0  0999 V2000
   40.0760   26.8760   30.4930 N   0  0  0  0  0  0  0  0  0  0  0  0
   39.4500   28.0610   30.0020 C   0  0  1  0  0  0  0  0  0  0  0  0
   39.6450   28.1780   28.5090 C   0  0  0  0  0  0  0  0  0  0  0  0
   39.0530   26.9860   27.9120 N   0  0  0  0  0  0  0  0  0  0  0  0
   39.9250   25.8770   28.3090 C   0  0  0  0  0  0  0  0  0  0  0  0
   39.6900   25.6820   29.7970 C   0  0  2  0  0  0  0  0  0  0  0  0
   40.2450   26.7960   31.4830 H   0  0  0  0  0  0  0  0  0  0  0  0
   39.8830   28.9340   30.5000 H   0  0  0  0  0  0  0  0  0  0  0  0
   40.7090   28.2830   28.2320 H   0  0  0  0  0  0  0  0  0  0  0  0
   39.1000   29.0880   28.1280 H   0  0  0  0  0  0  0  0  0  0  0  0
   39.1660   27.1100   26.8670 H   0  0  0  0  0  0  0  0  0  0  0  0
   40.9790   26.1650   28.1410 H   0  0  0  0  0  0  0  0  0  0  0  0
   39.6750   24.9540   27.7470 H   0  0  0  0  0  0  0  0  0  0  0  0
   40.3430   24.8460   30.1260 H   0  0  0  0  0  0  0  0  0  0  0  0
   38.3250   25.3070   30.0210 N   0  0  0  0  0  0  0  0  0  0  0  0
   38.0790   25.3220   31.0240 H   0  0  0  0  0  0  0  0  0  0  0  0
   38.1480   24.4040   29.5520 H   0  0  0  0  0  0  0  0  0  0  0  0
   37.6270   28.0420   30.2660 S   0  0  0  0  0  0  0  0  0  0  0  0
   36.0920   28.5430   33.9930 C   0  0  0  0  0  0  0  0  0  0  0  0
   36.2280   28.6540   32.6270 C   0  0  0  0  0  0  0  0  0  0  0  0
   37.2910   28.0110   32.0180 C   0  0  0  0  0  0  0  0  0  0  0  0
   38.1740   27.2780   32.8080 N   0  0  0  0  0  0  0  0  0  0  0  0
   37.9820   27.2130   34.1180 C   0  0  0  0  0  0  0  0  0  0  0  0
   36.9520   27.8350   34.7290 N   0  0  0  0  0  0  0  0  0  0  0  0
   35.2490   29.0580   34.4390 H   0  0  0  0  0  0  0  0  0  0  0  0
   35.5700   29.2070   31.9870 H   0  0  0  0  0  0  0  0  0  0  0  0
   38.8940   26.4550   34.9510 C   0  0  0  0  0  0  0  0  0  0  0  0
   40.0690   26.8100   35.1610 O   0  0  0  0  0  0  0  0  0  0  0  0
   38.4650   25.2360   35.5800 C   0  0  0  0  0  0  0  0  0  0  0  0
   38.1320   24.9750   36.8490 C   0  0  0  0  0  0  0  0  0  0  0  0
   38.1660   25.7650   37.5860 H   0  0  0  0  0  0  0  0  0  0  0  0
   37.7470   23.7160   37.2270 C   0  0  0  0  0  3  0  0  0  0  0  0
   37.7340   22.7400   36.1780 C   0  0  0  0  0  3  0  0  0  0  0  0
   38.2800   23.6790   34.6810 S   0  0  0  0  0  0  0  0  0  0  0  0
  1  7  1  0  0  0  0
  2 18  1  0  0  0  0
  2  1  1  0  0  0  0
  2  8  1  1  0  0  0
  3  2  1  0  0  0  0
  4  5  1  0  0  0  0
  4  3  1  0  0  0  0
  5  6  1  0  0  0  0
  6 15  1  0  0  0  0
  6 14  1  1  0  0  0
  6  1  1  0  0  0  0
  9  3  1  0  0  0  0
 10  3  1  0  0  0  0
 11  4  1  0  0  0  0
 12  5  1  0  0  0  0
 13  5  1  0  0  0  0
 15 16  1  0  0  0  0
 17 15  1  0  0  0  0
 18 21  1  0  0  0  0
 19 25  1  0  0  0  0
 19 24  1  0  0  0  0
 20 19  2  0  0  0  0
 21 20  1  0  0  0  0
 21 22  2  0  0  0  0
 22 23  1  0  0  0  0
 23 24  2  0  0  0  0
 23 27  1  0  0  0  0
 26 20  1  0  0  0  0
 27 28  2  0  0  0  0
 27 29  1  0  0  0  0
 29 30  2  0  0  0  0
 30 32  1  0  0  0  0
 30 31  1  0  0  0  0
 33 32  2  0  0  0  0
 34 29  1  0  0  0  0
 34 33  1  0  0  0  0
M  END
>  <minimizedAffinity>
-4.67599821

$$$$

 OpenBabel03262521023D

 34 36  0  0  1  0  0  0  0  0999 V2000
   38.7370   27.8950   31.3400 N   0  0  0  0  0  0  0  0  0  0  0  0
   37.3710   28.1790   31.6410 C   0  0  1  0  0  0  0  0  0  0  0  0
   36.7290   28.9370   30.5030 C   0  0  0  0  0  0  0  0  0  0  0  0
   36.8410   28.0930   29.3190 N   0  0  0  0  0  0  0  0  0  0  0  0
   38.2680   28.0740   28.9870 C   0  0  0  0  0  0  0  0  0  0  0  0
   38.9320   27.2480   30.0740 C   0  0  2  0  0  0  0  0  0  0  0  0
   39.3500   27.6250   32.0930 H   0  0  0  0  0  0  0  0  0  0  0  0
   37.3170   28.7740   32.5580 H   0  0  0  0  0  0  0  0  0  0  0  0
   37.1960   29.9250   30.3410 H   0  0  0  0  0  0  0  0  0  0  0  0
   35.6390   29.1060   30.7310 H   0  0  0  0  0  0  0  0  0  0  0  0
   36.3500   28.6260   28.5470 H   0  0  0  0  0  0  0  0  0  0  0  0
   38.6640   29.1060   29.0200 H   0  0  0  0  0  0  0  0  0  0  0  0
   38.4370   27.6200   27.9890 H   0  0  0  0  0  0  0  0  0  0  0  0
   40.0190   27.2190   29.8490 H   0  0  0  0  0  0  0  0  0  0  0  0
   38.4250   25.9070   30.0350 N   0  0  0  0  0  0  0  0  0  0  0  0
   38.7250   25.3550   30.8550 H   0  0  0  0  0  0  0  0  0  0  0  0
   38.6710   25.4870   29.1240 H   0  0  0  0  0  0  0  0  0  0  0  0
   36.3720   26.6440   31.8430 S   0  0  0  0  0  0  0  0  0  0  0  0
   37.9560   25.2060   35.2960 C   0  0  0  0  0  0  0  0  0  0  0  0
   37.3990   26.0930   34.4020 C   0  0  0  0  0  0  0  0  0  0  0  0
   37.0960   25.6420   33.1300 C   0  0  0  0  0  0  0  0  0  0  0  0
   37.3650   24.3140   32.8080 N   0  0  0  0  0  0  0  0  0  0  0  0
   37.9020   23.5140   33.7180 C   0  0  0  0  0  0  0  0  0  0  0  0
   38.2050   23.9370   34.9630 N   0  0  0  0  0  0  0  0  0  0  0  0
   38.1810   25.5910   36.2840 H   0  0  0  0  0  0  0  0  0  0  0  0
   37.1770   27.1210   34.6130 H   0  0  0  0  0  0  0  0  0  0  0  0
   38.1870   22.1310   33.3950 C   0  0  0  0  0  0  0  0  0  0  0  0
   39.3230   21.6330   33.5030 O   0  0  0  0  0  0  0  0  0  0  0  0
   37.1430   21.2610   32.9270 C   0  0  0  0  0  0  0  0  0  0  0  0
   36.0240   20.8330   33.5240 C   0  0  0  0  0  0  0  0  0  0  0  0
   35.7980   21.1540   34.5310 H   0  0  0  0  0  0  0  0  0  0  0  0
   35.1610   19.9930   32.8740 C   0  0  0  0  0  3  0  0  0  0  0  0
   35.5500   19.6260   31.5440 C   0  0  0  0  0  3  0  0  0  0  0  0
   37.1530   20.5110   31.2820 S   0  0  0  0  0  0  0  0  0  0  0  0
  1  2  1  0  0  0  0
  1  7  1  0  0  0  0
  2 18  1  0  0  0  0
  2  8  1  1  0  0  0
  3 10  1  0  0  0  0
  3  2  1  0  0  0  0
  4  3  1  0  0  0  0
  5 12  1  0  0  0  0
  5  4  1  0  0  0  0
  5  6  1  0  0  0  0
  6 14  1  6  0  0  0
  6  1  1  0  0  0  0
  9  3  1  0  0  0  0
 11  4  1  0  0  0  0
 13  5  1  0  0  0  0
 15  6  1  0  0  0  0
 15 16  1  0  0  0  0
 17 15  1  0  0  0  0
 18 21  1  0  0  0  0
 19 25  1  0  0  0  0
 20 26  1  0  0  0  0
 20 19  2  0  0  0  0
 21 20  1  0  0  0  0
 22 21  2  0  0  0  0
 22 23  1  0  0  0  0
 23 24  2  0  0  0  0
 24 19  1  0  0  0  0
 27 28  2  0  0  0  0
 27 23  1  0  0  0  0
 29 27  1  0  0  0  0
 29 30  2  0  0  0  0
 30 31  1  0  0  0  0
 32 30  1  0  0  0  0
 33 32  2  0  0  0  0
 34 33  1  0  0  0  0
 34 29  1  0  0  0  0
M  END
>  <minimizedAffinity>
-4.64033413

$$$$

 OpenBabel03262521023D

 34 36  0  0  1  0  0  0  0  0999 V2000
   42.1500   23.2990   36.5810 N   0  0  0  0  0  0  0  0  0  0  0  0
   41.2910   23.8690   35.5950 C   0  0  1  0  0  0  0  0  0  0  0  0
   41.4540   23.1480   34.2770 C   0  0  0  0  0  0  0  0  0  0  0  0
   41.1190   21.7490   34.5190 N   0  0  0  0  0  0  0  0  0  0  0  0
   42.2030   21.2280   35.3570 C   0  0  0  0  0  0  0  0  0  0  0  0
   42.0180   21.8770   36.7180 C   0  0  2  0  0  0  0  0  0  0  0  0
   42.3350   23.8260   37.4200 H   0  0  0  0  0  0  0  0  0  0  0  0
   41.5360   24.9290   35.4680 H   0  0  0  0  0  0  0  0  0  0  0  0
   42.4720   23.2550   33.8630 H   0  0  0  0  0  0  0  0  0  0  0  0
   40.7310   23.5730   33.5240 H   0  0  0  0  0  0  0  0  0  0  0  0
   41.2010   21.2740   33.5760 H   0  0  0  0  0  0  0  0  0  0  0  0
   43.1740   21.5420   34.9330 H   0  0  0  0  0  0  0  0  0  0  0  0
   42.1470   20.1240   35.4360 H   0  0  0  0  0  0  0  0  0  0  0  0
   42.8300   21.5010   37.3750 H   0  0  0  0  0  0  0  0  0  0  0  0
   40.7600   21.4730   37.2740 N   0  0  0  0  0  0  0  0  0  0  0  0
   40.5190   22.0130   38.1210 H   0  0  0  0  0  0  0  0  0  0  0  0
   40.7730   20.4490   37.4110 H   0  0  0  0  0  0  0  0  0  0  0  0
   39.5120   23.6970   36.0410 S   0  0  0  0  0  0  0  0  0  0  0  0
   37.6450   27.0900   34.8190 C   0  0  0  0  0  0  0  0  0  0  0  0
   38.4000   26.2410   35.5950 C   0  0  0  0  0  0  0  0  0  0  0  0
   38.5700   24.9360   35.1680 C   0  0  0  0  0  0  0  0  0  0  0  0
   37.9730   24.5380   33.9740 N   0  0  0  0  0  0  0  0  0  0  0  0
   37.2590   25.4090   33.2750 C   0  0  0  0  0  0  0  0  0  0  0  0
   37.0830   26.6850   33.6770 N   0  0  0  0  0  0  0  0  0  0  0  0
   37.5320   28.1060   35.1810 H   0  0  0  0  0  0  0  0  0  0  0  0
   38.8750   26.5100   36.5180 H   0  0  0  0  0  0  0  0  0  0  0  0
   36.6330   25.0080   32.0320 C   0  0  0  0  0  0  0  0  0  0  0  0
   36.1080   25.8210   31.2490 O   0  0  0  0  0  0  0  0  0  0  0  0
   36.5940   23.6230   31.6490 C   0  0  0  0  0  0  0  0  0  0  0  0
   35.6110   22.7190   31.7240 C   0  0  0  0  0  0  0  0  0  0  0  0
   34.6510   23.0040   32.1310 H   0  0  0  0  0  0  0  0  0  0  0  0
   35.8050   21.4350   31.2900 C   0  0  0  0  0  3  0  0  0  0  0  0
   37.1100   21.1570   30.7670 C   0  0  0  0  0  3  0  0  0  0  0  0
   38.0110   22.7660   30.9230 S   0  0  0  0  0  0  0  0  0  0  0  0
  1  6  1  0  0  0  0
  1  7  1  0  0  0  0
  2  8  1  6  0  0  0
  2 18  1  0  0  0  0
  2  1  1  0  0  0  0
  3  4  1  0  0  0  0
  3  2  1  0  0  0  0
  4  5  1  0  0  0  0
  5 13  1  0  0  0  0
  5  6  1  0  0  0  0
  6 15  1  0  0  0  0
  6 14  1  1  0  0  0
  9  3  1  0  0  0  0
 10  3  1  0  0  0  0
 11  4  1  0  0  0  0
 12  5  1  0  0  0  0
 15 17  1  0  0  0  0
 15 16  1  0  0  0  0
 19 25  1  0  0  0  0
 19 20  1  0  0  0  0
 20 26  1  0  0  0  0
 21 20  2  0  0  0  0
 21 18  1  0  0  0  0
 22 21  1  0  0  0  0
 23 24  1  0  0  0  0
 23 22  2  0  0  0  0
 24 19  2  0  0  0  0
 27 23  1  0  0  0  0
 28 27  2  0  0  0  0
 29 30  2  0  0  0  0
 29 27  1  0  0  0  0
 30 31  1  0  0  0  0
 32 30  1  0  0  0  0
 33 34  1  0  0  0  0
 33 32  2  0  0  0  0
 34 29  1  0  0  0  0
M  END
>  <minimizedAffinity>
-4.63651323

$$$$
