
 OpenBabel03272508433D

 17 18  0  0  0  0  0  0  0  0999 V2000
   36.8080   21.2800   33.3880 C   0  0  0  0  0  0  0  0  0  0  0  0
   35.7330   20.7060   34.0830 C   0  0  0  0  0  0  0  0  0  0  0  0
   35.6930   20.8600   35.4780 C   0  0  0  0  0  0  0  0  0  0  0  0
   36.6910   21.5520   36.0810 N   0  0  0  0  0  0  0  0  0  0  0  0
   37.7140   22.0930   35.3760 C   0  0  0  0  0  0  0  0  0  0  0  0
   37.7690   21.9590   34.0570 N   0  0  0  0  0  0  0  0  0  0  0  0
   36.7840   21.1300   32.3250 H   0  0  0  0  0  0  0  0  0  0  0  0
   34.9650   20.1630   33.5580 H   0  0  0  0  0  0  0  0  0  0  0  0
   34.8830   20.4290   36.0320 H   0  0  0  0  0  0  0  0  0  0  0  0
   38.7880   22.8330   36.0080 C   0  0  0  0  0  0  0  0  0  0  0  0
   39.6850   22.2900   36.7100 O   0  0  0  0  0  0  0  0  0  0  0  0
   38.8550   24.2810   35.8410 C   0  0  0  0  0  0  0  0  0  0  0  0
   38.1400   25.2550   36.4110 C   0  0  0  0  0  0  0  0  0  0  0  0
   37.3590   24.9760   37.1350 H   0  0  0  0  0  0  0  0  0  0  0  0
   38.3380   26.5660   36.1340 C   0  0  0  0  0  3  0  0  0  0  0  0
   39.3900   26.8050   35.1710 C   0  0  0  0  0  3  0  0  0  0  0  0
   39.9830   25.0830   34.7670 S   0  0  0  0  0  0  0  0  0  0  0  0
  1  6  2  0  0  0  0
  1  2  1  0  0  0  0
  2  3  2  0  0  0  0
  3  9  1  0  0  0  0
  3  4  1  0  0  0  0
  5 10  1  0  0  0  0
  5  4  2  0  0  0  0
  6  5  1  0  0  0  0
  7  1  1  0  0  0  0
  8  2  1  0  0  0  0
 10 11  2  0  0  0  0
 12 10  1  0  0  0  0
 12 13  2  0  0  0  0
 13 14  1  0  0  0  0
 15 13  1  0  0  0  0
 16 15  2  0  0  0  0
 17 16  1  0  0  0  0
 17 12  1  0  0  0  0
M  END
>  <minimizedAffinity>
-3.93374658

$$$$

 OpenBabel03272508433D

 17 18  0  0  0  0  0  0  0  0999 V2000
   41.1380   21.8360   37.4890 C   0  0  0  0  0  0  0  0  0  0  0  0
   42.1800   22.1960   36.6210 C   0  0  0  0  0  0  0  0  0  0  0  0
   41.9300   23.2050   35.6760 C   0  0  0  0  0  0  0  0  0  0  0  0
   40.7020   23.7760   35.6500 N   0  0  0  0  0  0  0  0  0  0  0  0
   39.7200   23.4030   36.5040 C   0  0  0  0  0  0  0  0  0  0  0  0
   39.9360   22.4520   37.4060 N   0  0  0  0  0  0  0  0  0  0  0  0
   41.3880   21.0610   38.1890 H   0  0  0  0  0  0  0  0  0  0  0  0
   43.1390   21.7100   36.6810 H   0  0  0  0  0  0  0  0  0  0  0  0
   42.7100   23.4970   35.0010 H   0  0  0  0  0  0  0  0  0  0  0  0
   38.4010   24.0040   36.4850 C   0  0  0  0  0  0  0  0  0  0  0  0
   37.3920   23.4820   37.0340 O   0  0  0  0  0  0  0  0  0  0  0  0
   38.2040   25.2770   35.7990 C   0  0  0  0  0  0  0  0  0  0  0  0
   38.2680   26.5300   36.2580 C   0  0  0  0  0  0  0  0  0  0  0  0
   38.5040   26.6860   37.3220 H   0  0  0  0  0  0  0  0  0  0  0  0
   38.0530   27.6100   35.4710 C   0  0  0  0  0  3  0  0  0  0  0  0
   37.7530   27.2770   34.0950 C   0  0  0  0  0  3  0  0  0  0  0  0
   37.8140   25.4120   34.0970 S   0  0  0  0  0  0  0  0  0  0  0  0
  1  7  1  0  0  0  0
  2  8  1  0  0  0  0
  2  1  2  0  0  0  0
  3  2  1  0  0  0  0
  4  3  2  0  0  0  0
  4  5  1  0  0  0  0
  5  6  2  0  0  0  0
  6  1  1  0  0  0  0
  9  3  1  0  0  0  0
 10  5  1  0  0  0  0
 10 11  2  0  0  0  0
 12 13  2  0  0  0  0
 12 10  1  0  0  0  0
 13 14  1  0  0  0  0
 15 13  1  0  0  0  0
 16 17  1  0  0  0  0
 16 15  2  0  0  0  0
 17 12  1  0  0  0  0
M  END
>  <minimizedAffinity>
-3.82877588

$$$$

 OpenBabel03272508433D

 17 18  0  0  0  0  0  0  0  0999 V2000
   39.8570   22.6390   37.6680 C   0  0  0  0  0  0  0  0  0  0  0  0
   38.9600   23.3920   38.4400 C   0  0  0  0  0  0  0  0  0  0  0  0
   37.8640   23.9800   37.7880 C   0  0  0  0  0  0  0  0  0  0  0  0
   37.7290   23.7930   36.4530 N   0  0  0  0  0  0  0  0  0  0  0  0
   38.6160   23.0580   35.7400 C   0  0  0  0  0  0  0  0  0  0  0  0
   39.6580   22.4940   36.3380 N   0  0  0  0  0  0  0  0  0  0  0  0
   40.6740   22.2150   38.2210 H   0  0  0  0  0  0  0  0  0  0  0  0
   39.1120   23.5140   39.4990 H   0  0  0  0  0  0  0  0  0  0  0  0
   37.1640   24.5620   38.3550 H   0  0  0  0  0  0  0  0  0  0  0  0
   38.4850   22.8520   34.3110 C   0  0  0  0  0  0  0  0  0  0  0  0
   39.3240   23.2760   33.4690 O   0  0  0  0  0  0  0  0  0  0  0  0
   37.3320   22.1210   33.7960 C   0  0  0  0  0  0  0  0  0  0  0  0
   36.6140   21.1340   34.3420 C   0  0  0  0  0  0  0  0  0  0  0  0
   36.8950   20.7750   35.3440 H   0  0  0  0  0  0  0  0  0  0  0  0
   35.5610   20.5610   33.7140 C   0  0  0  0  0  3  0  0  0  0  0  0
   35.2900   21.1180   32.4060 C   0  0  0  0  0  3  0  0  0  0  0  0
   36.6100   22.4250   32.2290 S   0  0  0  0  0  0  0  0  0  0  0  0
  1  7  1  0  0  0  0
  1  2  1  0  0  0  0
  2  8  1  0  0  0  0
  3  9  1  0  0  0  0
  3  2  2  0  0  0  0
  4  3  1  0  0  0  0
  5  6  1  0  0  0  0
  5  4  2  0  0  0  0
  6  1  2  0  0  0  0
 10  5  1  0  0  0  0
 11 10  2  0  0  0  0
 12 10  1  0  0  0  0
 12 13  2  0  0  0  0
 13 14  1  0  0  0  0
 15 13  1  0  0  0  0
 16 15  2  0  0  0  0
 17 16  1  0  0  0  0
 17 12  1  0  0  0  0
M  END
>  <minimizedAffinity>
-3.74533868

$$$$

 OpenBabel03272508433D

 17 18  0  0  0  0  0  0  0  0999 V2000
   38.4240   27.1830   35.7750 C   0  0  0  0  0  0  0  0  0  0  0  0
   38.0570   27.2710   34.4240 C   0  0  0  0  0  0  0  0  0  0  0  0
   37.7350   26.0820   33.7500 C   0  0  0  0  0  0  0  0  0  0  0  0
   37.7960   24.9140   34.4350 N   0  0  0  0  0  0  0  0  0  0  0  0
   38.1540   24.8670   35.7400 C   0  0  0  0  0  0  0  0  0  0  0  0
   38.4610   25.9800   36.3950 N   0  0  0  0  0  0  0  0  0  0  0  0
   38.6580   28.1230   36.2360 H   0  0  0  0  0  0  0  0  0  0  0  0
   38.0260   28.2240   33.9230 H   0  0  0  0  0  0  0  0  0  0  0  0
   37.4530   26.1220   32.7160 H   0  0  0  0  0  0  0  0  0  0  0  0
   38.2250   23.6250   36.4840 C   0  0  0  0  0  0  0  0  0  0  0  0
   37.2430   23.1290   37.1010 O   0  0  0  0  0  0  0  0  0  0  0  0
   39.4880   22.8940   36.5380 C   0  0  0  0  0  0  0  0  0  0  0  0
   40.2170   22.4970   37.5840 C   0  0  0  0  0  0  0  0  0  0  0  0
   39.8520   22.7310   38.5960 H   0  0  0  0  0  0  0  0  0  0  0  0
   41.3820   21.8200   37.4500 C   0  0  0  0  0  3  0  0  0  0  0  0
   41.7560   21.5720   36.0740 C   0  0  0  0  0  3  0  0  0  0  0  0
   40.3600   22.3570   35.1160 S   0  0  0  0  0  0  0  0  0  0  0  0
  1  7  1  0  0  0  0
  1  6  1  0  0  0  0
  2  1  2  0  0  0  0
  3  2  1  0  0  0  0
  3  4  2  0  0  0  0
  4  5  1  0  0  0  0
  5  6  2  0  0  0  0
  5 10  1  0  0  0  0
  8  2  1  0  0  0  0
  9  3  1  0  0  0  0
 10 12  1  0  0  0  0
 10 11  2  0  0  0  0
 12 13  2  0  0  0  0
 13 14  1  0  0  0  0
 15 13  1  0  0  0  0
 16 15  2  0  0  0  0
 17 16  1  0  0  0  0
 17 12  1  0  0  0  0
M  END
>  <minimizedAffinity>
-3.72979164

$$$$

 OpenBabel03272508433D

 17 18  0  0  0  0  0  0  0  0999 V2000
   35.5280   23.9980   31.2420 C   0  0  0  0  0  0  0  0  0  0  0  0
   35.0250   25.2640   30.9080 C   0  0  0  0  0  0  0  0  0  0  0  0
   35.6910   26.3920   31.4140 C   0  0  0  0  0  0  0  0  0  0  0  0
   36.7810   26.2020   32.1960 N   0  0  0  0  0  0  0  0  0  0  0  0
   37.2390   24.9630   32.4980 C   0  0  0  0  0  0  0  0  0  0  0  0
   36.6240   23.8840   32.0290 N   0  0  0  0  0  0  0  0  0  0  0  0
   34.9780   23.1750   30.8270 H   0  0  0  0  0  0  0  0  0  0  0  0
   34.1530   25.3620   30.2830 H   0  0  0  0  0  0  0  0  0  0  0  0
   35.3260   27.3710   31.1740 H   0  0  0  0  0  0  0  0  0  0  0  0
   38.4020   24.7450   33.3360 C   0  0  0  0  0  0  0  0  0  0  0  0
   39.5870   24.8580   32.9200 O   0  0  0  0  0  0  0  0  0  0  0  0
   38.2160   24.3740   34.7350 C   0  0  0  0  0  0  0  0  0  0  0  0
   38.0910   25.1350   35.8270 C   0  0  0  0  0  0  0  0  0  0  0  0
   38.1260   26.2290   35.7090 H   0  0  0  0  0  0  0  0  0  0  0  0
   37.9250   24.6160   37.0660 C   0  0  0  0  0  3  0  0  0  0  0  0
   37.8950   23.1700   37.0910 C   0  0  0  0  0  3  0  0  0  0  0  0
   38.1150   22.7170   35.2940 S   0  0  0  0  0  0  0  0  0  0  0  0
  1  6  1  0  0  0  0
  2  1  2  0  0  0  0
  2  3  1  0  0  0  0
  3  4  2  0  0  0  0
  4  5  1  0  0  0  0
  5 10  1  0  0  0  0
  6  5  2  0  0  0  0
  7  1  1  0  0  0  0
  8  2  1  0  0  0  0
  9  3  1  0  0  0  0
 10 12  1  0  0  0  0
 11 10  2  0  0  0  0
 12 17  1  0  0  0  0
 12 13  2  0  0  0  0
 13 15  1  0  0  0  0
 14 13  1  0  0  0  0
 15 16  2  0  0  0  0
 17 16  1  0  0  0  0
M  END
>  <minimizedAffinity>
-3.66822219

$$$$

 OpenBabel03272508433D

 17 18  0  0  0  0  0  0  0  0999 V2000
   37.8610   24.0720   38.1550 C   0  0  0  0  0  0  0  0  0  0  0  0
   38.9740   23.3690   38.6390 C   0  0  0  0  0  0  0  0  0  0  0  0
   39.8380   22.7790   37.7020 C   0  0  0  0  0  0  0  0  0  0  0  0
   39.5540   22.9170   36.3840 N   0  0  0  0  0  0  0  0  0  0  0  0
   38.4680   23.6040   35.9530 C   0  0  0  0  0  0  0  0  0  0  0  0
   37.6400   24.1690   36.8240 N   0  0  0  0  0  0  0  0  0  0  0  0
   37.2380   24.5000   38.9180 H   0  0  0  0  0  0  0  0  0  0  0  0
   39.1560   23.2860   39.6970 H   0  0  0  0  0  0  0  0  0  0  0  0
   40.6960   22.2360   38.0450 H   0  0  0  0  0  0  0  0  0  0  0  0
   38.1510   23.7560   34.5470 C   0  0  0  0  0  0  0  0  0  0  0  0
   37.6870   22.8240   33.8360 O   0  0  0  0  0  0  0  0  0  0  0  0
   38.3730   25.0450   33.8990 C   0  0  0  0  0  0  0  0  0  0  0  0
   39.4210   25.8730   33.9490 C   0  0  0  0  0  0  0  0  0  0  0  0
   40.2870   25.5840   34.5640 H   0  0  0  0  0  0  0  0  0  0  0  0
   39.4590   27.0470   33.2760 C   0  0  0  0  0  3  0  0  0  0  0  0
   38.2650   27.3130   32.5030 C   0  0  0  0  0  3  0  0  0  0  0  0
   37.2060   25.8150   32.8440 S   0  0  0  0  0  0  0  0  0  0  0  0
  1  2  1  0  0  0  0
  1  7  1  0  0  0  0
  2  8  1  0  0  0  0
  3  9  1  0  0  0  0
  3  2  2  0  0  0  0
  4  3  1  0  0  0  0
  5  4  2  0  0  0  0
  5  6  1  0  0  0  0
  6  1  2  0  0  0  0
 10  5  1  0  0  0  0
 11 10  2  0  0  0  0
 12 13  2  0  0  0  0
 12 10  1  0  0  0  0
 13 14  1  0  0  0  0
 15 13  1  0  0  0  0
 16 17  1  0  0  0  0
 16 15  2  0  0  0  0
 17 12  1  0  0  0  0
M  END
>  <minimizedAffinity>
-3.66643333

$$$$

 OpenBabel03272508433D

 17 18  0  0  0  0  0  0  0  0999 V2000
   36.2480   27.9240   32.6650 C   0  0  0  0  0  0  0  0  0  0  0  0
   36.0220   26.8530   31.7880 C   0  0  0  0  0  0  0  0  0  0  0  0
   36.5810   25.6060   32.1130 C   0  0  0  0  0  0  0  0  0  0  0  0
   37.3070   25.5010   33.2520 N   0  0  0  0  0  0  0  0  0  0  0  0
   37.5040   26.5580   34.0760 C   0  0  0  0  0  0  0  0  0  0  0  0
   36.9840   27.7450   33.7870 N   0  0  0  0  0  0  0  0  0  0  0  0
   35.7970   28.8500   32.3640 H   0  0  0  0  0  0  0  0  0  0  0  0
   35.4390   26.9880   30.8930 H   0  0  0  0  0  0  0  0  0  0  0  0
   36.4240   24.7720   31.4590 H   0  0  0  0  0  0  0  0  0  0  0  0
   38.2810   26.4600   35.2960 C   0  0  0  0  0  0  0  0  0  0  0  0
   38.7870   27.4580   35.8780 O   0  0  0  0  0  0  0  0  0  0  0  0
   38.5050   25.1500   35.8990 C   0  0  0  0  0  0  0  0  0  0  0  0
   37.8070   24.4900   36.8280 C   0  0  0  0  0  0  0  0  0  0  0  0
   36.9050   24.9670   37.2410 H   0  0  0  0  0  0  0  0  0  0  0  0
   38.1650   23.2650   37.2800 C   0  0  0  0  0  3  0  0  0  0  0  0
   39.3650   22.7440   36.6620 C   0  0  0  0  0  3  0  0  0  0  0  0
   39.8490   24.1060   35.4810 S   0  0  0  0  0  0  0  0  0  0  0  0
  1  6  1  0  0  0  0
  2  3  1  0  0  0  0
  2  1  2  0  0  0  0
  3  4  2  0  0  0  0
  4  5  1  0  0  0  0
  5 10  1  0  0  0  0
  6  5  2  0  0  0  0
  7  1  1  0  0  0  0
  8  2  1  0  0  0  0
  9  3  1  0  0  0  0
 10 11  2  0  0  0  0
 10 12  1  0  0  0  0
 12 13  2  0  0  0  0
 13 14  1  0  0  0  0
 13 15  1  0  0  0  0
 16 15  2  0  0  0  0
 17 12  1  0  0  0  0
 17 16  1  0  0  0  0
M  END
>  <minimizedAffinity>
-3.6337924

$$$$

 OpenBabel03272508433D

 17 18  0  0  0  0  0  0  0  0999 V2000
   35.7130   20.7600   35.4210 C   0  0  0  0  0  0  0  0  0  0  0  0
   35.8740   20.7120   34.0280 C   0  0  0  0  0  0  0  0  0  0  0  0
   36.9190   21.4610   33.4610 C   0  0  0  0  0  0  0  0  0  0  0  0
   37.7140   22.1880   34.2830 N   0  0  0  0  0  0  0  0  0  0  0  0
   37.5280   22.2090   35.6250 C   0  0  0  0  0  0  0  0  0  0  0  0
   36.5460   21.5080   36.1800 N   0  0  0  0  0  0  0  0  0  0  0  0
   34.8990   20.1690   35.7960 H   0  0  0  0  0  0  0  0  0  0  0  0
   35.2140   20.1200   33.4170 H   0  0  0  0  0  0  0  0  0  0  0  0
   37.0630   21.4430   32.3990 H   0  0  0  0  0  0  0  0  0  0  0  0
   38.3690   22.9840   36.5150 C   0  0  0  0  0  0  0  0  0  0  0  0
   37.9190   23.8500   37.3150 O   0  0  0  0  0  0  0  0  0  0  0  0
   39.8130   22.7710   36.5020 C   0  0  0  0  0  0  0  0  0  0  0  0
   40.5680   21.8980   37.1760 C   0  0  0  0  0  0  0  0  0  0  0  0
   40.0710   21.2010   37.8680 H   0  0  0  0  0  0  0  0  0  0  0  0
   41.9140   21.8380   37.0420 C   0  0  0  0  0  3  0  0  0  0  0  0
   42.4480   22.8030   36.1050 C   0  0  0  0  0  3  0  0  0  0  0  0
   40.9220   23.7010   35.5160 S   0  0  0  0  0  0  0  0  0  0  0  0
  1  7  1  0  0  0  0
  1  6  1  0  0  0  0
  2  1  2  0  0  0  0
  3  2  1  0  0  0  0
  3  4  2  0  0  0  0
  4  5  1  0  0  0  0
  5  6  2  0  0  0  0
  5 10  1  0  0  0  0
  8  2  1  0  0  0  0
  9  3  1  0  0  0  0
 10 11  2  0  0  0  0
 12 10  1  0  0  0  0
 12 13  2  0  0  0  0
 13 14  1  0  0  0  0
 15 13  1  0  0  0  0
 16 15  2  0  0  0  0
 17 16  1  0  0  0  0
 17 12  1  0  0  0  0
M  END
>  <minimizedAffinity>
-3.62023592

$$$$

 OpenBabel03272508433D

 17 18  0  0  0  0  0  0  0  0999 V2000
   36.2980   23.9240   31.6610 C   0  0  0  0  0  0  0  0  0  0  0  0
   35.9240   22.5720   31.7160 C   0  0  0  0  0  0  0  0  0  0  0  0
   36.5380   21.7590   32.6820 C   0  0  0  0  0  0  0  0  0  0  0  0
   37.4560   22.3160   33.5080 N   0  0  0  0  0  0  0  0  0  0  0  0
   37.7920   23.6260   33.4260 C   0  0  0  0  0  0  0  0  0  0  0  0
   37.2220   24.4120   32.5200 N   0  0  0  0  0  0  0  0  0  0  0  0
   35.7950   24.4950   30.9030 H   0  0  0  0  0  0  0  0  0  0  0  0
   35.1900   22.1760   31.0350 H   0  0  0  0  0  0  0  0  0  0  0  0
   36.2710   20.7220   32.7440 H   0  0  0  0  0  0  0  0  0  0  0  0
   38.7740   24.2340   34.3010 C   0  0  0  0  0  0  0  0  0  0  0  0
   39.7240   24.9510   33.8850 O   0  0  0  0  0  0  0  0  0  0  0  0
   38.6800   24.0180   35.7420 C   0  0  0  0  0  0  0  0  0  0  0  0
   37.8830   24.5810   36.6550 C   0  0  0  0  0  0  0  0  0  0  0  0
   37.1580   25.3390   36.3200 H   0  0  0  0  0  0  0  0  0  0  0  0
   37.9330   24.2580   37.9690 C   0  0  0  0  0  3  0  0  0  0  0  0
   38.9240   23.2520   38.2830 C   0  0  0  0  0  3  0  0  0  0  0  0
   39.6840   22.8820   36.6200 S   0  0  0  0  0  0  0  0  0  0  0  0
  1  2  2  0  0  0  0
  1  6  1  0  0  0  0
  2  3  1  0  0  0  0
  3  9  1  0  0  0  0
  3  4  2  0  0  0  0
  5  4  1  0  0  0  0
  5 10  1  0  0  0  0
  6  5  2  0  0  0  0
  7  1  1  0  0  0  0
  8  2  1  0  0  0  0
 10 12  1  0  0  0  0
 11 10  2  0  0  0  0
 12 17  1  0  0  0  0
 12 13  2  0  0  0  0
 13 15  1  0  0  0  0
 14 13  1  0  0  0  0
 15 16  2  0  0  0  0
 17 16  1  0  0  0  0
M  END
>  <minimizedAffinity>
-3.60814977

$$$$
