
 OpenBabel03272508423D

 17 18  0  0  0  0  0  0  0  0999 V2000
   32.3210   30.8780   45.6830 C   0  0  0  0  0  0  0  0  0  0  0  0
   32.9410   30.9120   44.4250 C   0  0  0  0  0  0  0  0  0  0  0  0
   34.0700   30.1010   44.2260 C   0  0  0  0  0  0  0  0  0  0  0  0
   34.5020   29.3290   45.2540 N   0  0  0  0  0  0  0  0  0  0  0  0
   33.8770   29.3220   46.4550 C   0  0  0  0  0  0  0  0  0  0  0  0
   32.8080   30.0810   46.6630 N   0  0  0  0  0  0  0  0  0  0  0  0
   31.4640   31.5180   45.7760 H   0  0  0  0  0  0  0  0  0  0  0  0
   32.5610   31.5440   43.6410 H   0  0  0  0  0  0  0  0  0  0  0  0
   34.5630   30.1090   43.2740 H   0  0  0  0  0  0  0  0  0  0  0  0
   34.3290   28.5040   47.5640 C   0  0  0  0  0  0  0  0  0  0  0  0
   34.0880   27.2700   47.6580 O   0  0  0  0  0  0  0  0  0  0  0  0
   35.1030   29.1190   48.6370 C   0  0  0  0  0  0  0  0  0  0  0  0
   35.2030   28.7990   49.9310 C   0  0  0  0  0  0  0  0  0  0  0  0
   34.6270   27.9370   50.3010 H   0  0  0  0  0  0  0  0  0  0  0  0
   35.9790   29.4890   50.8000 C   0  0  0  0  0  3  0  0  0  0  0  0
   36.6830   30.5980   50.1930 C   0  0  0  0  0  3  0  0  0  0  0  0
   36.1360   30.5160   48.4110 S   0  0  0  0  0  0  0  0  0  0  0  0
  1  7  1  0  0  0  0
  1  6  1  0  0  0  0
  2  1  2  0  0  0  0
  3  2  1  0  0  0  0
  3  4  2  0  0  0  0
  4  5  1  0  0  0  0
  5  6  2  0  0  0  0
  5 10  1  0  0  0  0
  8  2  1  0  0  0  0
  9  3  1  0  0  0  0
 10 11  2  0  0  0  0
 10 12  1  0  0  0  0
 12 13  2  0  0  0  0
 13 14  1  0  0  0  0
 13 15  1  0  0  0  0
 16 15  2  0  0  0  0
 17 12  1  0  0  0  0
 17 16  1  0  0  0  0
M  END
>  <minimizedAffinity>
-3.27640605

>  <minimizedRMSD>
5.07930279

$$$$
