REMARK  Name = 
REMARK  2 active torsions:
REMARK  status: ('A' for Active; 'I' for Inactive)
REMARK    1  A    between atoms: C_5  and  C_7
REMARK    2  A    between atoms: C_7  and  C_12
REMARK                            x       y       z     vdW  Elec       q    Type
REMARK                         _______ _______ _______ _____ _____    ______ ____
ROOT
ATOM      1  C   UNL     1      37.268  30.184  51.431  0.00  0.00    +0.000 A 
ATOM      2  C   UNL     1      38.096  30.757  50.454  0.00  0.00    +0.000 A 
ATOM      3  C   UNL     1      37.803  30.493  49.106  0.00  0.00    +0.000 A 
ATOM      4  N   UNL     1      36.741  29.702  48.818  0.00  0.00    +0.000 NA
ATOM      5  C   UNL     1      35.963  29.166  49.789  0.00  0.00    +0.000 A 
ATOM      6  N   UNL     1      36.223  29.404  51.069  0.00  0.00    +0.000 NA
ATOM      7  H   UNL     1      37.541  30.421  52.442  0.00  0.00    +0.000 HD
ATOM      8  H   UNL     1      38.930  31.378  50.734  0.00  0.00    +0.000 HD
ATOM      9  H   UNL     1      38.421  30.918  48.340  0.00  0.00    +0.000 HD
ENDROOT
BRANCH   5  10
ATOM     10  C   UNL     1      34.826  28.316  49.495  0.00  0.00    +0.000 C 
ATOM     11  O   UNL     1      33.630  28.712  49.557  0.00  0.00    +0.000 OA
BRANCH  10  12
ATOM     12  C   UNL     1      35.052  26.927  49.108  0.00  0.00    +0.000 A 
ATOM     13  C   UNL     1      35.405  25.867  49.841  0.00  0.00    +0.000 A 
ATOM     14  H   UNL     1      35.565  26.008  50.921  0.00  0.00    +0.000 HD
ATOM     15  C   UNL     1      35.574  24.633  49.311  0.00  0.00    +0.000 A 
ATOM     16  C   UNL     1      35.336  24.576  47.884  0.00  0.00    +0.000 A 
ATOM     17  S   UNL     1      34.889  26.339  47.466  0.00  0.00    +0.000 S 
ENDBRANCH  10  12
ENDBRANCH   5  10
TORSDOF 2
