
     RDKit          3D

 31 33  0  0  0  0  0  0  0  0999 V2000
   36.5326   29.7743   49.1916 N   0  0  0  0  0  0  0  0  0  0  0  0
   37.2874   30.9007   48.7643 C   0  0  1  0  0  0  0  0  0  0  0  0
   37.9550   31.4239   50.0145 C   0  0  0  0  0  0  0  0  0  0  0  0
   37.5372   30.4121   51.1091 C   0  0  0  0  0  0  0  0  0  0  0  0
   37.2399   29.2087   50.2975 C   0  0  0  0  0  0  0  0  0  0  0  0
   35.3093   29.3232   48.6288 C   0  0  0  0  0  0  0  0  0  0  0  0
   34.7156   30.0985   47.6183 C   0  0  0  0  0  0  0  0  0  0  0  0
   33.5166   29.6711   47.0402 C   0  0  0  0  0  0  0  0  0  0  0  0
   32.9941   28.4777   47.5279 N   0  0  0  0  0  0  0  0  0  0  0  0
   33.5945   27.7771   48.4889 C   0  0  0  0  0  0  0  0  0  0  0  0
   34.7695   28.1773   49.0690 N   0  0  0  0  0  0  0  0  0  0  0  0
   38.1063   30.7821   47.5921 C   0  0  0  0  0  0  0  0  0  0  0  0
   39.0489   31.5003   47.4148 O   0  0  0  0  0  0  0  0  0  0  0  0
   36.5217   31.7486   48.4926 H   0  0  0  0  0  0  0  0  0  0  0  0
   39.0450   31.4358   49.8712 H   0  0  0  0  0  0  0  0  0  0  0  0
   37.5229   32.3761   50.3559 H   0  0  0  0  0  0  0  0  0  0  0  0
   38.4734   30.2361   51.6929 H   0  0  0  0  0  0  0  0  0  0  0  0
   36.7045   30.7666   51.7090 H   0  0  0  0  0  0  0  0  0  0  0  0
   38.1361   28.6342   50.0185 H   0  0  0  0  0  0  0  0  0  0  0  0
   36.5838   28.5043   50.8847 H   0  0  0  0  0  0  0  0  0  0  0  0
   35.1144   31.0254   47.2333 H   0  0  0  0  0  0  0  0  0  0  0  0
   33.0443   30.2515   46.2627 H   0  0  0  0  0  0  0  0  0  0  0  0
   33.0992   26.8616   48.7927 H   0  0  0  0  0  0  0  0  0  0  0  0
   38.2536   30.0096   46.3048 C   0  0  0  0  0  0  0  0  0  0  0  0
   38.4792   28.7207   46.1929 C   0  0  0  0  0  0  0  0  0  0  0  0
   38.6132   27.8984   46.8757 H   0  0  0  0  0  0  0  0  0  0  0  0
   38.6192   28.0689   45.0261 C   0  0  0  0  0  0  0  0  0  0  0  0
   38.5001   28.9149   43.8710 C   0  0  0  0  0  0  0  0  0  0  0  0
   38.1861   30.6187   44.7017 S   0  0  0  0  0  0  0  0  0  0  0  0
   38.7833   27.2009   44.4253 H   0  0  0  0  0  0  0  0  0  0  0  0
   38.4882   29.1375   42.7361 H   0  0  0  0  0  0  0  0  0  0  0  0
  1  5  1  0
  2  1  1  0
  2  3  1  0
  3  4  1  0
  5  4  1  0
  6 11  1  0
  6  1  1  0
  7  6  2  0
  8  9  2  0
  8  7  1  0
  9 10  1  0
 10 11  2  0
 12  2  1  0
 13 12  2  0
  2 14  1  6
  3 15  1  0
  3 16  1  0
  4 17  1  0
  4 18  1  0
  5 19  1  0
  5 20  1  0
  7 21  1  0
  8 22  1  0
 10 23  1  0
 24 25  2  0
 25 26  1  0
 25 27  1  0
 27 28  2  0
 28 29  1  0
 29 24  1  0
 27 30  1  0
 28 31  1  0
 12 24  1  0
M  ISO  8  14  13  15  13  16  13  17  13  18  13  19  13  20  13  21  14
M  ISO  3  22  14  23  14  26  15
M  END
>  <DihAtoms>  (1) 
1,11,23,24

>  <DihDeg>  (1) 
-2.9719039512987693

$$$$
