
 OpenBabel03272508423D

 17 18  0  0  0  0  0  0  0  0999 V2000
   37.7170   30.2700   51.1660 C   0  0  0  0  0  0  0  0  0  0  0  0
   38.2720   31.1730   50.2460 C   0  0  0  0  0  0  0  0  0  0  0  0
   37.4980   31.5350   49.1320 C   0  0  0  0  0  0  0  0  0  0  0  0
   36.2610   30.9980   49.0010 N   0  0  0  0  0  0  0  0  0  0  0  0
   35.7580   30.1290   49.9110 C   0  0  0  0  0  0  0  0  0  0  0  0
   36.4730   29.7740   50.9710 N   0  0  0  0  0  0  0  0  0  0  0  0
   38.3550   30.0310   51.9960 H   0  0  0  0  0  0  0  0  0  0  0  0
   39.2620   31.5710   50.3940 H   0  0  0  0  0  0  0  0  0  0  0  0
   37.9000   32.2220   48.4130 H   0  0  0  0  0  0  0  0  0  0  0  0
   34.4370   29.5450   49.7820 C   0  0  0  0  0  0  0  0  0  0  0  0
   33.5320   29.6780   50.6500 O   0  0  0  0  0  0  0  0  0  0  0  0
   34.1170   28.7560   48.5960 C   0  0  0  0  0  0  0  0  0  0  0  0
   34.0920   27.4320   48.4140 C   0  0  0  0  0  0  0  0  0  0  0  0
   34.3490   26.7820   49.2640 H   0  0  0  0  0  0  0  0  0  0  0  0
   33.7670   26.8620   47.2290 C   0  0  0  0  0  3  0  0  0  0  0  0
   33.4520   27.8190   46.1910 C   0  0  0  0  0  3  0  0  0  0  0  0
   33.6640   29.4590   47.0570 S   0  0  0  0  0  0  0  0  0  0  0  0
  1  7  1  0  0  0  0
  2  8  1  0  0  0  0
  2  1  2  0  0  0  0
  3  2  1  0  0  0  0
  4  3  2  0  0  0  0
  4  5  1  0  0  0  0
  5  6  2  0  0  0  0
  6  1  1  0  0  0  0
  9  3  1  0  0  0  0
 10  5  1  0  0  0  0
 10 11  2  0  0  0  0
 12 10  1  0  0  0  0
 13 12  2  0  0  0  0
 13 14  1  0  0  0  0
 15 13  1  0  0  0  0
 16 17  1  0  0  0  0
 16 15  2  0  0  0  0
 17 12  1  0  0  0  0
M  END
>  <minimizedAffinity>
-4.0599165

>  <minimizedRMSD>
2.16406417

$$$$
