
 OpenBabel03272501293D

 17 18  0  0  0  0  0  0  0  0999 V2000
   37.5450   30.3130   50.8860 C   0  0  0  0  0  0  0  0  0  0  0  0
   38.2690   31.2380   50.1220 C   0  0  0  0  0  0  0  0  0  0  0  0
   38.0580   31.2510   48.7520 C   0  0  0  0  0  0  0  0  0  0  0  0
   37.1560   30.3600   48.2320 N   0  0  0  0  0  0  0  0  0  0  0  0
   36.4790   29.4890   48.9840 C   0  0  0  0  0  0  0  0  0  0  0  0
   36.6690   29.4590   50.3210 N   0  0  0  0  0  0  0  0  0  0  0  0
   37.6280   30.2120   51.9610 H   0  0  0  0  0  0  0  0  0  0  0  0
   38.9420   31.8790   50.6410 H   0  0  0  0  0  0  0  0  0  0  0  0
   35.7930   28.8340   48.4620 H   0  0  0  0  0  0  0  0  0  0  0  0
   38.7880   32.1890   47.9360 C   0  0  0  0  0  0  0  0  0  0  0  0
   39.1780   33.3220   48.3410 O   0  0  0  0  0  0  0  0  0  0  0  0
   39.1140   31.8500   46.5530 C   0  0  0  0  0  0  0  0  0  0  0  0
   40.1530   31.2070   46.0260 C   0  0  0  0  0  0  0  0  0  0  0  0
   40.9410   30.8410   46.7050 H   0  0  0  0  0  0  0  0  0  0  0  0
   40.2270   31.0130   44.6770 C   0  0  0  0  0  3  0  0  0  0  0  0
   39.1990   31.5040   43.9200 C   0  0  0  0  0  3  0  0  0  0  0  0
   38.1010   32.2630   45.1760 S   0  0  0  0  0  0  0  0  0  0  0  0
  1  7  1  0  0  0  0
  2  8  1  0  0  0  0
  2  1  2  0  0  0  0
  3  2  1  0  0  0  0
  4  3  2  0  0  0  0
  4  5  1  0  0  0  0
  5  6  2  0  0  0  0
  6  1  1  0  0  0  0
  9  5  1  0  0  0  0
 10 11  2  0  0  0  0
 10  3  1  0  0  0  0
 12 10  1  0  0  0  0
 13 12  2  0  0  0  0
 13 14  1  0  0  0  0
 15 13  1  0  0  0  0
 16 15  2  0  0  0  0
 16 17  1  0  0  0  0
 17 12  1  0  0  0  0
M  END
>  <minimizedAffinity>
-4.65187883

>  <minimizedRMSD>
1.78350401

$$$$
