
 OpenBabel03272501293D

 17 18  0  0  0  0  0  0  0  0999 V2000
   37.5160   30.2470   51.2720 C   0  0  0  0  0  0  0  0  0  0  0  0
   38.1490   31.0750   50.3340 C   0  0  0  0  0  0  0  0  0  0  0  0
   37.8460   30.8830   48.9950 C   0  0  0  0  0  0  0  0  0  0  0  0
   36.9480   29.8980   48.6730 N   0  0  0  0  0  0  0  0  0  0  0  0
   36.3600   29.1250   49.5870 C   0  0  0  0  0  0  0  0  0  0  0  0
   36.6400   29.2940   50.8980 N   0  0  0  0  0  0  0  0  0  0  0  0
   37.6750   30.3060   52.3410 H   0  0  0  0  0  0  0  0  0  0  0  0
   38.8280   31.8040   50.7070 H   0  0  0  0  0  0  0  0  0  0  0  0
   35.6680   28.3810   49.2140 H   0  0  0  0  0  0  0  0  0  0  0  0
   38.4810   31.7160   48.0030 C   0  0  0  0  0  0  0  0  0  0  0  0
   38.9140   32.8820   48.2340 O   0  0  0  0  0  0  0  0  0  0  0  0
   38.6520   31.2210   46.6390 C   0  0  0  0  0  0  0  0  0  0  0  0
   37.7780   30.7250   45.7670 C   0  0  0  0  0  0  0  0  0  0  0  0
   36.7200   30.6490   46.0700 H   0  0  0  0  0  0  0  0  0  0  0  0
   38.1960   30.3240   44.5310 C   0  0  0  0  0  3  0  0  0  0  0  0
   39.5270   30.4580   44.2500 C   0  0  0  0  0  3  0  0  0  0  0  0
   40.1960   31.1780   45.7970 S   0  0  0  0  0  0  0  0  0  0  0  0
  1  7  1  0  0  0  0
  2  8  1  0  0  0  0
  2  1  2  0  0  0  0
  3  2  1  0  0  0  0
  4  3  2  0  0  0  0
  4  5  1  0  0  0  0
  5  6  2  0  0  0  0
  6  1  1  0  0  0  0
  9  5  1  0  0  0  0
 10 11  2  0  0  0  0
 10  3  1  0  0  0  0
 12 10  1  0  0  0  0
 13 14  1  0  0  0  0
 13 12  2  0  0  0  0
 15 13  1  0  0  0  0
 16 15  2  0  0  0  0
 16 17  1  0  0  0  0
 17 12  1  0  0  0  0
M  END
>  <minimizedAffinity>
-4.52448368

>  <minimizedRMSD>
1.05497289

$$$$
