
 OpenBabel03272501293D

 17 18  0  0  0  0  0  0  0  0999 V2000
   37.5420   30.3010   50.8850 C   0  0  0  0  0  0  0  0  0  0  0  0
   38.2660   31.2280   50.1230 C   0  0  0  0  0  0  0  0  0  0  0  0
   38.0540   31.2450   48.7540 C   0  0  0  0  0  0  0  0  0  0  0  0
   37.1500   30.3570   48.2310 N   0  0  0  0  0  0  0  0  0  0  0  0
   36.4730   29.4850   48.9810 C   0  0  0  0  0  0  0  0  0  0  0  0
   36.6640   29.4500   50.3190 N   0  0  0  0  0  0  0  0  0  0  0  0
   37.6260   30.1980   51.9600 H   0  0  0  0  0  0  0  0  0  0  0  0
   38.9410   31.8660   50.6430 H   0  0  0  0  0  0  0  0  0  0  0  0
   35.7850   28.8320   48.4580 H   0  0  0  0  0  0  0  0  0  0  0  0
   38.7840   32.1850   47.9390 C   0  0  0  0  0  0  0  0  0  0  0  0
   39.1740   33.3170   48.3460 O   0  0  0  0  0  0  0  0  0  0  0  0
   39.1120   31.8480   46.5560 C   0  0  0  0  0  0  0  0  0  0  0  0
   40.1510   31.2040   46.0290 C   0  0  0  0  0  0  0  0  0  0  0  0
   40.9390   30.8390   46.7070 H   0  0  0  0  0  0  0  0  0  0  0  0
   40.2260   31.0130   44.6800 C   0  0  0  0  0  3  0  0  0  0  0  0
   39.1980   31.5050   43.9230 C   0  0  0  0  0  3  0  0  0  0  0  0
   38.0990   32.2620   45.1790 S   0  0  0  0  0  0  0  0  0  0  0  0
  1  7  1  0  0  0  0
  2  8  1  0  0  0  0
  2  1  2  0  0  0  0
  3  2  1  0  0  0  0
  4  3  2  0  0  0  0
  4  5  1  0  0  0  0
  5  6  2  0  0  0  0
  6  1  1  0  0  0  0
  9  5  1  0  0  0  0
 10 11  2  0  0  0  0
 10  3  1  0  0  0  0
 12 10  1  0  0  0  0
 13 12  2  0  0  0  0
 13 14  1  0  0  0  0
 15 13  1  0  0  0  0
 16 15  2  0  0  0  0
 16 17  1  0  0  0  0
 17 12  1  0  0  0  0
M  END
>  <minimizedAffinity>
-4.65224409

>  <minimizedRMSD>
1.81218004

$$$$
