REMARK  Name = 
REMARK  2 active torsions:
REMARK  status: ('A' for Active; 'I' for Inactive)
REMARK    1  A    between atoms: C_2  and  C_7
REMARK    2  A    between atoms: C_7  and  C_12
REMARK                            x       y       z     vdW  Elec       q    Type
REMARK                         _______ _______ _______ _____ _____    ______ ____
ROOT
ATOM      1  C   UNL     1      37.844  30.772  50.577  0.00  0.00    +0.000 A 
ATOM      2  C   UNL     1      37.565  31.568  49.448  0.00  0.00    +0.000 A 
ATOM      3  C   UNL     1      36.696  31.041  48.476  0.00  0.00    +0.000 A 
ATOM      4  N   UNL     1      36.168  29.805  48.660  0.00  0.00    +0.000 NA
ATOM      5  C   UNL     1      36.465  29.071  49.764  0.00  0.00    +0.000 A 
ATOM      6  N   UNL     1      37.292  29.537  50.721  0.00  0.00    +0.000 NA
ATOM      7  H   UNL     1      38.510  31.174  51.323  0.00  0.00    +0.000 HD
ATOM      8  H   UNL     1      36.480  31.651  47.609  0.00  0.00    +0.000 HD
ATOM      9  H   UNL     1      35.983  28.104  49.796  0.00  0.00    +0.000 HD
ENDROOT
BRANCH   2  10
ATOM     10  C   UNL     1      38.178  32.889  49.330  0.00  0.00    +0.000 C 
ATOM     11  O   UNL     1      38.947  33.048  48.390  0.00  0.00    +0.000 OA
BRANCH  10  12
ATOM     12  C   UNL     1      37.882  33.925  50.276  0.00  0.00    +0.000 A 
ATOM     13  C   UNL     1      38.634  34.975  50.730  0.00  0.00    +0.000 A 
ATOM     14  H   UNL     1      39.635  35.084  50.336  0.00  0.00    +0.000 HD
ATOM     15  C   UNL     1      38.058  35.812  51.654  0.00  0.00    +0.000 A 
ATOM     16  C   UNL     1      36.781  35.568  52.075  0.00  0.00    +0.000 A 
ATOM     17  S   UNL     1      36.317  34.062  51.130  0.00  0.00    +0.000 S 
ENDBRANCH  10  12
ENDBRANCH   2  10
TORSDOF 2
