
     RDKit          3D

 19 20  0  0  0  0  0  0  0  0999 V2000
   37.8444   30.7721   50.5773 C   0  0  0  0  0  0  0  0  0  0  0  0
   37.5645   31.5684   49.4477 C   0  0  0  0  0  0  0  0  0  0  0  0
   36.6957   31.0412   48.4760 C   0  0  0  0  0  0  0  0  0  0  0  0
   36.1682   29.8049   48.6601 N   0  0  0  0  0  0  0  0  0  0  0  0
   36.4649   29.0708   49.7644 C   0  0  0  0  0  0  0  0  0  0  0  0
   37.2924   29.5365   50.7209 N   0  0  0  0  0  0  0  0  0  0  0  0
   38.1781   32.8887   49.3303 C   0  0  0  0  0  0  0  0  0  0  0  0
   38.9468   33.0484   48.3904 O   0  0  0  0  0  0  0  0  0  0  0  0
   38.5095   31.1739   51.3227 H   0  0  0  0  0  0  0  0  0  0  0  0
   36.4805   31.6514   47.6094 H   0  0  0  0  0  0  0  0  0  0  0  0
   35.9831   28.1035   49.7958 H   0  0  0  0  0  0  0  0  0  0  0  0
   37.8815   33.9249   50.2755 C   0  0  0  0  0  0  0  0  0  0  0  0
   38.6344   34.9752   50.7299 C   0  0  0  0  0  0  0  0  0  0  0  0
   39.6348   35.0840   50.3360 H   0  0  0  0  0  0  0  0  0  0  0  0
   38.0581   35.8118   51.6541 C   0  0  0  0  0  0  0  0  0  0  0  0
   36.7812   35.5681   52.0755 C   0  0  0  0  0  0  0  0  0  0  0  0
   36.3166   34.0622   51.1300 S   0  0  0  0  0  0  0  0  0  0  0  0
   38.5988   36.6750   52.0649 H   0  0  0  0  0  0  0  0  0  0  0  0
   36.1895   36.0934   52.7658 H   0  0  0  0  0  0  0  0  0  0  0  0
  1  6  2  0
  2  1  1  0
  3  4  1  0
  3  2  2  0
  4  5  2  0
  5  6  1  0
  7  2  1  0
  8  7  2  0
  1  9  1  0
  3 10  1  0
  5 11  1  0
 12 13  2  0
 13 14  1  0
 13 15  1  0
 15 16  2  0
 16 17  1  0
 17 12  1  0
 15 18  1  0
 16 19  1  0
  7 12  1  0
M  ISO  4   9  14  10  14  11  14  14  15
M  END
>  <DihAtoms>  (1) 
1,6,11,12

>  <DihDeg>  (1) 
-179.999574926494

$$$$
