
 OpenBabel03272505093D

 26 28  0  0  0  0  0  0  0  0999 V2000
   38.8160   23.6210   33.6820 Cl  0  0  0  0  0  0  0  0  0  0  0  0
   37.5640   22.4180   33.7950 C   0  0  0  0  0  0  0  0  0  0  0  0
   37.3060   21.9230   35.0550 C   0  0  0  0  0  0  0  0  0  0  0  0
   36.3100   20.9600   35.1710 C   0  0  0  0  0  0  0  0  0  0  0  0
   35.6260   20.5390   34.0570 C   0  0  0  0  0  0  0  0  0  0  0  0
   35.9460   21.0860   32.8260 C   0  0  0  0  0  0  0  0  0  0  0  0
   36.9190   22.0400   32.6450 C   0  0  0  0  0  0  0  0  0  0  0  0
   36.0890   20.5560   36.1490 H   0  0  0  0  0  0  0  0  0  0  0  0
   34.8550   19.7850   34.1860 H   0  0  0  0  0  0  0  0  0  0  0  0
   35.3890   20.7370   31.9530 H   0  0  0  0  0  0  0  0  0  0  0  0
   38.0150   23.5860   38.2260 C   0  0  0  0  0  0  0  0  0  0  0  0
   39.3790   23.3130   38.4560 C   0  0  0  0  0  0  0  0  0  0  0  0
   40.0510   22.5450   37.5000 C   0  0  0  0  0  0  0  0  0  0  0  0
   39.3370   22.1250   36.4280 N   0  0  0  0  0  0  0  0  0  0  0  0
   38.0530   22.3920   36.2280 C   0  0  0  0  0  0  0  0  0  0  0  0
   37.4130   23.1210   37.1360 N   0  0  0  0  0  0  0  0  0  0  0  0
   37.5460   24.1760   38.9840 H   0  0  0  0  0  0  0  0  0  0  0  0
   39.8840   23.6810   39.3350 H   0  0  0  0  0  0  0  0  0  0  0  0
   41.0790   22.3010   37.6090 H   0  0  0  0  0  0  0  0  0  0  0  0
   37.3410   22.7520   31.0810 S   0  0  0  0  0  0  0  0  0  0  0  0
   36.8630   24.4620   31.0150 C   0  0  0  0  0  0  0  0  0  0  0  0
   35.5470   25.0080   31.0610 C   0  0  0  0  0  0  0  0  0  0  0  0
   34.7320   24.3100   31.1470 H   0  0  0  0  0  0  0  0  0  0  0  0
   35.4440   26.3730   30.9920 C   0  0  0  0  0  3  0  0  0  0  0  0
   36.5700   27.1390   30.8850 C   0  0  0  0  0  3  0  0  0  0  0  0
   37.9810   25.9490   30.8680 S   0  0  0  0  0  0  0  0  0  0  0  0
  1  2  1  0  0  0  0
  2  3  1  0  0  0  0
  3  4  2  0  0  0  0
  3 15  1  0  0  0  0
  4  8  1  0  0  0  0
  5  9  1  0  0  0  0
  5  4  1  0  0  0  0
  6  5  2  0  0  0  0
  7  6  1  0  0  0  0
  7  2  2  0  0  0  0
 10  6  1  0  0  0  0
 11 12  1  0  0  0  0
 11 17  1  0  0  0  0
 12 18  1  0  0  0  0
 13 19  1  0  0  0  0
 13 12  2  0  0  0  0
 14 13  1  0  0  0  0
 15 14  2  0  0  0  0
 15 16  1  0  0  0  0
 16 11  2  0  0  0  0
 20  7  1  0  0  0  0
 21 22  2  0  0  0  0
 21 20  1  0  0  0  0
 22 23  1  0  0  0  0
 24 22  1  0  0  0  0
 25 24  2  0  0  0  0
 26 25  1  0  0  0  0
 26 21  1  0  0  0  0
M  END
>  <minimizedAffinity>
-5.10722637

$$$$

 OpenBabel03272505093D

 26 28  0  0  0  0  0  0  0  0999 V2000
   38.5400   21.5810   33.6150 Cl  0  0  0  0  0  0  0  0  0  0  0  0
   37.5200   22.7670   32.8540 C   0  0  0  0  0  0  0  0  0  0  0  0
   36.4720   22.2800   32.1030 C   0  0  0  0  0  0  0  0  0  0  0  0
   35.6440   23.2080   31.4850 C   0  0  0  0  0  0  0  0  0  0  0  0
   35.8820   24.5520   31.6350 C   0  0  0  0  0  0  0  0  0  0  0  0
   36.9560   24.9610   32.4070 C   0  0  0  0  0  0  0  0  0  0  0  0
   37.8120   24.0940   33.0430 C   0  0  0  0  0  0  0  0  0  0  0  0
   34.8140   22.8500   30.8890 H   0  0  0  0  0  0  0  0  0  0  0  0
   35.2130   25.2480   31.1370 H   0  0  0  0  0  0  0  0  0  0  0  0
   37.1270   26.0360   32.5130 H   0  0  0  0  0  0  0  0  0  0  0  0
   36.5570   18.9200   30.6790 C   0  0  0  0  0  0  0  0  0  0  0  0
   35.8550   18.1350   31.6150 C   0  0  0  0  0  0  0  0  0  0  0  0
   35.3510   18.7830   32.7470 C   0  0  0  0  0  0  0  0  0  0  0  0
   35.5780   20.1140   32.8530 N   0  0  0  0  0  0  0  0  0  0  0  0
   36.2420   20.8380   31.9600 C   0  0  0  0  0  0  0  0  0  0  0  0
   36.7220   20.2230   30.8850 N   0  0  0  0  0  0  0  0  0  0  0  0
   36.9230   18.3800   29.8320 H   0  0  0  0  0  0  0  0  0  0  0  0
   35.7120   17.0770   31.4660 H   0  0  0  0  0  0  0  0  0  0  0  0
   34.8110   18.2530   33.4940 H   0  0  0  0  0  0  0  0  0  0  0  0
   39.1890   24.5980   34.0350 S   0  0  0  0  0  0  0  0  0  0  0  0
   38.9110   24.2090   35.7460 C   0  0  0  0  0  0  0  0  0  0  0  0
   37.9440   24.7740   36.6280 C   0  0  0  0  0  0  0  0  0  0  0  0
   37.2950   25.5300   36.2220 H   0  0  0  0  0  0  0  0  0  0  0  0
   37.9330   24.2980   37.9140 C   0  0  0  0  0  3  0  0  0  0  0  0
   38.8200   23.3310   38.2940 C   0  0  0  0  0  3  0  0  0  0  0  0
   39.8280   22.9640   36.7910 S   0  0  0  0  0  0  0  0  0  0  0  0
  2  7  1  0  0  0  0
  2  1  1  0  0  0  0
  3  2  2  0  0  0  0
  4  5  2  0  0  0  0
  4  3  1  0  0  0  0
  5  6  1  0  0  0  0
  6 10  1  0  0  0  0
  6  7  2  0  0  0  0
  7 20  1  0  0  0  0
  8  4  1  0  0  0  0
  9  5  1  0  0  0  0
 11 16  2  0  0  0  0
 11 12  1  0  0  0  0
 12 13  2  0  0  0  0
 13 14  1  0  0  0  0
 13 19  1  0  0  0  0
 15  3  1  0  0  0  0
 15 14  2  0  0  0  0
 16 15  1  0  0  0  0
 17 11  1  0  0  0  0
 18 12  1  0  0  0  0
 20 21  1  0  0  0  0
 21 22  2  0  0  0  0
 21 26  1  0  0  0  0
 22 24  1  0  0  0  0
 23 22  1  0  0  0  0
 24 25  2  0  0  0  0
 26 25  1  0  0  0  0
M  END
>  <minimizedAffinity>
-5.01906252

$$$$

 OpenBabel03272505093D

 26 28  0  0  0  0  0  0  0  0999 V2000
   38.6200   26.7380   33.0640 Cl  0  0  0  0  0  0  0  0  0  0  0  0
   37.5260   25.5230   32.4690 C   0  0  0  0  0  0  0  0  0  0  0  0
   36.4360   25.9780   31.7590 C   0  0  0  0  0  0  0  0  0  0  0  0
   35.5480   25.0260   31.2730 C   0  0  0  0  0  0  0  0  0  0  0  0
   35.7740   23.6910   31.5050 C   0  0  0  0  0  0  0  0  0  0  0  0
   36.8940   23.3150   32.2280 C   0  0  0  0  0  0  0  0  0  0  0  0
   37.8080   24.2070   32.7350 C   0  0  0  0  0  0  0  0  0  0  0  0
   34.6850   25.3580   30.7130 H   0  0  0  0  0  0  0  0  0  0  0  0
   35.0580   22.9760   31.1100 H   0  0  0  0  0  0  0  0  0  0  0  0
   37.0530   22.2480   32.4000 H   0  0  0  0  0  0  0  0  0  0  0  0
   36.6300   29.2580   30.1710 C   0  0  0  0  0  0  0  0  0  0  0  0
   35.8680   30.0910   31.0150 C   0  0  0  0  0  0  0  0  0  0  0  0
   35.2850   29.5030   32.1420 C   0  0  0  0  0  0  0  0  0  0  0  0
   35.5000   28.1800   32.3320 N   0  0  0  0  0  0  0  0  0  0  0  0
   36.2210   27.4100   31.5260 C   0  0  0  0  0  0  0  0  0  0  0  0
   36.7740   27.9680   30.4550 N   0  0  0  0  0  0  0  0  0  0  0  0
   37.0540   29.7530   29.3240 H   0  0  0  0  0  0  0  0  0  0  0  0
   35.7380   31.1400   30.8010 H   0  0  0  0  0  0  0  0  0  0  0  0
   34.6980   30.0710   32.8220 H   0  0  0  0  0  0  0  0  0  0  0  0
   39.2450   23.7460   33.6600 S   0  0  0  0  0  0  0  0  0  0  0  0
   38.8990   23.7380   35.4030 C   0  0  0  0  0  0  0  0  0  0  0  0
   37.9610   24.5400   36.1150 C   0  0  0  0  0  0  0  0  0  0  0  0
   37.3840   25.2430   35.5390 H   0  0  0  0  0  0  0  0  0  0  0  0
   37.8840   24.3410   37.4690 C   0  0  0  0  0  3  0  0  0  0  0  0
   38.6830   23.4100   38.0700 C   0  0  0  0  0  3  0  0  0  0  0  0
   39.6910   22.6700   36.7130 S   0  0  0  0  0  0  0  0  0  0  0  0
  2  7  1  0  0  0  0
  2  1  1  0  0  0  0
  3  2  2  0  0  0  0
  4  5  2  0  0  0  0
  4  3  1  0  0  0  0
  5  6  1  0  0  0  0
  6 10  1  0  0  0  0
  6  7  2  0  0  0  0
  7 20  1  0  0  0  0
  8  4  1  0  0  0  0
  9  5  1  0  0  0  0
 11 16  2  0  0  0  0
 11 12  1  0  0  0  0
 12 13  2  0  0  0  0
 13 14  1  0  0  0  0
 13 19  1  0  0  0  0
 15  3  1  0  0  0  0
 15 14  2  0  0  0  0
 16 15  1  0  0  0  0
 17 11  1  0  0  0  0
 18 12  1  0  0  0  0
 20 21  1  0  0  0  0
 21 22  2  0  0  0  0
 21 26  1  0  0  0  0
 22 24  1  0  0  0  0
 23 22  1  0  0  0  0
 24 25  2  0  0  0  0
 26 25  1  0  0  0  0
M  END
>  <minimizedAffinity>
-4.97586918

$$$$

 OpenBabel03272505093D

 26 28  0  0  0  0  0  0  0  0999 V2000
   37.5840   24.4670   32.7370 Cl  0  0  0  0  0  0  0  0  0  0  0  0
   37.8760   25.3630   34.1990 C   0  0  0  0  0  0  0  0  0  0  0  0
   37.7940   26.7350   34.1010 C   0  0  0  0  0  0  0  0  0  0  0  0
   38.0240   27.4720   35.2560 C   0  0  0  0  0  0  0  0  0  0  0  0
   38.3160   26.8320   36.4360 C   0  0  0  0  0  0  0  0  0  0  0  0
   38.3800   25.4490   36.4510 C   0  0  0  0  0  0  0  0  0  0  0  0
   38.1640   24.6630   35.3440 C   0  0  0  0  0  0  0  0  0  0  0  0
   37.9650   28.5510   35.2060 H   0  0  0  0  0  0  0  0  0  0  0  0
   38.4900   27.4410   37.3190 H   0  0  0  0  0  0  0  0  0  0  0  0
   38.6140   24.9600   37.4000 H   0  0  0  0  0  0  0  0  0  0  0  0
   35.8610   28.3930   31.4880 C   0  0  0  0  0  0  0  0  0  0  0  0
   36.8020   28.6310   30.4660 C   0  0  0  0  0  0  0  0  0  0  0  0
   38.1160   28.2110   30.6930 C   0  0  0  0  0  0  0  0  0  0  0  0
   38.3790   27.6070   31.8770 N   0  0  0  0  0  0  0  0  0  0  0  0
   37.4790   27.3910   32.8280 C   0  0  0  0  0  0  0  0  0  0  0  0
   36.2310   27.7910   32.6130 N   0  0  0  0  0  0  0  0  0  0  0  0
   34.8710   28.7320   31.2670 H   0  0  0  0  0  0  0  0  0  0  0  0
   36.5220   29.1180   29.5460 H   0  0  0  0  0  0  0  0  0  0  0  0
   38.8780   28.3570   29.9660 H   0  0  0  0  0  0  0  0  0  0  0  0
   38.2390   22.8950   35.3440 S   0  0  0  0  0  0  0  0  0  0  0  0
   39.8440   22.3310   35.8570 C   0  0  0  0  0  0  0  0  0  0  0  0
   40.3180   22.1220   37.1850 C   0  0  0  0  0  0  0  0  0  0  0  0
   39.6290   22.3270   37.9860 H   0  0  0  0  0  0  0  0  0  0  0  0
   41.6080   21.6800   37.3150 C   0  0  0  0  0  3  0  0  0  0  0  0
   42.3720   21.4600   36.2040 C   0  0  0  0  0  3  0  0  0  0  0  0
   41.2910   21.8800   34.7680 S   0  0  0  0  0  0  0  0  0  0  0  0
  1  2  1  0  0  0  0
  2  7  1  0  0  0  0
  3  2  2  0  0  0  0
  3  4  1  0  0  0  0
  4  5  2  0  0  0  0
  5  6  1  0  0  0  0
  5  9  1  0  0  0  0
  6 10  1  0  0  0  0
  7 20  1  0  0  0  0
  7  6  2  0  0  0  0
  8  4  1  0  0  0  0
 11 16  1  0  0  0  0
 12 13  1  0  0  0  0
 12 11  2  0  0  0  0
 13 14  2  0  0  0  0
 14 15  1  0  0  0  0
 15  3  1  0  0  0  0
 16 15  2  0  0  0  0
 17 11  1  0  0  0  0
 18 12  1  0  0  0  0
 19 13  1  0  0  0  0
 20 21  1  0  0  0  0
 21 22  2  0  0  0  0
 22 24  1  0  0  0  0
 22 23  1  0  0  0  0
 25 24  2  0  0  0  0
 26 21  1  0  0  0  0
 26 25  1  0  0  0  0
M  END
>  <minimizedAffinity>
-4.85350895

$$$$

 OpenBabel03272505093D

 26 28  0  0  0  0  0  0  0  0999 V2000
   39.9000   25.4410   32.0300 Cl  0  0  0  0  0  0  0  0  0  0  0  0
   39.0670   26.1810   33.3670 C   0  0  0  0  0  0  0  0  0  0  0  0
   39.8500   26.5840   34.4270 C   0  0  0  0  0  0  0  0  0  0  0  0
   39.2070   27.1770   35.5060 C   0  0  0  0  0  0  0  0  0  0  0  0
   37.8440   27.3440   35.4900 C   0  0  0  0  0  0  0  0  0  0  0  0
   37.1280   26.9110   34.3870 C   0  0  0  0  0  0  0  0  0  0  0  0
   37.7040   26.3170   33.2890 C   0  0  0  0  0  0  0  0  0  0  0  0
   39.8000   27.5020   36.3500 H   0  0  0  0  0  0  0  0  0  0  0  0
   37.3760   27.8110   36.3520 H   0  0  0  0  0  0  0  0  0  0  0  0
   36.0440   27.0530   34.3950 H   0  0  0  0  0  0  0  0  0  0  0  0
   43.1140   25.0840   35.0710 C   0  0  0  0  0  0  0  0  0  0  0  0
   44.0230   25.9610   34.4430 C   0  0  0  0  0  0  0  0  0  0  0  0
   43.4910   27.0790   33.7940 C   0  0  0  0  0  0  0  0  0  0  0  0
   42.1450   27.2310   33.8200 N   0  0  0  0  0  0  0  0  0  0  0  0
   41.3050   26.3940   34.4160 C   0  0  0  0  0  0  0  0  0  0  0  0
   41.8090   25.3310   35.0320 N   0  0  0  0  0  0  0  0  0  0  0  0
   43.5690   24.2450   35.5530 H   0  0  0  0  0  0  0  0  0  0  0  0
   45.0850   25.7780   34.4630 H   0  0  0  0  0  0  0  0  0  0  0  0
   44.1160   27.7830   33.3000 H   0  0  0  0  0  0  0  0  0  0  0  0
   36.8060   25.7590   31.8700 S   0  0  0  0  0  0  0  0  0  0  0  0
   36.5610   23.9990   31.9290 C   0  0  0  0  0  0  0  0  0  0  0  0
   35.6240   23.2190   31.1910 C   0  0  0  0  0  0  0  0  0  0  0  0
   34.9800   23.7460   30.5090 H   0  0  0  0  0  0  0  0  0  0  0  0
   35.6340   21.8680   31.4210 C   0  0  0  0  0  3  0  0  0  0  0  0
   36.5130   21.3320   32.3200 C   0  0  0  0  0  3  0  0  0  0  0  0
   37.4780   22.7600   32.9810 S   0  0  0  0  0  0  0  0  0  0  0  0
  1  2  1  0  0  0  0
  2  3  1  0  0  0  0
  3  4  2  0  0  0  0
  4  8  1  0  0  0  0
  5  4  1  0  0  0  0
  5  9  1  0  0  0  0
  6 10  1  0  0  0  0
  6  5  2  0  0  0  0
  7  2  2  0  0  0  0
  7  6  1  0  0  0  0
 11 17  1  0  0  0  0
 12 18  1  0  0  0  0
 12 11  2  0  0  0  0
 13 14  2  0  0  0  0
 13 12  1  0  0  0  0
 14 15  1  0  0  0  0
 15  3  1  0  0  0  0
 15 16  2  0  0  0  0
 16 11  1  0  0  0  0
 19 13  1  0  0  0  0
 20 21  1  0  0  0  0
 20  7  1  0  0  0  0
 21 26  1  0  0  0  0
 22 24  1  0  0  0  0
 22 21  2  0  0  0  0
 23 22  1  0  0  0  0
 24 25  2  0  0  0  0
 25 26  1  0  0  0  0
M  END
>  <minimizedAffinity>
-4.73925877

$$$$

 OpenBabel03272505093D

 26 28  0  0  0  0  0  0  0  0999 V2000
   39.2000   26.3820   34.8640 Cl  0  0  0  0  0  0  0  0  0  0  0  0
   38.5700   25.1280   33.8360 C   0  0  0  0  0  0  0  0  0  0  0  0
   38.2800   23.9270   34.4450 C   0  0  0  0  0  0  0  0  0  0  0  0
   37.7760   22.9090   33.6440 C   0  0  0  0  0  0  0  0  0  0  0  0
   37.5840   23.1210   32.3010 C   0  0  0  0  0  0  0  0  0  0  0  0
   37.9010   24.3580   31.7640 C   0  0  0  0  0  0  0  0  0  0  0  0
   38.4030   25.4030   32.5020 C   0  0  0  0  0  0  0  0  0  0  0  0
   37.5400   21.9570   34.0990 H   0  0  0  0  0  0  0  0  0  0  0  0
   37.1890   22.3030   31.7060 H   0  0  0  0  0  0  0  0  0  0  0  0
   37.7400   24.5040   30.6930 H   0  0  0  0  0  0  0  0  0  0  0  0
   39.8660   22.8770   37.5610 C   0  0  0  0  0  0  0  0  0  0  0  0
   38.9760   23.3180   38.5620 C   0  0  0  0  0  0  0  0  0  0  0  0
   37.8190   23.9830   38.1450 C   0  0  0  0  0  0  0  0  0  0  0  0
   37.6460   24.1510   36.8120 N   0  0  0  0  0  0  0  0  0  0  0  0
   38.4950   23.7290   35.8830 C   0  0  0  0  0  0  0  0  0  0  0  0
   39.5950   23.0980   36.2780 N   0  0  0  0  0  0  0  0  0  0  0  0
   40.7340   22.3750   37.9290 H   0  0  0  0  0  0  0  0  0  0  0  0
   39.1780   23.1490   39.6070 H   0  0  0  0  0  0  0  0  0  0  0  0
   37.1040   24.3430   38.8440 H   0  0  0  0  0  0  0  0  0  0  0  0
   38.8130   26.9900   31.8350 S   0  0  0  0  0  0  0  0  0  0  0  0
   37.4130   28.0830   31.8970 C   0  0  0  0  0  0  0  0  0  0  0  0
   36.5280   28.3140   32.9910 C   0  0  0  0  0  0  0  0  0  0  0  0
   36.7200   27.7670   33.8970 H   0  0  0  0  0  0  0  0  0  0  0  0
   35.5160   29.2140   32.7830 C   0  0  0  0  0  3  0  0  0  0  0  0
   35.3920   29.8380   31.5740 C   0  0  0  0  0  3  0  0  0  0  0  0
   36.7720   29.1860   30.5350 S   0  0  0  0  0  0  0  0  0  0  0  0
  2  3  1  0  0  0  0
  2  1  1  0  0  0  0
  3 15  1  0  0  0  0
  4  8  1  0  0  0  0
  4  3  2  0  0  0  0
  5  4  1  0  0  0  0
  6  5  2  0  0  0  0
  6  7  1  0  0  0  0
  7  2  2  0  0  0  0
  9  5  1  0  0  0  0
 10  6  1  0  0  0  0
 11 17  1  0  0  0  0
 11 12  1  0  0  0  0
 12 18  1  0  0  0  0
 13 12  2  0  0  0  0
 13 19  1  0  0  0  0
 14 13  1  0  0  0  0
 15 16  1  0  0  0  0
 15 14  2  0  0  0  0
 16 11  2  0  0  0  0
 20 21  1  0  0  0  0
 20  7  1  0  0  0  0
 21 22  2  0  0  0  0
 22 23  1  0  0  0  0
 24 22  1  0  0  0  0
 25 24  2  0  0  0  0
 26 25  1  0  0  0  0
 26 21  1  0  0  0  0
M  END
>  <minimizedAffinity>
-4.67043781

$$$$

 OpenBabel03272505093D

 26 28  0  0  0  0  0  0  0  0999 V2000
   36.1300   26.8820   30.8150 Cl  0  0  0  0  0  0  0  0  0  0  0  0
   36.6540   26.8820   32.4740 C   0  0  0  0  0  0  0  0  0  0  0  0
   36.3050   27.9840   33.2250 C   0  0  0  0  0  0  0  0  0  0  0  0
   36.7130   28.0070   34.5530 C   0  0  0  0  0  0  0  0  0  0  0  0
   37.4340   26.9590   35.0710 C   0  0  0  0  0  0  0  0  0  0  0  0
   37.7450   25.8880   34.2500 C   0  0  0  0  0  0  0  0  0  0  0  0
   37.3720   25.8050   32.9300 C   0  0  0  0  0  0  0  0  0  0  0  0
   36.4510   28.8610   35.1630 H   0  0  0  0  0  0  0  0  0  0  0  0
   37.7350   27.0120   36.1130 H   0  0  0  0  0  0  0  0  0  0  0  0
   38.3190   25.0650   34.6840 H   0  0  0  0  0  0  0  0  0  0  0  0
   33.4530   30.0970   32.3750 C   0  0  0  0  0  0  0  0  0  0  0  0
   34.0140   31.1280   31.5930 C   0  0  0  0  0  0  0  0  0  0  0  0
   35.3920   31.0820   31.3630 C   0  0  0  0  0  0  0  0  0  0  0  0
   36.0790   30.0510   31.9100 N   0  0  0  0  0  0  0  0  0  0  0  0
   35.5340   29.0890   32.6450 C   0  0  0  0  0  0  0  0  0  0  0  0
   34.2250   29.1320   32.8650 N   0  0  0  0  0  0  0  0  0  0  0  0
   32.3980   30.1760   32.5230 H   0  0  0  0  0  0  0  0  0  0  0  0
   33.4040   31.9190   31.1880 H   0  0  0  0  0  0  0  0  0  0  0  0
   35.8810   31.8250   30.7820 H   0  0  0  0  0  0  0  0  0  0  0  0
   37.7590   24.4450   31.8660 S   0  0  0  0  0  0  0  0  0  0  0  0
   36.8430   22.9960   32.3360 C   0  0  0  0  0  0  0  0  0  0  0  0
   35.6070   22.5280   31.8020 C   0  0  0  0  0  0  0  0  0  0  0  0
   35.1610   23.1140   31.0170 H   0  0  0  0  0  0  0  0  0  0  0  0
   35.1030   21.3730   32.3410 C   0  0  0  0  0  3  0  0  0  0  0  0
   35.7800   20.7300   33.3390 C   0  0  0  0  0  3  0  0  0  0  0  0
   37.2910   21.7440   33.6460 S   0  0  0  0  0  0  0  0  0  0  0  0
  1  2  1  0  0  0  0
  2  7  2  0  0  0  0
  2  3  1  0  0  0  0
  3  4  2  0  0  0  0
  4  5  1  0  0  0  0
  4  8  1  0  0  0  0
  5  9  1  0  0  0  0
  6 10  1  0  0  0  0
  6  5  2  0  0  0  0
  7  6  1  0  0  0  0
 11 17  1  0  0  0  0
 11 16  1  0  0  0  0
 12 11  2  0  0  0  0
 13 12  1  0  0  0  0
 13 14  2  0  0  0  0
 14 15  1  0  0  0  0
 15 16  2  0  0  0  0
 15  3  1  0  0  0  0
 18 12  1  0  0  0  0
 19 13  1  0  0  0  0
 20 21  1  0  0  0  0
 20  7  1  0  0  0  0
 21 26  1  0  0  0  0
 22 21  2  0  0  0  0
 22 24  1  0  0  0  0
 23 22  1  0  0  0  0
 24 25  2  0  0  0  0
 25 26  1  0  0  0  0
M  END
>  <minimizedAffinity>
-4.66990089

$$$$

 OpenBabel03272505093D

 26 28  0  0  0  0  0  0  0  0999 V2000
   38.2110   24.6620   32.1890 Cl  0  0  0  0  0  0  0  0  0  0  0  0
   38.2780   25.4410   33.7440 C   0  0  0  0  0  0  0  0  0  0  0  0
   37.9240   26.7730   33.7760 C   0  0  0  0  0  0  0  0  0  0  0  0
   37.9710   27.4170   35.0060 C   0  0  0  0  0  0  0  0  0  0  0  0
   38.3560   26.7280   36.1300 C   0  0  0  0  0  0  0  0  0  0  0  0
   38.6960   25.3900   36.0140 C   0  0  0  0  0  0  0  0  0  0  0  0
   38.6720   24.6970   34.8280 C   0  0  0  0  0  0  0  0  0  0  0  0
   37.6980   28.4620   35.0570 H   0  0  0  0  0  0  0  0  0  0  0  0
   38.3800   27.2640   37.0750 H   0  0  0  0  0  0  0  0  0  0  0  0
   38.9990   24.8620   36.9220 H   0  0  0  0  0  0  0  0  0  0  0  0
   38.1600   28.4130   30.5240 C   0  0  0  0  0  0  0  0  0  0  0  0
   36.8360   28.8120   30.2460 C   0  0  0  0  0  0  0  0  0  0  0  0
   35.8600   28.5060   31.1990 C   0  0  0  0  0  0  0  0  0  0  0  0
   36.2650   27.8510   32.3140 N   0  0  0  0  0  0  0  0  0  0  0  0
   37.5160   27.4830   32.5580 C   0  0  0  0  0  0  0  0  0  0  0  0
   38.4440   27.7720   31.6530 N   0  0  0  0  0  0  0  0  0  0  0  0
   38.8690   28.6700   29.7660 H   0  0  0  0  0  0  0  0  0  0  0  0
   36.5860   29.3320   29.3360 H   0  0  0  0  0  0  0  0  0  0  0  0
   34.8420   28.7760   31.0560 H   0  0  0  0  0  0  0  0  0  0  0  0
   39.1010   22.9890   34.6600 S   0  0  0  0  0  0  0  0  0  0  0  0
   37.6440   21.9770   34.5600 C   0  0  0  0  0  0  0  0  0  0  0  0
   36.8010   21.5440   35.6240 C   0  0  0  0  0  0  0  0  0  0  0  0
   37.0680   21.8620   36.6170 H   0  0  0  0  0  0  0  0  0  0  0  0
   35.7290   20.7630   35.2810 C   0  0  0  0  0  3  0  0  0  0  0  0
   35.5100   20.4370   33.9720 C   0  0  0  0  0  3  0  0  0  0  0  0
   36.8750   21.2420   33.0260 S   0  0  0  0  0  0  0  0  0  0  0  0
  1  2  1  0  0  0  0
  2  3  2  0  0  0  0
  2  7  1  0  0  0  0
  3  4  1  0  0  0  0
  4  8  1  0  0  0  0
  4  5  2  0  0  0  0
  5  9  1  0  0  0  0
  6  5  1  0  0  0  0
  6 10  1  0  0  0  0
  7  6  2  0  0  0  0
 11 16  1  0  0  0  0
 12 11  2  0  0  0  0
 12 13  1  0  0  0  0
 13 14  2  0  0  0  0
 14 15  1  0  0  0  0
 15  3  1  0  0  0  0
 16 15  2  0  0  0  0
 17 11  1  0  0  0  0
 18 12  1  0  0  0  0
 19 13  1  0  0  0  0
 20  7  1  0  0  0  0
 21 20  1  0  0  0  0
 21 22  2  0  0  0  0
 22 23  1  0  0  0  0
 24 22  1  0  0  0  0
 25 24  2  0  0  0  0
 26 25  1  0  0  0  0
 26 21  1  0  0  0  0
M  END
>  <minimizedAffinity>
-4.66355753

$$$$

 OpenBabel03272505093D

 26 28  0  0  0  0  0  0  0  0999 V2000
   38.2320   24.1460   33.0000 Cl  0  0  0  0  0  0  0  0  0  0  0  0
   38.0160   25.5780   33.9640 C   0  0  0  0  0  0  0  0  0  0  0  0
   38.6890   25.6120   35.1670 C   0  0  0  0  0  0  0  0  0  0  0  0
   38.5320   26.7450   35.9550 C   0  0  0  0  0  0  0  0  0  0  0  0
   37.7320   27.7770   35.5270 C   0  0  0  0  0  0  0  0  0  0  0  0
   37.0900   27.6660   34.3050 C   0  0  0  0  0  0  0  0  0  0  0  0
   37.2040   26.5720   33.4800 C   0  0  0  0  0  0  0  0  0  0  0  0
   39.0490   26.7950   36.9030 H   0  0  0  0  0  0  0  0  0  0  0  0
   37.6330   28.6470   36.1700 H   0  0  0  0  0  0  0  0  0  0  0  0
   36.4600   28.4990   33.9840 H   0  0  0  0  0  0  0  0  0  0  0  0
   39.7130   22.5370   36.8450 C   0  0  0  0  0  0  0  0  0  0  0  0
   41.0570   22.3660   36.4540 C   0  0  0  0  0  0  0  0  0  0  0  0
   41.6040   23.3290   35.6010 C   0  0  0  0  0  0  0  0  0  0  0  0
   40.8000   24.3490   35.2190 N   0  0  0  0  0  0  0  0  0  0  0  0
   39.5360   24.4940   35.5980 C   0  0  0  0  0  0  0  0  0  0  0  0
   39.0150   23.5800   36.4080 N   0  0  0  0  0  0  0  0  0  0  0  0
   39.3400   21.7760   37.4970 H   0  0  0  0  0  0  0  0  0  0  0  0
   41.6390   21.5270   36.7980 H   0  0  0  0  0  0  0  0  0  0  0  0
   42.6110   23.2630   35.2660 H   0  0  0  0  0  0  0  0  0  0  0  0
   36.3920   26.4130   31.9150 S   0  0  0  0  0  0  0  0  0  0  0  0
   37.2860   27.2820   30.6490 C   0  0  0  0  0  0  0  0  0  0  0  0
   36.8630   28.4170   29.8980 C   0  0  0  0  0  0  0  0  0  0  0  0
   35.8840   28.8080   30.1140 H   0  0  0  0  0  0  0  0  0  0  0  0
   37.7460   28.9040   28.9700 C   0  0  0  0  0  3  0  0  0  0  0  0
   38.9620   28.3050   28.8010 C   0  0  0  0  0  3  0  0  0  0  0  0
   38.9960   26.9040   30.0030 S   0  0  0  0  0  0  0  0  0  0  0  0
  1  2  1  0  0  0  0
  2  3  1  0  0  0  0
  3 15  1  0  0  0  0
  3  4  2  0  0  0  0
  4  8  1  0  0  0  0
  5  4  1  0  0  0  0
  5  9  1  0  0  0  0
  6  5  2  0  0  0  0
  7  2  2  0  0  0  0
  7  6  1  0  0  0  0
 10  6  1  0  0  0  0
 11 17  1  0  0  0  0
 12 18  1  0  0  0  0
 12 11  1  0  0  0  0
 13 12  2  0  0  0  0
 14 15  2  0  0  0  0
 14 13  1  0  0  0  0
 15 16  1  0  0  0  0
 16 11  2  0  0  0  0
 19 13  1  0  0  0  0
 20  7  1  0  0  0  0
 21 20  1  0  0  0  0
 22 23  1  0  0  0  0
 22 21  2  0  0  0  0
 24 22  1  0  0  0  0
 25 24  2  0  0  0  0
 25 26  1  0  0  0  0
 26 21  1  0  0  0  0
M  END
>  <minimizedAffinity>
-4.59690952

$$$$
