
 OpenBabel03272501293D

 17 18  0  0  0  0  0  0  0  0999 V2000
   37.3450   29.9200   51.2560 C   0  0  0  0  0  0  0  0  0  0  0  0
   38.0720   30.8400   50.4880 C   0  0  0  0  0  0  0  0  0  0  0  0
   37.4440   31.4040   49.3900 C   0  0  0  0  0  0  0  0  0  0  0  0
   36.1530   31.0280   49.1220 N   0  0  0  0  0  0  0  0  0  0  0  0
   35.4840   30.1490   49.8710 C   0  0  0  0  0  0  0  0  0  0  0  0
   36.0760   29.5860   50.9470 N   0  0  0  0  0  0  0  0  0  0  0  0
   37.7320   29.4170   52.1330 H   0  0  0  0  0  0  0  0  0  0  0  0
   39.0690   31.0520   50.7960 H   0  0  0  0  0  0  0  0  0  0  0  0
   34.4690   29.9290   49.5630 H   0  0  0  0  0  0  0  0  0  0  0  0
   38.1650   32.3540   48.5770 C   0  0  0  0  0  0  0  0  0  0  0  0
   38.3070   33.5740   48.8780 O   0  0  0  0  0  0  0  0  0  0  0  0
   38.7790   31.9200   47.3250 C   0  0  0  0  0  0  0  0  0  0  0  0
   38.7110   30.7670   46.6630 C   0  0  0  0  0  0  0  0  0  0  0  0
   38.0960   29.9570   47.0860 H   0  0  0  0  0  0  0  0  0  0  0  0
   39.3920   30.6090   45.4910 C   0  0  0  0  0  3  0  0  0  0  0  0
   40.1280   31.6730   45.0490 C   0  0  0  0  0  3  0  0  0  0  0  0
   39.8350   32.9330   46.3480 S   0  0  0  0  0  0  0  0  0  0  0  0
  1  7  1  0  0  0  0
  2  8  1  0  0  0  0
  2  1  2  0  0  0  0
  3  2  1  0  0  0  0
  4  3  2  0  0  0  0
  4  5  1  0  0  0  0
  5  6  2  0  0  0  0
  6  1  1  0  0  0  0
  9  5  1  0  0  0  0
 10 11  2  0  0  0  0
 10  3  1  0  0  0  0
 12 10  1  0  0  0  0
 13 14  1  0  0  0  0
 13 12  2  0  0  0  0
 15 13  1  0  0  0  0
 16 15  2  0  0  0  0
 16 17  1  0  0  0  0
 17 12  1  0  0  0  0
M  END
>  <minimizedAffinity>
-4.72496891

>  <minimizedRMSD>
1.87160134

$$$$
