
 OpenBabel03272501293D

 17 18  0  0  0  0  0  0  0  0999 V2000
   37.4540   30.2520   51.0270 C   0  0  0  0  0  0  0  0  0  0  0  0
   38.3100   31.0730   50.2800 C   0  0  0  0  0  0  0  0  0  0  0  0
   37.8370   31.5760   49.0780 C   0  0  0  0  0  0  0  0  0  0  0  0
   36.5640   31.2400   48.6960 N   0  0  0  0  0  0  0  0  0  0  0  0
   35.7700   30.4560   49.4280 C   0  0  0  0  0  0  0  0  0  0  0  0
   36.2100   29.9540   50.6030 N   0  0  0  0  0  0  0  0  0  0  0  0
   37.7150   29.8040   51.9770 H   0  0  0  0  0  0  0  0  0  0  0  0
   39.2770   31.2620   50.6820 H   0  0  0  0  0  0  0  0  0  0  0  0
   34.7850   30.2590   49.0250 H   0  0  0  0  0  0  0  0  0  0  0  0
   38.6930   32.4230   48.2840 C   0  0  0  0  0  0  0  0  0  0  0  0
   39.0880   33.5670   48.6490 O   0  0  0  0  0  0  0  0  0  0  0  0
   39.1510   31.9690   46.9730 C   0  0  0  0  0  0  0  0  0  0  0  0
   39.0370   30.7940   46.3590 C   0  0  0  0  0  0  0  0  0  0  0  0
   38.5130   29.9780   46.8820 H   0  0  0  0  0  0  0  0  0  0  0  0
   39.5610   30.6190   45.1100 C   0  0  0  0  0  3  0  0  0  0  0  0
   40.1920   31.6920   44.5450 C   0  0  0  0  0  3  0  0  0  0  0  0
   40.0300   32.9830   45.8360 S   0  0  0  0  0  0  0  0  0  0  0  0
  1  7  1  0  0  0  0
  2  8  1  0  0  0  0
  2  1  2  0  0  0  0
  3  2  1  0  0  0  0
  4  3  2  0  0  0  0
  4  5  1  0  0  0  0
  5  6  2  0  0  0  0
  6  1  1  0  0  0  0
  9  5  1  0  0  0  0
 10 11  2  0  0  0  0
 10  3  1  0  0  0  0
 12 10  1  0  0  0  0
 13 14  1  0  0  0  0
 13 12  2  0  0  0  0
 15 13  1  0  0  0  0
 16 15  2  0  0  0  0
 16 17  1  0  0  0  0
 17 12  1  0  0  0  0
M  END
>  <minimizedAffinity>
-4.8021698

>  <minimizedRMSD>
1.93096924

$$$$
