
 OpenBabel03272501293D

 17 18  0  0  0  0  0  0  0  0999 V2000
   37.5150   30.2480   51.2710 C   0  0  0  0  0  0  0  0  0  0  0  0
   38.1480   31.0750   50.3330 C   0  0  0  0  0  0  0  0  0  0  0  0
   37.8460   30.8830   48.9940 C   0  0  0  0  0  0  0  0  0  0  0  0
   36.9480   29.8990   48.6720 N   0  0  0  0  0  0  0  0  0  0  0  0
   36.3590   29.1260   49.5860 C   0  0  0  0  0  0  0  0  0  0  0  0
   36.6380   29.2950   50.8970 N   0  0  0  0  0  0  0  0  0  0  0  0
   37.6730   30.3060   52.3400 H   0  0  0  0  0  0  0  0  0  0  0  0
   38.8280   31.8040   50.7070 H   0  0  0  0  0  0  0  0  0  0  0  0
   35.6670   28.3810   49.2130 H   0  0  0  0  0  0  0  0  0  0  0  0
   38.4820   31.7150   48.0030 C   0  0  0  0  0  0  0  0  0  0  0  0
   38.9150   32.8810   48.2330 O   0  0  0  0  0  0  0  0  0  0  0  0
   38.6520   31.2200   46.6390 C   0  0  0  0  0  0  0  0  0  0  0  0
   37.7790   30.7230   45.7660 C   0  0  0  0  0  0  0  0  0  0  0  0
   36.7220   30.6470   46.0700 H   0  0  0  0  0  0  0  0  0  0  0  0
   38.1980   30.3230   44.5310 C   0  0  0  0  0  3  0  0  0  0  0  0
   39.5290   30.4590   44.2500 C   0  0  0  0  0  3  0  0  0  0  0  0
   40.1970   31.1790   45.7970 S   0  0  0  0  0  0  0  0  0  0  0  0
  1  7  1  0  0  0  0
  2  8  1  0  0  0  0
  2  1  2  0  0  0  0
  3  2  1  0  0  0  0
  4  3  2  0  0  0  0
  4  5  1  0  0  0  0
  5  6  2  0  0  0  0
  6  1  1  0  0  0  0
  9  5  1  0  0  0  0
 10 11  2  0  0  0  0
 10  3  1  0  0  0  0
 12 10  1  0  0  0  0
 13 14  1  0  0  0  0
 13 12  2  0  0  0  0
 15 13  1  0  0  0  0
 16 15  2  0  0  0  0
 16 17  1  0  0  0  0
 17 12  1  0  0  0  0
M  END
>  <minimizedAffinity>
-4.52523661

>  <minimizedRMSD>
1.0663892

$$$$
