
 OpenBabel03262522083D

 17 18  0  0  0  0  0  0  0  0999 V2000
   37.8890   30.6710   50.5230 C   0  0  0  0  0  0  0  0  0  0  0  0
   37.7680   31.4320   49.3430 C   0  0  0  0  0  0  0  0  0  0  0  0
   36.8210   31.0130   48.3910 C   0  0  0  0  0  0  0  0  0  0  0  0
   36.0730   29.9100   48.6410 N   0  0  0  0  0  0  0  0  0  0  0  0
   36.2240   29.2050   49.7930 C   0  0  0  0  0  0  0  0  0  0  0  0
   37.1180   29.5710   50.7330 N   0  0  0  0  0  0  0  0  0  0  0  0
   38.6150   30.9900   51.2540 H   0  0  0  0  0  0  0  0  0  0  0  0
   36.7260   31.5970   47.4840 H   0  0  0  0  0  0  0  0  0  0  0  0
   35.5710   28.3480   49.8760 H   0  0  0  0  0  0  0  0  0  0  0  0
   38.6150   32.6070   49.1540 C   0  0  0  0  0  0  0  0  0  0  0  0
   39.3320   32.6050   48.1610 O   0  0  0  0  0  0  0  0  0  0  0  0
   38.5930   33.6890   50.0950 C   0  0  0  0  0  0  0  0  0  0  0  0
   39.5810   34.5360   50.5200 C   0  0  0  0  0  0  0  0  0  0  0  0
   40.5700   34.4050   50.1030 H   0  0  0  0  0  0  0  0  0  0  0  0
   39.2400   35.4900   51.4470 C   0  0  0  0  0  3  0  0  0  0  0  0
   37.9520   35.5550   51.8990 C   0  0  0  0  0  3  0  0  0  0  0  0
   37.1250   34.1940   50.9820 S   0  0  0  0  0  0  0  0  0  0  0  0
  1  6  1  0  0  0  0
  1  7  1  0  0  0  0
  2  1  2  0  0  0  0
  3  4  2  0  0  0  0
  3  2  1  0  0  0  0
  4  5  1  0  0  0  0
  5  9  1  0  0  0  0
  5  6  2  0  0  0  0
  8  3  1  0  0  0  0
 10  2  1  0  0  0  0
 10 12  1  0  0  0  0
 11 10  2  0  0  0  0
 12 13  2  0  0  0  0
 12 17  1  0  0  0  0
 13 15  1  0  0  0  0
 14 13  1  0  0  0  0
 15 16  2  0  0  0  0
 17 16  1  0  0  0  0
M  END
>  <minimizedAffinity>
4.49686146

>  <minimizedRMSD>
0.696371794

$$$$
