
 OpenBabel03272504563D

 30 32  0  0  1  0  0  0  0  0999 V2000
   36.7140   29.3810   49.9860 C   0  0  1  0  0  0  0  0  0  0  0  0
   36.0220   29.4930   51.2480 C   0  0  0  0  0  0  0  0  0  0  0  0
   35.2510   29.3480   49.9760 C   0  0  2  0  0  0  0  0  0  0  0  0
   37.2020   28.4060   49.6380 H   0  0  0  0  0  0  0  0  0  0  0  0
   36.4370   28.7590   51.9120 H   0  0  0  0  0  0  0  0  0  0  0  0
   36.0080   30.5020   51.7110 H   0  0  0  0  0  0  0  0  0  0  0  0
   34.5450   30.1560   49.8760 H   0  0  0  0  0  0  0  0  0  0  0  0
   37.3670   30.5800   49.3620 C   0  0  0  0  0  0  0  0  0  0  0  0
   37.0850   31.8210   49.9740 C   0  0  0  0  0  0  0  0  0  0  0  0
   37.6960   32.9030   49.3900 C   0  0  0  0  0  0  0  0  0  0  0  0
   38.5000   32.7430   48.3150 N   0  0  0  0  0  0  0  0  0  0  0  0
   38.7490   31.5280   47.7510 C   0  0  0  0  0  0  0  0  0  0  0  0
   38.1570   30.4190   48.3020 N   0  0  0  0  0  0  0  0  0  0  0  0
   39.5930   31.3300   46.6530 N   0  0  0  0  0  0  0  0  0  0  0  0
   36.4530   31.9590   50.8230 H   0  0  0  0  0  0  0  0  0  0  0  0
   37.5310   33.8920   49.7990 H   0  0  0  0  0  0  0  0  0  0  0  0
   40.4470   30.7260   46.6640 H   0  0  0  0  0  0  0  0  0  0  0  0
   39.2440   31.8770   45.8210 H   0  0  0  0  0  0  0  0  0  0  0  0
   34.6810   28.0900   49.7580 O   0  0  0  0  0  0  0  0  0  0  0  0
   33.4410   26.8680   47.8560 O   0  0  0  0  0  0  0  0  0  0  0  0
   33.5090   28.1770   48.5740 P   0  0  1  0  0  0  0  0  0  0  0  0
   31.9560   28.3280   49.3400 O   0  0  0  0  0  0  0  0  0  0  0  0
   32.0600   27.9230   50.2370 H   0  0  0  0  0  0  0  0  0  0  0  0
   33.7850   29.4920   47.6000 O   0  0  0  0  0  0  0  0  0  0  0  0
   34.1520   29.8410   46.4590 C   0  0  0  0  0  0  0  0  0  0  0  0
   35.4800   30.0160   46.1280 C   0  0  0  0  0  0  0  0  0  0  0  0
   36.3900   29.8990   46.7390 H   0  0  0  0  0  0  0  0  0  0  0  0
   36.1050   30.3810   44.9890 C   0  0  0  0  0  3  0  0  0  0  0  0
   35.0690   30.6210   43.9240 C   0  0  0  0  0  3  0  0  0  0  0  0
   33.3710   30.2770   44.7630 S   0  0  0  0  0  0  0  0  0  0  0  0
  1  4  1  6  0  0  0
  1  2  1  0  0  0  0
  2  6  1  0  0  0  0
  2  5  1  0  0  0  0
  3  7  1  6  0  0  0
  3  1  1  0  0  0  0
  3  2  1  0  0  0  0
  8  9  1  0  0  0  0
  8  1  1  0  0  0  0
  9 15  1  0  0  0  0
 10 16  1  0  0  0  0
 10  9  2  0  0  0  0
 11 10  1  0  0  0  0
 12 13  1  0  0  0  0
 12 11  2  0  0  0  0
 13  8  2  0  0  0  0
 14 17  1  0  0  0  0
 14 12  1  0  0  0  0
 18 14  1  0  0  0  0
 19  3  1  0  0  0  0
 21 20  2  6  0  0  0
 21 22  1  0  0  0  0
 21 19  1  0  0  0  0
 22 23  1  0  0  0  0
 24 21  1  0  0  0  0
 25 24  1  0  0  0  0
 26 25  2  0  0  0  0
 26 27  1  0  0  0  0
 28 26  1  0  0  0  0
 29 30  1  0  0  0  0
 29 28  2  0  0  0  0
 30 25  1  0  0  0  0
M  END
>  <minimizedAffinity>
-5.50319958

>  <minimizedRMSD>
2.60174203

$$$$
