
 OpenBabel03272504573D

 30 32  0  0  1  0  0  0  0  0999 V2000
   37.2440   29.6420   49.9050 C   0  0  1  0  0  0  0  0  0  0  0  0
   36.8660   29.9620   51.2600 C   0  0  0  0  0  0  0  0  0  0  0  0
   35.8190   29.7690   50.2110 C   0  0  2  0  0  0  0  0  0  0  0  0
   37.5570   28.5870   49.5870 H   0  0  0  0  0  0  0  0  0  0  0  0
   37.3570   29.2610   51.9080 H   0  0  0  0  0  0  0  0  0  0  0  0
   37.0410   31.0090   51.5830 H   0  0  0  0  0  0  0  0  0  0  0  0
   35.1790   30.6340   50.1630 H   0  0  0  0  0  0  0  0  0  0  0  0
   37.8380   30.6890   49.0070 C   0  0  0  0  0  0  0  0  0  0  0  0
   38.1830   31.9080   49.6310 C   0  0  0  0  0  0  0  0  0  0  0  0
   38.7290   32.8490   48.7940 C   0  0  0  0  0  0  0  0  0  0  0  0
   38.9060   32.5830   47.4800 N   0  0  0  0  0  0  0  0  0  0  0  0
   38.5610   31.3920   46.9130 C   0  0  0  0  0  0  0  0  0  0  0  0
   38.0100   30.4230   47.7130 N   0  0  0  0  0  0  0  0  0  0  0  0
   38.7520   31.0820   45.5620 N   0  0  0  0  0  0  0  0  0  0  0  0
   38.0490   32.1280   50.6670 H   0  0  0  0  0  0  0  0  0  0  0  0
   39.0200   33.8120   49.1940 H   0  0  0  0  0  0  0  0  0  0  0  0
   39.3370   30.2870   45.2160 H   0  0  0  0  0  0  0  0  0  0  0  0
   38.2260   31.7630   44.9530 H   0  0  0  0  0  0  0  0  0  0  0  0
   35.1110   28.5650   50.2820 O   0  0  0  0  0  0  0  0  0  0  0  0
   34.0760   27.0390   48.4800 O   0  0  0  0  0  0  0  0  0  0  0  0
   34.0460   28.4380   49.0050 P   0  0  1  0  0  0  0  0  0  0  0  0
   32.4280   28.6340   49.6100 O   0  0  0  0  0  0  0  0  0  0  0  0
   32.4640   28.3650   50.5620 H   0  0  0  0  0  0  0  0  0  0  0  0
   34.3690   29.6130   47.8780 O   0  0  0  0  0  0  0  0  0  0  0  0
   34.1560   29.9630   46.6990 C   0  0  0  0  0  0  0  0  0  0  0  0
   35.1350   29.9430   45.7290 C   0  0  0  0  0  0  0  0  0  0  0  0
   36.1960   29.6450   45.7900 H   0  0  0  0  0  0  0  0  0  0  0  0
   35.1420   30.2670   44.4180 C   0  0  0  0  0  3  0  0  0  0  0  0
   33.7650   30.7310   44.0290 C   0  0  0  0  0  3  0  0  0  0  0  0
   32.7040   30.6160   45.6290 S   0  0  0  0  0  0  0  0  0  0  0  0
  1  4  1  6  0  0  0
  1  3  1  0  0  0  0
  1  2  1  0  0  0  0
  2  6  1  0  0  0  0
  2  5  1  0  0  0  0
  3  7  1  6  0  0  0
  3 19  1  0  0  0  0
  3  2  1  0  0  0  0
  8  9  1  0  0  0  0
  8  1  1  0  0  0  0
  9 15  1  0  0  0  0
 10 16  1  0  0  0  0
 10  9  2  0  0  0  0
 11 10  1  0  0  0  0
 12 11  2  0  0  0  0
 12 13  1  0  0  0  0
 13  8  2  0  0  0  0
 14 12  1  0  0  0  0
 17 14  1  0  0  0  0
 18 14  1  0  0  0  0
 21 20  2  6  0  0  0
 21 22  1  0  0  0  0
 21 19  1  0  0  0  0
 22 23  1  0  0  0  0
 24 21  1  0  0  0  0
 25 24  1  0  0  0  0
 26 27  1  0  0  0  0
 26 25  2  0  0  0  0
 28 26  1  0  0  0  0
 29 28  2  0  0  0  0
 29 30  1  0  0  0  0
 30 25  1  0  0  0  0
M  END
>  <minimizedAffinity>
-5.39782715

>  <minimizedRMSD>
2.49331212

$$$$
