
 OpenBabel03272504563D

 30 32  0  0  1  0  0  0  0  0999 V2000
   36.0570   30.0370   49.6820 C   0  0  1  0  0  0  0  0  0  0  0  0
   34.6780   30.4320   49.8430 C   0  0  0  0  0  0  0  0  0  0  0  0
   35.0750   29.5180   48.7290 C   0  0  2  0  0  0  0  0  0  0  0  0
   36.5440   29.2300   50.3310 H   0  0  0  0  0  0  0  0  0  0  0  0
   34.3990   30.2310   50.8590 H   0  0  0  0  0  0  0  0  0  0  0  0
   34.4300   31.4740   49.5500 H   0  0  0  0  0  0  0  0  0  0  0  0
   34.7520   29.9220   47.7840 H   0  0  0  0  0  0  0  0  0  0  0  0
   37.0730   31.0030   49.1460 C   0  0  0  0  0  0  0  0  0  0  0  0
   37.1190   32.2620   49.7830 C   0  0  0  0  0  0  0  0  0  0  0  0
   38.0590   33.1290   49.2810 C   0  0  0  0  0  0  0  0  0  0  0  0
   38.8570   32.7580   48.2550 N   0  0  0  0  0  0  0  0  0  0  0  0
   38.7850   31.5320   47.6640 C   0  0  0  0  0  0  0  0  0  0  0  0
   37.8580   30.6360   48.1340 N   0  0  0  0  0  0  0  0  0  0  0  0
   39.6130   31.1150   46.6170 N   0  0  0  0  0  0  0  0  0  0  0  0
   36.4940   32.5650   50.5940 H   0  0  0  0  0  0  0  0  0  0  0  0
   38.1580   34.1160   49.7140 H   0  0  0  0  0  0  0  0  0  0  0  0
   40.2520   30.2880   46.6620 H   0  0  0  0  0  0  0  0  0  0  0  0
   39.4990   31.7530   45.7850 H   0  0  0  0  0  0  0  0  0  0  0  0
   34.7250   28.1750   48.9000 O   0  0  0  0  0  0  0  0  0  0  0  0
   33.2080   26.3830   47.8340 O   0  0  0  0  0  0  0  0  0  0  0  0
   33.2810   27.8460   48.1320 P   0  0  1  0  0  0  0  0  0  0  0  0
   31.9810   28.1210   49.2530 O   0  0  0  0  0  0  0  0  0  0  0  0
   32.3750   28.0010   50.1530 H   0  0  0  0  0  0  0  0  0  0  0  0
   33.1030   28.8350   46.8120 O   0  0  0  0  0  0  0  0  0  0  0  0
   32.2810   29.5260   46.1750 C   0  0  0  0  0  0  0  0  0  0  0  0
   32.5320   30.8330   45.8140 C   0  0  0  0  0  0  0  0  0  0  0  0
   33.4160   31.4670   45.9950 H   0  0  0  0  0  0  0  0  0  0  0  0
   31.8150   31.7580   45.1400 C   0  0  0  0  0  3  0  0  0  0  0  0
   30.4950   31.1520   44.7440 C   0  0  0  0  0  3  0  0  0  0  0  0
   30.5280   29.3500   45.4200 S   0  0  0  0  0  0  0  0  0  0  0  0
  1  2  1  0  0  0  0
  1  4  1  1  0  0  0
  2  5  1  0  0  0  0
  3  7  1  6  0  0  0
  3 19  1  0  0  0  0
  3  1  1  0  0  0  0
  3  2  1  0  0  0  0
  6  2  1  0  0  0  0
  8  1  1  0  0  0  0
  8  9  1  0  0  0  0
  9 15  1  0  0  0  0
 10 16  1  0  0  0  0
 10  9  2  0  0  0  0
 11 10  1  0  0  0  0
 12 13  1  0  0  0  0
 12 11  2  0  0  0  0
 13  8  2  0  0  0  0
 14 17  1  0  0  0  0
 14 12  1  0  0  0  0
 18 14  1  0  0  0  0
 21 20  2  6  0  0  0
 21 19  1  0  0  0  0
 21 22  1  0  0  0  0
 22 23  1  0  0  0  0
 24 21  1  0  0  0  0
 25 24  1  0  0  0  0
 26 27  1  0  0  0  0
 26 25  2  0  0  0  0
 28 26  1  0  0  0  0
 29 28  2  0  0  0  0
 29 30  1  0  0  0  0
 30 25  1  0  0  0  0
M  END
>  <minimizedAffinity>
-5.31669569

>  <minimizedRMSD>
3.21171951

$$$$
