
 OpenBabel03262521433D

 32 35  0  0  1  0  0  0  0  0999 V2000
   37.5730   30.0100   44.4940 C   0  0  1  0  0  0  0  0  0  0  0  0
   36.4250   29.5600   43.5780 C   0  0  2  0  0  0  0  0  0  0  0  0
   36.8780   30.3390   42.3660 C   0  0  0  0  0  0  0  0  0  0  0  0
   38.2460   30.1250   42.2790 O   0  0  0  0  0  0  0  0  0  0  0  0
   38.7260   29.7960   43.5120 C   0  0  0  0  0  0  0  0  0  0  0  0
   37.6120   29.2890   45.3260 H   0  0  0  0  0  0  0  0  0  0  0  0
   36.5490   28.4800   43.3750 H   0  0  0  0  0  0  0  0  0  0  0  0
   36.6390   31.4100   42.4420 H   0  0  0  0  0  0  0  0  0  0  0  0
   36.3650   29.8970   41.4680 H   0  0  0  0  0  0  0  0  0  0  0  0
   39.5430   30.5330   43.7560 H   0  0  0  0  0  0  0  0  0  0  0  0
   39.1670   28.7980   43.6080 H   0  0  0  0  0  0  0  0  0  0  0  0
   35.1120   29.9460   44.1000 C   0  0  0  0  0  0  0  0  0  0  0  0
   34.6320   29.3800   45.2890 C   0  0  0  0  0  0  0  0  0  0  0  0
   33.3620   29.7770   45.7200 C   0  0  0  0  0  0  0  0  0  0  0  0
   32.6650   30.6840   44.9670 N   0  0  0  0  0  0  0  0  0  0  0  0
   33.1670   31.2150   43.8090 C   0  0  0  0  0  0  0  0  0  0  0  0
   34.3960   30.8360   43.3890 N   0  0  0  0  0  0  0  0  0  0  0  0
   35.2140   28.6660   45.8540 H   0  0  0  0  0  0  0  0  0  0  0  0
   32.9250   29.3840   46.6280 H   0  0  0  0  0  0  0  0  0  0  0  0
   32.5430   31.9170   43.2940 H   0  0  0  0  0  0  0  0  0  0  0  0
   37.5400   31.3330   44.7800 O   0  0  0  0  0  0  0  0  0  0  0  0
   38.3170   32.0300   45.6950 C   0  0  0  0  0  0  0  0  0  0  0  0
   39.3660   32.8500   45.3340 C   0  0  0  0  0  0  0  0  0  0  0  0
   39.6100   32.9680   44.2980 H   0  0  0  0  0  0  0  0  0  0  0  0
   40.1380   33.5430   46.2380 C   0  0  0  0  0  0  0  0  0  0  0  0
   39.8650   33.4250   47.5900 C   0  0  0  0  0  0  0  0  0  0  0  0
   38.8040   32.5970   47.9680 C   0  0  0  0  0  0  0  0  0  0  0  0
   38.5340   32.4810   49.3020 C   0  0  0  0  0  0  0  0  0  0  0  0
   37.5000   31.6820   49.7750 C   0  0  0  0  0  0  0  0  0  0  0  0
   36.7260   30.9880   48.8770 C   0  0  0  0  0  0  0  0  0  0  0  0
   36.9880   31.0960   47.5250 C   0  0  0  0  0  0  0  0  0  0  0  0
   38.0250   31.8970   47.0490 C   0  0  0  0  0  0  0  0  0  0  0  0
  1 21  1  0  0  0  0
  1  6  1  1  0  0  0
  2  7  1  6  0  0  0
  2 12  1  0  0  0  0
  2  1  1  0  0  0  0
  3  8  1  0  0  0  0
  3  2  1  0  0  0  0
  4  3  1  0  0  0  0
  4  5  1  0  0  0  0
  5 11  1  0  0  0  0
  5 10  1  0  0  0  0
  5  1  1  0  0  0  0
  9  3  1  0  0  0  0
 12 13  1  0  0  0  0
 13 14  2  0  0  0  0
 13 18  1  0  0  0  0
 14 19  1  0  0  0  0
 15 14  1  0  0  0  0
 16 15  2  0  0  0  0
 17 16  1  0  0  0  0
 17 12  2  0  0  0  0
 20 16  1  0  0  0  0
 21 22  1  0  0  0  0
 22 32  1  0  0  0  0
 23 22  2  0  0  0  0
 23 25  1  0  0  0  0
 24 23  1  0  0  0  0
 25 26  2  0  0  0  0
 26 27  1  0  0  0  0
 27 28  1  0  0  0  0
 28 29  2  0  0  0  0
 30 29  1  0  0  0  0
 31 30  2  0  0  0  0
 32 31  1  0  0  0  0
 32 27  2  0  0  0  0
M  END
>  <minimizedAffinity>
-5.2446394

>  <minimizedRMSD>
4.96288586

$$$$
