
 OpenBabel03272500593D

 37 40  0  0  0  0  0  0  0  0999 V2000
   37.0890   21.9640   33.2220 C   0  0  0  0  0  0  0  0  0  0  0  0
   36.3780   20.9370   33.7860 C   0  0  0  0  0  0  0  0  0  0  0  0
   35.3080   20.3160   33.1260 C   0  0  0  0  0  0  0  0  0  0  0  0
   34.9690   20.7990   31.8030 C   0  0  0  0  0  0  0  0  0  0  0  0
   35.7150   21.8200   31.3060 C   0  0  0  0  0  0  0  0  0  0  0  0
   36.7310   22.4080   31.9410 C   0  0  0  0  0  0  0  0  0  0  0  0
   36.6120   20.5480   34.7850 H   0  0  0  0  0  0  0  0  0  0  0  0
   34.7850   19.5020   33.6360 H   0  0  0  0  0  0  0  0  0  0  0  0
   34.1480   20.2390   31.4310 H   0  0  0  0  0  0  0  0  0  0  0  0
   35.3110   21.9930   30.3210 H   0  0  0  0  0  0  0  0  0  0  0  0
   39.4670   21.9060   33.8170 C   0  0  0  0  0  0  0  0  0  0  0  0
   38.1790   22.4790   34.0220 C   0  0  0  0  0  0  0  0  0  0  0  0
   38.1310   23.4780   34.9620 C   0  0  0  0  0  0  0  0  0  0  0  0
   39.2390   23.8570   35.6180 N   0  0  0  0  0  0  0  0  0  0  0  0
   40.4270   23.3150   35.4170 C   0  0  0  0  0  0  0  0  0  0  0  0
   40.5310   22.3450   34.5180 N   0  0  0  0  0  0  0  0  0  0  0  0
   39.6200   21.1080   33.0950 H   0  0  0  0  0  0  0  0  0  0  0  0
   37.1490   23.9130   35.1150 H   0  0  0  0  0  0  0  0  0  0  0  0
   41.2290   23.7240   36.0200 H   0  0  0  0  0  0  0  0  0  0  0  0
   36.6400   24.6680   31.3160 C   0  0  0  0  0  0  0  0  0  0  0  0
   35.4150   24.6320   31.7100 O   0  0  0  0  0  0  0  0  0  0  0  0
   37.4290   23.4510   31.3910 N   0  0  0  0  0  0  0  0  0  0  0  0
   38.3990   23.4000   31.0610 H   0  0  0  0  0  0  0  0  0  0  0  0
   37.1320   25.8500   30.8430 O   0  0  0  0  0  0  0  0  0  0  0  0
   37.1120   27.0700   31.4830 C   0  0  0  0  0  0  0  0  0  0  0  0
   36.5370   28.1040   30.9470 O   0  0  0  0  0  0  0  0  0  0  0  0
   37.7650   27.1060   32.8130 C   0  0  0  0  0  0  0  0  0  0  0  0
   37.0410   27.2470   33.9780 C   0  0  0  0  0  0  0  0  0  0  0  0
   35.9450   27.3230   33.8780 H   0  0  0  0  0  0  0  0  0  0  0  0
   37.5690   27.3010   35.2410 C   0  0  0  0  0  3  0  0  0  0  0  0
   38.9330   27.2080   35.3940 C   0  0  0  0  0  3  0  0  0  0  0  0
   39.6860   27.0680   34.2740 C   0  0  0  0  0  0  0  0  0  0  0  0
   41.0480   26.9790   34.4780 C   0  0  0  0  0  3  0  0  0  0  0  0
   41.9140   26.8330   33.4210 C   0  0  0  0  0  3  0  0  0  0  0  0
   41.3400   26.7830   32.1480 C   0  0  0  0  0  3  0  0  0  0  0  0
   39.9730   26.8770   32.0020 C   0  0  0  0  0  3  0  0  0  0  0  0
   39.1080   27.0210   33.0380 C   0  0  0  0  0  0  0  0  0  0  0  0
  1  2  1  0  0  0  0
  1 12  1  0  0  0  0
  2  7  1  0  0  0  0
  3  8  1  0  0  0  0
  3  2  2  0  0  0  0
  4  3  1  0  0  0  0
  5  4  2  0  0  0  0
  5  6  1  0  0  0  0
  6  1  2  0  0  0  0
  9  4  1  0  0  0  0
 10  5  1  0  0  0  0
 11 12  2  0  0  0  0
 11 16  1  0  0  0  0
 12 13  1  0  0  0  0
 13 18  1  0  0  0  0
 13 14  2  0  0  0  0
 15 14  1  0  0  0  0
 15 19  1  0  0  0  0
 16 15  2  0  0  0  0
 17 11  1  0  0  0  0
 20 22  1  0  0  0  0
 20 21  2  0  0  0  0
 22  6  1  0  0  0  0
 23 22  1  0  0  0  0
 24 20  1  0  0  0  0
 24 25  1  0  0  0  0
 25 27  1  0  0  0  0
 26 25  2  0  0  0  0
 27 37  2  0  0  0  0
 27 28  1  0  0  0  0
 28 30  2  0  0  0  0
 29 28  1  0  0  0  0
 30 31  1  0  0  0  0
 32 33  1  0  0  0  0
 32 31  2  0  0  0  0
 34 33  2  0  0  0  0
 35 34  1  0  0  0  0
 36 35  2  0  0  0  0
 36 37  1  0  0  0  0
 37 32  1  0  0  0  0
M  END
>  <minimizedAffinity>
-6.42903042

$$$$

 OpenBabel03272500593D

 37 40  0  0  0  0  0  0  0  0999 V2000
   33.2110   30.9090   36.0260 C   0  0  0  0  0  0  0  0  0  0  0  0
   32.6400   31.7880   36.9100 C   0  0  0  0  0  0  0  0  0  0  0  0
   33.3470   32.8720   37.4480 C   0  0  0  0  0  0  0  0  0  0  0  0
   34.7260   33.0430   37.0350 C   0  0  0  0  0  0  0  0  0  0  0  0
   35.2260   32.1340   36.1570 C   0  0  0  0  0  0  0  0  0  0  0  0
   34.5470   31.1030   35.6500 C   0  0  0  0  0  0  0  0  0  0  0  0
   31.5990   31.6870   37.2410 H   0  0  0  0  0  0  0  0  0  0  0  0
   32.8310   33.5340   38.1490 H   0  0  0  0  0  0  0  0  0  0  0  0
   35.1290   33.8970   37.5190 H   0  0  0  0  0  0  0  0  0  0  0  0
   36.2360   32.4650   35.9740 H   0  0  0  0  0  0  0  0  0  0  0  0
   31.9710   28.8400   36.4670 C   0  0  0  0  0  0  0  0  0  0  0  0
   32.3400   29.8590   35.5430 C   0  0  0  0  0  0  0  0  0  0  0  0
   31.8030   29.7260   34.2860 C   0  0  0  0  0  0  0  0  0  0  0  0
   30.9950   28.6950   33.9900 N   0  0  0  0  0  0  0  0  0  0  0  0
   30.6640   27.7570   34.8590 C   0  0  0  0  0  0  0  0  0  0  0  0
   31.1530   27.8370   36.0900 N   0  0  0  0  0  0  0  0  0  0  0  0
   32.3380   28.8470   37.4890 H   0  0  0  0  0  0  0  0  0  0  0  0
   32.0860   30.5040   33.5850 H   0  0  0  0  0  0  0  0  0  0  0  0
   30.0030   26.9880   34.4770 H   0  0  0  0  0  0  0  0  0  0  0  0
   35.2740   30.7520   33.4460 C   0  0  0  0  0  0  0  0  0  0  0  0
   34.8350   31.9390   33.2110 O   0  0  0  0  0  0  0  0  0  0  0  0
   35.1200   30.2080   34.7840 N   0  0  0  0  0  0  0  0  0  0  0  0
   35.4150   29.2570   35.0310 H   0  0  0  0  0  0  0  0  0  0  0  0
   35.8570   30.0640   32.4210 O   0  0  0  0  0  0  0  0  0  0  0  0
   35.9010   28.6970   32.2630 C   0  0  0  0  0  0  0  0  0  0  0  0
   34.8120   27.9910   32.1910 O   0  0  0  0  0  0  0  0  0  0  0  0
   37.2560   28.1060   32.1610 C   0  0  0  0  0  0  0  0  0  0  0  0
   37.9030   27.9680   30.9520 C   0  0  0  0  0  0  0  0  0  0  0  0
   37.3680   28.3270   30.0560 H   0  0  0  0  0  0  0  0  0  0  0  0
   39.1480   27.4230   30.7730 C   0  0  0  0  0  3  0  0  0  0  0  0
   39.8360   26.9670   31.8720 C   0  0  0  0  0  3  0  0  0  0  0  0
   39.2380   27.0830   33.0850 C   0  0  0  0  0  0  0  0  0  0  0  0
   39.9670   26.6130   34.1580 C   0  0  0  0  0  3  0  0  0  0  0  0
   39.4660   26.6770   35.4360 C   0  0  0  0  0  3  0  0  0  0  0  0
   38.1950   27.2380   35.5800 C   0  0  0  0  0  3  0  0  0  0  0  0
   37.5110   27.6920   34.4740 C   0  0  0  0  0  3  0  0  0  0  0  0
   37.9940   27.6340   33.2070 C   0  0  0  0  0  0  0  0  0  0  0  0
  1  2  1  0  0  0  0
  2  7  1  0  0  0  0
  2  3  2  0  0  0  0
  3  8  1  0  0  0  0
  4  3  1  0  0  0  0
  4  9  1  0  0  0  0
  5  4  2  0  0  0  0
  6  1  2  0  0  0  0
  6  5  1  0  0  0  0
 10  5  1  0  0  0  0
 11 17  1  0  0  0  0
 12  1  1  0  0  0  0
 12 11  2  0  0  0  0
 13 12  1  0  0  0  0
 14 13  2  0  0  0  0
 14 15  1  0  0  0  0
 15 16  2  0  0  0  0
 16 11  1  0  0  0  0
 18 13  1  0  0  0  0
 19 15  1  0  0  0  0
 20 22  1  0  0  0  0
 21 20  2  0  0  0  0
 22 23  1  0  0  0  0
 22  6  1  0  0  0  0
 24 20  1  0  0  0  0
 25 24  1  0  0  0  0
 26 25  2  0  0  0  0
 27 25  1  0  0  0  0
 27 37  1  0  0  0  0
 28 27  2  0  0  0  0
 29 28  1  0  0  0  0
 30 28  1  0  0  0  0
 30 31  2  0  0  0  0
 31 32  1  0  0  0  0
 32 37  2  0  0  0  0
 32 33  1  0  0  0  0
 33 34  2  0  0  0  0
 34 35  1  0  0  0  0
 36 35  2  0  0  0  0
 37 36  1  0  0  0  0
M  END
>  <minimizedAffinity>
-6.3610239

$$$$

 OpenBabel03272500593D

 37 40  0  0  0  0  0  0  0  0999 V2000
   37.1250   21.6940   33.0900 C   0  0  0  0  0  0  0  0  0  0  0  0
   36.3450   20.8410   33.8260 C   0  0  0  0  0  0  0  0  0  0  0  0
   35.1800   20.2580   33.3070 C   0  0  0  0  0  0  0  0  0  0  0  0
   34.8180   20.5880   31.9430 C   0  0  0  0  0  0  0  0  0  0  0  0
   35.6370   21.4400   31.2740 C   0  0  0  0  0  0  0  0  0  0  0  0
   36.7440   21.9940   31.7750 C   0  0  0  0  0  0  0  0  0  0  0  0
   36.5930   20.5710   34.8590 H   0  0  0  0  0  0  0  0  0  0  0  0
   34.6040   19.5860   33.9490 H   0  0  0  0  0  0  0  0  0  0  0  0
   33.9230   20.0770   31.6900 H   0  0  0  0  0  0  0  0  0  0  0  0
   35.1980   21.5210   30.2920 H   0  0  0  0  0  0  0  0  0  0  0  0
   38.1200   23.1790   34.7680 C   0  0  0  0  0  0  0  0  0  0  0  0
   38.3080   22.1910   33.7610 C   0  0  0  0  0  0  0  0  0  0  0  0
   39.6120   21.8120   33.5540 C   0  0  0  0  0  0  0  0  0  0  0  0
   40.6070   22.3590   34.2700 N   0  0  0  0  0  0  0  0  0  0  0  0
   40.4160   23.2760   35.2010 C   0  0  0  0  0  0  0  0  0  0  0  0
   39.1750   23.6780   35.4430 N   0  0  0  0  0  0  0  0  0  0  0  0
   37.1300   23.5520   35.0150 H   0  0  0  0  0  0  0  0  0  0  0  0
   39.7510   21.0590   32.7860 H   0  0  0  0  0  0  0  0  0  0  0  0
   41.3150   23.6240   35.6960 H   0  0  0  0  0  0  0  0  0  0  0  0
   36.9530   24.2060   31.0180 C   0  0  0  0  0  0  0  0  0  0  0  0
   35.8250   24.4140   31.6020 O   0  0  0  0  0  0  0  0  0  0  0  0
   37.5140   22.8660   31.0510 N   0  0  0  0  0  0  0  0  0  0  0  0
   38.3910   22.6230   30.5780 H   0  0  0  0  0  0  0  0  0  0  0  0
   37.5610   25.2560   30.3940 O   0  0  0  0  0  0  0  0  0  0  0  0
   37.6750   26.5460   30.8660 C   0  0  0  0  0  0  0  0  0  0  0  0
   36.8640   27.4810   30.4710 O   0  0  0  0  0  0  0  0  0  0  0  0
   38.7560   26.7750   31.8530 C   0  0  0  0  0  0  0  0  0  0  0  0
   40.0740   26.9120   31.4740 C   0  0  0  0  0  0  0  0  0  0  0  0
   40.2910   26.8520   30.3940 H   0  0  0  0  0  0  0  0  0  0  0  0
   41.1290   27.1140   32.3240 C   0  0  0  0  0  3  0  0  0  0  0  0
   40.8870   27.1920   33.6750 C   0  0  0  0  0  3  0  0  0  0  0  0
   39.6030   27.0630   34.0950 C   0  0  0  0  0  0  0  0  0  0  0  0
   39.4090   27.1490   35.4580 C   0  0  0  0  0  3  0  0  0  0  0  0
   38.1520   27.0360   36.0030 C   0  0  0  0  0  3  0  0  0  0  0  0
   37.1010   26.8300   35.1060 C   0  0  0  0  0  3  0  0  0  0  0  0
   37.3510   26.7520   33.7540 C   0  0  0  0  0  3  0  0  0  0  0  0
   38.5870   26.8620   33.2040 C   0  0  0  0  0  0  0  0  0  0  0  0
  1 12  1  0  0  0  0
  1  2  1  0  0  0  0
  2  7  1  0  0  0  0
  3  2  2  0  0  0  0
  3  8  1  0  0  0  0
  4  3  1  0  0  0  0
  5  6  1  0  0  0  0
  5  4  2  0  0  0  0
  6  1  2  0  0  0  0
  9  4  1  0  0  0  0
 10  5  1  0  0  0  0
 11 17  1  0  0  0  0
 11 16  1  0  0  0  0
 12 11  2  0  0  0  0
 13 12  1  0  0  0  0
 13 14  2  0  0  0  0
 14 15  1  0  0  0  0
 15 16  2  0  0  0  0
 15 19  1  0  0  0  0
 18 13  1  0  0  0  0
 20 22  1  0  0  0  0
 20 21  2  0  0  0  0
 22  6  1  0  0  0  0
 23 22  1  0  0  0  0
 24 25  1  0  0  0  0
 24 20  1  0  0  0  0
 25 27  1  0  0  0  0
 26 25  2  0  0  0  0
 27 37  1  0  0  0  0
 28 27  2  0  0  0  0
 28 30  1  0  0  0  0
 29 28  1  0  0  0  0
 30 31  2  0  0  0  0
 31 32  1  0  0  0  0
 32 33  1  0  0  0  0
 33 34  2  0  0  0  0
 35 34  1  0  0  0  0
 36 35  2  0  0  0  0
 37 36  1  0  0  0  0
 37 32  2  0  0  0  0
M  END
>  <minimizedAffinity>
-6.26124048

$$$$

 OpenBabel03272500593D

 37 40  0  0  0  0  0  0  0  0999 V2000
   41.3450   22.2970   36.4400 C   0  0  0  0  0  0  0  0  0  0  0  0
   41.8180   21.1090   36.9360 C   0  0  0  0  0  0  0  0  0  0  0  0
   43.1520   20.7110   36.7770 C   0  0  0  0  0  0  0  0  0  0  0  0
   44.0370   21.6080   36.0620 C   0  0  0  0  0  0  0  0  0  0  0  0
   43.5010   22.7680   35.5990 C   0  0  0  0  0  0  0  0  0  0  0  0
   42.2280   23.1390   35.7520 C   0  0  0  0  0  0  0  0  0  0  0  0
   41.1730   20.4090   37.4820 H   0  0  0  0  0  0  0  0  0  0  0  0
   43.4620   19.7500   37.1980 H   0  0  0  0  0  0  0  0  0  0  0  0
   45.0070   21.1790   36.0220 H   0  0  0  0  0  0  0  0  0  0  0  0
   44.3290   23.2790   35.1340 H   0  0  0  0  0  0  0  0  0  0  0  0
   39.0010   22.1470   35.7390 C   0  0  0  0  0  0  0  0  0  0  0  0
   39.9500   22.5720   36.7110 C   0  0  0  0  0  0  0  0  0  0  0  0
   39.4160   23.1930   37.8120 C   0  0  0  0  0  0  0  0  0  0  0  0
   38.0890   23.3670   37.9260 N   0  0  0  0  0  0  0  0  0  0  0  0
   37.2210   22.9670   37.0150 C   0  0  0  0  0  0  0  0  0  0  0  0
   37.6830   22.3590   35.9290 N   0  0  0  0  0  0  0  0  0  0  0  0
   39.3130   21.6440   34.8280 H   0  0  0  0  0  0  0  0  0  0  0  0
   40.1420   23.5160   38.5500 H   0  0  0  0  0  0  0  0  0  0  0  0
   36.1830   23.1760   37.2450 H   0  0  0  0  0  0  0  0  0  0  0  0
   41.4470   24.2190   33.8190 C   0  0  0  0  0  0  0  0  0  0  0  0
   41.6970   23.1110   33.2120 O   0  0  0  0  0  0  0  0  0  0  0  0
   41.7460   24.3150   35.2380 N   0  0  0  0  0  0  0  0  0  0  0  0
   41.6050   25.1770   35.7750 H   0  0  0  0  0  0  0  0  0  0  0  0
   40.9170   25.2470   33.0960 O   0  0  0  0  0  0  0  0  0  0  0  0
   40.8140   26.5650   33.4840 C   0  0  0  0  0  0  0  0  0  0  0  0
   41.8620   27.3290   33.5630 O   0  0  0  0  0  0  0  0  0  0  0  0
   39.4410   27.0420   33.7780 C   0  0  0  0  0  0  0  0  0  0  0  0
   38.9740   27.1690   35.0680 C   0  0  0  0  0  0  0  0  0  0  0  0
   39.6740   26.9070   35.8810 H   0  0  0  0  0  0  0  0  0  0  0  0
   37.7180   27.5900   35.4220 C   0  0  0  0  0  3  0  0  0  0  0  0
   36.8270   27.9220   34.4290 C   0  0  0  0  0  3  0  0  0  0  0  0
   37.2440   27.8120   33.1430 C   0  0  0  0  0  0  0  0  0  0  0  0
   36.3150   28.1560   32.1820 C   0  0  0  0  0  3  0  0  0  0  0  0
   36.6220   28.0870   30.8440 C   0  0  0  0  0  3  0  0  0  0  0  0
   37.9090   27.6530   30.5220 C   0  0  0  0  0  3  0  0  0  0  0  0
   38.7980   27.3220   31.5210 C   0  0  0  0  0  3  0  0  0  0  0  0
   38.5070   27.3860   32.8460 C   0  0  0  0  0  0  0  0  0  0  0  0
  1 12  1  0  0  0  0
  1  2  1  0  0  0  0
  2  7  1  0  0  0  0
  3  2  2  0  0  0  0
  3  8  1  0  0  0  0
  4  3  1  0  0  0  0
  5  6  1  0  0  0  0
  5  4  2  0  0  0  0
  6  1  2  0  0  0  0
  9  4  1  0  0  0  0
 10  5  1  0  0  0  0
 11 16  2  0  0  0  0
 11 12  1  0  0  0  0
 12 13  2  0  0  0  0
 13 14  1  0  0  0  0
 13 18  1  0  0  0  0
 15 19  1  0  0  0  0
 15 14  2  0  0  0  0
 16 15  1  0  0  0  0
 17 11  1  0  0  0  0
 20 22  1  0  0  0  0
 21 20  2  0  0  0  0
 22  6  1  0  0  0  0
 22 23  1  0  0  0  0
 24 25  1  0  0  0  0
 24 20  1  0  0  0  0
 25 26  2  0  0  0  0
 25 27  1  0  0  0  0
 27 28  1  0  0  0  0
 28 30  2  0  0  0  0
 28 29  1  0  0  0  0
 31 30  1  0  0  0  0
 32 31  2  0  0  0  0
 33 32  1  0  0  0  0
 34 33  2  0  0  0  0
 35 34  1  0  0  0  0
 35 36  2  0  0  0  0
 36 37  1  0  0  0  0
 37 32  1  0  0  0  0
 37 27  2  0  0  0  0
M  END
>  <minimizedAffinity>
-6.25911427

$$$$

 OpenBabel03272500593D

 37 40  0  0  0  0  0  0  0  0999 V2000
   36.6470   22.3700   32.0700 C   0  0  0  0  0  0  0  0  0  0  0  0
   35.4420   22.1000   31.4740 C   0  0  0  0  0  0  0  0  0  0  0  0
   34.7710   20.8840   31.6610 C   0  0  0  0  0  0  0  0  0  0  0  0
   35.3990   19.9000   32.5200 C   0  0  0  0  0  0  0  0  0  0  0  0
   36.5920   20.2340   33.0770 C   0  0  0  0  0  0  0  0  0  0  0  0
   37.2260   21.3940   32.8920 C   0  0  0  0  0  0  0  0  0  0  0  0
   34.9410   22.8250   30.8200 H   0  0  0  0  0  0  0  0  0  0  0  0
   33.8130   20.7350   31.1560 H   0  0  0  0  0  0  0  0  0  0  0  0
   34.7810   19.0380   32.5670 H   0  0  0  0  0  0  0  0  0  0  0  0
   36.8540   19.3820   33.6840 H   0  0  0  0  0  0  0  0  0  0  0  0
   37.9760   23.8290   30.6150 C   0  0  0  0  0  0  0  0  0  0  0  0
   37.1960   23.6810   31.7970 C   0  0  0  0  0  0  0  0  0  0  0  0
   37.0470   24.8250   32.5420 C   0  0  0  0  0  0  0  0  0  0  0  0
   37.6120   25.9780   32.1500 N   0  0  0  0  0  0  0  0  0  0  0  0
   38.3330   26.0980   31.0500 C   0  0  0  0  0  0  0  0  0  0  0  0
   38.5090   25.0240   30.2910 N   0  0  0  0  0  0  0  0  0  0  0  0
   38.1570   22.9890   29.9510 H   0  0  0  0  0  0  0  0  0  0  0  0
   36.4530   24.7080   33.4420 H   0  0  0  0  0  0  0  0  0  0  0  0
   38.7250   27.0920   30.8620 H   0  0  0  0  0  0  0  0  0  0  0  0
   38.3360   21.9240   34.8910 C   0  0  0  0  0  0  0  0  0  0  0  0
   37.1670   21.9300   35.4300 O   0  0  0  0  0  0  0  0  0  0  0  0
   38.4420   21.6590   33.4670 N   0  0  0  0  0  0  0  0  0  0  0  0
   39.3380   21.6740   32.9670 H   0  0  0  0  0  0  0  0  0  0  0  0
   39.4170   22.1730   35.6880 O   0  0  0  0  0  0  0  0  0  0  0  0
   39.5500   23.1910   36.6060 C   0  0  0  0  0  0  0  0  0  0  0  0
   39.8310   22.9440   37.8500 O   0  0  0  0  0  0  0  0  0  0  0  0
   39.3760   24.5630   36.0720 C   0  0  0  0  0  0  0  0  0  0  0  0
   38.2400   25.3030   36.3210 C   0  0  0  0  0  0  0  0  0  0  0  0
   37.4630   24.8300   36.9470 H   0  0  0  0  0  0  0  0  0  0  0  0
   37.9980   26.5690   35.8560 C   0  0  0  0  0  3  0  0  0  0  0  0
   38.9480   27.1810   35.0730 C   0  0  0  0  0  3  0  0  0  0  0  0
   40.0840   26.4890   34.8020 C   0  0  0  0  0  0  0  0  0  0  0  0
   41.0080   27.1440   34.0150 C   0  0  0  0  0  3  0  0  0  0  0  0
   42.1980   26.5460   33.6740 C   0  0  0  0  0  3  0  0  0  0  0  0
   42.4090   25.2560   34.1650 C   0  0  0  0  0  3  0  0  0  0  0  0
   41.4520   24.6480   34.9480 C   0  0  0  0  0  3  0  0  0  0  0  0
   40.2740   25.2280   35.2910 C   0  0  0  0  0  0  0  0  0  0  0  0
  1  6  1  0  0  0  0
  2  3  1  0  0  0  0
  2  1  2  0  0  0  0
  3  4  2  0  0  0  0
  4  9  1  0  0  0  0
  4  5  1  0  0  0  0
  5 10  1  0  0  0  0
  6  5  2  0  0  0  0
  6 22  1  0  0  0  0
  7  2  1  0  0  0  0
  8  3  1  0  0  0  0
 11 12  1  0  0  0  0
 12  1  1  0  0  0  0
 12 13  2  0  0  0  0
 13 18  1  0  0  0  0
 14 13  1  0  0  0  0
 15 14  2  0  0  0  0
 16 11  2  0  0  0  0
 16 15  1  0  0  0  0
 17 11  1  0  0  0  0
 19 15  1  0  0  0  0
 20 21  2  0  0  0  0
 20 24  1  0  0  0  0
 22 20  1  0  0  0  0
 23 22  1  0  0  0  0
 24 25  1  0  0  0  0
 25 26  2  0  0  0  0
 27 28  1  0  0  0  0
 27 25  1  0  0  0  0
 28 29  1  0  0  0  0
 30 28  2  0  0  0  0
 31 30  1  0  0  0  0
 32 31  2  0  0  0  0
 32 37  1  0  0  0  0
 33 32  1  0  0  0  0
 34 33  2  0  0  0  0
 34 35  1  0  0  0  0
 35 36  2  0  0  0  0
 36 37  1  0  0  0  0
 37 27  2  0  0  0  0
M  END
>  <minimizedAffinity>
-6.166605

$$$$

 OpenBabel03272500593D

 37 40  0  0  0  0  0  0  0  0999 V2000
   39.6790   23.3520   36.3230 C   0  0  0  0  0  0  0  0  0  0  0  0
   39.9550   23.0230   37.6250 C   0  0  0  0  0  0  0  0  0  0  0  0
   39.0460   23.2620   38.6650 C   0  0  0  0  0  0  0  0  0  0  0  0
   37.7810   23.8770   38.3200 C   0  0  0  0  0  0  0  0  0  0  0  0
   37.5750   24.1770   37.0100 C   0  0  0  0  0  0  0  0  0  0  0  0
   38.4470   23.9490   36.0250 C   0  0  0  0  0  0  0  0  0  0  0  0
   40.9030   22.5550   37.9180 H   0  0  0  0  0  0  0  0  0  0  0  0
   39.3310   22.9740   39.6810 H   0  0  0  0  0  0  0  0  0  0  0  0
   37.2010   23.9950   39.2010 H   0  0  0  0  0  0  0  0  0  0  0  0
   36.5810   24.5930   36.9830 H   0  0  0  0  0  0  0  0  0  0  0  0
   41.7870   23.9360   35.2160 C   0  0  0  0  0  0  0  0  0  0  0  0
   40.7100   23.0170   35.3650 C   0  0  0  0  0  0  0  0  0  0  0  0
   40.7890   21.8960   34.5750 C   0  0  0  0  0  0  0  0  0  0  0  0
   41.8230   21.7190   33.7360 N   0  0  0  0  0  0  0  0  0  0  0  0
   42.8140   22.5830   33.6100 C   0  0  0  0  0  0  0  0  0  0  0  0
   42.7890   23.6830   34.3500 N   0  0  0  0  0  0  0  0  0  0  0  0
   41.8270   24.8560   35.7930 H   0  0  0  0  0  0  0  0  0  0  0  0
   39.9670   21.1980   34.6910 H   0  0  0  0  0  0  0  0  0  0  0  0
   43.5790   22.3040   32.8940 H   0  0  0  0  0  0  0  0  0  0  0  0
   38.5130   25.6850   34.4470 C   0  0  0  0  0  0  0  0  0  0  0  0
   38.9490   26.4190   35.4110 O   0  0  0  0  0  0  0  0  0  0  0  0
   38.1850   24.2980   34.7260 N   0  0  0  0  0  0  0  0  0  0  0  0
   37.8000   23.6670   34.0140 H   0  0  0  0  0  0  0  0  0  0  0  0
   38.3780   26.2520   33.2130 O   0  0  0  0  0  0  0  0  0  0  0  0
   37.2260   26.3340   32.4620 C   0  0  0  0  0  0  0  0  0  0  0  0
   36.4240   25.3180   32.3450 O   0  0  0  0  0  0  0  0  0  0  0  0
   36.9650   27.6480   31.8280 C   0  0  0  0  0  0  0  0  0  0  0  0
   37.2490   27.8860   30.5000 C   0  0  0  0  0  0  0  0  0  0  0  0
   37.6730   27.0480   29.9220 H   0  0  0  0  0  0  0  0  0  0  0  0
   37.0480   29.0730   29.8450 C   0  0  0  0  0  3  0  0  0  0  0  0
   36.5200   30.1340   30.5420 C   0  0  0  0  0  3  0  0  0  0  0  0
   36.2260   29.9450   31.8530 C   0  0  0  0  0  0  0  0  0  0  0  0
   35.6980   31.0380   32.5100 C   0  0  0  0  0  3  0  0  0  0  0  0
   35.3580   30.9680   33.8400 C   0  0  0  0  0  3  0  0  0  0  0  0
   35.5770   29.7430   34.4740 C   0  0  0  0  0  3  0  0  0  0  0  0
   36.1060   28.6840   33.7710 C   0  0  0  0  0  3  0  0  0  0  0  0
   36.4460   28.7410   32.4580 C   0  0  0  0  0  0  0  0  0  0  0  0
  1  2  1  0  0  0  0
  2  7  1  0  0  0  0
  2  3  2  0  0  0  0
  3  8  1  0  0  0  0
  4  3  1  0  0  0  0
  4  9  1  0  0  0  0
  5  4  2  0  0  0  0
  6  1  2  0  0  0  0
  6  5  1  0  0  0  0
 10  5  1  0  0  0  0
 11 12  1  0  0  0  0
 11 17  1  0  0  0  0
 12  1  1  0  0  0  0
 13 18  1  0  0  0  0
 13 12  2  0  0  0  0
 14 13  1  0  0  0  0
 15 14  2  0  0  0  0
 15 16  1  0  0  0  0
 16 11  2  0  0  0  0
 19 15  1  0  0  0  0
 20 22  1  0  0  0  0
 20 21  2  0  0  0  0
 22  6  1  0  0  0  0
 23 22  1  0  0  0  0
 24 20  1  0  0  0  0
 25 24  1  0  0  0  0
 26 25  2  0  0  0  0
 27 37  1  0  0  0  0
 27 25  1  0  0  0  0
 28 27  2  0  0  0  0
 29 28  1  0  0  0  0
 30 28  1  0  0  0  0
 30 31  2  0  0  0  0
 31 32  1  0  0  0  0
 32 37  2  0  0  0  0
 32 33  1  0  0  0  0
 33 34  2  0  0  0  0
 34 35  1  0  0  0  0
 36 35  2  0  0  0  0
 37 36  1  0  0  0  0
M  END
>  <minimizedAffinity>
-6.16100931

$$$$

 OpenBabel03272500593D

 37 40  0  0  0  0  0  0  0  0999 V2000
   37.1340   21.6800   33.2480 C   0  0  0  0  0  0  0  0  0  0  0  0
   36.3050   20.7760   33.8600 C   0  0  0  0  0  0  0  0  0  0  0  0
   35.2060   20.2050   33.2030 C   0  0  0  0  0  0  0  0  0  0  0  0
   34.9660   20.6050   31.8310 C   0  0  0  0  0  0  0  0  0  0  0  0
   35.8270   21.5050   31.2890 C   0  0  0  0  0  0  0  0  0  0  0  0
   36.8710   22.0460   31.9210 C   0  0  0  0  0  0  0  0  0  0  0  0
   36.4610   20.4530   34.8970 H   0  0  0  0  0  0  0  0  0  0  0  0
   34.5860   19.4900   33.7510 H   0  0  0  0  0  0  0  0  0  0  0  0
   34.1090   20.0950   31.4680 H   0  0  0  0  0  0  0  0  0  0  0  0
   35.4800   21.6320   30.2760 H   0  0  0  0  0  0  0  0  0  0  0  0
   37.9200   22.7810   35.2930 C   0  0  0  0  0  0  0  0  0  0  0  0
   38.2380   22.1560   34.0540 C   0  0  0  0  0  0  0  0  0  0  0  0
   39.5790   22.0690   33.7740 C   0  0  0  0  0  0  0  0  0  0  0  0
   40.4920   22.5500   34.6330 N   0  0  0  0  0  0  0  0  0  0  0  0
   40.1810   23.1280   35.7800 C   0  0  0  0  0  0  0  0  0  0  0  0
   38.8980   23.2380   36.1010 N   0  0  0  0  0  0  0  0  0  0  0  0
   36.8900   22.9030   35.6150 H   0  0  0  0  0  0  0  0  0  0  0  0
   39.8180   21.5920   32.8290 H   0  0  0  0  0  0  0  0  0  0  0  0
   41.0250   23.4660   36.3690 H   0  0  0  0  0  0  0  0  0  0  0  0
   37.0950   24.2940   31.2860 C   0  0  0  0  0  0  0  0  0  0  0  0
   35.9060   24.4490   31.7540 O   0  0  0  0  0  0  0  0  0  0  0  0
   37.6880   22.9680   31.3220 N   0  0  0  0  0  0  0  0  0  0  0  0
   38.6160   22.7680   30.9340 H   0  0  0  0  0  0  0  0  0  0  0  0
   37.7350   25.3860   30.7750 O   0  0  0  0  0  0  0  0  0  0  0  0
   38.6950   26.1500   31.4020 C   0  0  0  0  0  0  0  0  0  0  0  0
   39.8290   26.4160   30.8240 O   0  0  0  0  0  0  0  0  0  0  0  0
   38.3350   26.6550   32.7480 C   0  0  0  0  0  0  0  0  0  0  0  0
   38.9840   26.2270   33.8860 C   0  0  0  0  0  0  0  0  0  0  0  0
   39.7970   25.4930   33.7500 H   0  0  0  0  0  0  0  0  0  0  0  0
   38.7040   26.6350   35.1630 C   0  0  0  0  0  3  0  0  0  0  0  0
   37.6960   27.5490   35.3600 C   0  0  0  0  0  3  0  0  0  0  0  0
   37.0280   27.9990   34.2680 C   0  0  0  0  0  0  0  0  0  0  0  0
   36.0260   28.9150   34.5160 C   0  0  0  0  0  3  0  0  0  0  0  0
   35.2810   29.4440   33.4890 C   0  0  0  0  0  3  0  0  0  0  0  0
   35.5950   29.0040   32.2010 C   0  0  0  0  0  3  0  0  0  0  0  0
   36.6060   28.0880   32.0100 C   0  0  0  0  0  3  0  0  0  0  0  0
   37.3480   27.5580   33.0160 C   0  0  0  0  0  0  0  0  0  0  0  0
  1  2  1  0  0  0  0
  1 12  1  0  0  0  0
  2  7  1  0  0  0  0
  3  8  1  0  0  0  0
  3  2  2  0  0  0  0
  4  3  1  0  0  0  0
  5  4  2  0  0  0  0
  5  6  1  0  0  0  0
  6  1  2  0  0  0  0
  9  4  1  0  0  0  0
 10  5  1  0  0  0  0
 11 17  1  0  0  0  0
 11 16  1  0  0  0  0
 12 11  2  0  0  0  0
 13 12  1  0  0  0  0
 13 14  2  0  0  0  0
 14 15  1  0  0  0  0
 15 16  2  0  0  0  0
 15 19  1  0  0  0  0
 18 13  1  0  0  0  0
 20 22  1  0  0  0  0
 20 21  2  0  0  0  0
 22  6  1  0  0  0  0
 23 22  1  0  0  0  0
 24 20  1  0  0  0  0
 24 25  1  0  0  0  0
 25 27  1  0  0  0  0
 26 25  2  0  0  0  0
 27 37  2  0  0  0  0
 27 28  1  0  0  0  0
 28 30  2  0  0  0  0
 29 28  1  0  0  0  0
 30 31  1  0  0  0  0
 32 33  1  0  0  0  0
 32 31  2  0  0  0  0
 34 33  2  0  0  0  0
 35 34  1  0  0  0  0
 36 35  2  0  0  0  0
 36 37  1  0  0  0  0
 37 32  1  0  0  0  0
M  END
>  <minimizedAffinity>
-6.15926409

$$$$

 OpenBabel03272500593D

 37 40  0  0  0  0  0  0  0  0999 V2000
   39.6210   23.4200   36.3550 C   0  0  0  0  0  0  0  0  0  0  0  0
   39.9460   22.9760   37.6110 C   0  0  0  0  0  0  0  0  0  0  0  0
   39.1180   23.1990   38.7200 C   0  0  0  0  0  0  0  0  0  0  0  0
   37.8840   23.9250   38.4980 C   0  0  0  0  0  0  0  0  0  0  0  0
   37.6260   24.3340   37.2280 C   0  0  0  0  0  0  0  0  0  0  0  0
   38.4200   24.1210   36.1770 C   0  0  0  0  0  0  0  0  0  0  0  0
   40.8720   22.4240   37.8110 H   0  0  0  0  0  0  0  0  0  0  0  0
   39.4390   22.8180   39.6940 H   0  0  0  0  0  0  0  0  0  0  0  0
   37.3650   24.0160   39.4190 H   0  0  0  0  0  0  0  0  0  0  0  0
   36.6650   24.8190   37.2920 H   0  0  0  0  0  0  0  0  0  0  0  0
   41.6790   23.9590   35.1370 C   0  0  0  0  0  0  0  0  0  0  0  0
   40.5680   23.0860   35.3130 C   0  0  0  0  0  0  0  0  0  0  0  0
   40.5370   22.0070   34.4650 C   0  0  0  0  0  0  0  0  0  0  0  0
   41.5030   21.8250   33.5500 N   0  0  0  0  0  0  0  0  0  0  0  0
   42.5270   22.6450   33.3990 C   0  0  0  0  0  0  0  0  0  0  0  0
   42.6080   23.7040   34.1930 N   0  0  0  0  0  0  0  0  0  0  0  0
   41.8040   24.8440   35.7550 H   0  0  0  0  0  0  0  0  0  0  0  0
   39.6890   21.3440   34.6020 H   0  0  0  0  0  0  0  0  0  0  0  0
   43.2280   22.3680   32.6190 H   0  0  0  0  0  0  0  0  0  0  0  0
   38.4840   25.9750   34.7390 C   0  0  0  0  0  0  0  0  0  0  0  0
   38.9960   26.6110   35.7330 O   0  0  0  0  0  0  0  0  0  0  0  0
   38.1110   24.5830   34.9240 N   0  0  0  0  0  0  0  0  0  0  0  0
   37.6660   24.0270   34.1860 H   0  0  0  0  0  0  0  0  0  0  0  0
   38.3130   26.6440   33.5610 O   0  0  0  0  0  0  0  0  0  0  0  0
   37.1350   26.8060   32.8650 C   0  0  0  0  0  0  0  0  0  0  0  0
   36.4980   25.7870   32.3720 O   0  0  0  0  0  0  0  0  0  0  0  0
   36.6490   28.2010   32.7430 C   0  0  0  0  0  0  0  0  0  0  0  0
   35.9680   28.8280   33.7640 C   0  0  0  0  0  0  0  0  0  0  0  0
   35.8070   28.2460   34.6880 H   0  0  0  0  0  0  0  0  0  0  0  0
   35.4770   30.1070   33.7250 C   0  0  0  0  0  3  0  0  0  0  0  0
   35.6640   30.8540   32.5860 C   0  0  0  0  0  3  0  0  0  0  0  0
   36.3300   30.2770   31.5540 C   0  0  0  0  0  0  0  0  0  0  0  0
   36.4930   31.0650   30.4340 C   0  0  0  0  0  3  0  0  0  0  0  0
   37.1530   30.5910   29.3250 C   0  0  0  0  0  3  0  0  0  0  0  0
   37.6380   29.2840   29.4010 C   0  0  0  0  0  3  0  0  0  0  0  0
   37.4470   28.5400   30.5450 C   0  0  0  0  0  3  0  0  0  0  0  0
   36.7980   28.9970   31.6460 C   0  0  0  0  0  0  0  0  0  0  0  0
  1  2  1  0  0  0  0
  2  7  1  0  0  0  0
  2  3  2  0  0  0  0
  3  8  1  0  0  0  0
  4  3  1  0  0  0  0
  4  9  1  0  0  0  0
  5 10  1  0  0  0  0
  5  4  2  0  0  0  0
  6  1  2  0  0  0  0
  6  5  1  0  0  0  0
 11 12  1  0  0  0  0
 11 17  1  0  0  0  0
 12  1  1  0  0  0  0
 13 18  1  0  0  0  0
 13 12  2  0  0  0  0
 14 13  1  0  0  0  0
 15 14  2  0  0  0  0
 15 16  1  0  0  0  0
 16 11  2  0  0  0  0
 19 15  1  0  0  0  0
 20 22  1  0  0  0  0
 20 21  2  0  0  0  0
 22  6  1  0  0  0  0
 23 22  1  0  0  0  0
 24 20  1  0  0  0  0
 25 24  1  0  0  0  0
 26 25  2  0  0  0  0
 27 25  1  0  0  0  0
 27 28  1  0  0  0  0
 28 29  1  0  0  0  0
 30 28  2  0  0  0  0
 31 30  1  0  0  0  0
 32 37  1  0  0  0  0
 32 31  2  0  0  0  0
 33 32  1  0  0  0  0
 34 35  1  0  0  0  0
 34 33  2  0  0  0  0
 35 36  2  0  0  0  0
 36 37  1  0  0  0  0
 37 27  2  0  0  0  0
M  END
>  <minimizedAffinity>
-6.08751297

$$$$

 OpenBabel03272500593D

 37 40  0  0  0  0  0  0  0  0999 V2000
   36.6980   22.8180   31.4110 C   0  0  0  0  0  0  0  0  0  0  0  0
   35.5000   22.1590   31.3030 C   0  0  0  0  0  0  0  0  0  0  0  0
   35.4240   20.7950   30.9870 C   0  0  0  0  0  0  0  0  0  0  0  0
   36.6700   20.0880   30.7730 C   0  0  0  0  0  0  0  0  0  0  0  0
   37.8180   20.8040   30.8950 C   0  0  0  0  0  0  0  0  0  0  0  0
   37.8830   22.1030   31.1950 C   0  0  0  0  0  0  0  0  0  0  0  0
   34.5410   22.6660   31.4610 H   0  0  0  0  0  0  0  0  0  0  0  0
   34.4350   20.3320   30.9170 H   0  0  0  0  0  0  0  0  0  0  0  0
   36.4570   19.0730   30.5440 H   0  0  0  0  0  0  0  0  0  0  0  0
   38.6030   20.0850   30.7240 H   0  0  0  0  0  0  0  0  0  0  0  0
   35.8660   25.0680   30.9010 C   0  0  0  0  0  0  0  0  0  0  0  0
   36.6070   24.2170   31.7700 C   0  0  0  0  0  0  0  0  0  0  0  0
   37.1450   24.8380   32.8700 C   0  0  0  0  0  0  0  0  0  0  0  0
   36.9630   26.1520   33.0740 N   0  0  0  0  0  0  0  0  0  0  0  0
   36.2730   26.9280   32.2570 C   0  0  0  0  0  0  0  0  0  0  0  0
   35.7300   26.3800   31.1780 N   0  0  0  0  0  0  0  0  0  0  0  0
   35.3960   24.6820   30.0000 H   0  0  0  0  0  0  0  0  0  0  0  0
   37.7090   24.1870   33.5300 H   0  0  0  0  0  0  0  0  0  0  0  0
   36.2120   27.9690   32.5530 H   0  0  0  0  0  0  0  0  0  0  0  0
   39.8220   22.4260   32.4780 C   0  0  0  0  0  0  0  0  0  0  0  0
   39.2910   21.6060   33.3160 O   0  0  0  0  0  0  0  0  0  0  0  0
   39.0770   22.7710   31.2800 N   0  0  0  0  0  0  0  0  0  0  0  0
   39.4250   23.4440   30.5880 H   0  0  0  0  0  0  0  0  0  0  0  0
   41.0570   22.9310   32.7620 O   0  0  0  0  0  0  0  0  0  0  0  0
   41.3960   23.7390   33.8250 C   0  0  0  0  0  0  0  0  0  0  0  0
   41.8190   24.9540   33.6410 O   0  0  0  0  0  0  0  0  0  0  0  0
   41.2240   23.1380   35.1690 C   0  0  0  0  0  0  0  0  0  0  0  0
   42.0860   22.1780   35.6550 C   0  0  0  0  0  0  0  0  0  0  0  0
   42.9230   21.8820   34.9990 H   0  0  0  0  0  0  0  0  0  0  0  0
   41.9890   21.5670   36.8770 C   0  0  0  0  0  3  0  0  0  0  0  0
   40.9550   21.9180   37.7140 C   0  0  0  0  0  3  0  0  0  0  0  0
   40.0810   22.8590   37.2770 C   0  0  0  0  0  0  0  0  0  0  0  0
   39.0620   23.1790   38.1500 C   0  0  0  0  0  3  0  0  0  0  0  0
   38.1150   24.1190   37.8200 C   0  0  0  0  0  3  0  0  0  0  0  0
   38.2460   24.7200   36.5660 C   0  0  0  0  0  3  0  0  0  0  0  0
   39.2840   24.3640   35.7320 C   0  0  0  0  0  3  0  0  0  0  0  0
   40.2240   23.4370   36.0470 C   0  0  0  0  0  0  0  0  0  0  0  0
  1 12  1  0  0  0  0
  2  1  1  0  0  0  0
  2  7  1  0  0  0  0
  3  2  2  0  0  0  0
  4  5  2  0  0  0  0
  4  3  1  0  0  0  0
  5  6  1  0  0  0  0
  6 22  1  0  0  0  0
  6  1  2  0  0  0  0
  8  3  1  0  0  0  0
  9  4  1  0  0  0  0
 10  5  1  0  0  0  0
 11 16  2  0  0  0  0
 11 12  1  0  0  0  0
 12 13  2  0  0  0  0
 13 14  1  0  0  0  0
 13 18  1  0  0  0  0
 15 19  1  0  0  0  0
 15 14  2  0  0  0  0
 16 15  1  0  0  0  0
 17 11  1  0  0  0  0
 20 24  1  0  0  0  0
 20 21  2  0  0  0  0
 22 20  1  0  0  0  0
 23 22  1  0  0  0  0
 24 25  1  0  0  0  0
 25 27  1  0  0  0  0
 26 25  2  0  0  0  0
 27 28  2  0  0  0  0
 27 37  1  0  0  0  0
 28 30  1  0  0  0  0
 29 28  1  0  0  0  0
 30 31  2  0  0  0  0
 32 31  1  0  0  0  0
 32 33  1  0  0  0  0
 34 33  2  0  0  0  0
 35 34  1  0  0  0  0
 36 37  1  0  0  0  0
 36 35  2  0  0  0  0
 37 32  2  0  0  0  0
M  END
>  <minimizedAffinity>
-6.04948711

$$$$
