
 OpenBabel03272503253D

 34 37  0  0  1  0  0  0  0  0999 V2000
   36.5060   27.6230   32.7070 N   0  0  0  0  0  0  0  0  0  0  0  0
   36.2520   29.0030   32.5310 C   0  0  1  0  0  0  0  0  0  0  0  0
   36.3340   29.2290   31.0260 C   0  0  0  0  0  0  0  0  0  0  0  0
   36.6250   27.8220   30.4570 C   0  0  0  0  0  0  0  0  0  0  0  0
   35.9680   26.9860   31.5330 C   0  0  0  0  0  0  0  0  0  0  0  0
   37.2600   29.4880   32.8730 H   0  0  0  0  0  0  0  0  0  0  0  0
   37.0690   29.9680   30.7180 H   0  0  0  0  0  0  0  0  0  0  0  0
   35.2950   29.4520   30.6910 H   0  0  0  0  0  0  0  0  0  0  0  0
   36.1880   27.6860   29.4660 H   0  0  0  0  0  0  0  0  0  0  0  0
   37.7260   27.7310   30.4970 H   0  0  0  0  0  0  0  0  0  0  0  0
   36.3010   25.9610   31.3880 H   0  0  0  0  0  0  0  0  0  0  0  0
   34.8680   27.1140   31.4470 H   0  0  0  0  0  0  0  0  0  0  0  0
   37.1650   27.0180   33.8160 C   0  0  0  0  0  0  0  0  0  0  0  0
   37.5510   27.8030   34.8830 C   0  0  0  0  0  0  0  0  0  0  0  0
   38.1570   27.2160   35.9960 C   0  0  0  0  0  0  0  0  0  0  0  0
   38.3340   25.8440   35.9410 N   0  0  0  0  0  0  0  0  0  0  0  0
   37.9470   25.1070   34.8830 C   0  0  0  0  0  0  0  0  0  0  0  0
   37.3570   25.6950   33.8070 N   0  0  0  0  0  0  0  0  0  0  0  0
   37.4160   28.8700   34.9300 H   0  0  0  0  0  0  0  0  0  0  0  0
   38.4680   27.8070   36.8440 H   0  0  0  0  0  0  0  0  0  0  0  0
   38.1280   24.0460   34.9370 H   0  0  0  0  0  0  0  0  0  0  0  0
   35.1710   29.6100   33.2440 C   0  0  0  0  0  0  0  0  0  0  0  0
   34.0480   29.3440   32.7770 O   0  0  0  0  0  0  0  0  0  0  0  0
   34.9480   30.4940   34.3800 C   0  0  0  0  0  0  0  0  0  0  0  0
   35.8470   31.4640   34.7620 C   0  0  0  0  0  0  0  0  0  0  0  0
   36.7550   31.7130   34.2470 H   0  0  0  0  0  0  0  0  0  0  0  0
   35.7910   32.2700   35.8770 C   0  0  0  0  0  3  0  0  0  0  0  0
   34.7170   32.0950   36.7150 C   0  0  0  0  0  3  0  0  0  0  0  0
   33.7720   31.1490   36.4090 C   0  0  0  0  0  0  0  0  0  0  0  0
   32.6920   31.0080   37.2500 C   0  0  0  0  0  3  0  0  0  0  0  0
   31.6760   30.1080   37.0250 C   0  0  0  0  0  3  0  0  0  0  0  0
   31.8060   29.3350   35.8710 C   0  0  0  0  0  3  0  0  0  0  0  0
   32.8980   29.5000   35.0500 C   0  0  0  0  0  3  0  0  0  0  0  0
   33.9150   30.3940   35.2720 C   0  0  0  0  0  0  0  0  0  0  0  0
  1 13  1  0  0  0  0
  2  1  1  0  0  0  0
  2  6  1  1  0  0  0
  2 22  1  0  0  0  0
  3  2  1  0  0  0  0
  4 10  1  0  0  0  0
  4  3  1  0  0  0  0
  4  5  1  0  0  0  0
  5  1  1  0  0  0  0
  7  3  1  0  0  0  0
  8  3  1  0  0  0  0
  9  4  1  0  0  0  0
 11  5  1  0  0  0  0
 12  5  1  0  0  0  0
 13 14  1  0  0  0  0
 14 19  1  0  0  0  0
 14 15  2  0  0  0  0
 15 20  1  0  0  0  0
 16 15  1  0  0  0  0
 17 21  1  0  0  0  0
 17 16  2  0  0  0  0
 18 13  2  0  0  0  0
 18 17  1  0  0  0  0
 22 24  1  0  0  0  0
 23 22  2  0  0  0  0
 24 25  2  0  0  0  0
 24 34  1  0  0  0  0
 25 27  1  0  0  0  0
 26 25  1  0  0  0  0
 27 28  2  0  0  0  0
 29 28  1  0  0  0  0
 29 30  1  0  0  0  0
 31 30  2  0  0  0  0
 32 31  1  0  0  0  0
 33 34  1  0  0  0  0
 33 32  2  0  0  0  0
 34 29  2  0  0  0  0
M  END
>  <minimizedAffinity>
-6.12268925

$$$$

 OpenBabel03272503253D

 34 37  0  0  1  0  0  0  0  0999 V2000
   37.8210   25.5850   32.7900 N   0  0  0  0  0  0  0  0  0  0  0  0
   39.0470   25.8660   33.4370 C   0  0  1  0  0  0  0  0  0  0  0  0
   39.5790   27.1160   32.7450 C   0  0  0  0  0  0  0  0  0  0  0  0
   38.4860   27.4570   31.7070 C   0  0  0  0  0  0  0  0  0  0  0  0
   37.2870   26.8700   32.4180 C   0  0  0  0  0  0  0  0  0  0  0  0
   39.7590   25.0550   32.9840 H   0  0  0  0  0  0  0  0  0  0  0  0
   40.5630   27.0030   32.2990 H   0  0  0  0  0  0  0  0  0  0  0  0
   39.5090   27.9360   33.4970 H   0  0  0  0  0  0  0  0  0  0  0  0
   38.4120   28.5320   31.5330 H   0  0  0  0  0  0  0  0  0  0  0  0
   38.7560   26.8580   30.8170 H   0  0  0  0  0  0  0  0  0  0  0  0
   36.4770   26.8240   31.6930 H   0  0  0  0  0  0  0  0  0  0  0  0
   37.0610   27.5070   33.2980 H   0  0  0  0  0  0  0  0  0  0  0  0
   37.2600   24.2960   32.5600 C   0  0  0  0  0  0  0  0  0  0  0  0
   37.8490   23.1910   33.1380 C   0  0  0  0  0  0  0  0  0  0  0  0
   37.2840   21.9260   32.9580 C   0  0  0  0  0  0  0  0  0  0  0  0
   36.1370   21.8750   32.1840 N   0  0  0  0  0  0  0  0  0  0  0  0
   35.5890   22.9740   31.6330 C   0  0  0  0  0  0  0  0  0  0  0  0
   36.1520   24.1980   31.8190 N   0  0  0  0  0  0  0  0  0  0  0  0
   38.7410   23.2240   33.7410 H   0  0  0  0  0  0  0  0  0  0  0  0
   37.7240   21.0450   33.4000 H   0  0  0  0  0  0  0  0  0  0  0  0
   34.6950   22.8300   31.0470 H   0  0  0  0  0  0  0  0  0  0  0  0
   39.1120   25.8070   34.8640 C   0  0  0  0  0  0  0  0  0  0  0  0
   39.3610   26.9020   35.4020 O   0  0  0  0  0  0  0  0  0  0  0  0
   38.9970   24.8340   35.9410 C   0  0  0  0  0  0  0  0  0  0  0  0
   38.0220   24.9020   36.9110 C   0  0  0  0  0  0  0  0  0  0  0  0
   37.2240   25.6200   36.9480 H   0  0  0  0  0  0  0  0  0  0  0  0
   37.8910   24.1080   38.0280 C   0  0  0  0  0  3  0  0  0  0  0  0
   38.8380   23.1310   38.2100 C   0  0  0  0  0  3  0  0  0  0  0  0
   39.8470   22.9930   37.2890 C   0  0  0  0  0  0  0  0  0  0  0  0
   40.7720   21.9920   37.4780 C   0  0  0  0  0  3  0  0  0  0  0  0
   41.8070   21.7500   36.6040 C   0  0  0  0  0  3  0  0  0  0  0  0
   41.8640   22.5940   35.4950 C   0  0  0  0  0  3  0  0  0  0  0  0
   40.9230   23.5860   35.3350 C   0  0  0  0  0  3  0  0  0  0  0  0
   39.8910   23.8330   36.2050 C   0  0  0  0  0  0  0  0  0  0  0  0
  1  2  1  0  0  0  0
  2  6  1  6  0  0  0
  2 22  1  0  0  0  0
  3  2  1  0  0  0  0
  3  8  1  0  0  0  0
  4  5  1  0  0  0  0
  4  3  1  0  0  0  0
  5  1  1  0  0  0  0
  5 12  1  0  0  0  0
  7  3  1  0  0  0  0
  9  4  1  0  0  0  0
 10  4  1  0  0  0  0
 11  5  1  0  0  0  0
 13  1  1  0  0  0  0
 13 14  1  0  0  0  0
 14 19  1  0  0  0  0
 15 14  2  0  0  0  0
 15 20  1  0  0  0  0
 16 15  1  0  0  0  0
 17 18  1  0  0  0  0
 17 16  2  0  0  0  0
 18 13  2  0  0  0  0
 21 17  1  0  0  0  0
 22 23  2  0  0  0  0
 22 24  1  0  0  0  0
 24 34  2  0  0  0  0
 24 25  1  0  0  0  0
 25 26  1  0  0  0  0
 25 27  2  0  0  0  0
 27 28  1  0  0  0  0
 29 30  1  0  0  0  0
 29 28  2  0  0  0  0
 31 30  2  0  0  0  0
 32 31  1  0  0  0  0
 33 32  2  0  0  0  0
 33 34  1  0  0  0  0
 34 29  1  0  0  0  0
M  END
>  <minimizedAffinity>
-6.03581715

$$$$

 OpenBabel03272503253D

 34 37  0  0  1  0  0  0  0  0999 V2000
   35.1510   29.3970   32.4710 N   0  0  0  0  0  0  0  0  0  0  0  0
   35.7020   28.3480   31.6980 C   0  0  1  0  0  0  0  0  0  0  0  0
   36.3760   29.0410   30.5190 C   0  0  0  0  0  0  0  0  0  0  0  0
   36.1380   30.5440   30.7890 C   0  0  0  0  0  0  0  0  0  0  0  0
   36.0520   30.5070   32.2990 C   0  0  0  0  0  0  0  0  0  0  0  0
   34.7580   27.9040   31.1700 H   0  0  0  0  0  0  0  0  0  0  0  0
   36.0180   28.7270   29.5430 H   0  0  0  0  0  0  0  0  0  0  0  0
   37.4730   28.9060   30.6680 H   0  0  0  0  0  0  0  0  0  0  0  0
   36.9550   31.1600   30.4100 H   0  0  0  0  0  0  0  0  0  0  0  0
   35.1490   30.7510   30.3380 H   0  0  0  0  0  0  0  0  0  0  0  0
   35.6460   31.4640   32.6190 H   0  0  0  0  0  0  0  0  0  0  0  0
   37.0660   30.2970   32.6980 H   0  0  0  0  0  0  0  0  0  0  0  0
   33.9530   29.3420   33.2400 C   0  0  0  0  0  0  0  0  0  0  0  0
   33.9960   29.6600   34.5810 C   0  0  0  0  0  0  0  0  0  0  0  0
   32.8210   29.6540   35.3370 C   0  0  0  0  0  0  0  0  0  0  0  0
   31.6620   29.3150   34.6580 N   0  0  0  0  0  0  0  0  0  0  0  0
   31.6550   29.0090   33.3470 C   0  0  0  0  0  0  0  0  0  0  0  0
   32.8090   29.0200   32.6270 N   0  0  0  0  0  0  0  0  0  0  0  0
   34.8940   29.9230   35.1140 H   0  0  0  0  0  0  0  0  0  0  0  0
   32.8270   29.9000   36.3870 H   0  0  0  0  0  0  0  0  0  0  0  0
   30.7020   28.7590   32.9110 H   0  0  0  0  0  0  0  0  0  0  0  0
   36.4140   27.2960   32.3550 C   0  0  0  0  0  0  0  0  0  0  0  0
   36.0930   26.1550   31.9730 O   0  0  0  0  0  0  0  0  0  0  0  0
   37.4240   27.1170   33.3890 C   0  0  0  0  0  0  0  0  0  0  0  0
   37.1170   27.0250   34.7280 C   0  0  0  0  0  0  0  0  0  0  0  0
   36.1270   27.0130   35.1450 H   0  0  0  0  0  0  0  0  0  0  0  0
   37.9930   26.9700   35.7890 C   0  0  0  0  0  3  0  0  0  0  0  0
   39.3320   27.0120   35.4910 C   0  0  0  0  0  3  0  0  0  0  0  0
   39.7270   27.1030   34.1800 C   0  0  0  0  0  0  0  0  0  0  0  0
   41.0740   27.1200   33.9020 C   0  0  0  0  0  3  0  0  0  0  0  0
   41.5780   27.1840   32.6230 C   0  0  0  0  0  3  0  0  0  0  0  0
   40.6240   27.2300   31.6060 C   0  0  0  0  0  3  0  0  0  0  0  0
   39.2830   27.2110   31.9170 C   0  0  0  0  0  3  0  0  0  0  0  0
   38.7770   27.1500   33.1910 C   0  0  0  0  0  0  0  0  0  0  0  0
  1 13  1  0  0  0  0
  2  6  1  6  0  0  0
  2 22  1  0  0  0  0
  2  1  1  0  0  0  0
  3  8  1  0  0  0  0
  3  4  1  0  0  0  0
  3  2  1  0  0  0  0
  4  5  1  0  0  0  0
  5  1  1  0  0  0  0
  5 11  1  0  0  0  0
  5 12  1  0  0  0  0
  7  3  1  0  0  0  0
  9  4  1  0  0  0  0
 10  4  1  0  0  0  0
 13 14  1  0  0  0  0
 14 19  1  0  0  0  0
 14 15  2  0  0  0  0
 15 20  1  0  0  0  0
 16 15  1  0  0  0  0
 17 16  2  0  0  0  0
 18 13  2  0  0  0  0
 18 17  1  0  0  0  0
 21 17  1  0  0  0  0
 22 24  1  0  0  0  0
 23 22  2  0  0  0  0
 24 25  1  0  0  0  0
 25 26  1  0  0  0  0
 25 27  2  0  0  0  0
 28 27  1  0  0  0  0
 29 28  2  0  0  0  0
 30 29  1  0  0  0  0
 31 30  2  0  0  0  0
 32 33  2  0  0  0  0
 32 31  1  0  0  0  0
 33 34  1  0  0  0  0
 34 24  2  0  0  0  0
 34 29  1  0  0  0  0
M  END
>  <minimizedAffinity>
-5.95068216

$$$$

 OpenBabel03272503253D

 34 37  0  0  1  0  0  0  0  0999 V2000
   38.6120   23.4010   36.2380 N   0  0  0  0  0  0  0  0  0  0  0  0
   38.0480   24.6440   36.6090 C   0  0  1  0  0  0  0  0  0  0  0  0
   37.9560   24.5950   38.1300 C   0  0  0  0  0  0  0  0  0  0  0  0
   38.5580   23.2180   38.4920 C   0  0  0  0  0  0  0  0  0  0  0  0
   39.4970   23.0490   37.3180 C   0  0  0  0  0  0  0  0  0  0  0  0
   36.9220   24.5010   36.3260 H   0  0  0  0  0  0  0  0  0  0  0  0
   36.9560   24.7340   38.5290 H   0  0  0  0  0  0  0  0  0  0  0  0
   38.7050   25.3300   38.5070 H   0  0  0  0  0  0  0  0  0  0  0  0
   39.0630   23.2370   39.4600 H   0  0  0  0  0  0  0  0  0  0  0  0
   37.7050   22.5180   38.4250 H   0  0  0  0  0  0  0  0  0  0  0  0
   39.8180   22.0100   37.3120 H   0  0  0  0  0  0  0  0  0  0  0  0
   40.3320   23.7720   37.4360 H   0  0  0  0  0  0  0  0  0  0  0  0
   38.3390   22.6690   35.0460 C   0  0  0  0  0  0  0  0  0  0  0  0
   39.2690   22.6650   34.0280 C   0  0  0  0  0  0  0  0  0  0  0  0
   39.0330   21.9150   32.8730 C   0  0  0  0  0  0  0  0  0  0  0  0
   37.8420   21.2110   32.8360 N   0  0  0  0  0  0  0  0  0  0  0  0
   36.9540   21.2380   33.8480 C   0  0  0  0  0  0  0  0  0  0  0  0
   37.2000   21.9730   34.9660 N   0  0  0  0  0  0  0  0  0  0  0  0
   40.1970   23.2110   34.0510 H   0  0  0  0  0  0  0  0  0  0  0  0
   39.7450   21.8940   32.0620 H   0  0  0  0  0  0  0  0  0  0  0  0
   36.0560   20.6560   33.7230 H   0  0  0  0  0  0  0  0  0  0  0  0
   38.5390   25.8420   36.0030 C   0  0  0  0  0  0  0  0  0  0  0  0
   38.2980   26.8730   36.6580 O   0  0  0  0  0  0  0  0  0  0  0  0
   39.2450   26.2700   34.8030 C   0  0  0  0  0  0  0  0  0  0  0  0
   40.5800   26.6070   34.8000 C   0  0  0  0  0  0  0  0  0  0  0  0
   41.2460   26.5350   35.6390 H   0  0  0  0  0  0  0  0  0  0  0  0
   41.3120   27.1290   33.7570 C   0  0  0  0  0  3  0  0  0  0  0  0
   40.6450   27.3440   32.5770 C   0  0  0  0  0  3  0  0  0  0  0  0
   39.3100   27.0360   32.4930 C   0  0  0  0  0  0  0  0  0  0  0  0
   38.6670   27.2370   31.2940 C   0  0  0  0  0  3  0  0  0  0  0  0
   37.3380   26.9390   31.0930 C   0  0  0  0  0  3  0  0  0  0  0  0
   36.6710   26.4090   32.1980 C   0  0  0  0  0  3  0  0  0  0  0  0
   37.3430   26.2190   33.3840 C   0  0  0  0  0  3  0  0  0  0  0  0
   38.6670   26.5170   33.5890 C   0  0  0  0  0  0  0  0  0  0  0  0
  1  2  1  0  0  0  0
  1  5  1  0  0  0  0
  2  6  1  6  0  0  0
  2  3  1  0  0  0  0
  3  4  1  0  0  0  0
  3  8  1  0  0  0  0
  3  7  1  0  0  0  0
  4  9  1  0  0  0  0
  5 12  1  0  0  0  0
  5  4  1  0  0  0  0
 10  4  1  0  0  0  0
 11  5  1  0  0  0  0
 13  1  1  0  0  0  0
 14 19  1  0  0  0  0
 14 13  2  0  0  0  0
 15 14  1  0  0  0  0
 16 15  2  0  0  0  0
 16 17  1  0  0  0  0
 17 18  2  0  0  0  0
 18 13  1  0  0  0  0
 20 15  1  0  0  0  0
 21 17  1  0  0  0  0
 22  2  1  0  0  0  0
 22 23  2  0  0  0  0
 24 22  1  0  0  0  0
 25 24  1  0  0  0  0
 25 26  1  0  0  0  0
 27 25  2  0  0  0  0
 28 27  1  0  0  0  0
 29 28  2  0  0  0  0
 29 34  1  0  0  0  0
 30 29  1  0  0  0  0
 31 30  2  0  0  0  0
 31 32  1  0  0  0  0
 32 33  2  0  0  0  0
 33 34  1  0  0  0  0
 34 24  2  0  0  0  0
M  END
>  <minimizedAffinity>
-5.87242746

$$$$

 OpenBabel03272503253D

 34 37  0  0  1  0  0  0  0  0999 V2000
   38.9360   24.0220   34.5780 N   0  0  0  0  0  0  0  0  0  0  0  0
   39.7730   24.9020   33.8510 C   0  0  1  0  0  0  0  0  0  0  0  0
   40.0020   24.2090   32.5130 C   0  0  0  0  0  0  0  0  0  0  0  0
   39.1740   22.9080   32.6230 C   0  0  0  0  0  0  0  0  0  0  0  0
   38.1100   23.3820   33.5880 C   0  0  0  0  0  0  0  0  0  0  0  0
   40.8140   24.7320   34.3570 H   0  0  0  0  0  0  0  0  0  0  0  0
   41.0440   24.0250   32.2700 H   0  0  0  0  0  0  0  0  0  0  0  0
   39.4570   24.8170   31.7540 H   0  0  0  0  0  0  0  0  0  0  0  0
   38.7820   22.5920   31.6550 H   0  0  0  0  0  0  0  0  0  0  0  0
   39.8590   22.1870   33.1070 H   0  0  0  0  0  0  0  0  0  0  0  0
   37.5880   22.4970   33.9470 H   0  0  0  0  0  0  0  0  0  0  0  0
   37.4530   24.0990   33.0530 H   0  0  0  0  0  0  0  0  0  0  0  0
   38.9390   23.8250   35.9890 C   0  0  0  0  0  0  0  0  0  0  0  0
   37.9500   24.4070   36.7540 C   0  0  0  0  0  0  0  0  0  0  0  0
   37.9140   24.1850   38.1330 C   0  0  0  0  0  0  0  0  0  0  0  0
   38.9100   23.3710   38.6450 N   0  0  0  0  0  0  0  0  0  0  0  0
   39.8620   22.8190   37.8690 C   0  0  0  0  0  0  0  0  0  0  0  0
   39.8810   23.0450   36.5280 N   0  0  0  0  0  0  0  0  0  0  0  0
   37.1730   25.0410   36.3610 H   0  0  0  0  0  0  0  0  0  0  0  0
   37.1510   24.6280   38.7540 H   0  0  0  0  0  0  0  0  0  0  0  0
   40.5930   22.2000   38.3630 H   0  0  0  0  0  0  0  0  0  0  0  0
   39.4750   26.3000   33.8420 C   0  0  0  0  0  0  0  0  0  0  0  0
   40.4480   27.0240   34.1200 O   0  0  0  0  0  0  0  0  0  0  0  0
   38.3440   27.1920   33.6230 C   0  0  0  0  0  0  0  0  0  0  0  0
   37.4800   27.5670   34.6270 C   0  0  0  0  0  0  0  0  0  0  0  0
   37.5740   27.3040   35.6640 H   0  0  0  0  0  0  0  0  0  0  0  0
   36.3250   28.3060   34.5100 C   0  0  0  0  0  3  0  0  0  0  0  0
   35.9820   28.7240   33.2480 C   0  0  0  0  0  3  0  0  0  0  0  0
   36.7880   28.3950   32.1870 C   0  0  0  0  0  0  0  0  0  0  0  0
   36.4380   28.8440   30.9350 C   0  0  0  0  0  3  0  0  0  0  0  0
   37.1870   28.5930   29.8090 C   0  0  0  0  0  3  0  0  0  0  0  0
   38.3460   27.8430   30.0160 C   0  0  0  0  0  3  0  0  0  0  0  0
   38.6680   27.4080   31.2810 C   0  0  0  0  0  3  0  0  0  0  0  0
   37.9220   27.6540   32.4070 C   0  0  0  0  0  0  0  0  0  0  0  0
  1 13  1  0  0  0  0
  2  6  1  1  0  0  0
  2  1  1  0  0  0  0
  3  4  1  0  0  0  0
  3  2  1  0  0  0  0
  4 10  1  0  0  0  0
  4  5  1  0  0  0  0
  5 11  1  0  0  0  0
  5  1  1  0  0  0  0
  7  3  1  0  0  0  0
  8  3  1  0  0  0  0
  9  4  1  0  0  0  0
 12  5  1  0  0  0  0
 13 18  2  0  0  0  0
 13 14  1  0  0  0  0
 14 15  2  0  0  0  0
 15 16  1  0  0  0  0
 15 20  1  0  0  0  0
 17 21  1  0  0  0  0
 17 16  2  0  0  0  0
 18 17  1  0  0  0  0
 19 14  1  0  0  0  0
 22  2  1  0  0  0  0
 22 23  2  0  0  0  0
 24 22  1  0  0  0  0
 24 25  1  0  0  0  0
 25 26  1  0  0  0  0
 27 25  2  0  0  0  0
 28 27  1  0  0  0  0
 29 34  1  0  0  0  0
 29 28  2  0  0  0  0
 30 29  1  0  0  0  0
 31 32  1  0  0  0  0
 31 30  2  0  0  0  0
 32 33  2  0  0  0  0
 33 34  1  0  0  0  0
 34 24  2  0  0  0  0
M  END
>  <minimizedAffinity>
-5.79148531

$$$$

 OpenBabel03272503253D

 34 37  0  0  1  0  0  0  0  0999 V2000
   38.5960   23.4800   35.9920 N   0  0  0  0  0  0  0  0  0  0  0  0
   37.9350   24.6020   36.5450 C   0  0  1  0  0  0  0  0  0  0  0  0
   38.0950   24.4480   38.0530 C   0  0  0  0  0  0  0  0  0  0  0  0
   38.9290   23.1560   38.2060 C   0  0  0  0  0  0  0  0  0  0  0  0
   39.6820   23.1980   36.8950 C   0  0  0  0  0  0  0  0  0  0  0  0
   36.8080   24.3130   36.4230 H   0  0  0  0  0  0  0  0  0  0  0  0
   37.1620   24.4150   38.6080 H   0  0  0  0  0  0  0  0  0  0  0  0
   38.7880   25.2610   38.3740 H   0  0  0  0  0  0  0  0  0  0  0  0
   39.5750   23.1900   39.0860 H   0  0  0  0  0  0  0  0  0  0  0  0
   38.1790   22.3430   38.2090 H   0  0  0  0  0  0  0  0  0  0  0  0
   40.1360   22.2200   36.7550 H   0  0  0  0  0  0  0  0  0  0  0  0
   40.4190   24.0270   36.9460 H   0  0  0  0  0  0  0  0  0  0  0  0
   38.2380   22.7900   34.7990 C   0  0  0  0  0  0  0  0  0  0  0  0
   38.9580   23.0180   33.6440 C   0  0  0  0  0  0  0  0  0  0  0  0
   38.6460   22.3140   32.4780 C   0  0  0  0  0  0  0  0  0  0  0  0
   37.5990   21.4120   32.5730 N   0  0  0  0  0  0  0  0  0  0  0  0
   36.9160   21.2150   33.7160 C   0  0  0  0  0  0  0  0  0  0  0  0
   37.2340   21.9080   34.8420 N   0  0  0  0  0  0  0  0  0  0  0  0
   39.7710   23.7190   33.5650 H   0  0  0  0  0  0  0  0  0  0  0  0
   39.1930   22.4730   31.5630 H   0  0  0  0  0  0  0  0  0  0  0  0
   36.1190   20.4900   33.6870 H   0  0  0  0  0  0  0  0  0  0  0  0
   38.1550   25.8940   35.9740 C   0  0  0  0  0  0  0  0  0  0  0  0
   38.1850   26.8160   36.8100 O   0  0  0  0  0  0  0  0  0  0  0  0
   38.3460   26.5120   34.6690 C   0  0  0  0  0  0  0  0  0  0  0  0
   37.3000   26.8620   33.8450 C   0  0  0  0  0  0  0  0  0  0  0  0
   36.2570   26.7790   34.0890 H   0  0  0  0  0  0  0  0  0  0  0  0
   37.3680   27.3420   32.5570 C   0  0  0  0  0  3  0  0  0  0  0  0
   38.6210   27.4940   32.0170 C   0  0  0  0  0  3  0  0  0  0  0  0
   39.7220   27.1690   32.7700 C   0  0  0  0  0  0  0  0  0  0  0  0
   40.9680   27.3520   32.2180 C   0  0  0  0  0  3  0  0  0  0  0  0
   42.1370   27.0820   32.8930 C   0  0  0  0  0  3  0  0  0  0  0  0
   41.9790   26.6050   34.1950 C   0  0  0  0  0  3  0  0  0  0  0  0
   40.7180   26.4340   34.7190 C   0  0  0  0  0  3  0  0  0  0  0  0
   39.5500   26.6990   34.0480 C   0  0  0  0  0  0  0  0  0  0  0  0
  1  2  1  0  0  0  0
  1  5  1  0  0  0  0
  2  6  1  6  0  0  0
  2  3  1  0  0  0  0
  3  4  1  0  0  0  0
  3  8  1  0  0  0  0
  3  7  1  0  0  0  0
  4 10  1  0  0  0  0
  4  9  1  0  0  0  0
  5 12  1  0  0  0  0
  5  4  1  0  0  0  0
 11  5  1  0  0  0  0
 13 18  1  0  0  0  0
 13  1  1  0  0  0  0
 14 13  2  0  0  0  0
 15 16  2  0  0  0  0
 15 14  1  0  0  0  0
 16 17  1  0  0  0  0
 17 18  2  0  0  0  0
 19 14  1  0  0  0  0
 20 15  1  0  0  0  0
 21 17  1  0  0  0  0
 22  2  1  0  0  0  0
 22 23  2  0  0  0  0
 24 22  1  0  0  0  0
 25 26  1  0  0  0  0
 25 24  2  0  0  0  0
 27 25  1  0  0  0  0
 28 27  2  0  0  0  0
 28 29  1  0  0  0  0
 29 34  1  0  0  0  0
 30 29  2  0  0  0  0
 30 31  1  0  0  0  0
 31 32  2  0  0  0  0
 32 33  1  0  0  0  0
 34 24  1  0  0  0  0
 34 33  2  0  0  0  0
M  END
>  <minimizedAffinity>
-5.75349712

$$$$

 OpenBabel03272503253D

 34 37  0  0  1  0  0  0  0  0999 V2000
   37.9550   23.0900   31.5000 N   0  0  0  0  0  0  0  0  0  0  0  0
   38.2120   22.4630   32.7420 C   0  0  1  0  0  0  0  0  0  0  0  0
   38.1670   20.9690   32.4450 C   0  0  0  0  0  0  0  0  0  0  0  0
   37.8930   20.9020   30.9260 C   0  0  0  0  0  0  0  0  0  0  0  0
   38.5240   22.2130   30.5100 C   0  0  0  0  0  0  0  0  0  0  0  0
   37.1950   22.5970   33.3050 H   0  0  0  0  0  0  0  0  0  0  0  0
   37.4390   20.4120   33.0290 H   0  0  0  0  0  0  0  0  0  0  0  0
   39.2140   20.6020   32.5520 H   0  0  0  0  0  0  0  0  0  0  0  0
   38.3550   20.0260   30.4670 H   0  0  0  0  0  0  0  0  0  0  0  0
   36.7910   20.9460   30.8430 H   0  0  0  0  0  0  0  0  0  0  0  0
   38.1960   22.4160   29.4930 H   0  0  0  0  0  0  0  0  0  0  0  0
   39.6250   22.1140   30.6110 H   0  0  0  0  0  0  0  0  0  0  0  0
   37.2690   24.3220   31.2990 C   0  0  0  0  0  0  0  0  0  0  0  0
   35.8910   24.3280   31.2530 C   0  0  0  0  0  0  0  0  0  0  0  0
   35.2040   25.5350   31.1020 C   0  0  0  0  0  0  0  0  0  0  0  0
   35.9860   26.6730   31.0050 N   0  0  0  0  0  0  0  0  0  0  0  0
   37.3310   26.6320   31.0520 C   0  0  0  0  0  0  0  0  0  0  0  0
   37.9840   25.4480   31.2000 N   0  0  0  0  0  0  0  0  0  0  0  0
   35.2780   23.4460   31.3280 H   0  0  0  0  0  0  0  0  0  0  0  0
   34.1260   25.5680   31.0640 H   0  0  0  0  0  0  0  0  0  0  0  0
   37.8500   27.5730   30.9680 H   0  0  0  0  0  0  0  0  0  0  0  0
   39.2740   22.9540   33.5650 C   0  0  0  0  0  0  0  0  0  0  0  0
   39.9830   23.8150   33.0110 O   0  0  0  0  0  0  0  0  0  0  0  0
   39.8340   22.7490   34.8940 C   0  0  0  0  0  0  0  0  0  0  0  0
   40.9520   21.9800   35.1250 C   0  0  0  0  0  0  0  0  0  0  0  0
   41.5560   21.5110   34.3720 H   0  0  0  0  0  0  0  0  0  0  0  0
   41.4940   21.6300   36.3410 C   0  0  0  0  0  3  0  0  0  0  0  0
   40.8530   22.0940   37.4630 C   0  0  0  0  0  3  0  0  0  0  0  0
   39.7280   22.8690   37.3240 C   0  0  0  0  0  0  0  0  0  0  0  0
   39.1160   23.3420   38.4600 C   0  0  0  0  0  3  0  0  0  0  0  0
   37.9990   24.1460   38.4340 C   0  0  0  0  0  3  0  0  0  0  0  0
   37.5180   24.4590   37.1620 C   0  0  0  0  0  3  0  0  0  0  0  0
   38.1540   23.9700   36.0440 C   0  0  0  0  0  3  0  0  0  0  0  0
   39.2660   23.1650   36.0660 C   0  0  0  0  0  0  0  0  0  0  0  0
  1  2  1  0  0  0  0
  2  6  1  1  0  0  0
  2 22  1  0  0  0  0
  3  8  1  0  0  0  0
  3  2  1  0  0  0  0
  3  7  1  0  0  0  0
  4  3  1  0  0  0  0
  5 12  1  0  0  0  0
  5  4  1  0  0  0  0
  5  1  1  0  0  0  0
  9  4  1  0  0  0  0
 10  4  1  0  0  0  0
 11  5  1  0  0  0  0
 13  1  1  0  0  0  0
 14 13  1  0  0  0  0
 14 19  1  0  0  0  0
 15 14  2  0  0  0  0
 16 17  2  0  0  0  0
 16 15  1  0  0  0  0
 17 18  1  0  0  0  0
 18 13  2  0  0  0  0
 20 15  1  0  0  0  0
 21 17  1  0  0  0  0
 22 24  1  0  0  0  0
 23 22  2  0  0  0  0
 24 25  2  0  0  0  0
 24 34  1  0  0  0  0
 25 27  1  0  0  0  0
 26 25  1  0  0  0  0
 27 28  2  0  0  0  0
 29 28  1  0  0  0  0
 29 30  1  0  0  0  0
 31 30  2  0  0  0  0
 32 31  1  0  0  0  0
 33 34  1  0  0  0  0
 33 32  2  0  0  0  0
 34 29  2  0  0  0  0
M  END
>  <minimizedAffinity>
-5.74193001

$$$$

 OpenBabel03272503253D

 34 37  0  0  1  0  0  0  0  0999 V2000
   38.0550   26.5660   32.7730 N   0  0  0  0  0  0  0  0  0  0  0  0
   38.1590   26.3570   34.1690 C   0  0  1  0  0  0  0  0  0  0  0  0
   37.2110   27.3750   34.7900 C   0  0  0  0  0  0  0  0  0  0  0  0
   36.5940   28.0980   33.5710 C   0  0  0  0  0  0  0  0  0  0  0  0
   36.6940   26.9820   32.5540 C   0  0  0  0  0  0  0  0  0  0  0  0
   39.1900   26.8500   34.4180 H   0  0  0  0  0  0  0  0  0  0  0  0
   37.6770   28.0600   35.4920 H   0  0  0  0  0  0  0  0  0  0  0  0
   36.3650   26.7880   35.2170 H   0  0  0  0  0  0  0  0  0  0  0  0
   35.5710   28.4250   33.7660 H   0  0  0  0  0  0  0  0  0  0  0  0
   37.3080   28.9110   33.3420 H   0  0  0  0  0  0  0  0  0  0  0  0
   36.5140   27.4250   31.5760 H   0  0  0  0  0  0  0  0  0  0  0  0
   35.9590   26.1970   32.8290 H   0  0  0  0  0  0  0  0  0  0  0  0
   39.0940   26.4000   31.8120 C   0  0  0  0  0  0  0  0  0  0  0  0
   40.3990   26.6520   32.1790 C   0  0  0  0  0  0  0  0  0  0  0  0
   41.4320   26.4510   31.2610 C   0  0  0  0  0  0  0  0  0  0  0  0
   41.0540   25.9990   30.0070 N   0  0  0  0  0  0  0  0  0  0  0  0
   39.7690   25.7640   29.6820 C   0  0  0  0  0  0  0  0  0  0  0  0
   38.7760   25.9650   30.5890 N   0  0  0  0  0  0  0  0  0  0  0  0
   40.6990   27.0040   33.1520 H   0  0  0  0  0  0  0  0  0  0  0  0
   42.4610   26.6400   31.5220 H   0  0  0  0  0  0  0  0  0  0  0  0
   39.5780   25.4130   28.6810 H   0  0  0  0  0  0  0  0  0  0  0  0
   38.1390   25.0210   34.6780 C   0  0  0  0  0  0  0  0  0  0  0  0
   37.7430   24.1750   33.8550 O   0  0  0  0  0  0  0  0  0  0  0  0
   38.4240   24.2980   35.9100 C   0  0  0  0  0  0  0  0  0  0  0  0
   37.6340   24.3910   37.0330 C   0  0  0  0  0  0  0  0  0  0  0  0
   36.7130   24.9380   37.1070 H   0  0  0  0  0  0  0  0  0  0  0  0
   37.8720   23.8470   38.2750 C   0  0  0  0  0  3  0  0  0  0  0  0
   39.0300   23.1260   38.4250 C   0  0  0  0  0  3  0  0  0  0  0  0
   39.8770   22.9830   37.3550 C   0  0  0  0  0  0  0  0  0  0  0  0
   41.0200   22.2360   37.5210 C   0  0  0  0  0  3  0  0  0  0  0  0
   41.9240   22.0090   36.5080 C   0  0  0  0  0  3  0  0  0  0  0  0
   41.6050   22.5900   35.2800 C   0  0  0  0  0  3  0  0  0  0  0  0
   40.4540   23.3310   35.1470 C   0  0  0  0  0  3  0  0  0  0  0  0
   39.5510   23.5620   36.1540 C   0  0  0  0  0  0  0  0  0  0  0  0
  1  2  1  0  0  0  0
  2  6  1  1  0  0  0
  2 22  1  0  0  0  0
  2  3  1  0  0  0  0
  3  8  1  0  0  0  0
  3  7  1  0  0  0  0
  4  9  1  0  0  0  0
  4  3  1  0  0  0  0
  5  1  1  0  0  0  0
  5 12  1  0  0  0  0
  5  4  1  0  0  0  0
 10  4  1  0  0  0  0
 11  5  1  0  0  0  0
 13 14  1  0  0  0  0
 13  1  1  0  0  0  0
 14 19  1  0  0  0  0
 15 20  1  0  0  0  0
 15 14  2  0  0  0  0
 16 15  1  0  0  0  0
 17 16  2  0  0  0  0
 17 18  1  0  0  0  0
 18 13  2  0  0  0  0
 21 17  1  0  0  0  0
 22 24  1  0  0  0  0
 23 22  2  0  0  0  0
 24 34  2  0  0  0  0
 24 25  1  0  0  0  0
 25 26  1  0  0  0  0
 25 27  2  0  0  0  0
 27 28  1  0  0  0  0
 29 30  1  0  0  0  0
 29 28  2  0  0  0  0
 31 30  2  0  0  0  0
 32 31  1  0  0  0  0
 33 32  2  0  0  0  0
 33 34  1  0  0  0  0
 34 29  1  0  0  0  0
M  END
>  <minimizedAffinity>
-5.67126036

$$$$

 OpenBabel03272503253D

 34 37  0  0  1  0  0  0  0  0999 V2000
   38.7710   24.7450   32.6710 N   0  0  0  0  0  0  0  0  0  0  0  0
   38.2860   23.4160   32.7000 C   0  0  1  0  0  0  0  0  0  0  0  0
   38.0960   23.0360   31.2360 C   0  0  0  0  0  0  0  0  0  0  0  0
   38.5620   24.2920   30.4650 C   0  0  0  0  0  0  0  0  0  0  0  0
   39.5560   24.8350   31.4680 C   0  0  0  0  0  0  0  0  0  0  0  0
   37.1720   23.5640   33.0260 H   0  0  0  0  0  0  0  0  0  0  0  0
   37.0870   22.7320   30.9740 H   0  0  0  0  0  0  0  0  0  0  0  0
   38.8760   22.2710   31.0130 H   0  0  0  0  0  0  0  0  0  0  0  0
   39.0050   24.0360   29.5010 H   0  0  0  0  0  0  0  0  0  0  0  0
   37.6610   24.9310   30.4090 H   0  0  0  0  0  0  0  0  0  0  0  0
   39.7920   25.8530   31.1640 H   0  0  0  0  0  0  0  0  0  0  0  0
   40.4370   24.1600   31.4820 H   0  0  0  0  0  0  0  0  0  0  0  0
   38.5150   25.7600   33.6370 C   0  0  0  0  0  0  0  0  0  0  0  0
   37.2340   26.2520   33.7760 C   0  0  0  0  0  0  0  0  0  0  0  0
   36.9590   27.2160   34.7500 C   0  0  0  0  0  0  0  0  0  0  0  0
   38.0320   27.6200   35.5270 N   0  0  0  0  0  0  0  0  0  0  0  0
   39.2710   27.1200   35.3640 C   0  0  0  0  0  0  0  0  0  0  0  0
   39.5200   26.1810   34.4110 N   0  0  0  0  0  0  0  0  0  0  0  0
   36.3960   25.9430   33.1740 H   0  0  0  0  0  0  0  0  0  0  0  0
   35.9660   27.6170   34.8800 H   0  0  0  0  0  0  0  0  0  0  0  0
   40.0380   27.4980   36.0190 H   0  0  0  0  0  0  0  0  0  0  0  0
   38.9090   22.4650   33.5670 C   0  0  0  0  0  0  0  0  0  0  0  0
   38.7300   21.2810   33.2260 O   0  0  0  0  0  0  0  0  0  0  0  0
   39.7040   22.4290   34.7870 C   0  0  0  0  0  0  0  0  0  0  0  0
   40.9570   21.8610   34.8480 C   0  0  0  0  0  0  0  0  0  0  0  0
   41.4990   21.4500   34.0170 H   0  0  0  0  0  0  0  0  0  0  0  0
   41.7400   21.6720   35.9640 C   0  0  0  0  0  3  0  0  0  0  0  0
   41.2230   22.0940   37.1640 C   0  0  0  0  0  3  0  0  0  0  0  0
   39.9780   22.6710   37.1940 C   0  0  0  0  0  0  0  0  0  0  0  0
   39.4890   23.1080   38.4030 C   0  0  0  0  0  3  0  0  0  0  0  0
   38.2660   23.7220   38.5430 C   0  0  0  0  0  3  0  0  0  0  0  0
   37.5380   23.8810   37.3630 C   0  0  0  0  0  3  0  0  0  0  0  0
   38.0560   23.4330   36.1680 C   0  0  0  0  0  3  0  0  0  0  0  0
   39.2740   22.8180   36.0260 C   0  0  0  0  0  0  0  0  0  0  0  0
  1  2  1  0  0  0  0
  1 13  1  0  0  0  0
  2  6  1  1  0  0  0
  2 22  1  0  0  0  0
  3  2  1  0  0  0  0
  4  3  1  0  0  0  0
  4  5  1  0  0  0  0
  5 12  1  0  0  0  0
  5  1  1  0  0  0  0
  7  3  1  0  0  0  0
  8  3  1  0  0  0  0
  9  4  1  0  0  0  0
 10  4  1  0  0  0  0
 11  5  1  0  0  0  0
 13 14  2  0  0  0  0
 13 18  1  0  0  0  0
 14 15  1  0  0  0  0
 15 20  1  0  0  0  0
 15 16  2  0  0  0  0
 17 16  1  0  0  0  0
 17 21  1  0  0  0  0
 18 17  2  0  0  0  0
 19 14  1  0  0  0  0
 22 24  1  0  0  0  0
 23 22  2  0  0  0  0
 24 25  2  0  0  0  0
 24 34  1  0  0  0  0
 25 27  1  0  0  0  0
 26 25  1  0  0  0  0
 27 28  2  0  0  0  0
 28 29  1  0  0  0  0
 29 30  1  0  0  0  0
 30 31  2  0  0  0  0
 32 31  1  0  0  0  0
 33 32  2  0  0  0  0
 34 33  1  0  0  0  0
 34 29  2  0  0  0  0
M  END
>  <minimizedAffinity>
-5.61247253

$$$$
