
     RDKit          3D

 34 37  0  0  0  0  0  0  0  0999 V2000
   37.5216   31.4078   49.3282 C   0  0  0  0  0  0  0  0  0  0  0  0
   38.1548   32.6490   49.3967 C   0  0  0  0  0  0  0  0  0  0  0  0
   38.9421   32.9825   48.3076 C   0  0  0  0  0  0  0  0  0  0  0  0
   39.0612   32.1144   47.2508 N   0  0  0  0  0  0  0  0  0  0  0  0
   38.4286   30.9138   47.2206 C   0  0  0  0  0  0  0  0  0  0  0  0
   37.6520   30.5630   48.2744 N   0  0  0  0  0  0  0  0  0  0  0  0
   36.6369   31.0365   50.4987 C   0  0  1  0  0  0  0  0  0  0  0  0
   36.1393   29.6848   50.6537 C   0  0  2  0  0  0  0  0  0  0  0  0
   37.3477   30.0959   51.4739 C   0  0  0  0  0  0  0  0  0  0  0  0
   36.3917   28.7402   49.6745 O   0  0  0  0  0  0  0  0  0  0  0  0
   38.0090   33.2749   50.2657 H   0  0  0  0  0  0  0  0  0  0  0  0
   39.4560   33.9344   48.3097 H   0  0  0  0  0  0  0  0  0  0  0  0
   38.5635   30.2758   46.3587 H   0  0  0  0  0  0  0  0  0  0  0  0
   36.1105   31.8740   51.0274 H   0  0  0  0  0  0  0  0  0  0  0  0
   35.1719   29.5403   51.2022 H   0  0  0  0  0  0  0  0  0  0  0  0
   38.3352   29.6845   51.2072 H   0  0  0  0  0  0  0  0  0  0  0  0
   37.1335   30.2370   52.5472 H   0  0  0  0  0  0  0  0  0  0  0  0
   35.4934   27.7357   49.3969 C   0  0  0  0  0  0  0  0  0  0  0  0
   35.4846   26.3988   49.7015 C   0  0  0  0  0  0  0  0  0  0  0  0
   36.3283   26.0523   50.2616 H   0  0  0  0  0  0  0  0  0  0  0  0
   34.4891   25.5314   49.3368 C   0  0  0  0  0  0  0  0  0  0  0  0
   33.4113   25.9624   48.6245 C   0  0  0  0  0  0  0  0  0  0  0  0
   33.3628   27.2987   48.2872 C   0  0  0  0  0  0  0  0  0  0  0  0
   32.2591   27.7014   47.5649 C   0  0  0  0  0  0  0  0  0  0  0  0
   32.1409   29.0218   47.1897 C   0  0  0  0  0  0  0  0  0  0  0  0
   33.1240   29.9227   47.5393 C   0  0  0  0  0  0  0  0  0  0  0  0
   34.2018   29.4594   48.2610 C   0  0  0  0  0  0  0  0  0  0  0  0
   34.3748   28.1535   48.6643 C   0  0  0  0  0  0  0  0  0  0  0  0
   34.6070   24.4932   49.6443 H   0  0  0  0  0  0  0  0  0  0  0  0
   32.6872   25.2030   48.3890 H   0  0  0  0  0  0  0  0  0  0  0  0
   31.4815   27.0238   47.2802 H   0  0  0  0  0  0  0  0  0  0  0  0
   31.2772   29.3391   46.6240 H   0  0  0  0  0  0  0  0  0  0  0  0
   33.0161   30.9554   47.2369 H   0  0  0  0  0  0  0  0  0  0  0  0
   34.9343   30.2087   48.5009 H   0  0  0  0  0  0  0  0  0  0  0  0
  1  2  2  0
  1  7  1  0
  3  2  1  0
  4  3  2  0
  5  4  1  0
  5  6  2  0
  6  1  1  0
  7  8  1  0
  7  9  1  0
  8  9  1  0
 10  8  1  0
  2 11  1  0
  3 12  1  0
  5 13  1  0
  7 14  1  1
  8 15  1  1
  9 16  1  0
  9 17  1  0
 18 19  2  0
 19 20  1  0
 19 21  1  0
 21 22  2  0
 22 23  1  0
 23 24  2  0
 24 25  1  0
 25 26  2  0
 26 27  1  0
 27 28  2  0
 28 18  1  0
 28 23  1  0
 21 29  1  0
 22 30  1  0
 24 31  1  0
 25 32  1  0
 26 33  1  0
 27 34  1  0
 10 18  1  0
M  ISO  8  11  14  12  14  13  14  14  13  15  13  16  13  17  13  20  15
M  END
>  <DihAtoms>  (1) 
7,9,17,18

>  <DihDeg>  (1) 
0.643371353598527

$$$$
