
     RDKit          3D

 28 30  0  0  0  0  0  0  0  0999 V2000
   37.2657   30.1831   51.4183 C   0  0  0  0  0  0  0  0  0  0  0  0
   38.0956   30.7624   50.4512 C   0  0  0  0  0  0  0  0  0  0  0  0
   37.8071   30.4997   49.1072 C   0  0  0  0  0  0  0  0  0  0  0  0
   36.7440   29.7026   48.8382 N   0  0  0  0  0  0  0  0  0  0  0  0
   35.9642   29.1592   49.7760 C   0  0  0  0  0  0  0  0  0  0  0  0
   36.2224   29.3977   51.0697 N   0  0  0  0  0  0  0  0  0  0  0  0
   34.8245   28.3029   49.5021 C   0  0  0  0  0  0  0  0  0  0  0  0
   33.6265   28.7254   49.5563 O   0  0  0  0  0  0  0  0  0  0  0  0
   37.4881   30.3865   52.4762 H   0  0  0  0  0  0  0  0  0  0  0  0
   38.9226   31.3852   50.7343 H   0  0  0  0  0  0  0  0  0  0  0  0
   38.4115   30.9183   48.3122 H   0  0  0  0  0  0  0  0  0  0  0  0
   35.2848   26.9548   49.1749 C   0  0  0  0  0  0  0  0  0  0  0  0
   35.4780   25.9824   50.1593 C   0  0  0  0  0  0  0  0  0  0  0  0
   35.2868   26.2065   51.1923 H   0  0  0  0  0  0  0  0  0  0  0  0
   35.9131   24.7004   49.9099 C   0  0  0  0  0  0  0  0  0  0  0  0
   36.1807   24.3341   48.6106 C   0  0  0  0  0  0  0  0  0  0  0  0
   36.0078   25.2524   47.5986 C   0  0  0  0  0  0  0  0  0  0  0  0
   36.2745   24.8864   46.2976 C   0  0  0  0  0  0  0  0  0  0  0  0
   36.1235   25.7509   45.2336 C   0  0  0  0  0  0  0  0  0  0  0  0
   35.6871   27.0116   45.5515 C   0  0  0  0  0  0  0  0  0  0  0  0
   35.4219   27.3715   46.8567 C   0  0  0  0  0  0  0  0  0  0  0  0
   35.5759   26.5039   47.9040 C   0  0  0  0  0  0  0  0  0  0  0  0
   36.0477   23.9823   50.7057 H   0  0  0  0  0  0  0  0  0  0  0  0
   36.5226   23.3427   48.3715 H   0  0  0  0  0  0  0  0  0  0  0  0
   36.6196   23.8662   46.1101 H   0  0  0  0  0  0  0  0  0  0  0  0
   36.3433   25.4262   44.2248 H   0  0  0  0  0  0  0  0  0  0  0  0
   35.5657   27.7032   44.7050 H   0  0  0  0  0  0  0  0  0  0  0  0
   35.0827   28.3835   47.0035 H   0  0  0  0  0  0  0  0  0  0  0  0
  2  1  2  0
  3  2  1  0
  4  3  2  0
  4  5  1  0
  5  6  2  0
  6  1  1  0
  7  8  2  0
  7  5  1  0
  1  9  1  0
  2 10  1  0
  3 11  1  0
 12 13  2  0
 13 14  1  0
 13 15  1  0
 15 16  2  0
 16 17  1  0
 17 18  2  0
 18 19  1  0
 19 20  2  0
 20 21  1  0
 21 22  2  0
 22 12  1  0
 22 17  1  0
 15 23  1  0
 16 24  1  0
 18 25  1  0
 19 26  1  0
 20 27  1  0
 21 28  1  0
  7 12  1  0
M  ISO  4   9  14  10  14  11  14  14  15
M  END
>  <DihAtoms>  (1) 
7,6,11,12

>  <DihDeg>  (1) 
134.30585876524114

$$$$
