
 OpenBabel03262520573D

 21 23  0  0  0  0  0  0  0  0999 V2000
   38.4730   23.9030   35.6490 C   0  0  0  0  0  0  0  0  0  0  0  0
   37.6700   24.3440   36.6960 C   0  0  0  0  0  0  0  0  0  0  0  0
   36.8240   24.9540   36.4310 H   0  0  0  0  0  0  0  0  0  0  0  0
   37.9910   23.9870   37.9950 C   0  0  0  0  0  3  0  0  0  0  0  0
   39.0810   23.2020   38.3280 C   0  0  0  0  0  3  0  0  0  0  0  0
   39.8730   22.7700   37.2600 C   0  0  0  0  0  0  0  0  0  0  0  0
   40.9510   21.9910   37.6280 C   0  0  0  0  0  3  0  0  0  0  0  0
   41.7510   21.5530   36.5670 C   0  0  0  0  0  3  0  0  0  0  0  0
   41.5130   21.8560   35.2370 C   0  0  0  0  0  3  0  0  0  0  0  0
   40.4100   22.6410   34.9730 C   0  0  0  0  0  3  0  0  0  0  0  0
   39.5700   23.1160   35.9590 C   0  0  0  0  0  0  0  0  0  0  0  0
   38.1120   24.3280   33.9610 S   0  0  0  0  0  0  0  0  0  0  0  0
   36.7160   28.1130   34.5370 C   0  0  0  0  0  0  0  0  0  0  0  0
   37.3200   26.8860   34.8080 C   0  0  0  0  0  0  0  0  0  0  0  0
   37.3790   25.9410   33.7940 C   0  0  0  0  0  0  0  0  0  0  0  0
   36.8390   26.2550   32.5730 N   0  0  0  0  0  0  0  0  0  0  0  0
   36.2650   27.4480   32.3520 C   0  0  0  0  0  0  0  0  0  0  0  0
   36.2010   28.3730   33.3230 N   0  0  0  0  0  0  0  0  0  0  0  0
   36.6920   28.8170   35.3530 H   0  0  0  0  0  0  0  0  0  0  0  0
   37.7640   26.5700   35.7370 H   0  0  0  0  0  0  0  0  0  0  0  0
   35.8460   27.6580   31.3630 H   0  0  0  0  0  0  0  0  0  0  0  0
  1 11  2  0  0  0  0
  1  2  1  0  0  0  0
  2  4  2  0  0  0  0
  3  2  1  0  0  0  0
  4  5  1  0  0  0  0
  6  7  1  0  0  0  0
  6  5  2  0  0  0  0
  8  7  2  0  0  0  0
  9  8  1  0  0  0  0
 10  9  2  0  0  0  0
 10 11  1  0  0  0  0
 11  6  1  0  0  0  0
 12  1  1  0  0  0  0
 13 14  1  0  0  0  0
 13 19  1  0  0  0  0
 14 20  1  0  0  0  0
 15 12  1  0  0  0  0
 15 14  2  0  0  0  0
 16 15  1  0  0  0  0
 17 16  2  0  0  0  0
 17 18  1  0  0  0  0
 18 13  2  0  0  0  0
 21 17  1  0  0  0  0
M  END
>  <minimizedAffinity>
-5.11825562

$$$$

 OpenBabel03262520573D

 21 23  0  0  0  0  0  0  0  0999 V2000
   38.7910   24.4890   35.7670 C   0  0  0  0  0  0  0  0  0  0  0  0
   37.9090   24.8130   36.7930 C   0  0  0  0  0  0  0  0  0  0  0  0
   37.1610   25.5540   36.5700 H   0  0  0  0  0  0  0  0  0  0  0  0
   38.0340   24.1840   38.0200 C   0  0  0  0  0  3  0  0  0  0  0  0
   39.0000   23.2320   38.3000 C   0  0  0  0  0  3  0  0  0  0  0  0
   39.8730   22.9220   37.2530 C   0  0  0  0  0  0  0  0  0  0  0  0
   40.8230   21.9710   37.5670 C   0  0  0  0  0  3  0  0  0  0  0  0
   41.7030   21.6520   36.5270 C   0  0  0  0  0  3  0  0  0  0  0  0
   41.6590   22.2250   35.2680 C   0  0  0  0  0  3  0  0  0  0  0  0
   40.6730   23.1660   35.0550 C   0  0  0  0  0  3  0  0  0  0  0  0
   39.7650   23.5390   36.0240 C   0  0  0  0  0  0  0  0  0  0  0  0
   38.6790   25.2620   34.1700 S   0  0  0  0  0  0  0  0  0  0  0  0
   36.5780   22.5150   32.0140 C   0  0  0  0  0  0  0  0  0  0  0  0
   37.5030   23.0410   32.9150 C   0  0  0  0  0  0  0  0  0  0  0  0
   37.5650   24.4190   33.0680 C   0  0  0  0  0  0  0  0  0  0  0  0
   36.7170   25.1990   32.3240 N   0  0  0  0  0  0  0  0  0  0  0  0
   35.8410   24.6540   31.4660 C   0  0  0  0  0  0  0  0  0  0  0  0
   35.7690   23.3230   31.3080 N   0  0  0  0  0  0  0  0  0  0  0  0
   36.5640   21.4410   31.9270 H   0  0  0  0  0  0  0  0  0  0  0  0
   38.1970   22.4940   33.5300 H   0  0  0  0  0  0  0  0  0  0  0  0
   35.1830   25.3140   30.8920 H   0  0  0  0  0  0  0  0  0  0  0  0
  1 11  2  0  0  0  0
  1  2  1  0  0  0  0
  2  4  2  0  0  0  0
  3  2  1  0  0  0  0
  4  5  1  0  0  0  0
  6  7  1  0  0  0  0
  6  5  2  0  0  0  0
  8  7  2  0  0  0  0
  9  8  1  0  0  0  0
 10  9  2  0  0  0  0
 10 11  1  0  0  0  0
 11  6  1  0  0  0  0
 12  1  1  0  0  0  0
 13 14  1  0  0  0  0
 14 15  2  0  0  0  0
 14 20  1  0  0  0  0
 15 12  1  0  0  0  0
 16 15  1  0  0  0  0
 17 16  2  0  0  0  0
 18 17  1  0  0  0  0
 18 13  2  0  0  0  0
 19 13  1  0  0  0  0
 21 17  1  0  0  0  0
M  END
>  <minimizedAffinity>
-5.08150864

$$$$

 OpenBabel03262520573D

 21 23  0  0  0  0  0  0  0  0999 V2000
   37.9130   23.2870   32.9980 C   0  0  0  0  0  0  0  0  0  0  0  0
   37.5800   21.9460   32.8390 C   0  0  0  0  0  0  0  0  0  0  0  0
   38.2190   21.2300   33.3260 H   0  0  0  0  0  0  0  0  0  0  0  0
   36.4700   21.6060   32.0830 C   0  0  0  0  0  3  0  0  0  0  0  0
   35.6530   22.5340   31.4600 C   0  0  0  0  0  3  0  0  0  0  0  0
   36.0080   23.8750   31.6340 C   0  0  0  0  0  0  0  0  0  0  0  0
   35.1720   24.7720   30.9990 C   0  0  0  0  0  3  0  0  0  0  0  0
   35.5170   26.1180   31.1660 C   0  0  0  0  0  3  0  0  0  0  0  0
   36.6040   26.5560   31.9020 C   0  0  0  0  0  3  0  0  0  0  0  0
   37.3780   25.5810   32.4970 C   0  0  0  0  0  3  0  0  0  0  0  0
   37.1090   24.2330   32.3830 C   0  0  0  0  0  0  0  0  0  0  0  0
   39.3250   23.7850   33.9580 S   0  0  0  0  0  0  0  0  0  0  0  0
   37.8790   23.9930   37.7630 C   0  0  0  0  0  0  0  0  0  0  0  0
   37.9640   24.1800   36.3830 C   0  0  0  0  0  0  0  0  0  0  0  0
   39.0540   23.6450   35.7110 C   0  0  0  0  0  0  0  0  0  0  0  0
   39.9980   22.9600   36.4330 N   0  0  0  0  0  0  0  0  0  0  0  0
   39.8800   22.8030   37.7600 C   0  0  0  0  0  0  0  0  0  0  0  0
   38.8310   23.3130   38.4250 N   0  0  0  0  0  0  0  0  0  0  0  0
   37.0170   24.4250   38.2440 H   0  0  0  0  0  0  0  0  0  0  0  0
   37.2660   24.7030   35.7530 H   0  0  0  0  0  0  0  0  0  0  0  0
   40.6560   22.2490   38.2980 H   0  0  0  0  0  0  0  0  0  0  0  0
  1 12  1  0  0  0  0
  2  1  1  0  0  0  0
  2  3  1  0  0  0  0
  4  2  2  0  0  0  0
  5  6  2  0  0  0  0
  5  4  1  0  0  0  0
  6 11  1  0  0  0  0
  7  8  2  0  0  0  0
  7  6  1  0  0  0  0
  8  9  1  0  0  0  0
  9 10  2  0  0  0  0
 11 10  1  0  0  0  0
 11  1  2  0  0  0  0
 12 15  1  0  0  0  0
 13 19  1  0  0  0  0
 13 18  1  0  0  0  0
 14 13  2  0  0  0  0
 15 14  1  0  0  0  0
 15 16  2  0  0  0  0
 16 17  1  0  0  0  0
 17 21  1  0  0  0  0
 17 18  2  0  0  0  0
 20 14  1  0  0  0  0
M  END
>  <minimizedAffinity>
-4.98769951

$$$$

 OpenBabel03262520573D

 21 23  0  0  0  0  0  0  0  0999 V2000
   39.8420   23.0810   35.0440 C   0  0  0  0  0  0  0  0  0  0  0  0
   40.9050   22.1870   35.1280 C   0  0  0  0  0  0  0  0  0  0  0  0
   41.3660   21.8990   34.1990 H   0  0  0  0  0  0  0  0  0  0  0  0
   41.3080   21.7230   36.3690 C   0  0  0  0  0  3  0  0  0  0  0  0
   40.7090   22.0990   37.5590 C   0  0  0  0  0  3  0  0  0  0  0  0
   39.6440   22.9980   37.4510 C   0  0  0  0  0  0  0  0  0  0  0  0
   39.0700   23.3500   38.6560 C   0  0  0  0  0  3  0  0  0  0  0  0
   38.0030   24.2490   38.5600 C   0  0  0  0  0  3  0  0  0  0  0  0
   37.5280   24.7680   37.3680 C   0  0  0  0  0  3  0  0  0  0  0  0
   38.1690   24.3540   36.2180 C   0  0  0  0  0  3  0  0  0  0  0  0
   39.2280   23.4700   36.2230 C   0  0  0  0  0  0  0  0  0  0  0  0
   39.2810   23.7110   33.4790 S   0  0  0  0  0  0  0  0  0  0  0  0
   35.7330   22.8400   31.6740 C   0  0  0  0  0  0  0  0  0  0  0  0
   36.9020   23.5280   31.9980 C   0  0  0  0  0  0  0  0  0  0  0  0
   37.7520   22.9750   32.9450 C   0  0  0  0  0  0  0  0  0  0  0  0
   37.4030   21.7800   33.5210 N   0  0  0  0  0  0  0  0  0  0  0  0
   36.2680   21.1500   33.1820 C   0  0  0  0  0  0  0  0  0  0  0  0
   35.4360   21.6710   32.2660 N   0  0  0  0  0  0  0  0  0  0  0  0
   35.1020   23.3050   30.9340 H   0  0  0  0  0  0  0  0  0  0  0  0
   37.2400   24.4650   31.5900 H   0  0  0  0  0  0  0  0  0  0  0  0
   36.0270   20.1970   33.6660 H   0  0  0  0  0  0  0  0  0  0  0  0
  1  2  2  0  0  0  0
  1 11  1  0  0  0  0
  2  4  1  0  0  0  0
  3  2  1  0  0  0  0
  4  5  2  0  0  0  0
  6  5  1  0  0  0  0
  6  7  1  0  0  0  0
  8  7  2  0  0  0  0
  9  8  1  0  0  0  0
 10 11  1  0  0  0  0
 10  9  2  0  0  0  0
 11  6  2  0  0  0  0
 12  1  1  0  0  0  0
 13 14  2  0  0  0  0
 13 18  1  0  0  0  0
 14 15  1  0  0  0  0
 15 12  1  0  0  0  0
 15 16  2  0  0  0  0
 17 16  1  0  0  0  0
 17 21  1  0  0  0  0
 18 17  2  0  0  0  0
 19 13  1  0  0  0  0
 20 14  1  0  0  0  0
M  END
>  <minimizedAffinity>
-4.9808321

$$$$

 OpenBabel03262520573D

 21 23  0  0  0  0  0  0  0  0999 V2000
   38.3840   25.6720   33.3330 C   0  0  0  0  0  0  0  0  0  0  0  0
   38.2820   27.0590   33.3660 C   0  0  0  0  0  0  0  0  0  0  0  0
   39.0410   27.5840   33.9190 H   0  0  0  0  0  0  0  0  0  0  0  0
   37.2380   27.6800   32.7030 C   0  0  0  0  0  3  0  0  0  0  0  0
   36.2650   26.9970   31.9930 C   0  0  0  0  0  3  0  0  0  0  0  0
   36.3880   25.6040   31.9740 C   0  0  0  0  0  0  0  0  0  0  0  0
   35.4020   24.9550   31.2580 C   0  0  0  0  0  3  0  0  0  0  0  0
   35.5140   23.5610   31.2310 C   0  0  0  0  0  3  0  0  0  0  0  0
   36.5210   22.8500   31.8610 C   0  0  0  0  0  3  0  0  0  0  0  0
   37.4580   23.5910   32.5510 C   0  0  0  0  0  3  0  0  0  0  0  0
   37.4220   24.9670   32.6280 C   0  0  0  0  0  0  0  0  0  0  0  0
   39.7040   24.8180   34.1640 S   0  0  0  0  0  0  0  0  0  0  0  0
   37.9030   24.1830   37.7650 C   0  0  0  0  0  0  0  0  0  0  0  0
   38.1350   24.7030   36.4920 C   0  0  0  0  0  0  0  0  0  0  0  0
   39.2520   24.2650   35.7940 C   0  0  0  0  0  0  0  0  0  0  0  0
   40.0760   23.3430   36.3880 N   0  0  0  0  0  0  0  0  0  0  0  0
   39.8170   22.8670   37.6160 C   0  0  0  0  0  0  0  0  0  0  0  0
   38.7410   23.2800   38.3030 N   0  0  0  0  0  0  0  0  0  0  0  0
   37.0250   24.5510   38.2710 H   0  0  0  0  0  0  0  0  0  0  0  0
   37.5360   25.4250   35.9640 H   0  0  0  0  0  0  0  0  0  0  0  0
   40.5010   22.1320   38.0520 H   0  0  0  0  0  0  0  0  0  0  0  0
  1  2  1  0  0  0  0
  1 12  1  0  0  0  0
  2  3  1  0  0  0  0
  4  2  2  0  0  0  0
  5  4  1  0  0  0  0
  6  5  2  0  0  0  0
  6 11  1  0  0  0  0
  7  6  1  0  0  0  0
  8  7  2  0  0  0  0
  8  9  1  0  0  0  0
  9 10  2  0  0  0  0
 10 11  1  0  0  0  0
 11  1  2  0  0  0  0
 12 15  1  0  0  0  0
 13 19  1  0  0  0  0
 13 18  1  0  0  0  0
 14 13  2  0  0  0  0
 15 16  2  0  0  0  0
 15 14  1  0  0  0  0
 16 17  1  0  0  0  0
 17 21  1  0  0  0  0
 17 18  2  0  0  0  0
 20 14  1  0  0  0  0
M  END
>  <minimizedAffinity>
-4.94567442

$$$$

 OpenBabel03262520573D

 21 23  0  0  0  0  0  0  0  0999 V2000
   33.9320   29.8980   33.6910 C   0  0  0  0  0  0  0  0  0  0  0  0
   32.6360   29.3950   33.6310 C   0  0  0  0  0  0  0  0  0  0  0  0
   32.3910   28.7990   32.7700 H   0  0  0  0  0  0  0  0  0  0  0  0
   31.7490   29.6790   34.6550 C   0  0  0  0  0  3  0  0  0  0  0  0
   32.0720   30.4480   35.7590 C   0  0  0  0  0  3  0  0  0  0  0  0
   33.3800   30.9430   35.7980 C   0  0  0  0  0  0  0  0  0  0  0  0
   33.6680   31.7050   36.9130 C   0  0  0  0  0  3  0  0  0  0  0  0
   34.9730   32.2060   36.9630 C   0  0  0  0  0  3  0  0  0  0  0  0
   35.9310   31.9770   35.9900 C   0  0  0  0  0  3  0  0  0  0  0  0
   35.5440   31.2020   34.9160 C   0  0  0  0  0  3  0  0  0  0  0  0
   34.2780   30.6710   34.7880 C   0  0  0  0  0  0  0  0  0  0  0  0
   35.1170   29.5670   32.4070 S   0  0  0  0  0  0  0  0  0  0  0  0
   37.3800   26.4700   33.7850 C   0  0  0  0  0  0  0  0  0  0  0  0
   36.7670   27.7210   33.7350 C   0  0  0  0  0  0  0  0  0  0  0  0
   35.9740   28.0240   32.6380 C   0  0  0  0  0  0  0  0  0  0  0  0
   35.8310   27.0810   31.6520 N   0  0  0  0  0  0  0  0  0  0  0  0
   36.4400   25.8880   31.7370 C   0  0  0  0  0  0  0  0  0  0  0  0
   37.2090   25.5800   32.7930 N   0  0  0  0  0  0  0  0  0  0  0  0
   37.9870   26.2770   34.6550 H   0  0  0  0  0  0  0  0  0  0  0  0
   36.8320   28.5080   34.4670 H   0  0  0  0  0  0  0  0  0  0  0  0
   36.2990   25.1640   30.9280 H   0  0  0  0  0  0  0  0  0  0  0  0
  1 11  1  0  0  0  0
  2  1  2  0  0  0  0
  2  4  1  0  0  0  0
  3  2  1  0  0  0  0
  4  5  2  0  0  0  0
  5  6  1  0  0  0  0
  6  7  1  0  0  0  0
  7  8  2  0  0  0  0
  9  8  1  0  0  0  0
 10  9  2  0  0  0  0
 11 10  1  0  0  0  0
 11  6  2  0  0  0  0
 12 15  1  0  0  0  0
 12  1  1  0  0  0  0
 13 19  1  0  0  0  0
 14 13  1  0  0  0  0
 14 20  1  0  0  0  0
 15 14  2  0  0  0  0
 16 17  2  0  0  0  0
 16 15  1  0  0  0  0
 17 18  1  0  0  0  0
 18 13  2  0  0  0  0
 21 17  1  0  0  0  0
M  END
>  <minimizedAffinity>
-4.86867857

$$$$

 OpenBabel03262520573D

 21 23  0  0  0  0  0  0  0  0999 V2000
   37.7180   27.3090   33.5800 C   0  0  0  0  0  0  0  0  0  0  0  0
   36.8860   27.7970   34.5840 C   0  0  0  0  0  0  0  0  0  0  0  0
   37.0330   27.3940   35.5700 H   0  0  0  0  0  0  0  0  0  0  0  0
   35.9350   28.7550   34.2720 C   0  0  0  0  0  3  0  0  0  0  0  0
   35.7520   29.2690   33.0010 C   0  0  0  0  0  3  0  0  0  0  0  0
   36.5990   28.7640   32.0090 C   0  0  0  0  0  0  0  0  0  0  0  0
   36.3880   29.2980   30.7530 C   0  0  0  0  0  3  0  0  0  0  0  0
   37.2290   28.8000   29.7530 C   0  0  0  0  0  3  0  0  0  0  0  0
   38.2090   27.8450   29.9650 C   0  0  0  0  0  3  0  0  0  0  0  0
   38.3400   27.3740   31.2550 C   0  0  0  0  0  3  0  0  0  0  0  0
   37.5520   27.8100   32.3000 C   0  0  0  0  0  0  0  0  0  0  0  0
   38.9580   26.0810   33.9190 S   0  0  0  0  0  0  0  0  0  0  0  0
   37.7310   24.0790   37.2500 C   0  0  0  0  0  0  0  0  0  0  0  0
   38.1430   25.1320   36.4350 C   0  0  0  0  0  0  0  0  0  0  0  0
   38.4220   24.8640   35.1020 C   0  0  0  0  0  0  0  0  0  0  0  0
   38.2810   23.5770   34.6480 N   0  0  0  0  0  0  0  0  0  0  0  0
   37.8820   22.5910   35.4660 C   0  0  0  0  0  0  0  0  0  0  0  0
   37.6080   22.8340   36.7580 N   0  0  0  0  0  0  0  0  0  0  0  0
   37.5260   24.3310   38.2780 H   0  0  0  0  0  0  0  0  0  0  0  0
   38.2760   26.1620   36.7180 H   0  0  0  0  0  0  0  0  0  0  0  0
   37.7830   21.5780   35.0630 H   0  0  0  0  0  0  0  0  0  0  0  0
  1 12  1  0  0  0  0
  1  2  1  0  0  0  0
  2  3  1  0  0  0  0
  4  2  2  0  0  0  0
  5  4  1  0  0  0  0
  6 11  1  0  0  0  0
  6  5  2  0  0  0  0
  7  6  1  0  0  0  0
  8  9  1  0  0  0  0
  8  7  2  0  0  0  0
  9 10  2  0  0  0  0
 10 11  1  0  0  0  0
 11  1  2  0  0  0  0
 12 15  1  0  0  0  0
 13 19  1  0  0  0  0
 14 20  1  0  0  0  0
 14 13  2  0  0  0  0
 15 14  1  0  0  0  0
 16 15  2  0  0  0  0
 16 17  1  0  0  0  0
 17 18  2  0  0  0  0
 18 13  1  0  0  0  0
 21 17  1  0  0  0  0
M  END
>  <minimizedAffinity>
-4.85313129

$$$$

 OpenBabel03262520573D

 21 23  0  0  0  0  0  0  0  0999 V2000
   38.4270   23.2390   35.3720 C   0  0  0  0  0  0  0  0  0  0  0  0
   38.1250   22.6690   36.6050 C   0  0  0  0  0  0  0  0  0  0  0  0
   38.0900   21.5940   36.6430 H   0  0  0  0  0  0  0  0  0  0  0  0
   37.8920   23.4910   37.6940 C   0  0  0  0  0  3  0  0  0  0  0  0
   37.9390   24.8730   37.6370 C   0  0  0  0  0  3  0  0  0  0  0  0
   38.2440   25.4230   36.3880 C   0  0  0  0  0  0  0  0  0  0  0  0
   38.2820   26.8030   36.3670 C   0  0  0  0  0  3  0  0  0  0  0  0
   38.5860   27.3650   35.1220 C   0  0  0  0  0  3  0  0  0  0  0  0
   38.8350   26.6280   33.9770 C   0  0  0  0  0  3  0  0  0  0  0  0
   38.7730   25.2560   34.1020 C   0  0  0  0  0  3  0  0  0  0  0  0
   38.4790   24.6200   35.2910 C   0  0  0  0  0  0  0  0  0  0  0  0
   38.7370   22.2350   33.9370 S   0  0  0  0  0  0  0  0  0  0  0  0
   35.1390   20.5990   32.9460 C   0  0  0  0  0  0  0  0  0  0  0  0
   36.2590   20.9320   33.7050 C   0  0  0  0  0  0  0  0  0  0  0  0
   37.2450   21.7140   33.1200 C   0  0  0  0  0  0  0  0  0  0  0  0
   37.0730   22.1220   31.8220 N   0  0  0  0  0  0  0  0  0  0  0  0
   35.9800   21.7790   31.1230 C   0  0  0  0  0  0  0  0  0  0  0  0
   35.0170   21.0230   31.6760 N   0  0  0  0  0  0  0  0  0  0  0  0
   34.3990   19.9900   33.4390 H   0  0  0  0  0  0  0  0  0  0  0  0
   36.4620   20.6510   34.7250 H   0  0  0  0  0  0  0  0  0  0  0  0
   35.8820   22.1250   30.0890 H   0  0  0  0  0  0  0  0  0  0  0  0
  1  2  1  0  0  0  0
  2  3  1  0  0  0  0
  2  4  2  0  0  0  0
  5  4  1  0  0  0  0
  6  5  2  0  0  0  0
  7  6  1  0  0  0  0
  8  7  2  0  0  0  0
  9 10  2  0  0  0  0
  9  8  1  0  0  0  0
 10 11  1  0  0  0  0
 11  1  2  0  0  0  0
 11  6  1  0  0  0  0
 12  1  1  0  0  0  0
 13 19  1  0  0  0  0
 13 14  1  0  0  0  0
 14 20  1  0  0  0  0
 15 14  2  0  0  0  0
 15 12  1  0  0  0  0
 16 15  1  0  0  0  0
 17 18  1  0  0  0  0
 17 16  2  0  0  0  0
 18 13  2  0  0  0  0
 21 17  1  0  0  0  0
M  END
>  <minimizedAffinity>
-4.85241461

$$$$

 OpenBabel03262520573D

 21 23  0  0  0  0  0  0  0  0999 V2000
   39.3590   25.4190   34.7790 C   0  0  0  0  0  0  0  0  0  0  0  0
   40.4000   25.0500   33.9320 C   0  0  0  0  0  0  0  0  0  0  0  0
   40.5330   25.6440   33.0450 H   0  0  0  0  0  0  0  0  0  0  0  0
   41.1950   23.9660   34.2650 C   0  0  0  0  0  3  0  0  0  0  0  0
   41.0170   23.2070   35.4090 C   0  0  0  0  0  3  0  0  0  0  0  0
   39.9650   23.5960   36.2440 C   0  0  0  0  0  0  0  0  0  0  0  0
   39.8170   22.8180   37.3750 C   0  0  0  0  0  3  0  0  0  0  0  0
   38.7680   23.1970   38.2180 C   0  0  0  0  0  3  0  0  0  0  0  0
   37.9210   24.2650   37.9720 C   0  0  0  0  0  3  0  0  0  0  0  0
   38.1510   24.9800   36.8160 C   0  0  0  0  0  3  0  0  0  0  0  0
   39.1630   24.6730   35.9300 C   0  0  0  0  0  0  0  0  0  0  0  0
   38.3060   26.8020   34.4050 S   0  0  0  0  0  0  0  0  0  0  0  0
   35.7400   27.0790   31.2510 C   0  0  0  0  0  0  0  0  0  0  0  0
   36.5790   27.4710   32.2930 C   0  0  0  0  0  0  0  0  0  0  0  0
   37.2050   26.4860   33.0440 C   0  0  0  0  0  0  0  0  0  0  0  0
   36.9670   25.1720   32.7290 N   0  0  0  0  0  0  0  0  0  0  0  0
   36.1510   24.8350   31.7180 C   0  0  0  0  0  0  0  0  0  0  0  0
   35.5400   25.7770   30.9820 N   0  0  0  0  0  0  0  0  0  0  0  0
   35.2750   27.8760   30.6950 H   0  0  0  0  0  0  0  0  0  0  0  0
   36.8130   28.4770   32.5980 H   0  0  0  0  0  0  0  0  0  0  0  0
   35.9890   23.7750   31.5010 H   0  0  0  0  0  0  0  0  0  0  0  0
  1 11  1  0  0  0  0
  2  4  1  0  0  0  0
  2  1  2  0  0  0  0
  3  2  1  0  0  0  0
  4  5  2  0  0  0  0
  5  6  1  0  0  0  0
  6  7  1  0  0  0  0
  7  8  2  0  0  0  0
  9  8  1  0  0  0  0
 10  9  2  0  0  0  0
 11  6  2  0  0  0  0
 11 10  1  0  0  0  0
 12  1  1  0  0  0  0
 13 14  1  0  0  0  0
 14 20  1  0  0  0  0
 14 15  2  0  0  0  0
 15 12  1  0  0  0  0
 16 15  1  0  0  0  0
 17 16  2  0  0  0  0
 18 13  2  0  0  0  0
 18 17  1  0  0  0  0
 19 13  1  0  0  0  0
 21 17  1  0  0  0  0
M  END
>  <minimizedAffinity>
-4.76925278

$$$$
