
 OpenBabel03272506433D

 34 37  0  0  1  0  0  0  0  0999 V2000
   32.3720   28.4020   47.3800 C   0  0  2  0  0  0  0  0  0  0  0  0
   33.5650   28.4140   48.3220 C   0  0  1  0  0  0  0  0  0  0  0  0
   34.1130   27.1670   48.3240 O   0  0  0  0  0  0  0  0  0  0  0  0
   33.5110   26.4070   47.3450 C   0  0  0  0  0  0  0  0  0  0  0  0
   32.8840   27.4000   46.3510 C   0  0  1  0  0  0  0  0  0  0  0  0
   31.4710   28.0210   47.8850 H   0  0  0  0  0  0  0  0  0  0  0  0
   33.2150   28.7700   49.3090 H   0  0  0  0  0  0  0  0  0  0  0  0
   34.3150   25.8590   46.8100 H   0  0  0  0  0  0  0  0  0  0  0  0
   32.7350   25.7380   47.7520 H   0  0  0  0  0  0  0  0  0  0  0  0
   33.6680   27.9030   45.7840 H   0  0  0  0  0  0  0  0  0  0  0  0
   32.1670   29.6560   46.8120 O   0  0  0  0  0  0  0  0  0  0  0  0
   31.5210   30.1600   47.3630 H   0  0  0  0  0  0  0  0  0  0  0  0
   34.7780   29.5650   47.6030 S   0  0  0  0  0  0  0  0  0  0  0  0
   37.3230   29.3170   50.6240 C   0  0  0  0  0  0  0  0  0  0  0  0
   37.8390   30.5970   50.7810 C   0  0  0  0  0  0  0  0  0  0  0  0
   37.3800   31.5880   49.9120 C   0  0  0  0  0  0  0  0  0  0  0  0
   36.4590   31.2550   48.9630 N   0  0  0  0  0  0  0  0  0  0  0  0
   35.9870   29.9880   48.8510 C   0  0  0  0  0  0  0  0  0  0  0  0
   36.4090   29.0160   49.6720 N   0  0  0  0  0  0  0  0  0  0  0  0
   37.7090   28.5870   51.3190 H   0  0  0  0  0  0  0  0  0  0  0  0
   38.5710   30.8580   51.5360 H   0  0  0  0  0  0  0  0  0  0  0  0
   37.7230   32.6230   49.9550 H   0  0  0  0  0  0  0  0  0  0  0  0
   31.8690   26.7910   45.6620 O   0  0  0  0  0  0  0  0  0  0  0  0
   31.7610   25.4160   45.5450 C   0  0  0  0  0  0  0  0  0  0  0  0
   31.2320   24.4810   46.4050 C   0  0  0  0  0  0  0  0  0  0  0  0
   30.8450   24.9130   47.3150 H   0  0  0  0  0  0  0  0  0  0  0  0
   31.2260   23.1410   46.0840 C   0  0  0  0  0  3  0  0  0  0  0  0
   31.7390   22.6800   44.9080 C   0  0  0  0  0  3  0  0  0  0  0  0
   32.2820   23.5930   44.0120 C   0  0  0  0  0  0  0  0  0  0  0  0
   32.7780   23.0690   42.8550 C   0  0  0  0  0  3  0  0  0  0  0  0
   33.3290   23.9300   41.9300 C   0  0  0  0  0  3  0  0  0  0  0  0
   33.3660   25.2830   42.1920 C   0  0  0  0  0  3  0  0  0  0  0  0
   32.8480   25.7530   43.3780 C   0  0  0  0  0  3  0  0  0  0  0  0
   32.2870   24.9480   44.3380 C   0  0  0  0  0  0  0  0  0  0  0  0
  1  6  1  1  0  0  0
  1  2  1  0  0  0  0
  2  3  1  0  0  0  0
  2  7  1  1  0  0  0
  4  9  1  0  0  0  0
  4  3  1  0  0  0  0
  5 10  1  6  0  0  0
  5  4  1  0  0  0  0
  5  1  1  0  0  0  0
  8  4  1  0  0  0  0
 11 12  1  0  0  0  0
 11  1  1  0  0  0  0
 13  2  1  0  0  0  0
 13 18  1  0  0  0  0
 14 15  1  0  0  0  0
 14 20  1  0  0  0  0
 15 21  1  0  0  0  0
 16 22  1  0  0  0  0
 16 15  2  0  0  0  0
 17 16  1  0  0  0  0
 18 17  2  0  0  0  0
 18 19  1  0  0  0  0
 19 14  2  0  0  0  0
 23  5  1  0  0  0  0
 24 23  1  0  0  0  0
 24 25  1  0  0  0  0
 25 26  1  0  0  0  0
 27 25  2  0  0  0  0
 28 27  1  0  0  0  0
 29 34  1  0  0  0  0
 29 28  2  0  0  0  0
 30 29  1  0  0  0  0
 31 32  1  0  0  0  0
 31 30  2  0  0  0  0
 32 33  2  0  0  0  0
 33 34  1  0  0  0  0
 34 24  2  0  0  0  0
M  END
>  <minimizedAffinity>
-4.01959085

>  <minimizedRMSD>
2.89930511

$$$$
