
 OpenBabel03272510123D

 37 41  0  0  0  0  0  0  0  0999 V2000
   37.0810   29.6730   49.7800 O   0  0  0  0  0  0  0  0  0  0  0  0
   33.1620   28.3160   49.0460 C   0  0  0  0  0  0  0  0  0  0  0  0
   33.4860   28.9160   50.2130 C   0  0  0  0  0  0  0  0  0  0  0  0
   34.7370   29.3870   50.5330 C   0  0  0  0  0  0  0  0  0  0  0  0
   35.7590   29.2590   49.6310 C   0  0  0  0  0  0  0  0  0  0  0  0
   35.4340   28.6410   48.4250 C   0  0  0  0  0  0  0  0  0  0  0  0
   34.1910   28.1950   48.1560 N   0  0  0  0  0  0  0  0  0  0  0  0
   32.7370   29.0570   50.9800 H   0  0  0  0  0  0  0  0  0  0  0  0
   34.9990   29.8680   51.4670 H   0  0  0  0  0  0  0  0  0  0  0  0
   36.1310   28.4590   47.5980 H   0  0  0  0  0  0  0  0  0  0  0  0
   30.7570   27.8930   49.5760 C   0  0  0  0  0  0  0  0  0  0  0  0
   31.8570   27.8240   48.7110 C   0  0  0  0  0  0  0  0  0  0  0  0
   31.6280   27.2490   47.4900 C   0  0  0  0  0  0  0  0  0  0  0  0
   30.3730   26.7810   47.1780 N   0  0  0  0  0  0  0  0  0  0  0  0
   29.3540   26.8760   48.0550 C   0  0  0  0  0  0  0  0  0  0  0  0
   29.5370   27.4320   49.2590 N   0  0  0  0  0  0  0  0  0  0  0  0
   30.8850   28.3370   50.5510 H   0  0  0  0  0  0  0  0  0  0  0  0
   32.3810   27.1280   46.7190 H   0  0  0  0  0  0  0  0  0  0  0  0
   28.3940   26.4880   47.7460 H   0  0  0  0  0  0  0  0  0  0  0  0
   37.6450   30.6320   48.9630 C   0  0  0  0  0  0  0  0  0  0  0  0
   38.0240   31.7840   49.6270 C   0  0  0  0  0  0  0  0  0  0  0  0
   38.5790   32.6780   48.7020 C   0  0  0  0  0  0  0  0  0  0  0  0
   38.5130   32.0310   47.5160 N   0  0  0  0  0  0  0  0  0  0  0  0
   37.9690   30.8490   47.6890 N   0  0  0  0  0  0  0  0  0  0  0  0
   37.9990   32.1570   50.6620 H   0  0  0  0  0  0  0  0  0  0  0  0
   39.0010   33.6740   48.7560 H   0  0  0  0  0  0  0  0  0  0  0  0
   38.9010   32.3760   46.1910 C   0  0  0  0  0  0  0  0  0  0  0  0
   40.0160   33.1370   45.9140 C   0  0  0  0  0  0  0  0  0  0  0  0
   40.6260   33.4890   46.7560 H   0  0  0  0  0  0  0  0  0  0  0  0
   40.4370   33.5000   44.6530 C   0  0  0  0  0  3  0  0  0  0  0  0
   39.6670   33.0550   43.5960 C   0  0  0  0  0  3  0  0  0  0  0  0
   38.5230   32.2800   43.7900 C   0  0  0  0  0  0  0  0  0  0  0  0
   37.7930   31.8640   42.6980 C   0  0  0  0  0  3  0  0  0  0  0  0
   36.6700   31.0970   42.9830 C   0  0  0  0  0  3  0  0  0  0  0  0
   36.2390   30.7280   44.2410 C   0  0  0  0  0  3  0  0  0  0  0  0
   37.0260   31.1870   45.2480 C   0  0  0  0  0  3  0  0  0  0  0  0
   38.1630   31.9550   45.0970 C   0  0  0  0  0  0  0  0  0  0  0  0
  2  3  1  0  0  0  0
  3  4  2  0  0  0  0
  3  8  1  0  0  0  0
  4  9  1  0  0  0  0
  5  1  1  0  0  0  0
  5  4  1  0  0  0  0
  6  5  2  0  0  0  0
  7  6  1  0  0  0  0
  7  2  2  0  0  0  0
 10  6  1  0  0  0  0
 11 17  1  0  0  0  0
 12  2  1  0  0  0  0
 12 11  2  0  0  0  0
 13 12  1  0  0  0  0
 14 13  2  0  0  0  0
 14 15  1  0  0  0  0
 15 16  2  0  0  0  0
 16 11  1  0  0  0  0
 18 13  1  0  0  0  0
 19 15  1  0  0  0  0
 20 21  1  0  0  0  0
 20  1  1  0  0  0  0
 21 25  1  0  0  0  0
 22 26  1  0  0  0  0
 22 21  2  0  0  0  0
 23 24  1  0  0  0  0
 23 22  1  0  0  0  0
 24 20  2  0  0  0  0
 27 23  1  0  0  0  0
 28 27  1  0  0  0  0
 28 29  1  0  0  0  0
 30 28  2  0  0  0  0
 31 32  2  0  0  0  0
 31 30  1  0  0  0  0
 32 37  1  0  0  0  0
 33 34  2  0  0  0  0
 33 32  1  0  0  0  0
 34 35  1  0  0  0  0
 35 36  2  0  0  0  0
 37 36  1  0  0  0  0
 37 27  2  0  0  0  0
M  END
>  <minimizedAffinity>
-6.47468281

>  <minimizedRMSD>
1.82981145

$$$$
