
     RDKit          3D

 28 30  0  0  0  0  0  0  0  0999 V2000
   37.6398   30.3934   49.7073 C   0  0  0  0  0  0  0  0  0  0  0  0
   38.3394   31.5805   49.9116 C   0  0  0  0  0  0  0  0  0  0  0  0
   38.5728   32.4058   48.7945 C   0  0  0  0  0  0  0  0  0  0  0  0
   38.0940   31.9847   47.5742 N   0  0  0  0  0  0  0  0  0  0  0  0
   37.4270   30.8379   47.4215 C   0  0  0  0  0  0  0  0  0  0  0  0
   37.2036   30.0517   48.4801 N   0  0  0  0  0  0  0  0  0  0  0  0
   37.4017   29.5393   50.8749 C   0  0  0  0  0  0  0  0  0  0  0  0
   37.3757   30.0387   52.0460 O   0  0  0  0  0  0  0  0  0  0  0  0
   38.6951   31.8674   50.8895 H   0  0  0  0  0  0  0  0  0  0  0  0
   39.1098   33.3404   48.8865 H   0  0  0  0  0  0  0  0  0  0  0  0
   37.0836   30.5784   46.4289 H   0  0  0  0  0  0  0  0  0  0  0  0
   37.2051   28.1081   50.5615 C   0  0  0  0  0  0  0  0  0  0  0  0
   35.8872   27.7234   50.3075 C   0  0  0  0  0  0  0  0  0  0  0  0
   35.0841   28.4618   50.3517 H   0  0  0  0  0  0  0  0  0  0  0  0
   35.4921   26.4402   49.9924 C   0  0  0  0  0  0  0  0  0  0  0  0
   36.4607   25.4695   49.9225 C   0  0  0  0  0  0  0  0  0  0  0  0
   37.7658   25.8339   50.1708 C   0  0  0  0  0  0  0  0  0  0  0  0
   38.8190   24.9166   50.1244 C   0  0  0  0  0  0  0  0  0  0  0  0
   40.1326   25.2608   50.3709 C   0  0  0  0  0  0  0  0  0  0  0  0
   40.4478   26.5812   50.6832 C   0  0  0  0  0  0  0  0  0  0  0  0
   39.4395   27.5234   50.7406 C   0  0  0  0  0  0  0  0  0  0  0  0
   38.1603   27.1173   50.4859 C   0  0  0  0  0  0  0  0  0  0  0  0
   34.4493   26.2117   49.8067 H   0  0  0  0  0  0  0  0  0  0  0  0
   36.2388   24.4415   49.6826 H   0  0  0  0  0  0  0  0  0  0  0  0
   38.6092   23.8662   49.8816 H   0  0  0  0  0  0  0  0  0  0  0  0
   40.9298   24.5228   50.3268 H   0  0  0  0  0  0  0  0  0  0  0  0
   41.4655   26.8822   50.8811 H   0  0  0  0  0  0  0  0  0  0  0  0
   39.7083   28.5351   50.9851 H   0  0  0  0  0  0  0  0  0  0  0  0
  1  2  2  0
  1  7  1  0
  3  2  1  0
  4  3  2  0
  5  4  1  0
  5  6  2  0
  6  1  1  0
  7  8  2  0
  2  9  1  0
  3 10  1  0
  5 11  1  0
 12 13  2  0
 13 14  1  0
 13 15  1  0
 15 16  2  0
 16 17  1  0
 17 18  2  0
 18 19  1  0
 19 20  2  0
 20 21  1  0
 21 22  2  0
 22 12  1  0
 22 17  1  0
 15 23  1  0
 16 24  1  0
 18 25  1  0
 19 26  1  0
 20 27  1  0
 21 28  1  0
  7 12  1  0
M  ISO  4   9  14  10  14  11  14  14  15
M  END
>  <DihAtoms>  (1) 
0,6,11,12

>  <DihDeg>  (1) 
45.744597683204844

$$$$
