
 OpenBabel03272508273D

 40 44  0  0  1  0  0  0  0  0999 V2000
   32.7600   28.9090   46.9660 C   0  0  2  0  0  0  0  0  0  0  0  0
   33.5670   27.8570   47.7130 C   0  0  2  0  0  0  0  0  0  0  0  0
   32.7770   27.4570   48.7480 O   0  0  0  0  0  0  0  0  0  0  0  0
   31.4660   27.6790   48.4730 C   0  0  0  0  0  0  0  0  0  0  0  0
   31.3710   28.2670   47.0800 C   0  0  1  0  0  0  0  0  0  0  0  0
   32.7480   29.8760   47.4690 H   0  0  0  0  0  0  0  0  0  0  0  0
   33.7350   27.0090   47.0390 H   0  0  0  0  0  0  0  0  0  0  0  0
   31.1170   28.5010   49.1620 H   0  0  0  0  0  0  0  0  0  0  0  0
   30.7950   26.8280   48.6190 H   0  0  0  0  0  0  0  0  0  0  0  0
   31.3270   27.4050   46.3730 H   0  0  0  0  0  0  0  0  0  0  0  0
   34.8510   29.8340   48.7850 C   0  0  1  0  0  0  0  0  0  0  0  0
   34.8220   28.5210   48.1850 C   0  0  1  0  0  0  0  0  0  0  0  0
   35.1670   28.5940   49.6360 C   0  0  0  0  0  0  0  0  0  0  0  0
   33.9930   30.3790   49.2520 H   0  0  0  0  0  0  0  0  0  0  0  0
   35.6830   28.2990   47.4900 H   0  0  0  0  0  0  0  0  0  0  0  0
   34.4380   28.2380   50.3750 H   0  0  0  0  0  0  0  0  0  0  0  0
   36.2290   28.4090   49.9240 H   0  0  0  0  0  0  0  0  0  0  0  0
   36.0680   30.7340   48.6310 C   0  0  0  0  0  0  0  0  0  0  0  0
   36.4480   31.4790   49.7490 C   0  0  0  0  0  0  0  0  0  0  0  0
   37.5500   32.3070   49.5500 C   0  0  0  0  0  0  0  0  0  0  0  0
   38.1840   32.3640   48.3560 N   0  0  0  0  0  0  0  0  0  0  0  0
   37.7760   31.6160   47.2920 C   0  0  0  0  0  0  0  0  0  0  0  0
   36.7060   30.7910   47.4320 N   0  0  0  0  0  0  0  0  0  0  0  0
   35.9010   31.3910   50.6770 H   0  0  0  0  0  0  0  0  0  0  0  0
   37.8810   32.9060   50.3920 H   0  0  0  0  0  0  0  0  0  0  0  0
   38.3120   31.6940   46.3600 H   0  0  0  0  0  0  0  0  0  0  0  0
   33.1310   29.0750   45.6510 O   0  0  0  0  0  0  0  0  0  0  0  0
   34.0820   28.8860   45.4610 H   0  0  0  0  0  0  0  0  0  0  0  0
   30.3700   29.1870   46.9250 O   0  0  0  0  0  0  0  0  0  0  0  0
   29.0430   29.0180   47.2040 C   0  0  0  0  0  0  0  0  0  0  0  0
   28.4070   29.1530   48.4160 C   0  0  0  0  0  0  0  0  0  0  0  0
   29.0390   29.4300   49.2490 H   0  0  0  0  0  0  0  0  0  0  0  0
   27.0520   28.9590   48.5890 C   0  0  0  0  0  3  0  0  0  0  0  0
   26.2860   28.6070   47.4950 C   0  0  0  0  0  3  0  0  0  0  0  0
   26.8660   28.4540   46.2410 C   0  0  0  0  0  0  0  0  0  0  0  0
   26.0910   28.1030   45.1550 C   0  0  0  0  0  3  0  0  0  0  0  0
   26.6840   27.9550   43.9240 C   0  0  0  0  0  3  0  0  0  0  0  0
   28.0340   28.1480   43.7420 C   0  0  0  0  0  3  0  0  0  0  0  0
   28.7660   28.4980   44.8620 C   0  0  0  0  0  3  0  0  0  0  0  0
   28.2250   28.6630   46.1340 C   0  0  0  0  0  0  0  0  0  0  0  0
  1  5  1  0  0  0  0
  1  6  1  1  0  0  0
  1  2  1  0  0  0  0
  2  7  1  6  0  0  0
  2 12  1  0  0  0  0
  2  3  1  0  0  0  0
  4  9  1  0  0  0  0
  4  3  1  0  0  0  0
  4  8  1  0  0  0  0
  5 10  1  6  0  0  0
  5  4  1  0  0  0  0
 11 14  1  1  0  0  0
 11 13  1  0  0  0  0
 12 15  1  6  0  0  0
 12 11  1  0  0  0  0
 12 13  1  0  0  0  0
 13 17  1  0  0  0  0
 13 16  1  0  0  0  0
 18 11  1  0  0  0  0
 18 19  1  0  0  0  0
 19 24  1  0  0  0  0
 20 19  2  0  0  0  0
 20 25  1  0  0  0  0
 21 20  1  0  0  0  0
 22 23  1  0  0  0  0
 22 21  2  0  0  0  0
 23 18  2  0  0  0  0
 26 22  1  0  0  0  0
 27  1  1  0  0  0  0
 28 27  1  0  0  0  0
 29  5  1  0  0  0  0
 29 30  1  0  0  0  0
 30 31  1  0  0  0  0
 31 33  2  0  0  0  0
 31 32  1  0  0  0  0
 34 33  1  0  0  0  0
 35 34  2  0  0  0  0
 36 35  1  0  0  0  0
 37 36  2  0  0  0  0
 38 37  1  0  0  0  0
 38 39  2  0  0  0  0
 39 40  1  0  0  0  0
 40 35  1  0  0  0  0
 40 30  2  0  0  0  0
M  END
>  <minimizedAffinity>
-6.18560505

>  <minimizedRMSD>
2.80373168

$$$$
