
 OpenBabel03262522003D

 22 24  0  0  0  0  0  0  0  0999 V2000
   38.6370   32.2210   47.4700 C   0  0  0  0  0  0  0  0  0  0  0  0
   39.0730   33.0960   48.2850 O   0  0  0  0  0  0  0  0  0  0  0  0
   37.5510   31.2610   47.7600 C   0  0  0  0  0  0  0  0  0  0  0  0
   36.7180   30.9500   46.6830 C   0  0  0  0  0  0  0  0  0  0  0  0
   36.8900   31.4130   45.7080 H   0  0  0  0  0  0  0  0  0  0  0  0
   35.6530   30.0760   46.7420 C   0  0  0  0  0  3  0  0  0  0  0  0
   35.3910   29.4660   47.9440 C   0  0  0  0  0  3  0  0  0  0  0  0
   36.2040   29.7620   49.0160 C   0  0  0  0  0  0  0  0  0  0  0  0
   36.0140   29.1920   50.2770 C   0  0  0  0  0  3  0  0  0  0  0  0
   36.8160   29.4760   51.3640 C   0  0  0  0  0  3  0  0  0  0  0  0
   37.8730   30.3710   51.2190 C   0  0  0  0  0  3  0  0  0  0  0  0
   38.0990   30.9600   49.9910 C   0  0  0  0  0  3  0  0  0  0  0  0
   37.2680   30.6360   48.9550 C   0  0  0  0  0  0  0  0  0  0  0  0
   39.2120   32.1050   46.1260 C   0  0  0  0  0  0  0  0  0  0  0  0
   40.1450   31.0910   45.9120 C   0  0  0  0  0  0  0  0  0  0  0  0
   40.7000   30.9730   44.6220 C   0  0  0  0  0  0  0  0  0  0  0  0
   40.2870   31.8660   43.6600 N   0  0  0  0  0  0  0  0  0  0  0  0
   39.3910   32.8250   43.9090 C   0  0  0  0  0  0  0  0  0  0  0  0
   38.8600   32.9400   45.1300 N   0  0  0  0  0  0  0  0  0  0  0  0
   40.4360   30.4140   46.6990 H   0  0  0  0  0  0  0  0  0  0  0  0
   41.4280   30.2070   44.3910 H   0  0  0  0  0  0  0  0  0  0  0  0
   39.1180   33.4870   43.0980 H   0  0  0  0  0  0  0  0  0  0  0  0
  1  3  1  0  0  0  0
  1  2  2  0  0  0  0
  3 13  1  0  0  0  0
  4  6  1  0  0  0  0
  4  3  2  0  0  0  0
  5  4  1  0  0  0  0
  6  7  2  0  0  0  0
  7  8  1  0  0  0  0
  8  9  1  0  0  0  0
  9 10  2  0  0  0  0
 11 10  1  0  0  0  0
 12 11  2  0  0  0  0
 13  8  2  0  0  0  0
 13 12  1  0  0  0  0
 14  1  1  0  0  0  0
 15 14  1  0  0  0  0
 15 20  1  0  0  0  0
 16 15  2  0  0  0  0
 17 18  2  0  0  0  0
 17 16  1  0  0  0  0
 18 19  1  0  0  0  0
 19 14  2  0  0  0  0
 21 16  1  0  0  0  0
 22 18  1  0  0  0  0
M  END
>  <minimizedAffinity>
-6.82852554

>  <minimizedRMSD>
4.6192255

$$$$
