REMARK  Name = 
REMARK  5 active torsions:
REMARK  status: ('A' for Active; 'I' for Inactive)
REMARK    1  A    between atoms: C_1  and  O_7
REMARK    2  A    between atoms: O_7  and  P_9
REMARK    3  A    between atoms: P_9  and  O_10
REMARK    4  A    between atoms: P_9  and  O_11
REMARK    5  A    between atoms: O_10  and  C_16
REMARK                            x       y       z     vdW  Elec       q    Type
REMARK                         _______ _______ _______ _____ _____    ______ ____
ROOT
ATOM      1  O   UNL     1      35.497  30.160  46.642  0.00  0.00    +0.000 OA
ATOM      2  P   UNL     1      34.233  30.011  47.458  0.00  0.00    +0.000 P 
ENDROOT
BRANCH   2   3
ATOM      3  O   UNL     1      33.054  30.945  46.676  0.00  0.00    +0.000 OA
ATOM      4  H   UNL     1      32.406  30.371  46.186  0.00  0.00    +0.000 HD
ENDBRANCH   2   3
BRANCH   2   5
ATOM      5  O   UNL     1      34.447  30.581  49.070  0.00  0.00    +0.000 OA
BRANCH   5   6
ATOM      6  C   UNL     1      35.651  30.472  49.742  0.00  0.00    +0.000 A 
ATOM      7  C   UNL     1      35.977  29.475  50.671  0.00  0.00    +0.000 A 
ATOM      8  C   UNL     1      37.239  29.505  51.265  0.00  0.00    +0.000 A 
ATOM      9  N   UNL     1      38.096  30.503  50.914  0.00  0.00    +0.000 NA
ATOM     10  C   UNL     1      37.745  31.453  50.011  0.00  0.00    +0.000 A 
ATOM     11  N   UNL     1      36.518  31.447  49.415  0.00  0.00    +0.000 NA
ATOM     12  H   UNL     1      35.226  28.749  50.864  0.00  0.00    +0.000 HD
ATOM     13  H   UNL     1      37.463  28.728  51.974  0.00  0.00    +0.000 HD
ATOM     14  H   UNL     1      38.498  32.209  49.794  0.00  0.00    +0.000 HD
ENDBRANCH   5   6
ENDBRANCH   2   5
BRANCH   2  15
ATOM     15  O   UNL     1      33.745  28.398  47.592  0.00  0.00    +0.000 OA
BRANCH  15  16
ATOM     16  C   UNL     1      33.652  27.625  46.443  0.00  0.00    +0.000 A 
ATOM     17  C   UNL     1      34.641  26.854  45.871  0.00  0.00    +0.000 A 
ATOM     18  H   UNL     1      35.585  26.859  46.381  0.00  0.00    +0.000 HD
ATOM     19  C   UNL     1      34.403  26.133  44.718  0.00  0.00    +0.000 A 
ATOM     20  C   UNL     1      33.158  26.150  44.080  0.00  0.00    +0.000 A 
ATOM     21  C   UNL     1      32.186  26.929  44.671  0.00  0.00    +0.000 A 
ATOM     22  C   UNL     1      30.956  26.923  44.008  0.00  0.00    +0.000 A 
ATOM     23  C   UNL     1      29.952  27.695  44.572  0.00  0.00    +0.000 A 
ATOM     24  C   UNL     1      30.107  28.449  45.728  0.00  0.00    +0.000 A 
ATOM     25  C   UNL     1      31.352  28.399  46.319  0.00  0.00    +0.000 A 
ATOM     26  C   UNL     1      32.403  27.657  45.823  0.00  0.00    +0.000 A 
ENDBRANCH  15  16
ENDBRANCH   2  15
TORSDOF 5
