
 OpenBabel03262522093D

 22 24  0  0  0  0  0  0  0  0999 V2000
   38.9990   25.3000   34.5740 C   0  0  0  0  0  0  0  0  0  0  0  0
   39.6740   26.2860   34.2060 O   0  0  0  0  0  0  0  0  0  0  0  0
   39.0300   24.5350   35.8290 C   0  0  0  0  0  0  0  0  0  0  0  0
   38.0240   24.8440   36.7320 C   0  0  0  0  0  0  0  0  0  0  0  0
   37.2230   25.5810   36.6160 H   0  0  0  0  0  0  0  0  0  0  0  0
   37.9550   24.1800   37.9580 C   0  0  0  0  0  3  0  0  0  0  0  0
   38.9010   23.2080   38.2670 C   0  0  0  0  0  3  0  0  0  0  0  0
   39.8990   22.9070   37.3630 C   0  0  0  0  0  0  0  0  0  0  0  0
   40.8780   21.9460   37.6070 C   0  0  0  0  0  3  0  0  0  0  0  0
   41.8670   21.6770   36.6630 C   0  0  0  0  0  3  0  0  0  0  0  0
   41.9140   22.3460   35.4600 C   0  0  0  0  0  3  0  0  0  0  0  0
   40.9390   23.3020   35.2190 C   0  0  0  0  0  3  0  0  0  0  0  0
   39.9600   23.5680   36.1530 C   0  0  0  0  0  0  0  0  0  0  0  0
   37.2190   25.8520   32.9420 C   0  0  0  0  0  0  0  0  0  0  0  0
   38.0090   24.8410   33.5670 C   0  0  0  0  0  0  0  0  0  0  0  0
   37.7950   23.5210   33.1900 C   0  0  0  0  0  0  0  0  0  0  0  0
   36.8550   23.2600   32.2570 N   0  0  0  0  0  0  0  0  0  0  0  0
   36.1240   24.2250   31.6810 C   0  0  0  0  0  0  0  0  0  0  0  0
   36.2840   25.5170   32.0040 N   0  0  0  0  0  0  0  0  0  0  0  0
   37.3210   26.9030   33.1760 H   0  0  0  0  0  0  0  0  0  0  0  0
   38.4040   22.7920   33.6790 H   0  0  0  0  0  0  0  0  0  0  0  0
   35.3660   24.0380   30.9320 H   0  0  0  0  0  0  0  0  0  0  0  0
  1  3  1  0  0  0  0
  2  1  2  0  0  0  0
  3 13  2  0  0  0  0
  3  4  1  0  0  0  0
  4  6  2  0  0  0  0
  5  4  1  0  0  0  0
  6  7  1  0  0  0  0
  8  9  1  0  0  0  0
  8  7  2  0  0  0  0
 10  9  2  0  0  0  0
 11 10  1  0  0  0  0
 12 11  2  0  0  0  0
 12 13  1  0  0  0  0
 13  8  1  0  0  0  0
 14 20  1  0  0  0  0
 14 15  1  0  0  0  0
 15  1  1  0  0  0  0
 16 15  2  0  0  0  0
 16 21  1  0  0  0  0
 17 16  1  0  0  0  0
 18 19  1  0  0  0  0
 18 17  2  0  0  0  0
 19 14  2  0  0  0  0
 22 18  1  0  0  0  0
M  END
>  <minimizedAffinity>
-5.23550081

$$$$

 OpenBabel03262522093D

 22 24  0  0  0  0  0  0  0  0999 V2000
   35.1600   29.9810   33.2420 C   0  0  0  0  0  0  0  0  0  0  0  0
   34.6390   30.1150   32.1140 O   0  0  0  0  0  0  0  0  0  0  0  0
   34.9560   30.7390   34.4850 C   0  0  0  0  0  0  0  0  0  0  0  0
   35.9290   31.6870   34.7620 C   0  0  0  0  0  0  0  0  0  0  0  0
   36.8170   31.9300   34.1690 H   0  0  0  0  0  0  0  0  0  0  0  0
   35.8390   32.4670   35.9160 C   0  0  0  0  0  3  0  0  0  0  0  0
   34.7670   32.2870   36.7850 C   0  0  0  0  0  3  0  0  0  0  0  0
   33.8030   31.3410   36.5020 C   0  0  0  0  0  0  0  0  0  0  0  0
   32.7050   31.1070   37.3270 C   0  0  0  0  0  3  0  0  0  0  0  0
   31.7570   30.1400   36.9990 C   0  0  0  0  0  3  0  0  0  0  0  0
   31.8680   29.3830   35.8540 C   0  0  0  0  0  3  0  0  0  0  0  0
   32.9630   29.6170   35.0340 C   0  0  0  0  0  3  0  0  0  0  0  0
   33.9010   30.5740   35.3580 C   0  0  0  0  0  0  0  0  0  0  0  0
   36.8220   28.5310   32.1140 C   0  0  0  0  0  0  0  0  0  0  0  0
   36.1420   28.8700   33.3220 C   0  0  0  0  0  0  0  0  0  0  0  0
   36.4470   28.1430   34.4660 C   0  0  0  0  0  0  0  0  0  0  0  0
   37.3650   27.1580   34.3810 N   0  0  0  0  0  0  0  0  0  0  0  0
   37.9930   26.8560   33.2360 C   0  0  0  0  0  0  0  0  0  0  0  0
   37.7420   27.5210   32.0990 N   0  0  0  0  0  0  0  0  0  0  0  0
   36.6460   29.0460   31.1790 H   0  0  0  0  0  0  0  0  0  0  0  0
   35.9180   28.4240   35.3510 H   0  0  0  0  0  0  0  0  0  0  0  0
   38.7320   26.0710   33.1450 H   0  0  0  0  0  0  0  0  0  0  0  0
  1 15  1  0  0  0  0
  1  3  1  0  0  0  0
  2  1  2  0  0  0  0
  3  4  2  0  0  0  0
  3 13  1  0  0  0  0
  4  6  1  0  0  0  0
  5  4  1  0  0  0  0
  6  7  2  0  0  0  0
  8  7  1  0  0  0  0
  8  9  1  0  0  0  0
 10  9  2  0  0  0  0
 11 10  1  0  0  0  0
 12 13  1  0  0  0  0
 12 11  2  0  0  0  0
 13  8  2  0  0  0  0
 14 15  1  0  0  0  0
 15 16  2  0  0  0  0
 16 21  1  0  0  0  0
 17 16  1  0  0  0  0
 18 17  2  0  0  0  0
 19 14  2  0  0  0  0
 19 18  1  0  0  0  0
 20 14  1  0  0  0  0
 22 18  1  0  0  0  0
M  END
>  <minimizedAffinity>
-5.06208563

$$$$

 OpenBabel03262522093D

 22 24  0  0  0  0  0  0  0  0999 V2000
   36.4690   27.1110   32.2720 C   0  0  0  0  0  0  0  0  0  0  0  0
   36.0050   26.1780   31.5810 O   0  0  0  0  0  0  0  0  0  0  0  0
   37.5090   27.1050   33.3110 C   0  0  0  0  0  0  0  0  0  0  0  0
   37.0380   27.0870   34.6140 C   0  0  0  0  0  0  0  0  0  0  0  0
   35.9970   27.0770   34.9510 H   0  0  0  0  0  0  0  0  0  0  0  0
   37.9370   27.0800   35.6830 C   0  0  0  0  0  3  0  0  0  0  0  0
   39.3050   27.0900   35.4310 C   0  0  0  0  0  3  0  0  0  0  0  0
   39.7650   27.1080   34.1300 C   0  0  0  0  0  0  0  0  0  0  0  0
   41.1190   27.1200   33.8050 C   0  0  0  0  0  3  0  0  0  0  0  0
   41.5360   27.1380   32.4760 C   0  0  0  0  0  3  0  0  0  0  0  0
   40.6300   27.1450   31.4380 C   0  0  0  0  0  3  0  0  0  0  0  0
   39.2820   27.1340   31.7640 C   0  0  0  0  0  3  0  0  0  0  0  0
   38.8690   27.1150   33.0790 C   0  0  0  0  0  0  0  0  0  0  0  0
   36.4590   29.1970   30.9360 C   0  0  0  0  0  0  0  0  0  0  0  0
   35.8590   28.4330   31.9820 C   0  0  0  0  0  0  0  0  0  0  0  0
   34.7630   28.9780   32.6400 C   0  0  0  0  0  0  0  0  0  0  0  0
   34.3220   30.1960   32.2620 N   0  0  0  0  0  0  0  0  0  0  0  0
   34.9000   30.8970   31.2760 C   0  0  0  0  0  0  0  0  0  0  0  0
   35.9600   30.4250   30.6040 N   0  0  0  0  0  0  0  0  0  0  0  0
   37.3130   28.8480   30.3720 H   0  0  0  0  0  0  0  0  0  0  0  0
   34.3400   28.3780   33.4170 H   0  0  0  0  0  0  0  0  0  0  0  0
   34.5630   31.8750   30.9570 H   0  0  0  0  0  0  0  0  0  0  0  0
  1  3  1  0  0  0  0
  2  1  2  0  0  0  0
  3  4  1  0  0  0  0
  4  5  1  0  0  0  0
  4  6  2  0  0  0  0
  7  6  1  0  0  0  0
  8  7  2  0  0  0  0
  9  8  1  0  0  0  0
 10  9  2  0  0  0  0
 11 12  2  0  0  0  0
 11 10  1  0  0  0  0
 12 13  1  0  0  0  0
 13  3  2  0  0  0  0
 13  8  1  0  0  0  0
 14 15  1  0  0  0  0
 15  1  1  0  0  0  0
 15 16  2  0  0  0  0
 16 21  1  0  0  0  0
 17 16  1  0  0  0  0
 18 17  2  0  0  0  0
 19 14  2  0  0  0  0
 19 18  1  0  0  0  0
 20 14  1  0  0  0  0
 22 18  1  0  0  0  0
M  END
>  <minimizedAffinity>
-5.01336813

$$$$

 OpenBabel03262522093D

 22 24  0  0  0  0  0  0  0  0999 V2000
   39.4650   24.3330   34.4150 C   0  0  0  0  0  0  0  0  0  0  0  0
   40.5680   23.8580   34.0690 O   0  0  0  0  0  0  0  0  0  0  0  0
   38.4870   25.1280   33.6580 C   0  0  0  0  0  0  0  0  0  0  0  0
   38.6100   26.5020   33.7990 C   0  0  0  0  0  0  0  0  0  0  0  0
   39.3420   27.0520   34.4000 H   0  0  0  0  0  0  0  0  0  0  0  0
   37.7350   27.3560   33.1260 C   0  0  0  0  0  3  0  0  0  0  0  0
   36.7400   26.8210   32.3150 C   0  0  0  0  0  3  0  0  0  0  0  0
   36.6240   25.4520   32.1810 C   0  0  0  0  0  0  0  0  0  0  0  0
   35.6520   24.8490   31.3860 C   0  0  0  0  0  3  0  0  0  0  0  0
   35.5730   23.4610   31.2820 C   0  0  0  0  0  3  0  0  0  0  0  0
   36.4490   22.6380   31.9560 C   0  0  0  0  0  3  0  0  0  0  0  0
   37.4160   23.2420   32.7470 C   0  0  0  0  0  3  0  0  0  0  0  0
   37.4940   24.6150   32.8500 C   0  0  0  0  0  0  0  0  0  0  0  0
   39.9940   23.1960   36.5510 C   0  0  0  0  0  0  0  0  0  0  0  0
   39.0990   24.0360   35.8230 C   0  0  0  0  0  0  0  0  0  0  0  0
   37.9680   24.5060   36.4790 C   0  0  0  0  0  0  0  0  0  0  0  0
   37.7710   24.1470   37.7650 N   0  0  0  0  0  0  0  0  0  0  0  0
   38.6240   23.3570   38.4320 C   0  0  0  0  0  0  0  0  0  0  0  0
   39.7330   22.8730   37.8530 N   0  0  0  0  0  0  0  0  0  0  0  0
   40.8970   22.7880   36.1180 H   0  0  0  0  0  0  0  0  0  0  0  0
   37.3210   25.1320   35.9030 H   0  0  0  0  0  0  0  0  0  0  0  0
   38.4860   23.0580   39.4620 H   0  0  0  0  0  0  0  0  0  0  0  0
  1 15  1  0  0  0  0
  2  1  2  0  0  0  0
  3  4  1  0  0  0  0
  3  1  1  0  0  0  0
  4  5  1  0  0  0  0
  6  4  2  0  0  0  0
  7  6  1  0  0  0  0
  8  7  2  0  0  0  0
  8 13  1  0  0  0  0
  9  8  1  0  0  0  0
 10  9  2  0  0  0  0
 10 11  1  0  0  0  0
 11 12  2  0  0  0  0
 12 13  1  0  0  0  0
 13  3  2  0  0  0  0
 14 19  1  0  0  0  0
 15 16  1  0  0  0  0
 15 14  2  0  0  0  0
 16 17  2  0  0  0  0
 17 18  1  0  0  0  0
 18 22  1  0  0  0  0
 19 18  2  0  0  0  0
 20 14  1  0  0  0  0
 21 16  1  0  0  0  0
M  END
>  <minimizedAffinity>
-5.01313591

$$$$

 OpenBabel03262522093D

 22 24  0  0  0  0  0  0  0  0999 V2000
   39.0310   23.6850   34.1100 C   0  0  0  0  0  0  0  0  0  0  0  0
   40.1770   24.0430   33.7630 O   0  0  0  0  0  0  0  0  0  0  0  0
   37.8670   23.2900   33.3020 C   0  0  0  0  0  0  0  0  0  0  0  0
   37.5670   21.9370   33.3250 C   0  0  0  0  0  0  0  0  0  0  0  0
   38.0900   21.1430   33.8670 H   0  0  0  0  0  0  0  0  0  0  0  0
   36.4830   21.4480   32.5940 C   0  0  0  0  0  3  0  0  0  0  0  0
   35.7070   22.3270   31.8450 C   0  0  0  0  0  3  0  0  0  0  0  0
   36.0130   23.6720   31.8280 C   0  0  0  0  0  0  0  0  0  0  0  0
   35.2800   24.6070   31.1000 C   0  0  0  0  0  3  0  0  0  0  0  0
   35.6280   25.9570   31.1130 C   0  0  0  0  0  3  0  0  0  0  0  0
   36.7030   26.4150   31.8420 C   0  0  0  0  0  3  0  0  0  0  0  0
   37.4320   25.4820   32.5660 C   0  0  0  0  0  3  0  0  0  0  0  0
   37.0870   24.1470   32.5530 C   0  0  0  0  0  0  0  0  0  0  0  0
   39.7530   22.8750   36.3370 C   0  0  0  0  0  0  0  0  0  0  0  0
   38.8300   23.6580   35.5800 C   0  0  0  0  0  0  0  0  0  0  0  0
   37.8270   24.3290   36.2700 C   0  0  0  0  0  0  0  0  0  0  0  0
   37.7730   24.2070   37.6120 N   0  0  0  0  0  0  0  0  0  0  0  0
   38.6510   23.4660   38.3050 C   0  0  0  0  0  0  0  0  0  0  0  0
   39.6400   22.7970   37.6960 N   0  0  0  0  0  0  0  0  0  0  0  0
   40.5630   22.3230   35.8810 H   0  0  0  0  0  0  0  0  0  0  0  0
   37.1550   24.9050   35.6710 H   0  0  0  0  0  0  0  0  0  0  0  0
   38.6260   23.3550   39.3810 H   0  0  0  0  0  0  0  0  0  0  0  0
  1 15  1  0  0  0  0
  2  1  2  0  0  0  0
  3  4  1  0  0  0  0
  3  1  1  0  0  0  0
  4  5  1  0  0  0  0
  6  4  2  0  0  0  0
  7  6  1  0  0  0  0
  8  7  2  0  0  0  0
  8 13  1  0  0  0  0
  9 10  2  0  0  0  0
  9  8  1  0  0  0  0
 10 11  1  0  0  0  0
 11 12  2  0  0  0  0
 13 12  1  0  0  0  0
 13  3  2  0  0  0  0
 14 19  1  0  0  0  0
 15 16  1  0  0  0  0
 15 14  2  0  0  0  0
 16 17  2  0  0  0  0
 17 18  1  0  0  0  0
 18 22  1  0  0  0  0
 19 18  2  0  0  0  0
 20 14  1  0  0  0  0
 21 16  1  0  0  0  0
M  END
>  <minimizedAffinity>
-4.96487331

$$$$

 OpenBabel03262522093D

 22 24  0  0  0  0  0  0  0  0999 V2000
   35.1630   29.4110   34.1220 C   0  0  0  0  0  0  0  0  0  0  0  0
   34.0770   29.1290   34.6730 O   0  0  0  0  0  0  0  0  0  0  0  0
   36.0800   28.5740   33.3340 C   0  0  0  0  0  0  0  0  0  0  0  0
   35.8020   28.5130   31.9770 C   0  0  0  0  0  0  0  0  0  0  0  0
   34.9900   29.0100   31.4360 H   0  0  0  0  0  0  0  0  0  0  0  0
   36.6070   27.7480   31.1310 C   0  0  0  0  0  3  0  0  0  0  0  0
   37.6880   27.0490   31.6580 C   0  0  0  0  0  3  0  0  0  0  0  0
   37.9570   27.1150   33.0100 C   0  0  0  0  0  0  0  0  0  0  0  0
   39.0220   26.4410   33.6040 C   0  0  0  0  0  3  0  0  0  0  0  0
   39.2540   26.5380   34.9750 C   0  0  0  0  0  3  0  0  0  0  0  0
   38.4450   27.3000   35.7900 C   0  0  0  0  0  3  0  0  0  0  0  0
   37.3860   27.9700   35.1950 C   0  0  0  0  0  3  0  0  0  0  0  0
   37.1560   27.8740   33.8390 C   0  0  0  0  0  0  0  0  0  0  0  0
   35.8960   31.2320   35.6320 C   0  0  0  0  0  0  0  0  0  0  0  0
   35.5780   30.8250   34.3020 C   0  0  0  0  0  0  0  0  0  0  0  0
   35.6810   31.7710   33.2890 C   0  0  0  0  0  0  0  0  0  0  0  0
   36.0740   33.0210   33.6100 N   0  0  0  0  0  0  0  0  0  0  0  0
   36.3680   33.3840   34.8670 C   0  0  0  0  0  0  0  0  0  0  0  0
   36.2880   32.5160   35.8870 N   0  0  0  0  0  0  0  0  0  0  0  0
   35.8430   30.5610   36.4790 H   0  0  0  0  0  0  0  0  0  0  0  0
   35.4360   31.4300   32.3070 H   0  0  0  0  0  0  0  0  0  0  0  0
   36.6840   34.3800   35.1460 H   0  0  0  0  0  0  0  0  0  0  0  0
  1 15  1  0  0  0  0
  1  2  2  0  0  0  0
  3 13  1  0  0  0  0
  3  1  1  0  0  0  0
  4  3  2  0  0  0  0
  5  4  1  0  0  0  0
  6  7  2  0  0  0  0
  6  4  1  0  0  0  0
  7  8  1  0  0  0  0
  8  9  2  0  0  0  0
  8 13  1  0  0  0  0
  9 10  1  0  0  0  0
 10 11  2  0  0  0  0
 12 11  1  0  0  0  0
 13 12  2  0  0  0  0
 14 19  1  0  0  0  0
 14 20  1  0  0  0  0
 15 14  2  0  0  0  0
 16 17  2  0  0  0  0
 16 15  1  0  0  0  0
 17 18  1  0  0  0  0
 18 22  1  0  0  0  0
 18 19  2  0  0  0  0
 21 16  1  0  0  0  0
M  END
>  <minimizedAffinity>
-4.95751143

$$$$

 OpenBabel03262522093D

 22 24  0  0  0  0  0  0  0  0999 V2000
   38.5530   22.3400   34.1310 C   0  0  0  0  0  0  0  0  0  0  0  0
   39.6050   21.8380   33.6800 O   0  0  0  0  0  0  0  0  0  0  0  0
   38.3360   23.2320   35.2790 C   0  0  0  0  0  0  0  0  0  0  0  0
   37.9690   22.5970   36.4560 C   0  0  0  0  0  0  0  0  0  0  0  0
   37.8250   21.5250   36.6230 H   0  0  0  0  0  0  0  0  0  0  0  0
   37.7360   23.3450   37.6110 C   0  0  0  0  0  3  0  0  0  0  0  0
   37.8750   24.7280   37.5740 C   0  0  0  0  0  3  0  0  0  0  0  0
   38.2410   25.3520   36.3990 C   0  0  0  0  0  0  0  0  0  0  0  0
   38.3980   26.7320   36.2910 C   0  0  0  0  0  3  0  0  0  0  0  0
   38.7690   27.3170   35.0820 C   0  0  0  0  0  3  0  0  0  0  0  0
   38.9930   26.5580   33.9540 C   0  0  0  0  0  3  0  0  0  0  0  0
   38.8360   25.1840   34.0650 C   0  0  0  0  0  3  0  0  0  0  0  0
   38.4690   24.6050   35.2610 C   0  0  0  0  0  0  0  0  0  0  0  0
   37.1500   22.6020   32.1060 C   0  0  0  0  0  0  0  0  0  0  0  0
   37.3350   21.9650   33.3700 C   0  0  0  0  0  0  0  0  0  0  0  0
   36.3720   21.0530   33.7870 C   0  0  0  0  0  0  0  0  0  0  0  0
   35.3160   20.8160   32.9820 N   0  0  0  0  0  0  0  0  0  0  0  0
   35.1610   21.4250   31.7970 C   0  0  0  0  0  0  0  0  0  0  0  0
   36.0560   22.3140   31.3410 N   0  0  0  0  0  0  0  0  0  0  0  0
   37.8500   23.3220   31.7060 H   0  0  0  0  0  0  0  0  0  0  0  0
   36.5440   20.5970   34.7370 H   0  0  0  0  0  0  0  0  0  0  0  0
   34.3220   21.2490   31.1370 H   0  0  0  0  0  0  0  0  0  0  0  0
  1  3  1  0  0  0  0
  2  1  2  0  0  0  0
  3  4  1  0  0  0  0
  4  5  1  0  0  0  0
  4  6  2  0  0  0  0
  7  6  1  0  0  0  0
  8  7  2  0  0  0  0
  9  8  1  0  0  0  0
 10  9  2  0  0  0  0
 11 12  2  0  0  0  0
 11 10  1  0  0  0  0
 12 13  1  0  0  0  0
 13  3  2  0  0  0  0
 13  8  1  0  0  0  0
 14 15  1  0  0  0  0
 15 16  2  0  0  0  0
 15  1  1  0  0  0  0
 16 21  1  0  0  0  0
 17 16  1  0  0  0  0
 18 17  2  0  0  0  0
 19 18  1  0  0  0  0
 19 14  2  0  0  0  0
 20 14  1  0  0  0  0
 22 18  1  0  0  0  0
M  END
>  <minimizedAffinity>
-4.95262003

$$$$

 OpenBabel03262522093D

 22 24  0  0  0  0  0  0  0  0999 V2000
   38.9870   26.4780   34.8340 C   0  0  0  0  0  0  0  0  0  0  0  0
   40.1260   26.7760   35.2530 O   0  0  0  0  0  0  0  0  0  0  0  0
   38.0220   27.2630   34.0500 C   0  0  0  0  0  0  0  0  0  0  0  0
   36.9750   27.8060   34.7780 C   0  0  0  0  0  0  0  0  0  0  0  0
   36.7890   27.7180   35.8540 H   0  0  0  0  0  0  0  0  0  0  0  0
   35.9980   28.5700   34.1370 C   0  0  0  0  0  3  0  0  0  0  0  0
   36.0830   28.7820   32.7650 C   0  0  0  0  0  3  0  0  0  0  0  0
   37.1280   28.2370   32.0470 C   0  0  0  0  0  0  0  0  0  0  0  0
   37.2740   28.4090   30.6730 C   0  0  0  0  0  3  0  0  0  0  0  0
   38.3480   27.8390   29.9910 C   0  0  0  0  0  3  0  0  0  0  0  0
   39.3000   27.0890   30.6460 C   0  0  0  0  0  3  0  0  0  0  0  0
   39.1510   26.9190   32.0140 C   0  0  0  0  0  3  0  0  0  0  0  0
   38.0890   27.4830   32.6890 C   0  0  0  0  0  0  0  0  0  0  0  0
   38.2320   24.8800   36.5700 C   0  0  0  0  0  0  0  0  0  0  0  0
   38.5530   25.1050   35.1970 C   0  0  0  0  0  0  0  0  0  0  0  0
   38.4360   24.0360   34.3170 C   0  0  0  0  0  0  0  0  0  0  0  0
   38.0290   22.8440   34.7990 N   0  0  0  0  0  0  0  0  0  0  0  0
   37.7310   22.6530   36.0920 C   0  0  0  0  0  0  0  0  0  0  0  0
   37.8240   23.6450   36.9900 N   0  0  0  0  0  0  0  0  0  0  0  0
   38.2950   25.6550   37.3210 H   0  0  0  0  0  0  0  0  0  0  0  0
   38.6850   24.2430   33.2980 H   0  0  0  0  0  0  0  0  0  0  0  0
   37.4030   21.7060   36.4990 H   0  0  0  0  0  0  0  0  0  0  0  0
  1 15  1  0  0  0  0
  1  2  2  0  0  0  0
  3  4  1  0  0  0  0
  3  1  1  0  0  0  0
  4  5  1  0  0  0  0
  6  4  2  0  0  0  0
  7  6  1  0  0  0  0
  8 13  1  0  0  0  0
  8  7  2  0  0  0  0
  9  8  1  0  0  0  0
 10 11  1  0  0  0  0
 10  9  2  0  0  0  0
 11 12  2  0  0  0  0
 12 13  1  0  0  0  0
 13  3  2  0  0  0  0
 14 19  1  0  0  0  0
 14 20  1  0  0  0  0
 15 14  2  0  0  0  0
 16 17  2  0  0  0  0
 16 15  1  0  0  0  0
 17 18  1  0  0  0  0
 18 22  1  0  0  0  0
 18 19  2  0  0  0  0
 21 16  1  0  0  0  0
M  END
>  <minimizedAffinity>
-4.93384361

$$$$

 OpenBabel03262522093D

 22 24  0  0  0  0  0  0  0  0999 V2000
   38.6820   26.5880   35.2540 C   0  0  0  0  0  0  0  0  0  0  0  0
   38.5050   27.3340   36.2410 O   0  0  0  0  0  0  0  0  0  0  0  0
   39.1530   26.8960   33.8950 C   0  0  0  0  0  0  0  0  0  0  0  0
   40.5240   26.8070   33.7140 C   0  0  0  0  0  0  0  0  0  0  0  0
   41.2830   26.5380   34.4560 H   0  0  0  0  0  0  0  0  0  0  0  0
   41.0840   27.0770   32.4640 C   0  0  0  0  0  3  0  0  0  0  0  0
   40.2570   27.4360   31.4040 C   0  0  0  0  0  3  0  0  0  0  0  0
   38.8940   27.5220   31.5930 C   0  0  0  0  0  0  0  0  0  0  0  0
   38.0080   27.8750   30.5770 C   0  0  0  0  0  3  0  0  0  0  0  0
   36.6370   27.9490   30.8170 C   0  0  0  0  0  3  0  0  0  0  0  0
   36.1080   27.6770   32.0590 C   0  0  0  0  0  3  0  0  0  0  0  0
   36.9920   27.3260   33.0690 C   0  0  0  0  0  3  0  0  0  0  0  0
   38.3490   27.2530   32.8320 C   0  0  0  0  0  0  0  0  0  0  0  0
   38.0530   24.8130   36.8640 C   0  0  0  0  0  0  0  0  0  0  0  0
   38.3590   25.1620   35.5140 C   0  0  0  0  0  0  0  0  0  0  0  0
   38.3320   24.1540   34.5580 C   0  0  0  0  0  0  0  0  0  0  0  0
   38.0200   22.9010   34.9500 N   0  0  0  0  0  0  0  0  0  0  0  0
   37.7340   22.5940   36.2230 C   0  0  0  0  0  0  0  0  0  0  0  0
   37.7440   23.5230   37.1900 N   0  0  0  0  0  0  0  0  0  0  0  0
   38.0500   25.5350   37.6690 H   0  0  0  0  0  0  0  0  0  0  0  0
   38.5660   24.4520   33.5590 H   0  0  0  0  0  0  0  0  0  0  0  0
   37.4820   21.5960   36.5590 H   0  0  0  0  0  0  0  0  0  0  0  0
  1 15  1  0  0  0  0
  1  2  2  0  0  0  0
  3  1  1  0  0  0  0
  4  3  1  0  0  0  0
  4  5  1  0  0  0  0
  6  4  2  0  0  0  0
  7  8  2  0  0  0  0
  7  6  1  0  0  0  0
  8 13  1  0  0  0  0
  9 10  2  0  0  0  0
  9  8  1  0  0  0  0
 10 11  1  0  0  0  0
 11 12  2  0  0  0  0
 13 12  1  0  0  0  0
 13  3  2  0  0  0  0
 14 19  1  0  0  0  0
 14 20  1  0  0  0  0
 15 14  2  0  0  0  0
 16 17  2  0  0  0  0
 16 15  1  0  0  0  0
 17 18  1  0  0  0  0
 18 22  1  0  0  0  0
 18 19  2  0  0  0  0
 21 16  1  0  0  0  0
M  END
>  <minimizedAffinity>
-4.89580297

$$$$
