
 OpenBabel03262521483D

 32 34  0  0  0  0  0  0  0  0999 V2000
   38.7680   27.3020   33.2830 O   0  0  0  0  0  0  0  0  0  0  0  0
   37.7130   27.8030   32.5060 C   0  0  0  0  0  0  0  0  0  0  0  0
   36.7680   27.5360   33.0370 H   0  0  0  0  0  0  0  0  0  0  0  0
   37.7300   28.8860   32.3870 H   0  0  0  0  0  0  0  0  0  0  0  0
   37.7740   27.1380   31.1680 C   0  0  0  0  0  0  0  0  0  0  0  0
   37.2870   27.7420   30.3630 H   0  0  0  0  0  0  0  0  0  0  0  0
   38.8450   27.0310   30.8230 H   0  0  0  0  0  0  0  0  0  0  0  0
   37.1780   25.8110   31.1210 C   0  0  0  0  0  0  0  0  0  0  0  0
   37.9280   24.6670   30.9310 C   0  0  0  0  0  0  0  0  0  0  0  0
   37.2640   23.4330   30.8990 C   0  0  0  0  0  0  0  0  0  0  0  0
   35.9010   23.4300   31.0580 N   0  0  0  0  0  0  0  0  0  0  0  0
   35.1960   24.5760   31.2430 C   0  0  0  0  0  0  0  0  0  0  0  0
   35.8500   25.7740   31.2720 N   0  0  0  0  0  0  0  0  0  0  0  0
   38.9820   24.8170   30.8210 H   0  0  0  0  0  0  0  0  0  0  0  0
   37.8550   22.5630   30.7540 H   0  0  0  0  0  0  0  0  0  0  0  0
   34.1200   24.5150   31.3630 H   0  0  0  0  0  0  0  0  0  0  0  0
   36.7330   27.0690   34.9010 O   0  0  0  0  0  0  0  0  0  0  0  0
   38.2080   26.7080   34.7710 P   0  0  2  0  0  0  0  0  0  0  0  0
   38.9930   27.4660   36.0520 O   0  0  0  0  0  0  0  0  0  0  0  0
   39.4370   28.2770   35.6980 H   0  0  0  0  0  0  0  0  0  0  0  0
   38.4350   25.0520   34.8760 O   0  0  0  0  0  0  0  0  0  0  0  0
   38.5750   24.4640   36.1260 C   0  0  0  0  0  0  0  0  0  0  0  0
   37.7830   24.7240   37.2270 C   0  0  0  0  0  0  0  0  0  0  0  0
   36.9940   25.4390   37.1060 H   0  0  0  0  0  0  0  0  0  0  0  0
   37.9640   24.1180   38.4380 C   0  0  0  0  0  3  0  0  0  0  0  0
   39.0250   23.2060   38.4730 C   0  0  0  0  0  3  0  0  0  0  0  0
   39.8400   22.9140   37.4050 C   0  0  0  0  0  0  0  0  0  0  0  0
   40.8610   21.9850   37.5720 C   0  0  0  0  0  3  0  0  0  0  0  0
   41.6860   21.6890   36.4950 C   0  0  0  0  0  3  0  0  0  0  0  0
   41.4630   22.3270   35.2970 C   0  0  0  0  0  3  0  0  0  0  0  0
   40.4420   23.2480   35.1500 C   0  0  0  0  0  3  0  0  0  0  0  0
   39.6080   23.5610   36.2000 C   0  0  0  0  0  0  0  0  0  0  0  0
  1 18  1  0  0  0  0
  2  3  1  0  0  0  0
  2  1  1  0  0  0  0
  4  2  1  0  0  0  0
  5  2  1  0  0  0  0
  6  5  1  0  0  0  0
  7  5  1  0  0  0  0
  8  5  1  0  0  0  0
  8 13  1  0  0  0  0
  9  8  2  0  0  0  0
 10  9  1  0  0  0  0
 10 11  2  0  0  0  0
 11 12  1  0  0  0  0
 12 13  2  0  0  0  0
 12 16  1  0  0  0  0
 14  9  1  0  0  0  0
 15 10  1  0  0  0  0
 18 21  1  0  0  0  0
 18 17  2  1  0  0  0
 18 19  1  0  0  0  0
 20 19  1  0  0  0  0
 21 22  1  0  0  0  0
 22 32  2  0  0  0  0
 22 23  1  0  0  0  0
 23 25  2  0  0  0  0
 24 23  1  0  0  0  0
 25 26  1  0  0  0  0
 27 28  1  0  0  0  0
 27 26  2  0  0  0  0
 29 28  2  0  0  0  0
 30 29  1  0  0  0  0
 31 30  2  0  0  0  0
 31 32  1  0  0  0  0
 32 27  1  0  0  0  0
M  END
>  <minimizedAffinity>
-5.81000948

$$$$

 OpenBabel03262521483D

 32 34  0  0  0  0  0  0  0  0999 V2000
   37.5970   27.2880   33.6720 O   0  0  0  0  0  0  0  0  0  0  0  0
   36.7290   27.9110   34.5800 C   0  0  0  0  0  0  0  0  0  0  0  0
   36.0280   27.1230   34.9460 H   0  0  0  0  0  0  0  0  0  0  0  0
   37.2320   28.3340   35.4500 H   0  0  0  0  0  0  0  0  0  0  0  0
   35.9870   28.9800   33.8440 C   0  0  0  0  0  0  0  0  0  0  0  0
   36.6500   29.5880   33.1800 H   0  0  0  0  0  0  0  0  0  0  0  0
   35.2290   28.5270   33.1380 H   0  0  0  0  0  0  0  0  0  0  0  0
   35.2670   29.9160   34.6950 C   0  0  0  0  0  0  0  0  0  0  0  0
   33.8880   29.9470   34.7620 C   0  0  0  0  0  0  0  0  0  0  0  0
   33.2840   30.8860   35.6110 C   0  0  0  0  0  0  0  0  0  0  0  0
   34.0990   31.7240   36.3300 N   0  0  0  0  0  0  0  0  0  0  0  0
   35.4530   31.6630   36.2370 C   0  0  0  0  0  0  0  0  0  0  0  0
   36.0330   30.7470   35.4090 N   0  0  0  0  0  0  0  0  0  0  0  0
   33.3770   29.2360   34.1470 H   0  0  0  0  0  0  0  0  0  0  0  0
   32.2230   30.8970   35.6520 H   0  0  0  0  0  0  0  0  0  0  0  0
   36.0490   32.3500   36.8280 H   0  0  0  0  0  0  0  0  0  0  0  0
   39.1260   27.2050   35.7860 O   0  0  0  0  0  0  0  0  0  0  0  0
   38.8490   26.4720   34.4770 P   0  0  2  0  0  0  0  0  0  0  0  0
   40.2760   26.5390   33.5890 O   0  0  0  0  0  0  0  0  0  0  0  0
   40.1730   27.2450   32.9030 H   0  0  0  0  0  0  0  0  0  0  0  0
   38.4360   24.8740   34.7570 O   0  0  0  0  0  0  0  0  0  0  0  0
   38.5770   24.3500   36.0360 C   0  0  0  0  0  0  0  0  0  0  0  0
   37.7760   24.6530   37.1180 C   0  0  0  0  0  0  0  0  0  0  0  0
   36.9770   25.3490   36.9590 H   0  0  0  0  0  0  0  0  0  0  0  0
   37.9580   24.1100   38.3590 C   0  0  0  0  0  3  0  0  0  0  0  0
   39.0310   23.2160   38.4440 C   0  0  0  0  0  3  0  0  0  0  0  0
   39.8570   22.8840   37.3960 C   0  0  0  0  0  0  0  0  0  0  0  0
   40.8900   21.9790   37.6140 C   0  0  0  0  0  3  0  0  0  0  0  0
   41.7250   21.6420   36.5570 C   0  0  0  0  0  3  0  0  0  0  0  0
   41.5000   22.2170   35.3280 C   0  0  0  0  0  3  0  0  0  0  0  0
   40.4660   23.1140   35.1300 C   0  0  0  0  0  3  0  0  0  0  0  0
   39.6220   23.4670   36.1590 C   0  0  0  0  0  0  0  0  0  0  0  0
  1 18  1  0  0  0  0
  1  2  1  0  0  0  0
  2  3  1  0  0  0  0
  2  4  1  0  0  0  0
  5  2  1  0  0  0  0
  5  8  1  0  0  0  0
  6  5  1  0  0  0  0
  7  5  1  0  0  0  0
  8  9  2  0  0  0  0
  8 13  1  0  0  0  0
  9 10  1  0  0  0  0
 10 15  1  0  0  0  0
 10 11  2  0  0  0  0
 12 11  1  0  0  0  0
 12 16  1  0  0  0  0
 13 12  2  0  0  0  0
 14  9  1  0  0  0  0
 18 21  1  0  0  0  0
 18 17  2  1  0  0  0
 19 18  1  0  0  0  0
 20 19  1  0  0  0  0
 21 22  1  0  0  0  0
 22 32  2  0  0  0  0
 22 23  1  0  0  0  0
 23 25  2  0  0  0  0
 24 23  1  0  0  0  0
 25 26  1  0  0  0  0
 27 28  1  0  0  0  0
 27 26  2  0  0  0  0
 29 28  2  0  0  0  0
 30 29  1  0  0  0  0
 31 30  2  0  0  0  0
 31 32  1  0  0  0  0
 32 27  1  0  0  0  0
M  END
>  <minimizedAffinity>
-5.61765003

$$$$

 OpenBabel03262521483D

 32 34  0  0  0  0  0  0  0  0999 V2000
   38.8330   27.3410   33.3240 O   0  0  0  0  0  0  0  0  0  0  0  0
   38.8530   26.3340   32.3480 C   0  0  0  0  0  0  0  0  0  0  0  0
   39.7040   26.5660   31.6640 H   0  0  0  0  0  0  0  0  0  0  0  0
   39.0180   25.3340   32.7510 H   0  0  0  0  0  0  0  0  0  0  0  0
   37.5530   26.3840   31.6120 C   0  0  0  0  0  0  0  0  0  0  0  0
   37.4810   25.6080   30.8100 H   0  0  0  0  0  0  0  0  0  0  0  0
   36.6920   26.1450   32.3040 H   0  0  0  0  0  0  0  0  0  0  0  0
   37.2550   27.6650   30.9900 C   0  0  0  0  0  0  0  0  0  0  0  0
   36.2330   28.4830   31.4290 C   0  0  0  0  0  0  0  0  0  0  0  0
   36.0210   29.7000   30.7650 C   0  0  0  0  0  0  0  0  0  0  0  0
   36.8440   30.0110   29.7110 N   0  0  0  0  0  0  0  0  0  0  0  0
   37.8390   29.1800   29.3070 C   0  0  0  0  0  0  0  0  0  0  0  0
   38.0390   27.9970   29.9590 N   0  0  0  0  0  0  0  0  0  0  0  0
   35.6700   28.1160   32.2620 H   0  0  0  0  0  0  0  0  0  0  0  0
   35.2330   30.3180   31.1160 H   0  0  0  0  0  0  0  0  0  0  0  0
   38.4590   29.4760   28.4680 H   0  0  0  0  0  0  0  0  0  0  0  0
   36.7660   27.1830   34.9100 O   0  0  0  0  0  0  0  0  0  0  0  0
   38.2260   26.7580   34.7980 P   0  0  2  0  0  0  0  0  0  0  0  0
   39.0240   27.4680   36.0970 O   0  0  0  0  0  0  0  0  0  0  0  0
   39.5100   28.2620   35.7580 H   0  0  0  0  0  0  0  0  0  0  0  0
   38.3780   25.0930   34.8890 O   0  0  0  0  0  0  0  0  0  0  0  0
   38.5280   24.4920   36.1330 C   0  0  0  0  0  0  0  0  0  0  0  0
   37.7330   24.7260   37.2360 C   0  0  0  0  0  0  0  0  0  0  0  0
   36.9320   25.4300   37.1240 H   0  0  0  0  0  0  0  0  0  0  0  0
   37.9240   24.1080   38.4400 C   0  0  0  0  0  3  0  0  0  0  0  0
   38.9980   23.2130   38.4640 C   0  0  0  0  0  3  0  0  0  0  0  0
   39.8180   22.9470   37.3920 C   0  0  0  0  0  0  0  0  0  0  0  0
   40.8540   22.0320   37.5480 C   0  0  0  0  0  3  0  0  0  0  0  0
   41.6820   21.7620   36.4670 C   0  0  0  0  0  3  0  0  0  0  0  0
   41.4490   22.4110   35.2770 C   0  0  0  0  0  3  0  0  0  0  0  0
   40.4130   23.3170   35.1410 C   0  0  0  0  0  3  0  0  0  0  0  0
   39.5750   23.6050   36.1950 C   0  0  0  0  0  0  0  0  0  0  0  0
  1 18  1  0  0  0  0
  2  4  1  0  0  0  0
  2  1  1  0  0  0  0
  3  2  1  0  0  0  0
  5  7  1  0  0  0  0
  5  2  1  0  0  0  0
  6  5  1  0  0  0  0
  8  9  1  0  0  0  0
  8  5  1  0  0  0  0
  9 14  1  0  0  0  0
 10 15  1  0  0  0  0
 10  9  2  0  0  0  0
 11 10  1  0  0  0  0
 12 11  2  0  0  0  0
 12 13  1  0  0  0  0
 13  8  2  0  0  0  0
 16 12  1  0  0  0  0
 18 21  1  0  0  0  0
 18 17  2  1  0  0  0
 18 19  1  0  0  0  0
 20 19  1  0  0  0  0
 21 22  1  0  0  0  0
 22 32  2  0  0  0  0
 22 23  1  0  0  0  0
 23 25  2  0  0  0  0
 24 23  1  0  0  0  0
 25 26  1  0  0  0  0
 27 28  1  0  0  0  0
 27 26  2  0  0  0  0
 29 28  2  0  0  0  0
 30 29  1  0  0  0  0
 31 30  2  0  0  0  0
 31 32  1  0  0  0  0
 32 27  1  0  0  0  0
M  END
>  <minimizedAffinity>
-5.4979949

$$$$

 OpenBabel03262521483D

 32 34  0  0  0  0  0  0  0  0999 V2000
   34.8540   28.1670   32.0140 O   0  0  0  0  0  0  0  0  0  0  0  0
   34.6860   29.4850   32.4630 C   0  0  0  0  0  0  0  0  0  0  0  0
   35.7060   29.8880   32.6670 H   0  0  0  0  0  0  0  0  0  0  0  0
   34.2120   30.1420   31.7330 H   0  0  0  0  0  0  0  0  0  0  0  0
   33.8730   29.4400   33.7180 C   0  0  0  0  0  0  0  0  0  0  0  0
   32.7960   29.6850   33.5440 H   0  0  0  0  0  0  0  0  0  0  0  0
   33.8520   28.3940   34.1440 H   0  0  0  0  0  0  0  0  0  0  0  0
   34.3420   30.3200   34.7770 C   0  0  0  0  0  0  0  0  0  0  0  0
   35.6640   30.7020   34.8940 C   0  0  0  0  0  0  0  0  0  0  0  0
   36.0210   31.5530   35.9500 C   0  0  0  0  0  0  0  0  0  0  0  0
   35.0330   31.9600   36.8120 N   0  0  0  0  0  0  0  0  0  0  0  0
   33.7430   31.5630   36.6650 C   0  0  0  0  0  0  0  0  0  0  0  0
   33.4040   30.7340   35.6350 N   0  0  0  0  0  0  0  0  0  0  0  0
   36.3280   30.3100   34.1520 H   0  0  0  0  0  0  0  0  0  0  0  0
   37.0410   31.8390   36.0260 H   0  0  0  0  0  0  0  0  0  0  0  0
   33.0030   31.9150   37.3760 H   0  0  0  0  0  0  0  0  0  0  0  0
   37.1800   29.2360   31.5020 O   0  0  0  0  0  0  0  0  0  0  0  0
   36.3920   27.9420   31.3310 P   0  0  2  0  0  0  0  0  0  0  0  0
   36.2780   27.6750   29.6740 O   0  0  0  0  0  0  0  0  0  0  0  0
   35.3720   27.9490   29.3840 H   0  0  0  0  0  0  0  0  0  0  0  0
   37.1820   26.6550   32.0530 O   0  0  0  0  0  0  0  0  0  0  0  0
   37.8130   26.8450   33.2760 C   0  0  0  0  0  0  0  0  0  0  0  0
   37.1790   27.1250   34.4690 C   0  0  0  0  0  0  0  0  0  0  0  0
   36.1100   27.2010   34.4520 H   0  0  0  0  0  0  0  0  0  0  0  0
   37.8480   27.3060   35.6470 C   0  0  0  0  0  3  0  0  0  0  0  0
   39.2380   27.1830   35.5450 C   0  0  0  0  0  3  0  0  0  0  0  0
   39.9140   26.9060   34.3800 C   0  0  0  0  0  0  0  0  0  0  0  0
   41.3010   26.8100   34.4140 C   0  0  0  0  0  3  0  0  0  0  0  0
   41.9860   26.5300   33.2390 C   0  0  0  0  0  3  0  0  0  0  0  0
   41.2670   26.3570   32.0800 C   0  0  0  0  0  3  0  0  0  0  0  0
   39.8870   26.4560   32.0660 C   0  0  0  0  0  3  0  0  0  0  0  0
   39.1810   26.7330   33.2150 C   0  0  0  0  0  0  0  0  0  0  0  0
  1  2  1  0  0  0  0
  2  3  1  0  0  0  0
  2  5  1  0  0  0  0
  4  2  1  0  0  0  0
  5  7  1  0  0  0  0
  5  8  1  0  0  0  0
  6  5  1  0  0  0  0
  8  9  2  0  0  0  0
  8 13  1  0  0  0  0
  9 10  1  0  0  0  0
 10 15  1  0  0  0  0
 10 11  2  0  0  0  0
 12 11  1  0  0  0  0
 12 16  1  0  0  0  0
 13 12  2  0  0  0  0
 14  9  1  0  0  0  0
 18 17  2  1  0  0  0
 18  1  1  0  0  0  0
 18 21  1  0  0  0  0
 19 18  1  0  0  0  0
 20 19  1  0  0  0  0
 21 22  1  0  0  0  0
 22 23  1  0  0  0  0
 23 25  2  0  0  0  0
 24 23  1  0  0  0  0
 26 25  1  0  0  0  0
 27 28  1  0  0  0  0
 27 26  2  0  0  0  0
 29 28  2  0  0  0  0
 30 29  1  0  0  0  0
 31 30  2  0  0  0  0
 31 32  1  0  0  0  0
 32 22  2  0  0  0  0
 32 27  1  0  0  0  0
M  END
>  <minimizedAffinity>
-5.46379995

$$$$

 OpenBabel03262521483D

 32 34  0  0  0  0  0  0  0  0999 V2000
   34.9890   28.0300   32.1590 O   0  0  0  0  0  0  0  0  0  0  0  0
   34.8840   29.3720   32.5500 C   0  0  0  0  0  0  0  0  0  0  0  0
   35.9090   29.7020   32.8450 H   0  0  0  0  0  0  0  0  0  0  0  0
   34.5390   30.0360   31.7570 H   0  0  0  0  0  0  0  0  0  0  0  0
   33.9510   29.4370   33.7170 C   0  0  0  0  0  0  0  0  0  0  0  0
   32.9160   29.7460   33.4250 H   0  0  0  0  0  0  0  0  0  0  0  0
   33.8140   28.4140   34.1770 H   0  0  0  0  0  0  0  0  0  0  0  0
   34.3740   30.3300   34.7850 C   0  0  0  0  0  0  0  0  0  0  0  0
   35.6790   30.7620   34.9180 C   0  0  0  0  0  0  0  0  0  0  0  0
   35.9920   31.6210   35.9810 C   0  0  0  0  0  0  0  0  0  0  0  0
   34.9800   31.9860   36.8340 N   0  0  0  0  0  0  0  0  0  0  0  0
   33.7070   31.5410   36.6710 C   0  0  0  0  0  0  0  0  0  0  0  0
   33.4120   30.7040   35.6330 N   0  0  0  0  0  0  0  0  0  0  0  0
   36.3660   30.3980   34.1810 H   0  0  0  0  0  0  0  0  0  0  0  0
   36.9990   31.9440   36.0690 H   0  0  0  0  0  0  0  0  0  0  0  0
   32.9470   31.8610   37.3750 H   0  0  0  0  0  0  0  0  0  0  0  0
   37.3300   28.9830   31.5080 O   0  0  0  0  0  0  0  0  0  0  0  0
   36.4770   27.7240   31.4010 P   0  0  2  0  0  0  0  0  0  0  0  0
   36.2640   27.4370   29.7570 O   0  0  0  0  0  0  0  0  0  0  0  0
   35.3570   27.7470   29.5100 H   0  0  0  0  0  0  0  0  0  0  0  0
   37.2460   26.4130   32.1040 O   0  0  0  0  0  0  0  0  0  0  0  0
   37.5580   26.4550   33.4570 C   0  0  0  0  0  0  0  0  0  0  0  0
   37.5980   27.5940   34.2350 C   0  0  0  0  0  0  0  0  0  0  0  0
   37.3680   28.5250   33.7560 H   0  0  0  0  0  0  0  0  0  0  0  0
   37.9140   27.5820   35.5650 C   0  0  0  0  0  3  0  0  0  0  0  0
   38.1960   26.3110   36.0780 C   0  0  0  0  0  3  0  0  0  0  0  0
   38.1690   25.1490   35.3430 C   0  0  0  0  0  0  0  0  0  0  0  0
   38.4700   23.9470   35.9750 C   0  0  0  0  0  3  0  0  0  0  0  0
   38.4440   22.7720   35.2360 C   0  0  0  0  0  3  0  0  0  0  0  0
   38.1210   22.8380   33.9000 C   0  0  0  0  0  3  0  0  0  0  0  0
   37.8250   24.0430   33.2890 C   0  0  0  0  0  3  0  0  0  0  0  0
   37.8420   25.2240   33.9970 C   0  0  0  0  0  0  0  0  0  0  0  0
  1  2  1  0  0  0  0
  2  3  1  0  0  0  0
  2  5  1  0  0  0  0
  4  2  1  0  0  0  0
  5  7  1  0  0  0  0
  5  8  1  0  0  0  0
  6  5  1  0  0  0  0
  8  9  2  0  0  0  0
  8 13  1  0  0  0  0
  9 10  1  0  0  0  0
 10 15  1  0  0  0  0
 10 11  2  0  0  0  0
 12 11  1  0  0  0  0
 12 16  1  0  0  0  0
 13 12  2  0  0  0  0
 14  9  1  0  0  0  0
 18 17  2  1  0  0  0
 18 21  1  0  0  0  0
 18  1  1  0  0  0  0
 19 18  1  0  0  0  0
 20 19  1  0  0  0  0
 21 22  1  0  0  0  0
 22 32  2  0  0  0  0
 22 23  1  0  0  0  0
 23 25  2  0  0  0  0
 24 23  1  0  0  0  0
 25 26  1  0  0  0  0
 27 28  1  0  0  0  0
 27 26  2  0  0  0  0
 29 28  2  0  0  0  0
 30 29  1  0  0  0  0
 31 30  2  0  0  0  0
 31 32  1  0  0  0  0
 32 27  1  0  0  0  0
M  END
>  <minimizedAffinity>
-5.34688568

$$$$

 OpenBabel03262521483D

 32 34  0  0  0  0  0  0  0  0999 V2000
   40.8320   24.2930   35.8660 O   0  0  0  0  0  0  0  0  0  0  0  0
   40.8150   24.8690   34.5870 C   0  0  0  0  0  0  0  0  0  0  0  0
   41.7920   24.6170   34.1080 H   0  0  0  0  0  0  0  0  0  0  0  0
   40.0240   24.4860   33.9430 H   0  0  0  0  0  0  0  0  0  0  0  0
   40.6730   26.3480   34.7530 C   0  0  0  0  0  0  0  0  0  0  0  0
   40.9320   26.6940   35.7850 H   0  0  0  0  0  0  0  0  0  0  0  0
   41.4020   26.8970   34.0870 H   0  0  0  0  0  0  0  0  0  0  0  0
   39.3480   26.8690   34.4520 C   0  0  0  0  0  0  0  0  0  0  0  0
   38.4600   27.2520   35.4370 C   0  0  0  0  0  0  0  0  0  0  0  0
   37.2050   27.7420   35.0480 C   0  0  0  0  0  0  0  0  0  0  0  0
   36.9280   27.8140   33.7060 N   0  0  0  0  0  0  0  0  0  0  0  0
   37.8280   27.4280   32.7650 C   0  0  0  0  0  0  0  0  0  0  0  0
   39.0480   26.9510   33.1520 N   0  0  0  0  0  0  0  0  0  0  0  0
   38.8070   27.1420   36.4430 H   0  0  0  0  0  0  0  0  0  0  0  0
   36.5330   28.0330   35.8170 H   0  0  0  0  0  0  0  0  0  0  0  0
   37.5560   27.5060   31.7180 H   0  0  0  0  0  0  0  0  0  0  0  0
   38.5440   24.1030   37.1070 O   0  0  0  0  0  0  0  0  0  0  0  0
   39.4460   23.3510   36.1350 P   0  0  2  0  0  0  0  0  0  0  0  0
   39.8440   21.9000   36.8890 O   0  0  0  0  0  0  0  0  0  0  0  0
   40.7620   21.9890   37.2500 H   0  0  0  0  0  0  0  0  0  0  0  0
   38.6500   23.0350   34.6960 O   0  0  0  0  0  0  0  0  0  0  0  0
   37.5660   22.1670   34.6960 C   0  0  0  0  0  0  0  0  0  0  0  0
   36.9270   21.6830   35.8200 C   0  0  0  0  0  0  0  0  0  0  0  0
   37.2990   22.0040   36.7730 H   0  0  0  0  0  0  0  0  0  0  0  0
   35.8630   20.8280   35.7660 C   0  0  0  0  0  3  0  0  0  0  0  0
   35.4700   20.4800   34.4690 C   0  0  0  0  0  3  0  0  0  0  0  0
   36.0730   20.9350   33.3210 C   0  0  0  0  0  0  0  0  0  0  0  0
   35.5830   20.5120   32.0900 C   0  0  0  0  0  3  0  0  0  0  0  0
   36.1910   20.9700   30.9290 C   0  0  0  0  0  3  0  0  0  0  0  0
   37.2600   21.8290   31.0370 C   0  0  0  0  0  3  0  0  0  0  0  0
   37.7330   22.2400   32.2710 C   0  0  0  0  0  3  0  0  0  0  0  0
   37.1500   21.8020   33.4390 C   0  0  0  0  0  0  0  0  0  0  0  0
  1 18  1  0  0  0  0
  2  5  1  0  0  0  0
  2  1  1  0  0  0  0
  3  2  1  0  0  0  0
  4  2  1  0  0  0  0
  5  6  1  0  0  0  0
  7  5  1  0  0  0  0
  8  5  1  0  0  0  0
  8  9  1  0  0  0  0
  9 14  1  0  0  0  0
 10  9  2  0  0  0  0
 10 15  1  0  0  0  0
 11 10  1  0  0  0  0
 12 13  1  0  0  0  0
 12 11  2  0  0  0  0
 13  8  2  0  0  0  0
 16 12  1  0  0  0  0
 18 19  1  0  0  0  0
 18 17  2  1  0  0  0
 19 20  1  0  0  0  0
 21 22  1  0  0  0  0
 21 18  1  0  0  0  0
 22 23  1  0  0  0  0
 23 24  1  0  0  0  0
 25 23  2  0  0  0  0
 26 25  1  0  0  0  0
 27 32  1  0  0  0  0
 27 26  2  0  0  0  0
 28 27  1  0  0  0  0
 29 30  1  0  0  0  0
 29 28  2  0  0  0  0
 30 31  2  0  0  0  0
 31 32  1  0  0  0  0
 32 22  2  0  0  0  0
M  END
>  <minimizedAffinity>
-5.34330416

$$$$

 OpenBabel03262521483D

 32 34  0  0  0  0  0  0  0  0999 V2000
   38.1740   23.4050   32.5290 O   0  0  0  0  0  0  0  0  0  0  0  0
   37.5030   22.6100   33.4690 C   0  0  0  0  0  0  0  0  0  0  0  0
   36.9190   23.3050   34.1190 H   0  0  0  0  0  0  0  0  0  0  0  0
   36.8000   21.9040   33.0270 H   0  0  0  0  0  0  0  0  0  0  0  0
   38.5330   21.8780   34.2680 C   0  0  0  0  0  0  0  0  0  0  0  0
   38.3370   20.7780   34.3210 H   0  0  0  0  0  0  0  0  0  0  0  0
   39.5480   21.9530   33.7760 H   0  0  0  0  0  0  0  0  0  0  0  0
   38.6890   22.3480   35.6360 C   0  0  0  0  0  0  0  0  0  0  0  0
   39.9090   22.3550   36.2840 C   0  0  0  0  0  0  0  0  0  0  0  0
   39.9590   22.8260   37.6030 C   0  0  0  0  0  0  0  0  0  0  0  0
   38.7900   23.2550   38.1800 N   0  0  0  0  0  0  0  0  0  0  0  0
   37.6080   23.2340   37.5110 C   0  0  0  0  0  0  0  0  0  0  0  0
   37.5680   22.7730   36.2260 N   0  0  0  0  0  0  0  0  0  0  0  0
   40.7390   21.9920   35.7140 H   0  0  0  0  0  0  0  0  0  0  0  0
   40.9040   22.8260   38.0870 H   0  0  0  0  0  0  0  0  0  0  0  0
   36.7150   23.5850   38.0160 H   0  0  0  0  0  0  0  0  0  0  0  0
   35.7020   23.8010   31.7890 O   0  0  0  0  0  0  0  0  0  0  0  0
   37.0940   24.4150   31.6950 P   0  0  2  0  0  0  0  0  0  0  0  0
   37.4720   24.4740   30.0560 O   0  0  0  0  0  0  0  0  0  0  0  0
   38.0850   23.7220   29.8600 H   0  0  0  0  0  0  0  0  0  0  0  0
   37.1140   25.9640   32.3300 O   0  0  0  0  0  0  0  0  0  0  0  0
   37.9280   26.2390   33.4220 C   0  0  0  0  0  0  0  0  0  0  0  0
   37.5640   26.1090   34.7460 C   0  0  0  0  0  0  0  0  0  0  0  0
   36.5690   25.7660   34.9510 H   0  0  0  0  0  0  0  0  0  0  0  0
   38.4050   26.3950   35.7850 C   0  0  0  0  0  3  0  0  0  0  0  0
   39.6740   26.8340   35.3940 C   0  0  0  0  0  3  0  0  0  0  0  0
   40.0830   26.9810   34.0900 C   0  0  0  0  0  0  0  0  0  0  0  0
   41.3750   27.4270   33.8360 C   0  0  0  0  0  3  0  0  0  0  0  0
   41.7900   27.5750   32.5190 C   0  0  0  0  0  3  0  0  0  0  0  0
   40.9060   27.2740   31.5090 C   0  0  0  0  0  3  0  0  0  0  0  0
   39.6240   26.8310   31.7820 C   0  0  0  0  0  3  0  0  0  0  0  0
   39.1850   26.6750   33.0770 C   0  0  0  0  0  0  0  0  0  0  0  0
  1  2  1  0  0  0  0
  2  3  1  0  0  0  0
  2  5  1  0  0  0  0
  4  2  1  0  0  0  0
  5  6  1  0  0  0  0
  5  8  1  0  0  0  0
  7  5  1  0  0  0  0
  8 13  2  0  0  0  0
  8  9  1  0  0  0  0
  9 10  2  0  0  0  0
 10 15  1  0  0  0  0
 10 11  1  0  0  0  0
 12 16  1  0  0  0  0
 12 11  2  0  0  0  0
 13 12  1  0  0  0  0
 14  9  1  0  0  0  0
 18 17  2  1  0  0  0
 18 21  1  0  0  0  0
 18  1  1  0  0  0  0
 19 18  1  0  0  0  0
 20 19  1  0  0  0  0
 21 22  1  0  0  0  0
 22 23  1  0  0  0  0
 23 24  1  0  0  0  0
 23 25  2  0  0  0  0
 26 25  1  0  0  0  0
 27 26  2  0  0  0  0
 28 27  1  0  0  0  0
 29 28  2  0  0  0  0
 30 31  2  0  0  0  0
 30 29  1  0  0  0  0
 31 32  1  0  0  0  0
 32 22  2  0  0  0  0
 32 27  1  0  0  0  0
M  END
>  <minimizedAffinity>
-5.34192181

$$$$

 OpenBabel03262521483D

 32 34  0  0  0  0  0  0  0  0999 V2000
   39.0620   24.3950   35.7510 O   0  0  0  0  0  0  0  0  0  0  0  0
   38.1530   25.2540   36.3840 C   0  0  0  0  0  0  0  0  0  0  0  0
   37.1400   24.9980   35.9900 H   0  0  0  0  0  0  0  0  0  0  0  0
   38.1230   25.1420   37.4680 H   0  0  0  0  0  0  0  0  0  0  0  0
   38.5210   26.6580   36.0230 C   0  0  0  0  0  0  0  0  0  0  0  0
   38.0160   27.4170   36.6700 H   0  0  0  0  0  0  0  0  0  0  0  0
   39.6230   26.8390   36.1950 H   0  0  0  0  0  0  0  0  0  0  0  0
   38.2410   27.0240   34.6430 C   0  0  0  0  0  0  0  0  0  0  0  0
   39.2090   27.0000   33.6580 C   0  0  0  0  0  0  0  0  0  0  0  0
   38.8440   27.3710   32.3560 C   0  0  0  0  0  0  0  0  0  0  0  0
   37.5400   27.7390   32.1320 N   0  0  0  0  0  0  0  0  0  0  0  0
   36.6160   27.7500   33.1270 C   0  0  0  0  0  0  0  0  0  0  0  0
   36.9800   27.3870   34.3920 N   0  0  0  0  0  0  0  0  0  0  0  0
   40.1840   26.6930   33.9740 H   0  0  0  0  0  0  0  0  0  0  0  0
   39.5990   27.3470   31.6100 H   0  0  0  0  0  0  0  0  0  0  0  0
   35.6000   28.0500   32.8930 H   0  0  0  0  0  0  0  0  0  0  0  0
   37.1560   22.7620   36.4670 O   0  0  0  0  0  0  0  0  0  0  0  0
   38.5400   22.7820   35.8260 P   0  0  2  0  0  0  0  0  0  0  0  0
   39.5380   21.8750   36.8320 O   0  0  0  0  0  0  0  0  0  0  0  0
   40.0760   22.5050   37.3740 H   0  0  0  0  0  0  0  0  0  0  0  0
   38.5070   22.0940   34.3000 O   0  0  0  0  0  0  0  0  0  0  0  0
   37.5910   22.5600   33.3650 C   0  0  0  0  0  0  0  0  0  0  0  0
   37.5770   23.8270   32.8200 C   0  0  0  0  0  0  0  0  0  0  0  0
   38.3370   24.5100   33.1450 H   0  0  0  0  0  0  0  0  0  0  0  0
   36.6510   24.2370   31.9030 C   0  0  0  0  0  3  0  0  0  0  0  0
   35.7110   23.2600   31.5580 C   0  0  0  0  0  3  0  0  0  0  0  0
   35.6840   21.9850   32.0730 C   0  0  0  0  0  0  0  0  0  0  0  0
   34.6940   21.1080   31.6450 C   0  0  0  0  0  3  0  0  0  0  0  0
   34.6640   19.8200   32.1640 C   0  0  0  0  0  3  0  0  0  0  0  0
   35.6190   19.4570   33.0850 C   0  0  0  0  0  3  0  0  0  0  0  0
   36.5960   20.3440   33.4990 C   0  0  0  0  0  3  0  0  0  0  0  0
   36.6500   21.6270   33.0010 C   0  0  0  0  0  0  0  0  0  0  0  0
  1 18  1  0  0  0  0
  1  2  1  0  0  0  0
  2  4  1  0  0  0  0
  3  2  1  0  0  0  0
  5  7  1  0  0  0  0
  5  2  1  0  0  0  0
  5  6  1  0  0  0  0
  8  5  1  0  0  0  0
  9 14  1  0  0  0  0
  9  8  2  0  0  0  0
 10  9  1  0  0  0  0
 11 10  2  0  0  0  0
 11 12  1  0  0  0  0
 12 13  2  0  0  0  0
 13  8  1  0  0  0  0
 15 10  1  0  0  0  0
 16 12  1  0  0  0  0
 18 17  2  1  0  0  0
 18 19  1  0  0  0  0
 19 20  1  0  0  0  0
 21 18  1  0  0  0  0
 22 21  1  0  0  0  0
 23 24  1  0  0  0  0
 23 22  2  0  0  0  0
 25 23  1  0  0  0  0
 26 25  2  0  0  0  0
 26 27  1  0  0  0  0
 27 32  1  0  0  0  0
 28 27  2  0  0  0  0
 28 29  1  0  0  0  0
 29 30  2  0  0  0  0
 30 31  1  0  0  0  0
 32 22  1  0  0  0  0
 32 31  2  0  0  0  0
M  END
>  <minimizedAffinity>
-5.30457449

$$$$

 OpenBabel03262521483D

 32 34  0  0  0  0  0  0  0  0999 V2000
   37.1310   29.4640   31.3620 O   0  0  0  0  0  0  0  0  0  0  0  0
   35.8260   29.8830   31.0640 C   0  0  0  0  0  0  0  0  0  0  0  0
   35.8970   30.9470   30.7340 H   0  0  0  0  0  0  0  0  0  0  0  0
   35.3560   29.3180   30.2580 H   0  0  0  0  0  0  0  0  0  0  0  0
   35.0130   29.7700   32.3130 C   0  0  0  0  0  0  0  0  0  0  0  0
   33.9230   29.9530   32.1380 H   0  0  0  0  0  0  0  0  0  0  0  0
   35.0520   28.7170   32.7230 H   0  0  0  0  0  0  0  0  0  0  0  0
   35.4240   30.6580   33.3900 C   0  0  0  0  0  0  0  0  0  0  0  0
   35.6240   30.2150   34.6820 C   0  0  0  0  0  0  0  0  0  0  0  0
   36.0200   31.1470   35.6520 C   0  0  0  0  0  0  0  0  0  0  0  0
   36.1870   32.4530   35.2620 N   0  0  0  0  0  0  0  0  0  0  0  0
   35.9810   32.8520   33.9800 C   0  0  0  0  0  0  0  0  0  0  0  0
   35.5950   31.9380   33.0420 N   0  0  0  0  0  0  0  0  0  0  0  0
   35.4580   29.1710   34.8460 H   0  0  0  0  0  0  0  0  0  0  0  0
   36.1700   30.7910   36.6410 H   0  0  0  0  0  0  0  0  0  0  0  0
   36.1270   33.8960   33.7280 H   0  0  0  0  0  0  0  0  0  0  0  0
   38.8350   29.1870   29.4040 O   0  0  0  0  0  0  0  0  0  0  0  0
   37.7380   28.4380   30.1540 P   0  0  2  0  0  0  0  0  0  0  0  0
   36.5500   28.0820   29.0170 O   0  0  0  0  0  0  0  0  0  0  0  0
   35.8130   28.7320   29.1350 H   0  0  0  0  0  0  0  0  0  0  0  0
   38.3240   27.0170   30.8170 O   0  0  0  0  0  0  0  0  0  0  0  0
   39.3120   27.0790   31.7920 C   0  0  0  0  0  0  0  0  0  0  0  0
   40.6660   27.1950   31.5540 C   0  0  0  0  0  0  0  0  0  0  0  0
   40.9830   27.2400   30.5310 H   0  0  0  0  0  0  0  0  0  0  0  0
   41.5990   27.2510   32.5510 C   0  0  0  0  0  3  0  0  0  0  0  0
   41.0660   27.1810   33.8430 C   0  0  0  0  0  3  0  0  0  0  0  0
   39.7260   27.0660   34.1300 C   0  0  0  0  0  0  0  0  0  0  0  0
   39.3260   27.0080   35.4600 C   0  0  0  0  0  3  0  0  0  0  0  0
   37.9730   26.8910   35.7520 C   0  0  0  0  0  3  0  0  0  0  0  0
   37.0750   26.8380   34.7130 C   0  0  0  0  0  3  0  0  0  0  0  0
   37.4920   26.8980   33.3950 C   0  0  0  0  0  3  0  0  0  0  0  0
   38.8260   27.0140   33.0750 C   0  0  0  0  0  0  0  0  0  0  0  0
  2  1  1  0  0  0  0
  2  5  1  0  0  0  0
  3  2  1  0  0  0  0
  4  2  1  0  0  0  0
  5  7  1  0  0  0  0
  5  8  1  0  0  0  0
  6  5  1  0  0  0  0
  8  9  1  0  0  0  0
  9 14  1  0  0  0  0
  9 10  2  0  0  0  0
 10 15  1  0  0  0  0
 11 10  1  0  0  0  0
 12 11  2  0  0  0  0
 13  8  2  0  0  0  0
 13 12  1  0  0  0  0
 16 12  1  0  0  0  0
 18 17  2  6  0  0  0
 18 21  1  0  0  0  0
 18  1  1  0  0  0  0
 19 20  1  0  0  0  0
 19 18  1  0  0  0  0
 21 22  1  0  0  0  0
 22 32  1  0  0  0  0
 23 22  2  0  0  0  0
 23 25  1  0  0  0  0
 24 23  1  0  0  0  0
 25 26  2  0  0  0  0
 26 27  1  0  0  0  0
 27 28  1  0  0  0  0
 28 29  2  0  0  0  0
 30 29  1  0  0  0  0
 31 30  2  0  0  0  0
 32 31  1  0  0  0  0
 32 27  2  0  0  0  0
M  END
>  <minimizedAffinity>
-5.2355094

$$$$
