
     RDKit          3D

 32 34  0  0  0  0  0  0  0  0999 V2000
   37.3463   30.1496   51.3594 C   0  0  0  0  0  0  0  0  0  0  0  0
   38.0001   30.5082   50.1676 C   0  0  0  0  0  0  0  0  0  0  0  0
   37.4132   30.1505   48.9542 C   0  0  0  0  0  0  0  0  0  0  0  0
   36.2325   29.4695   48.9898 N   0  0  0  0  0  0  0  0  0  0  0  0
   35.6388   29.1451   50.1514 C   0  0  0  0  0  0  0  0  0  0  0  0
   36.1885   29.4809   51.3313 N   0  0  0  0  0  0  0  0  0  0  0  0
   37.8531   30.3845   47.6965 O   0  0  0  0  0  0  0  0  0  0  0  0
   39.0601   32.7310   48.1352 O   0  0  0  0  0  0  0  0  0  0  0  0
   38.7030   31.7201   47.1025 P   0  0  2  0  0  0  0  0  0  0  0  0
   37.8192   32.4527   45.8421 O   0  0  0  0  0  0  0  0  0  0  0  0
   40.1652   31.1798   46.4230 O   0  0  0  0  0  0  0  0  0  0  0  0
   37.9084   30.4873   52.2089 H   0  0  0  0  0  0  0  0  0  0  0  0
   38.9180   31.0365   50.0714 H   0  0  0  0  0  0  0  0  0  0  0  0
   34.6930   28.5996   50.1696 H   0  0  0  0  0  0  0  0  0  0  0  0
   37.9817   32.0078   44.9740 H   0  0  0  0  0  0  0  0  0  0  0  0
   40.9344   32.0560   45.6702 C   0  0  0  0  0  0  0  0  0  0  0  0
   40.5209   32.9343   44.6900 C   0  0  0  0  0  0  0  0  0  0  0  0
   39.4571   32.9195   44.5028 H   0  0  0  0  0  0  0  0  0  0  0  0
   41.4254   33.7341   44.0414 C   0  0  0  0  0  0  0  0  0  0  0  0
   42.7755   33.7040   44.3294 C   0  0  0  0  0  0  0  0  0  0  0  0
   43.2102   32.8330   45.3060 C   0  0  0  0  0  0  0  0  0  0  0  0
   44.5603   32.8018   45.5951 C   0  0  0  0  0  0  0  0  0  0  0  0
   45.0444   31.9473   46.5643 C   0  0  0  0  0  0  0  0  0  0  0  0
   44.1649   31.1276   47.2381 C   0  0  0  0  0  0  0  0  0  0  0  0
   42.8206   31.1778   46.9306 C   0  0  0  0  0  0  0  0  0  0  0  0
   42.2965   32.0193   45.9672 C   0  0  0  0  0  0  0  0  0  0  0  0
   41.0661   34.4169   43.2722 H   0  0  0  0  0  0  0  0  0  0  0  0
   43.4855   34.3210   43.8312 H   0  0  0  0  0  0  0  0  0  0  0  0
   45.2876   33.4315   45.0873 H   0  0  0  0  0  0  0  0  0  0  0  0
   46.0807   31.8479   46.8637 H   0  0  0  0  0  0  0  0  0  0  0  0
   44.4939   30.4384   48.0081 H   0  0  0  0  0  0  0  0  0  0  0  0
   42.1497   30.5258   47.4721 H   0  0  0  0  0  0  0  0  0  0  0  0
  2  1  2  0
  3  4  2  0
  3  2  1  0
  4  5  1  0
  5  6  2  0
  6  1  1  0
  7  3  1  0
  9  7  1  1
  9  8  2  0
 10  9  1  0
 11  9  1  0
  1 12  1  0
  2 13  1  0
  5 14  1  0
 10 15  1  0
 16 17  2  0
 17 18  1  0
 17 19  1  0
 19 20  2  0
 20 21  1  0
 21 22  2  0
 22 23  1  0
 23 24  2  0
 24 25  1  0
 25 26  2  0
 26 16  1  0
 26 21  1  0
 19 27  1  0
 20 28  1  0
 22 29  1  0
 23 30  1  0
 24 31  1  0
 25 32  1  0
 11 16  1  0
M  ISO  5  12  14  13  14  14  14  15   3  18  15
M  END
>  <DihAtoms>  (1) 
8,10,15,16

>  <DihDeg>  (1) 
0.0008990535334534655

$$$$
