
 OpenBabel03272500453D

 27 30  0  0  0  0  0  0  0  0999 V2000
   37.9890   25.1390   34.7180 C   0  0  0  0  0  0  0  0  0  0  0  0
   37.6040   24.6100   33.4850 C   0  0  0  0  0  0  0  0  0  0  0  0
   37.0310   25.6260   32.7230 C   0  0  0  0  0  0  0  0  0  0  0  0
   37.0810   26.7440   33.5110 N   0  0  0  0  0  0  0  0  0  0  0  0
   37.6450   26.4150   34.6620 N   0  0  0  0  0  0  0  0  0  0  0  0
   37.6980   23.6140   33.1160 H   0  0  0  0  0  0  0  0  0  0  0  0
   36.6210   25.5780   31.7160 H   0  0  0  0  0  0  0  0  0  0  0  0
   36.6230   28.0440   33.1930 C   0  0  0  0  0  0  0  0  0  0  0  0
   35.9490   28.6570   34.2530 C   0  0  0  0  0  0  0  0  0  0  0  0
   35.7830   28.1910   35.2340 H   0  0  0  0  0  0  0  0  0  0  0  0
   35.4470   29.9370   34.0760 C   0  0  0  0  0  3  0  0  0  0  0  0
   35.5800   30.6360   32.9030 C   0  0  0  0  0  3  0  0  0  0  0  0
   36.2500   30.0100   31.8710 C   0  0  0  0  0  0  0  0  0  0  0  0
   36.4500   30.6120   30.6350 C   0  0  0  0  0  3  0  0  0  0  0  0
   37.1120   29.9940   29.6160 C   0  0  0  0  0  3  0  0  0  0  0  0
   37.6140   28.7050   29.8050 C   0  0  0  0  0  3  0  0  0  0  0  0
   37.4380   28.0630   31.0200 C   0  0  0  0  0  3  0  0  0  0  0  0
   36.7620   28.7390   32.0120 C   0  0  0  0  0  0  0  0  0  0  0  0
   39.8360   23.6880   35.5770 C   0  0  0  0  0  0  0  0  0  0  0  0
   38.6130   24.3620   35.7460 C   0  0  0  0  0  0  0  0  0  0  0  0
   38.0070   24.2440   36.9910 C   0  0  0  0  0  0  0  0  0  0  0  0
   38.6050   23.5030   37.9650 N   0  0  0  0  0  0  0  0  0  0  0  0
   39.7950   22.8690   37.7450 C   0  0  0  0  0  0  0  0  0  0  0  0
   40.4100   22.9610   36.5530 N   0  0  0  0  0  0  0  0  0  0  0  0
   40.2790   23.8060   34.5860 H   0  0  0  0  0  0  0  0  0  0  0  0
   37.0560   24.7470   37.1770 H   0  0  0  0  0  0  0  0  0  0  0  0
   40.2540   22.2850   38.5340 H   0  0  0  0  0  0  0  0  0  0  0  0
  1 20  1  0  0  0  0
  2  1  1  0  0  0  0
  3  2  2  0  0  0  0
  3  4  1  0  0  0  0
  4  5  1  0  0  0  0
  5  1  2  0  0  0  0
  6  2  1  0  0  0  0
  7  3  1  0  0  0  0
  8  4  1  0  0  0  0
  8  9  1  0  0  0  0
  9 10  1  0  0  0  0
 11  9  2  0  0  0  0
 12 11  1  0  0  0  0
 13 18  1  0  0  0  0
 13 12  2  0  0  0  0
 14 13  1  0  0  0  0
 15 16  1  0  0  0  0
 15 14  2  0  0  0  0
 16 17  2  0  0  0  0
 17 18  1  0  0  0  0
 18  8  2  0  0  0  0
 19 20  2  0  0  0  0
 19 24  1  0  0  0  0
 20 21  1  0  0  0  0
 21 26  1  0  0  0  0
 21 22  2  0  0  0  0
 23 22  1  0  0  0  0
 23 27  1  0  0  0  0
 24 23  2  0  0  0  0
 25 19  1  0  0  0  0
M  END
>  <minimizedAffinity>
-5.62369776

$$$$

 OpenBabel03272500453D

 27 30  0  0  0  0  0  0  0  0999 V2000
   36.4010   29.6130   31.8930 C   0  0  0  0  0  0  0  0  0  0  0  0
   36.5740   28.4320   32.6170 C   0  0  0  0  0  0  0  0  0  0  0  0
   36.0140   28.5980   33.8820 C   0  0  0  0  0  0  0  0  0  0  0  0
   35.5170   29.8730   33.8960 N   0  0  0  0  0  0  0  0  0  0  0  0
   35.7650   30.4270   32.7190 N   0  0  0  0  0  0  0  0  0  0  0  0
   37.0410   27.5190   32.3230 H   0  0  0  0  0  0  0  0  0  0  0  0
   35.9630   27.8900   34.7070 H   0  0  0  0  0  0  0  0  0  0  0  0
   34.8490   30.5270   34.9560 C   0  0  0  0  0  0  0  0  0  0  0  0
   35.6760   31.4090   35.6580 C   0  0  0  0  0  0  0  0  0  0  0  0
   36.7350   31.5860   35.4230 H   0  0  0  0  0  0  0  0  0  0  0  0
   35.1470   32.1180   36.7250 C   0  0  0  0  0  3  0  0  0  0  0  0
   33.8410   31.9940   37.1290 C   0  0  0  0  0  3  0  0  0  0  0  0
   33.0450   31.1180   36.4210 C   0  0  0  0  0  0  0  0  0  0  0  0
   31.7070   30.9050   36.7320 C   0  0  0  0  0  3  0  0  0  0  0  0
   30.9200   30.0390   36.0330 C   0  0  0  0  0  3  0  0  0  0  0  0
   31.4630   29.3300   34.9590 C   0  0  0  0  0  3  0  0  0  0  0  0
   32.7930   29.5090   34.6120 C   0  0  0  0  0  3  0  0  0  0  0  0
   33.5380   30.3980   35.3560 C   0  0  0  0  0  0  0  0  0  0  0  0
   37.3020   28.7240   29.7360 C   0  0  0  0  0  0  0  0  0  0  0  0
   36.8630   29.7850   30.5490 C   0  0  0  0  0  0  0  0  0  0  0  0
   36.8920   31.0530   29.9820 C   0  0  0  0  0  0  0  0  0  0  0  0
   37.3330   31.2110   28.7030 N   0  0  0  0  0  0  0  0  0  0  0  0
   37.7490   30.1440   27.9590 C   0  0  0  0  0  0  0  0  0  0  0  0
   37.7340   28.9010   28.4740 N   0  0  0  0  0  0  0  0  0  0  0  0
   37.2630   27.7450   30.2180 H   0  0  0  0  0  0  0  0  0  0  0  0
   36.5630   31.9120   30.5690 H   0  0  0  0  0  0  0  0  0  0  0  0
   38.0950   30.2910   26.9430 H   0  0  0  0  0  0  0  0  0  0  0  0
  1  2  1  0  0  0  0
  1  5  2  0  0  0  0
  2  3  2  0  0  0  0
  3  4  1  0  0  0  0
  3  7  1  0  0  0  0
  4  8  1  0  0  0  0
  5  4  1  0  0  0  0
  6  2  1  0  0  0  0
  8 18  2  0  0  0  0
  8  9  1  0  0  0  0
  9 11  2  0  0  0  0
 10  9  1  0  0  0  0
 11 12  1  0  0  0  0
 13 14  1  0  0  0  0
 13 12  2  0  0  0  0
 15 14  2  0  0  0  0
 16 15  1  0  0  0  0
 17 16  2  0  0  0  0
 17 18  1  0  0  0  0
 18 13  1  0  0  0  0
 19 25  1  0  0  0  0
 19 20  1  0  0  0  0
 20  1  1  0  0  0  0
 21 20  2  0  0  0  0
 21 26  1  0  0  0  0
 22 21  1  0  0  0  0
 23 24  1  0  0  0  0
 23 22  2  0  0  0  0
 24 19  2  0  0  0  0
 27 23  1  0  0  0  0
M  END
>  <minimizedAffinity>
-5.61731958

$$$$

 OpenBabel03272500453D

 27 30  0  0  0  0  0  0  0  0999 V2000
   36.3950   28.1050   32.8050 C   0  0  0  0  0  0  0  0  0  0  0  0
   36.1160   29.0860   31.8520 C   0  0  0  0  0  0  0  0  0  0  0  0
   35.5420   30.1820   32.4950 C   0  0  0  0  0  0  0  0  0  0  0  0
   35.4860   29.8390   33.8190 N   0  0  0  0  0  0  0  0  0  0  0  0
   35.9930   28.6230   33.9530 N   0  0  0  0  0  0  0  0  0  0  0  0
   36.2820   29.0760   30.7990 H   0  0  0  0  0  0  0  0  0  0  0  0
   35.2000   31.1230   32.0700 H   0  0  0  0  0  0  0  0  0  0  0  0
   34.9860   30.6140   34.8900 C   0  0  0  0  0  0  0  0  0  0  0  0
   35.9130   31.5460   35.3660 C   0  0  0  0  0  0  0  0  0  0  0  0
   36.9260   31.6750   34.9620 H   0  0  0  0  0  0  0  0  0  0  0  0
   35.5510   32.3730   36.4180 C   0  0  0  0  0  3  0  0  0  0  0  0
   34.3180   32.3200   37.0190 C   0  0  0  0  0  3  0  0  0  0  0  0
   33.4210   31.3920   36.5320 C   0  0  0  0  0  0  0  0  0  0  0  0
   32.1430   31.2420   37.0560 C   0  0  0  0  0  3  0  0  0  0  0  0
   31.2560   30.3250   36.5740 C   0  0  0  0  0  3  0  0  0  0  0  0
   31.6300   29.4970   35.5140 C   0  0  0  0  0  3  0  0  0  0  0  0
   32.8950   29.6090   34.9600 C   0  0  0  0  0  3  0  0  0  0  0  0
   33.7470   30.5550   35.4890 C   0  0  0  0  0  0  0  0  0  0  0  0
   37.2560   26.4240   31.1650 C   0  0  0  0  0  0  0  0  0  0  0  0
   36.9910   26.8440   32.4810 C   0  0  0  0  0  0  0  0  0  0  0  0
   37.3380   25.9610   33.4960 C   0  0  0  0  0  0  0  0  0  0  0  0
   37.9030   24.7620   33.1830 N   0  0  0  0  0  0  0  0  0  0  0  0
   38.1390   24.4050   31.8850 C   0  0  0  0  0  0  0  0  0  0  0  0
   37.8160   25.2350   30.8770 N   0  0  0  0  0  0  0  0  0  0  0  0
   36.9690   27.1460   30.3980 H   0  0  0  0  0  0  0  0  0  0  0  0
   37.1530   26.2360   34.5360 H   0  0  0  0  0  0  0  0  0  0  0  0
   38.5910   23.4470   31.6580 H   0  0  0  0  0  0  0  0  0  0  0  0
  1  5  2  0  0  0  0
  2  3  2  0  0  0  0
  2  1  1  0  0  0  0
  3  4  1  0  0  0  0
  4  5  1  0  0  0  0
  4  8  1  0  0  0  0
  6  2  1  0  0  0  0
  7  3  1  0  0  0  0
  8  9  2  0  0  0  0
  8 18  1  0  0  0  0
  9 11  1  0  0  0  0
 10  9  1  0  0  0  0
 11 12  2  0  0  0  0
 13 12  1  0  0  0  0
 13 14  1  0  0  0  0
 15 14  2  0  0  0  0
 16 15  1  0  0  0  0
 17 18  1  0  0  0  0
 17 16  2  0  0  0  0
 18 13  2  0  0  0  0
 19 20  1  0  0  0  0
 20  1  1  0  0  0  0
 20 21  2  0  0  0  0
 21 26  1  0  0  0  0
 22 21  1  0  0  0  0
 23 22  2  0  0  0  0
 24 19  2  0  0  0  0
 24 23  1  0  0  0  0
 25 19  1  0  0  0  0
 27 23  1  0  0  0  0
M  END
>  <minimizedAffinity>
-5.56316471

$$$$

 OpenBabel03272500453D

 27 30  0  0  0  0  0  0  0  0999 V2000
   37.1060   26.8880   33.1880 C   0  0  0  0  0  0  0  0  0  0  0  0
   36.7060   25.8020   32.4080 C   0  0  0  0  0  0  0  0  0  0  0  0
   37.4120   24.6730   32.8190 C   0  0  0  0  0  0  0  0  0  0  0  0
   38.2230   25.1020   33.8360 N   0  0  0  0  0  0  0  0  0  0  0  0
   38.0110   26.3970   34.0160 N   0  0  0  0  0  0  0  0  0  0  0  0
   35.9910   25.7620   31.6180 H   0  0  0  0  0  0  0  0  0  0  0  0
   37.3580   23.6550   32.4390 H   0  0  0  0  0  0  0  0  0  0  0  0
   39.1390   24.3340   34.5900 C   0  0  0  0  0  0  0  0  0  0  0  0
   40.2460   23.9210   33.8430 C   0  0  0  0  0  0  0  0  0  0  0  0
   40.4020   24.1600   32.7820 H   0  0  0  0  0  0  0  0  0  0  0  0
   41.2250   23.1590   34.4620 C   0  0  0  0  0  3  0  0  0  0  0  0
   41.1590   22.7870   35.7810 C   0  0  0  0  0  3  0  0  0  0  0  0
   40.0570   23.2070   36.4970 C   0  0  0  0  0  0  0  0  0  0  0  0
   39.8750   22.8950   37.8390 C   0  0  0  0  0  3  0  0  0  0  0  0
   38.7860   23.3090   38.5470 C   0  0  0  0  0  3  0  0  0  0  0  0
   37.8060   24.0770   37.9150 C   0  0  0  0  0  3  0  0  0  0  0  0
   37.9430   24.4120   36.5770 C   0  0  0  0  0  3  0  0  0  0  0  0
   39.0660   23.9640   35.9150 C   0  0  0  0  0  0  0  0  0  0  0  0
   36.6550   28.9380   31.8270 C   0  0  0  0  0  0  0  0  0  0  0  0
   36.5740   28.2080   33.0270 C   0  0  0  0  0  0  0  0  0  0  0  0
   35.9390   28.8350   34.0920 C   0  0  0  0  0  0  0  0  0  0  0  0
   35.4360   30.0910   33.9340 N   0  0  0  0  0  0  0  0  0  0  0  0
   35.5430   30.7540   32.7440 C   0  0  0  0  0  0  0  0  0  0  0  0
   36.1520   30.1780   31.6920 N   0  0  0  0  0  0  0  0  0  0  0  0
   37.1610   28.4110   31.0160 H   0  0  0  0  0  0  0  0  0  0  0  0
   35.8490   28.3140   35.0470 H   0  0  0  0  0  0  0  0  0  0  0  0
   35.1350   31.7520   32.6390 H   0  0  0  0  0  0  0  0  0  0  0  0
  1  5  2  0  0  0  0
  2  3  2  0  0  0  0
  2  1  1  0  0  0  0
  3  4  1  0  0  0  0
  4  5  1  0  0  0  0
  4  8  1  0  0  0  0
  6  2  1  0  0  0  0
  7  3  1  0  0  0  0
  8 18  1  0  0  0  0
  9 11  1  0  0  0  0
  9  8  2  0  0  0  0
 10  9  1  0  0  0  0
 11 12  2  0  0  0  0
 12 13  1  0  0  0  0
 13 14  1  0  0  0  0
 14 15  2  0  0  0  0
 16 15  1  0  0  0  0
 17 16  2  0  0  0  0
 18 13  2  0  0  0  0
 18 17  1  0  0  0  0
 19 20  1  0  0  0  0
 20  1  1  0  0  0  0
 20 21  2  0  0  0  0
 21 26  1  0  0  0  0
 22 21  1  0  0  0  0
 23 22  2  0  0  0  0
 24 19  2  0  0  0  0
 24 23  1  0  0  0  0
 25 19  1  0  0  0  0
 27 23  1  0  0  0  0
M  END
>  <minimizedAffinity>
-5.52704239

$$$$

 OpenBabel03272500453D

 27 30  0  0  0  0  0  0  0  0999 V2000
   36.1490   27.7190   31.5230 C   0  0  0  0  0  0  0  0  0  0  0  0
   36.2920   28.9370   30.8560 C   0  0  0  0  0  0  0  0  0  0  0  0
   35.5020   29.8910   31.4950 C   0  0  0  0  0  0  0  0  0  0  0  0
   34.8990   29.2290   32.5310 N   0  0  0  0  0  0  0  0  0  0  0  0
   35.3050   27.9690   32.5090 N   0  0  0  0  0  0  0  0  0  0  0  0
   36.8820   29.1770   30.0010 H   0  0  0  0  0  0  0  0  0  0  0  0
   35.3670   30.9430   31.2510 H   0  0  0  0  0  0  0  0  0  0  0  0
   33.9970   29.7570   33.4830 C   0  0  0  0  0  0  0  0  0  0  0  0
   32.6640   29.4470   33.1990 C   0  0  0  0  0  0  0  0  0  0  0  0
   32.3360   28.8570   32.3320 H   0  0  0  0  0  0  0  0  0  0  0  0
   31.6730   29.9040   34.0540 C   0  0  0  0  0  3  0  0  0  0  0  0
   31.9400   30.6520   35.1730 C   0  0  0  0  0  3  0  0  0  0  0  0
   33.2630   30.9450   35.4320 C   0  0  0  0  0  0  0  0  0  0  0  0
   33.6610   31.6940   36.5330 C   0  0  0  0  0  3  0  0  0  0  0  0
   34.9690   31.9840   36.7890 C   0  0  0  0  0  3  0  0  0  0  0  0
   35.9580   31.5180   35.9220 C   0  0  0  0  0  3  0  0  0  0  0  0
   35.6100   30.7690   34.8100 C   0  0  0  0  0  3  0  0  0  0  0  0
   34.2730   30.5080   34.6040 C   0  0  0  0  0  0  0  0  0  0  0  0
   36.2310   25.2480   31.1490 C   0  0  0  0  0  0  0  0  0  0  0  0
   36.8270   26.5220   31.1250 C   0  0  0  0  0  0  0  0  0  0  0  0
   38.1430   26.5830   30.6870 C   0  0  0  0  0  0  0  0  0  0  0  0
   38.7830   25.4410   30.3110 N   0  0  0  0  0  0  0  0  0  0  0  0
   38.1560   24.2280   30.3540 C   0  0  0  0  0  0  0  0  0  0  0  0
   36.8810   24.1310   30.7730 N   0  0  0  0  0  0  0  0  0  0  0  0
   35.1970   25.2430   31.4990 H   0  0  0  0  0  0  0  0  0  0  0  0
   38.6540   27.5470   30.6490 H   0  0  0  0  0  0  0  0  0  0  0  0
   38.6820   23.3320   30.0490 H   0  0  0  0  0  0  0  0  0  0  0  0
  1  5  2  0  0  0  0
  2  3  2  0  0  0  0
  2  1  1  0  0  0  0
  3  4  1  0  0  0  0
  4  8  1  0  0  0  0
  5  4  1  0  0  0  0
  6  2  1  0  0  0  0
  7  3  1  0  0  0  0
  8 18  1  0  0  0  0
  9  8  2  0  0  0  0
  9 11  1  0  0  0  0
 10  9  1  0  0  0  0
 11 12  2  0  0  0  0
 12 13  1  0  0  0  0
 13 14  1  0  0  0  0
 14 15  2  0  0  0  0
 16 15  1  0  0  0  0
 17 16  2  0  0  0  0
 18 17  1  0  0  0  0
 18 13  2  0  0  0  0
 19 25  1  0  0  0  0
 20 19  1  0  0  0  0
 20  1  1  0  0  0  0
 21 20  2  0  0  0  0
 22 23  2  0  0  0  0
 22 21  1  0  0  0  0
 23 24  1  0  0  0  0
 24 19  2  0  0  0  0
 26 21  1  0  0  0  0
 27 23  1  0  0  0  0
M  END
>  <minimizedAffinity>
-5.44718122

$$$$

 OpenBabel03272500453D

 27 30  0  0  0  0  0  0  0  0999 V2000
   37.8740   25.4140   32.5210 C   0  0  0  0  0  0  0  0  0  0  0  0
   37.4530   24.1200   32.2080 C   0  0  0  0  0  0  0  0  0  0  0  0
   37.6480   23.3060   33.3220 C   0  0  0  0  0  0  0  0  0  0  0  0
   38.1830   24.1240   34.2810 N   0  0  0  0  0  0  0  0  0  0  0  0
   38.2970   25.3400   33.7710 N   0  0  0  0  0  0  0  0  0  0  0  0
   37.0420   23.7420   31.2990 H   0  0  0  0  0  0  0  0  0  0  0  0
   37.4340   22.2460   33.4410 H   0  0  0  0  0  0  0  0  0  0  0  0
   38.5610   23.7750   35.5980 C   0  0  0  0  0  0  0  0  0  0  0  0
   37.6890   24.2810   36.5660 C   0  0  0  0  0  0  0  0  0  0  0  0
   36.8010   24.8880   36.3440 H   0  0  0  0  0  0  0  0  0  0  0  0
   37.9440   24.0130   37.9030 C   0  0  0  0  0  3  0  0  0  0  0  0
   39.0180   23.2700   38.3240 C   0  0  0  0  0  3  0  0  0  0  0  0
   39.8640   22.7820   37.3490 C   0  0  0  0  0  0  0  0  0  0  0  0
   40.9850   22.0170   37.6480 C   0  0  0  0  0  3  0  0  0  0  0  0
   41.8220   21.5340   36.6850 C   0  0  0  0  0  3  0  0  0  0  0  0
   41.5560   21.8090   35.3430 C   0  0  0  0  0  3  0  0  0  0  0  0
   40.4500   22.5680   34.9960 C   0  0  0  0  0  3  0  0  0  0  0  0
   39.6420   23.0280   36.0130 C   0  0  0  0  0  0  0  0  0  0  0  0
   38.9490   27.1720   31.1040 C   0  0  0  0  0  0  0  0  0  0  0  0
   37.8130   26.5050   31.5960 C   0  0  0  0  0  0  0  0  0  0  0  0
   36.5820   26.9580   31.1380 C   0  0  0  0  0  0  0  0  0  0  0  0
   36.5290   27.9960   30.2590 N   0  0  0  0  0  0  0  0  0  0  0  0
   37.6660   28.6080   29.8130 C   0  0  0  0  0  0  0  0  0  0  0  0
   38.8760   28.1970   30.2350 N   0  0  0  0  0  0  0  0  0  0  0  0
   39.8960   26.7870   31.4880 H   0  0  0  0  0  0  0  0  0  0  0  0
   35.6670   26.4760   31.4880 H   0  0  0  0  0  0  0  0  0  0  0  0
   37.6020   29.4320   29.1130 H   0  0  0  0  0  0  0  0  0  0  0  0
  1  5  2  0  0  0  0
  2  1  1  0  0  0  0
  2  3  2  0  0  0  0
  3  7  1  0  0  0  0
  3  4  1  0  0  0  0
  4  8  1  0  0  0  0
  5  4  1  0  0  0  0
  6  2  1  0  0  0  0
  8 18  2  0  0  0  0
  8  9  1  0  0  0  0
  9 11  2  0  0  0  0
 10  9  1  0  0  0  0
 11 12  1  0  0  0  0
 13 14  1  0  0  0  0
 13 12  2  0  0  0  0
 15 14  2  0  0  0  0
 16 15  1  0  0  0  0
 17 16  2  0  0  0  0
 17 18  1  0  0  0  0
 18 13  1  0  0  0  0
 19 25  1  0  0  0  0
 19 20  1  0  0  0  0
 20  1  1  0  0  0  0
 21 26  1  0  0  0  0
 21 20  2  0  0  0  0
 22 21  1  0  0  0  0
 23 24  1  0  0  0  0
 23 22  2  0  0  0  0
 24 19  2  0  0  0  0
 27 23  1  0  0  0  0
M  END
>  <minimizedAffinity>
-5.43377304

$$$$

 OpenBabel03272500453D

 27 30  0  0  0  0  0  0  0  0999 V2000
   39.0050   25.7330   35.1220 C   0  0  0  0  0  0  0  0  0  0  0  0
   40.2040   26.3570   34.7760 C   0  0  0  0  0  0  0  0  0  0  0  0
   39.9720   27.1970   33.6880 C   0  0  0  0  0  0  0  0  0  0  0  0
   38.6410   27.0610   33.4010 N   0  0  0  0  0  0  0  0  0  0  0  0
   38.1180   26.2000   34.2600 N   0  0  0  0  0  0  0  0  0  0  0  0
   41.1710   26.2610   35.2170 H   0  0  0  0  0  0  0  0  0  0  0  0
   40.6730   27.8370   33.1550 H   0  0  0  0  0  0  0  0  0  0  0  0
   37.9090   27.7070   32.3780 C   0  0  0  0  0  0  0  0  0  0  0  0
   38.4500   27.4950   31.1070 C   0  0  0  0  0  0  0  0  0  0  0  0
   39.3470   26.8940   30.9070 H   0  0  0  0  0  0  0  0  0  0  0  0
   37.8280   28.0740   30.0100 C   0  0  0  0  0  3  0  0  0  0  0  0
   36.7010   28.8490   30.1140 C   0  0  0  0  0  3  0  0  0  0  0  0
   36.1860   29.0430   31.3790 C   0  0  0  0  0  0  0  0  0  0  0  0
   35.0500   29.8080   31.6150 C   0  0  0  0  0  3  0  0  0  0  0  0
   34.5420   30.0000   32.8650 C   0  0  0  0  0  3  0  0  0  0  0  0
   35.1740   29.4130   33.9620 C   0  0  0  0  0  3  0  0  0  0  0  0
   36.3110   28.6430   33.7770 C   0  0  0  0  0  3  0  0  0  0  0  0
   36.7780   28.4850   32.4900 C   0  0  0  0  0  0  0  0  0  0  0  0
   37.9950   24.9650   37.2770 C   0  0  0  0  0  0  0  0  0  0  0  0
   38.8880   24.8010   36.2030 C   0  0  0  0  0  0  0  0  0  0  0  0
   39.6830   23.6620   36.2250 C   0  0  0  0  0  0  0  0  0  0  0  0
   39.5690   22.7790   37.2560 N   0  0  0  0  0  0  0  0  0  0  0  0
   38.6840   22.9880   38.2750 C   0  0  0  0  0  0  0  0  0  0  0  0
   37.8970   24.0800   38.2860 N   0  0  0  0  0  0  0  0  0  0  0  0
   37.3890   25.8710   37.2220 H   0  0  0  0  0  0  0  0  0  0  0  0
   40.3940   23.4860   35.4160 H   0  0  0  0  0  0  0  0  0  0  0  0
   38.6070   22.2730   39.0850 H   0  0  0  0  0  0  0  0  0  0  0  0
  1 20  1  0  0  0  0
  2  1  1  0  0  0  0
  2  6  1  0  0  0  0
  3  2  2  0  0  0  0
  4  3  1  0  0  0  0
  4  5  1  0  0  0  0
  5  1  2  0  0  0  0
  7  3  1  0  0  0  0
  8 18  1  0  0  0  0
  8  4  1  0  0  0  0
  9  8  2  0  0  0  0
 10  9  1  0  0  0  0
 11 12  2  0  0  0  0
 11  9  1  0  0  0  0
 12 13  1  0  0  0  0
 13 14  2  0  0  0  0
 13 18  1  0  0  0  0
 14 15  1  0  0  0  0
 15 16  2  0  0  0  0
 17 16  1  0  0  0  0
 18 17  2  0  0  0  0
 19 24  1  0  0  0  0
 20 21  1  0  0  0  0
 20 19  2  0  0  0  0
 21 22  2  0  0  0  0
 22 23  1  0  0  0  0
 23 24  2  0  0  0  0
 23 27  1  0  0  0  0
 25 19  1  0  0  0  0
 26 21  1  0  0  0  0
M  END
>  <minimizedAffinity>
-5.36534834

$$$$

 OpenBabel03272500453D

 27 30  0  0  0  0  0  0  0  0999 V2000
   36.3580   29.5540   30.8020 C   0  0  0  0  0  0  0  0  0  0  0  0
   36.6260   28.3310   31.4190 C   0  0  0  0  0  0  0  0  0  0  0  0
   35.8230   28.2180   32.5520 C   0  0  0  0  0  0  0  0  0  0  0  0
   35.0890   29.3730   32.5950 N   0  0  0  0  0  0  0  0  0  0  0  0
   35.4340   30.1210   31.5580 N   0  0  0  0  0  0  0  0  0  0  0  0
   37.3100   27.5640   31.1350 H   0  0  0  0  0  0  0  0  0  0  0  0
   35.7630   27.4030   33.2710 H   0  0  0  0  0  0  0  0  0  0  0  0
   34.1220   29.7450   33.5570 C   0  0  0  0  0  0  0  0  0  0  0  0
   32.8450   29.2600   33.2600 C   0  0  0  0  0  0  0  0  0  0  0  0
   32.6020   28.6530   32.3770 H   0  0  0  0  0  0  0  0  0  0  0  0
   31.8000   29.5530   34.1230 C   0  0  0  0  0  3  0  0  0  0  0  0
   31.9600   30.3000   35.2620 C   0  0  0  0  0  3  0  0  0  0  0  0
   33.2300   30.7680   35.5340 C   0  0  0  0  0  0  0  0  0  0  0  0
   33.5200   31.5350   36.6550 C   0  0  0  0  0  3  0  0  0  0  0  0
   34.7740   31.9970   36.9240 C   0  0  0  0  0  3  0  0  0  0  0  0
   35.8190   31.6970   36.0490 C   0  0  0  0  0  3  0  0  0  0  0  0
   35.5790   30.9360   34.9160 C   0  0  0  0  0  3  0  0  0  0  0  0
   34.2900   30.4970   34.6990 C   0  0  0  0  0  0  0  0  0  0  0  0
   37.7810   29.1430   28.7870 C   0  0  0  0  0  0  0  0  0  0  0  0
   37.0140   29.9910   29.6060 C   0  0  0  0  0  0  0  0  0  0  0  0
   36.9110   31.3160   29.2030 C   0  0  0  0  0  0  0  0  0  0  0  0
   37.5380   31.7260   28.0650 N   0  0  0  0  0  0  0  0  0  0  0  0
   38.2710   30.8590   27.3060 C   0  0  0  0  0  0  0  0  0  0  0  0
   38.3930   29.5680   27.6660 N   0  0  0  0  0  0  0  0  0  0  0  0
   37.8370   28.1110   29.1380 H   0  0  0  0  0  0  0  0  0  0  0  0
   36.3280   32.0170   29.8020 H   0  0  0  0  0  0  0  0  0  0  0  0
   38.7610   31.2050   26.4040 H   0  0  0  0  0  0  0  0  0  0  0  0
  1  2  1  0  0  0  0
  1  5  2  0  0  0  0
  2  3  2  0  0  0  0
  3  4  1  0  0  0  0
  3  7  1  0  0  0  0
  4  8  1  0  0  0  0
  5  4  1  0  0  0  0
  6  2  1  0  0  0  0
  8 18  1  0  0  0  0
  9  8  2  0  0  0  0
  9 11  1  0  0  0  0
 10  9  1  0  0  0  0
 11 12  2  0  0  0  0
 12 13  1  0  0  0  0
 13 14  1  0  0  0  0
 14 15  2  0  0  0  0
 16 15  1  0  0  0  0
 17 16  2  0  0  0  0
 18 17  1  0  0  0  0
 18 13  2  0  0  0  0
 19 25  1  0  0  0  0
 19 20  1  0  0  0  0
 20  1  1  0  0  0  0
 21 20  2  0  0  0  0
 21 26  1  0  0  0  0
 22 21  1  0  0  0  0
 23 24  1  0  0  0  0
 23 22  2  0  0  0  0
 24 19  2  0  0  0  0
 27 23  1  0  0  0  0
M  END
>  <minimizedAffinity>
-5.35325384

$$$$

 OpenBabel03272500453D

 27 30  0  0  0  0  0  0  0  0999 V2000
   36.2840   28.2630   33.0000 C   0  0  0  0  0  0  0  0  0  0  0  0
   35.5970   28.9370   31.9890 C   0  0  0  0  0  0  0  0  0  0  0  0
   34.5800   29.6930   32.5690 C   0  0  0  0  0  0  0  0  0  0  0  0
   34.6740   29.4590   33.9140 N   0  0  0  0  0  0  0  0  0  0  0  0
   35.6790   28.6210   34.1190 N   0  0  0  0  0  0  0  0  0  0  0  0
   35.7610   28.9270   30.9350 H   0  0  0  0  0  0  0  0  0  0  0  0
   33.8500   30.3410   32.0880 H   0  0  0  0  0  0  0  0  0  0  0  0
   33.8640   29.9950   34.9410 C   0  0  0  0  0  0  0  0  0  0  0  0
   32.7030   29.2490   35.1630 C   0  0  0  0  0  0  0  0  0  0  0  0
   32.4330   28.3410   34.6060 H   0  0  0  0  0  0  0  0  0  0  0  0
   31.8170   29.6650   36.1450 C   0  0  0  0  0  3  0  0  0  0  0  0
   32.0270   30.7810   36.9160 C   0  0  0  0  0  3  0  0  0  0  0  0
   33.1800   31.5000   36.6780 C   0  0  0  0  0  0  0  0  0  0  0  0
   33.5050   32.6480   37.3910 C   0  0  0  0  0  3  0  0  0  0  0  0
   34.6450   33.3590   37.1570 C   0  0  0  0  0  3  0  0  0  0  0  0
   35.5310   32.9310   36.1660 C   0  0  0  0  0  3  0  0  0  0  0  0
   35.2490   31.7930   35.4280 C   0  0  0  0  0  3  0  0  0  0  0  0
   34.0820   31.1160   35.7110 C   0  0  0  0  0  0  0  0  0  0  0  0
   38.3240   27.5970   31.7150 C   0  0  0  0  0  0  0  0  0  0  0  0
   37.3940   27.3930   32.7500 C   0  0  0  0  0  0  0  0  0  0  0  0
   37.5950   26.2760   33.5520 C   0  0  0  0  0  0  0  0  0  0  0  0
   38.6510   25.4520   33.3100 N   0  0  0  0  0  0  0  0  0  0  0  0
   39.5250   25.6980   32.2890 C   0  0  0  0  0  0  0  0  0  0  0  0
   39.3620   26.7700   31.4920 N   0  0  0  0  0  0  0  0  0  0  0  0
   38.1320   28.4840   31.1080 H   0  0  0  0  0  0  0  0  0  0  0  0
   36.9020   26.0700   34.3700 H   0  0  0  0  0  0  0  0  0  0  0  0
   40.3590   25.0310   32.1140 H   0  0  0  0  0  0  0  0  0  0  0  0
  1  5  2  0  0  0  0
  2  3  2  0  0  0  0
  2  1  1  0  0  0  0
  3  4  1  0  0  0  0
  4  5  1  0  0  0  0
  4  8  1  0  0  0  0
  6  2  1  0  0  0  0
  7  3  1  0  0  0  0
  8  9  2  0  0  0  0
  8 18  1  0  0  0  0
  9 11  1  0  0  0  0
 10  9  1  0  0  0  0
 11 12  2  0  0  0  0
 13 12  1  0  0  0  0
 13 14  1  0  0  0  0
 15 14  2  0  0  0  0
 16 15  1  0  0  0  0
 17 18  1  0  0  0  0
 17 16  2  0  0  0  0
 18 13  2  0  0  0  0
 19 20  1  0  0  0  0
 20  1  1  0  0  0  0
 20 21  2  0  0  0  0
 21 26  1  0  0  0  0
 22 21  1  0  0  0  0
 23 22  2  0  0  0  0
 24 19  2  0  0  0  0
 24 23  1  0  0  0  0
 25 19  1  0  0  0  0
 27 23  1  0  0  0  0
M  END
>  <minimizedAffinity>
-5.3481741

$$$$
