
 OpenBabel03272510123D

 37 41  0  0  0  0  0  0  0  0999 V2000
   37.2500   27.2390   31.7900 O   0  0  0  0  0  0  0  0  0  0  0  0
   36.2040   23.1670   32.0420 C   0  0  0  0  0  0  0  0  0  0  0  0
   35.4340   24.0450   31.3610 C   0  0  0  0  0  0  0  0  0  0  0  0
   35.7010   25.3870   31.2300 C   0  0  0  0  0  0  0  0  0  0  0  0
   36.8210   25.9140   31.8160 C   0  0  0  0  0  0  0  0  0  0  0  0
   37.6200   25.0160   32.5200 C   0  0  0  0  0  0  0  0  0  0  0  0
   37.3170   23.7060   32.6210 N   0  0  0  0  0  0  0  0  0  0  0  0
   34.5310   23.7110   30.8670 H   0  0  0  0  0  0  0  0  0  0  0  0
   35.0860   26.0920   30.6850 H   0  0  0  0  0  0  0  0  0  0  0  0
   38.5480   25.2710   33.0470 H   0  0  0  0  0  0  0  0  0  0  0  0
   35.7460   21.1300   33.4150 C   0  0  0  0  0  0  0  0  0  0  0  0
   35.9250   21.7670   32.1800 C   0  0  0  0  0  0  0  0  0  0  0  0
   35.8190   20.9710   31.0700 C   0  0  0  0  0  0  0  0  0  0  0  0
   35.5520   19.6300   31.2130 N   0  0  0  0  0  0  0  0  0  0  0  0
   35.3890   19.0760   32.4310 C   0  0  0  0  0  0  0  0  0  0  0  0
   35.4850   19.8200   33.5390 N   0  0  0  0  0  0  0  0  0  0  0  0
   35.8190   21.7130   34.3190 H   0  0  0  0  0  0  0  0  0  0  0  0
   35.9330   21.3230   30.0510 H   0  0  0  0  0  0  0  0  0  0  0  0
   35.1810   18.0160   32.4710 H   0  0  0  0  0  0  0  0  0  0  0  0
   36.5000   28.2630   32.3330 C   0  0  0  0  0  0  0  0  0  0  0  0
   35.8530   29.0450   31.3950 C   0  0  0  0  0  0  0  0  0  0  0  0
   35.1280   30.0440   32.0590 C   0  0  0  0  0  0  0  0  0  0  0  0
   35.3670   29.8250   33.3720 N   0  0  0  0  0  0  0  0  0  0  0  0
   36.1630   28.7910   33.5090 N   0  0  0  0  0  0  0  0  0  0  0  0
   35.7700   29.0750   30.2970 H   0  0  0  0  0  0  0  0  0  0  0  0
   34.4890   30.8610   31.7500 H   0  0  0  0  0  0  0  0  0  0  0  0
   34.9390   30.4740   34.5650 C   0  0  0  0  0  0  0  0  0  0  0  0
   35.7410   31.3460   35.2690 C   0  0  0  0  0  0  0  0  0  0  0  0
   36.7520   31.5430   34.8890 H   0  0  0  0  0  0  0  0  0  0  0  0
   35.3790   32.0000   36.4260 C   0  0  0  0  0  3  0  0  0  0  0  0
   34.1060   31.7490   36.9010 C   0  0  0  0  0  3  0  0  0  0  0  0
   33.2310   30.8800   36.2480 C   0  0  0  0  0  0  0  0  0  0  0  0
   31.9730   30.6670   36.7670 C   0  0  0  0  0  3  0  0  0  0  0  0
   31.1690   29.7870   36.0540 C   0  0  0  0  0  3  0  0  0  0  0  0
   31.5210   29.1270   34.8950 C   0  0  0  0  0  3  0  0  0  0  0  0
   32.7790   29.4040   34.4650 C   0  0  0  0  0  3  0  0  0  0  0  0
   33.6740   30.2560   35.0820 C   0  0  0  0  0  0  0  0  0  0  0  0
  1  5  1  0  0  0  0
  1 20  1  0  0  0  0
  2 12  1  0  0  0  0
  2  7  1  0  0  0  0
  3  2  2  0  0  0  0
  4  3  1  0  0  0  0
  4  5  2  0  0  0  0
  5  6  1  0  0  0  0
  6  7  2  0  0  0  0
  6 10  1  0  0  0  0
  8  3  1  0  0  0  0
  9  4  1  0  0  0  0
 11 16  1  0  0  0  0
 11 17  1  0  0  0  0
 12 11  2  0  0  0  0
 13 14  2  0  0  0  0
 13 12  1  0  0  0  0
 14 15  1  0  0  0  0
 15 19  1  0  0  0  0
 15 16  2  0  0  0  0
 18 13  1  0  0  0  0
 20 24  2  0  0  0  0
 21 22  2  0  0  0  0
 21 20  1  0  0  0  0
 22 23  1  0  0  0  0
 23 24  1  0  0  0  0
 23 27  1  0  0  0  0
 25 21  1  0  0  0  0
 26 22  1  0  0  0  0
 27 37  2  0  0  0  0
 27 28  1  0  0  0  0
 28 30  2  0  0  0  0
 29 28  1  0  0  0  0
 30 31  1  0  0  0  0
 32 33  1  0  0  0  0
 32 31  2  0  0  0  0
 34 33  2  0  0  0  0
 35 34  1  0  0  0  0
 36 35  2  0  0  0  0
 36 37  1  0  0  0  0
 37 32  1  0  0  0  0
M  END
>  <minimizedAffinity>
-6.90852118

$$$$

 OpenBabel03272510123D

 37 41  0  0  0  0  0  0  0  0999 V2000
   36.9270   27.0020   31.0990 O   0  0  0  0  0  0  0  0  0  0  0  0
   36.1320   22.9150   31.7380 C   0  0  0  0  0  0  0  0  0  0  0  0
   35.2120   23.7250   31.1670 C   0  0  0  0  0  0  0  0  0  0  0  0
   35.3900   25.0660   30.9230 C   0  0  0  0  0  0  0  0  0  0  0  0
   36.5710   25.6650   31.2680 C   0  0  0  0  0  0  0  0  0  0  0  0
   37.5250   24.8380   31.8580 C   0  0  0  0  0  0  0  0  0  0  0  0
   37.3050   23.5260   32.0770 N   0  0  0  0  0  0  0  0  0  0  0  0
   34.2510   23.3300   30.8640 H   0  0  0  0  0  0  0  0  0  0  0  0
   34.6540   25.7160   30.4660 H   0  0  0  0  0  0  0  0  0  0  0  0
   38.5200   25.1560   32.1930 H   0  0  0  0  0  0  0  0  0  0  0  0
   35.6390   20.9920   33.2560 C   0  0  0  0  0  0  0  0  0  0  0  0
   35.9470   21.5160   31.9930 C   0  0  0  0  0  0  0  0  0  0  0  0
   36.0700   20.6070   30.9770 C   0  0  0  0  0  0  0  0  0  0  0  0
   35.8910   19.2670   31.2330 N   0  0  0  0  0  0  0  0  0  0  0  0
   35.5950   18.8250   32.4710 C   0  0  0  0  0  0  0  0  0  0  0  0
   35.4670   19.6820   33.4910 N   0  0  0  0  0  0  0  0  0  0  0  0
   35.5310   21.6680   34.0900 H   0  0  0  0  0  0  0  0  0  0  0  0
   36.3050   20.8630   29.9500 H   0  0  0  0  0  0  0  0  0  0  0  0
   35.4670   17.7600   32.6010 H   0  0  0  0  0  0  0  0  0  0  0  0
   36.1350   28.0350   31.5570 C   0  0  0  0  0  0  0  0  0  0  0  0
   36.2640   29.2060   30.8350 C   0  0  0  0  0  0  0  0  0  0  0  0
   35.4180   30.1760   31.3880 C   0  0  0  0  0  0  0  0  0  0  0  0
   34.8110   29.5510   32.4220 N   0  0  0  0  0  0  0  0  0  0  0  0
   35.2390   28.3140   32.5030 N   0  0  0  0  0  0  0  0  0  0  0  0
   36.8460   29.5510   29.9660 H   0  0  0  0  0  0  0  0  0  0  0  0
   35.1890   31.2100   31.1650 H   0  0  0  0  0  0  0  0  0  0  0  0
   33.8480   29.9660   33.3860 C   0  0  0  0  0  0  0  0  0  0  0  0
   32.4980   29.7310   33.2400 C   0  0  0  0  0  0  0  0  0  0  0  0
   32.1570   29.2020   32.3410 H   0  0  0  0  0  0  0  0  0  0  0  0
   31.5240   30.1090   34.1390 C   0  0  0  0  0  3  0  0  0  0  0  0
   31.9560   30.7750   35.2690 C   0  0  0  0  0  3  0  0  0  0  0  0
   33.3050   31.0520   35.4940 C   0  0  0  0  0  0  0  0  0  0  0  0
   33.6800   31.7200   36.6390 C   0  0  0  0  0  3  0  0  0  0  0  0
   35.0420   31.9540   36.7810 C   0  0  0  0  0  3  0  0  0  0  0  0
   36.0250   31.5800   35.8870 C   0  0  0  0  0  3  0  0  0  0  0  0
   35.5540   30.9290   34.7930 C   0  0  0  0  0  3  0  0  0  0  0  0
   34.2300   30.6370   34.5350 C   0  0  0  0  0  0  0  0  0  0  0  0
  1  5  1  0  0  0  0
  1 20  1  0  0  0  0
  2 12  1  0  0  0  0
  2  7  1  0  0  0  0
  3  2  2  0  0  0  0
  4  3  1  0  0  0  0
  4  5  2  0  0  0  0
  5  6  1  0  0  0  0
  6  7  2  0  0  0  0
  6 10  1  0  0  0  0
  8  3  1  0  0  0  0
  9  4  1  0  0  0  0
 11 16  1  0  0  0  0
 11 17  1  0  0  0  0
 12 11  2  0  0  0  0
 13 14  2  0  0  0  0
 13 12  1  0  0  0  0
 14 15  1  0  0  0  0
 15 19  1  0  0  0  0
 15 16  2  0  0  0  0
 18 13  1  0  0  0  0
 20 24  2  0  0  0  0
 21 22  2  0  0  0  0
 21 20  1  0  0  0  0
 22 23  1  0  0  0  0
 23 24  1  0  0  0  0
 23 27  1  0  0  0  0
 25 21  1  0  0  0  0
 26 22  1  0  0  0  0
 27 37  1  0  0  0  0
 28 27  2  0  0  0  0
 28 30  1  0  0  0  0
 29 28  1  0  0  0  0
 30 31  2  0  0  0  0
 31 32  1  0  0  0  0
 32 33  1  0  0  0  0
 33 34  2  0  0  0  0
 35 34  1  0  0  0  0
 36 35  2  0  0  0  0
 37 36  1  0  0  0  0
 37 32  2  0  0  0  0
M  END
>  <minimizedAffinity>
-6.89638996

$$$$

 OpenBabel03272510123D

 37 41  0  0  0  0  0  0  0  0999 V2000
   37.5610   27.6340   31.9890 O   0  0  0  0  0  0  0  0  0  0  0  0
   39.3420   24.9940   34.7460 C   0  0  0  0  0  0  0  0  0  0  0  0
   39.9100   26.1860   34.4520 C   0  0  0  0  0  0  0  0  0  0  0  0
   39.3970   27.1030   33.5670 C   0  0  0  0  0  0  0  0  0  0  0  0
   38.2260   26.8300   32.9140 C   0  0  0  0  0  0  0  0  0  0  0  0
   37.6330   25.6040   33.2100 C   0  0  0  0  0  0  0  0  0  0  0  0
   38.1740   24.7360   34.0870 N   0  0  0  0  0  0  0  0  0  0  0  0
   40.8380   26.4790   34.9260 H   0  0  0  0  0  0  0  0  0  0  0  0
   39.8500   28.0580   33.3310 H   0  0  0  0  0  0  0  0  0  0  0  0
   36.6970   25.2310   32.7770 H   0  0  0  0  0  0  0  0  0  0  0  0
   41.1630   23.4900   35.5620 C   0  0  0  0  0  0  0  0  0  0  0  0
   39.8770   24.0360   35.6700 C   0  0  0  0  0  0  0  0  0  0  0  0
   39.1250   23.6030   36.7280 C   0  0  0  0  0  0  0  0  0  0  0  0
   39.6470   22.6840   37.6080 N   0  0  0  0  0  0  0  0  0  0  0  0
   40.8940   22.1950   37.4500 C   0  0  0  0  0  0  0  0  0  0  0  0
   41.6600   22.5930   36.4280 N   0  0  0  0  0  0  0  0  0  0  0  0
   41.7960   23.7990   34.7450 H   0  0  0  0  0  0  0  0  0  0  0  0
   38.1150   23.9360   36.9400 H   0  0  0  0  0  0  0  0  0  0  0  0
   41.2410   21.4760   38.1780 H   0  0  0  0  0  0  0  0  0  0  0  0
   36.4890   28.4270   32.3460 C   0  0  0  0  0  0  0  0  0  0  0  0
   36.1200   29.3430   31.3780 C   0  0  0  0  0  0  0  0  0  0  0  0
   35.0290   30.0860   31.8490 C   0  0  0  0  0  0  0  0  0  0  0  0
   34.7840   29.5890   33.0830 N   0  0  0  0  0  0  0  0  0  0  0  0
   35.6390   28.6310   33.3520 N   0  0  0  0  0  0  0  0  0  0  0  0
   36.4580   29.6200   30.3680 H   0  0  0  0  0  0  0  0  0  0  0  0
   34.4210   30.8890   31.4530 H   0  0  0  0  0  0  0  0  0  0  0  0
   33.8230   29.8980   34.0870 C   0  0  0  0  0  0  0  0  0  0  0  0
   32.5570   29.3520   34.1020 C   0  0  0  0  0  0  0  0  0  0  0  0
   32.2850   28.6510   33.3030 H   0  0  0  0  0  0  0  0  0  0  0  0
   31.5900   29.6160   35.0480 C   0  0  0  0  0  3  0  0  0  0  0  0
   31.9360   30.4990   36.0520 C   0  0  0  0  0  3  0  0  0  0  0  0
   33.1960   31.0950   36.1100 C   0  0  0  0  0  0  0  0  0  0  0  0
   33.4870   31.9690   37.1350 C   0  0  0  0  0  3  0  0  0  0  0  0
   34.7640   32.5170   37.1140 C   0  0  0  0  0  3  0  0  0  0  0  0
   35.7400   32.2600   36.1730 C   0  0  0  0  0  3  0  0  0  0  0  0
   35.3560   31.3870   35.2060 C   0  0  0  0  0  3  0  0  0  0  0  0
   34.1200   30.7770   35.1150 C   0  0  0  0  0  0  0  0  0  0  0  0
  1 20  1  0  0  0  0
  1  5  1  0  0  0  0
  2 12  1  0  0  0  0
  3  2  1  0  0  0  0
  3  8  1  0  0  0  0
  4  3  2  0  0  0  0
  5  6  2  0  0  0  0
  5  4  1  0  0  0  0
  6  7  1  0  0  0  0
  7  2  2  0  0  0  0
  9  4  1  0  0  0  0
 10  6  1  0  0  0  0
 11 12  2  0  0  0  0
 11 16  1  0  0  0  0
 12 13  1  0  0  0  0
 13 18  1  0  0  0  0
 13 14  2  0  0  0  0
 15 14  1  0  0  0  0
 15 19  1  0  0  0  0
 16 15  2  0  0  0  0
 17 11  1  0  0  0  0
 20 24  2  0  0  0  0
 21 22  2  0  0  0  0
 21 20  1  0  0  0  0
 22 23  1  0  0  0  0
 23 24  1  0  0  0  0
 23 27  1  0  0  0  0
 25 21  1  0  0  0  0
 26 22  1  0  0  0  0
 27 28  2  0  0  0  0
 27 37  1  0  0  0  0
 28 30  1  0  0  0  0
 29 28  1  0  0  0  0
 30 31  2  0  0  0  0
 31 32  1  0  0  0  0
 32 33  1  0  0  0  0
 34 33  2  0  0  0  0
 35 34  1  0  0  0  0
 36 35  2  0  0  0  0
 37 36  1  0  0  0  0
 37 32  2  0  0  0  0
M  END
>  <minimizedAffinity>
-6.68582726

$$$$

 OpenBabel03272510123D

 37 41  0  0  0  0  0  0  0  0999 V2000
   37.1880   27.2060   32.5230 O   0  0  0  0  0  0  0  0  0  0  0  0
   39.4900   24.6380   34.9400 C   0  0  0  0  0  0  0  0  0  0  0  0
   39.7530   25.9620   34.8790 C   0  0  0  0  0  0  0  0  0  0  0  0
   39.0540   26.8680   34.1180 C   0  0  0  0  0  0  0  0  0  0  0  0
   38.0050   26.4390   33.3510 C   0  0  0  0  0  0  0  0  0  0  0  0
   37.7270   25.0750   33.4070 C   0  0  0  0  0  0  0  0  0  0  0  0
   38.4410   24.2240   34.1690 N   0  0  0  0  0  0  0  0  0  0  0  0
   40.5660   26.3840   35.4560 H   0  0  0  0  0  0  0  0  0  0  0  0
   39.2630   27.9290   34.0690 H   0  0  0  0  0  0  0  0  0  0  0  0
   36.9240   24.5680   32.8560 H   0  0  0  0  0  0  0  0  0  0  0  0
   39.6970   23.0700   36.8750 C   0  0  0  0  0  0  0  0  0  0  0  0
   40.2200   23.6910   35.7330 C   0  0  0  0  0  0  0  0  0  0  0  0
   41.5010   23.3470   35.3920 C   0  0  0  0  0  0  0  0  0  0  0  0
   42.1920   22.4390   36.1590 N   0  0  0  0  0  0  0  0  0  0  0  0
   41.6320   21.8740   37.2480 C   0  0  0  0  0  0  0  0  0  0  0  0
   40.3830   22.1850   37.6140 N   0  0  0  0  0  0  0  0  0  0  0  0
   38.6920   23.3080   37.1850 H   0  0  0  0  0  0  0  0  0  0  0  0
   42.0350   23.7440   34.5370 H   0  0  0  0  0  0  0  0  0  0  0  0
   42.2310   21.1680   37.8050 H   0  0  0  0  0  0  0  0  0  0  0  0
   36.5200   28.3230   32.9840 C   0  0  0  0  0  0  0  0  0  0  0  0
   36.3230   29.2970   32.0240 C   0  0  0  0  0  0  0  0  0  0  0  0
   35.6410   30.3750   32.6040 C   0  0  0  0  0  0  0  0  0  0  0  0
   35.4530   30.0080   33.8920 N   0  0  0  0  0  0  0  0  0  0  0  0
   35.9690   28.8180   34.0920 N   0  0  0  0  0  0  0  0  0  0  0  0
   36.5600   29.4300   30.9570 H   0  0  0  0  0  0  0  0  0  0  0  0
   35.2800   31.3330   32.2520 H   0  0  0  0  0  0  0  0  0  0  0  0
   34.8350   30.6400   35.0080 C   0  0  0  0  0  0  0  0  0  0  0  0
   35.5030   31.5200   35.8320 C   0  0  0  0  0  0  0  0  0  0  0  0
   36.5560   31.7370   35.6140 H   0  0  0  0  0  0  0  0  0  0  0  0
   34.9550   32.1580   36.9240 C   0  0  0  0  0  3  0  0  0  0  0  0
   33.6290   31.8820   37.1950 C   0  0  0  0  0  3  0  0  0  0  0  0
   32.8810   31.0040   36.4110 C   0  0  0  0  0  0  0  0  0  0  0  0
   31.5620   30.7650   36.7280 C   0  0  0  0  0  3  0  0  0  0  0  0
   30.8930   29.8780   35.8940 C   0  0  0  0  0  3  0  0  0  0  0  0
   31.4320   29.2330   34.8000 C   0  0  0  0  0  3  0  0  0  0  0  0
   32.7360   29.5350   34.5710 C   0  0  0  0  0  3  0  0  0  0  0  0
   33.5090   30.3970   35.3230 C   0  0  0  0  0  0  0  0  0  0  0  0
  1 20  1  0  0  0  0
  1  5  1  0  0  0  0
  2 12  1  0  0  0  0
  3  2  1  0  0  0  0
  3  8  1  0  0  0  0
  4  3  2  0  0  0  0
  5  6  2  0  0  0  0
  5  4  1  0  0  0  0
  6  7  1  0  0  0  0
  7  2  2  0  0  0  0
  9  4  1  0  0  0  0
 10  6  1  0  0  0  0
 11 17  1  0  0  0  0
 11 16  1  0  0  0  0
 12 11  2  0  0  0  0
 13 12  1  0  0  0  0
 13 14  2  0  0  0  0
 14 15  1  0  0  0  0
 15 16  2  0  0  0  0
 15 19  1  0  0  0  0
 18 13  1  0  0  0  0
 20 24  2  0  0  0  0
 21 22  2  0  0  0  0
 21 20  1  0  0  0  0
 22 23  1  0  0  0  0
 23 24  1  0  0  0  0
 23 27  1  0  0  0  0
 25 21  1  0  0  0  0
 26 22  1  0  0  0  0
 27 37  2  0  0  0  0
 27 28  1  0  0  0  0
 28 30  2  0  0  0  0
 29 28  1  0  0  0  0
 30 31  1  0  0  0  0
 32 33  1  0  0  0  0
 32 31  2  0  0  0  0
 34 33  2  0  0  0  0
 35 34  1  0  0  0  0
 36 35  2  0  0  0  0
 36 37  1  0  0  0  0
 37 32  1  0  0  0  0
M  END
>  <minimizedAffinity>
-6.66903114

$$$$

 OpenBabel03272510123D

 37 41  0  0  0  0  0  0  0  0999 V2000
   37.2330   27.0310   31.2100 O   0  0  0  0  0  0  0  0  0  0  0  0
   35.6480   29.5970   34.1500 C   0  0  0  0  0  0  0  0  0  0  0  0
   36.3330   28.4820   34.4910 C   0  0  0  0  0  0  0  0  0  0  0  0
   36.8810   27.5930   33.5980 C   0  0  0  0  0  0  0  0  0  0  0  0
   36.7470   27.8160   32.2540 C   0  0  0  0  0  0  0  0  0  0  0  0
   36.0430   28.9630   31.8930 C   0  0  0  0  0  0  0  0  0  0  0  0
   35.5230   29.8070   32.8060 N   0  0  0  0  0  0  0  0  0  0  0  0
   36.4830   28.2320   35.5330 H   0  0  0  0  0  0  0  0  0  0  0  0
   37.4300   26.7000   33.8690 H   0  0  0  0  0  0  0  0  0  0  0  0
   35.8450   29.2880   30.8640 H   0  0  0  0  0  0  0  0  0  0  0  0
   35.8310   31.4190   35.8510 C   0  0  0  0  0  0  0  0  0  0  0  0
   35.0750   30.5250   35.0820 C   0  0  0  0  0  0  0  0  0  0  0  0
   33.7180   30.5750   35.2600 C   0  0  0  0  0  0  0  0  0  0  0  0
   33.1790   31.4690   36.1550 N   0  0  0  0  0  0  0  0  0  0  0  0
   33.9610   32.3040   36.8670 C   0  0  0  0  0  0  0  0  0  0  0  0
   35.2910   32.2860   36.7200 N   0  0  0  0  0  0  0  0  0  0  0  0
   36.9050   31.4200   35.7460 H   0  0  0  0  0  0  0  0  0  0  0  0
   33.0070   29.9460   34.7360 H   0  0  0  0  0  0  0  0  0  0  0  0
   33.4720   32.9810   37.5520 H   0  0  0  0  0  0  0  0  0  0  0  0
   36.9850   25.6750   31.1370 C   0  0  0  0  0  0  0  0  0  0  0  0
   35.6430   25.3500   31.0770 C   0  0  0  0  0  0  0  0  0  0  0  0
   35.5160   23.9560   31.0070 C   0  0  0  0  0  0  0  0  0  0  0  0
   36.7870   23.4950   31.0270 N   0  0  0  0  0  0  0  0  0  0  0  0
   37.6220   24.5050   31.1030 N   0  0  0  0  0  0  0  0  0  0  0  0
   34.6870   25.8960   31.0710 H   0  0  0  0  0  0  0  0  0  0  0  0
   34.6860   23.2650   30.9470 H   0  0  0  0  0  0  0  0  0  0  0  0
   37.3540   22.1900   30.9850 C   0  0  0  0  0  0  0  0  0  0  0  0
   38.6460   21.9500   30.5690 C   0  0  0  0  0  0  0  0  0  0  0  0
   39.2580   22.8060   30.2570 H   0  0  0  0  0  0  0  0  0  0  0  0
   39.2440   20.7100   30.5080 C   0  0  0  0  0  3  0  0  0  0  0  0
   38.4710   19.6350   30.9010 C   0  0  0  0  0  3  0  0  0  0  0  0
   37.1540   19.7910   31.3360 C   0  0  0  0  0  0  0  0  0  0  0  0
   36.4290   18.6830   31.7160 C   0  0  0  0  0  3  0  0  0  0  0  0
   35.1280   18.9300   32.1350 C   0  0  0  0  0  3  0  0  0  0  0  0
   34.5190   20.1670   32.1990 C   0  0  0  0  0  3  0  0  0  0  0  0
   35.3160   21.1930   31.8050 C   0  0  0  0  0  3  0  0  0  0  0  0
   36.6210   21.0790   31.3680 C   0  0  0  0  0  0  0  0  0  0  0  0
  1  5  1  0  0  0  0
  2  3  1  0  0  0  0
  2 12  1  0  0  0  0
  3  8  1  0  0  0  0
  4  9  1  0  0  0  0
  4  3  2  0  0  0  0
  5  4  1  0  0  0  0
  6  5  2  0  0  0  0
  6  7  1  0  0  0  0
  7  2  2  0  0  0  0
 10  6  1  0  0  0  0
 11 16  1  0  0  0  0
 12 13  1  0  0  0  0
 12 11  2  0  0  0  0
 13 14  2  0  0  0  0
 14 15  1  0  0  0  0
 15 19  1  0  0  0  0
 16 15  2  0  0  0  0
 17 11  1  0  0  0  0
 18 13  1  0  0  0  0
 20  1  1  0  0  0  0
 21 20  1  0  0  0  0
 22 23  1  0  0  0  0
 22 21  2  0  0  0  0
 23 24  1  0  0  0  0
 24 20  2  0  0  0  0
 25 21  1  0  0  0  0
 26 22  1  0  0  0  0
 27 23  1  0  0  0  0
 27 37  1  0  0  0  0
 28 27  2  0  0  0  0
 29 28  1  0  0  0  0
 30 28  1  0  0  0  0
 30 31  2  0  0  0  0
 31 32  1  0  0  0  0
 32 37  2  0  0  0  0
 32 33  1  0  0  0  0
 33 34  2  0  0  0  0
 34 35  1  0  0  0  0
 36 35  2  0  0  0  0
 37 36  1  0  0  0  0
M  END
>  <minimizedAffinity>
-6.54576588

$$$$

 OpenBabel03272510123D

 37 41  0  0  0  0  0  0  0  0999 V2000
   36.9760   26.9520   32.3100 O   0  0  0  0  0  0  0  0  0  0  0  0
   35.5790   30.4270   34.2380 C   0  0  0  0  0  0  0  0  0  0  0  0
   35.6030   30.3380   32.8890 C   0  0  0  0  0  0  0  0  0  0  0  0
   36.0420   29.2440   32.1820 C   0  0  0  0  0  0  0  0  0  0  0  0
   36.4960   28.1420   32.8540 C   0  0  0  0  0  0  0  0  0  0  0  0
   36.4760   28.2250   34.2450 C   0  0  0  0  0  0  0  0  0  0  0  0
   36.0360   29.3210   34.8950 N   0  0  0  0  0  0  0  0  0  0  0  0
   35.2600   31.1650   32.2820 H   0  0  0  0  0  0  0  0  0  0  0  0
   36.0610   29.1710   31.1020 H   0  0  0  0  0  0  0  0  0  0  0  0
   36.8050   27.4360   34.9320 H   0  0  0  0  0  0  0  0  0  0  0  0
   35.1200   31.6360   36.3760 C   0  0  0  0  0  0  0  0  0  0  0  0
   35.1220   31.5680   34.9770 C   0  0  0  0  0  0  0  0  0  0  0  0
   34.6550   32.6750   34.3190 C   0  0  0  0  0  0  0  0  0  0  0  0
   34.2190   33.7640   35.0370 N   0  0  0  0  0  0  0  0  0  0  0  0
   34.2420   33.7670   36.3850 C   0  0  0  0  0  0  0  0  0  0  0  0
   34.6920   32.7050   37.0640 N   0  0  0  0  0  0  0  0  0  0  0  0
   35.4800   30.7890   36.9410 H   0  0  0  0  0  0  0  0  0  0  0  0
   34.5970   32.7680   33.2410 H   0  0  0  0  0  0  0  0  0  0  0  0
   33.8860   34.6550   36.8860 H   0  0  0  0  0  0  0  0  0  0  0  0
   37.3260   25.8750   33.0990 C   0  0  0  0  0  0  0  0  0  0  0  0
   37.2090   24.6520   32.4650 C   0  0  0  0  0  0  0  0  0  0  0  0
   37.5900   23.6410   33.3570 C   0  0  0  0  0  0  0  0  0  0  0  0
   37.9210   24.2940   34.4940 N   0  0  0  0  0  0  0  0  0  0  0  0
   37.7620   25.5850   34.3240 N   0  0  0  0  0  0  0  0  0  0  0  0
   36.9020   24.2910   31.4710 H   0  0  0  0  0  0  0  0  0  0  0  0
   37.6580   22.5620   33.3080 H   0  0  0  0  0  0  0  0  0  0  0  0
   38.3850   23.8620   35.7690 C   0  0  0  0  0  0  0  0  0  0  0  0
   37.7390   24.1810   36.9450 C   0  0  0  0  0  0  0  0  0  0  0  0
   36.8310   24.7940   36.8880 H   0  0  0  0  0  0  0  0  0  0  0  0
   38.1430   23.7910   38.2030 C   0  0  0  0  0  3  0  0  0  0  0  0
   39.2860   23.0190   38.2710 C   0  0  0  0  0  3  0  0  0  0  0  0
   39.9980   22.6510   37.1280 C   0  0  0  0  0  0  0  0  0  0  0  0
   41.1320   21.8790   37.2550 C   0  0  0  0  0  3  0  0  0  0  0  0
   41.7790   21.5610   36.0670 C   0  0  0  0  0  3  0  0  0  0  0  0
   41.3840   21.9460   34.8020 C   0  0  0  0  0  3  0  0  0  0  0  0
   40.2560   22.7020   34.7840 C   0  0  0  0  0  3  0  0  0  0  0  0
   39.5250   23.0870   35.8910 C   0  0  0  0  0  0  0  0  0  0  0  0
  1  5  1  0  0  0  0
  1 20  1  0  0  0  0
  2  7  1  0  0  0  0
  2 12  1  0  0  0  0
  3  2  2  0  0  0  0
  4  5  2  0  0  0  0
  4  3  1  0  0  0  0
  5  6  1  0  0  0  0
  6  7  2  0  0  0  0
  6 10  1  0  0  0  0
  8  3  1  0  0  0  0
  9  4  1  0  0  0  0
 11 17  1  0  0  0  0
 11 16  1  0  0  0  0
 12 11  2  0  0  0  0
 13 12  1  0  0  0  0
 13 14  2  0  0  0  0
 14 15  1  0  0  0  0
 15 19  1  0  0  0  0
 15 16  2  0  0  0  0
 18 13  1  0  0  0  0
 20 24  2  0  0  0  0
 21 20  1  0  0  0  0
 21 22  2  0  0  0  0
 22 23  1  0  0  0  0
 23 27  1  0  0  0  0
 24 23  1  0  0  0  0
 25 21  1  0  0  0  0
 26 22  1  0  0  0  0
 27 37  2  0  0  0  0
 27 28  1  0  0  0  0
 28 30  2  0  0  0  0
 29 28  1  0  0  0  0
 30 31  1  0  0  0  0
 32 33  1  0  0  0  0
 32 31  2  0  0  0  0
 34 33  2  0  0  0  0
 35 34  1  0  0  0  0
 36 35  2  0  0  0  0
 36 37  1  0  0  0  0
 37 32  1  0  0  0  0
M  END
>  <minimizedAffinity>
-6.41767168

$$$$

 OpenBabel03272510123D

 37 41  0  0  0  0  0  0  0  0999 V2000
   37.1480   26.5000   31.7790 O   0  0  0  0  0  0  0  0  0  0  0  0
   35.4440   29.5720   34.1030 C   0  0  0  0  0  0  0  0  0  0  0  0
   35.0690   29.3770   32.8190 C   0  0  0  0  0  0  0  0  0  0  0  0
   35.5730   28.4020   31.9920 C   0  0  0  0  0  0  0  0  0  0  0  0
   36.5270   27.5420   32.4660 C   0  0  0  0  0  0  0  0  0  0  0  0
   36.9200   27.7350   33.7880 C   0  0  0  0  0  0  0  0  0  0  0  0
   36.3970   28.7070   34.5610 N   0  0  0  0  0  0  0  0  0  0  0  0
   34.3200   30.0140   32.3670 H   0  0  0  0  0  0  0  0  0  0  0  0
   35.2740   28.2440   30.9640 H   0  0  0  0  0  0  0  0  0  0  0  0
   37.6700   27.1380   34.3210 H   0  0  0  0  0  0  0  0  0  0  0  0
   35.6920   31.2830   35.9070 C   0  0  0  0  0  0  0  0  0  0  0  0
   34.9190   30.5910   34.9660 C   0  0  0  0  0  0  0  0  0  0  0  0
   33.5970   30.9380   34.8990 C   0  0  0  0  0  0  0  0  0  0  0  0
   33.1030   31.9160   35.7310 N   0  0  0  0  0  0  0  0  0  0  0  0
   33.8990   32.5460   36.6170 C   0  0  0  0  0  0  0  0  0  0  0  0
   35.1970   32.2350   36.7120 N   0  0  0  0  0  0  0  0  0  0  0  0
   36.7410   31.0470   35.9980 H   0  0  0  0  0  0  0  0  0  0  0  0
   32.8790   30.4900   34.2200 H   0  0  0  0  0  0  0  0  0  0  0  0
   33.4470   33.3050   37.2400 H   0  0  0  0  0  0  0  0  0  0  0  0
   37.5750   25.3530   32.4180 C   0  0  0  0  0  0  0  0  0  0  0  0
   36.8340   24.2280   32.1090 C   0  0  0  0  0  0  0  0  0  0  0  0
   37.3560   23.1340   32.8120 C   0  0  0  0  0  0  0  0  0  0  0  0
   38.3920   23.6430   33.5170 N   0  0  0  0  0  0  0  0  0  0  0  0
   38.5020   24.9280   33.2760 N   0  0  0  0  0  0  0  0  0  0  0  0
   35.9680   23.9890   31.4720 H   0  0  0  0  0  0  0  0  0  0  0  0
   37.1110   22.0820   32.8850 H   0  0  0  0  0  0  0  0  0  0  0  0
   39.3310   23.0730   34.4230 C   0  0  0  0  0  0  0  0  0  0  0  0
   40.4460   22.3800   34.0040 C   0  0  0  0  0  0  0  0  0  0  0  0
   40.6100   22.2660   32.9250 H   0  0  0  0  0  0  0  0  0  0  0  0
   41.3860   21.8090   34.8350 C   0  0  0  0  0  3  0  0  0  0  0  0
   41.1750   21.9550   36.1920 C   0  0  0  0  0  3  0  0  0  0  0  0
   40.0720   22.6420   36.7000 C   0  0  0  0  0  0  0  0  0  0  0  0
   39.9120   22.7570   38.0630 C   0  0  0  0  0  3  0  0  0  0  0  0
   38.7870   23.4570   38.4800 C   0  0  0  0  0  3  0  0  0  0  0  0
   37.8400   24.0320   37.6580 C   0  0  0  0  0  3  0  0  0  0  0  0
   38.0880   23.8640   36.3330 C   0  0  0  0  0  3  0  0  0  0  0  0
   39.1660   23.1910   35.7930 C   0  0  0  0  0  0  0  0  0  0  0  0
  1 20  1  0  0  0  0
  1  5  1  0  0  0  0
  2  7  1  0  0  0  0
  2 12  1  0  0  0  0
  3  2  2  0  0  0  0
  4  5  2  0  0  0  0
  4  3  1  0  0  0  0
  5  6  1  0  0  0  0
  6 10  1  0  0  0  0
  6  7  2  0  0  0  0
  8  3  1  0  0  0  0
  9  4  1  0  0  0  0
 11 17  1  0  0  0  0
 11 16  1  0  0  0  0
 12 11  2  0  0  0  0
 13 12  1  0  0  0  0
 13 14  2  0  0  0  0
 14 15  1  0  0  0  0
 15 16  2  0  0  0  0
 15 19  1  0  0  0  0
 18 13  1  0  0  0  0
 20 24  2  0  0  0  0
 21 20  1  0  0  0  0
 21 22  2  0  0  0  0
 22 26  1  0  0  0  0
 22 23  1  0  0  0  0
 23 27  1  0  0  0  0
 24 23  1  0  0  0  0
 25 21  1  0  0  0  0
 27 37  1  0  0  0  0
 28 27  2  0  0  0  0
 28 30  1  0  0  0  0
 29 28  1  0  0  0  0
 30 31  2  0  0  0  0
 31 32  1  0  0  0  0
 32 33  1  0  0  0  0
 33 34  2  0  0  0  0
 35 34  1  0  0  0  0
 36 35  2  0  0  0  0
 37 36  1  0  0  0  0
 37 32  2  0  0  0  0
M  END
>  <minimizedAffinity>
-6.41695404

$$$$

 OpenBabel03272510123D

 37 41  0  0  0  0  0  0  0  0999 V2000
   36.8680   27.7720   32.8220 O   0  0  0  0  0  0  0  0  0  0  0  0
   38.9340   24.9870   35.2140 C   0  0  0  0  0  0  0  0  0  0  0  0
   38.7620   26.2650   35.6200 C   0  0  0  0  0  0  0  0  0  0  0  0
   38.1030   27.2350   34.9030 C   0  0  0  0  0  0  0  0  0  0  0  0
   37.5650   26.9250   33.6830 C   0  0  0  0  0  0  0  0  0  0  0  0
   37.7380   25.6110   33.2560 C   0  0  0  0  0  0  0  0  0  0  0  0
   38.3920   24.6930   33.9950 N   0  0  0  0  0  0  0  0  0  0  0  0
   39.1560   26.5920   36.5730 H   0  0  0  0  0  0  0  0  0  0  0  0
   37.9640   28.2590   35.2270 H   0  0  0  0  0  0  0  0  0  0  0  0
   37.3720   25.1980   32.3070 H   0  0  0  0  0  0  0  0  0  0  0  0
   40.8290   23.3940   35.5510 C   0  0  0  0  0  0  0  0  0  0  0  0
   39.6220   23.9740   35.9610 C   0  0  0  0  0  0  0  0  0  0  0  0
   39.1070   23.5200   37.1450 C   0  0  0  0  0  0  0  0  0  0  0  0
   39.7740   22.5490   37.8540 N   0  0  0  0  0  0  0  0  0  0  0  0
   40.9350   22.0290   37.4060 C   0  0  0  0  0  0  0  0  0  0  0  0
   41.4700   22.4470   36.2520 N   0  0  0  0  0  0  0  0  0  0  0  0
   41.2770   23.7180   34.6240 H   0  0  0  0  0  0  0  0  0  0  0  0
   38.1830   23.8750   37.5880 H   0  0  0  0  0  0  0  0  0  0  0  0
   41.4070   21.2700   38.0120 H   0  0  0  0  0  0  0  0  0  0  0  0
   35.9030   28.6470   33.2780 C   0  0  0  0  0  0  0  0  0  0  0  0
   34.9060   28.9130   32.3580 C   0  0  0  0  0  0  0  0  0  0  0  0
   33.9890   29.8060   32.9280 C   0  0  0  0  0  0  0  0  0  0  0  0
   34.4700   30.0440   34.1700 N   0  0  0  0  0  0  0  0  0  0  0  0
   35.5780   29.3640   34.3520 N   0  0  0  0  0  0  0  0  0  0  0  0
   34.6630   28.6070   31.3280 H   0  0  0  0  0  0  0  0  0  0  0  0
   33.0760   30.2840   32.5960 H   0  0  0  0  0  0  0  0  0  0  0  0
   34.0220   30.8510   35.2540 C   0  0  0  0  0  0  0  0  0  0  0  0
   32.9830   30.4810   36.0800 C   0  0  0  0  0  0  0  0  0  0  0  0
   32.4850   29.5220   35.8890 H   0  0  0  0  0  0  0  0  0  0  0  0
   32.5090   31.2220   37.1410 C   0  0  0  0  0  3  0  0  0  0  0  0
   33.1390   32.4280   37.3790 C   0  0  0  0  0  3  0  0  0  0  0  0
   34.1990   32.8770   36.5900 C   0  0  0  0  0  0  0  0  0  0  0  0
   34.7910   34.0880   36.8720 C   0  0  0  0  0  3  0  0  0  0  0  0
   35.8370   34.4570   36.0360 C   0  0  0  0  0  3  0  0  0  0  0  0
   36.3190   33.7230   34.9710 C   0  0  0  0  0  3  0  0  0  0  0  0
   35.6700   32.5460   34.7760 C   0  0  0  0  0  3  0  0  0  0  0  0
   34.6200   32.0680   35.5340 C   0  0  0  0  0  0  0  0  0  0  0  0
  1 20  1  0  0  0  0
  1  5  1  0  0  0  0
  2  3  1  0  0  0  0
  2 12  1  0  0  0  0
  3  8  1  0  0  0  0
  4  9  1  0  0  0  0
  4  3  2  0  0  0  0
  5  4  1  0  0  0  0
  6  5  2  0  0  0  0
  6  7  1  0  0  0  0
  7  2  2  0  0  0  0
 10  6  1  0  0  0  0
 11 12  2  0  0  0  0
 11 16  1  0  0  0  0
 12 13  1  0  0  0  0
 13 18  1  0  0  0  0
 13 14  2  0  0  0  0
 15 14  1  0  0  0  0
 15 19  1  0  0  0  0
 16 15  2  0  0  0  0
 17 11  1  0  0  0  0
 20 24  2  0  0  0  0
 21 22  2  0  0  0  0
 21 20  1  0  0  0  0
 22 23  1  0  0  0  0
 23 24  1  0  0  0  0
 23 27  1  0  0  0  0
 25 21  1  0  0  0  0
 26 22  1  0  0  0  0
 27 37  2  0  0  0  0
 27 28  1  0  0  0  0
 28 30  2  0  0  0  0
 29 28  1  0  0  0  0
 30 31  1  0  0  0  0
 32 33  1  0  0  0  0
 32 31  2  0  0  0  0
 34 33  2  0  0  0  0
 35 34  1  0  0  0  0
 36 35  2  0  0  0  0
 36 37  1  0  0  0  0
 37 32  1  0  0  0  0
M  END
>  <minimizedAffinity>
-6.37501049

$$$$

 OpenBabel03272510123D

 37 41  0  0  0  0  0  0  0  0999 V2000
   36.6730   27.9740   31.8710 O   0  0  0  0  0  0  0  0  0  0  0  0
   36.4180   23.7690   31.8300 C   0  0  0  0  0  0  0  0  0  0  0  0
   35.5250   24.5300   31.1580 C   0  0  0  0  0  0  0  0  0  0  0  0
   35.5360   25.9040   31.1190 C   0  0  0  0  0  0  0  0  0  0  0  0
   36.5060   26.5920   31.7970 C   0  0  0  0  0  0  0  0  0  0  0  0
   37.4300   25.8160   32.4930 C   0  0  0  0  0  0  0  0  0  0  0  0
   37.3790   24.4690   32.5010 N   0  0  0  0  0  0  0  0  0  0  0  0
   34.7260   24.0650   30.5960 H   0  0  0  0  0  0  0  0  0  0  0  0
   34.8220   26.5150   30.5810 H   0  0  0  0  0  0  0  0  0  0  0  0
   38.2670   26.2060   33.0850 H   0  0  0  0  0  0  0  0  0  0  0  0
   37.2360   21.5780   32.7100 C   0  0  0  0  0  0  0  0  0  0  0  0
   36.4070   22.3360   31.8720 C   0  0  0  0  0  0  0  0  0  0  0  0
   35.5570   21.6280   31.0650 C   0  0  0  0  0  0  0  0  0  0  0  0
   35.5550   20.2530   31.1130 N   0  0  0  0  0  0  0  0  0  0  0  0
   36.3770   19.5810   31.9430 C   0  0  0  0  0  0  0  0  0  0  0  0
   37.2230   20.2370   32.7470 N   0  0  0  0  0  0  0  0  0  0  0  0
   37.9240   22.0890   33.3660 H   0  0  0  0  0  0  0  0  0  0  0  0
   34.8590   22.0760   30.3670 H   0  0  0  0  0  0  0  0  0  0  0  0
   36.3230   18.5020   31.9300 H   0  0  0  0  0  0  0  0  0  0  0  0
   35.7500   28.7910   32.4900 C   0  0  0  0  0  0  0  0  0  0  0  0
   35.1580   29.7120   31.6460 C   0  0  0  0  0  0  0  0  0  0  0  0
   34.2450   30.4800   32.3810 C   0  0  0  0  0  0  0  0  0  0  0  0
   34.3230   29.9930   33.6400 N   0  0  0  0  0  0  0  0  0  0  0  0
   35.1990   29.0170   33.6830 N   0  0  0  0  0  0  0  0  0  0  0  0
   35.2230   29.9790   30.5800 H   0  0  0  0  0  0  0  0  0  0  0  0
   33.5710   31.2950   32.1530 H   0  0  0  0  0  0  0  0  0  0  0  0
   33.6670   30.3260   34.8600 C   0  0  0  0  0  0  0  0  0  0  0  0
   32.6400   29.5720   35.3850 C   0  0  0  0  0  0  0  0  0  0  0  0
   32.3190   28.6780   34.8340 H   0  0  0  0  0  0  0  0  0  0  0  0
   31.9720   29.8470   36.5580 C   0  0  0  0  0  3  0  0  0  0  0  0
   32.3790   30.9720   37.2480 C   0  0  0  0  0  3  0  0  0  0  0  0
   33.4120   31.7890   36.7860 C   0  0  0  0  0  0  0  0  0  0  0  0
   33.7770   32.8990   37.5150 C   0  0  0  0  0  3  0  0  0  0  0  0
   34.8130   33.6560   36.9810 C   0  0  0  0  0  3  0  0  0  0  0  0
   35.4880   33.3900   35.8080 C   0  0  0  0  0  3  0  0  0  0  0  0
   35.0550   32.2750   35.1650 C   0  0  0  0  0  3  0  0  0  0  0  0
   34.0380   31.4430   35.5890 C   0  0  0  0  0  0  0  0  0  0  0  0
  1 20  1  0  0  0  0
  2 12  1  0  0  0  0
  2  7  1  0  0  0  0
  3  2  2  0  0  0  0
  4  3  1  0  0  0  0
  4  5  2  0  0  0  0
  5  1  1  0  0  0  0
  5  6  1  0  0  0  0
  6  7  2  0  0  0  0
  6 10  1  0  0  0  0
  8  3  1  0  0  0  0
  9  4  1  0  0  0  0
 11 16  1  0  0  0  0
 11 17  1  0  0  0  0
 12 11  2  0  0  0  0
 13 14  2  0  0  0  0
 13 12  1  0  0  0  0
 14 15  1  0  0  0  0
 15 16  2  0  0  0  0
 18 13  1  0  0  0  0
 19 15  1  0  0  0  0
 20 24  2  0  0  0  0
 21 22  2  0  0  0  0
 21 20  1  0  0  0  0
 22 23  1  0  0  0  0
 23 24  1  0  0  0  0
 23 27  1  0  0  0  0
 25 21  1  0  0  0  0
 26 22  1  0  0  0  0
 27 28  2  0  0  0  0
 27 37  1  0  0  0  0
 28 30  1  0  0  0  0
 29 28  1  0  0  0  0
 30 31  2  0  0  0  0
 32 31  1  0  0  0  0
 32 33  1  0  0  0  0
 34 33  2  0  0  0  0
 35 34  1  0  0  0  0
 36 37  1  0  0  0  0
 36 35  2  0  0  0  0
 37 32  2  0  0  0  0
M  END
>  <minimizedAffinity>
-6.27297926

$$$$
