REMARK  Name = 
REMARK  3 active torsions:
REMARK  status: ('A' for Active; 'I' for Inactive)
REMARK    1  A    between atoms: N_1  and  C_10
REMARK    2  A    between atoms: C_13  and  O_15
REMARK    3  A    between atoms: O_15  and  C_21
REMARK                            x       y       z     vdW  Elec       q    Type
REMARK                         _______ _______ _______ _____ _____    ______ ____
ROOT
ATOM      1  C   UNL     1      36.163  29.258  49.295  0.00  0.00    +0.000 A 
ATOM      2  C   UNL     1      36.003  30.399  48.489  0.00  0.00    +0.000 A 
ATOM      3  C   UNL     1      34.884  30.438  47.684  0.00  0.00    +0.000 A 
ATOM      4  N   UNL     1      33.995  29.424  47.681  0.00  0.00    +0.000 NA
ATOM      5  C   UNL     1      34.162  28.338  48.457  0.00  0.00    +0.000 A 
ATOM      6  N   UNL     1      35.254  28.249  49.274  0.00  0.00    +0.000 NA
ATOM      7  H   UNL     1      37.022  29.175  49.945  0.00  0.00    +0.000 HD
ATOM      8  H   UNL     1      34.739  31.295  47.062  0.00  0.00    +0.000 HD
ENDROOT
BRANCH   2   9
ATOM      9  N   UNL     1      36.987  31.411  48.561  0.00  0.00    +0.000 N 
ATOM     10  C   UNL     1      37.159  32.153  49.671  0.00  0.00    +0.000 A 
ATOM     11  C   UNL     1      38.151  33.141  49.676  0.00  0.00    +0.000 A 
ATOM     12  C   UNL     1      38.868  33.256  48.521  0.00  0.00    +0.000 A 
ATOM     13  O   UNL     1      39.769  34.153  48.526  0.00  0.00    +0.000 OA
ATOM     14  N   UNL     1      38.718  32.534  47.407  0.00  0.00    +0.000 N 
ATOM     15  C   UNL     1      37.743  31.586  47.443  0.00  0.00    +0.000 A 
ATOM     16  O   UNL     1      37.586  30.889  46.393  0.00  0.00    +0.000 OA
ATOM     17  H   UNL     1      36.560  32.010  50.547  0.00  0.00    +0.000 HD
ATOM     18  H   UNL     1      38.342  33.771  50.534  0.00  0.00    +0.000 HD
ATOM     19  H   UNL     1      39.301  32.675  46.556  0.00  0.00    +0.000 HD
ENDBRANCH   2   9
BRANCH   5  20
ATOM     20  O   UNL     1      33.312  27.243  48.530  0.00  0.00    +0.000 OA
BRANCH  20  21
ATOM     21  C   UNL     1      32.162  27.087  47.794  0.00  0.00    +0.000 A 
ATOM     22  C   UNL     1      32.455  27.038  46.427  0.00  0.00    +0.000 A 
ATOM     23  H   UNL     1      33.412  27.108  45.968  0.00  0.00    +0.000 HD
ATOM     24  C   UNL     1      31.434  26.882  45.483  0.00  0.00    +0.000 A 
ATOM     25  C   UNL     1      30.106  26.773  45.907  0.00  0.00    +0.000 A 
ATOM     26  C   UNL     1      29.832  26.823  47.255  0.00  0.00    +0.000 A 
ATOM     27  C   UNL     1      28.554  26.731  47.758  0.00  0.00    +0.000 A 
ATOM     28  C   UNL     1      28.341  26.796  49.136  0.00  0.00    +0.000 A 
ATOM     29  C   UNL     1      29.387  26.954  50.053  0.00  0.00    +0.000 A 
ATOM     30  C   UNL     1      30.667  27.046  49.538  0.00  0.00    +0.000 A 
ATOM     31  C   UNL     1      30.842  26.977  48.173  0.00  0.00    +0.000 A 
ENDBRANCH  20  21
ENDBRANCH   5  20
TORSDOF 3
