
 OpenBabel03272500453D

 27 30  0  0  0  0  0  0  0  0999 V2000
   37.4940   31.1480   48.6220 C   0  0  0  0  0  0  0  0  0  0  0  0
   37.7180   30.1670   49.5890 C   0  0  0  0  0  0  0  0  0  0  0  0
   36.6560   29.2650   49.5640 C   0  0  0  0  0  0  0  0  0  0  0  0
   35.8150   29.7210   48.5850 N   0  0  0  0  0  0  0  0  0  0  0  0
   36.3420   30.8180   48.0650 N   0  0  0  0  0  0  0  0  0  0  0  0
   38.5350   30.0560   50.2660 H   0  0  0  0  0  0  0  0  0  0  0  0
   36.4960   28.3780   50.1740 H   0  0  0  0  0  0  0  0  0  0  0  0
   34.5890   29.1530   48.1680 C   0  0  0  0  0  0  0  0  0  0  0  0
   33.8880   28.5450   49.2140 C   0  0  0  0  0  0  0  0  0  0  0  0
   34.2400   28.5030   50.2540 H   0  0  0  0  0  0  0  0  0  0  0  0
   32.6670   27.9470   48.9430 C   0  0  0  0  0  0  0  0  0  0  0  0
   32.1090   27.9230   47.6900 C   0  0  0  0  0  0  0  0  0  0  0  0
   32.8200   28.5300   46.6740 C   0  0  0  0  0  0  0  0  0  0  0  0
   32.3610   28.5720   45.3630 C   0  0  0  0  0  0  0  0  0  0  0  0
   33.0630   29.1710   44.3600 C   0  0  0  0  0  0  0  0  0  0  0  0
   34.2910   29.7710   44.6430 C   0  0  0  0  0  0  0  0  0  0  0  0
   34.7900   29.7530   45.9360 C   0  0  0  0  0  0  0  0  0  0  0  0
   34.0350   29.1330   46.9070 C   0  0  0  0  0  0  0  0  0  0  0  0
   39.0920   32.4130   47.1720 C   0  0  0  0  0  0  0  0  0  0  0  0
   38.3960   32.2340   48.3820 C   0  0  0  0  0  0  0  0  0  0  0  0
   38.6210   33.1810   49.3720 C   0  0  0  0  0  0  0  0  0  0  0  0
   39.4800   34.2120   49.1390 N   0  0  0  0  0  0  0  0  0  0  0  0
   40.1310   34.3370   47.9440 C   0  0  0  0  0  0  0  0  0  0  0  0
   39.9360   33.4390   46.9610 N   0  0  0  0  0  0  0  0  0  0  0  0
   38.8870   31.6490   46.4200 H   0  0  0  0  0  0  0  0  0  0  0  0
   38.1070   33.0900   50.3310 H   0  0  0  0  0  0  0  0  0  0  0  0
   40.8090   35.1650   47.7780 H   0  0  0  0  0  0  0  0  0  0  0  0
  1  2  1  0  0  0  0
  2  6  1  0  0  0  0
  3  2  2  0  0  0  0
  3  7  1  0  0  0  0
  4  3  1  0  0  0  0
  5  4  1  0  0  0  0
  5  1  2  0  0  0  0
  8  4  1  0  0  0  0
  8  9  1  0  0  0  0
  9 10  1  0  0  0  0
 11  9  2  0  0  0  0
 12 11  1  0  0  0  0
 13 18  1  0  0  0  0
 13 12  2  0  0  0  0
 14 13  1  0  0  0  0
 15 16  1  0  0  0  0
 15 14  2  0  0  0  0
 16 17  2  0  0  0  0
 17 18  1  0  0  0  0
 18  8  2  0  0  0  0
 19 20  1  0  0  0  0
 20  1  1  0  0  0  0
 20 21  2  0  0  0  0
 21 26  1  0  0  0  0
 22 21  1  0  0  0  0
 23 22  2  0  0  0  0
 24 19  2  0  0  0  0
 24 23  1  0  0  0  0
 25 19  1  0  0  0  0
 27 23  1  0  0  0  0
M  END
>  <minimizedAffinity>
-5.83149385

>  <minimizedRMSD>
8.35407925

$$$$
