REMARK  Name = 
REMARK  4 active torsions:
REMARK  status: ('A' for Active; 'I' for Inactive)
REMARK    1  A    between atoms: C_1  and  C_8
REMARK    2  A    between atoms: C_4  and  O_13
REMARK    3  A    between atoms: O_13  and  C_14
REMARK    4  A    between atoms: N_17  and  C_27
REMARK                            x       y       z     vdW  Elec       q    Type
REMARK                         _______ _______ _______ _____ _____    ______ ____
ROOT
ATOM      1  O   UNL     1      37.751  30.048  49.202  0.00  0.00    +0.000 OA
ENDROOT
BRANCH   1   5
ATOM      2  C   UNL     1      33.841  28.784  48.276  0.00  0.00    +0.000 A 
ATOM      3  C   UNL     1      34.436  28.423  49.435  0.00  0.00    +0.000 A 
ATOM      4  C   UNL     1      35.705  28.790  49.814  0.00  0.00    +0.000 A 
ATOM      5  C   UNL     1      36.456  29.580  48.986  0.00  0.00    +0.000 A 
ATOM      6  C   UNL     1      35.851  29.957  47.789  0.00  0.00    +0.000 A 
ATOM      7  N   UNL     1      34.602  29.572  47.460  0.00  0.00    +0.000 NA
ATOM      8  H   UNL     1      33.911  27.799  50.146  0.00  0.00    +0.000 HD
ATOM      9  H   UNL     1      36.183  28.502  50.742  0.00  0.00    +0.000 HD
ATOM     10  H   UNL     1      36.311  30.585  47.016  0.00  0.00    +0.000 HD
BRANCH   2  12
ATOM     11  C   UNL     1      31.642  27.674  48.697  0.00  0.00    +0.000 A 
ATOM     12  C   UNL     1      32.517  28.401  47.879  0.00  0.00    +0.000 A 
ATOM     13  C   UNL     1      32.041  28.744  46.642  0.00  0.00    +0.000 A 
ATOM     14  N   UNL     1      30.770  28.372  46.271  0.00  0.00    +0.000 NA
ATOM     15  C   UNL     1      29.975  27.672  47.105  0.00  0.00    +0.000 A 
ATOM     16  N   UNL     1      30.404  27.318  48.322  0.00  0.00    +0.000 NA
ATOM     17  H   UNL     1      31.970  27.380  49.682  0.00  0.00    +0.000 HD
ATOM     18  H   UNL     1      32.602  29.305  45.903  0.00  0.00    +0.000 HD
ATOM     19  H   UNL     1      28.988  27.413  46.750  0.00  0.00    +0.000 HD
ENDBRANCH   2  12
ENDBRANCH   1   5
BRANCH   1  20
ATOM     20  C   UNL     1      38.160  31.295  48.774  0.00  0.00    +0.000 A 
ATOM     21  C   UNL     1      37.880  32.315  49.664  0.00  0.00    +0.000 A 
ATOM     22  C   UNL     1      38.338  33.525  49.126  0.00  0.00    +0.000 A 
ATOM     23  N   UNL     1      38.876  33.187  47.932  0.00  0.00    +0.000 N 
ATOM     24  N   UNL     1      38.763  31.893  47.747  0.00  0.00    +0.000 NA
ATOM     25  H   UNL     1      37.405  32.407  50.653  0.00  0.00    +0.000 HD
ATOM     26  H   UNL     1      38.339  34.557  49.452  0.00  0.00    +0.000 HD
BRANCH  23  27
ATOM     27  C   UNL     1      39.506  33.935  46.897  0.00  0.00    +0.000 A 
ATOM     28  C   UNL     1      40.569  34.781  47.129  0.00  0.00    +0.000 A 
ATOM     29  H   UNL     1      40.940  34.878  48.157  0.00  0.00    +0.000 HD
ATOM     30  C   UNL     1      41.215  35.527  46.167  0.00  0.00    +0.000 A 
ATOM     31  C   UNL     1      40.745  35.402  44.874  0.00  0.00    +0.000 A 
ATOM     32  C   UNL     1      39.674  34.567  44.554  0.00  0.00    +0.000 A 
ATOM     33  C   UNL     1      39.247  34.481  43.247  0.00  0.00    +0.000 A 
ATOM     34  C   UNL     1      38.175  33.627  43.019  0.00  0.00    +0.000 A 
ATOM     35  C   UNL     1      37.521  32.876  43.974  0.00  0.00    +0.000 A 
ATOM     36  C   UNL     1      38.017  33.030  45.229  0.00  0.00    +0.000 A 
ATOM     37  C   UNL     1      39.073  33.845  45.585  0.00  0.00    +0.000 A 
ENDBRANCH  23  27
ENDBRANCH   1  20
TORSDOF 4
