
 OpenBabel03262522013D

 22 24  0  0  0  0  0  0  0  0999 V2000
   39.0130   25.3280   34.5630 C   0  0  0  0  0  0  0  0  0  0  0  0
   39.7370   26.3450   34.3120 O   0  0  0  0  0  0  0  0  0  0  0  0
   39.0630   24.5410   35.8120 C   0  0  0  0  0  0  0  0  0  0  0  0
   38.0600   24.8210   36.7420 C   0  0  0  0  0  0  0  0  0  0  0  0
   37.3100   25.5840   36.5230 H   0  0  0  0  0  0  0  0  0  0  0  0
   37.9270   24.1970   37.9640 C   0  0  0  0  0  3  0  0  0  0  0  0
   38.8440   23.2290   38.2930 C   0  0  0  0  0  3  0  0  0  0  0  0
   39.8390   22.9400   37.3860 C   0  0  0  0  0  0  0  0  0  0  0  0
   40.8160   21.9720   37.6320 C   0  0  0  0  0  3  0  0  0  0  0  0
   41.8230   21.6690   36.7370 C   0  0  0  0  0  3  0  0  0  0  0  0
   41.8860   22.3470   35.5220 C   0  0  0  0  0  3  0  0  0  0  0  0
   40.9420   23.3130   35.2350 C   0  0  0  0  0  3  0  0  0  0  0  0
   39.9720   23.5650   36.1640 C   0  0  0  0  0  0  0  0  0  0  0  0
   38.0350   24.8520   33.5790 C   0  0  0  0  0  0  0  0  0  0  0  0
   37.2570   25.8100   32.9310 C   0  0  0  0  0  0  0  0  0  0  0  0
   36.3160   25.3600   31.9840 C   0  0  0  0  0  0  0  0  0  0  0  0
   36.2260   24.0040   31.7630 N   0  0  0  0  0  0  0  0  0  0  0  0
   36.9910   23.1190   32.4070 C   0  0  0  0  0  0  0  0  0  0  0  0
   37.8850   23.5420   33.3060 N   0  0  0  0  0  0  0  0  0  0  0  0
   37.3660   26.8620   33.1390 H   0  0  0  0  0  0  0  0  0  0  0  0
   35.6830   26.0520   31.4460 H   0  0  0  0  0  0  0  0  0  0  0  0
   36.8590   22.0700   32.1760 H   0  0  0  0  0  0  0  0  0  0  0  0
  1  3  1  0  0  0  0
  2  1  2  0  0  0  0
  3 13  2  0  0  0  0
  3  4  1  0  0  0  0
  4  6  2  0  0  0  0
  5  4  1  0  0  0  0
  6  7  1  0  0  0  0
  8  9  1  0  0  0  0
  8  7  2  0  0  0  0
 10  9  2  0  0  0  0
 11 10  1  0  0  0  0
 12 11  2  0  0  0  0
 12 13  1  0  0  0  0
 13  8  1  0  0  0  0
 14  1  1  0  0  0  0
 15 20  1  0  0  0  0
 15 14  2  0  0  0  0
 16 15  1  0  0  0  0
 17 16  2  0  0  0  0
 17 18  1  0  0  0  0
 18 19  2  0  0  0  0
 19 14  1  0  0  0  0
 21 16  1  0  0  0  0
 22 18  1  0  0  0  0
M  END
>  <minimizedAffinity>
-5.21935511

$$$$

 OpenBabel03262522013D

 22 24  0  0  0  0  0  0  0  0999 V2000
   37.9590   27.1270   30.9410 C   0  0  0  0  0  0  0  0  0  0  0  0
   37.8290   28.0550   30.0780 O   0  0  0  0  0  0  0  0  0  0  0  0
   38.9850   27.1000   32.0040 C   0  0  0  0  0  0  0  0  0  0  0  0
   40.3100   27.1130   31.5630 C   0  0  0  0  0  0  0  0  0  0  0  0
   40.5290   27.1370   30.4930 H   0  0  0  0  0  0  0  0  0  0  0  0
   41.4120   27.0970   32.3910 C   0  0  0  0  0  3  0  0  0  0  0  0
   41.1960   27.0660   33.7460 C   0  0  0  0  0  3  0  0  0  0  0  0
   39.8940   27.0530   34.1970 C   0  0  0  0  0  0  0  0  0  0  0  0
   39.5760   27.0210   35.5570 C   0  0  0  0  0  3  0  0  0  0  0  0
   38.2790   27.0060   36.0300 C   0  0  0  0  0  3  0  0  0  0  0  0
   37.2200   27.0240   35.1250 C   0  0  0  0  0  3  0  0  0  0  0  0
   37.4860   27.0560   33.7710 C   0  0  0  0  0  3  0  0  0  0  0  0
   38.7930   27.0690   33.3690 C   0  0  0  0  0  0  0  0  0  0  0  0
   37.0540   25.9730   30.9350 C   0  0  0  0  0  0  0  0  0  0  0  0
   37.6310   24.7050   30.9010 C   0  0  0  0  0  0  0  0  0  0  0  0
   36.7680   23.5920   30.8970 C   0  0  0  0  0  0  0  0  0  0  0  0
   35.4120   23.8300   30.9240 N   0  0  0  0  0  0  0  0  0  0  0  0
   34.9010   25.0630   30.9550 C   0  0  0  0  0  0  0  0  0  0  0  0
   35.7160   26.1220   30.9600 N   0  0  0  0  0  0  0  0  0  0  0  0
   38.7010   24.5710   30.8810 H   0  0  0  0  0  0  0  0  0  0  0  0
   37.1530   22.5810   30.8720 H   0  0  0  0  0  0  0  0  0  0  0  0
   33.8240   25.1660   30.9760 H   0  0  0  0  0  0  0  0  0  0  0  0
  1  3  1  0  0  0  0
  2  1  2  0  0  0  0
  3 13  1  0  0  0  0
  4  3  2  0  0  0  0
  4  6  1  0  0  0  0
  5  4  1  0  0  0  0
  6  7  2  0  0  0  0
  7  8  1  0  0  0  0
  8  9  1  0  0  0  0
  9 10  2  0  0  0  0
 11 10  1  0  0  0  0
 12 11  2  0  0  0  0
 13 12  1  0  0  0  0
 13  8  2  0  0  0  0
 14  1  1  0  0  0  0
 14 19  1  0  0  0  0
 15 14  2  0  0  0  0
 16 15  1  0  0  0  0
 16 17  2  0  0  0  0
 17 18  1  0  0  0  0
 18 19  2  0  0  0  0
 18 22  1  0  0  0  0
 20 15  1  0  0  0  0
 21 16  1  0  0  0  0
M  END
>  <minimizedAffinity>
-5.14863634

$$$$

 OpenBabel03262522013D

 22 24  0  0  0  0  0  0  0  0999 V2000
   39.0710   26.3870   34.8700 C   0  0  0  0  0  0  0  0  0  0  0  0
   40.2320   26.7810   35.2140 O   0  0  0  0  0  0  0  0  0  0  0  0
   38.1100   27.1820   34.0750 C   0  0  0  0  0  0  0  0  0  0  0  0
   37.0700   27.7680   34.7990 C   0  0  0  0  0  0  0  0  0  0  0  0
   37.0050   27.6190   35.8800 H   0  0  0  0  0  0  0  0  0  0  0  0
   36.0750   28.5490   34.2500 C   0  0  0  0  0  3  0  0  0  0  0  0
   36.1080   28.7690   32.8950 C   0  0  0  0  0  3  0  0  0  0  0  0
   37.1280   28.1970   32.1670 C   0  0  0  0  0  0  0  0  0  0  0  0
   37.2430   28.3630   30.7850 C   0  0  0  0  0  3  0  0  0  0  0  0
   38.2560   27.7990   30.0360 C   0  0  0  0  0  3  0  0  0  0  0  0
   39.2230   27.0220   30.6700 C   0  0  0  0  0  3  0  0  0  0  0  0
   39.1510   26.8290   32.0350 C   0  0  0  0  0  3  0  0  0  0  0  0
   38.1220   27.4160   32.7170 C   0  0  0  0  0  0  0  0  0  0  0  0
   38.5920   25.0570   35.2570 C   0  0  0  0  0  0  0  0  0  0  0  0
   38.2200   24.8710   36.5870 C   0  0  0  0  0  0  0  0  0  0  0  0
   37.7560   23.5960   36.9670 C   0  0  0  0  0  0  0  0  0  0  0  0
   37.7030   22.6180   35.9990 N   0  0  0  0  0  0  0  0  0  0  0  0
   38.0710   22.8390   34.7340 C   0  0  0  0  0  0  0  0  0  0  0  0
   38.5100   24.0480   34.3700 N   0  0  0  0  0  0  0  0  0  0  0  0
   38.2790   25.6700   37.3090 H   0  0  0  0  0  0  0  0  0  0  0  0
   37.4520   23.3870   37.9830 H   0  0  0  0  0  0  0  0  0  0  0  0
   37.9980   22.0170   34.0340 H   0  0  0  0  0  0  0  0  0  0  0  0
  1  2  2  0  0  0  0
  1 14  1  0  0  0  0
  3  4  1  0  0  0  0
  3  1  1  0  0  0  0
  4  5  1  0  0  0  0
  6  4  2  0  0  0  0
  7  6  1  0  0  0  0
  8 13  1  0  0  0  0
  8  7  2  0  0  0  0
  9  8  1  0  0  0  0
 10 11  1  0  0  0  0
 10  9  2  0  0  0  0
 11 12  2  0  0  0  0
 12 13  1  0  0  0  0
 13  3  2  0  0  0  0
 14 15  1  0  0  0  0
 15 16  2  0  0  0  0
 15 20  1  0  0  0  0
 16 21  1  0  0  0  0
 17 16  1  0  0  0  0
 18 17  2  0  0  0  0
 19 18  1  0  0  0  0
 19 14  2  0  0  0  0
 22 18  1  0  0  0  0
M  END
>  <minimizedAffinity>
-5.01472616

$$$$

 OpenBabel03262522013D

 22 24  0  0  0  0  0  0  0  0999 V2000
   38.1660   23.1180   36.8170 C   0  0  0  0  0  0  0  0  0  0  0  0
   37.7540   23.3890   37.9910 O   0  0  0  0  0  0  0  0  0  0  0  0
   39.4370   23.5990   36.2350 C   0  0  0  0  0  0  0  0  0  0  0  0
   39.3510   24.7820   35.4970 C   0  0  0  0  0  0  0  0  0  0  0  0
   38.3880   25.2840   35.3780 H   0  0  0  0  0  0  0  0  0  0  0  0
   40.4180   25.3990   34.8780 C   0  0  0  0  0  3  0  0  0  0  0  0
   41.6540   24.8110   34.9940 C   0  0  0  0  0  3  0  0  0  0  0  0
   41.7540   23.6440   35.7190 C   0  0  0  0  0  0  0  0  0  0  0  0
   42.9680   22.9740   35.8910 C   0  0  0  0  0  3  0  0  0  0  0  0
   43.0900   21.8030   36.6120 C   0  0  0  0  0  3  0  0  0  0  0  0
   41.9610   21.2450   37.2070 C   0  0  0  0  0  3  0  0  0  0  0  0
   40.7390   21.8720   37.0640 C   0  0  0  0  0  3  0  0  0  0  0  0
   40.6870   23.0280   36.3370 C   0  0  0  0  0  0  0  0  0  0  0  0
   37.3670   22.2710   35.9250 C   0  0  0  0  0  0  0  0  0  0  0  0
   37.7340   22.2280   34.5810 C   0  0  0  0  0  0  0  0  0  0  0  0
   36.9720   21.4150   33.7190 C   0  0  0  0  0  0  0  0  0  0  0  0
   35.9150   20.7190   34.2600 N   0  0  0  0  0  0  0  0  0  0  0  0
   35.5970   20.7900   35.5560 C   0  0  0  0  0  0  0  0  0  0  0  0
   36.3180   21.5590   36.3770 N   0  0  0  0  0  0  0  0  0  0  0  0
   38.5720   22.7930   34.2050 H   0  0  0  0  0  0  0  0  0  0  0  0
   37.2050   21.3380   32.6660 H   0  0  0  0  0  0  0  0  0  0  0  0
   34.7520   20.2100   35.9030 H   0  0  0  0  0  0  0  0  0  0  0  0
  1  2  2  0  0  0  0
  3 13  1  0  0  0  0
  3  1  1  0  0  0  0
  4  3  2  0  0  0  0
  5  4  1  0  0  0  0
  6  7  2  0  0  0  0
  6  4  1  0  0  0  0
  7  8  1  0  0  0  0
  8  9  2  0  0  0  0
  8 13  1  0  0  0  0
  9 10  1  0  0  0  0
 10 11  2  0  0  0  0
 12 11  1  0  0  0  0
 13 12  2  0  0  0  0
 14 19  1  0  0  0  0
 14  1  1  0  0  0  0
 15 14  2  0  0  0  0
 16 17  2  0  0  0  0
 16 15  1  0  0  0  0
 17 18  1  0  0  0  0
 18 22  1  0  0  0  0
 18 19  2  0  0  0  0
 20 15  1  0  0  0  0
 21 16  1  0  0  0  0
M  END
>  <minimizedAffinity>
-5.00922966

$$$$

 OpenBabel03262522013D

 22 24  0  0  0  0  0  0  0  0999 V2000
   35.6570   29.5660   32.9790 C   0  0  0  0  0  0  0  0  0  0  0  0
   36.1640   30.3660   32.1270 O   0  0  0  0  0  0  0  0  0  0  0  0
   34.4990   29.8750   33.8440 C   0  0  0  0  0  0  0  0  0  0  0  0
   33.3020   29.2460   33.4940 C   0  0  0  0  0  0  0  0  0  0  0  0
   33.2670   28.5820   32.6280 H   0  0  0  0  0  0  0  0  0  0  0  0
   32.1100   29.3960   34.1720 C   0  0  0  0  0  3  0  0  0  0  0  0
   32.0970   30.2210   35.2700 C   0  0  0  0  0  3  0  0  0  0  0  0
   33.2700   30.8480   35.6270 C   0  0  0  0  0  0  0  0  0  0  0  0
   33.3530   31.7050   36.7270 C   0  0  0  0  0  3  0  0  0  0  0  0
   34.5180   32.3450   37.1020 C   0  0  0  0  0  3  0  0  0  0  0  0
   35.6790   32.1390   36.3620 C   0  0  0  0  0  3  0  0  0  0  0  0
   35.6460   31.3000   35.2660 C   0  0  0  0  0  3  0  0  0  0  0  0
   34.4600   30.6980   34.9490 C   0  0  0  0  0  0  0  0  0  0  0  0
   36.2180   28.2240   33.1650 C   0  0  0  0  0  0  0  0  0  0  0  0
   36.7130   27.9040   34.4270 C   0  0  0  0  0  0  0  0  0  0  0  0
   37.2520   26.6160   34.6140 C   0  0  0  0  0  0  0  0  0  0  0  0
   37.2560   25.7590   33.5360 N   0  0  0  0  0  0  0  0  0  0  0  0
   36.7710   26.1080   32.3410 C   0  0  0  0  0  0  0  0  0  0  0  0
   36.2580   27.3290   32.1610 N   0  0  0  0  0  0  0  0  0  0  0  0
   36.6870   28.6110   35.2410 H   0  0  0  0  0  0  0  0  0  0  0  0
   37.6520   26.3060   35.5700 H   0  0  0  0  0  0  0  0  0  0  0  0
   36.8100   25.3760   31.5450 H   0  0  0  0  0  0  0  0  0  0  0  0
  1 14  1  0  0  0  0
  1  3  1  0  0  0  0
  2  1  2  0  0  0  0
  3 13  1  0  0  0  0
  4  3  2  0  0  0  0
  4  6  1  0  0  0  0
  5  4  1  0  0  0  0
  6  7  2  0  0  0  0
  7  8  1  0  0  0  0
  8  9  1  0  0  0  0
  9 10  2  0  0  0  0
 11 10  1  0  0  0  0
 12 11  2  0  0  0  0
 13 12  1  0  0  0  0
 13  8  2  0  0  0  0
 14 15  1  0  0  0  0
 15 16  2  0  0  0  0
 15 20  1  0  0  0  0
 16 21  1  0  0  0  0
 17 16  1  0  0  0  0
 18 17  2  0  0  0  0
 19 18  1  0  0  0  0
 19 14  2  0  0  0  0
 22 18  1  0  0  0  0
M  END
>  <minimizedAffinity>
-5.00683212

$$$$

 OpenBabel03262522013D

 22 24  0  0  0  0  0  0  0  0999 V2000
   39.0010   22.9570   36.2010 C   0  0  0  0  0  0  0  0  0  0  0  0
   39.7340   22.3520   37.0490 O   0  0  0  0  0  0  0  0  0  0  0  0
   39.1230   24.3870   35.8460 C   0  0  0  0  0  0  0  0  0  0  0  0
   38.0850   25.2080   36.2900 C   0  0  0  0  0  0  0  0  0  0  0  0
   37.2530   24.7810   36.8540 H   0  0  0  0  0  0  0  0  0  0  0  0
   38.0110   26.5670   36.0680 C   0  0  0  0  0  3  0  0  0  0  0  0
   39.0300   27.1580   35.3630 C   0  0  0  0  0  3  0  0  0  0  0  0
   40.0620   26.3610   34.9190 C   0  0  0  0  0  0  0  0  0  0  0  0
   41.1420   26.8720   34.1940 C   0  0  0  0  0  3  0  0  0  0  0  0
   42.1850   26.0900   33.7390 C   0  0  0  0  0  3  0  0  0  0  0  0
   42.1830   24.7230   34.0060 C   0  0  0  0  0  3  0  0  0  0  0  0
   41.1370   24.1730   34.7200 C   0  0  0  0  0  3  0  0  0  0  0  0
   40.1350   25.0020   35.1410 C   0  0  0  0  0  0  0  0  0  0  0  0
   37.9390   22.2390   35.4890 C   0  0  0  0  0  0  0  0  0  0  0  0
   38.0460   22.1450   34.1030 C   0  0  0  0  0  0  0  0  0  0  0  0
   37.0300   21.4550   33.4120 C   0  0  0  0  0  0  0  0  0  0  0  0
   35.9990   20.9210   34.1520 N   0  0  0  0  0  0  0  0  0  0  0  0
   35.9350   21.0350   35.4810 C   0  0  0  0  0  0  0  0  0  0  0  0
   36.8980   21.6880   36.1400 N   0  0  0  0  0  0  0  0  0  0  0  0
   38.8750   22.5810   33.5680 H   0  0  0  0  0  0  0  0  0  0  0  0
   37.0540   21.3460   32.3370 H   0  0  0  0  0  0  0  0  0  0  0  0
   35.0920   20.5860   35.9890 H   0  0  0  0  0  0  0  0  0  0  0  0
  1  2  2  0  0  0  0
  3  1  1  0  0  0  0
  3  4  1  0  0  0  0
  4  5  1  0  0  0  0
  6  4  2  0  0  0  0
  7  6  1  0  0  0  0
  8 13  1  0  0  0  0
  8  7  2  0  0  0  0
  9  8  1  0  0  0  0
 10 11  1  0  0  0  0
 10  9  2  0  0  0  0
 11 12  2  0  0  0  0
 12 13  1  0  0  0  0
 13  3  2  0  0  0  0
 14 19  1  0  0  0  0
 14  1  1  0  0  0  0
 15 14  2  0  0  0  0
 16 15  1  0  0  0  0
 16 17  2  0  0  0  0
 17 18  1  0  0  0  0
 18 22  1  0  0  0  0
 18 19  2  0  0  0  0
 20 15  1  0  0  0  0
 21 16  1  0  0  0  0
M  END
>  <minimizedAffinity>
-5.00661469

$$$$

 OpenBabel03262522013D

 22 24  0  0  0  0  0  0  0  0999 V2000
   38.5860   25.3790   33.7970 C   0  0  0  0  0  0  0  0  0  0  0  0
   38.6910   26.6480   33.7870 O   0  0  0  0  0  0  0  0  0  0  0  0
   39.4260   24.4670   34.6010 C   0  0  0  0  0  0  0  0  0  0  0  0
   40.5550   23.9610   33.9550 C   0  0  0  0  0  0  0  0  0  0  0  0
   40.7640   24.2420   32.9200 H   0  0  0  0  0  0  0  0  0  0  0  0
   41.4680   23.1010   34.5290 C   0  0  0  0  0  3  0  0  0  0  0  0
   41.2540   22.7140   35.8290 C   0  0  0  0  0  3  0  0  0  0  0  0
   40.1440   23.2050   36.4800 C   0  0  0  0  0  0  0  0  0  0  0  0
   39.8430   22.8670   37.8020 C   0  0  0  0  0  3  0  0  0  0  0  0
   38.7360   23.3470   38.4720 C   0  0  0  0  0  3  0  0  0  0  0  0
   37.8620   24.2120   37.8190 C   0  0  0  0  0  3  0  0  0  0  0  0
   38.1190   24.5750   36.5120 C   0  0  0  0  0  3  0  0  0  0  0  0
   39.2320   24.0640   35.9050 C   0  0  0  0  0  0  0  0  0  0  0  0
   37.5750   24.7110   32.9710 C   0  0  0  0  0  0  0  0  0  0  0  0
   36.7040   25.5190   32.2430 C   0  0  0  0  0  0  0  0  0  0  0  0
   35.7320   24.8830   31.4450 C   0  0  0  0  0  0  0  0  0  0  0  0
   35.7050   23.5070   31.4390 N   0  0  0  0  0  0  0  0  0  0  0  0
   36.5600   22.7700   32.1540 C   0  0  0  0  0  0  0  0  0  0  0  0
   37.4840   23.3690   32.9110 N   0  0  0  0  0  0  0  0  0  0  0  0
   36.7660   26.5950   32.2800 H   0  0  0  0  0  0  0  0  0  0  0  0
   35.0270   25.4530   30.8560 H   0  0  0  0  0  0  0  0  0  0  0  0
   36.4740   21.6930   32.0940 H   0  0  0  0  0  0  0  0  0  0  0  0
  1  3  1  0  0  0  0
  2  1  2  0  0  0  0
  3 13  1  0  0  0  0
  4  6  1  0  0  0  0
  4  3  2  0  0  0  0
  5  4  1  0  0  0  0
  6  7  2  0  0  0  0
  7  8  1  0  0  0  0
  8  9  1  0  0  0  0
  9 10  2  0  0  0  0
 11 10  1  0  0  0  0
 12 11  2  0  0  0  0
 13  8  2  0  0  0  0
 13 12  1  0  0  0  0
 14  1  1  0  0  0  0
 15 20  1  0  0  0  0
 15 14  2  0  0  0  0
 16 15  1  0  0  0  0
 17 16  2  0  0  0  0
 17 18  1  0  0  0  0
 18 19  2  0  0  0  0
 19 14  1  0  0  0  0
 21 16  1  0  0  0  0
 22 18  1  0  0  0  0
M  END
>  <minimizedAffinity>
-4.97908401

$$$$

 OpenBabel03262522013D

 22 24  0  0  0  0  0  0  0  0999 V2000
   36.4100   27.2640   32.2750 C   0  0  0  0  0  0  0  0  0  0  0  0
   36.0030   26.2720   31.5890 O   0  0  0  0  0  0  0  0  0  0  0  0
   37.4860   27.2080   33.2860 C   0  0  0  0  0  0  0  0  0  0  0  0
   37.0620   27.2080   34.6170 C   0  0  0  0  0  0  0  0  0  0  0  0
   35.9960   27.2530   34.8500 H   0  0  0  0  0  0  0  0  0  0  0  0
   37.9040   27.1550   35.7080 C   0  0  0  0  0  3  0  0  0  0  0  0
   39.2560   27.0980   35.4720 C   0  0  0  0  0  3  0  0  0  0  0  0
   39.6890   27.0970   34.1650 C   0  0  0  0  0  0  0  0  0  0  0  0
   41.0440   27.0420   33.8280 C   0  0  0  0  0  3  0  0  0  0  0  0
   41.4990   27.0410   32.5240 C   0  0  0  0  0  3  0  0  0  0  0  0
   40.5820   27.0970   31.4790 C   0  0  0  0  0  3  0  0  0  0  0  0
   39.2320   27.1530   31.7630 C   0  0  0  0  0  3  0  0  0  0  0  0
   38.8470   27.1500   33.0750 C   0  0  0  0  0  0  0  0  0  0  0  0
   35.8090   28.5900   32.0950 C   0  0  0  0  0  0  0  0  0  0  0  0
   36.5650   29.5530   31.4300 C   0  0  0  0  0  0  0  0  0  0  0  0
   35.9930   30.8280   31.2520 C   0  0  0  0  0  0  0  0  0  0  0  0
   34.7260   31.0390   31.7480 N   0  0  0  0  0  0  0  0  0  0  0  0
   34.0360   30.0860   32.3800 C   0  0  0  0  0  0  0  0  0  0  0  0
   34.5750   28.8750   32.5500 N   0  0  0  0  0  0  0  0  0  0  0  0
   37.5550   29.3390   31.0590 H   0  0  0  0  0  0  0  0  0  0  0  0
   36.5280   31.6190   30.7440 H   0  0  0  0  0  0  0  0  0  0  0  0
   33.0450   30.3310   32.7400 H   0  0  0  0  0  0  0  0  0  0  0  0
  1  3  1  0  0  0  0
  2  1  2  0  0  0  0
  3  4  1  0  0  0  0
  4  5  1  0  0  0  0
  4  6  2  0  0  0  0
  7  6  1  0  0  0  0
  8  7  2  0  0  0  0
  9  8  1  0  0  0  0
 10  9  2  0  0  0  0
 11 12  2  0  0  0  0
 11 10  1  0  0  0  0
 12 13  1  0  0  0  0
 13  3  2  0  0  0  0
 13  8  1  0  0  0  0
 14  1  1  0  0  0  0
 14 19  1  0  0  0  0
 15 14  2  0  0  0  0
 16 15  1  0  0  0  0
 16 17  2  0  0  0  0
 17 18  1  0  0  0  0
 18 19  2  0  0  0  0
 18 22  1  0  0  0  0
 20 15  1  0  0  0  0
 21 16  1  0  0  0  0
M  END
>  <minimizedAffinity>
-4.95231485

$$$$

 OpenBabel03262522013D

 22 24  0  0  0  0  0  0  0  0999 V2000
   39.5930   24.4890   34.3440 C   0  0  0  0  0  0  0  0  0  0  0  0
   40.7500   24.2400   33.8740 O   0  0  0  0  0  0  0  0  0  0  0  0
   38.5130   25.1800   33.6090 C   0  0  0  0  0  0  0  0  0  0  0  0
   38.5050   26.5720   33.7190 C   0  0  0  0  0  0  0  0  0  0  0  0
   39.2620   27.0770   34.3240 H   0  0  0  0  0  0  0  0  0  0  0  0
   37.5870   27.4020   33.1100 C   0  0  0  0  0  3  0  0  0  0  0  0
   36.6120   26.8210   32.3380 C   0  0  0  0  0  3  0  0  0  0  0  0
   36.6060   25.4490   32.2200 C   0  0  0  0  0  0  0  0  0  0  0  0
   35.6530   24.7690   31.4570 C   0  0  0  0  0  3  0  0  0  0  0  0
   35.6290   23.3950   31.3260 C   0  0  0  0  0  3  0  0  0  0  0  0
   36.5930   22.6280   31.9760 C   0  0  0  0  0  3  0  0  0  0  0  0
   37.5560   23.2570   32.7410 C   0  0  0  0  0  3  0  0  0  0  0  0
   37.5240   24.6200   32.8300 C   0  0  0  0  0  0  0  0  0  0  0  0
   39.2420   24.0850   35.7090 C   0  0  0  0  0  0  0  0  0  0  0  0
   40.1110   23.2140   36.3640 C   0  0  0  0  0  0  0  0  0  0  0  0
   39.7810   22.8230   37.6770 C   0  0  0  0  0  0  0  0  0  0  0  0
   38.6220   23.3250   38.2250 N   0  0  0  0  0  0  0  0  0  0  0  0
   37.8170   24.1580   37.5610 C   0  0  0  0  0  0  0  0  0  0  0  0
   38.1260   24.5320   36.3150 N   0  0  0  0  0  0  0  0  0  0  0  0
   41.0080   22.8480   35.8920 H   0  0  0  0  0  0  0  0  0  0  0  0
   40.4140   22.1500   38.2400 H   0  0  0  0  0  0  0  0  0  0  0  0
   36.9240   24.5090   38.0620 H   0  0  0  0  0  0  0  0  0  0  0  0
  1 14  1  0  0  0  0
  2  1  2  0  0  0  0
  3  4  1  0  0  0  0
  3  1  1  0  0  0  0
  4  5  1  0  0  0  0
  6  4  2  0  0  0  0
  7  6  1  0  0  0  0
  8  7  2  0  0  0  0
  8 13  1  0  0  0  0
  9  8  1  0  0  0  0
 10  9  2  0  0  0  0
 10 11  1  0  0  0  0
 11 12  2  0  0  0  0
 12 13  1  0  0  0  0
 13  3  2  0  0  0  0
 14 19  2  0  0  0  0
 14 15  1  0  0  0  0
 15 16  2  0  0  0  0
 16 17  1  0  0  0  0
 16 21  1  0  0  0  0
 18 22  1  0  0  0  0
 18 17  2  0  0  0  0
 19 18  1  0  0  0  0
 20 15  1  0  0  0  0
M  END
>  <minimizedAffinity>
-4.92428112

$$$$
