
 OpenBabel03272503503D

 39 42  0  0  1  0  0  0  0  0999 V2000
   33.1980   27.2840   45.8850 C   0  0  1  0  0  0  0  0  0  0  0  0
   33.8730   27.4460   47.2640 C   0  0  2  0  0  0  0  0  0  0  0  0
   33.6720   26.2470   47.8670 O   0  0  0  0  0  0  0  0  0  0  0  0
   34.0010   25.3160   46.8940 C   0  0  0  0  0  0  0  0  0  0  0  0
   33.5780   25.8640   45.5470 C   0  0  2  0  0  0  0  0  0  0  0  0
   33.6310   28.0260   45.1850 H   0  0  0  0  0  0  0  0  0  0  0  0
   34.9320   27.6770   47.0080 H   0  0  0  0  0  0  0  0  0  0  0  0
   35.0600   25.0090   46.9140 H   0  0  0  0  0  0  0  0  0  0  0  0
   33.3890   24.4090   47.0830 H   0  0  0  0  0  0  0  0  0  0  0  0
   32.6900   25.3330   45.1540 H   0  0  0  0  0  0  0  0  0  0  0  0
   31.8400   27.5110   45.9830 O   0  0  0  0  0  0  0  0  0  0  0  0
   31.5400   28.1740   45.3090 H   0  0  0  0  0  0  0  0  0  0  0  0
   33.2430   28.5290   47.8250 O   0  0  0  0  0  0  0  0  0  0  0  0
   35.3320   29.7700   46.7840 O   0  0  0  0  0  0  0  0  0  0  0  0
   34.0690   29.9810   47.6140 P   0  0  1  0  0  0  0  0  0  0  0  0
   33.1270   31.0600   46.7110 O   0  0  0  0  0  0  0  0  0  0  0  0
   32.3970   31.3520   47.3410 H   0  0  0  0  0  0  0  0  0  0  0  0
   34.3760   30.6050   49.1730 O   0  0  0  0  0  0  0  0  0  0  0  0
   35.6210   30.4860   49.7730 C   0  0  0  0  0  0  0  0  0  0  0  0
   35.9800   29.4590   50.6790 C   0  0  0  0  0  0  0  0  0  0  0  0
   37.2660   29.4720   51.1990 C   0  0  0  0  0  0  0  0  0  0  0  0
   38.1210   30.4740   50.8130 N   0  0  0  0  0  0  0  0  0  0  0  0
   37.7480   31.4460   49.9430 C   0  0  0  0  0  0  0  0  0  0  0  0
   36.4940   31.4550   49.4190 N   0  0  0  0  0  0  0  0  0  0  0  0
   35.2320   28.7410   50.8990 H   0  0  0  0  0  0  0  0  0  0  0  0
   37.5330   28.7010   51.8780 H   0  0  0  0  0  0  0  0  0  0  0  0
   38.4330   32.2280   49.6490 H   0  0  0  0  0  0  0  0  0  0  0  0
   34.6300   25.8370   44.6720 O   0  0  0  0  0  0  0  0  0  0  0  0
   34.6440   25.0360   43.5600 C   0  0  0  0  0  0  0  0  0  0  0  0
   33.8290   24.9660   42.4700 C   0  0  0  0  0  0  0  0  0  0  0  0
   33.0100   25.6640   42.4590 H   0  0  0  0  0  0  0  0  0  0  0  0
   34.0040   24.0790   41.4340 C   0  0  0  0  0  3  0  0  0  0  0  0
   35.0510   23.1810   41.4400 C   0  0  0  0  0  3  0  0  0  0  0  0
   35.9030   23.2300   42.5440 C   0  0  0  0  0  0  0  0  0  0  0  0
   36.9320   22.3100   42.4990 C   0  0  0  0  0  3  0  0  0  0  0  0
   37.8280   22.2780   43.5400 C   0  0  0  0  0  3  0  0  0  0  0  0
   37.6830   23.1500   44.5930 C   0  0  0  0  0  3  0  0  0  0  0  0
   36.6430   24.0550   44.6060 C   0  0  0  0  0  3  0  0  0  0  0  0
   35.7150   24.1330   43.5880 C   0  0  0  0  0  0  0  0  0  0  0  0
  1  6  1  6  0  0  0
  1 11  1  0  0  0  0
  1  2  1  0  0  0  0
  2  7  1  6  0  0  0
  2 13  1  0  0  0  0
  2  3  1  0  0  0  0
  4  8  1  0  0  0  0
  4  9  1  0  0  0  0
  4  3  1  0  0  0  0
  5 10  1  6  0  0  0
  5  1  1  0  0  0  0
  5  4  1  0  0  0  0
 12 11  1  0  0  0  0
 15 14  2  6  0  0  0
 15 13  1  0  0  0  0
 15 18  1  0  0  0  0
 16 17  1  0  0  0  0
 16 15  1  0  0  0  0
 18 19  1  0  0  0  0
 19 20  1  0  0  0  0
 20 25  1  0  0  0  0
 20 21  2  0  0  0  0
 21 26  1  0  0  0  0
 22 21  1  0  0  0  0
 23 22  2  0  0  0  0
 24 19  2  0  0  0  0
 24 23  1  0  0  0  0
 27 23  1  0  0  0  0
 28  5  1  0  0  0  0
 29 39  1  0  0  0  0
 29 28  1  0  0  0  0
 30 29  2  0  0  0  0
 31 30  1  0  0  0  0
 32 33  2  0  0  0  0
 32 30  1  0  0  0  0
 33 34  1  0  0  0  0
 34 39  1  0  0  0  0
 35 34  2  0  0  0  0
 35 36  1  0  0  0  0
 36 37  2  0  0  0  0
 37 38  1  0  0  0  0
 39 38  2  0  0  0  0
M  END
>  <minimizedAffinity>
-4.34935093

>  <minimizedRMSD>
1.0354929

$$$$
