
 OpenBabel03272503303D

 36 39  0  0  1  0  0  0  0  0999 V2000
   35.0160   29.4300   48.0020 C   0  0  0  0  0  0  0  0  0  0  0  0
   34.8580   29.9480   46.7060 C   0  0  0  0  0  0  0  0  0  0  0  0
   33.6740   29.6700   46.0350 C   0  0  0  0  0  0  0  0  0  0  0  0
   32.7450   28.9070   46.6920 N   0  0  0  0  0  0  0  0  0  0  0  0
   32.9250   28.4300   47.9240 C   0  0  0  0  0  0  0  0  0  0  0  0
   34.0600   28.6850   48.5900 N   0  0  0  0  0  0  0  0  0  0  0  0
   35.6060   30.5490   46.2090 H   0  0  0  0  0  0  0  0  0  0  0  0
   33.4720   30.0280   45.0410 H   0  0  0  0  0  0  0  0  0  0  0  0
   36.2440   29.7270   48.6810 N   0  0  0  0  0  0  0  0  0  0  0  0
   37.3480   30.4960   48.1750 C   0  0  0  0  0  0  0  0  0  0  0  0
   37.9510   31.0800   49.4590 C   0  0  2  0  0  0  0  0  0  0  0  0
   37.0350   30.6510   50.5810 C   0  0  0  0  0  0  0  0  0  0  0  0
   36.6010   29.3010   50.0130 C   0  0  0  0  0  0  0  0  0  0  0  0
   37.0780   31.2790   47.4650 H   0  0  0  0  0  0  0  0  0  0  0  0
   38.0630   29.7580   47.7220 H   0  0  0  0  0  0  0  0  0  0  0  0
   38.9220   30.6030   49.6430 H   0  0  0  0  0  0  0  0  0  0  0  0
   36.1330   31.2880   50.6630 H   0  0  0  0  0  0  0  0  0  0  0  0
   37.5440   30.4710   51.5260 H   0  0  0  0  0  0  0  0  0  0  0  0
   37.4100   28.5570   50.0520 H   0  0  0  0  0  0  0  0  0  0  0  0
   35.6890   29.0270   50.5520 H   0  0  0  0  0  0  0  0  0  0  0  0
   38.1270   32.5650   49.3810 C   0  0  0  0  0  0  0  0  0  0  0  0
   36.9790   33.1140   49.9230 F   0  0  0  0  0  0  0  0  0  0  0  0
   38.1360   32.9220   48.0570 F   0  0  0  0  0  0  0  0  0  0  0  0
   39.2540   33.0160   49.9980 F   0  0  0  0  0  0  0  0  0  0  0  0
   31.6760   27.4380   48.7230 S   0  0  0  0  0  0  0  0  0  0  0  0
   30.0800   27.6520   47.9490 C   0  0  0  0  0  0  0  0  0  0  0  0
   29.1710   28.6560   48.2260 C   0  0  0  0  0  0  0  0  0  0  0  0
   29.4710   29.3630   48.9790 H   0  0  0  0  0  0  0  0  0  0  0  0
   27.9620   28.6840   47.5310 C   0  0  0  0  0  3  0  0  0  0  0  0
   27.6610   27.7330   46.5780 C   0  0  0  0  0  3  0  0  0  0  0  0
   28.5740   26.7310   46.3050 C   0  0  0  0  0  0  0  0  0  0  0  0
   28.2610   25.7740   45.3410 C   0  0  0  0  0  3  0  0  0  0  0  0
   29.1530   24.7610   45.0450 C   0  0  0  0  0  3  0  0  0  0  0  0
   30.3460   24.7080   45.7100 C   0  0  0  0  0  3  0  0  0  0  0  0
   30.6100   25.6650   46.6470 C   0  0  0  0  0  3  0  0  0  0  0  0
   29.7730   26.6980   46.9910 C   0  0  0  0  0  0  0  0  0  0  0  0
  1  6  1  0  0  0  0
  1  9  1  0  0  0  0
  2  1  2  0  0  0  0
  3  4  2  0  0  0  0
  3  2  1  0  0  0  0
  4  5  1  0  0  0  0
  5  6  2  0  0  0  0
  5 25  1  0  0  0  0
  7  2  1  0  0  0  0
  8  3  1  0  0  0  0
  9 13  1  0  0  0  0
 10  9  1  0  0  0  0
 10 11  1  0  0  0  0
 11 16  1  1  0  0  0
 11 12  1  0  0  0  0
 12 17  1  0  0  0  0
 12 18  1  0  0  0  0
 13 19  1  0  0  0  0
 13 20  1  0  0  0  0
 13 12  1  0  0  0  0
 14 10  1  0  0  0  0
 15 10  1  0  0  0  0
 21 11  1  0  0  0  0
 21 22  1  0  0  0  0
 21 24  1  0  0  0  0
 23 21  1  0  0  0  0
 26 27  1  0  0  0  0
 26 25  1  0  0  0  0
 27 28  1  0  0  0  0
 29 27  2  0  0  0  0
 30 29  1  0  0  0  0
 31 30  2  0  0  0  0
 31 36  1  0  0  0  0
 32 31  1  0  0  0  0
 33 32  2  0  0  0  0
 33 34  1  0  0  0  0
 34 35  2  0  0  0  0
 35 36  1  0  0  0  0
 36 26  2  0  0  0  0
M  END
>  <minimizedAffinity>
-6.50790453

>  <minimizedRMSD>
1.24375379

$$$$
