
     RDKit          3D

 39 42  0  0  0  0  0  0  0  0999 V2000
   34.6580   28.3078   49.5772 C   0  0  0  0  0  0  0  0  0  0  0  0
   37.2853   30.1716   51.3930 C   0  0  0  0  0  0  0  0  0  0  0  0
   38.0790   30.6858   50.3503 C   0  0  0  0  0  0  0  0  0  0  0  0
   37.6868   30.3751   49.0248 C   0  0  0  0  0  0  0  0  0  0  0  0
   36.5867   29.6120   48.8264 N   0  0  0  0  0  0  0  0  0  0  0  0
   35.8594   29.1434   49.8657 C   0  0  0  0  0  0  0  0  0  0  0  0
   36.2234   29.4321   51.1091 N   0  0  0  0  0  0  0  0  0  0  0  0
   34.4355   28.2698   48.0824 C   0  0  0  0  0  0  0  0  0  0  0  0
   32.9559   28.2648   47.8933 C   0  0  0  0  0  0  0  0  0  0  0  0
   32.0150   27.5906   48.6543 C   0  0  0  0  0  0  0  0  0  0  0  0
   30.7460   27.8468   48.1500 C   0  0  0  0  0  0  0  0  0  0  0  0
   30.9574   28.6756   47.0893 N   0  0  0  0  0  0  0  0  0  0  0  0
   32.2597   28.9105   46.9531 N   0  0  0  0  0  0  0  0  0  0  0  0
   33.7696   28.7382   50.1134 H   0  0  0  0  0  0  0  0  0  0  0  0
   34.8855   27.2818   49.9539 H   0  0  0  0  0  0  0  0  0  0  0  0
   37.6005   30.4198   52.4100 H   0  0  0  0  0  0  0  0  0  0  0  0
   38.9586   31.2959   50.5050 H   0  0  0  0  0  0  0  0  0  0  0  0
   38.2616   30.7444   48.1697 H   0  0  0  0  0  0  0  0  0  0  0  0
   34.8860   27.3303   47.6856 H   0  0  0  0  0  0  0  0  0  0  0  0
   34.8640   29.1470   47.5883 H   0  0  0  0  0  0  0  0  0  0  0  0
   32.2876   26.9741   49.5001 H   0  0  0  0  0  0  0  0  0  0  0  0
   29.8336   27.4396   48.5641 H   0  0  0  0  0  0  0  0  0  0  0  0
   29.8152   29.1164   46.3593 C   0  0  0  0  0  0  0  0  0  0  0  0
   29.8302   29.0664   44.9658 C   0  0  0  0  0  0  0  0  0  0  0  0
   30.6990   28.6972   44.4384 H   0  0  0  0  0  0  0  0  0  0  0  0
   28.7789   29.4685   44.1785 C   0  0  0  0  0  0  0  0  0  0  0  0
   27.6305   29.9536   44.7777 C   0  0  0  0  0  0  0  0  0  0  0  0
   27.5811   30.0171   46.1608 C   0  0  0  0  0  0  0  0  0  0  0  0
   26.4439   30.4985   46.7883 C   0  0  0  0  0  0  0  0  0  0  0  0
   26.3363   30.5854   48.1581 C   0  0  0  0  0  0  0  0  0  0  0  0
   27.4378   30.1609   48.8824 C   0  0  0  0  0  0  0  0  0  0  0  0
   28.5801   29.6781   48.2769 C   0  0  0  0  0  0  0  0  0  0  0  0
   28.6587   29.6032   46.9113 C   0  0  0  0  0  0  0  0  0  0  0  0
   28.8487   29.4057   43.0822 H   0  0  0  0  0  0  0  0  0  0  0  0
   26.7859   30.2781   44.1916 H   0  0  0  0  0  0  0  0  0  0  0  0
   25.6189   30.8136   46.1530 H   0  0  0  0  0  0  0  0  0  0  0  0
   25.4442   30.9620   48.6209 H   0  0  0  0  0  0  0  0  0  0  0  0
   27.3701   30.2226   49.9701 H   0  0  0  0  0  0  0  0  0  0  0  0
   29.3994   29.3653   48.9093 H   0  0  0  0  0  0  0  0  0  0  0  0
  1  6  1  0
  3  2  2  0
  4  3  1  0
  5  4  2  0
  5  6  1  0
  6  7  2  0
  7  2  1  0
  8  1  1  0
  9  8  1  0
  9 10  1  0
 11 10  2  0
 12 11  1  0
 13 12  1  0
 13  9  2  0
  1 14  1  0
  1 15  1  0
  2 16  1  0
  3 17  1  0
  4 18  1  0
  8 19  1  0
  8 20  1  0
 10 21  1  0
 11 22  1  0
 23 24  2  0
 24 25  1  0
 24 26  1  0
 26 27  2  0
 27 28  1  0
 28 29  2  0
 29 30  1  0
 30 31  2  0
 31 32  1  0
 32 33  2  0
 33 23  1  0
 33 28  1  0
 26 34  1  0
 27 35  1  0
 29 36  1  0
 30 37  1  0
 31 38  1  0
 32 39  1  0
 12 23  1  0
M  ISO  8  14   8  15   8  16  14  17  14  18  14  19   8  20   8  21  14
M  ISO  2  22  14  25  15
M  END
>  <DihAtoms>  (1) 
10,11,22,23

>  <DihDeg>  (1) 
46.61454175010561

$$$$
