
 OpenBabel03262520473D

 36 39  0  0  1  0  0  0  0  0999 V2000
   36.6580   27.7540   34.1470 C   0  0  1  0  0  0  0  0  0  0  0  0
   36.8780   26.5420   33.2540 C   0  0  0  0  0  0  0  0  0  0  0  0
   38.0180   27.3820   33.6780 C   0  0  2  0  0  0  0  0  0  0  0  0
   36.2960   27.4870   35.1580 H   0  0  0  0  0  0  0  0  0  0  0  0
   36.5700   26.6270   32.1710 H   0  0  0  0  0  0  0  0  0  0  0  0
   36.7940   25.5300   33.6710 H   0  0  0  0  0  0  0  0  0  0  0  0
   38.4420   28.1210   32.9350 H   0  0  0  0  0  0  0  0  0  0  0  0
   35.9100   28.8810   33.4760 C   0  0  0  0  0  0  0  0  0  0  0  0
   36.5800   29.4280   32.7720 H   0  0  0  0  0  0  0  0  0  0  0  0
   35.0950   28.4140   32.8800 H   0  0  0  0  0  0  0  0  0  0  0  0
   33.4610   30.9110   35.4510 C   0  0  0  0  0  0  0  0  0  0  0  0
   34.0040   29.9820   34.4980 C   0  0  0  0  0  0  0  0  0  0  0  0
   35.3770   29.8390   34.4620 C   0  0  0  0  0  0  0  0  0  0  0  0
   36.1330   30.5650   35.3080 N   0  0  0  0  0  0  0  0  0  0  0  0
   35.6050   31.4300   36.1930 C   0  0  0  0  0  0  0  0  0  0  0  0
   34.2860   31.5910   36.2520 N   0  0  0  0  0  0  0  0  0  0  0  0
   32.4090   31.0380   35.4970 H   0  0  0  0  0  0  0  0  0  0  0  0
   33.3180   29.4410   33.8570 H   0  0  0  0  0  0  0  0  0  0  0  0
   36.4160   31.8890   36.7580 H   0  0  0  0  0  0  0  0  0  0  0  0
   38.9930   26.9770   34.7370 C   0  0  0  0  0  0  0  0  0  0  0  0
   39.7890   27.7110   34.8220 H   0  0  0  0  0  0  0  0  0  0  0  0
   38.4860   26.9860   35.7550 H   0  0  0  0  0  0  0  0  0  0  0  0
   39.5300   25.5780   34.5590 C   0  0  0  0  0  0  0  0  0  0  0  0
   40.6080   25.6840   34.2820 H   0  0  0  0  0  0  0  0  0  0  0  0
   39.0420   25.1260   33.6480 H   0  0  0  0  0  0  0  0  0  0  0  0
   39.3130   24.7180   35.7450 C   0  0  0  0  0  0  0  0  0  0  0  0
   38.1970   24.9850   36.5220 C   0  0  0  0  0  0  0  0  0  0  0  0
   37.4640   25.7460   36.3420 H   0  0  0  0  0  0  0  0  0  0  0  0
   37.9500   24.2190   37.6650 C   0  0  0  0  0  3  0  0  0  0  0  0
   38.8250   23.1990   38.0100 C   0  0  0  0  0  3  0  0  0  0  0  0
   39.9390   22.9410   37.2250 C   0  0  0  0  0  0  0  0  0  0  0  0
   40.8330   21.9350   37.5240 C   0  0  0  0  0  3  0  0  0  0  0  0
   41.9600   21.6410   36.7570 C   0  0  0  0  0  3  0  0  0  0  0  0
   42.1770   22.4220   35.6250 C   0  0  0  0  0  3  0  0  0  0  0  0
   41.2800   23.4260   35.3310 C   0  0  0  0  0  3  0  0  0  0  0  0
   40.1840   23.7060   36.0850 C   0  0  0  0  0  0  0  0  0  0  0  0
  1  4  1  1  0  0  0
  2  6  1  0  0  0  0
  2  3  1  0  0  0  0
  2  1  1  0  0  0  0
  3  7  1  6  0  0  0
  3  1  1  0  0  0  0
  3 20  1  0  0  0  0
  5  2  1  0  0  0  0
  8  1  1  0  0  0  0
  8 13  1  0  0  0  0
  9  8  1  0  0  0  0
 10  8  1  0  0  0  0
 11 17  1  0  0  0  0
 11 16  1  0  0  0  0
 12 11  2  0  0  0  0
 13 12  1  0  0  0  0
 13 14  2  0  0  0  0
 14 15  1  0  0  0  0
 15 16  2  0  0  0  0
 15 19  1  0  0  0  0
 18 12  1  0  0  0  0
 20 21  1  0  0  0  0
 20 22  1  0  0  0  0
 23 20  1  0  0  0  0
 23 26  1  0  0  0  0
 24 23  1  0  0  0  0
 25 23  1  0  0  0  0
 26 36  2  0  0  0  0
 26 27  1  0  0  0  0
 27 29  2  0  0  0  0
 28 27  1  0  0  0  0
 29 30  1  0  0  0  0
 31 32  1  0  0  0  0
 31 30  2  0  0  0  0
 33 32  2  0  0  0  0
 34 33  1  0  0  0  0
 35 34  2  0  0  0  0
 35 36  1  0  0  0  0
 36 31  1  0  0  0  0
M  END
>  <minimizedAffinity>
-5.72926569

$$$$

 OpenBabel03262520473D

 36 39  0  0  1  0  0  0  0  0999 V2000
   38.2880   25.7850   35.5330 C   0  0  1  0  0  0  0  0  0  0  0  0
   38.2180   27.2270   36.0160 C   0  0  0  0  0  0  0  0  0  0  0  0
   39.4750   26.6760   35.4660 C   0  0  2  0  0  0  0  0  0  0  0  0
   37.6520   25.5940   34.6490 H   0  0  0  0  0  0  0  0  0  0  0  0
   38.1960   27.4050   37.1300 H   0  0  0  0  0  0  0  0  0  0  0  0
   37.6770   27.9770   35.4260 H   0  0  0  0  0  0  0  0  0  0  0  0
   40.2880   26.3770   36.1900 H   0  0  0  0  0  0  0  0  0  0  0  0
   38.1730   24.7640   36.6380 C   0  0  0  0  0  0  0  0  0  0  0  0
   38.3200   25.2480   37.6320 H   0  0  0  0  0  0  0  0  0  0  0  0
   37.1340   24.3670   36.6020 H   0  0  0  0  0  0  0  0  0  0  0  0
   40.6740   22.1230   37.5280 C   0  0  0  0  0  0  0  0  0  0  0  0
   39.7020   23.1740   37.6520 C   0  0  0  0  0  0  0  0  0  0  0  0
   39.1680   23.6850   36.4860 C   0  0  0  0  0  0  0  0  0  0  0  0
   39.5750   23.1840   35.3040 N   0  0  0  0  0  0  0  0  0  0  0  0
   40.4860   22.2000   35.2090 C   0  0  0  0  0  0  0  0  0  0  0  0
   41.0200   21.6860   36.3140 N   0  0  0  0  0  0  0  0  0  0  0  0
   41.0990   21.7140   38.4100 H   0  0  0  0  0  0  0  0  0  0  0  0
   39.4340   23.5150   38.6450 H   0  0  0  0  0  0  0  0  0  0  0  0
   40.6450   21.9710   34.1560 H   0  0  0  0  0  0  0  0  0  0  0  0
   39.9860   26.9930   34.0960 C   0  0  0  0  0  0  0  0  0  0  0  0
   39.6930   27.9970   33.8030 H   0  0  0  0  0  0  0  0  0  0  0  0
   41.1230   27.0160   34.1030 H   0  0  0  0  0  0  0  0  0  0  0  0
   39.6040   25.9660   33.0580 C   0  0  0  0  0  0  0  0  0  0  0  0
   39.5400   24.9850   33.5890 H   0  0  0  0  0  0  0  0  0  0  0  0
   40.4670   25.8500   32.3420 H   0  0  0  0  0  0  0  0  0  0  0  0
   38.3650   26.3150   32.3240 C   0  0  0  0  0  0  0  0  0  0  0  0
   38.1910   27.6470   31.9790 C   0  0  0  0  0  0  0  0  0  0  0  0
   38.8710   28.4500   32.1790 H   0  0  0  0  0  0  0  0  0  0  0  0
   37.0330   28.0400   31.3030 C   0  0  0  0  0  3  0  0  0  0  0  0
   36.0690   27.0930   30.9830 C   0  0  0  0  0  3  0  0  0  0  0  0
   36.2550   25.7640   31.3330 C   0  0  0  0  0  0  0  0  0  0  0  0
   35.3300   24.7880   31.0320 C   0  0  0  0  0  3  0  0  0  0  0  0
   35.4830   23.4420   31.3610 C   0  0  0  0  0  3  0  0  0  0  0  0
   36.6470   23.0830   32.0340 C   0  0  0  0  0  3  0  0  0  0  0  0
   37.5690   24.0630   32.3330 C   0  0  0  0  0  3  0  0  0  0  0  0
   37.4110   25.3730   32.0080 C   0  0  0  0  0  0  0  0  0  0  0  0
  1  4  1  6  0  0  0
  1  2  1  0  0  0  0
  1  8  1  0  0  0  0
  2  5  1  0  0  0  0
  3  1  1  0  0  0  0
  3  2  1  0  0  0  0
  3  7  1  1  0  0  0
  6  2  1  0  0  0  0
  8  9  1  0  0  0  0
 10  8  1  0  0  0  0
 11 12  1  0  0  0  0
 11 17  1  0  0  0  0
 12 18  1  0  0  0  0
 13  8  1  0  0  0  0
 13 12  2  0  0  0  0
 14 13  1  0  0  0  0
 15 14  2  0  0  0  0
 15 16  1  0  0  0  0
 16 11  2  0  0  0  0
 19 15  1  0  0  0  0
 20 22  1  0  0  0  0
 20  3  1  0  0  0  0
 21 20  1  0  0  0  0
 23 24  1  0  0  0  0
 23 20  1  0  0  0  0
 25 23  1  0  0  0  0
 26 23  1  0  0  0  0
 27 28  1  0  0  0  0
 27 26  2  0  0  0  0
 29 27  1  0  0  0  0
 30 29  2  0  0  0  0
 30 31  1  0  0  0  0
 31 36  1  0  0  0  0
 32 31  2  0  0  0  0
 32 33  1  0  0  0  0
 33 34  2  0  0  0  0
 34 35  1  0  0  0  0
 36 26  1  0  0  0  0
 36 35  2  0  0  0  0
M  END
>  <minimizedAffinity>
-5.64283895

$$$$

 OpenBabel03262520473D

 36 39  0  0  1  0  0  0  0  0999 V2000
   35.5030   29.0090   33.7730 C   0  0  1  0  0  0  0  0  0  0  0  0
   35.6450   28.4650   32.3590 C   0  0  0  0  0  0  0  0  0  0  0  0
   36.7210   28.2700   33.3530 C   0  0  2  0  0  0  0  0  0  0  0  0
   34.6920   28.5190   34.3450 H   0  0  0  0  0  0  0  0  0  0  0  0
   35.8560   29.2050   31.5320 H   0  0  0  0  0  0  0  0  0  0  0  0
   35.0620   27.5900   32.0460 H   0  0  0  0  0  0  0  0  0  0  0  0
   37.6340   28.9330   33.2880 H   0  0  0  0  0  0  0  0  0  0  0  0
   35.5240   30.5160   33.8540 C   0  0  0  0  0  0  0  0  0  0  0  0
   36.5740   30.8910   33.8480 H   0  0  0  0  0  0  0  0  0  0  0  0
   35.0200   30.8930   32.9370 H   0  0  0  0  0  0  0  0  0  0  0  0
   32.8970   31.0130   36.4760 C   0  0  0  0  0  0  0  0  0  0  0  0
   33.5680   30.5530   35.2920 C   0  0  0  0  0  0  0  0  0  0  0  0
   34.8560   31.0020   35.0770 C   0  0  0  0  0  0  0  0  0  0  0  0
   35.4150   31.8380   35.9720 N   0  0  0  0  0  0  0  0  0  0  0  0
   34.7700   32.2570   37.0750 C   0  0  0  0  0  0  0  0  0  0  0  0
   33.5280   31.8430   37.3100 N   0  0  0  0  0  0  0  0  0  0  0  0
   31.9070   30.6810   36.6620 H   0  0  0  0  0  0  0  0  0  0  0  0
   33.0390   29.8800   34.6270 H   0  0  0  0  0  0  0  0  0  0  0  0
   35.4300   32.9200   37.6340 H   0  0  0  0  0  0  0  0  0  0  0  0
   36.9780   26.9710   34.0480 C   0  0  0  0  0  0  0  0  0  0  0  0
   36.0430   26.4600   34.2580 H   0  0  0  0  0  0  0  0  0  0  0  0
   37.5410   26.2660   33.3560 H   0  0  0  0  0  0  0  0  0  0  0  0
   37.8380   27.1060   35.2810 C   0  0  0  0  0  0  0  0  0  0  0  0
   37.2110   26.7750   36.1450 H   0  0  0  0  0  0  0  0  0  0  0  0
   38.0230   28.2040   35.4640 H   0  0  0  0  0  0  0  0  0  0  0  0
   39.1220   26.3750   35.1770 C   0  0  0  0  0  0  0  0  0  0  0  0
   40.1680   27.0240   34.5390 C   0  0  0  0  0  0  0  0  0  0  0  0
   40.1440   28.0120   34.1240 H   0  0  0  0  0  0  0  0  0  0  0  0
   41.3970   26.3760   34.3930 C   0  0  0  0  0  3  0  0  0  0  0  0
   41.5590   25.0900   34.8890 C   0  0  0  0  0  3  0  0  0  0  0  0
   40.5060   24.4510   35.5250 C   0  0  0  0  0  0  0  0  0  0  0  0
   40.6200   23.1770   36.0380 C   0  0  0  0  0  3  0  0  0  0  0  0
   39.5880   22.5030   36.6890 C   0  0  0  0  0  3  0  0  0  0  0  0
   38.3760   23.1760   36.8190 C   0  0  0  0  0  3  0  0  0  0  0  0
   38.2670   24.4490   36.3040 C   0  0  0  0  0  3  0  0  0  0  0  0
   39.2800   25.0980   35.6700 C   0  0  0  0  0  0  0  0  0  0  0  0
  1  8  1  0  0  0  0
  1  4  1  1  0  0  0
  2  3  1  0  0  0  0
  2  1  1  0  0  0  0
  3  7  1  6  0  0  0
  3  1  1  0  0  0  0
  3 20  1  0  0  0  0
  5  2  1  0  0  0  0
  6  2  1  0  0  0  0
  8 13  1  0  0  0  0
  9  8  1  0  0  0  0
 10  8  1  0  0  0  0
 11 17  1  0  0  0  0
 11 16  1  0  0  0  0
 12 11  2  0  0  0  0
 13 12  1  0  0  0  0
 13 14  2  0  0  0  0
 14 15  1  0  0  0  0
 15 16  2  0  0  0  0
 15 19  1  0  0  0  0
 18 12  1  0  0  0  0
 20 21  1  0  0  0  0
 20 23  1  0  0  0  0
 22 20  1  0  0  0  0
 23 25  1  0  0  0  0
 23 24  1  0  0  0  0
 26 23  1  0  0  0  0
 26 36  1  0  0  0  0
 27 26  2  0  0  0  0
 28 27  1  0  0  0  0
 29 27  1  0  0  0  0
 29 30  2  0  0  0  0
 30 31  1  0  0  0  0
 31 36  2  0  0  0  0
 31 32  1  0  0  0  0
 32 33  2  0  0  0  0
 33 34  1  0  0  0  0
 35 34  2  0  0  0  0
 36 35  1  0  0  0  0
M  END
>  <minimizedAffinity>
-5.58784342

$$$$

 OpenBabel03262520473D

 36 39  0  0  1  0  0  0  0  0999 V2000
   37.0950   26.6370   34.1550 C   0  0  1  0  0  0  0  0  0  0  0  0
   37.1650   28.0090   34.8090 C   0  0  0  0  0  0  0  0  0  0  0  0
   37.0960   27.8770   33.3390 C   0  0  2  0  0  0  0  0  0  0  0  0
   36.1600   26.0940   34.3900 H   0  0  0  0  0  0  0  0  0  0  0  0
   38.1590   28.3350   35.2360 H   0  0  0  0  0  0  0  0  0  0  0  0
   36.2910   28.4120   35.3370 H   0  0  0  0  0  0  0  0  0  0  0  0
   38.0490   28.0100   32.7460 H   0  0  0  0  0  0  0  0  0  0  0  0
   38.3600   25.8250   34.2990 C   0  0  0  0  0  0  0  0  0  0  0  0
   38.7680   25.5610   33.2950 H   0  0  0  0  0  0  0  0  0  0  0  0
   39.1030   26.4770   34.8090 H   0  0  0  0  0  0  0  0  0  0  0  0
   37.6590   23.5230   37.1670 C   0  0  0  0  0  0  0  0  0  0  0  0
   37.8920   24.7220   36.4090 C   0  0  0  0  0  0  0  0  0  0  0  0
   38.1220   24.5820   35.0550 C   0  0  0  0  0  0  0  0  0  0  0  0
   38.1190   23.3480   34.5150 N   0  0  0  0  0  0  0  0  0  0  0  0
   37.8980   22.2380   35.2420 C   0  0  0  0  0  0  0  0  0  0  0  0
   37.6730   22.3400   36.5490 N   0  0  0  0  0  0  0  0  0  0  0  0
   37.4790   23.6060   38.2090 H   0  0  0  0  0  0  0  0  0  0  0  0
   37.8770   25.6730   36.9290 H   0  0  0  0  0  0  0  0  0  0  0  0
   37.9450   21.3730   34.5810 H   0  0  0  0  0  0  0  0  0  0  0  0
   35.8590   28.1450   32.5420 C   0  0  0  0  0  0  0  0  0  0  0  0
   35.9840   27.8060   31.5190 H   0  0  0  0  0  0  0  0  0  0  0  0
   34.9970   27.5220   32.9460 H   0  0  0  0  0  0  0  0  0  0  0  0
   35.3950   29.5790   32.6110 C   0  0  0  0  0  0  0  0  0  0  0  0
   35.1200   29.8750   31.5690 H   0  0  0  0  0  0  0  0  0  0  0  0
   36.2830   30.2250   32.8680 H   0  0  0  0  0  0  0  0  0  0  0  0
   34.3010   29.7900   33.5870 C   0  0  0  0  0  0  0  0  0  0  0  0
   33.0860   29.1800   33.3130 C   0  0  0  0  0  0  0  0  0  0  0  0
   32.8630   28.5580   32.4700 H   0  0  0  0  0  0  0  0  0  0  0  0
   32.0110   29.3590   34.1870 C   0  0  0  0  0  3  0  0  0  0  0  0
   32.1690   30.1440   35.3200 C   0  0  0  0  0  3  0  0  0  0  0  0
   33.3890   30.7490   35.5830 C   0  0  0  0  0  0  0  0  0  0  0  0
   33.5960   31.5330   36.6980 C   0  0  0  0  0  3  0  0  0  0  0  0
   34.8080   32.1530   37.0010 C   0  0  0  0  0  3  0  0  0  0  0  0
   35.8600   31.9550   36.1110 C   0  0  0  0  0  3  0  0  0  0  0  0
   35.6470   31.1700   34.9980 C   0  0  0  0  0  3  0  0  0  0  0  0
   34.4620   30.5700   34.7110 C   0  0  0  0  0  0  0  0  0  0  0  0
  1  8  1  0  0  0  0
  1  4  1  1  0  0  0
  1  2  1  0  0  0  0
  2  5  1  0  0  0  0
  2  6  1  0  0  0  0
  3  7  1  6  0  0  0
  3  1  1  0  0  0  0
  3  2  1  0  0  0  0
  8 10  1  0  0  0  0
  8 13  1  0  0  0  0
  9  8  1  0  0  0  0
 11 17  1  0  0  0  0
 12 18  1  0  0  0  0
 12 11  2  0  0  0  0
 13 12  1  0  0  0  0
 14 13  2  0  0  0  0
 14 15  1  0  0  0  0
 15 16  2  0  0  0  0
 16 11  1  0  0  0  0
 19 15  1  0  0  0  0
 20 23  1  0  0  0  0
 20 22  1  0  0  0  0
 20  3  1  0  0  0  0
 21 20  1  0  0  0  0
 23 25  1  0  0  0  0
 23 26  1  0  0  0  0
 24 23  1  0  0  0  0
 26 36  1  0  0  0  0
 27 26  2  0  0  0  0
 27 29  1  0  0  0  0
 28 27  1  0  0  0  0
 29 30  2  0  0  0  0
 30 31  1  0  0  0  0
 31 32  1  0  0  0  0
 32 33  2  0  0  0  0
 34 33  1  0  0  0  0
 35 34  2  0  0  0  0
 36 35  1  0  0  0  0
 36 31  2  0  0  0  0
M  END
>  <minimizedAffinity>
-5.48002815

$$$$

 OpenBabel03262520473D

 36 39  0  0  1  0  0  0  0  0999 V2000
   38.1390   25.9290   35.5680 C   0  0  1  0  0  0  0  0  0  0  0  0
   38.2730   27.3550   36.0820 C   0  0  0  0  0  0  0  0  0  0  0  0
   39.3570   26.7320   35.2940 C   0  0  2  0  0  0  0  0  0  0  0  0
   37.3340   25.8140   34.8170 H   0  0  0  0  0  0  0  0  0  0  0  0
   38.4750   27.4980   37.1840 H   0  0  0  0  0  0  0  0  0  0  0  0
   37.6920   28.1630   35.6190 H   0  0  0  0  0  0  0  0  0  0  0  0
   40.2670   26.3510   35.8450 H   0  0  0  0  0  0  0  0  0  0  0  0
   38.1530   24.8830   36.6560 C   0  0  0  0  0  0  0  0  0  0  0  0
   38.4320   25.3430   37.6330 H   0  0  0  0  0  0  0  0  0  0  0  0
   37.1130   24.4970   36.7440 H   0  0  0  0  0  0  0  0  0  0  0  0
   40.6080   22.1030   37.1670 C   0  0  0  0  0  0  0  0  0  0  0  0
   39.6750   23.1610   37.4380 C   0  0  0  0  0  0  0  0  0  0  0  0
   39.1070   23.7990   36.3530 C   0  0  0  0  0  0  0  0  0  0  0  0
   39.4480   23.4070   35.1110 N   0  0  0  0  0  0  0  0  0  0  0  0
   40.3240   22.4140   34.8790 C   0  0  0  0  0  0  0  0  0  0  0  0
   40.8890   21.7790   35.9020 N   0  0  0  0  0  0  0  0  0  0  0  0
   41.0580   21.5970   37.9850 H   0  0  0  0  0  0  0  0  0  0  0  0
   39.4610   23.4090   38.4710 H   0  0  0  0  0  0  0  0  0  0  0  0
   40.4300   22.2860   33.8020 H   0  0  0  0  0  0  0  0  0  0  0  0
   39.6250   27.0560   33.8580 C   0  0  0  0  0  0  0  0  0  0  0  0
   39.7240   28.1280   33.7210 H   0  0  0  0  0  0  0  0  0  0  0  0
   40.6350   26.6340   33.5480 H   0  0  0  0  0  0  0  0  0  0  0  0
   38.6210   26.4530   32.9070 C   0  0  0  0  0  0  0  0  0  0  0  0
   37.9920   25.7520   33.5090 H   0  0  0  0  0  0  0  0  0  0  0  0
   39.1750   25.7910   32.1810 H   0  0  0  0  0  0  0  0  0  0  0  0
   37.8270   27.4700   32.1790 C   0  0  0  0  0  0  0  0  0  0  0  0
   36.7790   28.0620   32.8660 C   0  0  0  0  0  0  0  0  0  0  0  0
   36.4920   27.8670   33.8800 H   0  0  0  0  0  0  0  0  0  0  0  0
   35.9820   29.0150   32.2250 C   0  0  0  0  0  3  0  0  0  0  0  0
   36.2490   29.3590   30.9070 C   0  0  0  0  0  3  0  0  0  0  0  0
   37.3000   28.7600   30.2300 C   0  0  0  0  0  0  0  0  0  0  0  0
   37.6070   29.0730   28.9230 C   0  0  0  0  0  3  0  0  0  0  0  0
   38.6590   28.4970   28.2100 C   0  0  0  0  0  3  0  0  0  0  0  0
   39.4330   27.5520   28.8770 C   0  0  0  0  0  3  0  0  0  0  0  0
   39.1220   27.2430   30.1840 C   0  0  0  0  0  3  0  0  0  0  0  0
   38.0940   27.8100   30.8710 C   0  0  0  0  0  0  0  0  0  0  0  0
  1  4  1  6  0  0  0
  1  2  1  0  0  0  0
  1  8  1  0  0  0  0
  2  5  1  0  0  0  0
  3  1  1  0  0  0  0
  3  7  1  1  0  0  0
  3  2  1  0  0  0  0
  6  2  1  0  0  0  0
  8 10  1  0  0  0  0
  8  9  1  0  0  0  0
 11 12  1  0  0  0  0
 11 17  1  0  0  0  0
 12 18  1  0  0  0  0
 13  8  1  0  0  0  0
 13 12  2  0  0  0  0
 14 13  1  0  0  0  0
 15 14  2  0  0  0  0
 15 16  1  0  0  0  0
 16 11  2  0  0  0  0
 19 15  1  0  0  0  0
 20  3  1  0  0  0  0
 21 20  1  0  0  0  0
 22 20  1  0  0  0  0
 23 24  1  0  0  0  0
 23 20  1  0  0  0  0
 25 23  1  0  0  0  0
 26 27  1  0  0  0  0
 26 23  1  0  0  0  0
 27 28  1  0  0  0  0
 29 27  2  0  0  0  0
 30 29  1  0  0  0  0
 31 36  1  0  0  0  0
 31 30  2  0  0  0  0
 32 31  1  0  0  0  0
 33 34  1  0  0  0  0
 33 32  2  0  0  0  0
 34 35  2  0  0  0  0
 35 36  1  0  0  0  0
 36 26  2  0  0  0  0
M  END
>  <minimizedAffinity>
-5.45156479

$$$$

 OpenBabel03262520473D

 36 39  0  0  1  0  0  0  0  0999 V2000
   37.0000   26.9330   34.5000 C   0  0  1  0  0  0  0  0  0  0  0  0
   37.2530   28.1930   35.3150 C   0  0  0  0  0  0  0  0  0  0  0  0
   36.8440   28.2820   33.8970 C   0  0  2  0  0  0  0  0  0  0  0  0
   36.1310   26.3510   34.8610 H   0  0  0  0  0  0  0  0  0  0  0  0
   38.3250   28.4630   35.5440 H   0  0  0  0  0  0  0  0  0  0  0  0
   36.5330   28.5030   36.0840 H   0  0  0  0  0  0  0  0  0  0  0  0
   37.6370   28.5110   33.1260 H   0  0  0  0  0  0  0  0  0  0  0  0
   38.2440   26.1230   34.2250 C   0  0  0  0  0  0  0  0  0  0  0  0
   38.4200   26.0410   33.1270 H   0  0  0  0  0  0  0  0  0  0  0  0
   39.0970   26.6840   34.6670 H   0  0  0  0  0  0  0  0  0  0  0  0
   37.9730   23.3620   36.7400 C   0  0  0  0  0  0  0  0  0  0  0  0
   38.0730   24.6760   36.1660 C   0  0  0  0  0  0  0  0  0  0  0  0
   38.1410   24.7640   34.7900 C   0  0  0  0  0  0  0  0  0  0  0  0
   38.1100   23.6330   34.0600 N   0  0  0  0  0  0  0  0  0  0  0  0
   38.0160   22.4130   34.6160 C   0  0  0  0  0  0  0  0  0  0  0  0
   37.9500   22.2940   35.9390 N   0  0  0  0  0  0  0  0  0  0  0  0
   37.9200   23.2690   37.7950 H   0  0  0  0  0  0  0  0  0  0  0  0
   38.0910   25.5310   36.8330 H   0  0  0  0  0  0  0  0  0  0  0  0
   38.0090   21.6670   33.8220 H   0  0  0  0  0  0  0  0  0  0  0  0
   35.4630   28.6520   33.4570 C   0  0  0  0  0  0  0  0  0  0  0  0
   35.1810   28.0870   32.5740 H   0  0  0  0  0  0  0  0  0  0  0  0
   34.7080   28.3410   34.2490 H   0  0  0  0  0  0  0  0  0  0  0  0
   35.2690   30.1360   33.2660 C   0  0  0  0  0  0  0  0  0  0  0  0
   34.4470   30.2550   32.5180 H   0  0  0  0  0  0  0  0  0  0  0  0
   36.1850   30.5490   32.7540 H   0  0  0  0  0  0  0  0  0  0  0  0
   35.0130   30.8570   34.5350 C   0  0  0  0  0  0  0  0  0  0  0  0
   35.9820   31.7550   34.9550 C   0  0  0  0  0  0  0  0  0  0  0  0
   36.8940   31.9920   34.4450 H   0  0  0  0  0  0  0  0  0  0  0  0
   35.8050   32.4500   36.1540 C   0  0  0  0  0  3  0  0  0  0  0  0
   34.6630   32.2340   36.9120 C   0  0  0  0  0  3  0  0  0  0  0  0
   33.7010   31.3330   36.4810 C   0  0  0  0  0  0  0  0  0  0  0  0
   32.5480   31.0900   37.1960 C   0  0  0  0  0  3  0  0  0  0  0  0
   31.5560   30.1960   36.7940 C   0  0  0  0  0  3  0  0  0  0  0  0
   31.7610   29.5200   35.5950 C   0  0  0  0  0  3  0  0  0  0  0  0
   32.9160   29.7670   34.8840 C   0  0  0  0  0  3  0  0  0  0  0  0
   33.8780   30.6400   35.2840 C   0  0  0  0  0  0  0  0  0  0  0  0
  1  4  1  1  0  0  0
  1  2  1  0  0  0  0
  2  5  1  0  0  0  0
  2  6  1  0  0  0  0
  3  7  1  6  0  0  0
  3  1  1  0  0  0  0
  3  2  1  0  0  0  0
  8  1  1  0  0  0  0
  8 10  1  0  0  0  0
  8 13  1  0  0  0  0
  9  8  1  0  0  0  0
 11 17  1  0  0  0  0
 12 11  1  0  0  0  0
 12 18  1  0  0  0  0
 13 12  2  0  0  0  0
 14 15  2  0  0  0  0
 14 13  1  0  0  0  0
 15 16  1  0  0  0  0
 16 11  2  0  0  0  0
 19 15  1  0  0  0  0
 20  3  1  0  0  0  0
 20 22  1  0  0  0  0
 21 20  1  0  0  0  0
 23 20  1  0  0  0  0
 23 26  1  0  0  0  0
 24 23  1  0  0  0  0
 25 23  1  0  0  0  0
 26 27  2  0  0  0  0
 26 36  1  0  0  0  0
 27 29  1  0  0  0  0
 28 27  1  0  0  0  0
 29 30  2  0  0  0  0
 31 30  1  0  0  0  0
 31 32  1  0  0  0  0
 33 32  2  0  0  0  0
 34 33  1  0  0  0  0
 35 36  1  0  0  0  0
 35 34  2  0  0  0  0
 36 31  2  0  0  0  0
M  END
>  <minimizedAffinity>
-5.4089756

$$$$

 OpenBabel03262520473D

 36 39  0  0  1  0  0  0  0  0999 V2000
   40.5880   26.5620   32.4010 C   0  0  1  0  0  0  0  0  0  0  0  0
   41.8930   26.4520   33.1760 C   0  0  0  0  0  0  0  0  0  0  0  0
   40.7720   27.2630   33.6970 C   0  0  2  0  0  0  0  0  0  0  0  0
   40.0450   25.6010   32.3290 H   0  0  0  0  0  0  0  0  0  0  0  0
   42.7840   27.0240   32.7840 H   0  0  0  0  0  0  0  0  0  0  0  0
   42.1460   25.5200   33.6960 H   0  0  0  0  0  0  0  0  0  0  0  0
   40.8280   28.3860   33.5830 H   0  0  0  0  0  0  0  0  0  0  0  0
   40.7090   27.3260   31.1040 C   0  0  0  0  0  0  0  0  0  0  0  0
   41.3290   28.2420   31.2500 H   0  0  0  0  0  0  0  0  0  0  0  0
   41.2410   26.6620   30.3890 H   0  0  0  0  0  0  0  0  0  0  0  0
   36.9910   27.5420   30.7190 C   0  0  0  0  0  0  0  0  0  0  0  0
   38.2890   27.1650   31.2070 C   0  0  0  0  0  0  0  0  0  0  0  0
   39.3870   27.7280   30.5870 C   0  0  0  0  0  0  0  0  0  0  0  0
   39.1940   28.5910   29.5710 N   0  0  0  0  0  0  0  0  0  0  0  0
   37.9710   28.9300   29.1290 C   0  0  0  0  0  0  0  0  0  0  0  0
   36.8930   28.4040   29.7050 N   0  0  0  0  0  0  0  0  0  0  0  0
   36.1320   27.1220   31.1790 H   0  0  0  0  0  0  0  0  0  0  0  0
   38.3480   26.4630   32.0310 H   0  0  0  0  0  0  0  0  0  0  0  0
   38.0790   29.6370   28.3070 H   0  0  0  0  0  0  0  0  0  0  0  0
   39.8850   26.8230   34.8170 C   0  0  0  0  0  0  0  0  0  0  0  0
   40.4170   26.8630   35.7630 H   0  0  0  0  0  0  0  0  0  0  0  0
   39.0250   27.5580   34.9420 H   0  0  0  0  0  0  0  0  0  0  0  0
   39.2420   25.4780   34.5850 C   0  0  0  0  0  0  0  0  0  0  0  0
   39.8220   24.9850   33.7660 H   0  0  0  0  0  0  0  0  0  0  0  0
   38.2160   25.6470   34.1480 H   0  0  0  0  0  0  0  0  0  0  0  0
   39.1540   24.6560   35.8150 C   0  0  0  0  0  0  0  0  0  0  0  0
   38.1310   24.9560   36.7010 C   0  0  0  0  0  0  0  0  0  0  0  0
   37.3860   25.7160   36.5780 H   0  0  0  0  0  0  0  0  0  0  0  0
   38.0080   24.2280   37.8870 C   0  0  0  0  0  3  0  0  0  0  0  0
   38.9120   23.2120   38.1660 C   0  0  0  0  0  3  0  0  0  0  0  0
   39.9310   22.9210   37.2720 C   0  0  0  0  0  0  0  0  0  0  0  0
   40.8480   21.9180   37.5020 C   0  0  0  0  0  3  0  0  0  0  0  0
   41.8830   21.5920   36.6260 C   0  0  0  0  0  3  0  0  0  0  0  0
   41.9770   22.3360   35.4530 C   0  0  0  0  0  3  0  0  0  0  0  0
   41.0570   23.3370   35.2270 C   0  0  0  0  0  3  0  0  0  0  0  0
   40.0520   23.6480   36.0880 C   0  0  0  0  0  0  0  0  0  0  0  0
  1  4  1  6  0  0  0
  1  2  1  0  0  0  0
  1  3  1  0  0  0  0
  2  6  1  0  0  0  0
  2  3  1  0  0  0  0
  3  7  1  6  0  0  0
  3 20  1  0  0  0  0
  5  2  1  0  0  0  0
  8  9  1  0  0  0  0
  8  1  1  0  0  0  0
 10  8  1  0  0  0  0
 11 17  1  0  0  0  0
 11 12  1  0  0  0  0
 12 18  1  0  0  0  0
 13  8  1  0  0  0  0
 13 12  2  0  0  0  0
 14 13  1  0  0  0  0
 15 14  2  0  0  0  0
 15 16  1  0  0  0  0
 16 11  2  0  0  0  0
 19 15  1  0  0  0  0
 20 22  1  0  0  0  0
 20 21  1  0  0  0  0
 23 20  1  0  0  0  0
 23 26  1  0  0  0  0
 24 23  1  0  0  0  0
 25 23  1  0  0  0  0
 26 36  2  0  0  0  0
 26 27  1  0  0  0  0
 27 29  2  0  0  0  0
 28 27  1  0  0  0  0
 29 30  1  0  0  0  0
 31 32  1  0  0  0  0
 31 30  2  0  0  0  0
 33 32  2  0  0  0  0
 34 33  1  0  0  0  0
 35 34  2  0  0  0  0
 35 36  1  0  0  0  0
 36 31  1  0  0  0  0
M  END
>  <minimizedAffinity>
-5.32057858

$$$$

 OpenBabel03262520473D

 36 39  0  0  1  0  0  0  0  0999 V2000
   37.1060   26.4760   33.8370 C   0  0  1  0  0  0  0  0  0  0  0  0
   36.9750   27.7520   34.6550 C   0  0  0  0  0  0  0  0  0  0  0  0
   37.1080   27.8100   33.1850 C   0  0  2  0  0  0  0  0  0  0  0  0
   36.1980   25.8450   33.8720 H   0  0  0  0  0  0  0  0  0  0  0  0
   37.8730   28.0860   35.2530 H   0  0  0  0  0  0  0  0  0  0  0  0
   36.0080   28.0220   35.1010 H   0  0  0  0  0  0  0  0  0  0  0  0
   38.1150   28.0830   32.7510 H   0  0  0  0  0  0  0  0  0  0  0  0
   38.4050   25.7400   34.0560 C   0  0  0  0  0  0  0  0  0  0  0  0
   38.9410   25.6010   33.0880 H   0  0  0  0  0  0  0  0  0  0  0  0
   39.0350   26.3870   34.7060 H   0  0  0  0  0  0  0  0  0  0  0  0
   37.8240   23.1100   36.6570 C   0  0  0  0  0  0  0  0  0  0  0  0
   38.0420   24.3900   36.0400 C   0  0  0  0  0  0  0  0  0  0  0  0
   38.1820   24.4160   34.6660 C   0  0  0  0  0  0  0  0  0  0  0  0
   38.1090   23.2600   33.9790 N   0  0  0  0  0  0  0  0  0  0  0  0
   37.9040   22.0730   34.5760 C   0  0  0  0  0  0  0  0  0  0  0  0
   37.7660   22.0140   35.8970 N   0  0  0  0  0  0  0  0  0  0  0  0
   37.7130   23.0650   37.7110 H   0  0  0  0  0  0  0  0  0  0  0  0
   38.0860   25.2680   36.6730 H   0  0  0  0  0  0  0  0  0  0  0  0
   37.8840   21.2960   33.8110 H   0  0  0  0  0  0  0  0  0  0  0  0
   35.9660   28.0960   32.2620 C   0  0  0  0  0  0  0  0  0  0  0  0
   36.3300   28.3300   31.2660 H   0  0  0  0  0  0  0  0  0  0  0  0
   35.3370   27.1580   32.1230 H   0  0  0  0  0  0  0  0  0  0  0  0
   35.0200   29.1500   32.7820 C   0  0  0  0  0  0  0  0  0  0  0  0
   34.7350   28.8390   33.8170 H   0  0  0  0  0  0  0  0  0  0  0  0
   34.0620   29.0880   32.1900 H   0  0  0  0  0  0  0  0  0  0  0  0
   35.5820   30.5190   32.7170 C   0  0  0  0  0  0  0  0  0  0  0  0
   36.0510   30.9500   31.4850 C   0  0  0  0  0  0  0  0  0  0  0  0
   36.0340   30.3950   30.5690 H   0  0  0  0  0  0  0  0  0  0  0  0
   36.6100   32.2250   31.3660 C   0  0  0  0  0  3  0  0  0  0  0  0
   36.6910   33.0460   32.4820 C   0  0  0  0  0  3  0  0  0  0  0  0
   36.2190   32.6040   33.7080 C   0  0  0  0  0  0  0  0  0  0  0  0
   36.2720   33.3860   34.8420 C   0  0  0  0  0  3  0  0  0  0  0  0
   35.8030   32.9800   36.0910 C   0  0  0  0  0  3  0  0  0  0  0  0
   35.2510   31.7050   36.1770 C   0  0  0  0  0  3  0  0  0  0  0  0
   35.2000   30.9270   35.0400 C   0  0  0  0  0  3  0  0  0  0  0  0
   35.6610   31.3320   33.8260 C   0  0  0  0  0  0  0  0  0  0  0  0
  1  4  1  6  0  0  0
  1  8  1  0  0  0  0
  1  2  1  0  0  0  0
  2  6  1  0  0  0  0
  2  5  1  0  0  0  0
  3  7  1  6  0  0  0
  3  1  1  0  0  0  0
  3  2  1  0  0  0  0
  8 13  1  0  0  0  0
  8 10  1  0  0  0  0
  9  8  1  0  0  0  0
 11 17  1  0  0  0  0
 12 11  1  0  0  0  0
 12 18  1  0  0  0  0
 13 12  2  0  0  0  0
 14 15  2  0  0  0  0
 14 13  1  0  0  0  0
 15 16  1  0  0  0  0
 16 11  2  0  0  0  0
 19 15  1  0  0  0  0
 20 23  1  0  0  0  0
 20  3  1  0  0  0  0
 21 20  1  0  0  0  0
 22 20  1  0  0  0  0
 23 24  1  0  0  0  0
 25 23  1  0  0  0  0
 26 23  1  0  0  0  0
 26 36  1  0  0  0  0
 27 26  2  0  0  0  0
 28 27  1  0  0  0  0
 29 27  1  0  0  0  0
 29 30  2  0  0  0  0
 30 31  1  0  0  0  0
 31 36  2  0  0  0  0
 31 32  1  0  0  0  0
 32 33  2  0  0  0  0
 33 34  1  0  0  0  0
 35 34  2  0  0  0  0
 36 35  1  0  0  0  0
M  END
>  <minimizedAffinity>
-5.31452036

$$$$

 OpenBabel03262520473D

 36 39  0  0  1  0  0  0  0  0999 V2000
   36.0190   23.7680   31.1290 C   0  0  1  0  0  0  0  0  0  0  0  0
   35.0830   24.9430   30.8850 C   0  0  0  0  0  0  0  0  0  0  0  0
   36.2240   25.0690   31.8170 C   0  0  2  0  0  0  0  0  0  0  0  0
   36.6000   23.4850   30.2320 H   0  0  0  0  0  0  0  0  0  0  0  0
   34.0570   24.9010   31.3540 H   0  0  0  0  0  0  0  0  0  0  0  0
   35.1250   25.4910   29.9340 H   0  0  0  0  0  0  0  0  0  0  0  0
   36.0150   25.0150   32.9250 H   0  0  0  0  0  0  0  0  0  0  0  0
   35.3770   22.6180   31.8650 C   0  0  0  0  0  0  0  0  0  0  0  0
   35.3820   22.8080   32.9640 H   0  0  0  0  0  0  0  0  0  0  0  0
   34.3170   22.5740   31.5310 H   0  0  0  0  0  0  0  0  0  0  0  0
   38.1320   20.2130   31.0630 C   0  0  0  0  0  0  0  0  0  0  0  0
   37.4270   21.4380   31.3240 C   0  0  0  0  0  0  0  0  0  0  0  0
   36.0780   21.3470   31.6020 C   0  0  0  0  0  0  0  0  0  0  0  0
   35.4930   20.1340   31.6170 N   0  0  0  0  0  0  0  0  0  0  0  0
   36.1710   18.9990   31.3700 C   0  0  0  0  0  0  0  0  0  0  0  0
   37.4720   19.0530   31.0980 N   0  0  0  0  0  0  0  0  0  0  0  0
   39.1700   20.2580   30.8470 H   0  0  0  0  0  0  0  0  0  0  0  0
   37.9810   22.3700   31.2900 H   0  0  0  0  0  0  0  0  0  0  0  0
   35.4810   18.1580   31.4420 H   0  0  0  0  0  0  0  0  0  0  0  0
   37.4850   25.8000   31.4840 C   0  0  0  0  0  0  0  0  0  0  0  0
   37.6960   25.7320   30.4210 H   0  0  0  0  0  0  0  0  0  0  0  0
   37.3510   26.9120   31.6780 H   0  0  0  0  0  0  0  0  0  0  0  0
   38.6660   25.3780   32.3230 C   0  0  0  0  0  0  0  0  0  0  0  0
   39.5700   25.8400   31.8560 H   0  0  0  0  0  0  0  0  0  0  0  0
   38.8120   24.2670   32.1940 H   0  0  0  0  0  0  0  0  0  0  0  0
   38.5110   25.7180   33.7570 C   0  0  0  0  0  0  0  0  0  0  0  0
   38.6260   27.0550   34.1040 C   0  0  0  0  0  0  0  0  0  0  0  0
   38.8020   27.8720   33.4340 H   0  0  0  0  0  0  0  0  0  0  0  0
   38.5080   27.4340   35.4440 C   0  0  0  0  0  3  0  0  0  0  0  0
   38.2770   26.4680   36.4130 C   0  0  0  0  0  3  0  0  0  0  0  0
   38.1640   25.1330   36.0540 C   0  0  0  0  0  0  0  0  0  0  0  0
   37.9300   24.1390   36.9800 C   0  0  0  0  0  3  0  0  0  0  0  0
   37.8040   22.7890   36.6580 C   0  0  0  0  0  3  0  0  0  0  0  0
   37.9260   22.4440   35.3150 C   0  0  0  0  0  3  0  0  0  0  0  0
   38.1600   23.4410   34.3930 C   0  0  0  0  0  3  0  0  0  0  0  0
   38.2820   24.7560   34.7170 C   0  0  0  0  0  0  0  0  0  0  0  0
  1  4  1  6  0  0  0
  1  3  1  0  0  0  0
  1  8  1  0  0  0  0
  2  1  1  0  0  0  0
  2  5  1  0  0  0  0
  2  3  1  0  0  0  0
  3  7  1  1  0  0  0
  6  2  1  0  0  0  0
  8  9  1  0  0  0  0
 10  8  1  0  0  0  0
 11 16  2  0  0  0  0
 11 12  1  0  0  0  0
 12 13  2  0  0  0  0
 13 14  1  0  0  0  0
 13  8  1  0  0  0  0
 15 19  1  0  0  0  0
 15 14  2  0  0  0  0
 16 15  1  0  0  0  0
 17 11  1  0  0  0  0
 18 12  1  0  0  0  0
 20 22  1  0  0  0  0
 20  3  1  0  0  0  0
 20 23  1  0  0  0  0
 21 20  1  0  0  0  0
 23 26  1  0  0  0  0
 24 23  1  0  0  0  0
 25 23  1  0  0  0  0
 26 27  2  0  0  0  0
 26 36  1  0  0  0  0
 27 29  1  0  0  0  0
 28 27  1  0  0  0  0
 29 30  2  0  0  0  0
 31 30  1  0  0  0  0
 31 32  1  0  0  0  0
 33 32  2  0  0  0  0
 34 33  1  0  0  0  0
 35 36  1  0  0  0  0
 35 34  2  0  0  0  0
 36 31  2  0  0  0  0
M  END
>  <minimizedAffinity>
-5.30889082

$$$$
