
 OpenBabel03272505433D

 26 28  0  0  0  0  0  0  0  0999 V2000
   32.3740   28.0060   48.8770 O   0  0  0  0  0  0  0  0  0  0  0  0
   33.8170   28.2720   48.4430 P   0  0  2  0  0  0  0  0  0  0  0  0
   34.1850   27.1330   47.2670 O   0  0  0  0  0  0  0  0  0  0  0  0
   33.3910   26.7740   46.7970 H   0  0  0  0  0  0  0  0  0  0  0  0
   34.8000   28.1470   49.8080 O   0  0  0  0  0  0  0  0  0  0  0  0
   37.2600   30.2960   51.4570 C   0  0  0  0  0  0  0  0  0  0  0  0
   38.0250   30.6780   50.3080 C   0  0  0  0  0  0  0  0  0  0  0  0
   37.6550   30.1820   49.0530 C   0  0  0  0  0  0  0  0  0  0  0  0
   36.5750   29.3500   48.9880 N   0  0  0  0  0  0  0  0  0  0  0  0
   35.8660   29.0050   50.0920 C   0  0  0  0  0  0  0  0  0  0  0  0
   36.2100   29.4760   51.3170 N   0  0  0  0  0  0  0  0  0  0  0  0
   37.5500   30.6800   52.4030 H   0  0  0  0  0  0  0  0  0  0  0  0
   38.8830   31.3440   50.3980 H   0  0  0  0  0  0  0  0  0  0  0  0
   38.2020   30.4430   48.1680 H   0  0  0  0  0  0  0  0  0  0  0  0
   33.8340   29.8080   47.7460 O   0  0  0  0  0  0  0  0  0  0  0  0
   34.2050   30.0400   46.4320 C   0  0  0  0  0  0  0  0  0  0  0  0
   35.4860   30.0380   45.9220 C   0  0  0  0  0  0  0  0  0  0  0  0
   36.2700   29.8400   46.6100 H   0  0  0  0  0  0  0  0  0  0  0  0
   35.6820   30.2920   44.5740 C   0  0  0  0  0  3  0  0  0  0  0  0
   34.6420   30.5490   43.7000 C   0  0  0  0  0  3  0  0  0  0  0  0
   33.3680   30.5430   44.2420 C   0  0  0  0  0  0  0  0  0  0  0  0
   32.3450   30.8030   43.3480 C   0  0  0  0  0  3  0  0  0  0  0  0
   31.0210   30.8190   43.7960 C   0  0  0  0  0  3  0  0  0  0  0  0
   30.7710   30.5710   45.1440 C   0  0  0  0  0  3  0  0  0  0  0  0
   31.8150   30.3150   46.0140 C   0  0  0  0  0  3  0  0  0  0  0  0
   33.1320   30.2920   45.5950 C   0  0  0  0  0  0  0  0  0  0  0  0
  2  1  2  1  0  0  0
  2  5  1  0  0  0  0
  3  2  1  0  0  0  0
  4  3  1  0  0  0  0
  5 10  1  0  0  0  0
  6 12  1  0  0  0  0
  7 13  1  0  0  0  0
  7  6  2  0  0  0  0
  8  7  1  0  0  0  0
  9  8  2  0  0  0  0
  9 10  1  0  0  0  0
 10 11  2  0  0  0  0
 11  6  1  0  0  0  0
 14  8  1  0  0  0  0
 15  2  1  0  0  0  0
 16 15  1  0  0  0  0
 17 16  1  0  0  0  0
 17 18  1  0  0  0  0
 19 17  2  0  0  0  0
 20 21  2  0  0  0  0
 20 19  1  0  0  0  0
 21 26  1  0  0  0  0
 22 23  2  0  0  0  0
 22 21  1  0  0  0  0
 23 24  1  0  0  0  0
 24 25  2  0  0  0  0
 26 25  1  0  0  0  0
 26 16  2  0  0  0  0
M  END
>  <minimizedAffinity>
-4.74124384

>  <minimizedRMSD>
2.93756032

$$$$
