
 OpenBabel03262520353D

 44 47  0  0  0  0  0  0  0  0999 V2000
   27.9470   28.2280   48.6300 C   0  0  0  0  0  0  0  0  0  0  0  0
   29.2530   27.9590   49.0780 C   0  0  0  0  0  0  0  0  0  0  0  0
   29.5080   27.4350   50.3180 C   0  0  0  0  0  0  0  0  0  0  0  0
   28.4540   27.1630   51.1510 C   0  0  0  0  0  0  0  0  0  0  0  0
   27.1830   27.4140   50.7420 C   0  0  0  0  0  0  0  0  0  0  0  0
   26.8860   27.9380   49.5100 C   0  0  0  0  0  0  0  0  0  0  0  0
   30.5400   27.2630   50.5720 H   0  0  0  0  0  0  0  0  0  0  0  0
   28.7250   26.7520   52.1130 H   0  0  0  0  0  0  0  0  0  0  0  0
   26.4160   27.1670   51.4700 H   0  0  0  0  0  0  0  0  0  0  0  0
   25.8560   28.0830   49.3090 H   0  0  0  0  0  0  0  0  0  0  0  0
   27.5470   28.8740   47.0640 S   0  0  0  0  0  0  0  0  0  0  0  0
   28.7700   28.9550   46.2000 O   0  0  0  0  0  0  0  0  0  0  0  0
   26.5000   27.9650   46.4270 O   0  0  0  0  0  0  0  0  0  0  0  0
   26.8560   30.4420   47.1590 C   0  0  0  0  0  0  0  0  0  0  0  0
   26.5730   31.0880   48.3550 C   0  0  0  0  0  0  0  0  0  0  0  0
   26.7860   30.5630   49.2760 H   0  0  0  0  0  0  0  0  0  0  0  0
   26.0430   32.3400   48.4310 C   0  0  0  0  0  0  0  0  0  0  0  0
   25.7760   32.9970   47.2420 C   0  0  0  0  0  0  0  0  0  0  0  0
   26.0440   32.3870   46.0240 C   0  0  0  0  0  0  0  0  0  0  0  0
   25.7210   33.1560   44.9250 C   0  0  0  0  0  0  0  0  0  0  0  0
   25.9480   32.6230   43.6770 C   0  0  0  0  0  0  0  0  0  0  0  0
   26.4830   31.3550   43.5830 C   0  0  0  0  0  0  0  0  0  0  0  0
   26.8010   30.6000   44.6850 C   0  0  0  0  0  0  0  0  0  0  0  0
   26.5820   31.1160   45.9640 C   0  0  0  0  0  0  0  0  0  0  0  0
   30.1850   28.2900   48.1180 O   0  0  0  0  0  0  0  0  0  0  0  0
   31.7170   26.1210   48.1900 O   0  0  0  0  0  0  0  0  0  0  0  0
   31.7360   27.6380   47.9510 P   0  0  1  0  0  0  0  0  0  0  0  0
   32.3810   28.0060   46.4240 O   0  0  0  0  0  0  0  0  0  0  0  0
   32.0950   28.9050   46.1780 H   0  0  0  0  0  0  0  0  0  0  0  0
   32.8000   28.2340   49.1430 O   0  0  0  0  0  0  0  0  0  0  0  0
   34.0770   27.7050   48.8960 C   0  0  0  0  0  0  0  0  0  0  0  0
   34.0080   27.0170   48.0520 H   0  0  0  0  0  0  0  0  0  0  0  0
   34.3490   27.0780   49.7890 H   0  0  0  0  0  0  0  0  0  0  0  0
   35.2140   29.8260   49.4320 C   0  0  0  0  0  0  0  0  0  0  0  0
   35.0860   28.7670   48.6760 C   0  0  0  0  0  0  0  0  0  0  0  0
   37.5910   32.6040   49.5880 C   0  0  0  0  0  0  0  0  0  0  0  0
   38.2130   32.5240   48.3300 C   0  0  0  0  0  0  0  0  0  0  0  0
   37.8050   31.5180   47.4510 C   0  0  0  0  0  0  0  0  0  0  0  0
   36.8140   30.6930   47.9200 N   0  0  0  0  0  0  0  0  0  0  0  0
   36.2480   30.7910   49.1060 C   0  0  0  0  0  0  0  0  0  0  0  0
   36.6460   31.7520   49.9330 N   0  0  0  0  0  0  0  0  0  0  0  0
   37.8690   33.3740   50.3210 H   0  0  0  0  0  0  0  0  0  0  0  0
   38.9850   33.2320   48.0680 H   0  0  0  0  0  0  0  0  0  0  0  0
   38.2530   31.4190   46.4790 H   0  0  0  0  0  0  0  0  0  0  0  0
  1  2  2  0  0  0  0
  1  6  1  0  0  0  0
  2  3  1  0  0  0  0
  3  7  1  0  0  0  0
  3  4  2  0  0  0  0
  4  8  1  0  0  0  0
  5  4  1  0  0  0  0
  5  9  1  0  0  0  0
  6  5  2  0  0  0  0
 10  6  1  0  0  0  0
 11 14  1  0  0  0  0
 11  1  1  0  0  0  0
 12 11  2  0  0  0  0
 13 11  2  0  0  0  0
 14 15  1  0  0  0  0
 15 17  2  0  0  0  0
 15 16  1  0  0  0  0
 18 17  1  0  0  0  0
 19 18  2  0  0  0  0
 20 19  1  0  0  0  0
 21 20  2  0  0  0  0
 22 21  1  0  0  0  0
 22 23  2  0  0  0  0
 23 24  1  0  0  0  0
 24 19  1  0  0  0  0
 24 14  2  0  0  0  0
 25  2  1  0  0  0  0
 27 25  1  0  0  0  0
 27 26  2  1  0  0  0
 27 30  1  0  0  0  0
 28 27  1  0  0  0  0
 29 28  1  0  0  0  0
 31 30  1  0  0  0  0
 31 33  1  0  0  0  0
 32 31  1  0  0  0  0
 35 31  1  0  0  0  0
 35 34  2  0  0  0  0
 36 41  1  0  0  0  0
 36 42  1  0  0  0  0
 37 36  2  0  0  0  0
 38 39  2  0  0  0  0
 38 37  1  0  0  0  0
 39 40  1  0  0  0  0
 40 34  1  0  0  0  0
 40 41  2  0  0  0  0
 43 37  1  0  0  0  0
 44 38  1  0  0  0  0
M  END
>  <minimizedAffinity>
-7.35683107

>  <minimizedRMSD>
2.55907941

$$$$
