REMARK  Name = 
REMARK  6 active torsions:
REMARK  status: ('A' for Active; 'I' for Inactive)
REMARK    1  A    between atoms: C_1  and  C_4
REMARK    2  A    between atoms: C_3  and  O_11
REMARK    3  A    between atoms: O_11  and  P_13
REMARK    4  A    between atoms: P_13  and  O_14
REMARK    5  A    between atoms: P_13  and  O_15
REMARK    6  A    between atoms: O_15  and  C_25
REMARK                            x       y       z     vdW  Elec       q    Type
REMARK                         _______ _______ _______ _____ _____    ______ ____
ROOT
ATOM      1  C   UNL     1      36.983  31.570  48.667  0.00  0.00    +0.000 C 
ATOM      2  C   UNL     1      36.219  30.915  47.631  0.00  0.00    +0.000 C 
ATOM      3  C   UNL     1      37.178  30.131  48.465  0.00  0.00    +0.000 C 
ATOM      4  H   UNL     1      36.542  31.837  49.690  0.00  0.00    +0.000 HD
ATOM      5  H   UNL     1      35.189  31.171  47.791  0.00  0.00    +0.000 HD
ATOM      6  H   UNL     1      36.532  31.111  46.584  0.00  0.00    +0.000 HD
ATOM      7  H   UNL     1      37.883  29.618  47.833  0.00  0.00    +0.000 HD
ENDROOT
BRANCH   1   8
ATOM      8  C   UNL     1      38.144  32.460  48.322  0.00  0.00    +0.000 A 
ATOM      9  C   UNL     1      38.532  33.377  49.317  0.00  0.00    +0.000 A 
ATOM     10  C   UNL     1      39.598  34.181  48.989  0.00  0.00    +0.000 A 
ATOM     11  N   UNL     1      40.197  34.058  47.782  0.00  0.00    +0.000 NA
ATOM     12  C   UNL     1      39.795  33.158  46.843  0.00  0.00    +0.000 A 
ATOM     13  N   UNL     1      38.733  32.336  47.130  0.00  0.00    +0.000 NA
ATOM     14  N   UNL     1      40.411  32.992  45.596  0.00  0.00    +0.000 N 
ATOM     15  H   UNL     1      38.071  33.485  50.270  0.00  0.00    +0.000 HD
ATOM     16  H   UNL     1      39.975  34.920  49.683  0.00  0.00    +0.000 HD
ATOM     17  H   UNL     1      40.833  33.705  44.943  0.00  0.00    +0.000 HD
ATOM     18  H   UNL     1      40.495  32.013  45.192  0.00  0.00    +0.000 HD
ENDBRANCH   1   8
BRANCH   3  19
ATOM     19  O   UNL     1      36.599  29.306  49.431  0.00  0.00    +0.000 OA
BRANCH  19  21
ATOM     20  O   UNL     1      34.629  27.667  49.695  0.00  0.00    +0.000 OA
ATOM     21  P   UNL     1      35.021  28.950  49.039  0.00  0.00    +0.000 P 
BRANCH  21  22
ATOM     22  O   UNL     1      33.976  30.145  49.733  0.00  0.00    +0.000 OA
ATOM     23  H   UNL     1      33.238  30.294  49.061  0.00  0.00    +0.000 HD
ENDBRANCH  21  22
BRANCH  21  24
ATOM     24  O   UNL     1      34.838  28.960  47.374  0.00  0.00    +0.000 OA
BRANCH  24  25
ATOM     25  C   UNL     1      35.458  28.177  46.456  0.00  0.00    +0.000 A 
ATOM     26  C   UNL     1      35.641  26.817  46.547  0.00  0.00    +0.000 A 
ATOM     27  H   UNL     1      35.258  26.309  47.433  0.00  0.00    +0.000 HD
ATOM     28  C   UNL     1      36.296  26.154  45.526  0.00  0.00    +0.000 A 
ATOM     29  C   UNL     1      36.771  26.824  44.414  0.00  0.00    +0.000 A 
ATOM     30  C   UNL     1      36.593  28.183  44.314  0.00  0.00    +0.000 A 
ATOM     31  C   UNL     1      37.063  28.860  43.208  0.00  0.00    +0.000 A 
ATOM     32  C   UNL     1      36.902  30.223  43.075  0.00  0.00    +0.000 A 
ATOM     33  C   UNL     1      36.253  30.911  44.079  0.00  0.00    +0.000 A 
ATOM     34  C   UNL     1      35.781  30.238  45.186  0.00  0.00    +0.000 A 
ATOM     35  C   UNL     1      35.935  28.858  45.337  0.00  0.00    +0.000 A 
ENDBRANCH  24  25
ENDBRANCH  21  24
ENDBRANCH  19  21
ENDBRANCH   3  19
TORSDOF 6
