
 OpenBabel03272503503D

 39 42  0  0  1  0  0  0  0  0999 V2000
   33.1820   27.3210   45.8650 C   0  0  1  0  0  0  0  0  0  0  0  0
   33.9130   27.4610   47.2180 C   0  0  2  0  0  0  0  0  0  0  0  0
   33.7580   26.2430   47.7980 O   0  0  0  0  0  0  0  0  0  0  0  0
   34.0600   25.3430   46.7880 C   0  0  0  0  0  0  0  0  0  0  0  0
   33.5700   25.9170   45.4740 C   0  0  2  0  0  0  0  0  0  0  0  0
   33.5720   28.0880   45.1670 H   0  0  0  0  0  0  0  0  0  0  0  0
   34.9560   27.7160   46.9230 H   0  0  0  0  0  0  0  0  0  0  0  0
   35.1240   25.0540   46.7540 H   0  0  0  0  0  0  0  0  0  0  0  0
   33.4720   24.4210   46.9790 H   0  0  0  0  0  0  0  0  0  0  0  0
   32.6750   25.3810   45.1070 H   0  0  0  0  0  0  0  0  0  0  0  0
   31.8270   27.5220   46.0270 O   0  0  0  0  0  0  0  0  0  0  0  0
   31.4870   28.1970   45.3840 H   0  0  0  0  0  0  0  0  0  0  0  0
   33.2910   28.5170   47.8330 O   0  0  0  0  0  0  0  0  0  0  0  0
   35.3460   29.8100   46.7880 O   0  0  0  0  0  0  0  0  0  0  0  0
   34.0810   29.9890   47.6230 P   0  0  1  0  0  0  0  0  0  0  0  0
   33.1110   31.0480   46.7260 O   0  0  0  0  0  0  0  0  0  0  0  0
   32.3780   31.3220   47.3610 H   0  0  0  0  0  0  0  0  0  0  0  0
   34.3800   30.6160   49.1820 O   0  0  0  0  0  0  0  0  0  0  0  0
   35.6210   30.4950   49.7910 C   0  0  0  0  0  0  0  0  0  0  0  0
   35.9690   29.4750   50.7080 C   0  0  0  0  0  0  0  0  0  0  0  0
   37.2520   29.4850   51.2360 C   0  0  0  0  0  0  0  0  0  0  0  0
   38.1150   30.4790   50.8450 N   0  0  0  0  0  0  0  0  0  0  0  0
   37.7530   31.4450   49.9640 C   0  0  0  0  0  0  0  0  0  0  0  0
   36.5010   31.4560   49.4330 N   0  0  0  0  0  0  0  0  0  0  0  0
   35.2160   28.7630   50.9310 H   0  0  0  0  0  0  0  0  0  0  0  0
   37.5110   28.7190   51.9230 H   0  0  0  0  0  0  0  0  0  0  0  0
   38.4440   32.2200   49.6670 H   0  0  0  0  0  0  0  0  0  0  0  0
   34.5840   25.9310   44.5550 O   0  0  0  0  0  0  0  0  0  0  0  0
   34.4640   25.3570   43.3160 C   0  0  0  0  0  0  0  0  0  0  0  0
   33.5400   24.5060   42.7850 C   0  0  0  0  0  0  0  0  0  0  0  0
   32.7440   24.2160   43.4490 H   0  0  0  0  0  0  0  0  0  0  0  0
   33.5850   24.0290   41.4980 C   0  0  0  0  0  3  0  0  0  0  0  0
   34.6010   24.3960   40.6410 C   0  0  0  0  0  3  0  0  0  0  0  0
   35.5630   25.2660   41.1570 C   0  0  0  0  0  0  0  0  0  0  0  0
   36.5560   25.6010   40.2590 C   0  0  0  0  0  3  0  0  0  0  0  0
   37.5520   26.4540   40.6700 C   0  0  0  0  0  3  0  0  0  0  0  0
   37.5380   26.9510   41.9520 C   0  0  0  0  0  3  0  0  0  0  0  0
   36.5300   26.5960   42.8230 C   0  0  0  0  0  3  0  0  0  0  0  0
   35.5050   25.7430   42.4650 C   0  0  0  0  0  0  0  0  0  0  0  0
  1  6  1  6  0  0  0
  1 11  1  0  0  0  0
  1  2  1  0  0  0  0
  2  7  1  6  0  0  0
  2  3  1  0  0  0  0
  2 13  1  0  0  0  0
  4  9  1  0  0  0  0
  4  3  1  0  0  0  0
  5 10  1  6  0  0  0
  5  1  1  0  0  0  0
  5  4  1  0  0  0  0
  8  4  1  0  0  0  0
 12 11  1  0  0  0  0
 15 14  2  6  0  0  0
 15 13  1  0  0  0  0
 15 18  1  0  0  0  0
 16 17  1  0  0  0  0
 16 15  1  0  0  0  0
 18 19  1  0  0  0  0
 19 20  1  0  0  0  0
 20 25  1  0  0  0  0
 20 21  2  0  0  0  0
 21 26  1  0  0  0  0
 22 21  1  0  0  0  0
 23 22  2  0  0  0  0
 24 19  2  0  0  0  0
 24 23  1  0  0  0  0
 27 23  1  0  0  0  0
 28  5  1  0  0  0  0
 29 28  1  0  0  0  0
 30 29  1  0  0  0  0
 30 31  1  0  0  0  0
 32 30  2  0  0  0  0
 33 34  2  0  0  0  0
 33 32  1  0  0  0  0
 34 39  1  0  0  0  0
 35 36  2  0  0  0  0
 35 34  1  0  0  0  0
 36 37  1  0  0  0  0
 37 38  2  0  0  0  0
 39 38  1  0  0  0  0
 39 29  2  0  0  0  0
M  END
>  <minimizedAffinity>
-4.20423365

>  <minimizedRMSD>
0.336509466

$$$$
