
 OpenBabel03262522173D

 47 51  0  0  1  0  0  0  0  0999 V2000
   38.4580   28.4150   30.2120 C   0  0  0  0  0  0  0  0  0  0  0  0
   38.8300   29.0370   31.0340 H   0  0  0  0  0  0  0  0  0  0  0  0
   38.8470   28.8560   29.2720 H   0  0  0  0  0  0  0  0  0  0  0  0
   35.3240   29.1270   31.7240 C   0  0  1  0  0  0  0  0  0  0  0  0
   36.3770   29.6580   30.7550 C   0  0  0  0  0  0  0  0  0  0  0  0
   36.9430   28.3710   30.2110 C   0  0  2  0  0  0  0  0  0  0  0  0
   36.4550   27.3320   30.9510 O   0  0  0  0  0  0  0  0  0  0  0  0
   36.0080   27.8370   32.1610 C   0  0  0  0  0  0  0  0  0  0  0  0
   34.4340   28.9210   31.1050 H   0  0  0  0  0  0  0  0  0  0  0  0
   35.8950   30.2780   29.9750 H   0  0  0  0  0  0  0  0  0  0  0  0
   37.1740   30.2120   31.2870 H   0  0  0  0  0  0  0  0  0  0  0  0
   36.6390   28.2940   29.1500 H   0  0  0  0  0  0  0  0  0  0  0  0
   36.8650   28.1440   32.7540 H   0  0  0  0  0  0  0  0  0  0  0  0
   35.3060   27.1430   32.6540 H   0  0  0  0  0  0  0  0  0  0  0  0
   35.1430   29.9840   32.7860 O   0  0  0  0  0  0  0  0  0  0  0  0
   34.0630   29.9640   33.6210 C   0  0  0  0  0  0  0  0  0  0  0  0
   32.8450   29.3350   33.4830 C   0  0  0  0  0  0  0  0  0  0  0  0
   32.7400   28.7730   32.5660 H   0  0  0  0  0  0  0  0  0  0  0  0
   31.8370   29.4070   34.4220 C   0  0  0  0  0  3  0  0  0  0  0  0
   32.0850   30.1550   35.5550 C   0  0  0  0  0  3  0  0  0  0  0  0
   33.2850   30.8080   35.7500 C   0  0  0  0  0  0  0  0  0  0  0  0
   33.3950   31.5180   36.9260 C   0  0  0  0  0  3  0  0  0  0  0  0
   34.5810   32.1840   37.1560 C   0  0  0  0  0  3  0  0  0  0  0  0
   35.5990   32.1230   36.2260 C   0  0  0  0  0  3  0  0  0  0  0  0
   35.4320   31.3950   35.0660 C   0  0  0  0  0  3  0  0  0  0  0  0
   34.2720   30.7080   34.7770 C   0  0  0  0  0  0  0  0  0  0  0  0
   39.0540   26.7010   30.2560 S   0  0  0  0  0  0  0  0  0  0  0  0
   39.1700   25.0080   33.8540 C   0  0  0  0  0  0  0  0  0  0  0  0
   40.0560   25.8250   34.5790 C   0  0  0  0  0  0  0  0  0  0  0  0
   40.6530   26.9250   33.9970 C   0  0  0  0  0  0  0  0  0  0  0  0
   40.3300   27.1680   32.6830 C   0  0  0  0  0  0  0  0  0  0  0  0
   39.4730   26.3730   31.9900 C   0  0  0  0  0  0  0  0  0  0  0  0
   38.8810   25.2850   32.5610 N   0  0  0  0  0  0  0  0  0  0  0  0
   40.2780   25.5920   35.6130 H   0  0  0  0  0  0  0  0  0  0  0  0
   41.3390   27.5680   34.5370 H   0  0  0  0  0  0  0  0  0  0  0  0
   40.7620   28.0150   32.1630 H   0  0  0  0  0  0  0  0  0  0  0  0
   38.5920   23.8840   34.5300 C   0  0  0  0  0  0  0  0  0  0  0  0
   37.9870   23.0150   33.9100 O   0  0  0  0  0  0  0  0  0  0  0  0
   37.7250   24.3370   36.7970 C   0  0  0  0  0  0  0  0  0  0  0  0
   38.6930   23.7120   35.9900 C   0  0  0  0  0  0  0  0  0  0  0  0
   39.6980   22.9620   36.5930 C   0  0  0  0  0  0  0  0  0  0  0  0
   39.7190   22.8530   37.9550 N   0  0  0  0  0  0  0  0  0  0  0  0
   38.7700   23.4690   38.7090 C   0  0  0  0  0  0  0  0  0  0  0  0
   37.8100   24.1850   38.1400 N   0  0  0  0  0  0  0  0  0  0  0  0
   36.9170   24.9350   36.3840 H   0  0  0  0  0  0  0  0  0  0  0  0
   40.4240   22.4950   35.9530 H   0  0  0  0  0  0  0  0  0  0  0  0
   38.8720   23.3230   39.7780 H   0  0  0  0  0  0  0  0  0  0  0  0
  1 27  1  0  0  0  0
  1  2  1  0  0  0  0
  3  1  1  0  0  0  0
  4  9  1  6  0  0  0
  4  8  1  0  0  0  0
  4 15  1  0  0  0  0
  5 11  1  0  0  0  0
  5  4  1  0  0  0  0
  6 12  1  6  0  0  0
  6  1  1  0  0  0  0
  6  5  1  0  0  0  0
  6  7  1  0  0  0  0
  7  8  1  0  0  0  0
  8 14  1  0  0  0  0
  8 13  1  0  0  0  0
 10  5  1  0  0  0  0
 15 16  1  0  0  0  0
 16 26  1  0  0  0  0
 17 16  2  0  0  0  0
 17 19  1  0  0  0  0
 18 17  1  0  0  0  0
 19 20  2  0  0  0  0
 20 21  1  0  0  0  0
 21 22  1  0  0  0  0
 22 23  2  0  0  0  0
 24 23  1  0  0  0  0
 25 24  2  0  0  0  0
 26 25  1  0  0  0  0
 26 21  2  0  0  0  0
 27 32  1  0  0  0  0
 28 37  1  0  0  0  0
 28 29  1  0  0  0  0
 29 34  1  0  0  0  0
 30 35  1  0  0  0  0
 30 29  2  0  0  0  0
 31 30  1  0  0  0  0
 32 33  1  0  0  0  0
 32 31  2  0  0  0  0
 33 28  2  0  0  0  0
 36 31  1  0  0  0  0
 37 40  1  0  0  0  0
 38 37  2  0  0  0  0
 39 44  1  0  0  0  0
 40 41  1  0  0  0  0
 40 39  2  0  0  0  0
 41 42  2  0  0  0  0
 42 43  1  0  0  0  0
 43 47  1  0  0  0  0
 44 43  2  0  0  0  0
 45 39  1  0  0  0  0
 46 41  1  0  0  0  0
M  END
>  <minimizedAffinity>
-6.71766663

$$$$

 OpenBabel03262522173D

 47 51  0  0  1  0  0  0  0  0999 V2000
   36.9050   27.3420   30.3810 C   0  0  0  0  0  0  0  0  0  0  0  0
   37.8160   26.7530   30.2220 H   0  0  0  0  0  0  0  0  0  0  0  0
   36.4310   27.4790   29.3880 H   0  0  0  0  0  0  0  0  0  0  0  0
   36.0190   30.1100   32.4220 C   0  0  1  0  0  0  0  0  0  0  0  0
   36.6800   28.7340   32.4260 C   0  0  0  0  0  0  0  0  0  0  0  0
   37.2300   28.6750   31.0230 C   0  0  2  0  0  0  0  0  0  0  0  0
   36.7270   29.7280   30.3120 O   0  0  0  0  0  0  0  0  0  0  0  0
   35.5900   30.1830   30.9620 C   0  0  0  0  0  0  0  0  0  0  0  0
   36.8300   30.8250   32.6400 H   0  0  0  0  0  0  0  0  0  0  0  0
   37.4720   28.6980   33.1990 H   0  0  0  0  0  0  0  0  0  0  0  0
   35.9360   27.9270   32.5610 H   0  0  0  0  0  0  0  0  0  0  0  0
   38.3330   28.7220   31.0940 H   0  0  0  0  0  0  0  0  0  0  0  0
   34.8010   29.4450   30.8490 H   0  0  0  0  0  0  0  0  0  0  0  0
   35.3350   31.2120   30.6560 H   0  0  0  0  0  0  0  0  0  0  0  0
   34.9320   30.1450   33.2660 O   0  0  0  0  0  0  0  0  0  0  0  0
   34.8930   30.8270   34.4480 C   0  0  0  0  0  0  0  0  0  0  0  0
   35.7780   31.7400   34.9780 C   0  0  0  0  0  0  0  0  0  0  0  0
   36.6340   31.9400   34.3500 H   0  0  0  0  0  0  0  0  0  0  0  0
   35.6030   32.3540   36.2010 C   0  0  0  0  0  3  0  0  0  0  0  0
   34.4710   32.0200   36.9160 C   0  0  0  0  0  3  0  0  0  0  0  0
   33.5470   31.1130   36.4390 C   0  0  0  0  0  0  0  0  0  0  0  0
   32.4650   30.8750   37.2580 C   0  0  0  0  0  3  0  0  0  0  0  0
   31.5200   29.9720   36.8130 C   0  0  0  0  0  3  0  0  0  0  0  0
   31.6810   29.3490   35.5930 C   0  0  0  0  0  3  0  0  0  0  0  0
   32.7860   29.6270   34.8150 C   0  0  0  0  0  3  0  0  0  0  0  0
   33.7640   30.5180   35.2020 C   0  0  0  0  0  0  0  0  0  0  0  0
   35.6700   26.5200   31.4260 S   0  0  0  0  0  0  0  0  0  0  0  0
   38.1360   24.1750   33.4870 C   0  0  0  0  0  0  0  0  0  0  0  0
   37.7570   22.8750   33.1050 C   0  0  0  0  0  0  0  0  0  0  0  0
   36.7350   22.6640   32.2030 C   0  0  0  0  0  0  0  0  0  0  0  0
   36.1180   23.7890   31.7080 C   0  0  0  0  0  0  0  0  0  0  0  0
   36.4900   25.0410   32.0840 C   0  0  0  0  0  0  0  0  0  0  0  0
   37.5000   25.2550   32.9740 N   0  0  0  0  0  0  0  0  0  0  0  0
   38.2750   22.0200   33.5230 H   0  0  0  0  0  0  0  0  0  0  0  0
   36.4260   21.6710   31.8950 H   0  0  0  0  0  0  0  0  0  0  0  0
   35.3070   23.6980   30.9970 H   0  0  0  0  0  0  0  0  0  0  0  0
   39.2070   24.3100   34.4290 C   0  0  0  0  0  0  0  0  0  0  0  0
   40.3080   24.7230   34.0800 O   0  0  0  0  0  0  0  0  0  0  0  0
   37.9500   24.5040   36.5460 C   0  0  0  0  0  0  0  0  0  0  0  0
   39.0480   23.9620   35.8510 C   0  0  0  0  0  0  0  0  0  0  0  0
   39.9330   23.1260   36.5270 C   0  0  0  0  0  0  0  0  0  0  0  0
   39.7120   22.8540   37.8480 N   0  0  0  0  0  0  0  0  0  0  0  0
   38.6430   23.3930   38.4920 C   0  0  0  0  0  0  0  0  0  0  0  0
   37.7970   24.1890   37.8540 N   0  0  0  0  0  0  0  0  0  0  0  0
   37.2270   25.1620   36.0730 H   0  0  0  0  0  0  0  0  0  0  0  0
   40.7610   22.7260   35.9730 H   0  0  0  0  0  0  0  0  0  0  0  0
   38.5540   23.1170   39.5360 H   0  0  0  0  0  0  0  0  0  0  0  0
  1  6  1  0  0  0  0
  1 27  1  0  0  0  0
  2  1  1  0  0  0  0
  3  1  1  0  0  0  0
  4  5  1  0  0  0  0
  4  9  1  1  0  0  0
  4 15  1  0  0  0  0
  5 11  1  0  0  0  0
  5 10  1  0  0  0  0
  6 12  1  1  0  0  0
  6  5  1  0  0  0  0
  7  8  1  0  0  0  0
  7  6  1  0  0  0  0
  8  4  1  0  0  0  0
 13  8  1  0  0  0  0
 14  8  1  0  0  0  0
 15 16  1  0  0  0  0
 16 17  2  0  0  0  0
 16 26  1  0  0  0  0
 17 19  1  0  0  0  0
 18 17  1  0  0  0  0
 19 20  2  0  0  0  0
 21 20  1  0  0  0  0
 21 22  1  0  0  0  0
 23 22  2  0  0  0  0
 24 23  1  0  0  0  0
 25 26  1  0  0  0  0
 25 24  2  0  0  0  0
 26 21  2  0  0  0  0
 27 32  1  0  0  0  0
 28 37  1  0  0  0  0
 29 28  1  0  0  0  0
 29 34  1  0  0  0  0
 30 29  2  0  0  0  0
 31 32  2  0  0  0  0
 31 30  1  0  0  0  0
 32 33  1  0  0  0  0
 33 28  2  0  0  0  0
 35 30  1  0  0  0  0
 36 31  1  0  0  0  0
 37 40  1  0  0  0  0
 38 37  2  0  0  0  0
 39 44  1  0  0  0  0
 40 41  1  0  0  0  0
 40 39  2  0  0  0  0
 41 42  2  0  0  0  0
 42 43  1  0  0  0  0
 43 47  1  0  0  0  0
 44 43  2  0  0  0  0
 45 39  1  0  0  0  0
 46 41  1  0  0  0  0
M  END
>  <minimizedAffinity>
-6.71455383

$$$$

 OpenBabel03262522173D

 47 51  0  0  1  0  0  0  0  0999 V2000
   37.4530   28.2570   31.6270 C   0  0  0  0  0  0  0  0  0  0  0  0
   37.7580   28.8960   32.4640 H   0  0  0  0  0  0  0  0  0  0  0  0
   38.1620   28.4510   30.7970 H   0  0  0  0  0  0  0  0  0  0  0  0
   34.4450   30.1160   31.9490 C   0  0  1  0  0  0  0  0  0  0  0  0
   35.7780   30.0440   31.2110 C   0  0  0  0  0  0  0  0  0  0  0  0
   36.0270   28.5560   31.2110 C   0  0  2  0  0  0  0  0  0  0  0  0
   35.1130   27.9610   32.0330 O   0  0  0  0  0  0  0  0  0  0  0  0
   34.6080   28.9280   32.8890 C   0  0  0  0  0  0  0  0  0  0  0  0
   33.6750   29.9220   31.1830 H   0  0  0  0  0  0  0  0  0  0  0  0
   35.6690   30.4600   30.1910 H   0  0  0  0  0  0  0  0  0  0  0  0
   36.5840   30.5490   31.7770 H   0  0  0  0  0  0  0  0  0  0  0  0
   35.9290   28.2000   30.1680 H   0  0  0  0  0  0  0  0  0  0  0  0
   35.3830   29.2140   33.5940 H   0  0  0  0  0  0  0  0  0  0  0  0
   33.6470   28.6140   33.3310 H   0  0  0  0  0  0  0  0  0  0  0  0
   34.3240   31.2960   32.6490 O   0  0  0  0  0  0  0  0  0  0  0  0
   34.6920   31.4620   33.9540 C   0  0  0  0  0  0  0  0  0  0  0  0
   35.9440   31.5610   34.5190 C   0  0  0  0  0  0  0  0  0  0  0  0
   36.7550   31.4950   33.8080 H   0  0  0  0  0  0  0  0  0  0  0  0
   36.1620   31.7290   35.8710 C   0  0  0  0  0  3  0  0  0  0  0  0
   35.0480   31.7990   36.6830 C   0  0  0  0  0  3  0  0  0  0  0  0
   33.7680   31.7070   36.1760 C   0  0  0  0  0  0  0  0  0  0  0  0
   32.7510   31.7940   37.1020 C   0  0  0  0  0  3  0  0  0  0  0  0
   31.4570   31.7050   36.6320 C   0  0  0  0  0  3  0  0  0  0  0  0
   31.2220   31.5370   35.2830 C   0  0  0  0  0  3  0  0  0  0  0  0
   32.2810   31.4570   34.4020 C   0  0  0  0  0  3  0  0  0  0  0  0
   33.5960   31.5380   34.8080 C   0  0  0  0  0  0  0  0  0  0  0  0
   37.5570   26.4790   31.9800 S   0  0  0  0  0  0  0  0  0  0  0  0
   38.1500   24.9540   35.6050 C   0  0  0  0  0  0  0  0  0  0  0  0
   38.2980   26.0880   36.4250 C   0  0  0  0  0  0  0  0  0  0  0  0
   38.2210   27.3620   35.9020 C   0  0  0  0  0  0  0  0  0  0  0  0
   37.9950   27.4520   34.5480 C   0  0  0  0  0  0  0  0  0  0  0  0
   37.8550   26.3510   33.7650 C   0  0  0  0  0  0  0  0  0  0  0  0
   37.9290   25.0890   34.2770 N   0  0  0  0  0  0  0  0  0  0  0  0
   38.4740   25.9650   37.4860 H   0  0  0  0  0  0  0  0  0  0  0  0
   38.3320   28.2500   36.5140 H   0  0  0  0  0  0  0  0  0  0  0  0
   37.9240   28.4220   34.0710 H   0  0  0  0  0  0  0  0  0  0  0  0
   38.2430   23.6650   36.2260 C   0  0  0  0  0  0  0  0  0  0  0  0
   37.2660   23.1470   36.7560 O   0  0  0  0  0  0  0  0  0  0  0  0
   40.0330   22.5580   37.5170 C   0  0  0  0  0  0  0  0  0  0  0  0
   39.5020   22.9010   36.2600 C   0  0  0  0  0  0  0  0  0  0  0  0
   40.1790   22.5100   35.1080 C   0  0  0  0  0  0  0  0  0  0  0  0
   41.3410   21.8030   35.2280 N   0  0  0  0  0  0  0  0  0  0  0  0
   41.8310   21.4870   36.4570 C   0  0  0  0  0  0  0  0  0  0  0  0
   41.1910   21.8570   37.5580 N   0  0  0  0  0  0  0  0  0  0  0  0
   39.5520   22.8360   38.4500 H   0  0  0  0  0  0  0  0  0  0  0  0
   39.7500   22.7840   34.1620 H   0  0  0  0  0  0  0  0  0  0  0  0
   42.7570   20.9250   36.4480 H   0  0  0  0  0  0  0  0  0  0  0  0
  1 27  1  0  0  0  0
  1  2  1  0  0  0  0
  3  1  1  0  0  0  0
  4  9  1  6  0  0  0
  4 15  1  0  0  0  0
  4  8  1  0  0  0  0
  5  6  1  0  0  0  0
  5 11  1  0  0  0  0
  5  4  1  0  0  0  0
  6 12  1  6  0  0  0
  6  1  1  0  0  0  0
  6  7  1  0  0  0  0
  7  8  1  0  0  0  0
  8 14  1  0  0  0  0
  8 13  1  0  0  0  0
 10  5  1  0  0  0  0
 15 16  1  0  0  0  0
 16 17  2  0  0  0  0
 16 26  1  0  0  0  0
 17 19  1  0  0  0  0
 18 17  1  0  0  0  0
 19 20  2  0  0  0  0
 21 20  1  0  0  0  0
 21 22  1  0  0  0  0
 23 22  2  0  0  0  0
 24 23  1  0  0  0  0
 25 26  1  0  0  0  0
 25 24  2  0  0  0  0
 26 21  2  0  0  0  0
 27 32  1  0  0  0  0
 28 37  1  0  0  0  0
 28 29  1  0  0  0  0
 29 34  1  0  0  0  0
 30 29  2  0  0  0  0
 30 35  1  0  0  0  0
 31 30  1  0  0  0  0
 32 33  1  0  0  0  0
 32 31  2  0  0  0  0
 33 28  2  0  0  0  0
 36 31  1  0  0  0  0
 37 40  1  0  0  0  0
 37 38  2  0  0  0  0
 39 44  1  0  0  0  0
 39 45  1  0  0  0  0
 40 39  2  0  0  0  0
 41 42  2  0  0  0  0
 41 40  1  0  0  0  0
 42 43  1  0  0  0  0
 43 44  2  0  0  0  0
 46 41  1  0  0  0  0
 47 43  1  0  0  0  0
M  END
>  <minimizedAffinity>
-6.55787897

$$$$

 OpenBabel03262522173D

 47 51  0  0  1  0  0  0  0  0999 V2000
   36.9950   29.0100   31.4040 C   0  0  0  0  0  0  0  0  0  0  0  0
   37.8530   29.4770   31.9010 H   0  0  0  0  0  0  0  0  0  0  0  0
   36.8410   29.5510   30.4480 H   0  0  0  0  0  0  0  0  0  0  0  0
   35.3690   29.9470   34.4180 C   0  0  1  0  0  0  0  0  0  0  0  0
   35.7000   30.4040   33.0010 C   0  0  0  0  0  0  0  0  0  0  0  0
   35.7600   29.0810   32.2790 C   0  0  2  0  0  0  0  0  0  0  0  0
   35.7230   28.0770   33.2040 O   0  0  0  0  0  0  0  0  0  0  0  0
   36.0920   28.6070   34.4310 C   0  0  0  0  0  0  0  0  0  0  0  0
   34.2740   29.8150   34.4350 H   0  0  0  0  0  0  0  0  0  0  0  0
   34.8970   31.0640   32.6190 H   0  0  0  0  0  0  0  0  0  0  0  0
   36.6920   30.8920   32.9520 H   0  0  0  0  0  0  0  0  0  0  0  0
   34.8930   29.0340   31.5920 H   0  0  0  0  0  0  0  0  0  0  0  0
   37.1530   28.8430   34.4070 H   0  0  0  0  0  0  0  0  0  0  0  0
   35.7610   27.9650   35.2640 H   0  0  0  0  0  0  0  0  0  0  0  0
   35.8930   30.8080   35.3560 O   0  0  0  0  0  0  0  0  0  0  0  0
   35.1750   31.7650   36.0140 C   0  0  0  0  0  0  0  0  0  0  0  0
   34.0150   31.6580   36.7510 C   0  0  0  0  0  0  0  0  0  0  0  0
   33.6220   30.6530   36.8100 H   0  0  0  0  0  0  0  0  0  0  0  0
   33.3980   32.7280   37.3640 C   0  0  0  0  0  3  0  0  0  0  0  0
   33.9910   33.9650   37.2190 C   0  0  0  0  0  3  0  0  0  0  0  0
   35.1530   34.1360   36.4950 C   0  0  0  0  0  0  0  0  0  0  0  0
   35.6350   35.4260   36.4330 C   0  0  0  0  0  3  0  0  0  0  0  0
   36.7950   35.6360   35.7160 C   0  0  0  0  0  3  0  0  0  0  0  0
   37.4250   34.5770   35.0960 C   0  0  0  0  0  3  0  0  0  0  0  0
   36.8960   33.3060   35.1920 C   0  0  0  0  0  3  0  0  0  0  0  0
   35.7410   33.0310   35.8930 C   0  0  0  0  0  0  0  0  0  0  0  0
   37.2540   27.2670   30.9670 S   0  0  0  0  0  0  0  0  0  0  0  0
   38.7940   24.9490   33.8100 C   0  0  0  0  0  0  0  0  0  0  0  0
   40.0150   25.5730   34.1240 C   0  0  0  0  0  0  0  0  0  0  0  0
   40.4160   26.7250   33.4800 C   0  0  0  0  0  0  0  0  0  0  0  0
   39.5580   27.2190   32.5260 C   0  0  0  0  0  0  0  0  0  0  0  0
   38.3800   26.6090   32.2290 C   0  0  0  0  0  0  0  0  0  0  0  0
   37.9800   25.4700   32.8630 N   0  0  0  0  0  0  0  0  0  0  0  0
   40.6570   25.1450   34.8850 H   0  0  0  0  0  0  0  0  0  0  0  0
   41.3530   27.2230   33.7060 H   0  0  0  0  0  0  0  0  0  0  0  0
   39.8090   28.1200   31.9810 H   0  0  0  0  0  0  0  0  0  0  0  0
   38.4510   23.7550   34.5240 C   0  0  0  0  0  0  0  0  0  0  0  0
   38.0040   22.7740   33.9380 O   0  0  0  0  0  0  0  0  0  0  0  0
   37.6960   24.3190   36.8060 C   0  0  0  0  0  0  0  0  0  0  0  0
   38.6130   23.6410   35.9830 C   0  0  0  0  0  0  0  0  0  0  0  0
   39.6300   22.8940   36.5730 C   0  0  0  0  0  0  0  0  0  0  0  0
   39.7100   22.8410   37.9360 N   0  0  0  0  0  0  0  0  0  0  0  0
   38.8090   23.5080   38.7050 C   0  0  0  0  0  0  0  0  0  0  0  0
   37.8380   24.2200   38.1490 N   0  0  0  0  0  0  0  0  0  0  0  0
   36.8830   24.9170   36.4050 H   0  0  0  0  0  0  0  0  0  0  0  0
   40.3160   22.3860   35.9210 H   0  0  0  0  0  0  0  0  0  0  0  0
   38.9560   23.4030   39.7730 H   0  0  0  0  0  0  0  0  0  0  0  0
  1  2  1  0  0  0  0
  1  6  1  0  0  0  0
  3  1  1  0  0  0  0
  4  8  1  0  0  0  0
  4  9  1  1  0  0  0
  4 15  1  0  0  0  0
  5  4  1  0  0  0  0
  6 12  1  6  0  0  0
  6  5  1  0  0  0  0
  6  7  1  0  0  0  0
  7  8  1  0  0  0  0
  8 14  1  0  0  0  0
 10  5  1  0  0  0  0
 11  5  1  0  0  0  0
 13  8  1  0  0  0  0
 15 16  1  0  0  0  0
 16 17  1  0  0  0  0
 17 18  1  0  0  0  0
 17 19  2  0  0  0  0
 20 19  1  0  0  0  0
 21 20  2  0  0  0  0
 22 21  1  0  0  0  0
 23 22  2  0  0  0  0
 24 25  2  0  0  0  0
 24 23  1  0  0  0  0
 25 26  1  0  0  0  0
 26 16  2  0  0  0  0
 26 21  1  0  0  0  0
 27  1  1  0  0  0  0
 27 32  1  0  0  0  0
 28 29  1  0  0  0  0
 28 37  1  0  0  0  0
 29 34  1  0  0  0  0
 30 35  1  0  0  0  0
 30 29  2  0  0  0  0
 31 30  1  0  0  0  0
 32 31  2  0  0  0  0
 32 33  1  0  0  0  0
 33 28  2  0  0  0  0
 36 31  1  0  0  0  0
 37 40  1  0  0  0  0
 38 37  2  0  0  0  0
 39 44  1  0  0  0  0
 40 41  1  0  0  0  0
 40 39  2  0  0  0  0
 41 42  2  0  0  0  0
 42 43  1  0  0  0  0
 43 47  1  0  0  0  0
 44 43  2  0  0  0  0
 45 39  1  0  0  0  0
 46 41  1  0  0  0  0
M  END
>  <minimizedAffinity>
-6.53442574

$$$$

 OpenBabel03262522173D

 47 51  0  0  1  0  0  0  0  0999 V2000
   37.5500   28.1510   31.5590 C   0  0  0  0  0  0  0  0  0  0  0  0
   37.8500   28.7870   32.4010 H   0  0  0  0  0  0  0  0  0  0  0  0
   38.3210   28.2730   30.7720 H   0  0  0  0  0  0  0  0  0  0  0  0
   34.6780   30.2380   31.6500 C   0  0  1  0  0  0  0  0  0  0  0  0
   36.0440   30.0460   30.9980 C   0  0  0  0  0  0  0  0  0  0  0  0
   36.1780   28.5450   31.0490 C   0  0  2  0  0  0  0  0  0  0  0  0
   35.1730   28.0430   31.8260 O   0  0  0  0  0  0  0  0  0  0  0  0
   34.6930   29.0680   32.6250 C   0  0  0  0  0  0  0  0  0  0  0  0
   33.9430   30.0800   30.8410 H   0  0  0  0  0  0  0  0  0  0  0  0
   36.0280   30.4400   29.9630 H   0  0  0  0  0  0  0  0  0  0  0  0
   36.8500   30.5060   31.6010 H   0  0  0  0  0  0  0  0  0  0  0  0
   36.1170   28.1680   30.0100 H   0  0  0  0  0  0  0  0  0  0  0  0
   35.4440   29.3150   33.3710 H   0  0  0  0  0  0  0  0  0  0  0  0
   33.6860   28.8400   33.0130 H   0  0  0  0  0  0  0  0  0  0  0  0
   34.6050   31.4430   32.3130 O   0  0  0  0  0  0  0  0  0  0  0  0
   35.0550   31.6540   33.5840 C   0  0  0  0  0  0  0  0  0  0  0  0
   34.6920   31.0510   34.7680 C   0  0  0  0  0  0  0  0  0  0  0  0
   33.9290   30.2930   34.6610 H   0  0  0  0  0  0  0  0  0  0  0  0
   35.2420   31.3740   35.9910 C   0  0  0  0  0  3  0  0  0  0  0  0
   36.2070   32.3590   36.0060 C   0  0  0  0  0  3  0  0  0  0  0  0
   36.6140   33.0000   34.8540 C   0  0  0  0  0  0  0  0  0  0  0  0
   37.5870   33.9630   35.0160 C   0  0  0  0  0  3  0  0  0  0  0  0
   38.0180   34.6260   33.8850 C   0  0  0  0  0  3  0  0  0  0  0  0
   37.4780   34.3150   32.6540 C   0  0  0  0  0  3  0  0  0  0  0  0
   36.5060   33.3400   32.5520 C   0  0  0  0  0  3  0  0  0  0  0  0
   36.0330   32.6430   33.6440 C   0  0  0  0  0  0  0  0  0  0  0  0
   37.4980   26.3810   31.9530 S   0  0  0  0  0  0  0  0  0  0  0  0
   38.3480   24.8880   35.5420 C   0  0  0  0  0  0  0  0  0  0  0  0
   38.3670   26.0190   36.3780 C   0  0  0  0  0  0  0  0  0  0  0  0
   38.1210   27.2820   35.8780 C   0  0  0  0  0  0  0  0  0  0  0  0
   37.8590   27.3630   34.5300 C   0  0  0  0  0  0  0  0  0  0  0  0
   37.8440   26.2640   33.7310 C   0  0  0  0  0  0  0  0  0  0  0  0
   38.0860   25.0140   34.2200 N   0  0  0  0  0  0  0  0  0  0  0  0
   38.5770   25.9040   37.4340 H   0  0  0  0  0  0  0  0  0  0  0  0
   38.1300   28.1670   36.5040 H   0  0  0  0  0  0  0  0  0  0  0  0
   37.6580   28.3220   34.0710 H   0  0  0  0  0  0  0  0  0  0  0  0
   38.6140   23.6120   36.1380 C   0  0  0  0  0  0  0  0  0  0  0  0
   37.7000   22.9030   36.5470 O   0  0  0  0  0  0  0  0  0  0  0  0
   40.2340   22.1920   37.3460 C   0  0  0  0  0  0  0  0  0  0  0  0
   39.9820   23.0890   36.2910 C   0  0  0  0  0  0  0  0  0  0  0  0
   41.0250   23.4450   35.4390 C   0  0  0  0  0  0  0  0  0  0  0  0
   42.2660   22.9140   35.6510 N   0  0  0  0  0  0  0  0  0  0  0  0
   42.4780   22.0500   36.6790 C   0  0  0  0  0  0  0  0  0  0  0  0
   41.4890   21.7070   37.4940 N   0  0  0  0  0  0  0  0  0  0  0  0
   39.4610   21.8780   38.0420 H   0  0  0  0  0  0  0  0  0  0  0  0
   40.8050   24.1310   34.6430 H   0  0  0  0  0  0  0  0  0  0  0  0
   43.4950   21.6840   36.7640 H   0  0  0  0  0  0  0  0  0  0  0  0
  1 27  1  0  0  0  0
  1  2  1  0  0  0  0
  3  1  1  0  0  0  0
  4  9  1  6  0  0  0
  4 15  1  0  0  0  0
  4  8  1  0  0  0  0
  5  6  1  0  0  0  0
  5 11  1  0  0  0  0
  5  4  1  0  0  0  0
  6 12  1  6  0  0  0
  6  1  1  0  0  0  0
  6  7  1  0  0  0  0
  7  8  1  0  0  0  0
  8 14  1  0  0  0  0
  8 13  1  0  0  0  0
 10  5  1  0  0  0  0
 15 16  1  0  0  0  0
 16 26  2  0  0  0  0
 16 17  1  0  0  0  0
 17 19  2  0  0  0  0
 18 17  1  0  0  0  0
 19 20  1  0  0  0  0
 21 22  1  0  0  0  0
 21 20  2  0  0  0  0
 23 22  2  0  0  0  0
 24 23  1  0  0  0  0
 25 24  2  0  0  0  0
 25 26  1  0  0  0  0
 26 21  1  0  0  0  0
 27 32  1  0  0  0  0
 28 37  1  0  0  0  0
 28 29  1  0  0  0  0
 29 34  1  0  0  0  0
 30 29  2  0  0  0  0
 30 35  1  0  0  0  0
 31 30  1  0  0  0  0
 32 33  1  0  0  0  0
 32 31  2  0  0  0  0
 33 28  2  0  0  0  0
 36 31  1  0  0  0  0
 37 40  1  0  0  0  0
 37 38  2  0  0  0  0
 39 44  1  0  0  0  0
 39 45  1  0  0  0  0
 40 39  2  0  0  0  0
 41 42  2  0  0  0  0
 41 40  1  0  0  0  0
 42 43  1  0  0  0  0
 43 47  1  0  0  0  0
 43 44  2  0  0  0  0
 46 41  1  0  0  0  0
M  END
>  <minimizedAffinity>
-6.49776888

$$$$

 OpenBabel03262522173D

 47 51  0  0  1  0  0  0  0  0999 V2000
   40.4380   26.8040   34.3520 C   0  0  0  0  0  0  0  0  0  0  0  0
   40.1540   26.4070   35.3330 H   0  0  0  0  0  0  0  0  0  0  0  0
   40.2270   27.8930   34.3700 H   0  0  0  0  0  0  0  0  0  0  0  0
   37.4810   26.3550   32.4390 C   0  0  1  0  0  0  0  0  0  0  0  0
   38.8060   27.1070   32.5040 C   0  0  0  0  0  0  0  0  0  0  0  0
   39.6650   26.1150   33.2460 C   0  0  2  0  0  0  0  0  0  0  0  0
   38.8650   25.1150   33.7210 O   0  0  0  0  0  0  0  0  0  0  0  0
   37.5600   25.5830   33.7500 C   0  0  0  0  0  0  0  0  0  0  0  0
   37.5690   25.6810   31.5690 H   0  0  0  0  0  0  0  0  0  0  0  0
   39.1750   27.3120   31.4800 H   0  0  0  0  0  0  0  0  0  0  0  0
   38.7180   28.0340   33.1020 H   0  0  0  0  0  0  0  0  0  0  0  0
   40.4210   25.7290   32.5370 H   0  0  0  0  0  0  0  0  0  0  0  0
   37.4700   26.3270   34.5360 H   0  0  0  0  0  0  0  0  0  0  0  0
   36.8340   24.7530   33.7870 H   0  0  0  0  0  0  0  0  0  0  0  0
   36.4120   27.2230   32.4320 O   0  0  0  0  0  0  0  0  0  0  0  0
   36.4080   28.4400   31.8140 C   0  0  0  0  0  0  0  0  0  0  0  0
   36.6710   28.7730   30.5020 C   0  0  0  0  0  0  0  0  0  0  0  0
   36.9170   27.9280   29.8740 H   0  0  0  0  0  0  0  0  0  0  0  0
   36.6280   30.0630   30.0180 C   0  0  0  0  0  3  0  0  0  0  0  0
   36.3030   31.0610   30.9130 C   0  0  0  0  0  3  0  0  0  0  0  0
   36.0300   30.7910   32.2390 C   0  0  0  0  0  0  0  0  0  0  0  0
   35.7190   31.8840   33.0200 C   0  0  0  0  0  3  0  0  0  0  0  0
   35.4410   31.6530   34.3510 C   0  0  0  0  0  3  0  0  0  0  0  0
   35.4790   30.3680   34.8520 C   0  0  0  0  0  3  0  0  0  0  0  0
   35.7960   29.3120   34.0220 C   0  0  0  0  0  3  0  0  0  0  0  0
   36.0850   29.4770   32.6840 C   0  0  0  0  0  0  0  0  0  0  0  0
   42.2040   26.6340   33.9700 S   0  0  0  0  0  0  0  0  0  0  0  0
   42.3020   23.3340   36.1890 C   0  0  0  0  0  0  0  0  0  0  0  0
   43.6420   23.2550   36.6120 C   0  0  0  0  0  0  0  0  0  0  0  0
   44.5670   24.2070   36.2350 C   0  0  0  0  0  0  0  0  0  0  0  0
   44.1030   25.2230   35.4330 C   0  0  0  0  0  0  0  0  0  0  0  0
   42.8070   25.2900   35.0290 C   0  0  0  0  0  0  0  0  0  0  0  0
   41.8890   24.3520   35.3990 N   0  0  0  0  0  0  0  0  0  0  0  0
   43.9580   22.4350   37.2450 H   0  0  0  0  0  0  0  0  0  0  0  0
   45.6040   24.1660   36.5490 H   0  0  0  0  0  0  0  0  0  0  0  0
   44.7750   26.0040   35.0990 H   0  0  0  0  0  0  0  0  0  0  0  0
   41.4030   22.3060   36.6240 C   0  0  0  0  0  0  0  0  0  0  0  0
   41.8150   21.1870   36.9150 O   0  0  0  0  0  0  0  0  0  0  0  0
   39.4690   23.1100   37.9320 C   0  0  0  0  0  0  0  0  0  0  0  0
   39.9530   22.5320   36.7440 C   0  0  0  0  0  0  0  0  0  0  0  0
   39.0520   22.2020   35.7340 C   0  0  0  0  0  0  0  0  0  0  0  0
   37.7210   22.4450   35.9260 N   0  0  0  0  0  0  0  0  0  0  0  0
   37.2840   23.0040   37.0860 C   0  0  0  0  0  0  0  0  0  0  0  0
   38.1370   23.3210   38.0500 N   0  0  0  0  0  0  0  0  0  0  0  0
   40.1220   23.3880   38.7540 H   0  0  0  0  0  0  0  0  0  0  0  0
   39.4480   21.7630   34.8380 H   0  0  0  0  0  0  0  0  0  0  0  0
   36.2130   23.1580   37.1420 H   0  0  0  0  0  0  0  0  0  0  0  0
  1  3  1  0  0  0  0
  1  2  1  0  0  0  0
  4  9  1  6  0  0  0
  4  5  1  0  0  0  0
  4  8  1  0  0  0  0
  5 11  1  0  0  0  0
  5  6  1  0  0  0  0
  6 12  1  6  0  0  0
  6  7  1  0  0  0  0
  6  1  1  0  0  0  0
  7  8  1  0  0  0  0
  8 14  1  0  0  0  0
  8 13  1  0  0  0  0
 10  5  1  0  0  0  0
 15  4  1  0  0  0  0
 16 15  1  0  0  0  0
 16 26  1  0  0  0  0
 17 16  2  0  0  0  0
 18 17  1  0  0  0  0
 19 17  1  0  0  0  0
 19 20  2  0  0  0  0
 20 21  1  0  0  0  0
 21 26  2  0  0  0  0
 21 22  1  0  0  0  0
 22 23  2  0  0  0  0
 23 24  1  0  0  0  0
 25 24  2  0  0  0  0
 26 25  1  0  0  0  0
 27  1  1  0  0  0  0
 27 32  1  0  0  0  0
 28 29  1  0  0  0  0
 28 37  1  0  0  0  0
 29 34  1  0  0  0  0
 30 35  1  0  0  0  0
 30 29  2  0  0  0  0
 31 30  1  0  0  0  0
 32 33  1  0  0  0  0
 32 31  2  0  0  0  0
 33 28  2  0  0  0  0
 36 31  1  0  0  0  0
 37 40  1  0  0  0  0
 37 38  2  0  0  0  0
 39 44  1  0  0  0  0
 39 45  1  0  0  0  0
 40 39  2  0  0  0  0
 41 42  2  0  0  0  0
 41 40  1  0  0  0  0
 42 43  1  0  0  0  0
 43 47  1  0  0  0  0
 43 44  2  0  0  0  0
 46 41  1  0  0  0  0
M  END
>  <minimizedAffinity>
-6.46883821

$$$$

 OpenBabel03262522173D

 47 51  0  0  1  0  0  0  0  0999 V2000
   38.1790   21.8550   31.8050 C   0  0  0  0  0  0  0  0  0  0  0  0
   38.6430   22.4750   32.5820 H   0  0  0  0  0  0  0  0  0  0  0  0
   38.9870   21.2430   31.3550 H   0  0  0  0  0  0  0  0  0  0  0  0
   36.9250   24.9870   30.6960 C   0  0  1  0  0  0  0  0  0  0  0  0
   38.1500   24.0770   30.6940 C   0  0  0  0  0  0  0  0  0  0  0  0
   37.4990   22.7180   30.7620 C   0  0  2  0  0  0  0  0  0  0  0  0
   36.1670   22.8850   31.0170 O   0  0  0  0  0  0  0  0  0  0  0  0
   35.9860   24.1500   31.5530 C   0  0  0  0  0  0  0  0  0  0  0  0
   36.5870   25.0250   29.6460 H   0  0  0  0  0  0  0  0  0  0  0  0
   38.7320   24.2270   29.7640 H   0  0  0  0  0  0  0  0  0  0  0  0
   38.7710   24.2300   31.5970 H   0  0  0  0  0  0  0  0  0  0  0  0
   37.6680   22.2170   29.7900 H   0  0  0  0  0  0  0  0  0  0  0  0
   36.4040   24.1700   32.5560 H   0  0  0  0  0  0  0  0  0  0  0  0
   34.9370   24.4800   31.4630 H   0  0  0  0  0  0  0  0  0  0  0  0
   37.2020   26.1980   31.2910 O   0  0  0  0  0  0  0  0  0  0  0  0
   38.4210   26.5490   31.7970 C   0  0  0  0  0  0  0  0  0  0  0  0
   39.6160   26.7880   31.1540 C   0  0  0  0  0  0  0  0  0  0  0  0
   39.5690   26.6750   30.0800 H   0  0  0  0  0  0  0  0  0  0  0  0
   40.7780   27.1390   31.8080 C   0  0  0  0  0  3  0  0  0  0  0  0
   40.7180   27.2530   33.1810 C   0  0  0  0  0  3  0  0  0  0  0  0
   39.5510   27.0280   33.8820 C   0  0  0  0  0  0  0  0  0  0  0  0
   39.6350   27.1770   35.2500 C   0  0  0  0  0  3  0  0  0  0  0  0
   38.4870   26.9590   35.9830 C   0  0  0  0  0  3  0  0  0  0  0  0
   37.3160   26.6070   35.3450 C   0  0  0  0  0  3  0  0  0  0  0  0
   37.2910   26.4720   33.9720 C   0  0  0  0  0  3  0  0  0  0  0  0
   38.4030   26.6750   33.1830 C   0  0  0  0  0  0  0  0  0  0  0  0
   36.9440   20.6850   32.4360 S   0  0  0  0  0  0  0  0  0  0  0  0
   37.5210   22.2570   36.0440 C   0  0  0  0  0  0  0  0  0  0  0  0
   36.4260   21.7860   36.7920 C   0  0  0  0  0  0  0  0  0  0  0  0
   35.4700   20.9700   36.2240 C   0  0  0  0  0  0  0  0  0  0  0  0
   35.6520   20.6510   34.8980 C   0  0  0  0  0  0  0  0  0  0  0  0
   36.7120   21.1110   34.1840 C   0  0  0  0  0  0  0  0  0  0  0  0
   37.6600   21.9170   34.7420 N   0  0  0  0  0  0  0  0  0  0  0  0
   36.3270   22.0650   37.8340 H   0  0  0  0  0  0  0  0  0  0  0  0
   34.6180   20.5960   36.7810 H   0  0  0  0  0  0  0  0  0  0  0  0
   34.9390   20.0150   34.3880 H   0  0  0  0  0  0  0  0  0  0  0  0
   38.4700   23.1000   36.7090 C   0  0  0  0  0  0  0  0  0  0  0  0
   38.1040   23.9660   37.4970 O   0  0  0  0  0  0  0  0  0  0  0  0
   40.6270   22.0170   37.2340 C   0  0  0  0  0  0  0  0  0  0  0  0
   39.9200   22.9750   36.4830 C   0  0  0  0  0  0  0  0  0  0  0  0
   40.6110   23.7610   35.5640 C   0  0  0  0  0  0  0  0  0  0  0  0
   41.9570   23.5820   35.4170 N   0  0  0  0  0  0  0  0  0  0  0  0
   42.6130   22.6480   36.1570 C   0  0  0  0  0  0  0  0  0  0  0  0
   41.9600   21.8970   37.0330 N   0  0  0  0  0  0  0  0  0  0  0  0
   40.1430   21.3760   37.9650 H   0  0  0  0  0  0  0  0  0  0  0  0
   40.0480   24.4840   35.0040 H   0  0  0  0  0  0  0  0  0  0  0  0
   43.6780   22.5810   35.9670 H   0  0  0  0  0  0  0  0  0  0  0  0
  1 27  1  0  0  0  0
  1  2  1  0  0  0  0
  3  1  1  0  0  0  0
  4  9  1  6  0  0  0
  4 15  1  0  0  0  0
  4  8  1  0  0  0  0
  5  4  1  0  0  0  0
  5  6  1  0  0  0  0
  5 11  1  0  0  0  0
  6 12  1  6  0  0  0
  6  7  1  0  0  0  0
  6  1  1  0  0  0  0
  7  8  1  0  0  0  0
  8 13  1  0  0  0  0
 10  5  1  0  0  0  0
 14  8  1  0  0  0  0
 15 16  1  0  0  0  0
 16 26  1  0  0  0  0
 17 16  2  0  0  0  0
 17 19  1  0  0  0  0
 18 17  1  0  0  0  0
 19 20  2  0  0  0  0
 20 21  1  0  0  0  0
 21 22  1  0  0  0  0
 22 23  2  0  0  0  0
 24 23  1  0  0  0  0
 25 24  2  0  0  0  0
 26 21  2  0  0  0  0
 26 25  1  0  0  0  0
 27 32  1  0  0  0  0
 28 37  1  0  0  0  0
 28 29  1  0  0  0  0
 29 34  1  0  0  0  0
 30 35  1  0  0  0  0
 30 29  2  0  0  0  0
 31 30  1  0  0  0  0
 32 33  1  0  0  0  0
 32 31  2  0  0  0  0
 33 28  2  0  0  0  0
 36 31  1  0  0  0  0
 37 38  2  0  0  0  0
 39 45  1  0  0  0  0
 40 37  1  0  0  0  0
 40 39  2  0  0  0  0
 41 40  1  0  0  0  0
 42 41  2  0  0  0  0
 42 43  1  0  0  0  0
 43 44  2  0  0  0  0
 44 39  1  0  0  0  0
 46 41  1  0  0  0  0
 47 43  1  0  0  0  0
M  END
>  <minimizedAffinity>
-6.4119854

$$$$

 OpenBabel03262522173D

 47 51  0  0  1  0  0  0  0  0999 V2000
   38.5960   26.1750   31.1910 C   0  0  0  0  0  0  0  0  0  0  0  0
   39.2110   25.8530   30.3430 H   0  0  0  0  0  0  0  0  0  0  0  0
   38.2020   25.2570   31.6720 H   0  0  0  0  0  0  0  0  0  0  0  0
   35.8010   28.2590   31.8670 C   0  0  1  0  0  0  0  0  0  0  0  0
   37.3130   28.2500   31.6630 C   0  0  0  0  0  0  0  0  0  0  0  0
   37.4700   27.0770   30.7280 C   0  0  2  0  0  0  0  0  0  0  0  0
   36.2770   26.4170   30.6510 O   0  0  0  0  0  0  0  0  0  0  0  0
   35.5190   26.7660   31.7580 C   0  0  0  0  0  0  0  0  0  0  0  0
   35.3930   28.8110   31.0030 H   0  0  0  0  0  0  0  0  0  0  0  0
   37.6400   29.2060   31.2110 H   0  0  0  0  0  0  0  0  0  0  0  0
   37.8490   28.0370   32.6080 H   0  0  0  0  0  0  0  0  0  0  0  0
   37.7800   27.4740   29.7420 H   0  0  0  0  0  0  0  0  0  0  0  0
   35.9610   26.3170   32.6430 H   0  0  0  0  0  0  0  0  0  0  0  0
   34.4480   26.5570   31.5960 H   0  0  0  0  0  0  0  0  0  0  0  0
   35.4670   28.7430   33.1120 O   0  0  0  0  0  0  0  0  0  0  0  0
   34.3580   29.4940   33.3780 C   0  0  0  0  0  0  0  0  0  0  0  0
   33.1050   29.4630   32.8060 C   0  0  0  0  0  0  0  0  0  0  0  0
   32.9950   28.7240   32.0260 H   0  0  0  0  0  0  0  0  0  0  0  0
   32.0720   30.2950   33.1840 C   0  0  0  0  0  3  0  0  0  0  0  0
   32.3300   31.2010   34.1920 C   0  0  0  0  0  3  0  0  0  0  0  0
   33.5640   31.2800   34.8040 C   0  0  0  0  0  0  0  0  0  0  0  0
   33.6810   32.2300   35.7960 C   0  0  0  0  0  3  0  0  0  0  0  0
   34.9020   32.3380   36.4290 C   0  0  0  0  0  3  0  0  0  0  0  0
   35.9460   31.5140   36.0630 C   0  0  0  0  0  3  0  0  0  0  0  0
   35.7700   30.5800   35.0630 C   0  0  0  0  0  3  0  0  0  0  0  0
   34.5770   30.4230   34.3910 C   0  0  0  0  0  0  0  0  0  0  0  0
   39.5180   27.0680   32.4740 S   0  0  0  0  0  0  0  0  0  0  0  0
   38.7230   24.3440   35.2620 C   0  0  0  0  0  0  0  0  0  0  0  0
   38.3120   25.1090   36.3690 C   0  0  0  0  0  0  0  0  0  0  0  0
   38.2610   26.4860   36.3060 C   0  0  0  0  0  0  0  0  0  0  0  0
   38.6330   27.0550   35.1110 C   0  0  0  0  0  0  0  0  0  0  0  0
   39.0290   26.3080   34.0470 C   0  0  0  0  0  0  0  0  0  0  0  0
   39.0810   24.9460   34.1040 N   0  0  0  0  0  0  0  0  0  0  0  0
   38.0280   24.6130   37.2890 H   0  0  0  0  0  0  0  0  0  0  0  0
   37.9470   27.0960   37.1460 H   0  0  0  0  0  0  0  0  0  0  0  0
   38.6170   28.1320   34.9910 H   0  0  0  0  0  0  0  0  0  0  0  0
   38.7490   22.9180   35.4080 C   0  0  0  0  0  0  0  0  0  0  0  0
   39.6860   22.3560   35.9660 O   0  0  0  0  0  0  0  0  0  0  0  0
   36.7050   21.5950   35.8190 C   0  0  0  0  0  0  0  0  0  0  0  0
   37.6650   22.0590   34.9010 C   0  0  0  0  0  0  0  0  0  0  0  0
   37.5550   21.6950   33.5620 C   0  0  0  0  0  0  0  0  0  0  0  0
   36.5180   20.8950   33.1740 N   0  0  0  0  0  0  0  0  0  0  0  0
   35.6060   20.4610   34.0850 C   0  0  0  0  0  0  0  0  0  0  0  0
   35.7050   20.8040   35.3620 N   0  0  0  0  0  0  0  0  0  0  0  0
   36.7380   21.8450   36.8760 H   0  0  0  0  0  0  0  0  0  0  0  0
   38.3010   22.0650   32.8830 H   0  0  0  0  0  0  0  0  0  0  0  0
   34.8220   19.8320   33.6800 H   0  0  0  0  0  0  0  0  0  0  0  0
  1  3  1  0  0  0  0
  1 27  1  0  0  0  0
  2  1  1  0  0  0  0
  4  9  1  6  0  0  0
  4 15  1  0  0  0  0
  5  4  1  0  0  0  0
  5 11  1  0  0  0  0
  6 12  1  6  0  0  0
  6  1  1  0  0  0  0
  6  5  1  0  0  0  0
  7  6  1  0  0  0  0
  7  8  1  0  0  0  0
  8  4  1  0  0  0  0
  8 13  1  0  0  0  0
 10  5  1  0  0  0  0
 14  8  1  0  0  0  0
 15 16  1  0  0  0  0
 16 26  1  0  0  0  0
 17 19  1  0  0  0  0
 17 16  2  0  0  0  0
 18 17  1  0  0  0  0
 19 20  2  0  0  0  0
 20 21  1  0  0  0  0
 21 22  1  0  0  0  0
 22 23  2  0  0  0  0
 24 23  1  0  0  0  0
 25 24  2  0  0  0  0
 26 21  2  0  0  0  0
 26 25  1  0  0  0  0
 27 32  1  0  0  0  0
 28 37  1  0  0  0  0
 28 29  1  0  0  0  0
 29 34  1  0  0  0  0
 30 29  2  0  0  0  0
 30 35  1  0  0  0  0
 31 30  1  0  0  0  0
 32 33  1  0  0  0  0
 32 31  2  0  0  0  0
 33 28  2  0  0  0  0
 36 31  1  0  0  0  0
 37 38  2  0  0  0  0
 39 45  1  0  0  0  0
 40 37  1  0  0  0  0
 40 39  2  0  0  0  0
 41 40  1  0  0  0  0
 42 41  2  0  0  0  0
 42 43  1  0  0  0  0
 43 44  2  0  0  0  0
 44 39  1  0  0  0  0
 46 41  1  0  0  0  0
 47 43  1  0  0  0  0
M  END
>  <minimizedAffinity>
-6.36481571

$$$$

 OpenBabel03262522173D

 47 51  0  0  1  0  0  0  0  0999 V2000
   37.0050   26.5660   31.1650 C   0  0  0  0  0  0  0  0  0  0  0  0
   36.2200   26.4140   30.4150 H   0  0  0  0  0  0  0  0  0  0  0  0
   36.7410   25.9380   32.0400 H   0  0  0  0  0  0  0  0  0  0  0  0
   35.8870   29.3820   33.0160 C   0  0  1  0  0  0  0  0  0  0  0  0
   36.8580   28.2050   33.0250 C   0  0  0  0  0  0  0  0  0  0  0  0
   37.1090   28.0280   31.5490 C   0  0  2  0  0  0  0  0  0  0  0  0
   36.2240   28.8080   30.8590 O   0  0  0  0  0  0  0  0  0  0  0  0
   35.1670   29.1090   31.7020 C   0  0  0  0  0  0  0  0  0  0  0  0
   36.5200   30.2830   32.9490 H   0  0  0  0  0  0  0  0  0  0  0  0
   37.7740   28.4750   33.5860 H   0  0  0  0  0  0  0  0  0  0  0  0
   36.3840   27.2900   33.4280 H   0  0  0  0  0  0  0  0  0  0  0  0
   38.1560   28.3250   31.3480 H   0  0  0  0  0  0  0  0  0  0  0  0
   34.5810   28.2090   31.8680 H   0  0  0  0  0  0  0  0  0  0  0  0
   34.6050   29.9890   31.3470 H   0  0  0  0  0  0  0  0  0  0  0  0
   35.0210   29.3240   34.0850 O   0  0  0  0  0  0  0  0  0  0  0  0
   34.8540   30.3230   35.0000 C   0  0  0  0  0  0  0  0  0  0  0  0
   35.7640   31.2220   35.5110 C   0  0  0  0  0  0  0  0  0  0  0  0
   36.7640   31.1090   35.1180 H   0  0  0  0  0  0  0  0  0  0  0  0
   35.4450   32.1880   36.4430 C   0  0  0  0  0  3  0  0  0  0  0  0
   34.1350   32.2370   36.8730 C   0  0  0  0  0  3  0  0  0  0  0  0
   33.1770   31.3650   36.3990 C   0  0  0  0  0  0  0  0  0  0  0  0
   31.9090   31.5280   36.9150 C   0  0  0  0  0  3  0  0  0  0  0  0
   30.9260   30.6730   36.4640 C   0  0  0  0  0  3  0  0  0  0  0  0
   31.2290   29.7020   35.5320 C   0  0  0  0  0  3  0  0  0  0  0  0
   32.5160   29.5840   35.0500 C   0  0  0  0  0  3  0  0  0  0  0  0
   33.5440   30.4070   35.4610 C   0  0  0  0  0  0  0  0  0  0  0  0
   38.6520   26.0240   30.6280 S   0  0  0  0  0  0  0  0  0  0  0  0
   40.3650   24.8280   34.0130 C   0  0  0  0  0  0  0  0  0  0  0  0
   41.1780   25.9160   34.3780 C   0  0  0  0  0  0  0  0  0  0  0  0
   41.2350   27.0570   33.6050 C   0  0  0  0  0  0  0  0  0  0  0  0
   40.4570   27.0630   32.4710 C   0  0  0  0  0  0  0  0  0  0  0  0
   39.6750   26.0070   32.1260 C   0  0  0  0  0  0  0  0  0  0  0  0
   39.6150   24.8770   32.8880 N   0  0  0  0  0  0  0  0  0  0  0  0
   41.7730   25.8630   35.2820 H   0  0  0  0  0  0  0  0  0  0  0  0
   41.8550   27.9080   33.8670 H   0  0  0  0  0  0  0  0  0  0  0  0
   40.4530   27.9270   31.8170 H   0  0  0  0  0  0  0  0  0  0  0  0
   40.3620   23.6790   34.8700 C   0  0  0  0  0  0  0  0  0  0  0  0
   41.0200   22.6820   34.5930 O   0  0  0  0  0  0  0  0  0  0  0  0
   40.1410   22.9840   37.2290 C   0  0  0  0  0  0  0  0  0  0  0  0
   39.5770   23.6330   36.1160 C   0  0  0  0  0  0  0  0  0  0  0  0
   38.3120   24.2030   36.2310 C   0  0  0  0  0  0  0  0  0  0  0  0
   37.6510   24.1160   37.4240 N   0  0  0  0  0  0  0  0  0  0  0  0
   38.2210   23.4810   38.4820 C   0  0  0  0  0  0  0  0  0  0  0  0
   39.4260   22.9360   38.3780 N   0  0  0  0  0  0  0  0  0  0  0  0
   41.1230   22.5200   37.2000 H   0  0  0  0  0  0  0  0  0  0  0  0
   37.9060   24.6930   35.3660 H   0  0  0  0  0  0  0  0  0  0  0  0
   37.6190   23.4650   39.3830 H   0  0  0  0  0  0  0  0  0  0  0  0
  1  6  1  0  0  0  0
  1  3  1  0  0  0  0
  2  1  1  0  0  0  0
  4  9  1  6  0  0  0
  4  5  1  0  0  0  0
  4 15  1  0  0  0  0
  5 11  1  0  0  0  0
  5 10  1  0  0  0  0
  6 12  1  6  0  0  0
  6  5  1  0  0  0  0
  7  6  1  0  0  0  0
  7  8  1  0  0  0  0
  8 13  1  0  0  0  0
  8  4  1  0  0  0  0
 14  8  1  0  0  0  0
 15 16  1  0  0  0  0
 16 26  2  0  0  0  0
 16 17  1  0  0  0  0
 17 19  2  0  0  0  0
 18 17  1  0  0  0  0
 19 20  1  0  0  0  0
 21 20  2  0  0  0  0
 21 22  1  0  0  0  0
 23 22  2  0  0  0  0
 24 23  1  0  0  0  0
 25 26  1  0  0  0  0
 25 24  2  0  0  0  0
 26 21  1  0  0  0  0
 27  1  1  0  0  0  0
 27 32  1  0  0  0  0
 28 29  1  0  0  0  0
 28 37  1  0  0  0  0
 29 34  1  0  0  0  0
 30 35  1  0  0  0  0
 30 29  2  0  0  0  0
 31 30  1  0  0  0  0
 32 31  2  0  0  0  0
 32 33  1  0  0  0  0
 33 28  2  0  0  0  0
 36 31  1  0  0  0  0
 37 40  1  0  0  0  0
 38 37  2  0  0  0  0
 39 44  1  0  0  0  0
 40 41  1  0  0  0  0
 40 39  2  0  0  0  0
 41 42  2  0  0  0  0
 42 43  1  0  0  0  0
 43 47  1  0  0  0  0
 44 43  2  0  0  0  0
 45 39  1  0  0  0  0
 46 41  1  0  0  0  0
M  END
>  <minimizedAffinity>
-6.33474445

$$$$
