REMARK  Name = 
REMARK  3 active torsions:
REMARK  status: ('A' for Active; 'I' for Inactive)
REMARK    1  A    between atoms: N_1  and  C_6
REMARK    2  A    between atoms: C_2  and  C_12
REMARK    3  A    between atoms: C_12  and  C_24
REMARK                            x       y       z     vdW  Elec       q    Type
REMARK                         _______ _______ _______ _____ _____    ______ ____
ROOT
ATOM      1  N   UNL     1      36.541  29.766  49.175  0.00  0.00    +0.000 N 
ATOM      2  C   UNL     1      37.320  30.866  48.745  0.00  0.00    +0.000 C 
ATOM      3  C   UNL     1      37.987  31.393  50.010  0.00  0.00    +0.000 C 
ATOM      4  C   UNL     1      37.493  30.433  51.116  0.00  0.00    +0.000 C 
ATOM      5  C   UNL     1      37.270  29.194  50.277  0.00  0.00    +0.000 C 
ATOM      6  H   UNL     1      36.511  31.693  48.573  0.00  0.00    +0.000 HD
ATOM      7  H   UNL     1      37.777  32.435  50.233  0.00  0.00    +0.000 HD
ATOM      8  H   UNL     1      39.072  31.158  49.907  0.00  0.00    +0.000 HD
ATOM      9  H   UNL     1      38.237  30.303  51.904  0.00  0.00    +0.000 HD
ATOM     10  H   UNL     1      36.532  30.868  51.449  0.00  0.00    +0.000 HD
ATOM     11  H   UNL     1      36.692  28.499  50.882  0.00  0.00    +0.000 HD
ATOM     12  H   UNL     1      38.262  28.800  49.972  0.00  0.00    +0.000 HD
ENDROOT
BRANCH   1  13
ATOM     13  C   UNL     1      35.298  29.342  48.623  0.00  0.00    +0.000 A 
ATOM     14  C   UNL     1      34.722  30.080  47.610  0.00  0.00    +0.000 A 
ATOM     15  C   UNL     1      33.526  29.651  47.029  0.00  0.00    +0.000 A 
ATOM     16  N   UNL     1      32.990  28.478  47.533  0.00  0.00    +0.000 NA
ATOM     17  C   UNL     1      33.578  27.782  48.524  0.00  0.00    +0.000 A 
ATOM     18  N   UNL     1      34.743  28.214  49.078  0.00  0.00    +0.000 NA
ATOM     19  H   UNL     1      35.134  30.993  47.215  0.00  0.00    +0.000 HD
ATOM     20  H   UNL     1      33.055  30.209  46.235  0.00  0.00    +0.000 HD
ATOM     21  H   UNL     1      33.082  26.881  48.846  0.00  0.00    +0.000 HD
ENDBRANCH   1  13
BRANCH   2  22
ATOM     22  C   UNL     1      38.120  30.736  47.567  0.00  0.00    +0.000 C 
ATOM     23  O   UNL     1      39.018  31.593  47.471  0.00  0.00    +0.000 OA
BRANCH  22  24
ATOM     24  C   UNL     1      38.217  29.900  46.378  0.00  0.00    +0.000 A 
ATOM     25  C   UNL     1      39.013  28.778  46.314  0.00  0.00    +0.000 A 
ATOM     26  H   UNL     1      39.584  28.369  47.126  0.00  0.00    +0.000 HD
ATOM     27  C   UNL     1      39.264  27.989  45.216  0.00  0.00    +0.000 A 
ATOM     28  C   UNL     1      38.659  28.351  44.039  0.00  0.00    +0.000 A 
ATOM     29  C   UNL     1      37.848  29.458  44.012  0.00  0.00    +0.000 A 
ATOM     30  C   UNL     1      37.233  29.791  42.828  0.00  0.00    +0.000 A 
ATOM     31  C   UNL     1      36.382  30.864  42.696  0.00  0.00    +0.000 A 
ATOM     32  C   UNL     1      36.176  31.608  43.858  0.00  0.00    +0.000 A 
ATOM     33  C   UNL     1      36.806  31.250  45.028  0.00  0.00    +0.000 A 
ATOM     34  C   UNL     1      37.657  30.181  45.162  0.00  0.00    +0.000 A 
ENDBRANCH  22  24
ENDBRANCH   2  22
TORSDOF 3
