
     RDKit          3D

 40 43  0  0  0  0  0  0  0  0999 V2000
   38.0133   30.3145   50.1890 C   0  0  0  0  0  0  0  0  0  0  0  0
   37.3990   30.5000   48.9322 C   0  0  0  0  0  0  0  0  0  0  0  0
   36.0666   30.1053   48.8065 C   0  0  0  0  0  0  0  0  0  0  0  0
   35.4246   29.5678   49.8790 N   0  0  0  0  0  0  0  0  0  0  0  0
   36.0583   29.4036   51.0871 C   0  0  0  0  0  0  0  0  0  0  0  0
   37.3613   29.7825   51.2331 N   0  0  0  0  0  0  0  0  0  0  0  0
   38.2009   31.0798   47.8912 C   0  0  0  0  0  0  0  0  0  0  0  0
   38.5294   30.2722   46.8206 C   0  0  0  0  0  0  0  0  0  0  0  0
   39.2882   30.6542   45.7327 C   0  0  0  0  0  0  0  0  0  0  0  0
   39.7697   31.9774   45.7089 C   0  0  0  0  0  0  0  0  0  0  0  0
   39.4485   32.8070   46.7804 C   0  0  0  0  0  0  0  0  0  0  0  0
   38.6882   32.3827   47.8446 C   0  0  0  0  0  0  0  0  0  0  0  0
   38.2575   33.4100   49.2289 S   0  0  0  0  0  0  0  0  0  0  0  0
   35.2884   30.2420   47.5346 C   0  0  0  0  0  0  0  0  0  0  0  0
   34.0160   30.7632   47.8279 F   0  0  0  0  0  0  0  0  0  0  0  0
   35.8558   30.9801   46.5594 F   0  0  0  0  0  0  0  0  0  0  0  0
   34.9954   28.9656   47.0429 F   0  0  0  0  0  0  0  0  0  0  0  0
   39.0466   30.6111   50.3175 H   0  0  0  0  0  0  0  0  0  0  0  0
   35.4164   28.9620   51.8471 H   0  0  0  0  0  0  0  0  0  0  0  0
   38.1840   29.2386   46.7857 H   0  0  0  0  0  0  0  0  0  0  0  0
   39.5107   29.9696   44.9228 H   0  0  0  0  0  0  0  0  0  0  0  0
   40.3713   32.3314   44.8780 H   0  0  0  0  0  0  0  0  0  0  0  0
   39.7992   33.8193   46.7927 H   0  0  0  0  0  0  0  0  0  0  0  0
   38.9151   35.0501   49.0931 C   0  0  0  0  0  0  0  0  0  0  0  0
   39.1437   35.7009   47.8984 C   0  0  0  0  0  0  0  0  0  0  0  0
   38.9086   35.1823   46.9790 H   0  0  0  0  0  0  0  0  0  0  0  0
   39.6655   36.9909   47.9530 C   0  0  0  0  0  0  0  0  0  0  0  0
   39.9530   37.6198   49.1477 C   0  0  0  0  0  0  0  0  0  0  0  0
   39.7205   36.9591   50.3463 C   0  0  0  0  0  0  0  0  0  0  0  0
   40.0065   37.5840   51.5437 C   0  0  0  0  0  0  0  0  0  0  0  0
   39.7899   36.9634   52.7362 C   0  0  0  0  0  0  0  0  0  0  0  0
   39.2677   35.6686   52.7326 C   0  0  0  0  0  0  0  0  0  0  0  0
   38.9920   35.0703   51.5204 C   0  0  0  0  0  0  0  0  0  0  0  0
   39.1986   35.6686   50.2945 C   0  0  0  0  0  0  0  0  0  0  0  0
   39.8478   37.5086   47.0181 H   0  0  0  0  0  0  0  0  0  0  0  0
   40.3581   38.6208   49.1964 H   0  0  0  0  0  0  0  0  0  0  0  0
   40.4146   38.5920   51.5998 H   0  0  0  0  0  0  0  0  0  0  0  0
   39.9701   37.3399   53.7357 H   0  0  0  0  0  0  0  0  0  0  0  0
   39.0686   35.1109   53.6465 H   0  0  0  0  0  0  0  0  0  0  0  0
   38.5816   34.0517   51.5381 H   0  0  0  0  0  0  0  0  0  0  0  0
  1  6  2  0
  2  1  1  0
  3  2  2  0
  3  4  1  0
  4  5  2  0
  5  6  1  0
  7  2  1  0
  8  7  2  0
  9  8  1  0
 10  9  2  0
 10 11  1  0
 11 12  2  0
 12  7  1  0
 12 13  1  0
 14 15  1  0
 14  3  1  0
 16 14  1  0
 17 14  1  0
  1 18  1  0
  5 19  1  0
  8 20  1  0
  9 21  1  0
 10 22  1  0
 11 23  1  0
 24 25  2  0
 25 26  1  0
 25 27  1  0
 27 28  2  0
 28 29  1  0
 29 30  2  0
 30 31  1  0
 31 32  2  0
 32 33  1  0
 33 34  2  0
 34 24  1  0
 34 29  1  0
 27 35  1  0
 28 36  1  0
 30 37  1  0
 31 38  1  0
 32 39  1  0
 33 40  1  0
 13 24  1  0
M  ISO  7  18  14  19  14  20  14  21  14  22  14  23  14  26  15
M  END
>  <DihAtoms>  (1) 
11,12,23,24

>  <DihDeg>  (1) 
-89.99923693507252

$$$$
