REMARK  Name = 
REMARK  2 active torsions:
REMARK  status: ('A' for Active; 'I' for Inactive)
REMARK    1  A    between atoms: C_1  and  C_7
REMARK    2  A    between atoms: C_7  and  C_12
REMARK                            x       y       z     vdW  Elec       q    Type
REMARK                         _______ _______ _______ _____ _____    ______ ____
ROOT
ATOM      1  C   UNL     1      37.402  29.539  50.875  0.00  0.00    +0.000 C 
ATOM      2  O   UNL     1      37.376  30.039  52.046  0.00  0.00    +0.000 OA
ENDROOT
BRANCH   1   3
ATOM      3  C   UNL     1      37.205  28.108  50.562  0.00  0.00    +0.000 A 
ATOM      4  C   UNL     1      35.887  27.723  50.307  0.00  0.00    +0.000 A 
ATOM      5  H   UNL     1      35.084  28.462  50.352  0.00  0.00    +0.000 HD
ATOM      6  C   UNL     1      35.492  26.440  49.992  0.00  0.00    +0.000 A 
ATOM      7  C   UNL     1      36.461  25.470  49.922  0.00  0.00    +0.000 A 
ATOM      8  C   UNL     1      37.766  25.834  50.171  0.00  0.00    +0.000 A 
ATOM      9  C   UNL     1      38.819  24.917  50.124  0.00  0.00    +0.000 A 
ATOM     10  C   UNL     1      40.133  25.261  50.371  0.00  0.00    +0.000 A 
ATOM     11  C   UNL     1      40.448  26.581  50.683  0.00  0.00    +0.000 A 
ATOM     12  C   UNL     1      39.440  27.523  50.741  0.00  0.00    +0.000 A 
ATOM     13  C   UNL     1      38.160  27.117  50.486  0.00  0.00    +0.000 A 
ENDBRANCH   1   3
BRANCH   1  14
ATOM     14  C   UNL     1      37.640  30.393  49.707  0.00  0.00    +0.000 A 
ATOM     15  C   UNL     1      38.339  31.581  49.912  0.00  0.00    +0.000 A 
ATOM     16  C   UNL     1      38.573  32.406  48.794  0.00  0.00    +0.000 A 
ATOM     17  N   UNL     1      38.094  31.985  47.574  0.00  0.00    +0.000 NA
ATOM     18  C   UNL     1      37.427  30.838  47.422  0.00  0.00    +0.000 A 
ATOM     19  N   UNL     1      37.204  30.052  48.480  0.00  0.00    +0.000 NA
ATOM     20  H   UNL     1      38.695  31.867  50.889  0.00  0.00    +0.000 HD
ATOM     21  H   UNL     1      39.110  33.340  48.886  0.00  0.00    +0.000 HD
ATOM     22  H   UNL     1      37.084  30.578  46.429  0.00  0.00    +0.000 HD
ENDBRANCH   1  14
TORSDOF 2
