
 OpenBabel03272508573D

 42 46  0  0  1  0  0  0  0  0999 V2000
   39.1620   31.4500   43.3590 C   0  0  0  0  0  0  0  0  0  0  0  0
   40.1630   30.5120   43.5260 C   0  0  0  0  0  0  0  0  0  0  0  0
   40.8790   30.1450   42.4030 C   0  0  0  0  0  0  0  0  0  0  0  0
   40.5690   30.7160   41.2010 C   0  0  0  0  0  0  0  0  0  0  0  0
   39.5520   31.6670   41.0350 C   0  0  0  0  0  0  0  0  0  0  0  0
   38.8770   31.9990   42.1540 N   0  0  0  0  0  0  0  0  0  0  0  0
   40.4140   30.0550   44.4750 H   0  0  0  0  0  0  0  0  0  0  0  0
   41.6810   29.4280   42.4020 H   0  0  0  0  0  0  0  0  0  0  0  0
   41.1020   30.4590   40.3010 H   0  0  0  0  0  0  0  0  0  0  0  0
   38.3820   31.8620   44.5430 C   0  0  0  0  0  0  0  0  0  0  0  0
   37.3010   32.4490   44.4320 O   0  0  0  0  0  0  0  0  0  0  0  0
   38.9310   31.5540   45.8470 N   0  0  0  0  0  0  0  0  0  0  0  0
   39.9060   31.2480   45.9960 H   0  0  0  0  0  0  0  0  0  0  0  0
   38.4180   31.0890   48.2380 C   0  0  2  0  0  0  0  0  0  0  0  0
   38.6510   32.5530   48.1240 C   0  0  0  0  0  0  0  0  0  0  0  0
   38.0580   31.6870   46.9940 C   0  0  1  0  0  0  0  0  0  0  0  0
   39.3340   30.4680   48.3330 H   0  0  0  0  0  0  0  0  0  0  0  0
   39.6750   32.9010   48.0140 H   0  0  0  0  0  0  0  0  0  0  0  0
   37.9740   33.2310   48.6760 H   0  0  0  0  0  0  0  0  0  0  0  0
   36.9950   31.9360   46.7910 H   0  0  0  0  0  0  0  0  0  0  0  0
   35.0510   30.2040   49.5430 C   0  0  0  0  0  0  0  0  0  0  0  0
   35.3780   29.5720   50.7730 C   0  0  0  0  0  0  0  0  0  0  0  0
   36.7730   29.4670   51.1500 C   0  0  0  0  0  0  0  0  0  0  0  0
   37.7210   29.9780   50.3080 N   0  0  0  0  0  0  0  0  0  0  0  0
   37.3290   30.5690   49.1470 C   0  0  0  0  0  0  0  0  0  0  0  0
   36.0100   30.7010   48.7300 N   0  0  0  0  0  0  0  0  0  0  0  0
   34.0100   30.2480   49.3270 H   0  0  0  0  0  0  0  0  0  0  0  0
   34.6620   29.1690   51.4410 H   0  0  0  0  0  0  0  0  0  0  0  0
   37.0170   28.9910   52.0780 H   0  0  0  0  0  0  0  0  0  0  0  0
   39.2450   32.2360   39.7360 C   0  0  0  0  0  0  0  0  0  0  0  0
   38.5870   33.3030   39.6740 O   0  0  0  0  0  0  0  0  0  0  0  0
   39.5920   31.7520   38.4120 C   0  0  0  0  0  0  0  0  0  0  0  0
   40.6480   32.3590   37.7230 C   0  0  0  0  0  0  0  0  0  0  0  0
   41.1530   33.1940   38.2280 H   0  0  0  0  0  0  0  0  0  0  0  0
   41.1030   32.0010   36.4720 C   0  0  0  0  0  3  0  0  0  0  0  0
   40.4670   30.9540   35.8390 C   0  0  0  0  0  3  0  0  0  0  0  0
   39.4190   30.3160   36.4700 C   0  0  0  0  0  0  0  0  0  0  0  0
   38.7770   29.2720   35.8410 C   0  0  0  0  0  3  0  0  0  0  0  0
   37.7180   28.6240   36.4640 C   0  0  0  0  0  3  0  0  0  0  0  0
   37.2990   29.0320   37.7330 C   0  0  0  0  0  3  0  0  0  0  0  0
   37.9620   30.0770   38.3330 C   0  0  0  0  0  3  0  0  0  0  0  0
   39.0030   30.7140   37.7230 C   0  0  0  0  0  0  0  0  0  0  0  0
  1  2  1  0  0  0  0
  1 10  1  0  0  0  0
  2  7  1  0  0  0  0
  3  2  2  0  0  0  0
  4  3  1  0  0  0  0
  5  4  2  0  0  0  0
  5  6  1  0  0  0  0
  6  1  2  0  0  0  0
  8  3  1  0  0  0  0
  9  4  1  0  0  0  0
 10 12  1  0  0  0  0
 11 10  2  0  0  0  0
 12 13  1  0  0  0  0
 12 16  1  0  0  0  0
 14 17  1  6  0  0  0
 14 25  1  0  0  0  0
 15 14  1  0  0  0  0
 15 19  1  0  0  0  0
 16 20  1  6  0  0  0
 16 15  1  0  0  0  0
 16 14  1  0  0  0  0
 18 15  1  0  0  0  0
 21 22  1  0  0  0  0
 22 23  2  0  0  0  0
 22 28  1  0  0  0  0
 23 29  1  0  0  0  0
 24 23  1  0  0  0  0
 25 24  2  0  0  0  0
 26 25  1  0  0  0  0
 26 21  2  0  0  0  0
 27 21  1  0  0  0  0
 30  5  1  0  0  0  0
 31 30  2  0  0  0  0
 32 30  1  0  0  0  0
 33 34  1  0  0  0  0
 33 32  2  0  0  0  0
 35 33  1  0  0  0  0
 36 37  1  0  0  0  0
 36 35  2  0  0  0  0
 37 42  1  0  0  0  0
 38 39  1  0  0  0  0
 38 37  2  0  0  0  0
 39 40  2  0  0  0  0
 40 41  1  0  0  0  0
 42 41  2  0  0  0  0
 42 32  1  0  0  0  0
M  END
>  <minimizedAffinity>
-4.96690083

>  <minimizedRMSD>
1.09692824

$$$$
