
 OpenBabel03272503483D

 26 28  0  0  0  0  0  0  0  0999 V2000
   38.8260   27.6090   35.6470 O   0  0  0  0  0  0  0  0  0  0  0  0
   39.4960   26.7110   34.6320 P   0  0  2  0  0  0  0  0  0  0  0  0
   41.1600   26.8080   34.9420 O   0  0  0  0  0  0  0  0  0  0  0  0
   41.4920   25.9850   35.3920 H   0  0  0  0  0  0  0  0  0  0  0  0
   39.1770   27.2260   33.0190 O   0  0  0  0  0  0  0  0  0  0  0  0
   37.9290   27.1080   32.4360 C   0  0  0  0  0  0  0  0  0  0  0  0
   36.8940   28.0490   32.5300 C   0  0  0  0  0  0  0  0  0  0  0  0
   35.6890   27.7810   31.8810 C   0  0  0  0  0  0  0  0  0  0  0  0
   35.5730   26.6160   31.1870 N   0  0  0  0  0  0  0  0  0  0  0  0
   36.5960   25.7270   31.1190 C   0  0  0  0  0  0  0  0  0  0  0  0
   37.7850   25.9650   31.7430 N   0  0  0  0  0  0  0  0  0  0  0  0
   37.1030   28.9210   33.1000 H   0  0  0  0  0  0  0  0  0  0  0  0
   34.9120   28.5200   31.9700 H   0  0  0  0  0  0  0  0  0  0  0  0
   36.4090   24.8240   30.5390 H   0  0  0  0  0  0  0  0  0  0  0  0
   38.9480   25.1140   34.7310 O   0  0  0  0  0  0  0  0  0  0  0  0
   38.9110   24.4910   35.9710 C   0  0  0  0  0  0  0  0  0  0  0  0
   38.0150   24.7180   36.9940 C   0  0  0  0  0  0  0  0  0  0  0  0
   37.2660   25.4620   36.7970 H   0  0  0  0  0  0  0  0  0  0  0  0
   38.0990   24.0190   38.1810 C   0  0  0  0  0  3  0  0  0  0  0  0
   39.0890   23.0550   38.4020 C   0  0  0  0  0  3  0  0  0  0  0  0
   39.9730   22.8480   37.3640 C   0  0  0  0  0  0  0  0  0  0  0  0
   40.9480   21.8790   37.6190 C   0  0  0  0  0  3  0  0  0  0  0  0
   41.8570   21.6410   36.5990 C   0  0  0  0  0  3  0  0  0  0  0  0
   41.8420   22.2990   35.3750 C   0  0  0  0  0  3  0  0  0  0  0  0
   40.8470   23.2390   35.2070 C   0  0  0  0  0  3  0  0  0  0  0  0
   39.9070   23.5350   36.1710 C   0  0  0  0  0  0  0  0  0  0  0  0
  2 15  1  0  0  0  0
  2  3  1  0  0  0  0
  2  1  2  1  0  0  0
  3  4  1  0  0  0  0
  5  2  1  0  0  0  0
  6  7  1  0  0  0  0
  6  5  1  0  0  0  0
  7 12  1  0  0  0  0
  8 13  1  0  0  0  0
  8  7  2  0  0  0  0
  9  8  1  0  0  0  0
 10  9  2  0  0  0  0
 10 11  1  0  0  0  0
 11  6  2  0  0  0  0
 14 10  1  0  0  0  0
 15 16  1  0  0  0  0
 16 26  2  0  0  0  0
 16 17  1  0  0  0  0
 17 19  2  0  0  0  0
 18 17  1  0  0  0  0
 19 20  1  0  0  0  0
 21 22  1  0  0  0  0
 21 20  2  0  0  0  0
 23 22  2  0  0  0  0
 24 23  1  0  0  0  0
 25 24  2  0  0  0  0
 25 26  1  0  0  0  0
 26 21  1  0  0  0  0
M  END
>  <minimizedAffinity>
-5.77419281

$$$$

 OpenBabel03272503483D

 26 28  0  0  0  0  0  0  0  0999 V2000
   39.6120   27.1820   33.6000 O   0  0  0  0  0  0  0  0  0  0  0  0
   38.6370   26.6070   34.6030 P   0  0  2  0  0  0  0  0  0  0  0  0
   38.9390   27.4070   36.0670 O   0  0  0  0  0  0  0  0  0  0  0  0
   38.2300   28.0760   36.2640 H   0  0  0  0  0  0  0  0  0  0  0  0
   38.8660   24.9120   34.8120 O   0  0  0  0  0  0  0  0  0  0  0  0
   38.9330   24.3210   36.0600 C   0  0  0  0  0  0  0  0  0  0  0  0
   39.8640   23.3500   36.4520 C   0  0  0  0  0  0  0  0  0  0  0  0
   39.7980   22.8500   37.7530 C   0  0  0  0  0  0  0  0  0  0  0  0
   38.8300   23.3290   38.5820 N   0  0  0  0  0  0  0  0  0  0  0  0
   37.9440   24.2690   38.1670 C   0  0  0  0  0  0  0  0  0  0  0  0
   37.9860   24.7750   36.9010 N   0  0  0  0  0  0  0  0  0  0  0  0
   40.5720   23.0540   35.7180 H   0  0  0  0  0  0  0  0  0  0  0  0
   40.5240   22.1060   38.0280 H   0  0  0  0  0  0  0  0  0  0  0  0
   37.2070   24.5910   38.9020 H   0  0  0  0  0  0  0  0  0  0  0  0
   37.0300   26.8060   34.1180 O   0  0  0  0  0  0  0  0  0  0  0  0
   36.7550   27.5760   32.9960 C   0  0  0  0  0  0  0  0  0  0  0  0
   36.9320   27.2210   31.6750 C   0  0  0  0  0  0  0  0  0  0  0  0
   37.3240   26.2360   31.5090 H   0  0  0  0  0  0  0  0  0  0  0  0
   36.6140   28.0960   30.6560 C   0  0  0  0  0  3  0  0  0  0  0  0
   36.1030   29.3730   30.9100 C   0  0  0  0  0  3  0  0  0  0  0  0
   35.9370   29.7040   32.2390 C   0  0  0  0  0  0  0  0  0  0  0  0
   35.4250   30.9860   32.4570 C   0  0  0  0  0  3  0  0  0  0  0  0
   35.2430   31.3560   33.7810 C   0  0  0  0  0  3  0  0  0  0  0  0
   35.5370   30.5380   34.8650 C   0  0  0  0  0  3  0  0  0  0  0  0
   36.0380   29.2890   34.5600 C   0  0  0  0  0  3  0  0  0  0  0  0
   36.2480   28.8450   33.2720 C   0  0  0  0  0  0  0  0  0  0  0  0
  2  1  2  6  0  0  0
  2  5  1  0  0  0  0
  2  3  1  0  0  0  0
  3  4  1  0  0  0  0
  5  6  1  0  0  0  0
  6  7  2  0  0  0  0
  6 11  1  0  0  0  0
  7  8  1  0  0  0  0
  8 13  1  0  0  0  0
  8  9  2  0  0  0  0
 10  9  1  0  0  0  0
 10 14  1  0  0  0  0
 11 10  2  0  0  0  0
 12  7  1  0  0  0  0
 15  2  1  0  0  0  0
 16 26  1  0  0  0  0
 16 15  1  0  0  0  0
 17 16  2  0  0  0  0
 18 17  1  0  0  0  0
 19 20  2  0  0  0  0
 19 17  1  0  0  0  0
 20 21  1  0  0  0  0
 21 22  2  0  0  0  0
 21 26  1  0  0  0  0
 22 23  1  0  0  0  0
 23 24  2  0  0  0  0
 25 24  1  0  0  0  0
 26 25  2  0  0  0  0
M  END
>  <minimizedAffinity>
-5.6856823

$$$$

 OpenBabel03272503483D

 26 28  0  0  0  0  0  0  0  0999 V2000
   40.1880   27.3590   33.7260 O   0  0  0  0  0  0  0  0  0  0  0  0
   39.1340   26.6220   34.5200 P   0  0  2  0  0  0  0  0  0  0  0  0
   39.0170   27.4240   36.0090 O   0  0  0  0  0  0  0  0  0  0  0  0
   38.1900   27.9740   36.0580 H   0  0  0  0  0  0  0  0  0  0  0  0
   39.5720   24.9760   34.7820 O   0  0  0  0  0  0  0  0  0  0  0  0
   39.3550   24.3330   35.9870 C   0  0  0  0  0  0  0  0  0  0  0  0
   40.1600   23.3200   36.5250 C   0  0  0  0  0  0  0  0  0  0  0  0
   39.8030   22.7700   37.7570 C   0  0  0  0  0  0  0  0  0  0  0  0
   38.6890   23.2440   38.3790 N   0  0  0  0  0  0  0  0  0  0  0  0
   37.9320   24.2260   37.8270 C   0  0  0  0  0  0  0  0  0  0  0  0
   38.2580   24.7810   36.6240 N   0  0  0  0  0  0  0  0  0  0  0  0
   41.0040   23.0340   35.9480 H   0  0  0  0  0  0  0  0  0  0  0  0
   40.4380   21.9950   38.1470 H   0  0  0  0  0  0  0  0  0  0  0  0
   37.0610   24.5390   38.4000 H   0  0  0  0  0  0  0  0  0  0  0  0
   37.6420   26.5890   33.7250 O   0  0  0  0  0  0  0  0  0  0  0  0
   36.9490   27.7770   33.5440 C   0  0  0  0  0  0  0  0  0  0  0  0
   36.2410   28.4850   34.4910 C   0  0  0  0  0  0  0  0  0  0  0  0
   36.2330   28.0600   35.4770 H   0  0  0  0  0  0  0  0  0  0  0  0
   35.5960   29.6610   34.1640 C   0  0  0  0  0  3  0  0  0  0  0  0
   35.6290   30.1870   32.8690 C   0  0  0  0  0  3  0  0  0  0  0  0
   36.3430   29.4600   31.9400 C   0  0  0  0  0  0  0  0  0  0  0  0
   36.3550   30.0130   30.6560 C   0  0  0  0  0  3  0  0  0  0  0  0
   37.0630   29.3100   29.6920 C   0  0  0  0  0  3  0  0  0  0  0  0
   37.7390   28.1220   29.9370 C   0  0  0  0  0  3  0  0  0  0  0  0
   37.6760   27.6460   31.2300 C   0  0  0  0  0  3  0  0  0  0  0  0
   36.9940   28.2830   32.2440 C   0  0  0  0  0  0  0  0  0  0  0  0
  2  1  2  6  0  0  0
  2  5  1  0  0  0  0
  2  3  1  0  0  0  0
  3  4  1  0  0  0  0
  5  6  1  0  0  0  0
  6  7  2  0  0  0  0
  6 11  1  0  0  0  0
  7  8  1  0  0  0  0
  8 13  1  0  0  0  0
  8  9  2  0  0  0  0
 10  9  1  0  0  0  0
 10 14  1  0  0  0  0
 11 10  2  0  0  0  0
 12  7  1  0  0  0  0
 15  2  1  0  0  0  0
 16 15  1  0  0  0  0
 16 17  1  0  0  0  0
 17 18  1  0  0  0  0
 19 17  2  0  0  0  0
 20 19  1  0  0  0  0
 21 26  1  0  0  0  0
 21 20  2  0  0  0  0
 22 21  1  0  0  0  0
 23 24  1  0  0  0  0
 23 22  2  0  0  0  0
 24 25  2  0  0  0  0
 25 26  1  0  0  0  0
 26 16  2  0  0  0  0
M  END
>  <minimizedAffinity>
-5.61151457

$$$$

 OpenBabel03272503483D

 26 28  0  0  0  0  0  0  0  0999 V2000
   39.3100   27.2560   35.5360 O   0  0  0  0  0  0  0  0  0  0  0  0
   38.0600   26.6650   34.9240 P   0  0  2  0  0  0  0  0  0  0  0  0
   36.9130   27.9130   34.8960 O   0  0  0  0  0  0  0  0  0  0  0  0
   36.7910   28.2700   33.9760 H   0  0  0  0  0  0  0  0  0  0  0  0
   37.4580   25.3470   35.8570 O   0  0  0  0  0  0  0  0  0  0  0  0
   38.2920   24.4720   36.5290 C   0  0  0  0  0  0  0  0  0  0  0  0
   39.3890   23.8030   35.9700 C   0  0  0  0  0  0  0  0  0  0  0  0
   40.1330   22.9480   36.7840 C   0  0  0  0  0  0  0  0  0  0  0  0
   39.7580   22.8040   38.0850 N   0  0  0  0  0  0  0  0  0  0  0  0
   38.6890   23.4680   38.5910 C   0  0  0  0  0  0  0  0  0  0  0  0
   37.9440   24.3090   37.8180 N   0  0  0  0  0  0  0  0  0  0  0  0
   39.5840   23.9950   34.9440 H   0  0  0  0  0  0  0  0  0  0  0  0
   40.9700   22.4480   36.3300 H   0  0  0  0  0  0  0  0  0  0  0  0
   38.4680   23.2890   39.6420 H   0  0  0  0  0  0  0  0  0  0  0  0
   38.3350   26.0530   33.3720 O   0  0  0  0  0  0  0  0  0  0  0  0
   37.2490   25.8000   32.5460 C   0  0  0  0  0  0  0  0  0  0  0  0
   36.4220   26.7250   31.9450 C   0  0  0  0  0  0  0  0  0  0  0  0
   36.6560   27.7540   32.1450 H   0  0  0  0  0  0  0  0  0  0  0  0
   35.3720   26.3240   31.1430 C   0  0  0  0  0  3  0  0  0  0  0  0
   35.0990   24.9740   30.9040 C   0  0  0  0  0  3  0  0  0  0  0  0
   35.9400   24.0690   31.5170 C   0  0  0  0  0  0  0  0  0  0  0  0
   35.6380   22.7290   31.2570 C   0  0  0  0  0  3  0  0  0  0  0  0
   36.4610   21.7880   31.8560 C   0  0  0  0  0  3  0  0  0  0  0  0
   37.5380   22.1050   32.6750 C   0  0  0  0  0  3  0  0  0  0  0  0
   37.7650   23.4500   32.8790 C   0  0  0  0  0  3  0  0  0  0  0  0
   36.9940   24.4470   32.3220 C   0  0  0  0  0  0  0  0  0  0  0  0
  2  1  2  1  0  0  0
  2  5  1  0  0  0  0
  3  2  1  0  0  0  0
  4  3  1  0  0  0  0
  5  6  1  0  0  0  0
  6 11  1  0  0  0  0
  7  6  2  0  0  0  0
  7  8  1  0  0  0  0
  8  9  2  0  0  0  0
  9 10  1  0  0  0  0
 10 14  1  0  0  0  0
 11 10  2  0  0  0  0
 12  7  1  0  0  0  0
 13  8  1  0  0  0  0
 15  2  1  0  0  0  0
 16 15  1  0  0  0  0
 17 18  1  0  0  0  0
 17 16  2  0  0  0  0
 19 17  1  0  0  0  0
 20 19  2  0  0  0  0
 20 21  1  0  0  0  0
 21 26  1  0  0  0  0
 22 21  2  0  0  0  0
 22 23  1  0  0  0  0
 23 24  2  0  0  0  0
 24 25  1  0  0  0  0
 26 16  1  0  0  0  0
 26 25  2  0  0  0  0
M  END
>  <minimizedAffinity>
-5.55912924

$$$$

 OpenBabel03272503483D

 26 28  0  0  0  0  0  0  0  0999 V2000
   37.8270   27.7430   35.6320 O   0  0  0  0  0  0  0  0  0  0  0  0
   38.6760   26.7770   34.8380 P   0  0  2  0  0  0  0  0  0  0  0  0
   40.2760   27.0380   35.3350 O   0  0  0  0  0  0  0  0  0  0  0  0
   40.5930   26.3060   35.9290 H   0  0  0  0  0  0  0  0  0  0  0  0
   38.5430   27.0590   33.1440 O   0  0  0  0  0  0  0  0  0  0  0  0
   37.9730   26.1410   32.2810 C   0  0  0  0  0  0  0  0  0  0  0  0
   38.6760   25.2210   31.4910 C   0  0  0  0  0  0  0  0  0  0  0  0
   37.9510   24.3580   30.6690 C   0  0  0  0  0  0  0  0  0  0  0  0
   36.5930   24.4500   30.6720 N   0  0  0  0  0  0  0  0  0  0  0  0
   35.9460   25.3550   31.4500 C   0  0  0  0  0  0  0  0  0  0  0  0
   36.6300   26.2100   32.2630 N   0  0  0  0  0  0  0  0  0  0  0  0
   39.7350   25.2440   31.5740 H   0  0  0  0  0  0  0  0  0  0  0  0
   38.5160   23.6630   30.0740 H   0  0  0  0  0  0  0  0  0  0  0  0
   34.8590   25.3510   31.3850 H   0  0  0  0  0  0  0  0  0  0  0  0
   38.2150   25.1700   35.0840 O   0  0  0  0  0  0  0  0  0  0  0  0
   38.4570   24.5800   36.3170 C   0  0  0  0  0  0  0  0  0  0  0  0
   37.8180   24.8450   37.5090 C   0  0  0  0  0  0  0  0  0  0  0  0
   37.0480   25.5910   37.4670 H   0  0  0  0  0  0  0  0  0  0  0  0
   38.1680   24.1760   38.6660 C   0  0  0  0  0  3  0  0  0  0  0  0
   39.1770   23.2080   38.6840 C   0  0  0  0  0  3  0  0  0  0  0  0
   39.8010   22.9630   37.4780 C   0  0  0  0  0  0  0  0  0  0  0  0
   40.8040   21.9910   37.5320 C   0  0  0  0  0  3  0  0  0  0  0  0
   41.4550   21.7160   36.3400 C   0  0  0  0  0  3  0  0  0  0  0  0
   41.1660   22.3410   35.1330 C   0  0  0  0  0  3  0  0  0  0  0  0
   40.1630   23.2870   35.1690 C   0  0  0  0  0  3  0  0  0  0  0  0
   39.4680   23.6190   36.3120 C   0  0  0  0  0  0  0  0  0  0  0  0
  2 15  1  0  0  0  0
  2  3  1  0  0  0  0
  2  1  2  1  0  0  0
  3  4  1  0  0  0  0
  5  2  1  0  0  0  0
  6  5  1  0  0  0  0
  7 12  1  0  0  0  0
  7  6  2  0  0  0  0
  8  9  2  0  0  0  0
  8  7  1  0  0  0  0
  9 10  1  0  0  0  0
 10 11  2  0  0  0  0
 11  6  1  0  0  0  0
 13  8  1  0  0  0  0
 14 10  1  0  0  0  0
 15 16  1  0  0  0  0
 16 17  1  0  0  0  0
 17 19  2  0  0  0  0
 18 17  1  0  0  0  0
 19 20  1  0  0  0  0
 21 22  1  0  0  0  0
 21 20  2  0  0  0  0
 23 22  2  0  0  0  0
 24 25  2  0  0  0  0
 24 23  1  0  0  0  0
 25 26  1  0  0  0  0
 26 16  2  0  0  0  0
 26 21  1  0  0  0  0
M  END
>  <minimizedAffinity>
-5.40241432

$$$$

 OpenBabel03272503483D

 26 28  0  0  0  0  0  0  0  0999 V2000
   36.6850   27.4630   34.8200 O   0  0  0  0  0  0  0  0  0  0  0  0
   38.0670   26.8550   34.8950 P   0  0  2  0  0  0  0  0  0  0  0  0
   38.8080   27.5350   36.2600 O   0  0  0  0  0  0  0  0  0  0  0  0
   38.8460   26.8840   37.0110 H   0  0  0  0  0  0  0  0  0  0  0  0
   38.9980   27.2180   33.4910 O   0  0  0  0  0  0  0  0  0  0  0  0
   40.2650   26.7020   33.2860 C   0  0  0  0  0  0  0  0  0  0  0  0
   40.7130   26.0900   32.1080 C   0  0  0  0  0  0  0  0  0  0  0  0
   42.0260   25.6190   32.0600 C   0  0  0  0  0  0  0  0  0  0  0  0
   42.8100   25.7750   33.1620 N   0  0  0  0  0  0  0  0  0  0  0  0
   42.3400   26.3720   34.2870 C   0  0  0  0  0  0  0  0  0  0  0  0
   41.0620   26.8420   34.3600 N   0  0  0  0  0  0  0  0  0  0  0  0
   40.0100   26.0250   31.3150 H   0  0  0  0  0  0  0  0  0  0  0  0
   42.3440   25.1540   31.1440 H   0  0  0  0  0  0  0  0  0  0  0  0
   43.0430   26.4530   35.1150 H   0  0  0  0  0  0  0  0  0  0  0  0
   38.0200   25.1690   35.0020 O   0  0  0  0  0  0  0  0  0  0  0  0
   38.3120   24.5630   36.2160 C   0  0  0  0  0  0  0  0  0  0  0  0
   37.6550   24.7340   37.4160 C   0  0  0  0  0  0  0  0  0  0  0  0
   36.8240   25.4130   37.3960 H   0  0  0  0  0  0  0  0  0  0  0  0
   38.0610   24.0600   38.5510 C   0  0  0  0  0  3  0  0  0  0  0  0
   39.1490   23.1810   38.5390 C   0  0  0  0  0  3  0  0  0  0  0  0
   39.7900   23.0290   37.3280 C   0  0  0  0  0  0  0  0  0  0  0  0
   40.8720   22.1440   37.3520 C   0  0  0  0  0  3  0  0  0  0  0  0
   41.5430   21.9630   36.1520 C   0  0  0  0  0  3  0  0  0  0  0  0
   41.2000   22.6000   34.9660 C   0  0  0  0  0  3  0  0  0  0  0  0
   40.1200   23.4560   35.0300 C   0  0  0  0  0  3  0  0  0  0  0  0
   39.4010   23.6910   36.1820 C   0  0  0  0  0  0  0  0  0  0  0  0
  2  1  2  6  0  0  0
  2 15  1  0  0  0  0
  2  3  1  0  0  0  0
  3  4  1  0  0  0  0
  5  2  1  0  0  0  0
  6  5  1  0  0  0  0
  6 11  1  0  0  0  0
  7  6  2  0  0  0  0
  8  7  1  0  0  0  0
  8  9  2  0  0  0  0
  9 10  1  0  0  0  0
 10 11  2  0  0  0  0
 10 14  1  0  0  0  0
 12  7  1  0  0  0  0
 13  8  1  0  0  0  0
 15 16  1  0  0  0  0
 16 17  1  0  0  0  0
 17 19  2  0  0  0  0
 18 17  1  0  0  0  0
 20 19  1  0  0  0  0
 21 22  1  0  0  0  0
 21 20  2  0  0  0  0
 23 22  2  0  0  0  0
 24 25  2  0  0  0  0
 24 23  1  0  0  0  0
 25 26  1  0  0  0  0
 26 16  2  0  0  0  0
 26 21  1  0  0  0  0
M  END
>  <minimizedAffinity>
-5.29847145

$$$$

 OpenBabel03272503483D

 26 28  0  0  0  0  0  0  0  0999 V2000
   36.0490   30.9720   35.8080 O   0  0  0  0  0  0  0  0  0  0  0  0
   35.2560   30.5020   34.6100 P   0  0  2  0  0  0  0  0  0  0  0  0
   35.8550   31.3670   33.2800 O   0  0  0  0  0  0  0  0  0  0  0  0
   36.4290   30.7920   32.7050 H   0  0  0  0  0  0  0  0  0  0  0  0
   33.5730   30.8220   34.7960 O   0  0  0  0  0  0  0  0  0  0  0  0
   32.6290   29.8140   34.8670 C   0  0  0  0  0  0  0  0  0  0  0  0
   32.2100   29.1730   36.0400 C   0  0  0  0  0  0  0  0  0  0  0  0
   31.2450   28.1700   35.9430 C   0  0  0  0  0  0  0  0  0  0  0  0
   30.7560   27.8600   34.7110 N   0  0  0  0  0  0  0  0  0  0  0  0
   31.1870   28.5010   33.5960 C   0  0  0  0  0  0  0  0  0  0  0  0
   32.1280   29.4860   33.6630 N   0  0  0  0  0  0  0  0  0  0  0  0
   32.6640   29.5010   36.9430 H   0  0  0  0  0  0  0  0  0  0  0  0
   30.9420   27.6940   36.8590 H   0  0  0  0  0  0  0  0  0  0  0  0
   30.7360   28.1850   32.6570 H   0  0  0  0  0  0  0  0  0  0  0  0
   35.3920   28.8350   34.3660 O   0  0  0  0  0  0  0  0  0  0  0  0
   36.3000   28.3630   33.4290 C   0  0  0  0  0  0  0  0  0  0  0  0
   36.1800   28.4010   32.0560 C   0  0  0  0  0  0  0  0  0  0  0  0
   35.2800   28.8490   31.6820 H   0  0  0  0  0  0  0  0  0  0  0  0
   37.1710   27.8890   31.2420 C   0  0  0  0  0  3  0  0  0  0  0  0
   38.3330   27.3120   31.7650 C   0  0  0  0  0  3  0  0  0  0  0  0
   38.4280   27.2860   33.1410 C   0  0  0  0  0  0  0  0  0  0  0  0
   39.6010   26.7040   33.6300 C   0  0  0  0  0  3  0  0  0  0  0  0
   39.7340   26.6580   35.0090 C   0  0  0  0  0  3  0  0  0  0  0  0
   38.7870   27.1500   35.8980 C   0  0  0  0  0  3  0  0  0  0  0  0
   37.6600   27.7080   35.3320 C   0  0  0  0  0  3  0  0  0  0  0  0
   37.4510   27.7910   33.9720 C   0  0  0  0  0  0  0  0  0  0  0  0
  2  5  1  0  0  0  0
  2  1  2  1  0  0  0
  3  2  1  0  0  0  0
  4  3  1  0  0  0  0
  5  6  1  0  0  0  0
  6  7  1  0  0  0  0
  7 12  1  0  0  0  0
  8  7  2  0  0  0  0
  8 13  1  0  0  0  0
  9  8  1  0  0  0  0
 10 11  1  0  0  0  0
 10  9  2  0  0  0  0
 11  6  2  0  0  0  0
 14 10  1  0  0  0  0
 15  2  1  0  0  0  0
 16 26  1  0  0  0  0
 16 15  1  0  0  0  0
 17 16  2  0  0  0  0
 18 17  1  0  0  0  0
 19 20  2  0  0  0  0
 19 17  1  0  0  0  0
 20 21  1  0  0  0  0
 21 22  2  0  0  0  0
 21 26  1  0  0  0  0
 22 23  1  0  0  0  0
 23 24  2  0  0  0  0
 25 24  1  0  0  0  0
 26 25  2  0  0  0  0
M  END
>  <minimizedAffinity>
-5.25559759

$$$$

 OpenBabel03272503483D

 26 28  0  0  0  0  0  0  0  0999 V2000
   36.0980   25.8120   31.9830 O   0  0  0  0  0  0  0  0  0  0  0  0
   37.3430   25.2490   31.3360 P   0  0  2  0  0  0  0  0  0  0  0  0
   37.8210   26.3800   30.1680 O   0  0  0  0  0  0  0  0  0  0  0  0
   38.6160   26.8960   30.4690 H   0  0  0  0  0  0  0  0  0  0  0  0
   37.0350   23.7310   30.5800 O   0  0  0  0  0  0  0  0  0  0  0  0
   36.7640   22.5840   31.3030 C   0  0  0  0  0  0  0  0  0  0  0  0
   35.5580   22.2990   31.9560 C   0  0  0  0  0  0  0  0  0  0  0  0
   35.4420   21.0920   32.6460 C   0  0  0  0  0  0  0  0  0  0  0  0
   36.5090   20.2460   32.6530 N   0  0  0  0  0  0  0  0  0  0  0  0
   37.6630   20.5560   32.0110 C   0  0  0  0  0  0  0  0  0  0  0  0
   37.8030   21.7290   31.3280 N   0  0  0  0  0  0  0  0  0  0  0  0
   34.7970   23.0360   31.8790 H   0  0  0  0  0  0  0  0  0  0  0  0
   34.5060   20.8990   33.1380 H   0  0  0  0  0  0  0  0  0  0  0  0
   38.4600   19.8160   32.0720 H   0  0  0  0  0  0  0  0  0  0  0  0
   38.5770   24.9720   32.4580 O   0  0  0  0  0  0  0  0  0  0  0  0
   38.5120   25.5920   33.6980 C   0  0  0  0  0  0  0  0  0  0  0  0
   38.6600   26.9360   33.9690 C   0  0  0  0  0  0  0  0  0  0  0  0
   38.8460   27.5620   33.1170 H   0  0  0  0  0  0  0  0  0  0  0  0
   38.5700   27.4140   35.2610 C   0  0  0  0  0  3  0  0  0  0  0  0
   38.3260   26.5680   36.3480 C   0  0  0  0  0  3  0  0  0  0  0  0
   38.1820   25.2290   36.0500 C   0  0  0  0  0  0  0  0  0  0  0  0
   37.9400   24.4120   37.1580 C   0  0  0  0  0  3  0  0  0  0  0  0
   37.7890   23.0580   36.9000 C   0  0  0  0  0  3  0  0  0  0  0  0
   37.8640   22.4950   35.6320 C   0  0  0  0  0  3  0  0  0  0  0  0
   38.1060   23.3720   34.5950 C   0  0  0  0  0  3  0  0  0  0  0  0
   38.2690   24.7300   34.7670 C   0  0  0  0  0  0  0  0  0  0  0  0
  2  1  2  1  0  0  0
  2 15  1  0  0  0  0
  3  4  1  0  0  0  0
  3  2  1  0  0  0  0
  5  6  1  0  0  0  0
  5  2  1  0  0  0  0
  6 11  2  0  0  0  0
  6  7  1  0  0  0  0
  7  8  2  0  0  0  0
  8  9  1  0  0  0  0
  8 13  1  0  0  0  0
 10 14  1  0  0  0  0
 10  9  2  0  0  0  0
 11 10  1  0  0  0  0
 12  7  1  0  0  0  0
 15 16  1  0  0  0  0
 16 17  2  0  0  0  0
 16 26  1  0  0  0  0
 17 19  1  0  0  0  0
 18 17  1  0  0  0  0
 19 20  2  0  0  0  0
 21 20  1  0  0  0  0
 21 22  1  0  0  0  0
 23 22  2  0  0  0  0
 24 23  1  0  0  0  0
 25 26  1  0  0  0  0
 25 24  2  0  0  0  0
 26 21  2  0  0  0  0
M  END
>  <minimizedAffinity>
-5.25488997

$$$$

 OpenBabel03272503483D

 26 28  0  0  0  0  0  0  0  0999 V2000
   36.6980   29.6330   31.9520 O   0  0  0  0  0  0  0  0  0  0  0  0
   35.8510   28.6030   32.6640 P   0  0  2  0  0  0  0  0  0  0  0  0
   36.8630   27.8700   33.8100 O   0  0  0  0  0  0  0  0  0  0  0  0
   36.6540   28.1860   34.7290 H   0  0  0  0  0  0  0  0  0  0  0  0
   35.2530   27.4100   31.5730 O   0  0  0  0  0  0  0  0  0  0  0  0
   35.8990   26.2040   31.3660 C   0  0  0  0  0  0  0  0  0  0  0  0
   35.2710   24.9590   31.2270 C   0  0  0  0  0  0  0  0  0  0  0  0
   36.0670   23.8310   31.0230 C   0  0  0  0  0  0  0  0  0  0  0  0
   37.4180   23.9930   30.9680 N   0  0  0  0  0  0  0  0  0  0  0  0
   37.9900   25.2150   31.1080 C   0  0  0  0  0  0  0  0  0  0  0  0
   37.2360   26.3340   31.3090 N   0  0  0  0  0  0  0  0  0  0  0  0
   34.2110   24.9580   31.2870 H   0  0  0  0  0  0  0  0  0  0  0  0
   35.5600   22.8890   30.9190 H   0  0  0  0  0  0  0  0  0  0  0  0
   39.0770   25.2450   31.0490 H   0  0  0  0  0  0  0  0  0  0  0  0
   34.4920   29.2890   33.3980 O   0  0  0  0  0  0  0  0  0  0  0  0
   34.6700   30.1480   34.4740 C   0  0  0  0  0  0  0  0  0  0  0  0
   35.8340   30.7790   34.8570 C   0  0  0  0  0  0  0  0  0  0  0  0
   36.6930   30.5770   34.2450 H   0  0  0  0  0  0  0  0  0  0  0  0
   35.8630   31.6110   35.9580 C   0  0  0  0  0  3  0  0  0  0  0  0
   34.7230   31.8520   36.7320 C   0  0  0  0  0  3  0  0  0  0  0  0
   33.5720   31.2080   36.3290 C   0  0  0  0  0  0  0  0  0  0  0  0
   32.4520   31.4710   37.1240 C   0  0  0  0  0  3  0  0  0  0  0  0
   31.2750   30.8420   36.7520 C   0  0  0  0  0  3  0  0  0  0  0  0
   31.1590   29.9910   35.6590 C   0  0  0  0  0  3  0  0  0  0  0  0
   32.3110   29.7870   34.9290 C   0  0  0  0  0  3  0  0  0  0  0  0
   33.5210   30.3730   35.2330 C   0  0  0  0  0  0  0  0  0  0  0  0
  2  1  2  6  0  0  0
  2 15  1  0  0  0  0
  2  3  1  0  0  0  0
  3  4  1  0  0  0  0
  5  2  1  0  0  0  0
  6  5  1  0  0  0  0
  7 12  1  0  0  0  0
  7  6  2  0  0  0  0
  8  7  1  0  0  0  0
  9  8  2  0  0  0  0
  9 10  1  0  0  0  0
 10 11  2  0  0  0  0
 11  6  1  0  0  0  0
 13  8  1  0  0  0  0
 14 10  1  0  0  0  0
 15 16  1  0  0  0  0
 16 17  2  0  0  0  0
 16 26  1  0  0  0  0
 17 19  1  0  0  0  0
 18 17  1  0  0  0  0
 19 20  2  0  0  0  0
 21 20  1  0  0  0  0
 21 22  1  0  0  0  0
 23 22  2  0  0  0  0
 24 23  1  0  0  0  0
 25 26  1  0  0  0  0
 25 24  2  0  0  0  0
 26 21  2  0  0  0  0
M  END
>  <minimizedAffinity>
-5.24321795

$$$$
