
 OpenBabel03272508433D

 22 24  0  0  0  0  0  0  0  0999 V2000
   38.6470   25.1270   32.6390 C   0  0  0  0  0  0  0  0  0  0  0  0
   39.6850   24.6850   32.0530 O   0  0  0  0  0  0  0  0  0  0  0  0
   38.5360   25.6270   34.0070 C   0  0  0  0  0  0  0  0  0  0  0  0
   38.6440   26.9880   34.3070 C   0  0  0  0  0  0  0  0  0  0  0  0
   38.8110   27.7060   33.5260 H   0  0  0  0  0  0  0  0  0  0  0  0
   38.5520   27.5140   35.5750 C   0  0  0  0  0  3  0  0  0  0  0  0
   38.3390   26.6590   36.6320 C   0  0  0  0  0  3  0  0  0  0  0  0
   38.2240   25.3070   36.3960 C   0  0  0  0  0  0  0  0  0  0  0  0
   38.0100   24.4500   37.4540 C   0  0  0  0  0  3  0  0  0  0  0  0
   37.8830   23.0850   37.2930 C   0  0  0  0  0  3  0  0  0  0  0  0
   37.9850   22.6260   36.0050 C   0  0  0  0  0  3  0  0  0  0  0  0
   38.2000   23.4910   34.9510 C   0  0  0  0  0  3  0  0  0  0  0  0
   38.3230   24.8430   35.1230 C   0  0  0  0  0  0  0  0  0  0  0  0
   35.5040   23.9970   31.2210 C   0  0  0  0  0  0  0  0  0  0  0  0
   34.8900   25.1670   30.7590 C   0  0  0  0  0  0  0  0  0  0  0  0
   35.5760   26.3730   30.9390 C   0  0  0  0  0  0  0  0  0  0  0  0
   36.7850   26.3230   31.5490 N   0  0  0  0  0  0  0  0  0  0  0  0
   37.3540   25.1950   31.9830 C   0  0  0  0  0  0  0  0  0  0  0  0
   36.7150   24.0270   31.8200 N   0  0  0  0  0  0  0  0  0  0  0  0
   34.9700   23.0450   31.0810 H   0  0  0  0  0  0  0  0  0  0  0  0
   33.9280   25.1350   30.2840 H   0  0  0  0  0  0  0  0  0  0  0  0
   35.1550   27.3130   30.6040 H   0  0  0  0  0  0  0  0  0  0  0  0
  1  3  1  0  0  0  0
  2  1  2  0  0  0  0
  3  4  2  0  0  0  0
  3 13  1  0  0  0  0
  4  6  1  0  0  0  0
  5  4  1  0  0  0  0
  6  7  2  0  0  0  0
  8  7  1  0  0  0  0
  8  9  1  0  0  0  0
 10  9  2  0  0  0  0
 11 10  1  0  0  0  0
 12 13  1  0  0  0  0
 12 11  2  0  0  0  0
 13  8  2  0  0  0  0
 14 19  1  0  0  0  0
 15 16  1  0  0  0  0
 15 14  2  0  0  0  0
 16 17  2  0  0  0  0
 17 18  1  0  0  0  0
 18  1  1  0  0  0  0
 19 18  2  0  0  0  0
 20 14  1  0  0  0  0
 21 15  1  0  0  0  0
 22 16  1  0  0  0  0
M  END
>  <minimizedAffinity>
-5.26325464

$$$$

 OpenBabel03272508433D

 22 24  0  0  0  0  0  0  0  0999 V2000
   39.0220   25.2660   34.3840 C   0  0  0  0  0  0  0  0  0  0  0  0
   39.7860   26.2290   34.0570 O   0  0  0  0  0  0  0  0  0  0  0  0
   38.9700   24.5600   35.6620 C   0  0  0  0  0  0  0  0  0  0  0  0
   37.9580   24.7960   36.5950 C   0  0  0  0  0  0  0  0  0  0  0  0
   37.1820   25.5100   36.3900 H   0  0  0  0  0  0  0  0  0  0  0  0
   37.8610   24.1640   37.8150 C   0  0  0  0  0  3  0  0  0  0  0  0
   38.8170   23.2350   38.1550 C   0  0  0  0  0  3  0  0  0  0  0  0
   39.8390   22.9610   37.2730 C   0  0  0  0  0  0  0  0  0  0  0  0
   40.7960   22.0290   37.6120 C   0  0  0  0  0  3  0  0  0  0  0  0
   41.8460   21.7030   36.7800 C   0  0  0  0  0  3  0  0  0  0  0  0
   41.8840   22.3680   35.5810 C   0  0  0  0  0  3  0  0  0  0  0  0
   40.9220   23.3000   35.2480 C   0  0  0  0  0  3  0  0  0  0  0  0
   39.8840   23.6150   36.0830 C   0  0  0  0  0  0  0  0  0  0  0  0
   36.3380   25.1630   31.9450 C   0  0  0  0  0  0  0  0  0  0  0  0
   36.1370   23.7990   31.7060 C   0  0  0  0  0  0  0  0  0  0  0  0
   36.9450   22.8930   32.4030 C   0  0  0  0  0  0  0  0  0  0  0  0
   37.8640   23.4020   33.2590 N   0  0  0  0  0  0  0  0  0  0  0  0
   38.0410   24.7080   33.4730 C   0  0  0  0  0  0  0  0  0  0  0  0
   37.2780   25.5940   32.8170 N   0  0  0  0  0  0  0  0  0  0  0  0
   35.7060   25.8800   31.4010 H   0  0  0  0  0  0  0  0  0  0  0  0
   35.3890   23.4630   31.0140 H   0  0  0  0  0  0  0  0  0  0  0  0
   36.8380   21.8250   32.2630 H   0  0  0  0  0  0  0  0  0  0  0  0
  1  3  1  0  0  0  0
  2  1  2  0  0  0  0
  3 13  2  0  0  0  0
  3  4  1  0  0  0  0
  4  6  2  0  0  0  0
  5  4  1  0  0  0  0
  6  7  1  0  0  0  0
  8  9  1  0  0  0  0
  8  7  2  0  0  0  0
 10  9  2  0  0  0  0
 11 10  1  0  0  0  0
 12 11  2  0  0  0  0
 12 13  1  0  0  0  0
 13  8  1  0  0  0  0
 14 19  1  0  0  0  0
 15 14  2  0  0  0  0
 15 16  1  0  0  0  0
 16 17  2  0  0  0  0
 17 18  1  0  0  0  0
 18  1  1  0  0  0  0
 19 18  2  0  0  0  0
 20 14  1  0  0  0  0
 21 15  1  0  0  0  0
 22 16  1  0  0  0  0
M  END
>  <minimizedAffinity>
-5.22549248

$$$$

 OpenBabel03272508433D

 22 24  0  0  0  0  0  0  0  0999 V2000
   38.8960   23.0620   36.3730 C   0  0  0  0  0  0  0  0  0  0  0  0
   39.5720   22.5220   37.3040 O   0  0  0  0  0  0  0  0  0  0  0  0
   38.9470   24.4500   35.9190 C   0  0  0  0  0  0  0  0  0  0  0  0
   37.8710   25.3230   36.0910 C   0  0  0  0  0  0  0  0  0  0  0  0
   36.9690   24.9900   36.5710 H   0  0  0  0  0  0  0  0  0  0  0  0
   37.8620   26.6370   35.6800 C   0  0  0  0  0  3  0  0  0  0  0  0
   38.9790   27.1410   35.0560 C   0  0  0  0  0  3  0  0  0  0  0  0
   40.0720   26.3260   34.8590 C   0  0  0  0  0  0  0  0  0  0  0  0
   41.1910   26.8300   34.2350 C   0  0  0  0  0  3  0  0  0  0  0  0
   42.3220   26.0730   34.0060 C   0  0  0  0  0  3  0  0  0  0  0  0
   42.2650   24.7730   34.4400 C   0  0  0  0  0  3  0  0  0  0  0  0
   41.1390   24.2750   35.0640 C   0  0  0  0  0  3  0  0  0  0  0  0
   40.0240   25.0360   35.2860 C   0  0  0  0  0  0  0  0  0  0  0  0
   35.9560   21.0680   35.6330 C   0  0  0  0  0  0  0  0  0  0  0  0
   35.9930   20.8970   34.2440 C   0  0  0  0  0  0  0  0  0  0  0  0
   37.0560   21.4810   33.5460 C   0  0  0  0  0  0  0  0  0  0  0  0
   37.9740   22.1710   34.2660 N   0  0  0  0  0  0  0  0  0  0  0  0
   37.9210   22.3240   35.5920 C   0  0  0  0  0  0  0  0  0  0  0  0
   36.9120   21.7710   36.2800 N   0  0  0  0  0  0  0  0  0  0  0  0
   35.1230   20.6090   36.1860 H   0  0  0  0  0  0  0  0  0  0  0  0
   35.2320   20.3360   33.7360 H   0  0  0  0  0  0  0  0  0  0  0  0
   37.1420   21.3850   32.4710 H   0  0  0  0  0  0  0  0  0  0  0  0
  1  2  2  0  0  0  0
  3  4  1  0  0  0  0
  3  1  1  0  0  0  0
  4  5  1  0  0  0  0
  6  4  2  0  0  0  0
  7  6  1  0  0  0  0
  8  7  2  0  0  0  0
  8 13  1  0  0  0  0
  9  8  1  0  0  0  0
 10  9  2  0  0  0  0
 10 11  1  0  0  0  0
 11 12  2  0  0  0  0
 12 13  1  0  0  0  0
 13  3  2  0  0  0  0
 14 20  1  0  0  0  0
 14 19  1  0  0  0  0
 15 14  2  0  0  0  0
 16 15  1  0  0  0  0
 16 17  2  0  0  0  0
 17 18  1  0  0  0  0
 18 19  2  0  0  0  0
 18  1  1  0  0  0  0
 21 15  1  0  0  0  0
 22 16  1  0  0  0  0
M  END
>  <minimizedAffinity>
-5.05730247

$$$$

 OpenBabel03272508433D

 22 24  0  0  0  0  0  0  0  0999 V2000
   38.8880   23.3260   34.0460 C   0  0  0  0  0  0  0  0  0  0  0  0
   39.2700   22.3190   33.3710 O   0  0  0  0  0  0  0  0  0  0  0  0
   38.4520   24.6270   33.5420 C   0  0  0  0  0  0  0  0  0  0  0  0
   39.1020   25.8120   33.8970 C   0  0  0  0  0  0  0  0  0  0  0  0
   39.9500   25.7920   34.5550 H   0  0  0  0  0  0  0  0  0  0  0  0
   38.7330   27.0630   33.4570 C   0  0  0  0  0  3  0  0  0  0  0  0
   37.6540   27.1740   32.6100 C   0  0  0  0  0  3  0  0  0  0  0  0
   36.9750   26.0390   32.2260 C   0  0  0  0  0  0  0  0  0  0  0  0
   35.8950   26.1490   31.3780 C   0  0  0  0  0  3  0  0  0  0  0  0
   35.1690   25.0570   30.9490 C   0  0  0  0  0  3  0  0  0  0  0  0
   35.5890   23.8410   31.4240 C   0  0  0  0  0  3  0  0  0  0  0  0
   36.6710   23.7380   32.2750 C   0  0  0  0  0  3  0  0  0  0  0  0
   37.3840   24.8300   32.6920 C   0  0  0  0  0  0  0  0  0  0  0  0
   39.9610   22.8130   37.4730 C   0  0  0  0  0  0  0  0  0  0  0  0
   38.8750   23.2400   38.2450 C   0  0  0  0  0  0  0  0  0  0  0  0
   37.7450   23.7140   37.5690 C   0  0  0  0  0  0  0  0  0  0  0  0
   37.7840   23.7270   36.2140 N   0  0  0  0  0  0  0  0  0  0  0  0
   38.8320   23.3160   35.4950 C   0  0  0  0  0  0  0  0  0  0  0  0
   39.9250   22.8560   36.1230 N   0  0  0  0  0  0  0  0  0  0  0  0
   40.8510   22.4380   38.0000 H   0  0  0  0  0  0  0  0  0  0  0  0
   38.9100   23.2020   39.3180 H   0  0  0  0  0  0  0  0  0  0  0  0
   36.8720   24.0580   38.1090 H   0  0  0  0  0  0  0  0  0  0  0  0
  1 18  1  0  0  0  0
  2  1  2  0  0  0  0
  3  4  1  0  0  0  0
  3  1  1  0  0  0  0
  4  5  1  0  0  0  0
  6  4  2  0  0  0  0
  7  6  1  0  0  0  0
  8  7  2  0  0  0  0
  8 13  1  0  0  0  0
  9  8  1  0  0  0  0
 10  9  2  0  0  0  0
 10 11  1  0  0  0  0
 11 12  2  0  0  0  0
 12 13  1  0  0  0  0
 13  3  2  0  0  0  0
 14 20  1  0  0  0  0
 14 15  1  0  0  0  0
 15 21  1  0  0  0  0
 16 22  1  0  0  0  0
 16 15  2  0  0  0  0
 17 16  1  0  0  0  0
 18 19  1  0  0  0  0
 18 17  2  0  0  0  0
 19 14  2  0  0  0  0
M  END
>  <minimizedAffinity>
-5.01214361

$$$$

 OpenBabel03272508433D

 22 24  0  0  0  0  0  0  0  0999 V2000
   39.2190   23.8570   34.0780 C   0  0  0  0  0  0  0  0  0  0  0  0
   40.2900   24.3540   33.6070 O   0  0  0  0  0  0  0  0  0  0  0  0
   38.0680   23.3470   33.3360 C   0  0  0  0  0  0  0  0  0  0  0  0
   37.7430   21.9880   33.3200 C   0  0  0  0  0  0  0  0  0  0  0  0
   38.3390   21.2790   33.8630 H   0  0  0  0  0  0  0  0  0  0  0  0
   36.6750   21.4520   32.6360 C   0  0  0  0  0  3  0  0  0  0  0  0
   35.8620   22.2950   31.9140 C   0  0  0  0  0  3  0  0  0  0  0  0
   36.1340   23.6450   31.8940 C   0  0  0  0  0  0  0  0  0  0  0  0
   35.3200   24.4910   31.1730 C   0  0  0  0  0  3  0  0  0  0  0  0
   35.5290   25.8530   31.1080 C   0  0  0  0  0  3  0  0  0  0  0  0
   36.6100   26.3220   31.8110 C   0  0  0  0  0  3  0  0  0  0  0  0
   37.4220   25.4690   32.5310 C   0  0  0  0  0  3  0  0  0  0  0  0
   37.2020   24.1190   32.5880 C   0  0  0  0  0  0  0  0  0  0  0  0
   39.7170   22.7760   37.5050 C   0  0  0  0  0  0  0  0  0  0  0  0
   38.6710   23.3770   38.2150 C   0  0  0  0  0  0  0  0  0  0  0  0
   37.7720   24.1730   37.4960 C   0  0  0  0  0  0  0  0  0  0  0  0
   37.9790   24.3050   36.1620 N   0  0  0  0  0  0  0  0  0  0  0  0
   38.9850   23.7220   35.5030 C   0  0  0  0  0  0  0  0  0  0  0  0
   39.8570   22.9550   36.1730 N   0  0  0  0  0  0  0  0  0  0  0  0
   40.4250   22.1480   38.0660 H   0  0  0  0  0  0  0  0  0  0  0  0
   38.5650   23.2310   39.2730 H   0  0  0  0  0  0  0  0  0  0  0  0
   36.9430   24.6660   37.9860 H   0  0  0  0  0  0  0  0  0  0  0  0
  1 18  1  0  0  0  0
  2  1  2  0  0  0  0
  3  1  1  0  0  0  0
  4  3  1  0  0  0  0
  4  5  1  0  0  0  0
  6  4  2  0  0  0  0
  7  6  1  0  0  0  0
  8  7  2  0  0  0  0
  8 13  1  0  0  0  0
  9  8  1  0  0  0  0
 10  9  2  0  0  0  0
 10 11  1  0  0  0  0
 11 12  2  0  0  0  0
 12 13  1  0  0  0  0
 13  3  2  0  0  0  0
 14 20  1  0  0  0  0
 14 15  1  0  0  0  0
 15 21  1  0  0  0  0
 16 22  1  0  0  0  0
 16 15  2  0  0  0  0
 17 16  1  0  0  0  0
 18 17  2  0  0  0  0
 18 19  1  0  0  0  0
 19 14  2  0  0  0  0
M  END
>  <minimizedAffinity>
-4.97642422

$$$$

 OpenBabel03272508433D

 22 24  0  0  0  0  0  0  0  0999 V2000
   37.7670   26.2560   30.9480 C   0  0  0  0  0  0  0  0  0  0  0  0
   38.5720   26.6370   30.0400 O   0  0  0  0  0  0  0  0  0  0  0  0
   37.1970   27.0560   32.0300 C   0  0  0  0  0  0  0  0  0  0  0  0
   36.0610   27.8480   31.8430 C   0  0  0  0  0  0  0  0  0  0  0  0
   35.5740   27.8850   30.8860 H   0  0  0  0  0  0  0  0  0  0  0  0
   35.4840   28.6230   32.8220 C   0  0  0  0  0  3  0  0  0  0  0  0
   36.0490   28.6320   34.0770 C   0  0  0  0  0  3  0  0  0  0  0  0
   37.1700   27.8690   34.3200 C   0  0  0  0  0  0  0  0  0  0  0  0
   37.7350   27.8760   35.5760 C   0  0  0  0  0  3  0  0  0  0  0  0
   38.8560   27.1360   35.8930 C   0  0  0  0  0  3  0  0  0  0  0  0
   39.3820   26.3860   34.8720 C   0  0  0  0  0  3  0  0  0  0  0  0
   38.8100   26.3850   33.6160 C   0  0  0  0  0  3  0  0  0  0  0  0
   37.6970   27.1230   33.3140 C   0  0  0  0  0  0  0  0  0  0  0  0
   37.8280   22.6290   30.9020 C   0  0  0  0  0  0  0  0  0  0  0  0
   36.5060   22.2560   31.1700 C   0  0  0  0  0  0  0  0  0  0  0  0
   35.5710   23.2780   31.3700 C   0  0  0  0  0  0  0  0  0  0  0  0
   36.0130   24.5570   31.2900 N   0  0  0  0  0  0  0  0  0  0  0  0
   37.2800   24.8920   31.0340 C   0  0  0  0  0  0  0  0  0  0  0  0
   38.1920   23.9290   30.8380 N   0  0  0  0  0  0  0  0  0  0  0  0
   38.5660   21.8290   30.7420 H   0  0  0  0  0  0  0  0  0  0  0  0
   36.2220   21.2220   31.2190 H   0  0  0  0  0  0  0  0  0  0  0  0
   34.5330   23.0550   31.5810 H   0  0  0  0  0  0  0  0  0  0  0  0
  1 18  1  0  0  0  0
  1  3  1  0  0  0  0
  2  1  2  0  0  0  0
  3 13  1  0  0  0  0
  4  3  2  0  0  0  0
  4  6  1  0  0  0  0
  5  4  1  0  0  0  0
  6  7  2  0  0  0  0
  7  8  1  0  0  0  0
  8  9  1  0  0  0  0
  9 10  2  0  0  0  0
 11 10  1  0  0  0  0
 12 11  2  0  0  0  0
 13 12  1  0  0  0  0
 13  8  2  0  0  0  0
 14 15  1  0  0  0  0
 15 21  1  0  0  0  0
 15 16  2  0  0  0  0
 16 22  1  0  0  0  0
 17 16  1  0  0  0  0
 18 17  2  0  0  0  0
 19 14  2  0  0  0  0
 19 18  1  0  0  0  0
 20 14  1  0  0  0  0
M  END
>  <minimizedAffinity>
-4.91103697

$$$$

 OpenBabel03272508433D

 22 24  0  0  0  0  0  0  0  0999 V2000
   36.4370   27.0600   32.1690 C   0  0  0  0  0  0  0  0  0  0  0  0
   36.0790   26.0540   31.4790 O   0  0  0  0  0  0  0  0  0  0  0  0
   37.4090   27.0970   33.2600 C   0  0  0  0  0  0  0  0  0  0  0  0
   37.0140   27.1840   34.5970 C   0  0  0  0  0  0  0  0  0  0  0  0
   35.9730   27.2220   34.8570 H   0  0  0  0  0  0  0  0  0  0  0  0
   37.8840   27.2260   35.6640 C   0  0  0  0  0  3  0  0  0  0  0  0
   39.2360   27.1830   35.4150 C   0  0  0  0  0  3  0  0  0  0  0  0
   39.6840   27.0970   34.1150 C   0  0  0  0  0  0  0  0  0  0  0  0
   41.0380   27.0510   33.8650 C   0  0  0  0  0  3  0  0  0  0  0  0
   41.5580   26.9630   32.5910 C   0  0  0  0  0  3  0  0  0  0  0  0
   40.6380   26.9250   31.5740 C   0  0  0  0  0  3  0  0  0  0  0  0
   39.2830   26.9710   31.8320 C   0  0  0  0  0  3  0  0  0  0  0  0
   38.7790   27.0580   33.1020 C   0  0  0  0  0  0  0  0  0  0  0  0
   36.1590   30.4340   30.8640 C   0  0  0  0  0  0  0  0  0  0  0  0
   34.9810   30.9310   31.4330 C   0  0  0  0  0  0  0  0  0  0  0  0
   34.2660   30.0840   32.2890 C   0  0  0  0  0  0  0  0  0  0  0  0
   34.7660   28.8430   32.5040 N   0  0  0  0  0  0  0  0  0  0  0  0
   35.8920   28.3870   31.9490 C   0  0  0  0  0  0  0  0  0  0  0  0
   36.5930   29.1810   31.1280 N   0  0  0  0  0  0  0  0  0  0  0  0
   36.7250   31.0950   30.1920 H   0  0  0  0  0  0  0  0  0  0  0  0
   34.6410   31.9260   31.2200 H   0  0  0  0  0  0  0  0  0  0  0  0
   33.3480   30.4090   32.7600 H   0  0  0  0  0  0  0  0  0  0  0  0
  1  3  1  0  0  0  0
  2  1  2  0  0  0  0
  3  4  1  0  0  0  0
  4  5  1  0  0  0  0
  4  6  2  0  0  0  0
  7  6  1  0  0  0  0
  8  7  2  0  0  0  0
  9  8  1  0  0  0  0
 10  9  2  0  0  0  0
 11 12  2  0  0  0  0
 11 10  1  0  0  0  0
 12 13  1  0  0  0  0
 13  3  2  0  0  0  0
 13  8  1  0  0  0  0
 14 19  2  0  0  0  0
 14 15  1  0  0  0  0
 15 16  2  0  0  0  0
 16 17  1  0  0  0  0
 16 22  1  0  0  0  0
 18  1  1  0  0  0  0
 18 17  2  0  0  0  0
 19 18  1  0  0  0  0
 20 14  1  0  0  0  0
 21 15  1  0  0  0  0
M  END
>  <minimizedAffinity>
-4.91077089

$$$$

 OpenBabel03272508433D

 22 24  0  0  0  0  0  0  0  0999 V2000
   39.1460   23.2700   36.8710 C   0  0  0  0  0  0  0  0  0  0  0  0
   38.5630   23.2980   38.0000 O   0  0  0  0  0  0  0  0  0  0  0  0
   38.5920   23.6360   35.5690 C   0  0  0  0  0  0  0  0  0  0  0  0
   38.3670   22.6860   34.5690 C   0  0  0  0  0  0  0  0  0  0  0  0
   38.5960   21.6510   34.7390 H   0  0  0  0  0  0  0  0  0  0  0  0
   37.8520   22.9740   33.3250 C   0  0  0  0  0  3  0  0  0  0  0  0
   37.5330   24.2790   33.0280 C   0  0  0  0  0  3  0  0  0  0  0  0
   37.7330   25.2580   33.9760 C   0  0  0  0  0  0  0  0  0  0  0  0
   37.4120   26.5650   33.6790 C   0  0  0  0  0  3  0  0  0  0  0  0
   37.5840   27.5970   34.5780 C   0  0  0  0  0  3  0  0  0  0  0  0
   38.1000   27.2420   35.7980 C   0  0  0  0  0  3  0  0  0  0  0  0
   38.4200   25.9310   36.0880 C   0  0  0  0  0  3  0  0  0  0  0  0
   38.2440   24.9160   35.1870 C   0  0  0  0  0  0  0  0  0  0  0  0
   42.1070   21.2000   37.1980 C   0  0  0  0  0  0  0  0  0  0  0  0
   43.1010   21.9030   36.5070 C   0  0  0  0  0  0  0  0  0  0  0  0
   42.7430   23.1200   35.9160 C   0  0  0  0  0  0  0  0  0  0  0  0
   41.4580   23.5300   36.0540 N   0  0  0  0  0  0  0  0  0  0  0  0
   40.5240   22.8440   36.7170 C   0  0  0  0  0  0  0  0  0  0  0  0
   40.8460   21.6760   37.2920 N   0  0  0  0  0  0  0  0  0  0  0  0
   42.3840   20.2440   37.6660 H   0  0  0  0  0  0  0  0  0  0  0  0
   44.1010   21.5200   36.4360 H   0  0  0  0  0  0  0  0  0  0  0  0
   43.4660   23.7110   35.3680 H   0  0  0  0  0  0  0  0  0  0  0  0
  1  2  2  0  0  0  0
  3  1  1  0  0  0  0
  4  5  1  0  0  0  0
  4  3  2  0  0  0  0
  6  4  1  0  0  0  0
  7  6  2  0  0  0  0
  7  8  1  0  0  0  0
  8 13  1  0  0  0  0
  9  8  2  0  0  0  0
  9 10  1  0  0  0  0
 10 11  2  0  0  0  0
 11 12  1  0  0  0  0
 13  3  1  0  0  0  0
 13 12  2  0  0  0  0
 14 19  1  0  0  0  0
 14 20  1  0  0  0  0
 15 14  2  0  0  0  0
 16 17  2  0  0  0  0
 16 15  1  0  0  0  0
 17 18  1  0  0  0  0
 18  1  1  0  0  0  0
 18 19  2  0  0  0  0
 21 15  1  0  0  0  0
 22 16  1  0  0  0  0
M  END
>  <minimizedAffinity>
-4.90629578

$$$$

 OpenBabel03272508433D

 22 24  0  0  0  0  0  0  0  0999 V2000
   34.7840   30.2610   32.8510 C   0  0  0  0  0  0  0  0  0  0  0  0
   33.8810   30.3800   31.9640 O   0  0  0  0  0  0  0  0  0  0  0  0
   34.9390   31.0370   34.0800 C   0  0  0  0  0  0  0  0  0  0  0  0
   35.9960   31.9330   34.2580 C   0  0  0  0  0  0  0  0  0  0  0  0
   36.7260   32.0750   33.4840 H   0  0  0  0  0  0  0  0  0  0  0  0
   36.1940   32.6860   35.3940 C   0  0  0  0  0  3  0  0  0  0  0  0
   35.3010   32.5600   36.4330 C   0  0  0  0  0  3  0  0  0  0  0  0
   34.2390   31.6920   36.3130 C   0  0  0  0  0  0  0  0  0  0  0  0
   33.3440   31.5660   37.3530 C   0  0  0  0  0  3  0  0  0  0  0  0
   32.2570   30.7180   37.3030 C   0  0  0  0  0  3  0  0  0  0  0  0
   32.1180   29.9980   36.1440 C   0  0  0  0  0  3  0  0  0  0  0  0
   33.0190   30.1280   35.1060 C   0  0  0  0  0  3  0  0  0  0  0  0
   34.0930   30.9740   35.1680 C   0  0  0  0  0  0  0  0  0  0  0  0
   36.9640   27.5240   33.8090 C   0  0  0  0  0  0  0  0  0  0  0  0
   37.8160   27.3570   32.7110 C   0  0  0  0  0  0  0  0  0  0  0  0
   37.6370   28.2090   31.6150 C   0  0  0  0  0  0  0  0  0  0  0  0
   36.6490   29.1340   31.6960 N   0  0  0  0  0  0  0  0  0  0  0  0
   35.8450   29.2770   32.7530 C   0  0  0  0  0  0  0  0  0  0  0  0
   36.0010   28.4720   33.8140 N   0  0  0  0  0  0  0  0  0  0  0  0
   37.1020   26.8580   34.6740 H   0  0  0  0  0  0  0  0  0  0  0  0
   38.5800   26.6030   32.7130 H   0  0  0  0  0  0  0  0  0  0  0  0
   38.2630   28.1310   30.7360 H   0  0  0  0  0  0  0  0  0  0  0  0
  1  3  1  0  0  0  0
  2  1  2  0  0  0  0
  3  4  2  0  0  0  0
  3 13  1  0  0  0  0
  4  6  1  0  0  0  0
  5  4  1  0  0  0  0
  6  7  2  0  0  0  0
  8  7  1  0  0  0  0
  8  9  1  0  0  0  0
 10  9  2  0  0  0  0
 11 10  1  0  0  0  0
 12 13  1  0  0  0  0
 12 11  2  0  0  0  0
 13  8  2  0  0  0  0
 14 19  1  0  0  0  0
 14 20  1  0  0  0  0
 15 21  1  0  0  0  0
 15 14  2  0  0  0  0
 16 17  2  0  0  0  0
 16 15  1  0  0  0  0
 17 18  1  0  0  0  0
 18  1  1  0  0  0  0
 18 19  2  0  0  0  0
 22 16  1  0  0  0  0
M  END
>  <minimizedAffinity>
-4.86835766

$$$$
