
     RDKit          3D

 32 34  0  0  0  0  0  0  0  0999 V2000
   37.4317   30.3151   51.3938 C   0  0  0  0  0  0  0  0  0  0  0  0
   38.1187   30.8764   50.2685 C   0  0  0  0  0  0  0  0  0  0  0  0
   37.7323   30.4937   48.9799 C   0  0  0  0  0  0  0  0  0  0  0  0
   36.7105   29.5963   48.8595 N   0  0  0  0  0  0  0  0  0  0  0  0
   36.0764   29.0797   49.9411 C   0  0  0  0  0  0  0  0  0  0  0  0
   36.4374   29.4391   51.1989 N   0  0  0  0  0  0  0  0  0  0  0  0
   35.0621   28.1812   49.5996 O   0  0  0  0  0  0  0  0  0  0  0  0
   32.5185   28.0798   49.0546 O   0  0  0  0  0  0  0  0  0  0  0  0
   33.8653   28.4895   48.4516 P   0  0  2  0  0  0  0  0  0  0  0  0
   34.0585   27.5891   47.0487 O   0  0  0  0  0  0  0  0  0  0  0  0
   33.7337   30.1211   48.0459 O   0  0  0  0  0  0  0  0  0  0  0  0
   37.7344   30.6136   52.3664 H   0  0  0  0  0  0  0  0  0  0  0  0
   38.9303   31.5906   50.4029 H   0  0  0  0  0  0  0  0  0  0  0  0
   38.2205   30.8902   48.1105 H   0  0  0  0  0  0  0  0  0  0  0  0
   33.2063   27.2771   46.6547 H   0  0  0  0  0  0  0  0  0  0  0  0
   32.6502   30.6473   47.3631 C   0  0  0  0  0  0  0  0  0  0  0  0
   32.6892   31.5305   46.3045 C   0  0  0  0  0  0  0  0  0  0  0  0
   33.6523   31.8391   45.9796 H   0  0  0  0  0  0  0  0  0  0  0  0
   31.5021   31.9596   45.7334 C   0  0  0  0  0  0  0  0  0  0  0  0
   30.2609   31.5419   46.1764 C   0  0  0  0  0  0  0  0  0  0  0  0
   30.2551   30.6561   47.2396 C   0  0  0  0  0  0  0  0  0  0  0  0
   29.0018   30.2527   47.6649 C   0  0  0  0  0  0  0  0  0  0  0  0
   28.8877   29.3583   48.7333 C   0  0  0  0  0  0  0  0  0  0  0  0
   30.0521   28.8961   49.3431 C   0  0  0  0  0  0  0  0  0  0  0  0
   31.2909   29.3178   48.8952 C   0  0  0  0  0  0  0  0  0  0  0  0
   31.4296   30.2012   47.8411 C   0  0  0  0  0  0  0  0  0  0  0  0
   31.5580   32.6509   44.9061 H   0  0  0  0  0  0  0  0  0  0  0  0
   29.3464   31.8943   45.7103 H   0  0  0  0  0  0  0  0  0  0  0  0
   28.0710   30.5616   47.2501 H   0  0  0  0  0  0  0  0  0  0  0  0
   27.9956   28.9564   49.1736 H   0  0  0  0  0  0  0  0  0  0  0  0
   30.0446   28.2026   50.1752 H   0  0  0  0  0  0  0  0  0  0  0  0
   32.1928   28.9595   49.3680 H   0  0  0  0  0  0  0  0  0  0  0  0
  2  1  2  0
  3  2  1  0
  4  3  2  0
  4  5  1  0
  5  6  2  0
  6  1  1  0
  7  5  1  0
  9  8  2  0
  9  7  1  1
 10  9  1  0
 11  9  1  0
  1 12  1  0
  2 13  1  0
  3 14  1  0
 10 15  1  0
 16 17  2  0
 17 18  1  0
 17 19  1  0
 19 20  2  0
 20 21  1  0
 21 22  2  0
 22 23  1  0
 23 24  2  0
 24 25  1  0
 25 26  2  0
 26 16  1  0
 26 21  1  0
 19 27  1  0
 20 28  1  0
 22 29  1  0
 23 30  1  0
 24 31  1  0
 25 32  1  0
 11 16  1  0
M  ISO  5  12  14  13  14  14  14  15   3  18  15
M  END
>  <DihAtoms>  (1) 
8,10,15,16

>  <DihDeg>  (1) 
-0.022157000479162643

$$$$
