
 OpenBabel03272508573D

 42 46  0  0  1  0  0  0  0  0999 V2000
   39.1800   31.4160   43.3670 C   0  0  0  0  0  0  0  0  0  0  0  0
   40.2040   30.5070   43.5490 C   0  0  0  0  0  0  0  0  0  0  0  0
   40.9220   30.1300   42.4310 C   0  0  0  0  0  0  0  0  0  0  0  0
   40.5900   30.6630   41.2170 C   0  0  0  0  0  0  0  0  0  0  0  0
   39.5490   31.5850   41.0360 C   0  0  0  0  0  0  0  0  0  0  0  0
   38.8730   31.9280   42.1510 N   0  0  0  0  0  0  0  0  0  0  0  0
   40.4730   30.0800   44.5070 H   0  0  0  0  0  0  0  0  0  0  0  0
   41.7410   29.4330   42.4420 H   0  0  0  0  0  0  0  0  0  0  0  0
   41.1220   30.3980   40.3200 H   0  0  0  0  0  0  0  0  0  0  0  0
   38.3980   31.8380   44.5460 C   0  0  0  0  0  0  0  0  0  0  0  0
   37.3260   32.4410   44.4290 O   0  0  0  0  0  0  0  0  0  0  0  0
   38.9340   31.5220   45.8530 N   0  0  0  0  0  0  0  0  0  0  0  0
   39.9040   31.2020   46.0090 H   0  0  0  0  0  0  0  0  0  0  0  0
   38.4110   31.0840   48.2480 C   0  0  2  0  0  0  0  0  0  0  0  0
   38.6420   32.5470   48.1170 C   0  0  0  0  0  0  0  0  0  0  0  0
   38.0560   31.6660   46.9950 C   0  0  1  0  0  0  0  0  0  0  0  0
   39.3280   30.4660   48.3540 H   0  0  0  0  0  0  0  0  0  0  0  0
   39.6660   32.8960   48.0080 H   0  0  0  0  0  0  0  0  0  0  0  0
   37.9610   33.2300   48.6580 H   0  0  0  0  0  0  0  0  0  0  0  0
   36.9940   31.9120   46.7840 H   0  0  0  0  0  0  0  0  0  0  0  0
   35.0400   30.2130   49.5500 C   0  0  0  0  0  0  0  0  0  0  0  0
   35.3630   29.5910   50.7860 C   0  0  0  0  0  0  0  0  0  0  0  0
   36.7560   29.4870   51.1680 C   0  0  0  0  0  0  0  0  0  0  0  0
   37.7070   29.9910   50.3240 N   0  0  0  0  0  0  0  0  0  0  0  0
   37.3200   30.5720   49.1570 C   0  0  0  0  0  0  0  0  0  0  0  0
   36.0010   30.7020   48.7350 N   0  0  0  0  0  0  0  0  0  0  0  0
   33.9990   30.2560   49.3310 H   0  0  0  0  0  0  0  0  0  0  0  0
   34.6440   29.1930   51.4560 H   0  0  0  0  0  0  0  0  0  0  0  0
   36.9970   29.0180   52.1010 H   0  0  0  0  0  0  0  0  0  0  0  0
   39.2190   32.1140   39.7250 C   0  0  0  0  0  0  0  0  0  0  0  0
   38.9580   33.3350   39.6050 O   0  0  0  0  0  0  0  0  0  0  0  0
   39.1360   31.4280   38.4480 C   0  0  0  0  0  0  0  0  0  0  0  0
   37.9090   30.8900   38.0470 C   0  0  0  0  0  0  0  0  0  0  0  0
   37.0650   31.0080   38.7400 H   0  0  0  0  0  0  0  0  0  0  0  0
   37.6690   30.2280   36.8610 C   0  0  0  0  0  3  0  0  0  0  0  0
   38.7290   30.0800   35.9910 C   0  0  0  0  0  3  0  0  0  0  0  0
   39.9640   30.5900   36.3330 C   0  0  0  0  0  0  0  0  0  0  0  0
   41.0270   30.4410   35.4700 C   0  0  0  0  0  3  0  0  0  0  0  0
   42.2770   30.9470   35.8050 C   0  0  0  0  0  3  0  0  0  0  0  0
   42.4600   31.6080   37.0220 C   0  0  0  0  0  3  0  0  0  0  0  0
   41.3780   31.7390   37.8600 C   0  0  0  0  0  3  0  0  0  0  0  0
   40.1500   31.2440   37.5330 C   0  0  0  0  0  0  0  0  0  0  0  0
  1  2  1  0  0  0  0
  1 10  1  0  0  0  0
  2  7  1  0  0  0  0
  3  8  1  0  0  0  0
  3  2  2  0  0  0  0
  4  3  1  0  0  0  0
  5  4  2  0  0  0  0
  5  6  1  0  0  0  0
  6  1  2  0  0  0  0
  9  4  1  0  0  0  0
 10 12  1  0  0  0  0
 11 10  2  0  0  0  0
 12 13  1  0  0  0  0
 12 16  1  0  0  0  0
 14 17  1  6  0  0  0
 14 25  1  0  0  0  0
 15 14  1  0  0  0  0
 15 19  1  0  0  0  0
 16 20  1  6  0  0  0
 16 15  1  0  0  0  0
 16 14  1  0  0  0  0
 18 15  1  0  0  0  0
 21 22  1  0  0  0  0
 22 23  2  0  0  0  0
 22 28  1  0  0  0  0
 23 29  1  0  0  0  0
 24 23  1  0  0  0  0
 25 24  2  0  0  0  0
 26 25  1  0  0  0  0
 26 21  2  0  0  0  0
 27 21  1  0  0  0  0
 30  5  1  0  0  0  0
 31 30  2  0  0  0  0
 32 30  1  0  0  0  0
 33 32  1  0  0  0  0
 33 34  1  0  0  0  0
 35 33  2  0  0  0  0
 36 37  2  0  0  0  0
 36 35  1  0  0  0  0
 37 42  1  0  0  0  0
 38 39  2  0  0  0  0
 38 37  1  0  0  0  0
 39 40  1  0  0  0  0
 40 41  2  0  0  0  0
 42 41  1  0  0  0  0
 42 32  2  0  0  0  0
M  END
>  <minimizedAffinity>
-5.05033922

>  <minimizedRMSD>
0.527324438

$$$$
