
     RDKit          3D

 28 30  0  0  0  0  0  0  0  0999 V2000
   37.8417   30.7741   50.5750 C   0  0  0  0  0  0  0  0  0  0  0  0
   37.5447   31.5675   49.4259 C   0  0  0  0  0  0  0  0  0  0  0  0
   36.6859   31.0346   48.4721 C   0  0  0  0  0  0  0  0  0  0  0  0
   36.1775   29.8022   48.6760 N   0  0  0  0  0  0  0  0  0  0  0  0
   36.4693   29.0731   49.7628 C   0  0  0  0  0  0  0  0  0  0  0  0
   37.2906   29.5318   50.7175 N   0  0  0  0  0  0  0  0  0  0  0  0
   38.1888   32.9034   49.3566 C   0  0  0  0  0  0  0  0  0  0  0  0
   38.9566   33.0444   48.3812 O   0  0  0  0  0  0  0  0  0  0  0  0
   38.4993   31.1107   51.3652 H   0  0  0  0  0  0  0  0  0  0  0  0
   36.4866   31.6570   47.6256 H   0  0  0  0  0  0  0  0  0  0  0  0
   36.0731   28.0830   49.9463 H   0  0  0  0  0  0  0  0  0  0  0  0
   37.8277   33.8391   50.4316 C   0  0  0  0  0  0  0  0  0  0  0  0
   38.8873   34.2797   51.2083 C   0  0  0  0  0  0  0  0  0  0  0  0
   39.9455   34.0141   51.1132 H   0  0  0  0  0  0  0  0  0  0  0  0
   38.6626   35.1712   52.2587 C   0  0  0  0  0  0  0  0  0  0  0  0
   37.3696   35.6128   52.5193 C   0  0  0  0  0  0  0  0  0  0  0  0
   36.3203   35.1695   51.7415 C   0  0  0  0  0  0  0  0  0  0  0  0
   35.0025   35.5707   51.9468 C   0  0  0  0  0  0  0  0  0  0  0  0
   33.9745   35.0954   51.1342 C   0  0  0  0  0  0  0  0  0  0  0  0
   34.2219   34.2149   50.1023 C   0  0  0  0  0  0  0  0  0  0  0  0
   35.5354   33.8177   49.9011 C   0  0  0  0  0  0  0  0  0  0  0  0
   36.5524   34.2882   50.7053 C   0  0  0  0  0  0  0  0  0  0  0  0
   39.4174   35.5637   52.9090 H   0  0  0  0  0  0  0  0  0  0  0  0
   37.0696   36.2988   53.2998 H   0  0  0  0  0  0  0  0  0  0  0  0
   34.7832   36.2658   52.7562 H   0  0  0  0  0  0  0  0  0  0  0  0
   32.9441   35.4050   51.2897 H   0  0  0  0  0  0  0  0  0  0  0  0
   33.4291   33.8436   49.4699 H   0  0  0  0  0  0  0  0  0  0  0  0
   35.7144   33.1376   49.1013 H   0  0  0  0  0  0  0  0  0  0  0  0
  1  6  2  0
  2  1  1  0
  3  4  1  0
  3  2  2  0
  4  5  2  0
  5  6  1  0
  7  2  1  0
  8  7  2  0
  1  9  1  0
  3 10  1  0
  5 11  1  0
 12 13  2  0
 13 14  1  0
 13 15  1  0
 15 16  2  0
 16 17  1  0
 17 18  2  0
 18 19  1  0
 19 20  2  0
 20 21  1  0
 21 22  2  0
 22 12  1  0
 22 17  1  0
 15 23  1  0
 16 24  1  0
 18 25  1  0
 19 26  1  0
 20 27  1  0
 21 28  1  0
  7 12  1  0
M  ISO  4   9  14  10  14  11  14  14  15
M  END
>  <DihAtoms>  (1) 
1,6,11,12

>  <DihDeg>  (1) 
-44.99696984602744

$$$$
