
 OpenBabel03272506433D

 34 37  0  0  1  0  0  0  0  0999 V2000
   32.3960   28.2380   47.5280 C   0  0  2  0  0  0  0  0  0  0  0  0
   33.6230   28.3220   48.4230 C   0  0  1  0  0  0  0  0  0  0  0  0
   34.2460   27.1110   48.3960 O   0  0  0  0  0  0  0  0  0  0  0  0
   33.6540   26.3180   47.4370 C   0  0  0  0  0  0  0  0  0  0  0  0
   32.9280   27.2740   46.4740 C   0  0  1  0  0  0  0  0  0  0  0  0
   31.5410   27.8000   48.0660 H   0  0  0  0  0  0  0  0  0  0  0  0
   33.2900   28.6520   49.4250 H   0  0  0  0  0  0  0  0  0  0  0  0
   34.4690   25.8230   46.8670 H   0  0  0  0  0  0  0  0  0  0  0  0
   32.9380   25.6010   47.8700 H   0  0  0  0  0  0  0  0  0  0  0  0
   33.6560   27.8270   45.8800 H   0  0  0  0  0  0  0  0  0  0  0  0
   32.0910   29.4790   46.9760 O   0  0  0  0  0  0  0  0  0  0  0  0
   31.4370   29.9400   47.5540 H   0  0  0  0  0  0  0  0  0  0  0  0
   34.7330   29.5480   47.6630 S   0  0  0  0  0  0  0  0  0  0  0  0
   37.3560   29.3920   50.6230 C   0  0  0  0  0  0  0  0  0  0  0  0
   37.9230   30.6580   50.6830 C   0  0  0  0  0  0  0  0  0  0  0  0
   37.4750   31.6100   49.7650 C   0  0  0  0  0  0  0  0  0  0  0  0
   36.5150   31.2530   48.8650 N   0  0  0  0  0  0  0  0  0  0  0  0
   35.9920   30.0010   48.8480 C   0  0  0  0  0  0  0  0  0  0  0  0
   36.4030   29.0670   49.7180 N   0  0  0  0  0  0  0  0  0  0  0  0
   37.7350   28.6930   51.3520 H   0  0  0  0  0  0  0  0  0  0  0  0
   38.6860   30.9370   51.3990 H   0  0  0  0  0  0  0  0  0  0  0  0
   37.8580   32.6310   49.7320 H   0  0  0  0  0  0  0  0  0  0  0  0
   31.9270   26.6050   45.8220 O   0  0  0  0  0  0  0  0  0  0  0  0
   31.2990   27.1060   44.6950 C   0  0  0  0  0  0  0  0  0  0  0  0
   31.8120   27.4860   43.4750 C   0  0  0  0  0  0  0  0  0  0  0  0
   32.8830   27.3620   43.4090 H   0  0  0  0  0  0  0  0  0  0  0  0
   30.9950   27.9660   42.4750 C   0  0  0  0  0  3  0  0  0  0  0  0
   29.6470   28.0890   42.6460 C   0  0  0  0  0  3  0  0  0  0  0  0
   29.0900   27.7170   43.8630 C   0  0  0  0  0  0  0  0  0  0  0  0
   27.7370   27.8640   43.9690 C   0  0  0  0  0  3  0  0  0  0  0  0
   27.1330   27.5100   45.1560 C   0  0  0  0  0  3  0  0  0  0  0  0
   27.8980   27.0230   46.1950 C   0  0  0  0  0  3  0  0  0  0  0  0
   29.2580   26.8960   46.0280 C   0  0  0  0  0  3  0  0  0  0  0  0
   29.9190   27.2320   44.8730 C   0  0  0  0  0  0  0  0  0  0  0  0
  1  6  1  1  0  0  0
  1  2  1  0  0  0  0
  2  7  1  1  0  0  0
  3  2  1  0  0  0  0
  4  9  1  0  0  0  0
  4  3  1  0  0  0  0
  5 10  1  6  0  0  0
  5  4  1  0  0  0  0
  5  1  1  0  0  0  0
  8  4  1  0  0  0  0
 11  1  1  0  0  0  0
 11 12  1  0  0  0  0
 13  2  1  0  0  0  0
 13 18  1  0  0  0  0
 14 15  1  0  0  0  0
 14 20  1  0  0  0  0
 15 21  1  0  0  0  0
 16 15  2  0  0  0  0
 17 16  1  0  0  0  0
 18 17  2  0  0  0  0
 18 19  1  0  0  0  0
 19 14  2  0  0  0  0
 22 16  1  0  0  0  0
 23  5  1  0  0  0  0
 24 34  1  0  0  0  0
 24 23  1  0  0  0  0
 25 24  2  0  0  0  0
 26 25  1  0  0  0  0
 27 28  2  0  0  0  0
 27 25  1  0  0  0  0
 28 29  1  0  0  0  0
 29 30  2  0  0  0  0
 29 34  1  0  0  0  0
 30 31  1  0  0  0  0
 31 32  2  0  0  0  0
 33 32  1  0  0  0  0
 34 33  2  0  0  0  0
M  END
>  <minimizedAffinity>
-4.46079826

>  <minimizedRMSD>
2.21011662

$$$$
