REMARK  Name = 
REMARK  2 active torsions:
REMARK  status: ('A' for Active; 'I' for Inactive)
REMARK    1  A    between atoms: C_2  and  C_7
REMARK    2  A    between atoms: C_7  and  C_12
REMARK                            x       y       z     vdW  Elec       q    Type
REMARK                         _______ _______ _______ _____ _____    ______ ____
ROOT
ATOM      1  C   UNL     1      38.189  32.903  49.357  0.00  0.00    +0.000 C 
ATOM      2  O   UNL     1      38.957  33.044  48.381  0.00  0.00    +0.000 OA
ENDROOT
BRANCH   1   3
ATOM      3  C   UNL     1      37.828  33.839  50.432  0.00  0.00    +0.000 A 
ATOM      4  C   UNL     1      38.802  34.028  51.399  0.00  0.00    +0.000 A 
ATOM      5  H   UNL     1      39.793  33.566  51.452  0.00  0.00    +0.000 HD
ATOM      6  C   UNL     1      38.569  34.895  52.468  0.00  0.00    +0.000 A 
ATOM      7  C   UNL     1      37.354  35.566  52.554  0.00  0.00    +0.000 A 
ATOM      8  C   UNL     1      36.389  35.373  51.587  0.00  0.00    +0.000 A 
ATOM      9  C   UNL     1      35.153  36.013  51.612  0.00  0.00    +0.000 A 
ATOM     10  C   UNL     1      34.209  35.786  50.612  0.00  0.00    +0.000 A 
ATOM     11  C   UNL     1      34.463  34.925  49.566  0.00  0.00    +0.000 A 
ATOM     12  C   UNL     1      35.696  34.289  49.544  0.00  0.00    +0.000 A 
ATOM     13  C   UNL     1      36.629  34.514  50.534  0.00  0.00    +0.000 A 
ENDBRANCH   1   3
BRANCH   1  15
ATOM     14  C   UNL     1      37.842  30.774  50.575  0.00  0.00    +0.000 A 
ATOM     15  C   UNL     1      37.545  31.567  49.426  0.00  0.00    +0.000 A 
ATOM     16  C   UNL     1      36.686  31.035  48.472  0.00  0.00    +0.000 A 
ATOM     17  N   UNL     1      36.178  29.802  48.676  0.00  0.00    +0.000 NA
ATOM     18  C   UNL     1      36.469  29.073  49.763  0.00  0.00    +0.000 A 
ATOM     19  N   UNL     1      37.291  29.532  50.718  0.00  0.00    +0.000 NA
ATOM     20  H   UNL     1      38.499  31.111  51.365  0.00  0.00    +0.000 HD
ATOM     21  H   UNL     1      36.487  31.657  47.626  0.00  0.00    +0.000 HD
ATOM     22  H   UNL     1      36.073  28.083  49.946  0.00  0.00    +0.000 HD
ENDBRANCH   1  15
TORSDOF 2
