REMARK  Name = 
REMARK  2 active torsions:
REMARK  status: ('A' for Active; 'I' for Inactive)
REMARK    1  A    between atoms: C_5  and  C_7
REMARK    2  A    between atoms: C_7  and  C_12
REMARK                            x       y       z     vdW  Elec       q    Type
REMARK                         _______ _______ _______ _____ _____    ______ ____
ROOT
ATOM      1  C   UNL     1      34.825  28.303  49.502  0.00  0.00    +0.000 C 
ATOM      2  O   UNL     1      33.627  28.725  49.556  0.00  0.00    +0.000 OA
ENDROOT
BRANCH   1   3
ATOM      3  C   UNL     1      35.285  26.955  49.175  0.00  0.00    +0.000 A 
ATOM      4  C   UNL     1      35.478  25.982  50.159  0.00  0.00    +0.000 A 
ATOM      5  H   UNL     1      35.287  26.206  51.192  0.00  0.00    +0.000 HD
ATOM      6  C   UNL     1      35.913  24.700  49.910  0.00  0.00    +0.000 A 
ATOM      7  C   UNL     1      36.181  24.334  48.611  0.00  0.00    +0.000 A 
ATOM      8  C   UNL     1      36.008  25.252  47.599  0.00  0.00    +0.000 A 
ATOM      9  C   UNL     1      36.275  24.886  46.298  0.00  0.00    +0.000 A 
ATOM     10  C   UNL     1      36.123  25.751  45.234  0.00  0.00    +0.000 A 
ATOM     11  C   UNL     1      35.687  27.012  45.551  0.00  0.00    +0.000 A 
ATOM     12  C   UNL     1      35.422  27.372  46.857  0.00  0.00    +0.000 A 
ATOM     13  C   UNL     1      35.576  26.504  47.904  0.00  0.00    +0.000 A 
ENDBRANCH   1   3
BRANCH   1  18
ATOM     14  C   UNL     1      37.266  30.183  51.418  0.00  0.00    +0.000 A 
ATOM     15  C   UNL     1      38.096  30.762  50.451  0.00  0.00    +0.000 A 
ATOM     16  C   UNL     1      37.807  30.500  49.107  0.00  0.00    +0.000 A 
ATOM     17  N   UNL     1      36.744  29.703  48.838  0.00  0.00    +0.000 NA
ATOM     18  C   UNL     1      35.964  29.159  49.776  0.00  0.00    +0.000 A 
ATOM     19  N   UNL     1      36.222  29.398  51.070  0.00  0.00    +0.000 NA
ATOM     20  H   UNL     1      37.488  30.387  52.476  0.00  0.00    +0.000 HD
ATOM     21  H   UNL     1      38.923  31.385  50.734  0.00  0.00    +0.000 HD
ATOM     22  H   UNL     1      38.411  30.918  48.312  0.00  0.00    +0.000 HD
ENDBRANCH   1  18
TORSDOF 2
