REMARK  Name = 
REMARK  5 active torsions:
REMARK  status: ('A' for Active; 'I' for Inactive)
REMARK    1  A    between atoms: C_5  and  O_7
REMARK    2  A    between atoms: O_7  and  P_9
REMARK    3  A    between atoms: P_9  and  O_10
REMARK    4  A    between atoms: P_9  and  O_11
REMARK    5  A    between atoms: O_11  and  C_16
REMARK                            x       y       z     vdW  Elec       q    Type
REMARK                         _______ _______ _______ _____ _____    ______ ____
ROOT
ATOM      1  O   UNL     1      32.519  28.080  49.055  0.00  0.00    +0.000 OA
ATOM      2  P   UNL     1      33.865  28.489  48.452  0.00  0.00    +0.000 P 
ENDROOT
BRANCH   2   3
ATOM      3  O   UNL     1      34.059  27.589  47.049  0.00  0.00    +0.000 OA
ATOM      4  H   UNL     1      33.206  27.277  46.655  0.00  0.00    +0.000 HD
ENDBRANCH   2   3
BRANCH   2   5
ATOM      5  O   UNL     1      35.062  28.181  49.600  0.00  0.00    +0.000 OA
BRANCH   5  10
ATOM      6  C   UNL     1      37.432  30.315  51.394  0.00  0.00    +0.000 A 
ATOM      7  C   UNL     1      38.119  30.876  50.269  0.00  0.00    +0.000 A 
ATOM      8  C   UNL     1      37.732  30.494  48.980  0.00  0.00    +0.000 A 
ATOM      9  N   UNL     1      36.711  29.596  48.859  0.00  0.00    +0.000 NA
ATOM     10  C   UNL     1      36.076  29.080  49.941  0.00  0.00    +0.000 A 
ATOM     11  N   UNL     1      36.437  29.439  51.199  0.00  0.00    +0.000 NA
ATOM     12  H   UNL     1      37.734  30.614  52.366  0.00  0.00    +0.000 HD
ATOM     13  H   UNL     1      38.930  31.591  50.403  0.00  0.00    +0.000 HD
ATOM     14  H   UNL     1      38.221  30.890  48.111  0.00  0.00    +0.000 HD
ENDBRANCH   5  10
ENDBRANCH   2   5
BRANCH   2  15
ATOM     15  O   UNL     1      33.734  30.121  48.046  0.00  0.00    +0.000 OA
BRANCH  15  16
ATOM     16  C   UNL     1      32.650  30.647  47.363  0.00  0.00    +0.000 A 
ATOM     17  C   UNL     1      31.970  31.809  47.661  0.00  0.00    +0.000 A 
ATOM     18  H   UNL     1      32.314  32.358  48.504  0.00  0.00    +0.000 HD
ATOM     19  C   UNL     1      30.900  32.193  46.868  0.00  0.00    +0.000 A 
ATOM     20  C   UNL     1      30.473  31.460  45.777  0.00  0.00    +0.000 A 
ATOM     21  C   UNL     1      31.176  30.300  45.504  0.00  0.00    +0.000 A 
ATOM     22  C   UNL     1      30.730  29.583  44.407  0.00  0.00    +0.000 A 
ATOM     23  C   UNL     1      31.373  28.396  44.047  0.00  0.00    +0.000 A 
ATOM     24  C   UNL     1      32.455  27.965  44.812  0.00  0.00    +0.000 A 
ATOM     25  C   UNL     1      32.878  28.703  45.903  0.00  0.00    +0.000 A 
ATOM     26  C   UNL     1      32.258  29.880  46.279  0.00  0.00    +0.000 A 
ENDBRANCH  15  16
ENDBRANCH   2  15
TORSDOF 5
