
 OpenBabel03272501303D

 22 24  0  0  0  0  0  0  0  0999 V2000
   38.0060   31.9260   48.1040 C   0  0  0  0  0  0  0  0  0  0  0  0
   37.9370   33.1730   48.3060 O   0  0  0  0  0  0  0  0  0  0  0  0
   38.4680   31.3410   46.8260 C   0  0  0  0  0  0  0  0  0  0  0  0
   39.8490   31.4060   46.5990 C   0  0  0  0  0  0  0  0  0  0  0  0
   40.5070   31.8670   47.3520 H   0  0  0  0  0  0  0  0  0  0  0  0
   40.4830   30.9340   45.4850 C   0  0  0  0  0  3  0  0  0  0  0  0
   39.7160   30.3480   44.5090 C   0  0  0  0  0  3  0  0  0  0  0  0
   38.3540   30.2720   44.7090 C   0  0  0  0  0  0  0  0  0  0  0  0
   37.4910   29.6930   43.7760 C   0  0  0  0  0  3  0  0  0  0  0  0
   36.1270   29.6120   43.9720 C   0  0  0  0  0  3  0  0  0  0  0  0
   35.5590   30.1160   45.1320 C   0  0  0  0  0  3  0  0  0  0  0  0
   36.3740   30.6970   46.0830 C   0  0  0  0  0  3  0  0  0  0  0  0
   37.7260   30.7520   45.8370 C   0  0  0  0  0  0  0  0  0  0  0  0
   37.7170   30.0820   51.3440 C   0  0  0  0  0  0  0  0  0  0  0  0
   38.1190   31.0670   50.4130 C   0  0  0  0  0  0  0  0  0  0  0  0
   37.6310   30.9450   49.1200 C   0  0  0  0  0  0  0  0  0  0  0  0
   36.8040   29.8910   48.8350 N   0  0  0  0  0  0  0  0  0  0  0  0
   36.4470   28.9800   49.7400 C   0  0  0  0  0  0  0  0  0  0  0  0
   36.8920   29.0610   50.9940 N   0  0  0  0  0  0  0  0  0  0  0  0
   38.0980   30.1860   52.3380 H   0  0  0  0  0  0  0  0  0  0  0  0
   38.7610   31.8770   50.6520 H   0  0  0  0  0  0  0  0  0  0  0  0
   35.7970   28.1470   49.5300 H   0  0  0  0  0  0  0  0  0  0  0  0
  1  2  2  0  0  0  0
  1 16  1  0  0  0  0
  3  1  1  0  0  0  0
  4  3  1  0  0  0  0
  4  5  1  0  0  0  0
  6  4  2  0  0  0  0
  7  8  2  0  0  0  0
  7  6  1  0  0  0  0
  8 13  1  0  0  0  0
  9 10  2  0  0  0  0
  9  8  1  0  0  0  0
 10 11  1  0  0  0  0
 11 12  2  0  0  0  0
 13 12  1  0  0  0  0
 13  3  2  0  0  0  0
 14 20  1  0  0  0  0
 15 21  1  0  0  0  0
 15 14  2  0  0  0  0
 16 15  1  0  0  0  0
 17 16  2  0  0  0  0
 17 18  1  0  0  0  0
 18 19  2  0  0  0  0
 19 14  1  0  0  0  0
 22 18  1  0  0  0  0
M  END
>  <minimizedAffinity>
-5.11657619

>  <minimizedRMSD>
1.61493969

$$$$
