
 OpenBabel03272503503D

 39 42  0  0  1  0  0  0  0  0999 V2000
   33.1280   27.4120   45.8780 C   0  0  1  0  0  0  0  0  0  0  0  0
   33.9380   27.4970   47.1900 C   0  0  2  0  0  0  0  0  0  0  0  0
   33.8110   26.2580   47.7300 O   0  0  0  0  0  0  0  0  0  0  0  0
   34.0470   25.3970   46.6710 C   0  0  0  0  0  0  0  0  0  0  0  0
   33.4840   26.0230   45.4120 C   0  0  2  0  0  0  0  0  0  0  0  0
   33.4800   28.2040   45.1880 H   0  0  0  0  0  0  0  0  0  0  0  0
   34.9630   27.7600   46.8440 H   0  0  0  0  0  0  0  0  0  0  0  0
   35.1050   25.1060   46.5630 H   0  0  0  0  0  0  0  0  0  0  0  0
   33.4660   24.4700   46.8610 H   0  0  0  0  0  0  0  0  0  0  0  0
   32.5660   25.5040   45.0770 H   0  0  0  0  0  0  0  0  0  0  0  0
   31.7850   27.6110   46.1280 O   0  0  0  0  0  0  0  0  0  0  0  0
   31.4120   28.3110   45.5320 H   0  0  0  0  0  0  0  0  0  0  0  0
   33.3580   28.5310   47.8810 O   0  0  0  0  0  0  0  0  0  0  0  0
   35.3590   29.8580   46.7740 O   0  0  0  0  0  0  0  0  0  0  0  0
   34.1090   30.0170   47.6360 P   0  0  1  0  0  0  0  0  0  0  0  0
   33.0940   31.0430   46.7510 O   0  0  0  0  0  0  0  0  0  0  0  0
   32.3690   31.3070   47.3980 H   0  0  0  0  0  0  0  0  0  0  0  0
   34.4290   30.6690   49.1810 O   0  0  0  0  0  0  0  0  0  0  0  0
   35.6670   30.5260   49.7910 C   0  0  0  0  0  0  0  0  0  0  0  0
   35.9990   29.4930   50.7000 C   0  0  0  0  0  0  0  0  0  0  0  0
   37.2810   29.4820   51.2300 C   0  0  0  0  0  0  0  0  0  0  0  0
   38.1590   30.4660   50.8480 N   0  0  0  0  0  0  0  0  0  0  0  0
   37.8120   31.4440   49.9750 C   0  0  0  0  0  0  0  0  0  0  0  0
   36.5610   31.4780   49.4420 N   0  0  0  0  0  0  0  0  0  0  0  0
   35.2350   28.7910   50.9160 H   0  0  0  0  0  0  0  0  0  0  0  0
   37.5280   28.7060   51.9110 H   0  0  0  0  0  0  0  0  0  0  0  0
   38.5140   32.2120   49.6850 H   0  0  0  0  0  0  0  0  0  0  0  0
   34.4420   26.0680   44.4350 O   0  0  0  0  0  0  0  0  0  0  0  0
   34.5550   27.1170   43.5610 C   0  0  0  0  0  0  0  0  0  0  0  0
   35.1800   28.3260   43.6530 C   0  0  0  0  0  0  0  0  0  0  0  0
   35.6890   28.5130   44.5820 H   0  0  0  0  0  0  0  0  0  0  0  0
   35.1840   29.2680   42.6530 C   0  0  0  0  0  3  0  0  0  0  0  0
   34.5340   29.0360   41.4590 C   0  0  0  0  0  3  0  0  0  0  0  0
   33.8840   27.8060   41.3350 C   0  0  0  0  0  0  0  0  0  0  0  0
   33.2500   27.6260   40.1220 C   0  0  0  0  0  3  0  0  0  0  0  0
   32.5800   26.4470   39.9000 C   0  0  0  0  0  3  0  0  0  0  0  0
   32.5560   25.4820   40.8790 C   0  0  0  0  0  3  0  0  0  0  0  0
   33.2010   25.6950   42.0790 C   0  0  0  0  0  3  0  0  0  0  0  0
   33.8870   26.8590   42.3580 C   0  0  0  0  0  0  0  0  0  0  0  0
  1  6  1  6  0  0  0
  1 11  1  0  0  0  0
  1  2  1  0  0  0  0
  2  7  1  6  0  0  0
  2  3  1  0  0  0  0
  2 13  1  0  0  0  0
  4  9  1  0  0  0  0
  4  3  1  0  0  0  0
  5 10  1  6  0  0  0
  5  1  1  0  0  0  0
  5  4  1  0  0  0  0
  8  4  1  0  0  0  0
 12 11  1  0  0  0  0
 15 14  2  6  0  0  0
 15 13  1  0  0  0  0
 15 18  1  0  0  0  0
 16 17  1  0  0  0  0
 16 15  1  0  0  0  0
 18 19  1  0  0  0  0
 19 20  1  0  0  0  0
 20 25  1  0  0  0  0
 20 21  2  0  0  0  0
 21 26  1  0  0  0  0
 22 21  1  0  0  0  0
 23 22  2  0  0  0  0
 24 19  2  0  0  0  0
 24 23  1  0  0  0  0
 27 23  1  0  0  0  0
 28  5  1  0  0  0  0
 29 30  1  0  0  0  0
 29 28  1  0  0  0  0
 30 31  1  0  0  0  0
 32 30  2  0  0  0  0
 33 32  1  0  0  0  0
 34 33  2  0  0  0  0
 34 39  1  0  0  0  0
 35 34  1  0  0  0  0
 36 35  2  0  0  0  0
 36 37  1  0  0  0  0
 37 38  2  0  0  0  0
 38 39  1  0  0  0  0
 39 29  2  0  0  0  0
M  END
>  <minimizedAffinity>
-4.08988523

>  <minimizedRMSD>
2.53686643

$$$$
