
 OpenBabel03262522163D

 47 51  0  0  1  0  0  0  0  0999 V2000
   39.6830   31.9660   43.8030 C   0  0  0  0  0  0  0  0  0  0  0  0
   38.5920   31.9300   43.8990 H   0  0  0  0  0  0  0  0  0  0  0  0
   39.9060   32.4590   42.8350 H   0  0  0  0  0  0  0  0  0  0  0  0
   40.1330   28.7210   42.4310 C   0  0  1  0  0  0  0  0  0  0  0  0
   40.7150   30.1310   42.4840 C   0  0  0  0  0  0  0  0  0  0  0  0
   40.2760   30.5720   43.8570 C   0  0  2  0  0  0  0  0  0  0  0  0
   39.3920   29.6540   44.3490 O   0  0  0  0  0  0  0  0  0  0  0  0
   38.8870   28.9270   43.2820 C   0  0  0  0  0  0  0  0  0  0  0  0
   40.8710   28.0810   42.9440 H   0  0  0  0  0  0  0  0  0  0  0  0
   41.8170   30.0900   42.3800 H   0  0  0  0  0  0  0  0  0  0  0  0
   40.2540   30.7900   41.7230 H   0  0  0  0  0  0  0  0  0  0  0  0
   41.1800   30.6470   44.4910 H   0  0  0  0  0  0  0  0  0  0  0  0
   38.2330   29.5680   42.6980 H   0  0  0  0  0  0  0  0  0  0  0  0
   38.4500   27.9710   43.6160 H   0  0  0  0  0  0  0  0  0  0  0  0
   39.8070   28.3630   41.1420 O   0  0  0  0  0  0  0  0  0  0  0  0
   39.8440   27.0860   40.6620 C   0  0  0  0  0  0  0  0  0  0  0  0
   39.1150   25.9760   41.0290 C   0  0  0  0  0  0  0  0  0  0  0  0
   38.4040   26.1580   41.8220 H   0  0  0  0  0  0  0  0  0  0  0  0
   39.2650   24.7350   40.4450 C   0  0  0  0  0  0  0  0  0  0  0  0
   40.2040   24.6220   39.4410 C   0  0  0  0  0  0  0  0  0  0  0  0
   40.9650   25.6970   39.0290 C   0  0  0  0  0  0  0  0  0  0  0  0
   41.8650   25.4400   38.0160 C   0  0  0  0  0  0  0  0  0  0  0  0
   42.6430   26.4910   37.5790 C   0  0  0  0  0  0  0  0  0  0  0  0
   42.5060   27.7380   38.1520 C   0  0  0  0  0  0  0  0  0  0  0  0
   41.5880   27.9360   39.1630 C   0  0  0  0  0  0  0  0  0  0  0  0
   40.7810   26.9280   39.6450 C   0  0  0  0  0  0  0  0  0  0  0  0
   40.5030   32.9580   45.0820 S   0  0  0  0  0  0  0  0  0  0  0  0
   37.6900   31.7030   47.5990 C   0  0  0  0  0  0  0  0  0  0  0  0
   37.9170   32.4650   48.7600 C   0  0  0  0  0  0  0  0  0  0  0  0
   38.9380   33.3920   48.8190 C   0  0  0  0  0  0  0  0  0  0  0  0
   39.7080   33.5220   47.6870 C   0  0  0  0  0  0  0  0  0  0  0  0
   39.4820   32.7810   46.5700 C   0  0  0  0  0  0  0  0  0  0  0  0
   38.4740   31.8640   46.5070 N   0  0  0  0  0  0  0  0  0  0  0  0
   37.2820   32.3270   49.6260 H   0  0  0  0  0  0  0  0  0  0  0  0
   39.1310   33.9900   49.7020 H   0  0  0  0  0  0  0  0  0  0  0  0
   40.5270   34.2300   47.6630 H   0  0  0  0  0  0  0  0  0  0  0  0
   36.6100   30.7620   47.6190 C   0  0  0  0  0  0  0  0  0  0  0  0
   36.0920   30.3720   46.5780 O   0  0  0  0  0  0  0  0  0  0  0  0
   36.9680   29.6250   49.7820 C   0  0  0  0  0  0  0  0  0  0  0  0
   36.0690   30.2170   48.8760 C   0  0  0  0  0  0  0  0  0  0  0  0
   34.7150   30.2670   49.1990 C   0  0  0  0  0  0  0  0  0  0  0  0
   34.2960   29.7380   50.3860 N   0  0  0  0  0  0  0  0  0  0  0  0
   35.1890   29.1710   51.2410 C   0  0  0  0  0  0  0  0  0  0  0  0
   36.4790   29.1210   50.9390 N   0  0  0  0  0  0  0  0  0  0  0  0
   38.0340   29.5560   49.5850 H   0  0  0  0  0  0  0  0  0  0  0  0
   34.0510   30.7250   48.4900 H   0  0  0  0  0  0  0  0  0  0  0  0
   34.7590   28.7810   52.1560 H   0  0  0  0  0  0  0  0  0  0  0  0
  1  6  1  0  0  0  0
  1  2  1  0  0  0  0
  1 27  1  0  0  0  0
  3  1  1  0  0  0  0
  4  5  1  0  0  0  0
  4  9  1  1  0  0  0
  4  8  1  0  0  0  0
  5  6  1  0  0  0  0
  6  7  1  0  0  0  0
  6 12  1  1  0  0  0
  8 14  1  0  0  0  0
  8  7  1  0  0  0  0
 10  5  1  0  0  0  0
 11  5  1  0  0  0  0
 13  8  1  0  0  0  0
 15  4  1  0  0  0  0
 16 17  1  0  0  0  0
 16 15  1  0  0  0  0
 17 18  1  0  0  0  0
 19 17  2  0  0  0  0
 20 19  1  0  0  0  0
 21 20  2  0  0  0  0
 21 26  1  0  0  0  0
 22 21  1  0  0  0  0
 23 22  2  0  0  0  0
 23 24  1  0  0  0  0
 24 25  2  0  0  0  0
 25 26  1  0  0  0  0
 26 16  2  0  0  0  0
 27 32  1  0  0  0  0
 28 37  1  0  0  0  0
 28 29  1  0  0  0  0
 29 30  2  0  0  0  0
 29 34  1  0  0  0  0
 30 35  1  0  0  0  0
 31 30  1  0  0  0  0
 32 31  2  0  0  0  0
 33 32  1  0  0  0  0
 33 28  2  0  0  0  0
 36 31  1  0  0  0  0
 37 40  1  0  0  0  0
 38 37  2  0  0  0  0
 39 44  1  0  0  0  0
 40 41  1  0  0  0  0
 40 39  2  0  0  0  0
 41 42  2  0  0  0  0
 42 43  1  0  0  0  0
 43 47  1  0  0  0  0
 44 43  2  0  0  0  0
 45 39  1  0  0  0  0
 46 41  1  0  0  0  0
M  END
>  <minimizedAffinity>
-5.98894501

>  <minimizedRMSD>
2.32323217

$$$$
