
 OpenBabel03272506443D

 34 37  0  0  1  0  0  0  0  0999 V2000
   32.3930   28.3610   47.5110 C   0  0  2  0  0  0  0  0  0  0  0  0
   33.6430   28.4080   48.3760 C   0  0  1  0  0  0  0  0  0  0  0  0
   34.1880   27.1590   48.3930 O   0  0  0  0  0  0  0  0  0  0  0  0
   33.5250   26.3620   47.4860 C   0  0  0  0  0  0  0  0  0  0  0  0
   32.8380   27.3170   46.4940 C   0  0  1  0  0  0  0  0  0  0  0  0
   31.5240   28.0040   48.0870 H   0  0  0  0  0  0  0  0  0  0  0  0
   33.3550   28.8050   49.3670 H   0  0  0  0  0  0  0  0  0  0  0  0
   34.2940   25.7900   46.9240 H   0  0  0  0  0  0  0  0  0  0  0  0
   32.7770   25.7130   47.9680 H   0  0  0  0  0  0  0  0  0  0  0  0
   33.5850   27.7940   45.8590 H   0  0  0  0  0  0  0  0  0  0  0  0
   32.1530   29.5920   46.9070 O   0  0  0  0  0  0  0  0  0  0  0  0
   31.5440   30.1200   47.4760 H   0  0  0  0  0  0  0  0  0  0  0  0
   34.8090   29.5240   47.5350 S   0  0  0  0  0  0  0  0  0  0  0  0
   37.4030   29.5000   50.5250 C   0  0  0  0  0  0  0  0  0  0  0  0
   38.0100   30.7490   50.5000 C   0  0  0  0  0  0  0  0  0  0  0  0
   37.6000   31.6450   49.5110 C   0  0  0  0  0  0  0  0  0  0  0  0
   36.6350   31.2550   48.6300 N   0  0  0  0  0  0  0  0  0  0  0  0
   36.0740   30.0220   48.6970 C   0  0  0  0  0  0  0  0  0  0  0  0
   36.4470   29.1410   49.6360 N   0  0  0  0  0  0  0  0  0  0  0  0
   37.7530   28.8440   51.3070 H   0  0  0  0  0  0  0  0  0  0  0  0
   38.7760   31.0550   51.2020 H   0  0  0  0  0  0  0  0  0  0  0  0
   38.0160   32.6490   49.4080 H   0  0  0  0  0  0  0  0  0  0  0  0
   31.7810   26.6840   45.8950 O   0  0  0  0  0  0  0  0  0  0  0  0
   31.5910   26.6740   44.5250 C   0  0  0  0  0  0  0  0  0  0  0  0
   31.6750   27.6920   43.6010 C   0  0  0  0  0  0  0  0  0  0  0  0
   31.9320   28.6430   44.0400 H   0  0  0  0  0  0  0  0  0  0  0  0
   31.4420   27.4610   42.2620 C   0  0  0  0  0  3  0  0  0  0  0  0
   31.1210   26.2210   41.7920 C   0  0  0  0  0  3  0  0  0  0  0  0
   31.0270   25.1670   42.6930 C   0  0  0  0  0  0  0  0  0  0  0  0
   30.7010   23.9550   42.1590 C   0  0  0  0  0  3  0  0  0  0  0  0
   30.5950   22.8740   43.0090 C   0  0  0  0  0  3  0  0  0  0  0  0
   30.8160   23.0420   44.3600 C   0  0  0  0  0  3  0  0  0  0  0  0
   31.1400   24.2900   44.8390 C   0  0  0  0  0  3  0  0  0  0  0  0
   31.2620   25.4040   44.0460 C   0  0  0  0  0  0  0  0  0  0  0  0
  1  6  1  1  0  0  0
  1  2  1  0  0  0  0
  2  3  1  0  0  0  0
  2  7  1  1  0  0  0
  4  9  1  0  0  0  0
  4  3  1  0  0  0  0
  5 10  1  6  0  0  0
  5  4  1  0  0  0  0
  5  1  1  0  0  0  0
  8  4  1  0  0  0  0
 11 12  1  0  0  0  0
 11  1  1  0  0  0  0
 13  2  1  0  0  0  0
 13 18  1  0  0  0  0
 14 20  1  0  0  0  0
 15 14  1  0  0  0  0
 15 21  1  0  0  0  0
 16 15  2  0  0  0  0
 17 18  2  0  0  0  0
 17 16  1  0  0  0  0
 18 19  1  0  0  0  0
 19 14  2  0  0  0  0
 22 16  1  0  0  0  0
 23  5  1  0  0  0  0
 24 23  1  0  0  0  0
 25 26  1  0  0  0  0
 25 24  2  0  0  0  0
 27 25  1  0  0  0  0
 28 27  2  0  0  0  0
 28 29  1  0  0  0  0
 29 34  1  0  0  0  0
 30 29  2  0  0  0  0
 30 31  1  0  0  0  0
 31 32  2  0  0  0  0
 32 33  1  0  0  0  0
 34 24  1  0  0  0  0
 34 33  2  0  0  0  0
M  END
>  <minimizedAffinity>
-3.82135034

>  <minimizedRMSD>
0.080182977

$$$$
