
 OpenBabel03272504243D

 41 44  0  0  1  0  0  0  0  0999 V2000
   35.6720   28.1770   31.9200 C   0  0  2  0  0  0  0  0  0  0  0  0
   36.5580   27.1670   32.6350 C   0  0  1  0  0  0  0  0  0  0  0  0
   37.1270   26.4660   31.4000 C   0  0  0  0  0  0  0  0  0  0  0  0
   37.5550   27.5390   30.6550 O   0  0  0  0  0  0  0  0  0  0  0  0
   36.6130   28.5440   30.7640 C   0  0  0  0  0  0  0  0  0  0  0  0
   34.7890   27.6980   31.4760 H   0  0  0  0  0  0  0  0  0  0  0  0
   36.0050   26.4790   33.2780 H   0  0  0  0  0  0  0  0  0  0  0  0
   37.9990   25.8540   31.7000 H   0  0  0  0  0  0  0  0  0  0  0  0
   36.3430   25.8480   30.9440 H   0  0  0  0  0  0  0  0  0  0  0  0
   37.0830   29.5360   30.9260 H   0  0  0  0  0  0  0  0  0  0  0  0
   36.0640   28.6070   29.8030 H   0  0  0  0  0  0  0  0  0  0  0  0
   37.5590   27.8710   33.2620 O   0  0  0  0  0  0  0  0  0  0  0  0
   39.7200   26.6400   34.0340 O   0  0  0  0  0  0  0  0  0  0  0  0
   38.3260   26.9800   34.4640 P   0  0  1  0  0  0  0  0  0  0  0  0
   38.4350   27.9270   35.9010 O   0  0  0  0  0  0  0  0  0  0  0  0
   39.2520   28.4970   35.7650 H   0  0  0  0  0  0  0  0  0  0  0  0
   37.4400   25.5710   34.8030 O   0  0  0  0  0  0  0  0  0  0  0  0
   38.3410   24.5210   34.8490 C   0  0  0  0  0  0  0  0  0  0  0  0
   39.3050   24.9450   34.4440 H   0  0  0  0  0  0  0  0  0  0  0  0
   38.0300   23.6820   34.2190 H   0  0  0  0  0  0  0  0  0  0  0  0
   38.6220   24.0440   36.2220 C   0  0  0  0  0  0  0  0  0  0  0  0
   39.7340   23.2530   36.3900 C   0  0  0  0  0  0  0  0  0  0  0  0
   40.0480   22.7750   37.6650 C   0  0  0  0  0  0  0  0  0  0  0  0
   39.2150   23.1310   38.6820 N   0  0  0  0  0  0  0  0  0  0  0  0
   38.1320   23.9080   38.4910 C   0  0  0  0  0  0  0  0  0  0  0  0
   37.8260   24.3730   37.2540 N   0  0  0  0  0  0  0  0  0  0  0  0
   40.4350   22.9280   35.6570 H   0  0  0  0  0  0  0  0  0  0  0  0
   40.8990   22.1500   37.8880 H   0  0  0  0  0  0  0  0  0  0  0  0
   37.5700   24.1070   39.3750 H   0  0  0  0  0  0  0  0  0  0  0  0
   35.4580   29.2300   32.7760 O   0  0  0  0  0  0  0  0  0  0  0  0
   34.2690   29.5380   33.4200 C   0  0  0  0  0  0  0  0  0  0  0  0
   33.0100   29.1290   33.0370 C   0  0  0  0  0  0  0  0  0  0  0  0
   32.9440   28.5150   32.1550 H   0  0  0  0  0  0  0  0  0  0  0  0
   31.8770   29.4840   33.7430 C   0  0  0  0  0  3  0  0  0  0  0  0
   32.0580   30.2780   34.8670 C   0  0  0  0  0  3  0  0  0  0  0  0
   33.3130   30.7040   35.2770 C   0  0  0  0  0  0  0  0  0  0  0  0
   33.4300   31.5030   36.4180 C   0  0  0  0  0  3  0  0  0  0  0  0
   34.6830   31.9220   36.8180 C   0  0  0  0  0  3  0  0  0  0  0  0
   35.8150   31.5650   36.1110 C   0  0  0  0  0  3  0  0  0  0  0  0
   35.6820   30.7760   34.9870 C   0  0  0  0  0  3  0  0  0  0  0  0
   34.4430   30.3300   34.5430 C   0  0  0  0  0  0  0  0  0  0  0  0
  1  6  1  6  0  0  0
  1  2  1  0  0  0  0
  1 30  1  0  0  0  0
  2 12  1  0  0  0  0
  2  7  1  1  0  0  0
  3  8  1  0  0  0  0
  3  2  1  0  0  0  0
  4  5  1  0  0  0  0
  4  3  1  0  0  0  0
  5 10  1  0  0  0  0
  5  1  1  0  0  0  0
  9  3  1  0  0  0  0
 11  5  1  0  0  0  0
 12 14  1  0  0  0  0
 14 13  2  6  0  0  0
 14 17  1  0  0  0  0
 14 15  1  0  0  0  0
 16 15  1  0  0  0  0
 17 18  1  0  0  0  0
 18 21  1  0  0  0  0
 19 18  1  0  0  0  0
 20 18  1  0  0  0  0
 21 22  2  0  0  0  0
 21 26  1  0  0  0  0
 22 23  1  0  0  0  0
 23 28  1  0  0  0  0
 23 24  2  0  0  0  0
 25 24  1  0  0  0  0
 25 29  1  0  0  0  0
 26 25  2  0  0  0  0
 27 22  1  0  0  0  0
 30 31  1  0  0  0  0
 31 41  1  0  0  0  0
 32 31  2  0  0  0  0
 32 34  1  0  0  0  0
 33 32  1  0  0  0  0
 34 35  2  0  0  0  0
 35 36  1  0  0  0  0
 36 37  1  0  0  0  0
 37 38  2  0  0  0  0
 39 38  1  0  0  0  0
 40 39  2  0  0  0  0
 41 40  1  0  0  0  0
 41 36  2  0  0  0  0
M  END
>  <minimizedAffinity>
-6.26258039

$$$$

 OpenBabel03272504243D

 41 44  0  0  1  0  0  0  0  0999 V2000
   35.1920   29.4480   32.7790 C   0  0  2  0  0  0  0  0  0  0  0  0
   35.8490   28.1990   32.2070 C   0  0  1  0  0  0  0  0  0  0  0  0
   36.1960   28.7520   30.8240 C   0  0  0  0  0  0  0  0  0  0  0  0
   36.8310   29.9260   31.1540 O   0  0  0  0  0  0  0  0  0  0  0  0
   36.1500   30.5040   32.2070 C   0  0  0  0  0  0  0  0  0  0  0  0
   34.2070   29.6310   32.3280 H   0  0  0  0  0  0  0  0  0  0  0  0
   35.1770   27.3410   32.1480 H   0  0  0  0  0  0  0  0  0  0  0  0
   36.9150   28.0710   30.3310 H   0  0  0  0  0  0  0  0  0  0  0  0
   35.2750   28.8550   30.2350 H   0  0  0  0  0  0  0  0  0  0  0  0
   36.8400   30.8860   32.9870 H   0  0  0  0  0  0  0  0  0  0  0  0
   35.5950   31.3820   31.8180 H   0  0  0  0  0  0  0  0  0  0  0  0
   37.0070   27.9840   32.9160 O   0  0  0  0  0  0  0  0  0  0  0  0
   36.4050   25.5320   32.2790 O   0  0  0  0  0  0  0  0  0  0  0  0
   37.4190   26.3570   33.0090 P   0  0  1  0  0  0  0  0  0  0  0  0
   38.9460   26.1060   32.2490 O   0  0  0  0  0  0  0  0  0  0  0  0
   38.7300   26.0220   31.2710 H   0  0  0  0  0  0  0  0  0  0  0  0
   37.5300   25.8740   34.6340 O   0  0  0  0  0  0  0  0  0  0  0  0
   38.1830   24.6540   34.6560 C   0  0  0  0  0  0  0  0  0  0  0  0
   39.1820   24.8480   34.1670 H   0  0  0  0  0  0  0  0  0  0  0  0
   37.6500   23.8890   34.0830 H   0  0  0  0  0  0  0  0  0  0  0  0
   38.4610   24.1580   36.0230 C   0  0  0  0  0  0  0  0  0  0  0  0
   39.5470   23.3290   36.1750 C   0  0  0  0  0  0  0  0  0  0  0  0
   39.8570   22.8320   37.4440 C   0  0  0  0  0  0  0  0  0  0  0  0
   39.0450   23.2080   38.4710 N   0  0  0  0  0  0  0  0  0  0  0  0
   37.9860   24.0210   38.2960 C   0  0  0  0  0  0  0  0  0  0  0  0
   37.6850   24.5040   37.0640 N   0  0  0  0  0  0  0  0  0  0  0  0
   40.2310   22.9870   35.4340 H   0  0  0  0  0  0  0  0  0  0  0  0
   40.6880   22.1780   37.6540 H   0  0  0  0  0  0  0  0  0  0  0  0
   37.4400   24.2320   39.1870 H   0  0  0  0  0  0  0  0  0  0  0  0
   35.2570   29.3690   34.1490 O   0  0  0  0  0  0  0  0  0  0  0  0
   34.9810   30.3890   35.0450 C   0  0  0  0  0  0  0  0  0  0  0  0
   35.8610   31.3650   35.4620 C   0  0  0  0  0  0  0  0  0  0  0  0
   36.8560   31.3290   35.0520 H   0  0  0  0  0  0  0  0  0  0  0  0
   35.4970   32.3470   36.3610 C   0  0  0  0  0  3  0  0  0  0  0  0
   34.1930   32.3130   36.8360 C   0  0  0  0  0  3  0  0  0  0  0  0
   33.2840   31.3440   36.4360 C   0  0  0  0  0  0  0  0  0  0  0  0
   31.9850   31.3630   36.9510 C   0  0  0  0  0  3  0  0  0  0  0  0
   31.0890   30.3950   36.5460 C   0  0  0  0  0  3  0  0  0  0  0  0
   31.4550   29.4140   35.6460 C   0  0  0  0  0  3  0  0  0  0  0  0
   32.7420   29.4090   35.1470 C   0  0  0  0  0  3  0  0  0  0  0  0
   33.6800   30.3610   35.5240 C   0  0  0  0  0  0  0  0  0  0  0  0
  1  6  1  6  0  0  0
  1 30  1  0  0  0  0
  2  7  1  6  0  0  0
  2  1  1  0  0  0  0
  2 12  1  0  0  0  0
  3  4  1  0  0  0  0
  3  2  1  0  0  0  0
  4  5  1  0  0  0  0
  5  1  1  0  0  0  0
  5 10  1  0  0  0  0
  8  3  1  0  0  0  0
  9  3  1  0  0  0  0
 11  5  1  0  0  0  0
 12 14  1  0  0  0  0
 14 13  2  6  0  0  0
 14 17  1  0  0  0  0
 15 14  1  0  0  0  0
 16 15  1  0  0  0  0
 17 18  1  0  0  0  0
 18 21  1  0  0  0  0
 19 18  1  0  0  0  0
 20 18  1  0  0  0  0
 21 22  2  0  0  0  0
 21 26  1  0  0  0  0
 22 23  1  0  0  0  0
 23 28  1  0  0  0  0
 23 24  2  0  0  0  0
 25 24  1  0  0  0  0
 25 29  1  0  0  0  0
 26 25  2  0  0  0  0
 27 22  1  0  0  0  0
 30 31  1  0  0  0  0
 31 32  2  0  0  0  0
 31 41  1  0  0  0  0
 32 34  1  0  0  0  0
 33 32  1  0  0  0  0
 34 35  2  0  0  0  0
 36 35  1  0  0  0  0
 36 37  1  0  0  0  0
 38 37  2  0  0  0  0
 39 38  1  0  0  0  0
 40 41  1  0  0  0  0
 40 39  2  0  0  0  0
 41 36  2  0  0  0  0
M  END
>  <minimizedAffinity>
-6.06025982

$$$$

 OpenBabel03272504243D

 41 44  0  0  1  0  0  0  0  0999 V2000
   37.7170   25.7780   34.3760 C   0  0  2  0  0  0  0  0  0  0  0  0
   37.4130   25.7050   32.8860 C   0  0  1  0  0  0  0  0  0  0  0  0
   37.7260   27.1590   32.5300 C   0  0  0  0  0  0  0  0  0  0  0  0
   38.9670   27.3150   33.1000 O   0  0  0  0  0  0  0  0  0  0  0  0
   38.9670   26.6690   34.3210 C   0  0  0  0  0  0  0  0  0  0  0  0
   36.9460   26.3400   34.9200 H   0  0  0  0  0  0  0  0  0  0  0  0
   36.3770   25.4430   32.6650 H   0  0  0  0  0  0  0  0  0  0  0  0
   37.8110   27.2530   31.4310 H   0  0  0  0  0  0  0  0  0  0  0  0
   36.9320   27.8050   32.9270 H   0  0  0  0  0  0  0  0  0  0  0  0
   39.8910   26.0760   34.4760 H   0  0  0  0  0  0  0  0  0  0  0  0
   38.9470   27.4390   35.1180 H   0  0  0  0  0  0  0  0  0  0  0  0
   38.3550   24.8820   32.3150 O   0  0  0  0  0  0  0  0  0  0  0  0
   36.4020   24.3960   30.6620 O   0  0  0  0  0  0  0  0  0  0  0  0
   37.8910   24.3140   30.8020 P   0  0  1  0  0  0  0  0  0  0  0  0
   38.5900   25.3060   29.5770 O   0  0  0  0  0  0  0  0  0  0  0  0
   37.9660   26.0900   29.5030 H   0  0  0  0  0  0  0  0  0  0  0  0
   38.4290   22.7180   30.5880 O   0  0  0  0  0  0  0  0  0  0  0  0
   38.5110   22.1400   31.8420 C   0  0  0  0  0  0  0  0  0  0  0  0
   38.5780   23.0090   32.5610 H   0  0  0  0  0  0  0  0  0  0  0  0
   39.4030   21.5170   31.9540 H   0  0  0  0  0  0  0  0  0  0  0  0
   37.3050   21.3650   32.2150 C   0  0  0  0  0  0  0  0  0  0  0  0
   36.9130   21.4190   33.5320 C   0  0  0  0  0  0  0  0  0  0  0  0
   35.7810   20.7070   33.9400 C   0  0  0  0  0  0  0  0  0  0  0  0
   35.1260   19.9890   32.9850 N   0  0  0  0  0  0  0  0  0  0  0  0
   35.5310   19.9530   31.7020 C   0  0  0  0  0  0  0  0  0  0  0  0
   36.6290   20.6430   31.3050 N   0  0  0  0  0  0  0  0  0  0  0  0
   37.3630   21.9500   34.3380 H   0  0  0  0  0  0  0  0  0  0  0  0
   35.4040   20.6930   34.9490 H   0  0  0  0  0  0  0  0  0  0  0  0
   34.9230   19.3510   31.0650 H   0  0  0  0  0  0  0  0  0  0  0  0
   37.9990   24.5050   34.8110 O   0  0  0  0  0  0  0  0  0  0  0  0
   38.3150   24.1310   36.1080 C   0  0  0  0  0  0  0  0  0  0  0  0
   37.6500   24.5220   37.2500 C   0  0  0  0  0  0  0  0  0  0  0  0
   36.8070   25.1790   37.1220 H   0  0  0  0  0  0  0  0  0  0  0  0
   38.0360   24.0980   38.5060 C   0  0  0  0  0  3  0  0  0  0  0  0
   39.1340   23.2520   38.5750 C   0  0  0  0  0  3  0  0  0  0  0  0
   39.8240   22.8420   37.4430 C   0  0  0  0  0  0  0  0  0  0  0  0
   40.9230   21.9880   37.5780 C   0  0  0  0  0  3  0  0  0  0  0  0
   41.6020   21.5860   36.4460 C   0  0  0  0  0  3  0  0  0  0  0  0
   41.2140   22.0100   35.1900 C   0  0  0  0  0  3  0  0  0  0  0  0
   40.1270   22.8530   35.0750 C   0  0  0  0  0  3  0  0  0  0  0  0
   39.4110   23.2870   36.1840 C   0  0  0  0  0  0  0  0  0  0  0  0
  1 30  1  0  0  0  0
  1  6  1  1  0  0  0
  2  7  1  6  0  0  0
  2  1  1  0  0  0  0
  3  2  1  0  0  0  0
  3  9  1  0  0  0  0
  3  4  1  0  0  0  0
  4  5  1  0  0  0  0
  5  1  1  0  0  0  0
  5 10  1  0  0  0  0
  5 11  1  0  0  0  0
  8  3  1  0  0  0  0
 12  2  1  0  0  0  0
 14 13  2  6  0  0  0
 14 12  1  0  0  0  0
 15 14  1  0  0  0  0
 16 15  1  0  0  0  0
 17 14  1  0  0  0  0
 17 18  1  0  0  0  0
 18 20  1  0  0  0  0
 18 21  1  0  0  0  0
 18 19  1  0  0  0  0
 21 22  1  0  0  0  0
 22 23  2  0  0  0  0
 22 27  1  0  0  0  0
 23 28  1  0  0  0  0
 24 23  1  0  0  0  0
 25 24  2  0  0  0  0
 26 25  1  0  0  0  0
 26 21  2  0  0  0  0
 29 25  1  0  0  0  0
 30 31  1  0  0  0  0
 31 41  2  0  0  0  0
 31 32  1  0  0  0  0
 32 34  2  0  0  0  0
 33 32  1  0  0  0  0
 34 35  1  0  0  0  0
 36 37  1  0  0  0  0
 36 35  2  0  0  0  0
 38 37  2  0  0  0  0
 39 38  1  0  0  0  0
 40 39  2  0  0  0  0
 40 41  1  0  0  0  0
 41 36  1  0  0  0  0
M  END
>  <minimizedAffinity>
-5.88378477

$$$$

 OpenBabel03272504243D

 41 44  0  0  1  0  0  0  0  0999 V2000
   38.0080   22.9480   35.4340 C   0  0  2  0  0  0  0  0  0  0  0  0
   38.1250   24.3960   35.8890 C   0  0  1  0  0  0  0  0  0  0  0  0
   38.3220   24.1370   37.3830 C   0  0  0  0  0  0  0  0  0  0  0  0
   39.3330   23.2060   37.3650 O   0  0  0  0  0  0  0  0  0  0  0  0
   39.0940   22.3290   36.3260 C   0  0  0  0  0  0  0  0  0  0  0  0
   37.0500   22.5040   35.7380 H   0  0  0  0  0  0  0  0  0  0  0  0
   37.2310   24.9900   35.6900 H   0  0  0  0  0  0  0  0  0  0  0  0
   38.6830   25.0650   37.8680 H   0  0  0  0  0  0  0  0  0  0  0  0
   37.3710   23.8040   37.8190 H   0  0  0  0  0  0  0  0  0  0  0  0
   40.0150   22.1120   35.7470 H   0  0  0  0  0  0  0  0  0  0  0  0
   38.7570   21.3650   36.7580 H   0  0  0  0  0  0  0  0  0  0  0  0
   39.2880   24.9000   35.3560 O   0  0  0  0  0  0  0  0  0  0  0  0
   38.6420   27.2310   36.3210 O   0  0  0  0  0  0  0  0  0  0  0  0
   39.2260   26.5630   35.1140 P   0  0  1  0  0  0  0  0  0  0  0  0
   40.8230   27.1730   34.8970 O   0  0  0  0  0  0  0  0  0  0  0  0
   41.1750   27.2950   35.8310 H   0  0  0  0  0  0  0  0  0  0  0  0
   38.3110   26.9180   33.7280 O   0  0  0  0  0  0  0  0  0  0  0  0
   39.2040   27.1770   32.7030 C   0  0  0  0  0  0  0  0  0  0  0  0
   39.6610   26.1760   32.4530 H   0  0  0  0  0  0  0  0  0  0  0  0
   39.9980   27.8640   33.0100 H   0  0  0  0  0  0  0  0  0  0  0  0
   38.5560   27.6750   31.4680 C   0  0  0  0  0  0  0  0  0  0  0  0
   39.3520   27.7990   30.3540 C   0  0  0  0  0  0  0  0  0  0  0  0
   38.7940   28.2630   29.1600 C   0  0  0  0  0  0  0  0  0  0  0  0
   37.4670   28.5710   29.1770 N   0  0  0  0  0  0  0  0  0  0  0  0
   36.7080   28.4410   30.2820 C   0  0  0  0  0  0  0  0  0  0  0  0
   37.2500   27.9900   31.4410 N   0  0  0  0  0  0  0  0  0  0  0  0
   40.3900   27.5830   30.2520 H   0  0  0  0  0  0  0  0  0  0  0  0
   39.3430   28.3910   28.2410 H   0  0  0  0  0  0  0  0  0  0  0  0
   35.6870   28.7180   30.1510 H   0  0  0  0  0  0  0  0  0  0  0  0
   38.3330   22.8980   34.0990 O   0  0  0  0  0  0  0  0  0  0  0  0
   37.4640   23.0720   33.0340 C   0  0  0  0  0  0  0  0  0  0  0  0
   37.4080   24.1700   32.2030 C   0  0  0  0  0  0  0  0  0  0  0  0
   38.1050   24.9660   32.4010 H   0  0  0  0  0  0  0  0  0  0  0  0
   36.5050   24.2570   31.1610 C   0  0  0  0  0  3  0  0  0  0  0  0
   35.6460   23.1820   30.9820 C   0  0  0  0  0  3  0  0  0  0  0  0
   35.6780   22.0640   31.8020 C   0  0  0  0  0  0  0  0  0  0  0  0
   34.7850   21.0130   31.5700 C   0  0  0  0  0  3  0  0  0  0  0  0
   34.8260   19.9050   32.3920 C   0  0  0  0  0  3  0  0  0  0  0  0
   35.7300   19.8190   33.4320 C   0  0  0  0  0  3  0  0  0  0  0  0
   36.6040   20.8650   33.6480 C   0  0  0  0  0  3  0  0  0  0  0  0
   36.6030   22.0020   32.8500 C   0  0  0  0  0  0  0  0  0  0  0  0
  1  6  1  1  0  0  0
  1  2  1  0  0  0  0
  1  5  1  0  0  0  0
  2  7  1  6  0  0  0
  2  3  1  0  0  0  0
  3  9  1  0  0  0  0
  3  8  1  0  0  0  0
  4  3  1  0  0  0  0
  5 11  1  0  0  0  0
  5  4  1  0  0  0  0
 10  5  1  0  0  0  0
 12  2  1  0  0  0  0
 14 12  1  0  0  0  0
 14 13  2  1  0  0  0
 15 14  1  0  0  0  0
 15 16  1  0  0  0  0
 17 14  1  0  0  0  0
 18 20  1  0  0  0  0
 18 17  1  0  0  0  0
 19 18  1  0  0  0  0
 21 18  1  0  0  0  0
 22 21  2  0  0  0  0
 23 24  2  0  0  0  0
 23 22  1  0  0  0  0
 24 25  1  0  0  0  0
 25 26  2  0  0  0  0
 26 21  1  0  0  0  0
 27 22  1  0  0  0  0
 28 23  1  0  0  0  0
 29 25  1  0  0  0  0
 30  1  1  0  0  0  0
 31 30  1  0  0  0  0
 32 33  1  0  0  0  0
 32 31  2  0  0  0  0
 34 32  1  0  0  0  0
 35 34  2  0  0  0  0
 35 36  1  0  0  0  0
 36 41  1  0  0  0  0
 37 36  2  0  0  0  0
 37 38  1  0  0  0  0
 38 39  2  0  0  0  0
 39 40  1  0  0  0  0
 41 31  1  0  0  0  0
 41 40  2  0  0  0  0
M  END
>  <minimizedAffinity>
-5.7560339

$$$$

 OpenBabel03272504243D

 41 44  0  0  1  0  0  0  0  0999 V2000
   37.0370   21.3130   33.0290 C   0  0  2  0  0  0  0  0  0  0  0  0
   36.5610   22.0110   31.7620 C   0  0  1  0  0  0  0  0  0  0  0  0
   35.5340   20.9700   31.3160 C   0  0  0  0  0  0  0  0  0  0  0  0
   34.8070   20.7950   32.4690 O   0  0  0  0  0  0  0  0  0  0  0  0
   35.6850   20.7910   33.5360 C   0  0  0  0  0  0  0  0  0  0  0  0
   37.6560   20.4350   32.8000 H   0  0  0  0  0  0  0  0  0  0  0  0
   37.3490   22.1540   31.0210 H   0  0  0  0  0  0  0  0  0  0  0  0
   34.8850   21.4120   30.5350 H   0  0  0  0  0  0  0  0  0  0  0  0
   36.0600   20.0820   30.9420 H   0  0  0  0  0  0  0  0  0  0  0  0
   35.3100   21.4010   34.3840 H   0  0  0  0  0  0  0  0  0  0  0  0
   35.7700   19.7500   33.9080 H   0  0  0  0  0  0  0  0  0  0  0  0
   35.9100   23.1590   32.1470 O   0  0  0  0  0  0  0  0  0  0  0  0
   37.5570   24.1430   30.3860 O   0  0  0  0  0  0  0  0  0  0  0  0
   36.4610   24.5240   31.3330 P   0  0  1  0  0  0  0  0  0  0  0  0
   35.1740   25.1980   30.4040 O   0  0  0  0  0  0  0  0  0  0  0  0
   35.1690   24.6600   29.5550 H   0  0  0  0  0  0  0  0  0  0  0  0
   37.0020   25.6880   32.4440 O   0  0  0  0  0  0  0  0  0  0  0  0
   38.0790   26.3380   31.8660 C   0  0  0  0  0  0  0  0  0  0  0  0
   37.7030   27.3770   31.6360 H   0  0  0  0  0  0  0  0  0  0  0  0
   38.3980   25.8610   30.9340 H   0  0  0  0  0  0  0  0  0  0  0  0
   39.2360   26.4890   32.7770 C   0  0  0  0  0  0  0  0  0  0  0  0
   39.1630   25.8450   33.9890 C   0  0  0  0  0  0  0  0  0  0  0  0
   40.2280   25.9530   34.8880 C   0  0  0  0  0  0  0  0  0  0  0  0
   41.2930   26.7070   34.4980 N   0  0  0  0  0  0  0  0  0  0  0  0
   41.3400   27.3290   33.3040 C   0  0  0  0  0  0  0  0  0  0  0  0
   40.3070   27.2250   32.4310 N   0  0  0  0  0  0  0  0  0  0  0  0
   38.3760   25.2390   34.3730 H   0  0  0  0  0  0  0  0  0  0  0  0
   40.2550   25.4810   35.8580 H   0  0  0  0  0  0  0  0  0  0  0  0
   42.2340   27.8840   33.1310 H   0  0  0  0  0  0  0  0  0  0  0  0
   37.5750   22.2680   33.8590 O   0  0  0  0  0  0  0  0  0  0  0  0
   38.8260   22.2280   34.4540 C   0  0  0  0  0  0  0  0  0  0  0  0
   40.0080   21.8750   33.8380 C   0  0  0  0  0  0  0  0  0  0  0  0
   39.9520   21.6040   32.7970 H   0  0  0  0  0  0  0  0  0  0  0  0
   41.2130   21.8650   34.5110 C   0  0  0  0  0  3  0  0  0  0  0  0
   41.1880   22.2290   35.8510 C   0  0  0  0  0  3  0  0  0  0  0  0
   40.0160   22.5880   36.4980 C   0  0  0  0  0  0  0  0  0  0  0  0
   40.0560   22.9450   37.8500 C   0  0  0  0  0  3  0  0  0  0  0  0
   38.8840   23.3010   38.4840 C   0  0  0  0  0  3  0  0  0  0  0  0
   37.6790   23.3120   37.8090 C   0  0  0  0  0  3  0  0  0  0  0  0
   37.6570   22.9570   36.4750 C   0  0  0  0  0  3  0  0  0  0  0  0
   38.8090   22.5900   35.7910 C   0  0  0  0  0  0  0  0  0  0  0  0
  1  6  1  6  0  0  0
  1  5  1  0  0  0  0
  1 30  1  0  0  0  0
  2  7  1  6  0  0  0
  2 12  1  0  0  0  0
  2  1  1  0  0  0  0
  3  2  1  0  0  0  0
  3  4  1  0  0  0  0
  4  5  1  0  0  0  0
  5 11  1  0  0  0  0
  5 10  1  0  0  0  0
  8  3  1  0  0  0  0
  9  3  1  0  0  0  0
 14 13  2  6  0  0  0
 14 12  1  0  0  0  0
 14 17  1  0  0  0  0
 15 14  1  0  0  0  0
 16 15  1  0  0  0  0
 18 17  1  0  0  0  0
 18 21  1  0  0  0  0
 19 18  1  0  0  0  0
 20 18  1  0  0  0  0
 21 22  1  0  0  0  0
 22 27  1  0  0  0  0
 22 23  2  0  0  0  0
 23 28  1  0  0  0  0
 24 23  1  0  0  0  0
 25 24  2  0  0  0  0
 26 21  2  0  0  0  0
 26 25  1  0  0  0  0
 29 25  1  0  0  0  0
 30 31  1  0  0  0  0
 31 41  1  0  0  0  0
 32 31  2  0  0  0  0
 32 34  1  0  0  0  0
 33 32  1  0  0  0  0
 34 35  2  0  0  0  0
 35 36  1  0  0  0  0
 36 37  1  0  0  0  0
 37 38  2  0  0  0  0
 39 38  1  0  0  0  0
 40 39  2  0  0  0  0
 41 40  1  0  0  0  0
 41 36  2  0  0  0  0
M  END
>  <minimizedAffinity>
-5.72462034

$$$$

 OpenBabel03272504243D

 41 44  0  0  1  0  0  0  0  0999 V2000
   37.6170   26.8310   33.6530 C   0  0  2  0  0  0  0  0  0  0  0  0
   37.8050   25.5700   32.8200 C   0  0  1  0  0  0  0  0  0  0  0  0
   38.6810   24.7910   33.8020 C   0  0  0  0  0  0  0  0  0  0  0  0
   37.9490   24.8980   34.9600 O   0  0  0  0  0  0  0  0  0  0  0  0
   37.4400   26.1800   35.0330 C   0  0  0  0  0  0  0  0  0  0  0  0
   38.5370   27.4290   33.6960 H   0  0  0  0  0  0  0  0  0  0  0  0
   38.3120   25.7470   31.8700 H   0  0  0  0  0  0  0  0  0  0  0  0
   38.7220   23.7310   33.4890 H   0  0  0  0  0  0  0  0  0  0  0  0
   39.6830   25.2400   33.8250 H   0  0  0  0  0  0  0  0  0  0  0  0
   36.3760   26.1860   35.3480 H   0  0  0  0  0  0  0  0  0  0  0  0
   38.0040   26.7310   35.8130 H   0  0  0  0  0  0  0  0  0  0  0  0
   36.5780   24.9590   32.7190 O   0  0  0  0  0  0  0  0  0  0  0  0
   35.0720   25.5440   30.6770 O   0  0  0  0  0  0  0  0  0  0  0  0
   36.1530   24.6120   31.1300 P   0  0  1  0  0  0  0  0  0  0  0  0
   37.5180   24.8510   30.1040 O   0  0  0  0  0  0  0  0  0  0  0  0
   37.5210   25.8380   29.9160 H   0  0  0  0  0  0  0  0  0  0  0  0
   35.6470   22.9960   31.0010 O   0  0  0  0  0  0  0  0  0  0  0  0
   36.0690   22.3410   32.1440 C   0  0  0  0  0  0  0  0  0  0  0  0
   35.3410   22.6580   32.9480 H   0  0  0  0  0  0  0  0  0  0  0  0
   37.0790   22.6380   32.4430 H   0  0  0  0  0  0  0  0  0  0  0  0
   35.9860   20.8660   32.0450 C   0  0  0  0  0  0  0  0  0  0  0  0
   36.4500   20.2930   30.8850 C   0  0  0  0  0  0  0  0  0  0  0  0
   36.3970   18.9040   30.7370 C   0  0  0  0  0  0  0  0  0  0  0  0
   35.8770   18.1910   31.7750 N   0  0  0  0  0  0  0  0  0  0  0  0
   35.4280   18.7770   32.9010 C   0  0  0  0  0  0  0  0  0  0  0  0
   35.4790   20.1250   33.0450 N   0  0  0  0  0  0  0  0  0  0  0  0
   36.8700   20.7700   30.0300 H   0  0  0  0  0  0  0  0  0  0  0  0
   36.7380   18.3730   29.8630 H   0  0  0  0  0  0  0  0  0  0  0  0
   35.0470   18.0980   33.6300 H   0  0  0  0  0  0  0  0  0  0  0  0
   36.4730   27.4570   33.2180 O   0  0  0  0  0  0  0  0  0  0  0  0
   36.4090   28.5870   32.4190 C   0  0  0  0  0  0  0  0  0  0  0  0
   36.7320   28.6540   31.0800 C   0  0  0  0  0  0  0  0  0  0  0  0
   37.0670   27.7430   30.6140 H   0  0  0  0  0  0  0  0  0  0  0  0
   36.6370   29.8280   30.3600 C   0  0  0  0  0  3  0  0  0  0  0  0
   36.1970   30.9520   31.0440 C   0  0  0  0  0  3  0  0  0  0  0  0
   35.8640   30.9160   32.3900 C   0  0  0  0  0  0  0  0  0  0  0  0
   35.4270   32.0830   33.0230 C   0  0  0  0  0  3  0  0  0  0  0  0
   35.0980   32.0370   34.3630 C   0  0  0  0  0  3  0  0  0  0  0  0
   35.1940   30.8610   35.0820 C   0  0  0  0  0  3  0  0  0  0  0  0
   35.6270   29.7180   34.4420 C   0  0  0  0  0  3  0  0  0  0  0  0
   35.9700   29.7130   33.0960 C   0  0  0  0  0  0  0  0  0  0  0  0
  1  6  1  6  0  0  0
  1  5  1  0  0  0  0
  2  7  1  6  0  0  0
  2  1  1  0  0  0  0
  2  3  1  0  0  0  0
  3  9  1  0  0  0  0
  3  4  1  0  0  0  0
  4  5  1  0  0  0  0
  5 10  1  0  0  0  0
  5 11  1  0  0  0  0
  8  3  1  0  0  0  0
 12  2  1  0  0  0  0
 14 13  2  6  0  0  0
 14 12  1  0  0  0  0
 15 14  1  0  0  0  0
 16 15  1  0  0  0  0
 17 14  1  0  0  0  0
 17 18  1  0  0  0  0
 18 20  1  0  0  0  0
 18 19  1  0  0  0  0
 21 18  1  0  0  0  0
 21 26  1  0  0  0  0
 22 21  2  0  0  0  0
 23 22  1  0  0  0  0
 23 24  2  0  0  0  0
 24 25  1  0  0  0  0
 25 26  2  0  0  0  0
 25 29  1  0  0  0  0
 27 22  1  0  0  0  0
 28 23  1  0  0  0  0
 30  1  1  0  0  0  0
 31 41  1  0  0  0  0
 31 30  1  0  0  0  0
 32 31  2  0  0  0  0
 33 32  1  0  0  0  0
 34 35  2  0  0  0  0
 34 32  1  0  0  0  0
 35 36  1  0  0  0  0
 36 37  2  0  0  0  0
 36 41  1  0  0  0  0
 37 38  1  0  0  0  0
 38 39  2  0  0  0  0
 40 39  1  0  0  0  0
 41 40  2  0  0  0  0
M  END
>  <minimizedAffinity>
-5.71135473

$$$$

 OpenBabel03272504243D

 41 44  0  0  1  0  0  0  0  0999 V2000
   37.0960   21.4000   33.0410 C   0  0  2  0  0  0  0  0  0  0  0  0
   36.9700   22.2900   31.8120 C   0  0  1  0  0  0  0  0  0  0  0  0
   35.9700   21.4370   31.0300 C   0  0  0  0  0  0  0  0  0  0  0  0
   35.0000   21.2210   31.9800 O   0  0  0  0  0  0  0  0  0  0  0  0
   35.6240   20.9900   33.1900 C   0  0  0  0  0  0  0  0  0  0  0  0
   37.6640   20.4850   32.8230 H   0  0  0  0  0  0  0  0  0  0  0  0
   37.9090   22.4200   31.2700 H   0  0  0  0  0  0  0  0  0  0  0  0
   35.5480   22.0400   30.2030 H   0  0  0  0  0  0  0  0  0  0  0  0
   36.4790   20.5410   30.6520 H   0  0  0  0  0  0  0  0  0  0  0  0
   35.1340   21.5390   34.0200 H   0  0  0  0  0  0  0  0  0  0  0  0
   35.5290   19.9100   33.4260 H   0  0  0  0  0  0  0  0  0  0  0  0
   36.3620   23.4560   32.2120 O   0  0  0  0  0  0  0  0  0  0  0  0
   38.5350   24.8630   32.5030 O   0  0  0  0  0  0  0  0  0  0  0  0
   37.2300   24.8270   31.7680 P   0  0  1  0  0  0  0  0  0  0  0  0
   37.5780   24.7670   30.0810 O   0  0  0  0  0  0  0  0  0  0  0  0
   38.4000   24.1920   30.0140 H   0  0  0  0  0  0  0  0  0  0  0  0
   36.3200   26.2240   32.0900 O   0  0  0  0  0  0  0  0  0  0  0  0
   36.0000   26.7950   30.8710 C   0  0  0  0  0  0  0  0  0  0  0  0
   34.8790   26.6900   30.7830 H   0  0  0  0  0  0  0  0  0  0  0  0
   36.4720   26.2730   30.0330 H   0  0  0  0  0  0  0  0  0  0  0  0
   36.3040   28.2430   30.7990 C   0  0  0  0  0  0  0  0  0  0  0  0
   35.9390   29.0100   31.8800 C   0  0  0  0  0  0  0  0  0  0  0  0
   36.2030   30.3820   31.8670 C   0  0  0  0  0  0  0  0  0  0  0  0
   36.8170   30.8830   30.7590 N   0  0  0  0  0  0  0  0  0  0  0  0
   37.1650   30.1100   29.7130 C   0  0  0  0  0  0  0  0  0  0  0  0
   36.9090   28.7780   29.7250 N   0  0  0  0  0  0  0  0  0  0  0  0
   35.4590   28.7040   32.7800 H   0  0  0  0  0  0  0  0  0  0  0  0
   35.9510   31.0570   32.6690 H   0  0  0  0  0  0  0  0  0  0  0  0
   37.6380   30.6350   28.9150 H   0  0  0  0  0  0  0  0  0  0  0  0
   37.5310   22.1820   34.0850 O   0  0  0  0  0  0  0  0  0  0  0  0
   38.7940   22.1630   34.6550 C   0  0  0  0  0  0  0  0  0  0  0  0
   39.9640   21.7990   34.0240 C   0  0  0  0  0  0  0  0  0  0  0  0
   39.8880   21.5010   32.9920 H   0  0  0  0  0  0  0  0  0  0  0  0
   41.1830   21.8110   34.6720 C   0  0  0  0  0  3  0  0  0  0  0  0
   41.1840   22.2100   36.0020 C   0  0  0  0  0  3  0  0  0  0  0  0
   40.0230   22.5820   36.6640 C   0  0  0  0  0  0  0  0  0  0  0  0
   40.0900   22.9740   38.0040 C   0  0  0  0  0  3  0  0  0  0  0  0
   38.9290   23.3420   38.6540 C   0  0  0  0  0  3  0  0  0  0  0  0
   37.7110   23.3300   38.0030 C   0  0  0  0  0  3  0  0  0  0  0  0
   37.6630   22.9400   36.6790 C   0  0  0  0  0  3  0  0  0  0  0  0
   38.8020   22.5600   35.9820 C   0  0  0  0  0  0  0  0  0  0  0  0
  1  6  1  6  0  0  0
  1  5  1  0  0  0  0
  1 30  1  0  0  0  0
  2  7  1  6  0  0  0
  2 12  1  0  0  0  0
  2  1  1  0  0  0  0
  3  2  1  0  0  0  0
  3  4  1  0  0  0  0
  4  5  1  0  0  0  0
  5 11  1  0  0  0  0
  5 10  1  0  0  0  0
  8  3  1  0  0  0  0
  9  3  1  0  0  0  0
 14 17  1  0  0  0  0
 14 12  1  0  0  0  0
 14 13  2  1  0  0  0
 15 14  1  0  0  0  0
 16 15  1  0  0  0  0
 18 17  1  0  0  0  0
 19 18  1  0  0  0  0
 20 18  1  0  0  0  0
 21 18  1  0  0  0  0
 21 22  1  0  0  0  0
 22 27  1  0  0  0  0
 23 22  2  0  0  0  0
 23 28  1  0  0  0  0
 24 23  1  0  0  0  0
 25 26  1  0  0  0  0
 25 24  2  0  0  0  0
 26 21  2  0  0  0  0
 29 25  1  0  0  0  0
 30 31  1  0  0  0  0
 31 41  1  0  0  0  0
 32 31  2  0  0  0  0
 32 34  1  0  0  0  0
 33 32  1  0  0  0  0
 34 35  2  0  0  0  0
 35 36  1  0  0  0  0
 36 37  1  0  0  0  0
 37 38  2  0  0  0  0
 39 38  1  0  0  0  0
 40 39  2  0  0  0  0
 41 36  2  0  0  0  0
 41 40  1  0  0  0  0
M  END
>  <minimizedAffinity>
-5.67516279

$$$$

 OpenBabel03272504243D

 41 44  0  0  1  0  0  0  0  0999 V2000
   37.6270   21.8270   33.5750 C   0  0  2  0  0  0  0  0  0  0  0  0
   37.2610   22.2750   32.1670 C   0  0  1  0  0  0  0  0  0  0  0  0
   36.3720   21.0900   31.7880 C   0  0  0  0  0  0  0  0  0  0  0  0
   35.5240   21.0320   32.8680 O   0  0  0  0  0  0  0  0  0  0  0  0
   36.2630   21.2710   34.0110 C   0  0  0  0  0  0  0  0  0  0  0  0
   38.3290   20.9820   33.5620 H   0  0  0  0  0  0  0  0  0  0  0  0
   38.1220   22.3700   31.5030 H   0  0  0  0  0  0  0  0  0  0  0  0
   35.7940   21.3460   30.8790 H   0  0  0  0  0  0  0  0  0  0  0  0
   37.0020   20.2050   31.6240 H   0  0  0  0  0  0  0  0  0  0  0  0
   35.7450   21.9680   34.7010 H   0  0  0  0  0  0  0  0  0  0  0  0
   36.3750   20.3110   34.5550 H   0  0  0  0  0  0  0  0  0  0  0  0
   36.4890   23.4060   32.2850 O   0  0  0  0  0  0  0  0  0  0  0  0
   37.8480   24.0600   30.1620 O   0  0  0  0  0  0  0  0  0  0  0  0
   36.9520   24.6230   31.2210 P   0  0  1  0  0  0  0  0  0  0  0  0
   35.5560   25.2680   30.4420 O   0  0  0  0  0  0  0  0  0  0  0  0
   35.3780   24.6350   29.6810 H   0  0  0  0  0  0  0  0  0  0  0  0
   37.7320   25.8720   32.0680 O   0  0  0  0  0  0  0  0  0  0  0  0
   37.5950   27.0260   31.3160 C   0  0  0  0  0  0  0  0  0  0  0  0
   36.9360   26.7320   30.4470 H   0  0  0  0  0  0  0  0  0  0  0  0
   38.5540   27.3840   30.9290 H   0  0  0  0  0  0  0  0  0  0  0  0
   36.9000   28.1190   32.0330 C   0  0  0  0  0  0  0  0  0  0  0  0
   36.5720   27.8910   33.3490 C   0  0  0  0  0  0  0  0  0  0  0  0
   35.9160   28.8890   34.0750 C   0  0  0  0  0  0  0  0  0  0  0  0
   35.6360   30.0490   33.4170 N   0  0  0  0  0  0  0  0  0  0  0  0
   35.9670   30.2470   32.1270 C   0  0  0  0  0  0  0  0  0  0  0  0
   36.6040   29.2790   31.4220 N   0  0  0  0  0  0  0  0  0  0  0  0
   36.7520   27.0210   33.9370 H   0  0  0  0  0  0  0  0  0  0  0  0
   35.6230   28.7950   35.1080 H   0  0  0  0  0  0  0  0  0  0  0  0
   35.6870   31.2010   31.7420 H   0  0  0  0  0  0  0  0  0  0  0  0
   37.9910   22.9420   34.2910 O   0  0  0  0  0  0  0  0  0  0  0  0
   38.3660   22.9760   35.6250 C   0  0  0  0  0  0  0  0  0  0  0  0
   37.5830   23.3980   36.6780 C   0  0  0  0  0  0  0  0  0  0  0  0
   36.5880   23.7320   36.4410 H   0  0  0  0  0  0  0  0  0  0  0  0
   38.0420   23.3960   37.9810 C   0  0  0  0  0  3  0  0  0  0  0  0
   39.3380   22.9470   38.1910 C   0  0  0  0  0  3  0  0  0  0  0  0
   40.1500   22.5170   37.1520 C   0  0  0  0  0  0  0  0  0  0  0  0
   41.4480   22.0770   37.4280 C   0  0  0  0  0  3  0  0  0  0  0  0
   42.2470   21.6510   36.3880 C   0  0  0  0  0  3  0  0  0  0  0  0
   41.7870   21.6520   35.0850 C   0  0  0  0  0  3  0  0  0  0  0  0
   40.5030   22.0900   34.8290 C   0  0  0  0  0  3  0  0  0  0  0  0
   39.6600   22.5290   35.8420 C   0  0  0  0  0  0  0  0  0  0  0  0
  1  6  1  1  0  0  0
  1  5  1  0  0  0  0
  1 30  1  0  0  0  0
  2  7  1  6  0  0  0
  2 12  1  0  0  0  0
  2  1  1  0  0  0  0
  3  2  1  0  0  0  0
  3  4  1  0  0  0  0
  4  5  1  0  0  0  0
  5 11  1  0  0  0  0
  5 10  1  0  0  0  0
  8  3  1  0  0  0  0
  9  3  1  0  0  0  0
 14 13  2  6  0  0  0
 14 17  1  0  0  0  0
 14 12  1  0  0  0  0
 15 14  1  0  0  0  0
 16 15  1  0  0  0  0
 18 21  1  0  0  0  0
 18 17  1  0  0  0  0
 19 18  1  0  0  0  0
 20 18  1  0  0  0  0
 21 22  1  0  0  0  0
 22 27  1  0  0  0  0
 22 23  2  0  0  0  0
 23 28  1  0  0  0  0
 24 23  1  0  0  0  0
 25 24  2  0  0  0  0
 26 21  2  0  0  0  0
 26 25  1  0  0  0  0
 29 25  1  0  0  0  0
 30 31  1  0  0  0  0
 31 41  2  0  0  0  0
 31 32  1  0  0  0  0
 32 34  2  0  0  0  0
 33 32  1  0  0  0  0
 34 35  1  0  0  0  0
 36 37  1  0  0  0  0
 36 35  2  0  0  0  0
 38 37  2  0  0  0  0
 39 38  1  0  0  0  0
 40 39  2  0  0  0  0
 40 41  1  0  0  0  0
 41 36  1  0  0  0  0
M  END
>  <minimizedAffinity>
-5.63694143

$$$$

 OpenBabel03272504243D

 41 44  0  0  1  0  0  0  0  0999 V2000
   39.3860   26.0150   29.8000 C   0  0  2  0  0  0  0  0  0  0  0  0
   38.8450   24.6220   30.0920 C   0  0  1  0  0  0  0  0  0  0  0  0
   39.4310   23.9030   28.8750 C   0  0  0  0  0  0  0  0  0  0  0  0
   40.7480   24.2940   28.9400 O   0  0  0  0  0  0  0  0  0  0  0  0
   40.7860   25.6270   29.3010 C   0  0  0  0  0  0  0  0  0  0  0  0
   38.8630   26.4840   28.9560 H   0  0  0  0  0  0  0  0  0  0  0  0
   37.7550   24.5730   30.1090 H   0  0  0  0  0  0  0  0  0  0  0  0
   39.3630   22.8100   29.0320 H   0  0  0  0  0  0  0  0  0  0  0  0
   38.8830   24.2130   27.9750 H   0  0  0  0  0  0  0  0  0  0  0  0
   41.5580   25.8250   30.0730 H   0  0  0  0  0  0  0  0  0  0  0  0
   41.0720   26.2170   28.4070 H   0  0  0  0  0  0  0  0  0  0  0  0
   39.4660   24.1710   31.2320 O   0  0  0  0  0  0  0  0  0  0  0  0
   37.0630   23.8010   32.1650 O   0  0  0  0  0  0  0  0  0  0  0  0
   38.4520   23.2440   32.2020 P   0  0  1  0  0  0  0  0  0  0  0  0
   38.3890   21.6320   31.5920 O   0  0  0  0  0  0  0  0  0  0  0  0
   37.7010   21.6680   30.8600 H   0  0  0  0  0  0  0  0  0  0  0  0
   39.0430   23.2040   33.7930 O   0  0  0  0  0  0  0  0  0  0  0  0
   37.9720   23.4450   34.6350 C   0  0  0  0  0  0  0  0  0  0  0  0
   37.2660   22.5800   34.4660 H   0  0  0  0  0  0  0  0  0  0  0  0
   37.4540   24.3780   34.3890 H   0  0  0  0  0  0  0  0  0  0  0  0
   38.3330   23.4320   36.0710 C   0  0  0  0  0  0  0  0  0  0  0  0
   39.5100   22.8080   36.4100 C   0  0  0  0  0  0  0  0  0  0  0  0
   39.9020   22.7660   37.7510 C   0  0  0  0  0  0  0  0  0  0  0  0
   39.0730   23.3580   38.6560 N   0  0  0  0  0  0  0  0  0  0  0  0
   37.9250   23.9630   38.2970 C   0  0  0  0  0  0  0  0  0  0  0  0
   37.5440   24.0040   36.9960 N   0  0  0  0  0  0  0  0  0  0  0  0
   40.2130   22.3230   35.7730 H   0  0  0  0  0  0  0  0  0  0  0  0
   40.8070   22.2990   38.1060 H   0  0  0  0  0  0  0  0  0  0  0  0
   37.3760   24.3840   39.1090 H   0  0  0  0  0  0  0  0  0  0  0  0
   39.4260   26.7080   30.9860 O   0  0  0  0  0  0  0  0  0  0  0  0
   38.3350   27.1900   31.6930 C   0  0  0  0  0  0  0  0  0  0  0  0
   37.1570   27.6540   31.1490 C   0  0  0  0  0  0  0  0  0  0  0  0
   37.0780   27.6410   30.0750 H   0  0  0  0  0  0  0  0  0  0  0  0
   36.1190   28.1170   31.9330 C   0  0  0  0  0  3  0  0  0  0  0  0
   36.3110   28.0960   33.3080 C   0  0  0  0  0  3  0  0  0  0  0  0
   37.4850   27.6360   33.8840 C   0  0  0  0  0  0  0  0  0  0  0  0
   37.6180   27.6410   35.2760 C   0  0  0  0  0  3  0  0  0  0  0  0
   38.7910   27.1800   35.8390 C   0  0  0  0  0  3  0  0  0  0  0  0
   39.8280   26.7160   35.0530 C   0  0  0  0  0  3  0  0  0  0  0  0
   39.6800   26.7180   33.6800 C   0  0  0  0  0  3  0  0  0  0  0  0
   38.5200   27.1720   33.0660 C   0  0  0  0  0  0  0  0  0  0  0  0
  1  6  1  6  0  0  0
  1  2  1  0  0  0  0
  1 30  1  0  0  0  0
  2  7  1  1  0  0  0
  2 12  1  0  0  0  0
  3  4  1  0  0  0  0
  3  8  1  0  0  0  0
  3  2  1  0  0  0  0
  4  5  1  0  0  0  0
  5  1  1  0  0  0  0
  5 10  1  0  0  0  0
  9  3  1  0  0  0  0
 11  5  1  0  0  0  0
 12 14  1  0  0  0  0
 14 13  2  6  0  0  0
 14 17  1  0  0  0  0
 15 14  1  0  0  0  0
 16 15  1  0  0  0  0
 17 18  1  0  0  0  0
 18 21  1  0  0  0  0
 19 18  1  0  0  0  0
 20 18  1  0  0  0  0
 21 22  2  0  0  0  0
 21 26  1  0  0  0  0
 22 23  1  0  0  0  0
 23 28  1  0  0  0  0
 23 24  2  0  0  0  0
 25 24  1  0  0  0  0
 25 29  1  0  0  0  0
 26 25  2  0  0  0  0
 27 22  1  0  0  0  0
 30 31  1  0  0  0  0
 31 41  1  0  0  0  0
 32 31  2  0  0  0  0
 32 34  1  0  0  0  0
 33 32  1  0  0  0  0
 34 35  2  0  0  0  0
 35 36  1  0  0  0  0
 36 37  1  0  0  0  0
 37 38  2  0  0  0  0
 39 38  1  0  0  0  0
 40 39  2  0  0  0  0
 41 40  1  0  0  0  0
 41 36  2  0  0  0  0
M  END
>  <minimizedAffinity>
-5.58361006

$$$$
