
     RDKit          3D

 28 30  0  0  0  0  0  0  0  0999 V2000
   37.8417   30.7741   50.5750 C   0  0  0  0  0  0  0  0  0  0  0  0
   37.5447   31.5675   49.4259 C   0  0  0  0  0  0  0  0  0  0  0  0
   36.6859   31.0346   48.4721 C   0  0  0  0  0  0  0  0  0  0  0  0
   36.1775   29.8022   48.6760 N   0  0  0  0  0  0  0  0  0  0  0  0
   36.4693   29.0731   49.7628 C   0  0  0  0  0  0  0  0  0  0  0  0
   37.2906   29.5318   50.7175 N   0  0  0  0  0  0  0  0  0  0  0  0
   38.1888   32.9034   49.3566 C   0  0  0  0  0  0  0  0  0  0  0  0
   38.9566   33.0444   48.3812 O   0  0  0  0  0  0  0  0  0  0  0  0
   38.4993   31.1107   51.3652 H   0  0  0  0  0  0  0  0  0  0  0  0
   36.4866   31.6570   47.6256 H   0  0  0  0  0  0  0  0  0  0  0  0
   36.0731   28.0830   49.9463 H   0  0  0  0  0  0  0  0  0  0  0  0
   37.8277   33.8391   50.4316 C   0  0  0  0  0  0  0  0  0  0  0  0
   36.4792   34.1470   50.5149 C   0  0  0  0  0  0  0  0  0  0  0  0
   35.6660   33.7781   49.8810 H   0  0  0  0  0  0  0  0  0  0  0  0
   36.0209   35.0256   51.4981 C   0  0  0  0  0  0  0  0  0  0  0  0
   36.9262   35.5885   52.3915 C   0  0  0  0  0  0  0  0  0  0  0  0
   38.2669   35.2768   52.3020 C   0  0  0  0  0  0  0  0  0  0  0  0
   39.2265   35.8037   53.1629 C   0  0  0  0  0  0  0  0  0  0  0  0
   40.5710   35.4590   53.0334 C   0  0  0  0  0  0  0  0  0  0  0  0
   40.9993   34.5885   52.0536 C   0  0  0  0  0  0  0  0  0  0  0  0
   40.0406   34.0661   51.1983 C   0  0  0  0  0  0  0  0  0  0  0  0
   38.7105   34.4072   51.3266 C   0  0  0  0  0  0  0  0  0  0  0  0
   35.0009   35.3203   51.6373 H   0  0  0  0  0  0  0  0  0  0  0  0
   36.6952   36.2784   53.1918 H   0  0  0  0  0  0  0  0  0  0  0  0
   38.9113   36.4935   53.9446 H   0  0  0  0  0  0  0  0  0  0  0  0
   41.3244   35.8671   53.7025 H   0  0  0  0  0  0  0  0  0  0  0  0
   42.0396   34.3184   51.9490 H   0  0  0  0  0  0  0  0  0  0  0  0
   40.3831   33.3948   50.4456 H   0  0  0  0  0  0  0  0  0  0  0  0
  1  6  2  0
  2  1  1  0
  3  4  1  0
  3  2  2  0
  4  5  2  0
  5  6  1  0
  7  2  1  0
  8  7  2  0
  1  9  1  0
  3 10  1  0
  5 11  1  0
 12 13  2  0
 13 14  1  0
 13 15  1  0
 15 16  2  0
 16 17  1  0
 17 18  2  0
 18 19  1  0
 19 20  2  0
 20 21  1  0
 21 22  2  0
 22 12  1  0
 22 17  1  0
 15 23  1  0
 16 24  1  0
 18 25  1  0
 19 26  1  0
 20 27  1  0
 21 28  1  0
  7 12  1  0
M  ISO  4   9  14  10  14  11  14  14  15
M  END
>  <DihAtoms>  (1) 
1,6,11,12

>  <DihDeg>  (1) 
-44.99696984602744

$$$$
