REMARK  Name = 
REMARK  2 active torsions:
REMARK  status: ('A' for Active; 'I' for Inactive)
REMARK    1  A    between atoms: C_3  and  C_7
REMARK    2  A    between atoms: C_7  and  C_12
REMARK                            x       y       z     vdW  Elec       q    Type
REMARK                         _______ _______ _______ _____ _____    ______ ____
ROOT
ATOM      1  C   UNL     1      38.256  30.900  47.800  0.00  0.00    +0.000 C 
ATOM      2  O   UNL     1      38.981  31.937  47.812  0.00  0.00    +0.000 OA
ENDROOT
BRANCH   1   3
ATOM      3  C   UNL     1      38.018  30.098  46.580  0.00  0.00    +0.000 A 
ATOM      4  C   UNL     1      39.095  29.307  46.159  0.00  0.00    +0.000 A 
ATOM      5  H   UNL     1      40.034  29.310  46.733  0.00  0.00    +0.000 HD
ATOM      6  C   UNL     1      39.090  28.499  45.059  0.00  0.00    +0.000 A 
ATOM      7  C   UNL     1      37.947  28.451  44.300  0.00  0.00    +0.000 A 
ATOM      8  C   UNL     1      36.873  29.221  44.694  0.00  0.00    +0.000 A 
ATOM      9  C   UNL     1      35.667  29.239  43.990  0.00  0.00    +0.000 A 
ATOM     10  C   UNL     1      34.588  30.006  44.380  0.00  0.00    +0.000 A 
ATOM     11  C   UNL     1      34.672  30.802  45.512  0.00  0.00    +0.000 A 
ATOM     12  C   UNL     1      35.845  30.816  46.239  0.00  0.00    +0.000 A 
ATOM     13  C   UNL     1      36.890  30.032  45.806  0.00  0.00    +0.000 A 
ENDBRANCH   1   3
BRANCH   1  16
ATOM     14  C   UNL     1      37.359  30.226  51.367  0.00  0.00    +0.000 A 
ATOM     15  C   UNL     1      38.056  30.748  50.254  0.00  0.00    +0.000 A 
ATOM     16  C   UNL     1      37.584  30.398  48.997  0.00  0.00    +0.000 A 
ATOM     17  N   UNL     1      36.489  29.579  48.919  0.00  0.00    +0.000 NA
ATOM     18  C   UNL     1      35.857  29.105  49.993  0.00  0.00    +0.000 A 
ATOM     19  N   UNL     1      36.277  29.418  51.219  0.00  0.00    +0.000 NA
ATOM     20  H   UNL     1      37.730  30.503  52.331  0.00  0.00    +0.000 HD
ATOM     21  H   UNL     1      38.903  31.382  50.333  0.00  0.00    +0.000 HD
ATOM     22  H   UNL     1      34.995  28.461  49.946  0.00  0.00    +0.000 HD
ENDBRANCH   1  16
TORSDOF 2
