
 OpenBabel03272508523D

 31 34  0  0  1  0  0  0  0  0999 V2000
   38.1860   26.6550   32.2110 C   0  0  2  0  0  0  0  0  0  0  0  0
   38.2440   25.5310   31.2870 C   0  0  0  0  0  0  0  0  0  0  0  0
   37.3960   25.4840   32.5710 C   0  0  1  0  0  0  0  0  0  0  0  0
   39.0420   26.8450   32.9260 H   0  0  0  0  0  0  0  0  0  0  0  0
   39.1490   24.8950   31.3130 H   0  0  0  0  0  0  0  0  0  0  0  0
   37.7030   25.5930   30.3110 H   0  0  0  0  0  0  0  0  0  0  0  0
   36.3420   25.2970   32.3150 H   0  0  0  0  0  0  0  0  0  0  0  0
   35.9530   29.6050   32.4790 C   0  0  0  0  0  0  0  0  0  0  0  0
   36.2110   30.2710   31.2520 C   0  0  0  0  0  0  0  0  0  0  0  0
   37.1590   29.6980   30.3380 C   0  0  0  0  0  0  0  0  0  0  0  0
   37.7540   28.5340   30.7160 N   0  0  0  0  0  0  0  0  0  0  0  0
   37.4760   27.9340   31.9000 C   0  0  0  0  0  0  0  0  0  0  0  0
   36.5920   28.4460   32.7810 N   0  0  0  0  0  0  0  0  0  0  0  0
   35.2280   30.0850   33.1280 H   0  0  0  0  0  0  0  0  0  0  0  0
   35.7000   31.2050   31.0040 H   0  0  0  0  0  0  0  0  0  0  0  0
   37.3280   30.2230   29.4310 H   0  0  0  0  0  0  0  0  0  0  0  0
   37.8650   25.0210   34.9510 C   0  0  0  0  0  0  0  0  0  0  0  0
   37.2760   26.0960   35.2460 O   0  0  0  0  0  0  0  0  0  0  0  0
   37.9510   24.5940   33.5980 N   0  0  0  0  0  0  0  0  0  0  0  0
   38.4160   23.6540   33.4540 H   0  0  0  0  0  0  0  0  0  0  0  0
   38.3990   24.3440   36.1250 C   0  0  0  0  0  0  0  0  0  0  0  0
   37.6740   24.6500   37.2820 C   0  0  0  0  0  0  0  0  0  0  0  0
   36.8200   25.3060   37.3250 H   0  0  0  0  0  0  0  0  0  0  0  0
   38.0160   24.1100   38.5080 C   0  0  0  0  0  3  0  0  0  0  0  0
   39.0940   23.2430   38.6370 C   0  0  0  0  0  3  0  0  0  0  0  0
   39.8070   22.9480   37.4700 C   0  0  0  0  0  0  0  0  0  0  0  0
   40.8820   22.1040   37.5080 C   0  0  0  0  0  3  0  0  0  0  0  0
   41.5930   21.8100   36.3400 C   0  0  0  0  0  3  0  0  0  0  0  0
   41.2120   22.3780   35.1190 C   0  0  0  0  0  3  0  0  0  0  0  0
   40.1170   23.2420   35.0720 C   0  0  0  0  0  3  0  0  0  0  0  0
   39.4630   23.4870   36.2520 C   0  0  0  0  0  0  0  0  0  0  0  0
  1  3  1  0  0  0  0
  1  4  1  1  0  0  0
  2  5  1  0  0  0  0
  2  1  1  0  0  0  0
  2  3  1  0  0  0  0
  3  7  1  6  0  0  0
  3 19  1  0  0  0  0
  6  2  1  0  0  0  0
  8 13  1  0  0  0  0
  8 14  1  0  0  0  0
  9  8  2  0  0  0  0
 10 11  2  0  0  0  0
 10  9  1  0  0  0  0
 11 12  1  0  0  0  0
 12  1  1  0  0  0  0
 12 13  2  0  0  0  0
 15  9  1  0  0  0  0
 16 10  1  0  0  0  0
 17 18  2  0  0  0  0
 17 21  1  0  0  0  0
 19 17  1  0  0  0  0
 20 19  1  0  0  0  0
 21 31  2  0  0  0  0
 21 22  1  0  0  0  0
 22 23  1  0  0  0  0
 22 24  2  0  0  0  0
 24 25  1  0  0  0  0
 26 27  1  0  0  0  0
 26 25  2  0  0  0  0
 28 27  2  0  0  0  0
 29 28  1  0  0  0  0
 30 29  2  0  0  0  0
 30 31  1  0  0  0  0
 31 26  1  0  0  0  0
M  END
>  <minimizedAffinity>
-5.73387289

$$$$

 OpenBabel03272508523D

 31 34  0  0  1  0  0  0  0  0999 V2000
   35.8830   27.6100   31.1960 C   0  0  2  0  0  0  0  0  0  0  0  0
   36.5320   28.6620   30.4260 C   0  0  0  0  0  0  0  0  0  0  0  0
   36.6910   28.5590   31.9530 C   0  0  1  0  0  0  0  0  0  0  0  0
   34.7800   27.6820   31.4360 H   0  0  0  0  0  0  0  0  0  0  0  0
   35.9040   29.5080   30.0880 H   0  0  0  0  0  0  0  0  0  0  0  0
   37.4210   28.4140   29.7950 H   0  0  0  0  0  0  0  0  0  0  0  0
   37.7570   28.4580   32.2120 H   0  0  0  0  0  0  0  0  0  0  0  0
   37.9850   24.5640   30.9480 C   0  0  0  0  0  0  0  0  0  0  0  0
   37.0130   23.5360   31.0610 C   0  0  0  0  0  0  0  0  0  0  0  0
   35.6330   23.9010   31.2250 C   0  0  0  0  0  0  0  0  0  0  0  0
   35.3480   25.2310   31.2600 N   0  0  0  0  0  0  0  0  0  0  0  0
   36.3120   26.1780   31.1480 C   0  0  0  0  0  0  0  0  0  0  0  0
   37.6160   25.8690   30.9950 N   0  0  0  0  0  0  0  0  0  0  0  0
   39.0100   24.2270   30.8260 H   0  0  0  0  0  0  0  0  0  0  0  0
   37.3040   22.4830   31.0240 H   0  0  0  0  0  0  0  0  0  0  0  0
   34.9340   23.1070   31.3070 H   0  0  0  0  0  0  0  0  0  0  0  0
   35.7980   29.4380   34.0810 C   0  0  0  0  0  0  0  0  0  0  0  0
   36.2980   28.4410   34.6690 O   0  0  0  0  0  0  0  0  0  0  0  0
   35.9750   29.6130   32.6820 N   0  0  0  0  0  0  0  0  0  0  0  0
   35.5670   30.5060   32.2870 H   0  0  0  0  0  0  0  0  0  0  0  0
   35.0710   30.3100   34.9940 C   0  0  0  0  0  0  0  0  0  0  0  0
   35.9130   31.2420   35.6120 C   0  0  0  0  0  0  0  0  0  0  0  0
   36.9750   31.3240   35.4480 H   0  0  0  0  0  0  0  0  0  0  0  0
   35.4210   32.1650   36.5160 C   0  0  0  0  0  3  0  0  0  0  0  0
   34.0720   32.2010   36.8460 C   0  0  0  0  0  3  0  0  0  0  0  0
   33.2460   31.2630   36.2180 C   0  0  0  0  0  0  0  0  0  0  0  0
   31.9050   31.2290   36.4870 C   0  0  0  0  0  3  0  0  0  0  0  0
   31.0800   30.2910   35.8580 C   0  0  0  0  0  3  0  0  0  0  0  0
   31.6190   29.3740   34.9480 C   0  0  0  0  0  3  0  0  0  0  0  0
   32.9870   29.4010   34.6700 C   0  0  0  0  0  3  0  0  0  0  0  0
   33.7380   30.3460   35.3190 C   0  0  0  0  0  0  0  0  0  0  0  0
  1  4  1  1  0  0  0
  1  3  1  0  0  0  0
  2  1  1  0  0  0  0
  2  3  1  0  0  0  0
  3  7  1  1  0  0  0
  3 19  1  0  0  0  0
  5  2  1  0  0  0  0
  6  2  1  0  0  0  0
  8 13  2  0  0  0  0
  8  9  1  0  0  0  0
  9 10  2  0  0  0  0
 10 11  1  0  0  0  0
 10 16  1  0  0  0  0
 12  1  1  0  0  0  0
 12 11  2  0  0  0  0
 13 12  1  0  0  0  0
 14  8  1  0  0  0  0
 15  9  1  0  0  0  0
 17 18  2  0  0  0  0
 17 21  1  0  0  0  0
 19 17  1  0  0  0  0
 20 19  1  0  0  0  0
 21 31  2  0  0  0  0
 21 22  1  0  0  0  0
 22 24  2  0  0  0  0
 23 22  1  0  0  0  0
 24 25  1  0  0  0  0
 26 27  1  0  0  0  0
 26 25  2  0  0  0  0
 28 27  2  0  0  0  0
 29 28  1  0  0  0  0
 30 29  2  0  0  0  0
 30 31  1  0  0  0  0
 31 26  1  0  0  0  0
M  END
>  <minimizedAffinity>
-5.71775436

$$$$

 OpenBabel03272508523D

 31 34  0  0  1  0  0  0  0  0999 V2000
   38.1680   23.7390   34.5520 C   0  0  2  0  0  0  0  0  0  0  0  0
   38.8940   22.9830   33.5410 C   0  0  0  0  0  0  0  0  0  0  0  0
   39.0970   24.4980   33.7230 C   0  0  1  0  0  0  0  0  0  0  0  0
   37.0880   24.0260   34.3780 H   0  0  0  0  0  0  0  0  0  0  0  0
   38.3450   22.7030   32.6220 H   0  0  0  0  0  0  0  0  0  0  0  0
   39.7280   22.3080   33.8520 H   0  0  0  0  0  0  0  0  0  0  0  0
   40.1550   24.7080   33.9430 H   0  0  0  0  0  0  0  0  0  0  0  0
   37.8740   24.0700   38.2350 C   0  0  0  0  0  0  0  0  0  0  0  0
   39.0250   23.3660   38.6780 C   0  0  0  0  0  0  0  0  0  0  0  0
   39.8970   22.7780   37.7000 C   0  0  0  0  0  0  0  0  0  0  0  0
   39.5560   22.9400   36.3930 N   0  0  0  0  0  0  0  0  0  0  0  0
   38.4440   23.6200   36.0170 C   0  0  0  0  0  0  0  0  0  0  0  0
   37.6040   24.1840   36.9100 N   0  0  0  0  0  0  0  0  0  0  0  0
   37.2540   24.4920   39.0190 H   0  0  0  0  0  0  0  0  0  0  0  0
   39.2470   23.2710   39.7440 H   0  0  0  0  0  0  0  0  0  0  0  0
   40.7470   22.2590   38.0660 H   0  0  0  0  0  0  0  0  0  0  0  0
   38.6760   26.7060   32.6990 C   0  0  0  0  0  0  0  0  0  0  0  0
   39.3400   27.2320   33.6330 O   0  0  0  0  0  0  0  0  0  0  0  0
   38.5220   25.2940   32.6330 N   0  0  0  0  0  0  0  0  0  0  0  0
   37.9960   24.9410   31.7850 H   0  0  0  0  0  0  0  0  0  0  0  0
   38.1390   27.6960   31.7760 C   0  0  0  0  0  0  0  0  0  0  0  0
   38.9120   27.8010   30.6130 C   0  0  0  0  0  0  0  0  0  0  0  0
   39.8000   27.2300   30.4030 H   0  0  0  0  0  0  0  0  0  0  0  0
   38.5750   28.6860   29.6050 C   0  0  0  0  0  3  0  0  0  0  0  0
   37.4560   29.5040   29.7100 C   0  0  0  0  0  3  0  0  0  0  0  0
   36.6970   29.3840   30.8780 C   0  0  0  0  0  0  0  0  0  0  0  0
   35.5810   30.1530   31.0620 C   0  0  0  0  0  3  0  0  0  0  0  0
   34.8220   30.0320   32.2310 C   0  0  0  0  0  3  0  0  0  0  0  0
   35.1990   29.1230   33.2270 C   0  0  0  0  0  3  0  0  0  0  0  0
   36.3370   28.3360   33.0470 C   0  0  0  0  0  3  0  0  0  0  0  0
   37.0350   28.5040   31.8790 C   0  0  0  0  0  0  0  0  0  0  0  0
  1  4  1  6  0  0  0
  1 12  1  0  0  0  0
  2  3  1  0  0  0  0
  2  6  1  0  0  0  0
  2  1  1  0  0  0  0
  3  7  1  1  0  0  0
  3  1  1  0  0  0  0
  5  2  1  0  0  0  0
  8  9  1  0  0  0  0
  8 14  1  0  0  0  0
  9 15  1  0  0  0  0
 10 16  1  0  0  0  0
 10  9  2  0  0  0  0
 11 10  1  0  0  0  0
 12 11  2  0  0  0  0
 12 13  1  0  0  0  0
 13  8  2  0  0  0  0
 17 18  2  0  0  0  0
 19 17  1  0  0  0  0
 19  3  1  0  0  0  0
 20 19  1  0  0  0  0
 21 31  1  0  0  0  0
 21 17  1  0  0  0  0
 22 21  2  0  0  0  0
 23 22  1  0  0  0  0
 24 25  2  0  0  0  0
 24 22  1  0  0  0  0
 25 26  1  0  0  0  0
 26 27  2  0  0  0  0
 26 31  1  0  0  0  0
 27 28  1  0  0  0  0
 28 29  2  0  0  0  0
 30 29  1  0  0  0  0
 31 30  2  0  0  0  0
M  END
>  <minimizedAffinity>
-5.50316048

$$$$

 OpenBabel03272508523D

 31 34  0  0  1  0  0  0  0  0999 V2000
   37.7420   27.8690   32.0010 C   0  0  2  0  0  0  0  0  0  0  0  0
   37.2500   26.5930   32.5030 C   0  0  0  0  0  0  0  0  0  0  0  0
   36.3260   27.8140   32.3450 C   0  0  1  0  0  0  0  0  0  0  0  0
   38.3330   28.5550   32.6790 H   0  0  0  0  0  0  0  0  0  0  0  0
   37.4880   26.3330   33.5530 H   0  0  0  0  0  0  0  0  0  0  0  0
   37.1080   25.7410   31.7950 H   0  0  0  0  0  0  0  0  0  0  0  0
   35.4930   27.5660   31.6690 H   0  0  0  0  0  0  0  0  0  0  0  0
   37.7550   29.1030   28.5030 C   0  0  0  0  0  0  0  0  0  0  0  0
   38.8920   28.4400   27.9700 C   0  0  0  0  0  0  0  0  0  0  0  0
   39.6500   27.5700   28.8240 C   0  0  0  0  0  0  0  0  0  0  0  0
   39.2200   27.4370   30.1080 N   0  0  0  0  0  0  0  0  0  0  0  0
   38.1270   28.0930   30.5730 C   0  0  0  0  0  0  0  0  0  0  0  0
   37.3930   28.9170   29.7980 N   0  0  0  0  0  0  0  0  0  0  0  0
   37.2220   29.7470   27.8110 H   0  0  0  0  0  0  0  0  0  0  0  0
   39.1880   28.5860   26.9280 H   0  0  0  0  0  0  0  0  0  0  0  0
   40.4940   27.0910   28.3940 H   0  0  0  0  0  0  0  0  0  0  0  0
   35.3570   29.7090   33.5970 C   0  0  0  0  0  0  0  0  0  0  0  0
   35.1500   30.2910   32.4990 O   0  0  0  0  0  0  0  0  0  0  0  0
   35.9270   28.4080   33.6270 N   0  0  0  0  0  0  0  0  0  0  0  0
   36.0120   27.9770   34.5900 H   0  0  0  0  0  0  0  0  0  0  0  0
   34.9490   30.5190   34.7370 C   0  0  0  0  0  0  0  0  0  0  0  0
   35.9400   31.4330   35.1130 C   0  0  0  0  0  0  0  0  0  0  0  0
   36.8980   31.5430   34.6320 H   0  0  0  0  0  0  0  0  0  0  0  0
   35.7540   32.2980   36.1750 C   0  0  0  0  0  3  0  0  0  0  0  0
   34.5740   32.2920   36.9100 C   0  0  0  0  0  3  0  0  0  0  0  0
   33.5950   31.3730   36.5200 C   0  0  0  0  0  0  0  0  0  0  0  0
   32.4050   31.3000   37.1900 C   0  0  0  0  0  3  0  0  0  0  0  0
   31.4270   30.3800   36.7980 C   0  0  0  0  0  3  0  0  0  0  0  0
   31.6570   29.5220   35.7160 C   0  0  0  0  0  3  0  0  0  0  0  0
   32.8690   29.5890   35.0290 C   0  0  0  0  0  3  0  0  0  0  0  0
   33.7840   30.5130   35.4630 C   0  0  0  0  0  0  0  0  0  0  0  0
  1  3  1  0  0  0  0
  1  2  1  0  0  0  0
  1  4  1  1  0  0  0
  2  5  1  0  0  0  0
  3  7  1  6  0  0  0
  3  2  1  0  0  0  0
  3 19  1  0  0  0  0
  6  2  1  0  0  0  0
  8 13  1  0  0  0  0
  9  8  2  0  0  0  0
  9 10  1  0  0  0  0
 10 11  2  0  0  0  0
 11 12  1  0  0  0  0
 12  1  1  0  0  0  0
 13 12  2  0  0  0  0
 14  8  1  0  0  0  0
 15  9  1  0  0  0  0
 16 10  1  0  0  0  0
 17 19  1  0  0  0  0
 17 21  1  0  0  0  0
 18 17  2  0  0  0  0
 19 20  1  0  0  0  0
 21 22  2  0  0  0  0
 21 31  1  0  0  0  0
 22 24  1  0  0  0  0
 23 22  1  0  0  0  0
 24 25  2  0  0  0  0
 26 25  1  0  0  0  0
 26 27  1  0  0  0  0
 28 27  2  0  0  0  0
 29 28  1  0  0  0  0
 30 31  1  0  0  0  0
 30 29  2  0  0  0  0
 31 26  2  0  0  0  0
M  END
>  <minimizedAffinity>
-5.48911858

$$$$

 OpenBabel03272508523D

 31 34  0  0  1  0  0  0  0  0999 V2000
   37.0200   26.6040   31.0260 C   0  0  2  0  0  0  0  0  0  0  0  0
   35.8080   25.8030   31.1230 C   0  0  0  0  0  0  0  0  0  0  0  0
   36.5680   26.2790   32.3730 C   0  0  1  0  0  0  0  0  0  0  0  0
   38.0040   26.1130   30.7610 H   0  0  0  0  0  0  0  0  0  0  0  0
   35.8960   24.7180   30.9190 H   0  0  0  0  0  0  0  0  0  0  0  0
   34.8170   26.2750   30.9080 H   0  0  0  0  0  0  0  0  0  0  0  0
   35.9010   26.8830   33.0080 H   0  0  0  0  0  0  0  0  0  0  0  0
   37.4470   29.6740   28.9870 C   0  0  0  0  0  0  0  0  0  0  0  0
   37.0010   30.6780   29.8860 C   0  0  0  0  0  0  0  0  0  0  0  0
   36.5530   30.2890   31.1930 C   0  0  0  0  0  0  0  0  0  0  0  0
   36.5870   28.9610   31.4870 N   0  0  0  0  0  0  0  0  0  0  0  0
   37.0210   28.0370   30.5940 C   0  0  0  0  0  0  0  0  0  0  0  0
   37.4480   28.3680   29.3580 N   0  0  0  0  0  0  0  0  0  0  0  0
   37.7730   30.0280   28.0140 H   0  0  0  0  0  0  0  0  0  0  0  0
   36.9980   31.7310   29.5920 H   0  0  0  0  0  0  0  0  0  0  0  0
   36.2270   31.0650   31.8390 H   0  0  0  0  0  0  0  0  0  0  0  0
   38.3450   25.5570   33.9290 C   0  0  0  0  0  0  0  0  0  0  0  0
   38.6270   26.7700   34.1240 O   0  0  0  0  0  0  0  0  0  0  0  0
   37.2720   25.1960   33.0700 N   0  0  0  0  0  0  0  0  0  0  0  0
   37.0760   24.1570   33.0110 H   0  0  0  0  0  0  0  0  0  0  0  0
   39.2230   24.6600   34.6680 C   0  0  0  0  0  0  0  0  0  0  0  0
   40.3250   24.2580   33.9040 C   0  0  0  0  0  0  0  0  0  0  0  0
   40.5220   24.5620   32.8890 H   0  0  0  0  0  0  0  0  0  0  0  0
   41.2830   23.4030   34.4180 C   0  0  0  0  0  3  0  0  0  0  0  0
   41.1870   22.9120   35.7140 C   0  0  0  0  0  3  0  0  0  0  0  0
   40.0800   23.3250   36.4630 C   0  0  0  0  0  0  0  0  0  0  0  0
   39.9080   22.8870   37.7470 C   0  0  0  0  0  3  0  0  0  0  0  0
   38.8010   23.3010   38.4950 C   0  0  0  0  0  3  0  0  0  0  0  0
   37.8540   24.1680   37.9350 C   0  0  0  0  0  3  0  0  0  0  0  0
   38.0210   24.6170   36.6240 C   0  0  0  0  0  3  0  0  0  0  0  0
   39.1290   24.1750   35.9480 C   0  0  0  0  0  0  0  0  0  0  0  0
  1  4  1  6  0  0  0
  1  2  1  0  0  0  0
  1  3  1  0  0  0  0
  2  3  1  0  0  0  0
  3  7  1  1  0  0  0
  3 19  1  0  0  0  0
  5  2  1  0  0  0  0
  6  2  1  0  0  0  0
  8 13  2  0  0  0  0
  8  9  1  0  0  0  0
  9 10  2  0  0  0  0
 10 11  1  0  0  0  0
 10 16  1  0  0  0  0
 12  1  1  0  0  0  0
 12 11  2  0  0  0  0
 13 12  1  0  0  0  0
 14  8  1  0  0  0  0
 15  9  1  0  0  0  0
 17 18  2  0  0  0  0
 17 21  1  0  0  0  0
 19 17  1  0  0  0  0
 20 19  1  0  0  0  0
 21 31  1  0  0  0  0
 22 24  1  0  0  0  0
 22 21  2  0  0  0  0
 23 22  1  0  0  0  0
 24 25  2  0  0  0  0
 25 26  1  0  0  0  0
 26 27  1  0  0  0  0
 27 28  2  0  0  0  0
 29 28  1  0  0  0  0
 30 29  2  0  0  0  0
 31 26  2  0  0  0  0
 31 30  1  0  0  0  0
M  END
>  <minimizedAffinity>
-5.47378969

$$$$

 OpenBabel03272508523D

 31 34  0  0  1  0  0  0  0  0999 V2000
   38.0650   23.6900   34.6050 C   0  0  2  0  0  0  0  0  0  0  0  0
   38.8220   23.0280   33.5510 C   0  0  0  0  0  0  0  0  0  0  0  0
   38.8980   24.5490   33.7720 C   0  0  1  0  0  0  0  0  0  0  0  0
   36.9590   23.8860   34.4700 H   0  0  0  0  0  0  0  0  0  0  0  0
   38.2710   22.7250   32.6410 H   0  0  0  0  0  0  0  0  0  0  0  0
   39.7210   22.4200   33.8190 H   0  0  0  0  0  0  0  0  0  0  0  0
   39.9410   24.8460   33.9680 H   0  0  0  0  0  0  0  0  0  0  0  0
   37.8740   23.9240   38.3020 C   0  0  0  0  0  0  0  0  0  0  0  0
   39.0790   23.2820   38.6910 C   0  0  0  0  0  0  0  0  0  0  0  0
   39.9520   22.7680   37.6730 C   0  0  0  0  0  0  0  0  0  0  0  0
   39.5580   22.9370   36.3820 N   0  0  0  0  0  0  0  0  0  0  0  0
   38.3960   23.5570   36.0580 C   0  0  0  0  0  0  0  0  0  0  0  0
   37.5540   24.0490   36.9890 N   0  0  0  0  0  0  0  0  0  0  0  0
   37.2560   24.2910   39.1150 H   0  0  0  0  0  0  0  0  0  0  0  0
   39.3420   23.1780   39.7470 H   0  0  0  0  0  0  0  0  0  0  0  0
   40.8430   22.2940   38.0000 H   0  0  0  0  0  0  0  0  0  0  0  0
   38.4650   26.7210   32.6780 C   0  0  0  0  0  0  0  0  0  0  0  0
   39.2830   27.2530   33.4760 O   0  0  0  0  0  0  0  0  0  0  0  0
   38.2220   25.3210   32.7220 N   0  0  0  0  0  0  0  0  0  0  0  0
   37.5620   24.9570   31.9790 H   0  0  0  0  0  0  0  0  0  0  0  0
   37.8610   27.6920   31.7760 C   0  0  0  0  0  0  0  0  0  0  0  0
   36.7920   28.3690   32.3740 C   0  0  0  0  0  0  0  0  0  0  0  0
   36.4380   28.2080   33.3790 H   0  0  0  0  0  0  0  0  0  0  0  0
   36.0790   29.3340   31.6870 C   0  0  0  0  0  3  0  0  0  0  0  0
   36.3990   29.6690   30.3770 C   0  0  0  0  0  3  0  0  0  0  0  0
   37.4710   28.9830   29.7960 C   0  0  0  0  0  0  0  0  0  0  0  0
   37.8510   29.2510   28.5110 C   0  0  0  0  0  3  0  0  0  0  0  0
   38.9230   28.5640   27.9310 C   0  0  0  0  0  3  0  0  0  0  0  0
   39.6180   27.5940   28.6630 C   0  0  0  0  0  3  0  0  0  0  0  0
   39.2350   27.3130   29.9750 C   0  0  0  0  0  3  0  0  0  0  0  0
   38.1770   28.0230   30.4820 C   0  0  0  0  0  0  0  0  0  0  0  0
  1  4  1  6  0  0  0
  1 12  1  0  0  0  0
  2  3  1  0  0  0  0
  2  6  1  0  0  0  0
  2  1  1  0  0  0  0
  3  7  1  1  0  0  0
  3  1  1  0  0  0  0
  5  2  1  0  0  0  0
  8  9  1  0  0  0  0
  8 14  1  0  0  0  0
  9 15  1  0  0  0  0
 10 16  1  0  0  0  0
 10  9  2  0  0  0  0
 11 10  1  0  0  0  0
 12 11  2  0  0  0  0
 12 13  1  0  0  0  0
 13  8  2  0  0  0  0
 17 19  1  0  0  0  0
 17 18  2  0  0  0  0
 19  3  1  0  0  0  0
 20 19  1  0  0  0  0
 21 22  1  0  0  0  0
 21 17  1  0  0  0  0
 22 23  1  0  0  0  0
 24 22  2  0  0  0  0
 25 24  1  0  0  0  0
 26 25  2  0  0  0  0
 26 31  1  0  0  0  0
 27 26  1  0  0  0  0
 28 27  2  0  0  0  0
 28 29  1  0  0  0  0
 29 30  2  0  0  0  0
 30 31  1  0  0  0  0
 31 21  2  0  0  0  0
M  END
>  <minimizedAffinity>
-5.37827539

$$$$

 OpenBabel03272508523D

 31 34  0  0  1  0  0  0  0  0999 V2000
   36.5640   22.9430   30.7960 C   0  0  2  0  0  0  0  0  0  0  0  0
   37.9400   23.3220   30.5090 C   0  0  0  0  0  0  0  0  0  0  0  0
   37.0740   24.1040   31.5130 C   0  0  1  0  0  0  0  0  0  0  0  0
   35.7400   23.2040   30.0650 H   0  0  0  0  0  0  0  0  0  0  0  0
   38.1350   23.8570   29.5590 H   0  0  0  0  0  0  0  0  0  0  0  0
   38.7770   22.7050   30.9180 H   0  0  0  0  0  0  0  0  0  0  0  0
   37.5600   24.1070   32.5010 H   0  0  0  0  0  0  0  0  0  0  0  0
   35.5610   19.4760   31.6560 C   0  0  0  0  0  0  0  0  0  0  0  0
   35.5290   19.5320   33.0740 C   0  0  0  0  0  0  0  0  0  0  0  0
   35.8560   20.7680   33.7270 C   0  0  0  0  0  0  0  0  0  0  0  0
   36.1790   21.8210   32.9280 N   0  0  0  0  0  0  0  0  0  0  0  0
   36.1970   21.7200   31.5760 C   0  0  0  0  0  0  0  0  0  0  0  0
   35.8960   20.5740   30.9310 N   0  0  0  0  0  0  0  0  0  0  0  0
   35.3040   18.5160   31.2190 H   0  0  0  0  0  0  0  0  0  0  0  0
   35.2600   18.6510   33.6630 H   0  0  0  0  0  0  0  0  0  0  0  0
   35.8230   20.7740   34.7880 H   0  0  0  0  0  0  0  0  0  0  0  0
   37.3900   26.5540   31.4950 C   0  0  0  0  0  0  0  0  0  0  0  0
   38.3810   26.4020   32.2590 O   0  0  0  0  0  0  0  0  0  0  0  0
   36.6670   25.4260   31.0200 N   0  0  0  0  0  0  0  0  0  0  0  0
   35.8860   25.6480   30.3410 H   0  0  0  0  0  0  0  0  0  0  0  0
   37.1280   27.9560   31.2000 C   0  0  0  0  0  0  0  0  0  0  0  0
   37.5380   28.3050   29.9070 C   0  0  0  0  0  0  0  0  0  0  0  0
   37.9950   27.6350   29.1980 H   0  0  0  0  0  0  0  0  0  0  0  0
   37.3800   29.5920   29.4270 C   0  0  0  0  0  3  0  0  0  0  0  0
   36.8090   30.5870   30.2100 C   0  0  0  0  0  3  0  0  0  0  0  0
   36.4050   30.2200   31.4980 C   0  0  0  0  0  0  0  0  0  0  0  0
   35.8340   31.1390   32.3350 C   0  0  0  0  0  3  0  0  0  0  0  0
   35.4310   30.7700   33.6220 C   0  0  0  0  0  3  0  0  0  0  0  0
   35.6090   29.4550   34.0690 C   0  0  0  0  0  3  0  0  0  0  0  0
   36.1920   28.5120   33.2220 C   0  0  0  0  0  3  0  0  0  0  0  0
   36.5640   28.9390   31.9730 C   0  0  0  0  0  0  0  0  0  0  0  0
  1  4  1  6  0  0  0
  1  3  1  0  0  0  0
  1 12  1  0  0  0  0
  2  1  1  0  0  0  0
  2  6  1  0  0  0  0
  2  3  1  0  0  0  0
  3  7  1  1  0  0  0
  5  2  1  0  0  0  0
  8  9  1  0  0  0  0
  9 15  1  0  0  0  0
  9 10  2  0  0  0  0
 10 16  1  0  0  0  0
 11 10  1  0  0  0  0
 12 11  2  0  0  0  0
 13 12  1  0  0  0  0
 13  8  2  0  0  0  0
 14  8  1  0  0  0  0
 17 18  2  0  0  0  0
 19 17  1  0  0  0  0
 19  3  1  0  0  0  0
 20 19  1  0  0  0  0
 21 17  1  0  0  0  0
 21 31  1  0  0  0  0
 22 21  2  0  0  0  0
 23 22  1  0  0  0  0
 24 22  1  0  0  0  0
 24 25  2  0  0  0  0
 25 26  1  0  0  0  0
 26 31  2  0  0  0  0
 26 27  1  0  0  0  0
 27 28  2  0  0  0  0
 28 29  1  0  0  0  0
 30 29  2  0  0  0  0
 31 30  1  0  0  0  0
M  END
>  <minimizedAffinity>
-5.33528233

$$$$

 OpenBabel03272508523D

 31 34  0  0  1  0  0  0  0  0999 V2000
   37.9010   27.0990   33.3450 C   0  0  2  0  0  0  0  0  0  0  0  0
   36.6980   26.6610   32.6500 C   0  0  0  0  0  0  0  0  0  0  0  0
   36.9110   28.1300   33.0590 C   0  0  1  0  0  0  0  0  0  0  0  0
   38.0210   26.8990   34.4520 H   0  0  0  0  0  0  0  0  0  0  0  0
   35.9320   26.1270   33.2440 H   0  0  0  0  0  0  0  0  0  0  0  0
   36.7510   26.4140   31.5610 H   0  0  0  0  0  0  0  0  0  0  0  0
   36.8700   28.7750   32.1680 H   0  0  0  0  0  0  0  0  0  0  0  0
   40.5550   27.2870   30.7600 C   0  0  0  0  0  0  0  0  0  0  0  0
   41.7280   27.3370   31.5570 C   0  0  0  0  0  0  0  0  0  0  0  0
   41.5960   27.3080   32.9870 C   0  0  0  0  0  0  0  0  0  0  0  0
   40.3330   27.2310   33.4880 N   0  0  0  0  0  0  0  0  0  0  0  0
   39.2410   27.1860   32.6850 C   0  0  0  0  0  0  0  0  0  0  0  0
   39.3300   27.2130   31.3400 N   0  0  0  0  0  0  0  0  0  0  0  0
   40.7180   27.3110   29.6870 H   0  0  0  0  0  0  0  0  0  0  0  0
   42.7170   27.3970   31.0960 H   0  0  0  0  0  0  0  0  0  0  0  0
   42.4930   27.3480   33.5530 H   0  0  0  0  0  0  0  0  0  0  0  0
   35.5190   29.8710   34.1230 C   0  0  0  0  0  0  0  0  0  0  0  0
   35.7410   30.6130   33.1290 O   0  0  0  0  0  0  0  0  0  0  0  0
   36.0470   28.5520   34.1680 N   0  0  0  0  0  0  0  0  0  0  0  0
   35.7630   27.9850   35.0160 H   0  0  0  0  0  0  0  0  0  0  0  0
   34.7000   30.5280   35.1320 C   0  0  0  0  0  0  0  0  0  0  0  0
   35.4410   31.4340   35.9000 C   0  0  0  0  0  0  0  0  0  0  0  0
   36.4910   31.6380   35.7780 H   0  0  0  0  0  0  0  0  0  0  0  0
   34.8510   32.1640   36.9160 C   0  0  0  0  0  3  0  0  0  0  0  0
   33.5010   32.0260   37.2110 C   0  0  0  0  0  3  0  0  0  0  0  0
   32.7760   31.1160   36.4330 C   0  0  0  0  0  0  0  0  0  0  0  0
   31.4430   30.9180   36.6590 C   0  0  0  0  0  3  0  0  0  0  0  0
   30.7200   30.0080   35.8800 C   0  0  0  0  0  3  0  0  0  0  0  0
   31.3560   29.2890   34.8610 C   0  0  0  0  0  3  0  0  0  0  0  0
   32.7180   29.4840   34.6260 C   0  0  0  0  0  3  0  0  0  0  0  0
   33.3660   30.3910   35.4240 C   0  0  0  0  0  0  0  0  0  0  0  0
  1  4  1  1  0  0  0
  2  3  1  0  0  0  0
  2  5  1  0  0  0  0
  2  1  1  0  0  0  0
  3  7  1  6  0  0  0
  3  1  1  0  0  0  0
  3 19  1  0  0  0  0
  6  2  1  0  0  0  0
  8 13  2  0  0  0  0
  8  9  1  0  0  0  0
  9 10  2  0  0  0  0
 10 11  1  0  0  0  0
 10 16  1  0  0  0  0
 12  1  1  0  0  0  0
 12 11  2  0  0  0  0
 13 12  1  0  0  0  0
 14  8  1  0  0  0  0
 15  9  1  0  0  0  0
 17 19  1  0  0  0  0
 17 21  1  0  0  0  0
 18 17  2  0  0  0  0
 19 20  1  0  0  0  0
 21 31  2  0  0  0  0
 21 22  1  0  0  0  0
 22 24  2  0  0  0  0
 23 22  1  0  0  0  0
 24 25  1  0  0  0  0
 26 27  1  0  0  0  0
 26 25  2  0  0  0  0
 28 27  2  0  0  0  0
 29 28  1  0  0  0  0
 30 29  2  0  0  0  0
 30 31  1  0  0  0  0
 31 26  1  0  0  0  0
M  END
>  <minimizedAffinity>
-5.33451271

$$$$

 OpenBabel03272508523D

 31 34  0  0  1  0  0  0  0  0999 V2000
   37.7060   25.9660   31.5650 C   0  0  2  0  0  0  0  0  0  0  0  0
   36.2740   25.8750   31.8170 C   0  0  0  0  0  0  0  0  0  0  0  0
   37.2690   26.2720   32.9220 C   0  0  1  0  0  0  0  0  0  0  0  0
   38.3320   25.0260   31.5060 H   0  0  0  0  0  0  0  0  0  0  0  0
   35.8410   24.8630   31.9350 H   0  0  0  0  0  0  0  0  0  0  0  0
   35.5940   26.6690   31.4220 H   0  0  0  0  0  0  0  0  0  0  0  0
   37.0070   27.2640   33.3210 H   0  0  0  0  0  0  0  0  0  0  0  0
   40.2100   28.1450   29.9090 C   0  0  0  0  0  0  0  0  0  0  0  0
   39.3770   29.0770   29.2370 C   0  0  0  0  0  0  0  0  0  0  0  0
   37.9520   28.9470   29.3560 C   0  0  0  0  0  0  0  0  0  0  0  0
   37.4890   27.9210   30.1220 N   0  0  0  0  0  0  0  0  0  0  0  0
   38.3250   27.0540   30.7460 C   0  0  0  0  0  0  0  0  0  0  0  0
   39.6670   27.1480   30.6530 N   0  0  0  0  0  0  0  0  0  0  0  0
   41.2770   28.2950   29.7820 H   0  0  0  0  0  0  0  0  0  0  0  0
   39.8090   29.8820   28.6360 H   0  0  0  0  0  0  0  0  0  0  0  0
   37.3600   29.6600   28.8400 H   0  0  0  0  0  0  0  0  0  0  0  0
   38.2600   25.5450   35.0640 C   0  0  0  0  0  0  0  0  0  0  0  0
   38.7330   26.7050   35.2050 O   0  0  0  0  0  0  0  0  0  0  0  0
   37.4570   25.2280   33.9360 N   0  0  0  0  0  0  0  0  0  0  0  0
   37.0590   24.2460   33.9310 H   0  0  0  0  0  0  0  0  0  0  0  0
   38.6370   24.6580   36.1560 C   0  0  0  0  0  0  0  0  0  0  0  0
   37.8430   24.8560   37.2910 C   0  0  0  0  0  0  0  0  0  0  0  0
   37.0430   25.5740   37.3730 H   0  0  0  0  0  0  0  0  0  0  0  0
   38.0370   24.1140   38.4420 C   0  0  0  0  0  3  0  0  0  0  0  0
   39.0280   23.1430   38.5130 C   0  0  0  0  0  3  0  0  0  0  0  0
   39.8110   22.9580   37.3690 C   0  0  0  0  0  0  0  0  0  0  0  0
   40.8090   22.0230   37.3540 C   0  0  0  0  0  3  0  0  0  0  0  0
   41.5910   21.8390   36.2090 C   0  0  0  0  0  3  0  0  0  0  0  0
   41.3610   22.6130   35.0650 C   0  0  0  0  0  3  0  0  0  0  0  0
   40.3460   23.5700   35.0730 C   0  0  0  0  0  3  0  0  0  0  0  0
   39.6160   23.6980   36.2260 C   0  0  0  0  0  0  0  0  0  0  0  0
  1  4  1  6  0  0  0
  1  2  1  0  0  0  0
  1  3  1  0  0  0  0
  2  5  1  0  0  0  0
  2  3  1  0  0  0  0
  3  7  1  1  0  0  0
  3 19  1  0  0  0  0
  6  2  1  0  0  0  0
  8 13  1  0  0  0  0
  9 10  1  0  0  0  0
  9  8  2  0  0  0  0
 10 11  2  0  0  0  0
 11 12  1  0  0  0  0
 12  1  1  0  0  0  0
 13 12  2  0  0  0  0
 14  8  1  0  0  0  0
 15  9  1  0  0  0  0
 16 10  1  0  0  0  0
 17 18  2  0  0  0  0
 17 21  1  0  0  0  0
 19 17  1  0  0  0  0
 20 19  1  0  0  0  0
 21 31  2  0  0  0  0
 21 22  1  0  0  0  0
 22 23  1  0  0  0  0
 22 24  2  0  0  0  0
 24 25  1  0  0  0  0
 26 25  2  0  0  0  0
 27 26  1  0  0  0  0
 28 27  2  0  0  0  0
 29 30  2  0  0  0  0
 29 28  1  0  0  0  0
 30 31  1  0  0  0  0
 31 26  1  0  0  0  0
M  END
>  <minimizedAffinity>
-5.32734251

$$$$
