
 OpenBabel03272506433D

 34 37  0  0  1  0  0  0  0  0999 V2000
   32.1140   28.0720   47.7670 C   0  0  2  0  0  0  0  0  0  0  0  0
   33.4960   28.0090   48.4000 C   0  0  1  0  0  0  0  0  0  0  0  0
   33.9640   26.7370   48.2600 O   0  0  0  0  0  0  0  0  0  0  0  0
   33.1100   26.0270   47.4440 C   0  0  0  0  0  0  0  0  0  0  0  0
   32.3170   27.0700   46.6370 C   0  0  1  0  0  0  0  0  0  0  0  0
   31.3390   27.7230   48.4680 H   0  0  0  0  0  0  0  0  0  0  0  0
   33.4060   28.3600   49.4450 H   0  0  0  0  0  0  0  0  0  0  0  0
   33.7360   25.4540   46.7280 H   0  0  0  0  0  0  0  0  0  0  0  0
   32.4200   25.3870   48.0160 H   0  0  0  0  0  0  0  0  0  0  0  0
   32.9700   27.5480   45.9050 H   0  0  0  0  0  0  0  0  0  0  0  0
   31.8440   29.3470   47.2770 O   0  0  0  0  0  0  0  0  0  0  0  0
   31.3730   29.8680   47.9700 H   0  0  0  0  0  0  0  0  0  0  0  0
   34.5610   29.1170   47.4250 S   0  0  0  0  0  0  0  0  0  0  0  0
   37.2590   29.4330   50.3030 C   0  0  0  0  0  0  0  0  0  0  0  0
   37.8530   30.6760   50.1200 C   0  0  0  0  0  0  0  0  0  0  0  0
   37.3990   31.4570   49.0560 C   0  0  0  0  0  0  0  0  0  0  0  0
   36.4080   30.9670   48.2580 N   0  0  0  0  0  0  0  0  0  0  0  0
   35.8610   29.7450   48.4790 C   0  0  0  0  0  0  0  0  0  0  0  0
   36.2760   28.9740   49.4940 N   0  0  0  0  0  0  0  0  0  0  0  0
   37.6440   28.8680   51.1380 H   0  0  0  0  0  0  0  0  0  0  0  0
   38.6400   31.0600   50.7570 H   0  0  0  0  0  0  0  0  0  0  0  0
   37.8010   32.4460   48.8300 H   0  0  0  0  0  0  0  0  0  0  0  0
   31.1390   26.5240   46.2020 O   0  0  0  0  0  0  0  0  0  0  0  0
   30.2630   27.1970   45.3680 C   0  0  0  0  0  0  0  0  0  0  0  0
   30.4170   27.6400   44.0730 C   0  0  0  0  0  0  0  0  0  0  0  0
   31.3890   27.4130   43.6610 H   0  0  0  0  0  0  0  0  0  0  0  0
   29.3990   28.2990   43.4200 C   0  0  0  0  0  3  0  0  0  0  0  0
   28.1990   28.5430   44.0190 C   0  0  0  0  0  3  0  0  0  0  0  0
   28.0040   28.1120   45.3260 C   0  0  0  0  0  0  0  0  0  0  0  0
   26.7820   28.3870   45.8670 C   0  0  0  0  0  3  0  0  0  0  0  0
   26.5350   27.9820   47.1610 C   0  0  0  0  0  3  0  0  0  0  0  0
   27.5140   27.3170   47.8680 C   0  0  0  0  0  3  0  0  0  0  0  0
   28.7270   27.0670   47.2690 C   0  0  0  0  0  3  0  0  0  0  0  0
   29.0340   27.4450   45.9850 C   0  0  0  0  0  0  0  0  0  0  0  0
  1  2  1  0  0  0  0
  1  6  1  1  0  0  0
  2  7  1  1  0  0  0
  3  2  1  0  0  0  0
  4  9  1  0  0  0  0
  4  3  1  0  0  0  0
  5 10  1  6  0  0  0
  5  4  1  0  0  0  0
  5  1  1  0  0  0  0
  8  4  1  0  0  0  0
 11  1  1  0  0  0  0
 11 12  1  0  0  0  0
 13  2  1  0  0  0  0
 13 18  1  0  0  0  0
 14 20  1  0  0  0  0
 15 14  1  0  0  0  0
 15 21  1  0  0  0  0
 16 15  2  0  0  0  0
 17 18  2  0  0  0  0
 17 16  1  0  0  0  0
 18 19  1  0  0  0  0
 19 14  2  0  0  0  0
 22 16  1  0  0  0  0
 23  5  1  0  0  0  0
 24 34  1  0  0  0  0
 24 23  1  0  0  0  0
 25 24  2  0  0  0  0
 26 25  1  0  0  0  0
 27 28  2  0  0  0  0
 27 25  1  0  0  0  0
 28 29  1  0  0  0  0
 29 30  2  0  0  0  0
 29 34  1  0  0  0  0
 30 31  1  0  0  0  0
 31 32  2  0  0  0  0
 33 32  1  0  0  0  0
 34 33  2  0  0  0  0
M  END
>  <minimizedAffinity>
-4.82724953

>  <minimizedRMSD>
2.21853375

$$$$
