REMARK  Name = 
REMARK  3 active torsions:
REMARK  status: ('A' for Active; 'I' for Inactive)
REMARK    1  A    between atoms: C_1  and  C_7
REMARK    2  A    between atoms: C_8  and  O_10
REMARK    3  A    between atoms: O_10  and  C_18
REMARK                            x       y       z     vdW  Elec       q    Type
REMARK                         _______ _______ _______ _____ _____    ______ ____
ROOT
ATOM      1  C   UNL     1      36.637  31.037  50.499  0.00  0.00    +0.000 C 
ATOM      2  C   UNL     1      36.139  29.685  50.654  0.00  0.00    +0.000 C 
ATOM      3  C   UNL     1      37.348  30.096  51.474  0.00  0.00    +0.000 C 
ATOM      4  H   UNL     1      36.111  31.874  51.027  0.00  0.00    +0.000 HD
ATOM      5  H   UNL     1      35.172  29.540  51.202  0.00  0.00    +0.000 HD
ATOM      6  H   UNL     1      38.335  29.684  51.207  0.00  0.00    +0.000 HD
ATOM      7  H   UNL     1      37.133  30.237  52.547  0.00  0.00    +0.000 HD
ENDROOT
BRANCH   1   8
ATOM      8  C   UNL     1      37.522  31.408  49.328  0.00  0.00    +0.000 A 
ATOM      9  C   UNL     1      38.155  32.649  49.397  0.00  0.00    +0.000 A 
ATOM     10  C   UNL     1      38.942  32.983  48.308  0.00  0.00    +0.000 A 
ATOM     11  N   UNL     1      39.061  32.114  47.251  0.00  0.00    +0.000 NA
ATOM     12  C   UNL     1      38.429  30.914  47.221  0.00  0.00    +0.000 A 
ATOM     13  N   UNL     1      37.652  30.563  48.274  0.00  0.00    +0.000 NA
ATOM     14  H   UNL     1      38.009  33.275  50.266  0.00  0.00    +0.000 HD
ATOM     15  H   UNL     1      39.456  33.934  48.310  0.00  0.00    +0.000 HD
ATOM     16  H   UNL     1      38.563  30.276  46.359  0.00  0.00    +0.000 HD
ENDBRANCH   1   8
BRANCH   2  17
ATOM     17  O   UNL     1      36.392  28.740  49.675  0.00  0.00    +0.000 OA
BRANCH  17  18
ATOM     18  C   UNL     1      35.493  27.736  49.397  0.00  0.00    +0.000 A 
ATOM     19  C   UNL     1      35.592  26.370  49.461  0.00  0.00    +0.000 A 
ATOM     20  H   UNL     1      36.540  25.994  49.786  0.00  0.00    +0.000 HD
ATOM     21  C   UNL     1      34.576  25.508  49.141  0.00  0.00    +0.000 A 
ATOM     22  C   UNL     1      33.366  25.975  48.725  0.00  0.00    +0.000 A 
ATOM     23  C   UNL     1      33.206  27.342  48.641  0.00  0.00    +0.000 A 
ATOM     24  C   UNL     1      31.969  27.781  48.215  0.00  0.00    +0.000 A 
ATOM     25  C   UNL     1      31.733  29.134  48.104  0.00  0.00    +0.000 A 
ATOM     26  C   UNL     1      32.732  30.030  48.418  0.00  0.00    +0.000 A 
ATOM     27  C   UNL     1      33.945  29.530  48.836  0.00  0.00    +0.000 A 
ATOM     28  C   UNL     1      34.240  28.190  48.967  0.00  0.00    +0.000 A 
ENDBRANCH  17  18
ENDBRANCH   2  17
TORSDOF 3
