
     RDKit          3D

 46 50  0  0  0  0  0  0  0  0999 V2000
   35.8158   30.5437   49.0732 C   0  0  1  0  0  0  0  0  0  0  0  0
   35.9052   29.1226   48.8319 C   0  0  1  0  0  0  0  0  0  0  0  0
   36.0731   29.5811   50.2433 C   0  0  0  0  0  0  0  0  0  0  0  0
   37.0103   31.4524   48.8213 C   0  0  0  0  0  0  0  0  0  0  0  0
   37.1828   32.5264   49.6969 C   0  0  0  0  0  0  0  0  0  0  0  0
   38.2726   33.3428   49.4090 C   0  0  0  0  0  0  0  0  0  0  0  0
   39.0854   33.0915   48.3557 N   0  0  0  0  0  0  0  0  0  0  0  0
   38.8773   32.0303   47.5284 C   0  0  0  0  0  0  0  0  0  0  0  0
   37.8270   31.2001   47.7636 N   0  0  0  0  0  0  0  0  0  0  0  0
   33.9649   29.0756   47.3745 C   0  0  2  0  0  0  0  0  0  0  0  0
   34.7381   28.2821   48.4176 C   0  0  2  0  0  0  0  0  0  0  0  0
   33.8641   28.0765   49.4423 O   0  0  0  0  0  0  0  0  0  0  0  0
   32.5802   28.1368   49.0055 C   0  0  0  0  0  0  0  0  0  0  0  0
   32.6043   28.3810   47.5097 C   0  0  1  0  0  0  0  0  0  0  0  0
   34.4630   28.9614   46.0962 O   0  0  0  0  0  0  0  0  0  0  0  0
   31.5819   29.1688   47.0529 O   0  0  0  0  0  0  0  0  0  0  0  0
   34.8901   31.1328   49.2912 H   0  0  0  0  0  0  0  0  0  0  0  0
   36.8491   28.7888   48.3120 H   0  0  0  0  0  0  0  0  0  0  0  0
   35.2747   29.3772   50.9678 H   0  0  0  0  0  0  0  0  0  0  0  0
   37.1003   29.5443   50.6790 H   0  0  0  0  0  0  0  0  0  0  0  0
   36.5000   32.6751   50.5209 H   0  0  0  0  0  0  0  0  0  0  0  0
   38.4462   34.1908   50.0632 H   0  0  0  0  0  0  0  0  0  0  0  0
   39.5504   31.8690   46.7017 H   0  0  0  0  0  0  0  0  0  0  0  0
   33.8547   30.1290   47.6335 H   0  0  0  0  0  0  0  0  0  0  0  0
   35.0154   27.3158   47.9797 H   0  0  0  0  0  0  0  0  0  0  0  0
   32.1226   29.0681   49.4470 H   0  0  0  0  0  0  0  0  0  0  0  0
   31.9377   27.2975   49.2856 H   0  0  0  0  0  0  0  0  0  0  0  0
   32.6739   27.3791   47.0251 H   0  0  0  0  0  0  0  0  0  0  0  0
   35.4361   28.8010   46.0428 H   0  0  0  0  0  0  0  0  0  0  0  0
   30.6661   28.8551   46.0891 C   0  0  0  0  0  0  0  0  0  0  0  0
   30.8266   28.0265   45.0030 C   0  0  0  0  0  0  0  0  0  0  0  0
   31.8008   27.5683   44.9037 H   0  0  0  0  0  0  0  0  0  0  0  0
   29.8293   27.7763   44.0834 C   0  0  0  0  0  0  0  0  0  0  0  0
   28.6016   28.3850   44.2532 C   0  0  0  0  0  0  0  0  0  0  0  0
   28.3716   29.2348   45.3300 C   0  0  0  0  0  0  0  0  0  0  0  0
   27.1404   29.8368   45.4882 C   0  0  0  0  0  0  0  0  0  0  0  0
   26.9346   30.6733   46.5599 C   0  0  0  0  0  0  0  0  0  0  0  0
   27.9230   30.9283   47.4812 C   0  0  0  0  0  0  0  0  0  0  0  0
   29.1378   30.3002   47.2767 C   0  0  0  0  0  0  0  0  0  0  0  0
   29.4096   29.4434   46.2136 C   0  0  0  0  0  0  0  0  0  0  0  0
   30.0929   27.1058   43.2802 H   0  0  0  0  0  0  0  0  0  0  0  0
   27.8390   28.1715   43.5186 H   0  0  0  0  0  0  0  0  0  0  0  0
   26.4009   29.6041   44.7395 H   0  0  0  0  0  0  0  0  0  0  0  0
   25.9690   31.1420   46.6791 H   0  0  0  0  0  0  0  0  0  0  0  0
   27.7646   31.5794   48.3163 H   0  0  0  0  0  0  0  0  0  0  0  0
   29.9008   30.5228   48.0244 H   0  0  0  0  0  0  0  0  0  0  0  0
  1  3  1  0
  2  1  1  0
  2  3  1  0
  4  1  1  0
  4  5  2  0
  6  5  1  0
  7  6  2  0
  8  9  2  0
  8  7  1  0
  9  4  1  0
 10 15  1  0
 10 14  1  0
 10 11  1  0
 11  2  1  0
 11 12  1  0
 13 12  1  0
 14 16  1  0
 14 13  1  0
  1 17  1  1
  2 18  1  6
  3 19  1  0
  3 20  1  0
  5 21  1  0
  6 22  1  0
  8 23  1  0
 10 24  1  1
 11 25  1  6
 13 26  1  0
 13 27  1  0
 14 28  1  6
 15 29  1  0
 30 31  2  0
 31 32  1  0
 31 33  1  0
 33 34  2  0
 34 35  1  0
 35 36  2  0
 36 37  1  0
 37 38  2  0
 38 39  1  0
 39 40  2  0
 40 30  1  0
 40 35  1  0
 33 41  1  0
 34 42  1  0
 36 43  1  0
 37 44  1  0
 38 45  1  0
 39 46  1  0
 16 30  1  0
M  ISO  8  17  13  18  13  19  13  20  13  21  14  22  14  23  14  24  13
M  ISO  6  25  13  26  13  27  13  28  13  29   3  32  15
M  END
>  <DihAtoms>  (1) 
13,15,29,30

>  <DihDeg>  (1) 
-0.009359597632320674

$$$$
