
 OpenBabel03272508573D

 42 46  0  0  1  0  0  0  0  0999 V2000
   39.1660   31.4370   43.3350 C   0  0  0  0  0  0  0  0  0  0  0  0
   40.1870   30.5220   43.5060 C   0  0  0  0  0  0  0  0  0  0  0  0
   40.9000   30.1520   42.3830 C   0  0  0  0  0  0  0  0  0  0  0  0
   40.5670   30.6980   41.1750 C   0  0  0  0  0  0  0  0  0  0  0  0
   39.5290   31.6250   41.0040 C   0  0  0  0  0  0  0  0  0  0  0  0
   38.8580   31.9610   42.1240 N   0  0  0  0  0  0  0  0  0  0  0  0
   40.4560   30.0860   44.4600 H   0  0  0  0  0  0  0  0  0  0  0  0
   41.7160   29.4510   42.3860 H   0  0  0  0  0  0  0  0  0  0  0  0
   41.0960   30.4380   40.2740 H   0  0  0  0  0  0  0  0  0  0  0  0
   38.3880   31.8520   44.5190 C   0  0  0  0  0  0  0  0  0  0  0  0
   37.3110   32.4460   44.4100 O   0  0  0  0  0  0  0  0  0  0  0  0
   38.9370   31.5390   45.8230 N   0  0  0  0  0  0  0  0  0  0  0  0
   39.9090   31.2260   45.9720 H   0  0  0  0  0  0  0  0  0  0  0  0
   38.4240   31.0780   48.2150 C   0  0  2  0  0  0  0  0  0  0  0  0
   38.6600   32.5410   48.0990 C   0  0  0  0  0  0  0  0  0  0  0  0
   38.0640   31.6750   46.9700 C   0  0  1  0  0  0  0  0  0  0  0  0
   39.3380   30.4550   48.3100 H   0  0  0  0  0  0  0  0  0  0  0  0
   39.6860   32.8870   47.9870 H   0  0  0  0  0  0  0  0  0  0  0  0
   37.9860   33.2220   48.6500 H   0  0  0  0  0  0  0  0  0  0  0  0
   37.0020   31.9270   46.7680 H   0  0  0  0  0  0  0  0  0  0  0  0
   35.0550   30.2230   49.5340 C   0  0  0  0  0  0  0  0  0  0  0  0
   35.3820   29.5730   50.7540 C   0  0  0  0  0  0  0  0  0  0  0  0
   36.7780   29.4440   51.1190 C   0  0  0  0  0  0  0  0  0  0  0  0
   37.7270   29.9520   50.2760 N   0  0  0  0  0  0  0  0  0  0  0  0
   37.3350   30.5620   49.1250 C   0  0  0  0  0  0  0  0  0  0  0  0
   36.0140   30.7170   48.7200 N   0  0  0  0  0  0  0  0  0  0  0  0
   34.0130   30.2840   49.3260 H   0  0  0  0  0  0  0  0  0  0  0  0
   34.6650   29.1700   51.4230 H   0  0  0  0  0  0  0  0  0  0  0  0
   37.0220   28.9530   52.0400 H   0  0  0  0  0  0  0  0  0  0  0  0
   39.1980   32.1670   39.6990 C   0  0  0  0  0  0  0  0  0  0  0  0
   38.9300   33.3880   39.5930 O   0  0  0  0  0  0  0  0  0  0  0  0
   39.1210   31.4950   38.4150 C   0  0  0  0  0  0  0  0  0  0  0  0
   37.9060   30.9260   38.0200 C   0  0  0  0  0  0  0  0  0  0  0  0
   37.0660   31.0090   38.7240 H   0  0  0  0  0  0  0  0  0  0  0  0
   37.6740   30.2730   36.8280 C   0  0  0  0  0  3  0  0  0  0  0  0
   38.7270   30.1670   35.9440 C   0  0  0  0  0  3  0  0  0  0  0  0
   39.9510   30.7090   36.2800 C   0  0  0  0  0  0  0  0  0  0  0  0
   41.0080   30.6040   35.4030 C   0  0  0  0  0  3  0  0  0  0  0  0
   42.2460   31.1400   35.7310 C   0  0  0  0  0  3  0  0  0  0  0  0
   42.4220   31.7910   36.9550 C   0  0  0  0  0  3  0  0  0  0  0  0
   41.3470   31.8800   37.8060 C   0  0  0  0  0  3  0  0  0  0  0  0
   40.1290   31.3530   37.4860 C   0  0  0  0  0  0  0  0  0  0  0  0
  1  2  1  0  0  0  0
  1 10  1  0  0  0  0
  2  7  1  0  0  0  0
  3  8  1  0  0  0  0
  3  2  2  0  0  0  0
  4  3  1  0  0  0  0
  5  4  2  0  0  0  0
  5  6  1  0  0  0  0
  6  1  2  0  0  0  0
  9  4  1  0  0  0  0
 10 12  1  0  0  0  0
 11 10  2  0  0  0  0
 12 13  1  0  0  0  0
 12 16  1  0  0  0  0
 14 17  1  6  0  0  0
 14 25  1  0  0  0  0
 15 14  1  0  0  0  0
 15 19  1  0  0  0  0
 16 20  1  6  0  0  0
 16 15  1  0  0  0  0
 16 14  1  0  0  0  0
 18 15  1  0  0  0  0
 21 22  1  0  0  0  0
 22 23  2  0  0  0  0
 22 28  1  0  0  0  0
 23 29  1  0  0  0  0
 24 23  1  0  0  0  0
 25 24  2  0  0  0  0
 26 25  1  0  0  0  0
 26 21  2  0  0  0  0
 27 21  1  0  0  0  0
 30  5  1  0  0  0  0
 31 30  2  0  0  0  0
 32 30  1  0  0  0  0
 33 32  1  0  0  0  0
 33 34  1  0  0  0  0
 35 33  2  0  0  0  0
 36 37  2  0  0  0  0
 36 35  1  0  0  0  0
 37 42  1  0  0  0  0
 38 39  2  0  0  0  0
 38 37  1  0  0  0  0
 39 40  1  0  0  0  0
 40 41  2  0  0  0  0
 42 41  1  0  0  0  0
 42 32  2  0  0  0  0
M  END
>  <minimizedAffinity>
-5.04950237

>  <minimizedRMSD>
0.350366414

$$$$
