
 OpenBabel03272508423D

 22 24  0  0  0  0  0  0  0  0999 V2000
   34.1840   29.4000   49.6090 C   0  0  0  0  0  0  0  0  0  0  0  0
   33.3500   29.7020   50.5190 O   0  0  0  0  0  0  0  0  0  0  0  0
   33.9590   28.5670   48.4290 C   0  0  0  0  0  0  0  0  0  0  0  0
   34.1870   27.1880   48.4460 C   0  0  0  0  0  0  0  0  0  0  0  0
   34.5350   26.7040   49.3390 H   0  0  0  0  0  0  0  0  0  0  0  0
   33.9970   26.3560   47.3660 C   0  0  0  0  0  0  0  0  0  0  0  0
   33.5530   26.9000   46.1830 C   0  0  0  0  0  0  0  0  0  0  0  0
   33.3110   28.2540   46.1080 C   0  0  0  0  0  0  0  0  0  0  0  0
   32.8650   28.7990   44.9240 C   0  0  0  0  0  0  0  0  0  0  0  0
   32.6000   30.1450   44.7760 C   0  0  0  0  0  0  0  0  0  0  0  0
   32.8110   30.9180   45.8900 C   0  0  0  0  0  0  0  0  0  0  0  0
   33.2580   30.3640   47.0730 C   0  0  0  0  0  0  0  0  0  0  0  0
   33.5160   29.0270   47.2070 C   0  0  0  0  0  0  0  0  0  0  0  0
   37.7100   29.5430   50.4520 C   0  0  0  0  0  0  0  0  0  0  0  0
   38.1920   30.6500   49.7450 C   0  0  0  0  0  0  0  0  0  0  0  0
   37.2810   31.3660   48.9600 C   0  0  0  0  0  0  0  0  0  0  0  0
   35.9960   30.9340   48.9400 N   0  0  0  0  0  0  0  0  0  0  0  0
   35.5560   29.8740   49.6220 C   0  0  0  0  0  0  0  0  0  0  0  0
   36.4110   29.1740   50.3820 N   0  0  0  0  0  0  0  0  0  0  0  0
   38.4220   28.9780   51.0720 H   0  0  0  0  0  0  0  0  0  0  0  0
   39.2250   30.9380   49.8060 H   0  0  0  0  0  0  0  0  0  0  0  0
   37.5920   32.2310   48.3890 H   0  0  0  0  0  0  0  0  0  0  0  0
  1 18  1  0  0  0  0
  1  2  2  0  0  0  0
  3  4  1  0  0  0  0
  3  1  1  0  0  0  0
  4  5  1  0  0  0  0
  6  4  2  0  0  0  0
  7  6  1  0  0  0  0
  8  7  2  0  0  0  0
  8 13  1  0  0  0  0
  9  8  1  0  0  0  0
 10  9  2  0  0  0  0
 10 11  1  0  0  0  0
 11 12  2  0  0  0  0
 12 13  1  0  0  0  0
 13  3  2  0  0  0  0
 14 20  1  0  0  0  0
 15 21  1  0  0  0  0
 15 14  2  0  0  0  0
 16 15  1  0  0  0  0
 17 16  2  0  0  0  0
 17 18  1  0  0  0  0
 18 19  2  0  0  0  0
 19 14  1  0  0  0  0
 22 16  1  0  0  0  0
M  END
>  <minimizedAffinity>
-4.30906534

>  <minimizedRMSD>
3.17067409

$$$$
