
     RDKit          3D

 45 48  0  0  0  0  0  0  0  0999 V2000
   35.3584   29.8316   46.7722 O   0  0  0  0  0  0  0  0  0  0  0  0
   34.0969   29.9961   47.6158 P   0  0  2  0  0  0  0  0  0  0  0  0
   33.1017   31.0317   46.7192 O   0  0  0  0  0  0  0  0  0  0  0  0
   34.3965   30.6399   49.1676 O   0  0  0  0  0  0  0  0  0  0  0  0
   35.6327   30.5092   49.7851 C   0  0  0  0  0  0  0  0  0  0  0  0
   35.9658   29.4858   50.7049 C   0  0  0  0  0  0  0  0  0  0  0  0
   37.2458   29.4857   51.2411 C   0  0  0  0  0  0  0  0  0  0  0  0
   38.1195   30.4719   50.8551 N   0  0  0  0  0  0  0  0  0  0  0  0
   37.7721   31.4399   49.9715 C   0  0  0  0  0  0  0  0  0  0  0  0
   36.5236   31.4619   49.4319 N   0  0  0  0  0  0  0  0  0  0  0  0
   33.3331   28.5134   47.8428 O   0  0  0  0  0  0  0  0  0  0  0  0
   33.0825   27.3446   45.8706 C   0  0  1  0  0  0  0  0  0  0  0  0
   33.9201   27.4774   47.1619 C   0  0  2  0  0  0  0  0  0  0  0  0
   33.8328   26.2481   47.7322 O   0  0  0  0  0  0  0  0  0  0  0  0
   34.0646   25.3687   46.6856 C   0  0  0  0  0  0  0  0  0  0  0  0
   33.4600   25.9539   45.4269 C   0  0  2  0  0  0  0  0  0  0  0  0
   31.7416   27.5205   46.1472 O   0  0  0  0  0  0  0  0  0  0  0  0
   34.3952   25.9987   44.4276 O   0  0  0  0  0  0  0  0  0  0  0  0
   32.3690   31.2978   47.3573 H   0  0  0  0  0  0  0  0  0  0  0  0
   35.2050   28.7813   50.9235 H   0  0  0  0  0  0  0  0  0  0  0  0
   37.4933   28.7183   51.9299 H   0  0  0  0  0  0  0  0  0  0  0  0
   38.4715   32.2091   49.6780 H   0  0  0  0  0  0  0  0  0  0  0  0
   33.4021   28.1290   45.1555 H   0  0  0  0  0  0  0  0  0  0  0  0
   34.9305   27.7553   46.7872 H   0  0  0  0  0  0  0  0  0  0  0  0
   35.1267   25.0994   46.5606 H   0  0  0  0  0  0  0  0  0  0  0  0
   33.5103   24.4343   46.9104 H   0  0  0  0  0  0  0  0  0  0  0  0
   32.5471   25.4082   45.1251 H   0  0  0  0  0  0  0  0  0  0  0  0
   31.3397   28.1983   45.5447 H   0  0  0  0  0  0  0  0  0  0  0  0
   34.1830   25.4416   43.1941 C   0  0  0  0  0  0  0  0  0  0  0  0
   34.1637   25.9735   41.9389 C   0  0  0  0  0  0  0  0  0  0  0  0
   34.3481   27.0315   41.8821 H   0  0  0  0  0  0  0  0  0  0  0  0
   33.9290   25.2437   40.7982 C   0  0  0  0  0  0  0  0  0  0  0  0
   33.6919   23.8866   40.8621 C   0  0  0  0  0  0  0  0  0  0  0  0
   33.7054   23.3140   42.1348 C   0  0  0  0  0  0  0  0  0  0  0  0
   33.4627   21.9551   42.1413 C   0  0  0  0  0  0  0  0  0  0  0  0
   33.4545   21.2954   43.3465 C   0  0  0  0  0  0  0  0  0  0  0  0
   33.6857   21.9951   44.5080 C   0  0  0  0  0  0  0  0  0  0  0  0
   33.9247   23.3517   44.4645 C   0  0  0  0  0  0  0  0  0  0  0  0
   33.9447   24.0651   43.2841 C   0  0  0  0  0  0  0  0  0  0  0  0
   33.9394   25.7828   39.8554 H   0  0  0  0  0  0  0  0  0  0  0  0
   33.5137   23.3514   39.9596 H   0  0  0  0  0  0  0  0  0  0  0  0
   33.2794   21.3874   41.2457 H   0  0  0  0  0  0  0  0  0  0  0  0
   33.2680   20.2363   43.3802 H   0  0  0  0  0  0  0  0  0  0  0  0
   33.6821   21.4868   45.4647 H   0  0  0  0  0  0  0  0  0  0  0  0
   34.1056   23.8940   45.3835 H   0  0  0  0  0  0  0  0  0  0  0  0
  2  1  2  0
  2 11  1  1
  2  4  1  0
  3  2  1  0
  4  5  1  0
  5  6  2  0
  6  7  1  0
  8  7  2  0
  9  8  1  0
 10  5  1  0
 10  9  2  0
 12 17  1  0
 12 13  1  0
 13 14  1  0
 13 11  1  0
 15 14  1  0
 16 18  1  0
 16 12  1  0
 16 15  1  0
  3 19  1  0
  6 20  1  0
  7 21  1  0
  9 22  1  0
 12 23  1  6
 13 24  1  6
 15 25  1  0
 15 26  1  0
 16 27  1  6
 17 28  1  0
 29 30  2  0
 30 31  1  0
 30 32  1  0
 32 33  2  0
 33 34  1  0
 34 35  2  0
 35 36  1  0
 36 37  2  0
 37 38  1  0
 38 39  2  0
 39 29  1  0
 39 34  1  0
 32 40  1  0
 33 41  1  0
 35 42  1  0
 36 43  1  0
 37 44  1  0
 38 45  1  0
 18 29  1  0
M  ISO  8  19   3  20  14  21  14  22  14  23  13  24  13  25  13  26  13
M  ISO  3  27  13  28   3  31  15
M  END
>  <DihAtoms>  (1) 
15,17,28,29

>  <DihDeg>  (1) 
0.12769411366264283

$$$$
