
     RDKit          3D

 29 31  0  0  0  0  0  0  0  0999 V2000
   38.3049   31.2362   50.1169 C   0  0  0  0  0  0  0  0  0  0  0  0
   38.2840   31.5945   48.7705 C   0  0  0  0  0  0  0  0  0  0  0  0
   37.2065   31.2226   47.9853 C   0  0  0  0  0  0  0  0  0  0  0  0
   36.2345   30.5130   48.6237 N   0  0  0  0  0  0  0  0  0  0  0  0
   36.2563   30.1710   49.9070 C   0  0  0  0  0  0  0  0  0  0  0  0
   37.2974   30.5423   50.6333 N   0  0  0  0  0  0  0  0  0  0  0  0
   35.1216   29.3873   50.4571 C   0  0  0  0  0  0  0  0  0  0  0  0
   35.2716   29.1198   51.8067 F   0  0  0  0  0  0  0  0  0  0  0  0
   33.9167   30.0507   50.2926 F   0  0  0  0  0  0  0  0  0  0  0  0
   34.9556   28.1745   49.8110 F   0  0  0  0  0  0  0  0  0  0  0  0
   39.1454   31.5283   50.7308 H   0  0  0  0  0  0  0  0  0  0  0  0
   39.1416   32.1104   48.4043 H   0  0  0  0  0  0  0  0  0  0  0  0
   37.0131   31.4217   46.5704 C   0  0  0  0  0  0  0  0  0  0  0  0
   37.7658   32.4454   45.9816 C   0  0  0  0  0  0  0  0  0  0  0  0
   38.4404   33.0445   46.5820 H   0  0  0  0  0  0  0  0  0  0  0  0
   37.7349   32.7832   44.6613 C   0  0  0  0  0  0  0  0  0  0  0  0
   36.9138   32.0889   43.8021 C   0  0  0  0  0  0  0  0  0  0  0  0
   36.1569   31.0766   44.3166 C   0  0  0  0  0  0  0  0  0  0  0  0
   35.3507   30.3396   43.4801 C   0  0  0  0  0  0  0  0  0  0  0  0
   34.5880   29.2763   43.9459 C   0  0  0  0  0  0  0  0  0  0  0  0
   34.6810   28.9945   45.2950 C   0  0  0  0  0  0  0  0  0  0  0  0
   35.4852   29.7410   46.0954 C   0  0  0  0  0  0  0  0  0  0  0  0
   36.2278   30.7802   45.6489 C   0  0  0  0  0  0  0  0  0  0  0  0
   38.3254   33.5744   44.2464 H   0  0  0  0  0  0  0  0  0  0  0  0
   36.8883   32.3573   42.7579 H   0  0  0  0  0  0  0  0  0  0  0  0
   35.2903   30.5750   42.4209 H   0  0  0  0  0  0  0  0  0  0  0  0
   33.9741   28.7265   43.2738 H   0  0  0  0  0  0  0  0  0  0  0  0
   34.0771   28.1545   45.6485 H   0  0  0  0  0  0  0  0  0  0  0  0
   35.5168   29.4175   47.1026 H   0  0  0  0  0  0  0  0  0  0  0  0
  1  6  2  0
  2  1  1  0
  3  4  1  0
  3  2  2  0
  4  5  2  0
  5  7  1  0
  5  6  1  0
  7  8  1  0
  9  7  1  0
 10  7  1  0
  1 11  1  0
  2 12  1  0
 13 14  2  0
 14 15  1  0
 14 16  1  0
 16 17  2  0
 17 18  1  0
 18 19  2  0
 19 20  1  0
 20 21  2  0
 21 22  1  0
 22 23  2  0
 23 13  1  0
 23 18  1  0
 16 24  1  0
 17 25  1  0
 19 26  1  0
 20 27  1  0
 21 28  1  0
 22 29  1  0
  3 13  1  0
M  ISO  3  11  14  12  14  15  15
M  END
>  <DihAtoms>  (1) 
3,2,12,13

>  <DihDeg>  (1) 
-32.813208269965244

$$$$
