
 OpenBabel03272508053D

 37 41  0  0  0  0  0  0  0  0999 V2000
   38.5260   30.9150   45.5100 C   0  0  0  0  0  0  0  0  0  0  0  0
   39.8970   31.0630   45.6750 C   0  0  0  0  0  0  0  0  0  0  0  0
   40.5350   31.1810   44.4420 C   0  0  0  0  0  0  0  0  0  0  0  0
   39.4960   31.0970   43.5700 N   0  0  0  0  0  0  0  0  0  0  0  0
   38.3370   30.9440   44.1760 N   0  0  0  0  0  0  0  0  0  0  0  0
   40.4160   31.0850   46.6240 H   0  0  0  0  0  0  0  0  0  0  0  0
   41.5610   31.3050   44.1940 H   0  0  0  0  0  0  0  0  0  0  0  0
   37.5290   30.7670   46.5520 C   0  0  0  0  0  0  0  0  0  0  0  0
   37.9000   31.0870   47.8870 C   0  0  0  0  0  0  0  0  0  0  0  0
   36.9230   30.9370   48.8700 C   0  0  0  0  0  0  0  0  0  0  0  0
   35.6900   30.5020   48.5050 N   0  0  0  0  0  0  0  0  0  0  0  0
   35.3670   30.2070   47.2270 C   0  0  0  0  0  0  0  0  0  0  0  0
   36.2980   30.3440   46.2610 N   0  0  0  0  0  0  0  0  0  0  0  0
   38.9000   31.4300   48.1210 H   0  0  0  0  0  0  0  0  0  0  0  0
   34.3730   29.8620   46.9740 H   0  0  0  0  0  0  0  0  0  0  0  0
   37.2930   31.2680   50.2820 C   0  0  0  0  0  0  0  0  0  0  0  0
   36.7740   32.5160   50.5130 F   0  0  0  0  0  0  0  0  0  0  0  0
   36.7420   30.3660   51.1930 F   0  0  0  0  0  0  0  0  0  0  0  0
   38.6690   31.3170   50.4590 F   0  0  0  0  0  0  0  0  0  0  0  0
   39.5560   31.1710   42.1160 C   0  0  0  0  0  0  0  0  0  0  0  0
   40.6520   30.6930   41.3910 C   0  0  0  0  0  0  0  0  0  0  0  0
   40.6530   30.7770   40.0330 C   0  0  0  0  0  0  0  0  0  0  0  0
   39.5590   31.3460   39.3540 C   0  0  0  0  0  0  0  0  0  0  0  0
   38.4800   31.7710   40.7950 S   0  0  0  0  0  0  0  0  0  0  0  0
   41.5050   30.2510   41.9350 H   0  0  0  0  0  0  0  0  0  0  0  0
   41.4710   30.3760   39.4790 H   0  0  0  0  0  0  0  0  0  0  0  0
   39.0660   31.6050   38.0910 C   0  0  0  0  0  0  0  0  0  0  0  0
   38.3080   30.6120   37.4470 C   0  0  0  0  0  0  0  0  0  0  0  0
   38.0780   29.6260   37.8660 H   0  0  0  0  0  0  0  0  0  0  0  0
   37.7550   30.7580   36.1930 C   0  0  0  0  0  3  0  0  0  0  0  0
   37.9460   31.9300   35.5200 C   0  0  0  0  0  3  0  0  0  0  0  0
   38.6670   32.9640   36.0600 C   0  0  0  0  0  0  0  0  0  0  0  0
   38.8060   34.1390   35.3590 C   0  0  0  0  0  3  0  0  0  0  0  0
   39.5020   35.1900   35.9180 C   0  0  0  0  0  3  0  0  0  0  0  0
   40.0240   34.9760   37.1820 C   0  0  0  0  0  3  0  0  0  0  0  0
   39.8580   33.7810   37.8430 C   0  0  0  0  0  3  0  0  0  0  0  0
   39.1760   32.7270   37.3070 C   0  0  0  0  0  0  0  0  0  0  0  0
  1  2  1  0  0  0  0
  1  8  1  0  0  0  0
  2  6  1  0  0  0  0
  3  2  2  0  0  0  0
  4  5  1  0  0  0  0
  4  3  1  0  0  0  0
  5  1  2  0  0  0  0
  7  3  1  0  0  0  0
  8  9  1  0  0  0  0
  9 14  1  0  0  0  0
  9 10  2  0  0  0  0
 10 16  1  0  0  0  0
 11 10  1  0  0  0  0
 12 11  2  0  0  0  0
 13  8  2  0  0  0  0
 13 12  1  0  0  0  0
 15 12  1  0  0  0  0
 16 19  1  0  0  0  0
 16 17  1  0  0  0  0
 16 18  1  0  0  0  0
 20  4  1  0  0  0  0
 21 25  1  0  0  0  0
 21 20  2  0  0  0  0
 22 21  1  0  0  0  0
 23 22  2  0  0  0  0
 23 24  1  0  0  0  0
 24 20  1  0  0  0  0
 26 22  1  0  0  0  0
 27 23  1  0  0  0  0
 28 29  1  0  0  0  0
 28 27  1  0  0  0  0
 30 28  2  0  0  0  0
 31 32  2  0  0  0  0
 31 30  1  0  0  0  0
 32 37  1  0  0  0  0
 33 34  2  0  0  0  0
 33 32  1  0  0  0  0
 34 35  1  0  0  0  0
 35 36  2  0  0  0  0
 37 36  1  0  0  0  0
 37 27  2  0  0  0  0
M  END
>  <minimizedAffinity>
-5.56530523

>  <minimizedRMSD>
4.63120604

$$$$
