
 OpenBabel03272507493D

 48 53  0  0  1  0  0  0  0  0999 V2000
   37.1100   27.6280   31.7590 N   0  0  0  0  0  0  0  0  0  0  0  0
   36.5790   26.3490   31.4480 C   0  0  0  0  0  0  0  0  0  0  0  0
   36.8020   25.2610   32.4370 C   0  0  0  0  0  0  0  0  0  0  0  0
   38.0950   25.2490   33.1160 C   0  0  1  0  0  0  0  0  0  0  0  0
   38.6590   26.6580   33.3540 C   0  0  0  0  0  0  0  0  0  0  0  0
   38.5140   27.4410   32.0430 C   0  0  0  0  0  0  0  0  0  0  0  0
   37.0440   26.0160   30.4880 H   0  0  0  0  0  0  0  0  0  0  0  0
   35.4890   26.3830   31.2240 H   0  0  0  0  0  0  0  0  0  0  0  0
   36.5010   24.3040   32.0180 H   0  0  0  0  0  0  0  0  0  0  0  0
   36.0270   25.5200   33.2350 H   0  0  0  0  0  0  0  0  0  0  0  0
   38.9100   24.7590   32.5120 H   0  0  0  0  0  0  0  0  0  0  0  0
   39.7420   26.5910   33.5320 H   0  0  0  0  0  0  0  0  0  0  0  0
   38.1100   27.1980   34.1230 H   0  0  0  0  0  0  0  0  0  0  0  0
   38.9450   28.4480   32.2150 H   0  0  0  0  0  0  0  0  0  0  0  0
   39.0700   26.9560   31.2140 H   0  0  0  0  0  0  0  0  0  0  0  0
   38.1000   23.2250   34.4960 C   0  0  0  0  0  0  0  0  0  0  0  0
   38.0910   24.6060   34.4540 C   0  0  0  0  0  0  0  0  0  0  0  0
   38.0540   25.4000   35.5700 C   0  0  0  0  0  0  0  0  0  0  0  0
   38.0220   24.7740   36.8110 C   0  0  0  0  0  0  0  0  0  0  0  0
   38.0300   23.3970   36.8530 C   0  0  0  0  0  0  0  0  0  0  0  0
   38.0690   22.5910   35.7260 C   0  0  0  0  0  0  0  0  0  0  0  0
   37.9930   22.9600   38.1910 O   0  0  0  0  0  0  0  0  0  0  0  0
   38.3260   24.1110   38.9550 C   0  0  0  0  0  0  0  0  0  0  0  0
   37.9820   25.2050   38.1420 O   0  0  0  0  0  0  0  0  0  0  0  0
   38.1410   22.4990   33.6960 H   0  0  0  0  0  0  0  0  0  0  0  0
   38.0480   26.4610   35.5090 H   0  0  0  0  0  0  0  0  0  0  0  0
   38.0740   21.4940   35.8400 H   0  0  0  0  0  0  0  0  0  0  0  0
   37.7500   24.1430   39.9010 H   0  0  0  0  0  0  0  0  0  0  0  0
   39.4320   24.0930   39.1550 H   0  0  0  0  0  0  0  0  0  0  0  0
   36.4410   28.8750   31.7960 C   0  0  0  0  0  0  0  0  0  0  0  0
   36.1070   29.6630   30.7050 C   0  0  0  0  0  0  0  0  0  0  0  0
   35.4540   30.8610   30.9700 C   0  0  0  0  0  0  0  0  0  0  0  0
   35.1780   31.2040   32.2680 N   0  0  0  0  0  0  0  0  0  0  0  0
   35.5200   30.4120   33.3000 C   0  0  0  0  0  0  0  0  0  0  0  0
   36.1250   29.3060   33.0090 N   0  0  0  0  0  0  0  0  0  0  0  0
   36.3780   29.2820   29.7430 H   0  0  0  0  0  0  0  0  0  0  0  0
   35.1920   31.4710   30.1440 H   0  0  0  0  0  0  0  0  0  0  0  0
   35.1210   31.0000   34.5670 C   0  0  0  0  0  0  0  0  0  0  0  0
   35.8720   31.9840   35.1800 C   0  0  0  0  0  0  0  0  0  0  0  0
   36.7940   32.3640   34.7500 H   0  0  0  0  0  0  0  0  0  0  0  0
   35.5510   32.5840   36.3770 C   0  0  0  0  0  3  0  0  0  0  0  0
   34.4130   32.2120   37.0480 C   0  0  0  0  0  3  0  0  0  0  0  0
   33.6320   31.2450   36.4890 C   0  0  0  0  0  0  0  0  0  0  0  0
   32.4910   30.8840   37.1730 C   0  0  0  0  0  3  0  0  0  0  0  0
   31.6430   29.9140   36.6750 C   0  0  0  0  0  3  0  0  0  0  0  0
   32.0090   29.3420   35.4680 C   0  0  0  0  0  3  0  0  0  0  0  0
   33.1470   29.7270   34.8210 C   0  0  0  0  0  3  0  0  0  0  0  0
   33.9990   30.6780   35.2900 C   0  0  0  0  0  0  0  0  0  0  0  0
  1 30  1  0  0  0  0
  1  6  1  0  0  0  0
  2  1  1  0  0  0  0
  2  3  1  0  0  0  0
  3  4  1  0  0  0  0
  3 10  1  0  0  0  0
  4 11  1  6  0  0  0
  4  5  1  0  0  0  0
  4 17  1  0  0  0  0
  5 12  1  0  0  0  0
  5 13  1  0  0  0  0
  6 14  1  0  0  0  0
  6  5  1  0  0  0  0
  7  2  1  0  0  0  0
  8  2  1  0  0  0  0
  9  3  1  0  0  0  0
 15  6  1  0  0  0  0
 16 21  1  0  0  0  0
 17 16  2  0  0  0  0
 17 18  1  0  0  0  0
 18 19  2  0  0  0  0
 19 20  1  0  0  0  0
 19 24  1  0  0  0  0
 20 22  1  0  0  0  0
 21 27  1  0  0  0  0
 21 20  2  0  0  0  0
 22 23  1  0  0  0  0
 23 29  1  0  0  0  0
 23 28  1  0  0  0  0
 24 23  1  0  0  0  0
 25 16  1  0  0  0  0
 26 18  1  0  0  0  0
 30 35  1  0  0  0  0
 31 32  1  0  0  0  0
 31 30  2  0  0  0  0
 32 33  2  0  0  0  0
 33 34  1  0  0  0  0
 34 38  1  0  0  0  0
 35 34  2  0  0  0  0
 36 31  1  0  0  0  0
 37 32  1  0  0  0  0
 38 39  2  0  0  0  0
 38 48  1  0  0  0  0
 39 41  1  0  0  0  0
 40 39  1  0  0  0  0
 41 42  2  0  0  0  0
 43 42  1  0  0  0  0
 43 44  1  0  0  0  0
 45 44  2  0  0  0  0
 46 45  1  0  0  0  0
 47 48  1  0  0  0  0
 47 46  2  0  0  0  0
 48 43  2  0  0  0  0
M  END
>  <minimizedAffinity>
-7.77609348

$$$$

 OpenBabel03272507493D

 48 53  0  0  1  0  0  0  0  0999 V2000
   37.0010   27.7110   31.6620 N   0  0  0  0  0  0  0  0  0  0  0  0
   36.4100   26.4240   31.5580 C   0  0  0  0  0  0  0  0  0  0  0  0
   36.8360   25.4000   32.5470 C   0  0  0  0  0  0  0  0  0  0  0  0
   38.2450   25.4080   32.9330 C   0  0  1  0  0  0  0  0  0  0  0  0
   38.8520   26.8190   32.9490 C   0  0  0  0  0  0  0  0  0  0  0  0
   38.4320   27.5180   31.6500 C   0  0  0  0  0  0  0  0  0  0  0  0
   36.6560   26.0210   30.5450 H   0  0  0  0  0  0  0  0  0  0  0  0
   35.2970   26.4640   31.5700 H   0  0  0  0  0  0  0  0  0  0  0  0
   36.4480   24.4220   32.2680 H   0  0  0  0  0  0  0  0  0  0  0  0
   36.2520   25.7240   33.4730 H   0  0  0  0  0  0  0  0  0  0  0  0
   38.9100   24.8650   32.2030 H   0  0  0  0  0  0  0  0  0  0  0  0
   39.9470   26.7440   32.8960 H   0  0  0  0  0  0  0  0  0  0  0  0
   38.4830   27.4180   33.7800 H   0  0  0  0  0  0  0  0  0  0  0  0
   38.8940   28.5260   31.6580 H   0  0  0  0  0  0  0  0  0  0  0  0
   38.7950   26.9700   30.7550 H   0  0  0  0  0  0  0  0  0  0  0  0
   37.7160   25.2700   35.3210 C   0  0  0  0  0  0  0  0  0  0  0  0
   38.5260   24.8540   34.2810 C   0  0  0  0  0  0  0  0  0  0  0  0
   39.5750   23.9860   34.4350 C   0  0  0  0  0  0  0  0  0  0  0  0
   39.8350   23.5010   35.7120 C   0  0  0  0  0  0  0  0  0  0  0  0
   39.0280   23.9170   36.7490 C   0  0  0  0  0  0  0  0  0  0  0  0
   37.9650   24.7930   36.5970 C   0  0  0  0  0  0  0  0  0  0  0  0
   39.4520   23.3200   37.9530 O   0  0  0  0  0  0  0  0  0  0  0  0
   40.3060   22.2590   37.5470 C   0  0  0  0  0  0  0  0  0  0  0  0
   40.7760   22.6310   36.2740 O   0  0  0  0  0  0  0  0  0  0  0  0
   36.8620   25.9310   35.3240 H   0  0  0  0  0  0  0  0  0  0  0  0
   40.1820   23.6830   33.6170 H   0  0  0  0  0  0  0  0  0  0  0  0
   37.3640   25.0790   37.4760 H   0  0  0  0  0  0  0  0  0  0  0  0
   41.1580   22.1420   38.2470 H   0  0  0  0  0  0  0  0  0  0  0  0
   39.6960   21.3180   37.4890 H   0  0  0  0  0  0  0  0  0  0  0  0
   36.3600   28.9700   31.7570 C   0  0  0  0  0  0  0  0  0  0  0  0
   36.0860   29.8360   30.7090 C   0  0  0  0  0  0  0  0  0  0  0  0
   35.4520   31.0300   31.0290 C   0  0  0  0  0  0  0  0  0  0  0  0
   35.1340   31.2940   32.3350 N   0  0  0  0  0  0  0  0  0  0  0  0
   35.4160   30.4280   33.3240 C   0  0  0  0  0  0  0  0  0  0  0  0
   36.0060   29.3280   32.9830 N   0  0  0  0  0  0  0  0  0  0  0  0
   36.3860   29.5130   29.7340 H   0  0  0  0  0  0  0  0  0  0  0  0
   35.2370   31.7000   30.2360 H   0  0  0  0  0  0  0  0  0  0  0  0
   34.9820   30.9410   34.6120 C   0  0  0  0  0  0  0  0  0  0  0  0
   35.6920   31.9180   35.2810 C   0  0  0  0  0  0  0  0  0  0  0  0
   36.6060   32.3470   34.8840 H   0  0  0  0  0  0  0  0  0  0  0  0
   35.3360   32.4490   36.5010 C   0  0  0  0  0  3  0  0  0  0  0  0
   34.2020   32.0090   37.1370 C   0  0  0  0  0  3  0  0  0  0  0  0
   33.4600   31.0460   36.5210 C   0  0  0  0  0  0  0  0  0  0  0  0
   32.3230   30.6160   37.1700 C   0  0  0  0  0  3  0  0  0  0  0  0
   31.5140   29.6440   36.6150 C   0  0  0  0  0  3  0  0  0  0  0  0
   31.9140   29.1420   35.3870 C   0  0  0  0  0  3  0  0  0  0  0  0
   33.0480   29.5940   34.7760 C   0  0  0  0  0  3  0  0  0  0  0  0
   33.8620   30.5490   35.3020 C   0  0  0  0  0  0  0  0  0  0  0  0
  1 30  1  0  0  0  0
  2  8  1  0  0  0  0
  2  1  1  0  0  0  0
  2  3  1  0  0  0  0
  3  4  1  0  0  0  0
  3 10  1  0  0  0  0
  4 11  1  6  0  0  0
  4  5  1  0  0  0  0
  4 17  1  0  0  0  0
  5 13  1  0  0  0  0
  6 14  1  0  0  0  0
  6  1  1  0  0  0  0
  6  5  1  0  0  0  0
  7  2  1  0  0  0  0
  9  3  1  0  0  0  0
 12  5  1  0  0  0  0
 15  6  1  0  0  0  0
 16 25  1  0  0  0  0
 16 21  1  0  0  0  0
 17 18  1  0  0  0  0
 17 16  2  0  0  0  0
 18 19  2  0  0  0  0
 19 24  1  0  0  0  0
 19 20  1  0  0  0  0
 20 22  1  0  0  0  0
 21 20  2  0  0  0  0
 21 27  1  0  0  0  0
 23 22  1  0  0  0  0
 23 28  1  0  0  0  0
 24 23  1  0  0  0  0
 26 18  1  0  0  0  0
 29 23  1  0  0  0  0
 30 35  1  0  0  0  0
 31 32  1  0  0  0  0
 31 30  2  0  0  0  0
 32 33  2  0  0  0  0
 33 34  1  0  0  0  0
 34 38  1  0  0  0  0
 35 34  2  0  0  0  0
 36 31  1  0  0  0  0
 37 32  1  0  0  0  0
 38 39  2  0  0  0  0
 38 48  1  0  0  0  0
 39 41  1  0  0  0  0
 40 39  1  0  0  0  0
 41 42  2  0  0  0  0
 43 42  1  0  0  0  0
 43 44  1  0  0  0  0
 45 44  2  0  0  0  0
 46 45  1  0  0  0  0
 47 48  1  0  0  0  0
 47 46  2  0  0  0  0
 48 43  2  0  0  0  0
M  END
>  <minimizedAffinity>
-7.60932922

$$$$

 OpenBabel03272507493D

 48 53  0  0  1  0  0  0  0  0999 V2000
   37.1460   27.2560   31.6330 N   0  0  0  0  0  0  0  0  0  0  0  0
   36.7660   25.9230   31.3260 C   0  0  0  0  0  0  0  0  0  0  0  0
   37.0430   24.8840   32.3520 C   0  0  0  0  0  0  0  0  0  0  0  0
   38.2920   25.0180   33.0990 C   0  0  1  0  0  0  0  0  0  0  0  0
   38.6950   26.4820   33.3310 C   0  0  0  0  0  0  0  0  0  0  0  0
   38.5440   27.2200   31.9950 C   0  0  0  0  0  0  0  0  0  0  0  0
   37.3150   25.6210   30.4000 H   0  0  0  0  0  0  0  0  0  0  0  0
   35.6920   25.8400   31.0430 H   0  0  0  0  0  0  0  0  0  0  0  0
   36.8640   23.8920   31.9420 H   0  0  0  0  0  0  0  0  0  0  0  0
   36.2030   25.0760   33.1010 H   0  0  0  0  0  0  0  0  0  0  0  0
   39.1840   24.6020   32.5520 H   0  0  0  0  0  0  0  0  0  0  0  0
   39.7670   26.5290   33.5690 H   0  0  0  0  0  0  0  0  0  0  0  0
   38.0520   26.9770   34.0570 H   0  0  0  0  0  0  0  0  0  0  0  0
   38.8600   28.2690   32.1660 H   0  0  0  0  0  0  0  0  0  0  0  0
   39.1910   26.7790   31.2090 H   0  0  0  0  0  0  0  0  0  0  0  0
   38.3720   23.0270   34.5250 C   0  0  0  0  0  0  0  0  0  0  0  0
   38.2780   24.4030   34.4510 C   0  0  0  0  0  0  0  0  0  0  0  0
   38.1500   25.2170   35.5460 C   0  0  0  0  0  0  0  0  0  0  0  0
   38.1130   24.6160   36.8000 C   0  0  0  0  0  0  0  0  0  0  0  0
   38.2060   23.2440   36.8730 C   0  0  0  0  0  0  0  0  0  0  0  0
   38.3360   22.4180   35.7670 C   0  0  0  0  0  0  0  0  0  0  0  0
   38.1470   22.8320   38.2190 O   0  0  0  0  0  0  0  0  0  0  0  0
   38.3790   24.0180   38.9680 C   0  0  0  0  0  0  0  0  0  0  0  0
   37.9960   25.0710   38.1180 O   0  0  0  0  0  0  0  0  0  0  0  0
   38.4880   22.2880   33.7440 H   0  0  0  0  0  0  0  0  0  0  0  0
   38.0800   26.2740   35.4600 H   0  0  0  0  0  0  0  0  0  0  0  0
   38.4050   21.3260   35.9070 H   0  0  0  0  0  0  0  0  0  0  0  0
   37.7670   24.0330   39.8920 H   0  0  0  0  0  0  0  0  0  0  0  0
   39.4750   24.0740   39.2070 H   0  0  0  0  0  0  0  0  0  0  0  0
   36.3530   28.4280   31.6030 C   0  0  0  0  0  0  0  0  0  0  0  0
   36.3720   29.4110   30.6250 C   0  0  0  0  0  0  0  0  0  0  0  0
   35.5100   30.4870   30.7980 C   0  0  0  0  0  0  0  0  0  0  0  0
   34.7000   30.5300   31.9010 N   0  0  0  0  0  0  0  0  0  0  0  0
   34.7110   29.5560   32.8290 C   0  0  0  0  0  0  0  0  0  0  0  0
   35.5270   28.5720   32.6300 N   0  0  0  0  0  0  0  0  0  0  0  0
   37.0520   29.2600   29.8130 H   0  0  0  0  0  0  0  0  0  0  0  0
   35.5160   31.2440   30.0560 H   0  0  0  0  0  0  0  0  0  0  0  0
   33.7670   29.8380   33.8970 C   0  0  0  0  0  0  0  0  0  0  0  0
   32.4900   29.3140   33.8940 C   0  0  0  0  0  0  0  0  0  0  0  0
   32.1270   28.6710   33.0980 H   0  0  0  0  0  0  0  0  0  0  0  0
   31.5480   29.5390   34.8730 C   0  0  0  0  0  3  0  0  0  0  0  0
   31.8530   30.3330   35.9500 C   0  0  0  0  0  3  0  0  0  0  0  0
   33.1010   30.8780   36.0060 C   0  0  0  0  0  0  0  0  0  0  0  0
   33.3940   31.6710   37.0940 C   0  0  0  0  0  3  0  0  0  0  0  0
   34.6360   32.2590   37.2290 C   0  0  0  0  0  3  0  0  0  0  0  0
   35.5490   32.0020   36.2190 C   0  0  0  0  0  3  0  0  0  0  0  0
   35.2200   31.2110   35.1570 C   0  0  0  0  0  3  0  0  0  0  0  0
   34.0050   30.6210   35.0000 C   0  0  0  0  0  0  0  0  0  0  0  0
  1  6  1  0  0  0  0
  2  1  1  0  0  0  0
  2  3  1  0  0  0  0
  3  4  1  0  0  0  0
  3 10  1  0  0  0  0
  4 11  1  6  0  0  0
  4  5  1  0  0  0  0
  4 17  1  0  0  0  0
  5 12  1  0  0  0  0
  5 13  1  0  0  0  0
  6 14  1  0  0  0  0
  6  5  1  0  0  0  0
  7  2  1  0  0  0  0
  8  2  1  0  0  0  0
  9  3  1  0  0  0  0
 15  6  1  0  0  0  0
 16 21  1  0  0  0  0
 17 16  2  0  0  0  0
 17 18  1  0  0  0  0
 18 19  2  0  0  0  0
 19 20  1  0  0  0  0
 19 24  1  0  0  0  0
 20 22  1  0  0  0  0
 21 27  1  0  0  0  0
 21 20  2  0  0  0  0
 22 23  1  0  0  0  0
 23 29  1  0  0  0  0
 23 28  1  0  0  0  0
 24 23  1  0  0  0  0
 25 16  1  0  0  0  0
 26 18  1  0  0  0  0
 30  1  1  0  0  0  0
 30 35  1  0  0  0  0
 31 32  1  0  0  0  0
 31 30  2  0  0  0  0
 32 33  2  0  0  0  0
 33 34  1  0  0  0  0
 34 38  1  0  0  0  0
 35 34  2  0  0  0  0
 36 31  1  0  0  0  0
 37 32  1  0  0  0  0
 38 48  1  0  0  0  0
 39 38  2  0  0  0  0
 39 41  1  0  0  0  0
 40 39  1  0  0  0  0
 41 42  2  0  0  0  0
 42 43  1  0  0  0  0
 43 44  1  0  0  0  0
 44 45  2  0  0  0  0
 46 45  1  0  0  0  0
 47 46  2  0  0  0  0
 48 47  1  0  0  0  0
 48 43  2  0  0  0  0
M  END
>  <minimizedAffinity>
-7.59425735

$$$$

 OpenBabel03272507493D

 48 53  0  0  1  0  0  0  0  0999 V2000
   37.4470   27.7540   32.0380 N   0  0  0  0  0  0  0  0  0  0  0  0
   38.0570   27.0650   30.9570 C   0  0  0  0  0  0  0  0  0  0  0  0
   37.8210   25.6000   30.8640 C   0  0  0  0  0  0  0  0  0  0  0  0
   37.7760   24.8630   32.1250 C   0  0  1  0  0  0  0  0  0  0  0  0
   37.1810   25.6860   33.2780 C   0  0  0  0  0  0  0  0  0  0  0  0
   37.8430   27.0700   33.2470 C   0  0  0  0  0  0  0  0  0  0  0  0
   39.1610   27.2120   31.0440 H   0  0  0  0  0  0  0  0  0  0  0  0
   37.8010   27.5110   29.9690 H   0  0  0  0  0  0  0  0  0  0  0  0
   38.4650   25.1620   30.1050 H   0  0  0  0  0  0  0  0  0  0  0  0
   36.7610   25.5690   30.4410 H   0  0  0  0  0  0  0  0  0  0  0  0
   38.7970   24.5940   32.5190 H   0  0  0  0  0  0  0  0  0  0  0  0
   37.4860   25.2410   34.2360 H   0  0  0  0  0  0  0  0  0  0  0  0
   36.1080   25.8310   33.1700 H   0  0  0  0  0  0  0  0  0  0  0  0
   37.4260   27.6490   34.0960 H   0  0  0  0  0  0  0  0  0  0  0  0
   38.9430   27.0000   33.3730 H   0  0  0  0  0  0  0  0  0  0  0  0
   36.0680   23.4710   31.0560 C   0  0  0  0  0  0  0  0  0  0  0  0
   36.9740   23.6150   32.0890 C   0  0  0  0  0  0  0  0  0  0  0  0
   37.1480   22.6870   33.0830 C   0  0  0  0  0  0  0  0  0  0  0  0
   36.3650   21.5390   33.0430 C   0  0  0  0  0  0  0  0  0  0  0  0
   35.4620   21.3950   32.0130 C   0  0  0  0  0  0  0  0  0  0  0  0
   35.2830   22.3310   31.0060 C   0  0  0  0  0  0  0  0  0  0  0  0
   34.7700   20.1760   32.1510 O   0  0  0  0  0  0  0  0  0  0  0  0
   35.5370   19.4310   33.0870 C   0  0  0  0  0  0  0  0  0  0  0  0
   36.2390   20.3920   33.8360 O   0  0  0  0  0  0  0  0  0  0  0  0
   35.8510   24.1170   30.2170 H   0  0  0  0  0  0  0  0  0  0  0  0
   37.8520   22.8240   33.8660 H   0  0  0  0  0  0  0  0  0  0  0  0
   34.5390   22.1440   30.2140 H   0  0  0  0  0  0  0  0  0  0  0  0
   34.8830   18.8330   33.7530 H   0  0  0  0  0  0  0  0  0  0  0  0
   36.2460   18.7720   32.5170 H   0  0  0  0  0  0  0  0  0  0  0  0
   36.6090   28.8940   31.9960 C   0  0  0  0  0  0  0  0  0  0  0  0
   36.1200   29.5160   30.8570 C   0  0  0  0  0  0  0  0  0  0  0  0
   35.3150   30.6330   31.0460 C   0  0  0  0  0  0  0  0  0  0  0  0
   35.0470   31.0610   32.3190 N   0  0  0  0  0  0  0  0  0  0  0  0
   35.5400   30.4300   33.4000 C   0  0  0  0  0  0  0  0  0  0  0  0
   36.2850   29.3950   33.1800 N   0  0  0  0  0  0  0  0  0  0  0  0
   36.4030   29.0830   29.9200 H   0  0  0  0  0  0  0  0  0  0  0  0
   34.9350   31.1160   30.1820 H   0  0  0  0  0  0  0  0  0  0  0  0
   35.1140   31.0800   34.6270 C   0  0  0  0  0  0  0  0  0  0  0  0
   35.7990   32.1570   35.1550 C   0  0  0  0  0  0  0  0  0  0  0  0
   36.6870   32.5680   34.6850 H   0  0  0  0  0  0  0  0  0  0  0  0
   35.4490   32.8190   36.3110 C   0  0  0  0  0  3  0  0  0  0  0  0
   34.3480   32.4180   37.0250 C   0  0  0  0  0  3  0  0  0  0  0  0
   33.6320   31.3590   36.5500 C   0  0  0  0  0  0  0  0  0  0  0  0
   32.5280   30.9700   37.2760 C   0  0  0  0  0  3  0  0  0  0  0  0
   31.7460   29.9090   36.8640 C   0  0  0  0  0  3  0  0  0  0  0  0
   32.1390   29.2760   35.6960 C   0  0  0  0  0  3  0  0  0  0  0  0
   33.2400   29.6920   35.0050 C   0  0  0  0  0  3  0  0  0  0  0  0
   34.0260   30.7330   35.3890 C   0  0  0  0  0  0  0  0  0  0  0  0
  1  6  1  0  0  0  0
  2  7  1  0  0  0  0
  2  1  1  0  0  0  0
  3  2  1  0  0  0  0
  3  4  1  0  0  0  0
  4 11  1  1  0  0  0
  4  5  1  0  0  0  0
  5 12  1  0  0  0  0
  6  5  1  0  0  0  0
  6 15  1  0  0  0  0
  6 14  1  0  0  0  0
  8  2  1  0  0  0  0
  9  3  1  0  0  0  0
 10  3  1  0  0  0  0
 13  5  1  0  0  0  0
 16 17  1  0  0  0  0
 17  4  1  0  0  0  0
 17 18  2  0  0  0  0
 18 26  1  0  0  0  0
 19 18  1  0  0  0  0
 19 24  1  0  0  0  0
 20 22  1  0  0  0  0
 20 19  2  0  0  0  0
 21 16  2  0  0  0  0
 21 20  1  0  0  0  0
 22 23  1  0  0  0  0
 23 28  1  0  0  0  0
 23 24  1  0  0  0  0
 25 16  1  0  0  0  0
 27 21  1  0  0  0  0
 29 23  1  0  0  0  0
 30  1  1  0  0  0  0
 30 35  1  0  0  0  0
 31 32  1  0  0  0  0
 31 30  2  0  0  0  0
 32 33  2  0  0  0  0
 33 34  1  0  0  0  0
 34 38  1  0  0  0  0
 35 34  2  0  0  0  0
 36 31  1  0  0  0  0
 37 32  1  0  0  0  0
 38 39  2  0  0  0  0
 38 48  1  0  0  0  0
 39 41  1  0  0  0  0
 40 39  1  0  0  0  0
 41 42  2  0  0  0  0
 43 42  1  0  0  0  0
 43 44  1  0  0  0  0
 45 44  2  0  0  0  0
 46 45  1  0  0  0  0
 47 48  1  0  0  0  0
 47 46  2  0  0  0  0
 48 43  2  0  0  0  0
M  END
>  <minimizedAffinity>
-7.37577105

$$$$

 OpenBabel03272507493D

 48 53  0  0  1  0  0  0  0  0999 V2000
   38.0110   26.5780   31.9720 N   0  0  0  0  0  0  0  0  0  0  0  0
   37.6720   27.4700   30.9200 C   0  0  0  0  0  0  0  0  0  0  0  0
   37.0260   28.7540   31.3010 C   0  0  0  0  0  0  0  0  0  0  0  0
   36.0710   28.7040   32.4060 C   0  0  1  0  0  0  0  0  0  0  0  0
   36.4450   27.6640   33.4720 C   0  0  0  0  0  0  0  0  0  0  0  0
   36.8090   26.3640   32.7430 C   0  0  0  0  0  0  0  0  0  0  0  0
   36.9630   26.9370   30.2410 H   0  0  0  0  0  0  0  0  0  0  0  0
   38.5430   27.7110   30.2690 H   0  0  0  0  0  0  0  0  0  0  0  0
   36.6660   29.2720   30.4140 H   0  0  0  0  0  0  0  0  0  0  0  0
   37.9200   29.3530   31.6810 H   0  0  0  0  0  0  0  0  0  0  0  0
   35.0420   28.3700   32.0900 H   0  0  0  0  0  0  0  0  0  0  0  0
   35.5560   27.4210   34.0700 H   0  0  0  0  0  0  0  0  0  0  0  0
   37.3110   27.9670   34.0580 H   0  0  0  0  0  0  0  0  0  0  0  0
   37.0540   25.6120   33.5200 H   0  0  0  0  0  0  0  0  0  0  0  0
   35.9600   25.9840   32.1380 H   0  0  0  0  0  0  0  0  0  0  0  0
   35.9730   31.1510   32.4230 C   0  0  0  0  0  0  0  0  0  0  0  0
   35.9120   29.9780   33.1500 C   0  0  0  0  0  0  0  0  0  0  0  0
   35.7390   29.9340   34.5090 C   0  0  0  0  0  0  0  0  0  0  0  0
   35.6200   31.1420   35.1880 C   0  0  0  0  0  0  0  0  0  0  0  0
   35.6810   32.3110   34.4630 C   0  0  0  0  0  0  0  0  0  0  0  0
   35.8550   32.3600   33.0890 C   0  0  0  0  0  0  0  0  0  0  0  0
   35.5430   33.4160   35.3260 O   0  0  0  0  0  0  0  0  0  0  0  0
   35.0370   32.8670   36.5350 C   0  0  0  0  0  0  0  0  0  0  0  0
   35.4380   31.5190   36.5230 O   0  0  0  0  0  0  0  0  0  0  0  0
   36.0910   31.3140   31.3610 H   0  0  0  0  0  0  0  0  0  0  0  0
   35.6960   29.0170   35.0430 H   0  0  0  0  0  0  0  0  0  0  0  0
   35.8940   33.3360   32.5780 H   0  0  0  0  0  0  0  0  0  0  0  0
   35.4650   33.3830   37.4180 H   0  0  0  0  0  0  0  0  0  0  0  0
   33.9180   32.9510   36.5190 H   0  0  0  0  0  0  0  0  0  0  0  0
   39.2640   25.9820   32.2530 C   0  0  0  0  0  0  0  0  0  0  0  0
   40.4160   26.0880   31.4880 C   0  0  0  0  0  0  0  0  0  0  0  0
   41.5400   25.4120   31.9480 C   0  0  0  0  0  0  0  0  0  0  0  0
   41.4620   24.6860   33.1070 N   0  0  0  0  0  0  0  0  0  0  0  0
   40.3240   24.6070   33.8210 C   0  0  0  0  0  0  0  0  0  0  0  0
   39.3020   25.2520   33.3580 N   0  0  0  0  0  0  0  0  0  0  0  0
   40.3470   26.6850   30.6030 H   0  0  0  0  0  0  0  0  0  0  0  0
   42.4270   25.4860   31.3720 H   0  0  0  0  0  0  0  0  0  0  0  0
   40.5010   23.7780   35.0000 C   0  0  0  0  0  0  0  0  0  0  0  0
   41.5210   22.8530   35.0920 C   0  0  0  0  0  0  0  0  0  0  0  0
   42.2380   22.6970   34.2910 H   0  0  0  0  0  0  0  0  0  0  0  0
   41.7470   22.0380   36.1790 C   0  0  0  0  0  3  0  0  0  0  0  0
   40.9250   22.1150   37.2760 C   0  0  0  0  0  3  0  0  0  0  0  0
   39.9000   23.0120   37.2410 C   0  0  0  0  0  0  0  0  0  0  0  0
   39.0850   23.0790   38.3500 C   0  0  0  0  0  3  0  0  0  0  0  0
   38.0240   23.9630   38.3990 C   0  0  0  0  0  3  0  0  0  0  0  0
   37.8410   24.7610   37.2820 C   0  0  0  0  0  3  0  0  0  0  0  0
   38.6700   24.6640   36.2030 C   0  0  0  0  0  3  0  0  0  0  0  0
   39.7190   23.8030   36.1290 C   0  0  0  0  0  0  0  0  0  0  0  0
  1 30  1  0  0  0  0
  1  6  1  0  0  0  0
  2  3  1  0  0  0  0
  2  1  1  0  0  0  0
  3 10  1  0  0  0  0
  3  4  1  0  0  0  0
  4 11  1  6  0  0  0
  4 17  1  0  0  0  0
  4  5  1  0  0  0  0
  5 13  1  0  0  0  0
  5 12  1  0  0  0  0
  6  5  1  0  0  0  0
  6 14  1  0  0  0  0
  7  2  1  0  0  0  0
  8  2  1  0  0  0  0
  9  3  1  0  0  0  0
 15  6  1  0  0  0  0
 16 21  2  0  0  0  0
 16 17  1  0  0  0  0
 17 18  2  0  0  0  0
 18 26  1  0  0  0  0
 18 19  1  0  0  0  0
 19 24  1  0  0  0  0
 20 19  2  0  0  0  0
 20 22  1  0  0  0  0
 21 20  1  0  0  0  0
 22 23  1  0  0  0  0
 23 28  1  0  0  0  0
 24 23  1  0  0  0  0
 25 16  1  0  0  0  0
 27 21  1  0  0  0  0
 29 23  1  0  0  0  0
 30 35  1  0  0  0  0
 31 32  1  0  0  0  0
 31 30  2  0  0  0  0
 32 33  2  0  0  0  0
 33 34  1  0  0  0  0
 34 38  1  0  0  0  0
 35 34  2  0  0  0  0
 36 31  1  0  0  0  0
 37 32  1  0  0  0  0
 38 39  2  0  0  0  0
 38 48  1  0  0  0  0
 39 41  1  0  0  0  0
 40 39  1  0  0  0  0
 41 42  2  0  0  0  0
 43 42  1  0  0  0  0
 43 44  1  0  0  0  0
 44 45  2  0  0  0  0
 46 45  1  0  0  0  0
 47 46  2  0  0  0  0
 48 47  1  0  0  0  0
 48 43  2  0  0  0  0
M  END
>  <minimizedAffinity>
-7.29903746

$$$$

 OpenBabel03272507493D

 48 53  0  0  1  0  0  0  0  0999 V2000
   37.9160   27.1720   31.8640 N   0  0  0  0  0  0  0  0  0  0  0  0
   38.8280   26.5750   30.9550 C   0  0  0  0  0  0  0  0  0  0  0  0
   38.7310   25.1040   30.7630 C   0  0  0  0  0  0  0  0  0  0  0  0
   38.4240   24.3080   31.9490 C   0  0  1  0  0  0  0  0  0  0  0  0
   37.4980   25.0370   32.9350 C   0  0  0  0  0  0  0  0  0  0  0  0
   38.0430   26.4600   33.1140 C   0  0  0  0  0  0  0  0  0  0  0  0
   39.8610   26.7870   31.3250 H   0  0  0  0  0  0  0  0  0  0  0  0
   38.7980   27.0490   29.9480 H   0  0  0  0  0  0  0  0  0  0  0  0
   39.5760   24.7430   30.1810 H   0  0  0  0  0  0  0  0  0  0  0  0
   37.8170   25.0250   30.0830 H   0  0  0  0  0  0  0  0  0  0  0  0
   39.3280   24.0860   32.5820 H   0  0  0  0  0  0  0  0  0  0  0  0
   37.5820   24.5680   33.9260 H   0  0  0  0  0  0  0  0  0  0  0  0
   36.4790   25.1180   32.5610 H   0  0  0  0  0  0  0  0  0  0  0  0
   37.3840   26.9700   33.8450 H   0  0  0  0  0  0  0  0  0  0  0  0
   39.0780   26.4540   33.5140 H   0  0  0  0  0  0  0  0  0  0  0  0
   38.3970   22.1250   30.8380 C   0  0  0  0  0  0  0  0  0  0  0  0
   37.7500   23.0140   31.6740 C   0  0  0  0  0  0  0  0  0  0  0  0
   36.5220   22.7750   32.2340 C   0  0  0  0  0  0  0  0  0  0  0  0
   35.8990   21.5670   31.9400 C   0  0  0  0  0  0  0  0  0  0  0  0
   36.5440   20.6810   31.1060 C   0  0  0  0  0  0  0  0  0  0  0  0
   37.7860   20.9190   30.5380 C   0  0  0  0  0  0  0  0  0  0  0  0
   35.7540   19.5270   30.9310 O   0  0  0  0  0  0  0  0  0  0  0  0
   34.7850   19.5950   31.9680 C   0  0  0  0  0  0  0  0  0  0  0  0
   34.6890   20.9590   32.2940 O   0  0  0  0  0  0  0  0  0  0  0  0
   39.3600   22.1920   30.3520 H   0  0  0  0  0  0  0  0  0  0  0  0
   36.0460   23.4770   32.8740 H   0  0  0  0  0  0  0  0  0  0  0  0
   38.2400   20.1590   29.8800 H   0  0  0  0  0  0  0  0  0  0  0  0
   33.8030   19.2160   31.6220 H   0  0  0  0  0  0  0  0  0  0  0  0
   35.1630   19.0000   32.8430 H   0  0  0  0  0  0  0  0  0  0  0  0
   37.0340   28.2570   31.6430 C   0  0  0  0  0  0  0  0  0  0  0  0
   37.0390   29.1130   30.5510 C   0  0  0  0  0  0  0  0  0  0  0  0
   36.0830   30.1220   30.5390 C   0  0  0  0  0  0  0  0  0  0  0  0
   35.2010   30.2260   31.5810 N   0  0  0  0  0  0  0  0  0  0  0  0
   35.2300   29.3770   32.6240 C   0  0  0  0  0  0  0  0  0  0  0  0
   36.1340   28.4520   32.5960 N   0  0  0  0  0  0  0  0  0  0  0  0
   37.7800   28.9250   29.8030 H   0  0  0  0  0  0  0  0  0  0  0  0
   36.0770   30.7810   29.7080 H   0  0  0  0  0  0  0  0  0  0  0  0
   34.1980   29.7010   33.5940 C   0  0  0  0  0  0  0  0  0  0  0  0
   32.9080   29.2240   33.4690 C   0  0  0  0  0  0  0  0  0  0  0  0
   32.6010   28.5890   32.6450 H   0  0  0  0  0  0  0  0  0  0  0  0
   31.8850   29.4910   34.3520 C   0  0  0  0  0  3  0  0  0  0  0  0
   32.1140   30.2820   35.4500 C   0  0  0  0  0  3  0  0  0  0  0  0
   33.3700   30.7810   35.6230 C   0  0  0  0  0  0  0  0  0  0  0  0
   33.5850   31.5720   36.7310 C   0  0  0  0  0  3  0  0  0  0  0  0
   34.8300   32.1160   36.9840 C   0  0  0  0  0  3  0  0  0  0  0  0
   35.8260   31.8170   36.0680 C   0  0  0  0  0  3  0  0  0  0  0  0
   35.5720   31.0300   34.9830 C   0  0  0  0  0  3  0  0  0  0  0  0
   34.3570   30.4830   34.7110 C   0  0  0  0  0  0  0  0  0  0  0  0
  1  6  1  0  0  0  0
  2  7  1  0  0  0  0
  2  1  1  0  0  0  0
  3  2  1  0  0  0  0
  3  4  1  0  0  0  0
  4 11  1  1  0  0  0
  4  5  1  0  0  0  0
  5  6  1  0  0  0  0
  5 12  1  0  0  0  0
  6 15  1  0  0  0  0
  6 14  1  0  0  0  0
  8  2  1  0  0  0  0
  9  3  1  0  0  0  0
 10  3  1  0  0  0  0
 13  5  1  0  0  0  0
 16 17  1  0  0  0  0
 17  4  1  0  0  0  0
 17 18  2  0  0  0  0
 18 26  1  0  0  0  0
 19 18  1  0  0  0  0
 19 24  1  0  0  0  0
 20 19  2  0  0  0  0
 21 16  2  0  0  0  0
 21 20  1  0  0  0  0
 22 20  1  0  0  0  0
 22 23  1  0  0  0  0
 23 24  1  0  0  0  0
 23 29  1  0  0  0  0
 25 16  1  0  0  0  0
 27 21  1  0  0  0  0
 28 23  1  0  0  0  0
 30  1  1  0  0  0  0
 30 35  1  0  0  0  0
 31 30  2  0  0  0  0
 32 31  1  0  0  0  0
 32 33  2  0  0  0  0
 33 34  1  0  0  0  0
 34 38  1  0  0  0  0
 35 34  2  0  0  0  0
 36 31  1  0  0  0  0
 37 32  1  0  0  0  0
 38 48  1  0  0  0  0
 39 38  2  0  0  0  0
 39 41  1  0  0  0  0
 40 39  1  0  0  0  0
 41 42  2  0  0  0  0
 42 43  1  0  0  0  0
 43 44  1  0  0  0  0
 44 45  2  0  0  0  0
 46 45  1  0  0  0  0
 47 46  2  0  0  0  0
 48 47  1  0  0  0  0
 48 43  2  0  0  0  0
M  END
>  <minimizedAffinity>
-7.25356531

$$$$

 OpenBabel03272507493D

 48 53  0  0  1  0  0  0  0  0999 V2000
   36.8800   25.3860   31.3140 N   0  0  0  0  0  0  0  0  0  0  0  0
   37.9430   26.2920   31.0590 C   0  0  0  0  0  0  0  0  0  0  0  0
   37.7740   27.6890   31.5370 C   0  0  0  0  0  0  0  0  0  0  0  0
   36.4330   28.2590   31.4320 C   0  0  1  0  0  0  0  0  0  0  0  0
   35.3230   27.2170   31.6360 C   0  0  0  0  0  0  0  0  0  0  0  0
   35.6790   25.9900   30.7870 C   0  0  0  0  0  0  0  0  0  0  0  0
   38.0860   26.3410   29.9520 H   0  0  0  0  0  0  0  0  0  0  0  0
   38.9210   25.9200   31.4420 H   0  0  0  0  0  0  0  0  0  0  0  0
   38.5670   28.3210   31.1430 H   0  0  0  0  0  0  0  0  0  0  0  0
   37.9830   27.5730   32.6530 H   0  0  0  0  0  0  0  0  0  0  0  0
   36.2010   28.6650   30.4070 H   0  0  0  0  0  0  0  0  0  0  0  0
   34.3840   27.6000   31.2120 H   0  0  0  0  0  0  0  0  0  0  0  0
   35.2480   26.8910   32.6720 H   0  0  0  0  0  0  0  0  0  0  0  0
   34.8610   25.2530   30.9200 H   0  0  0  0  0  0  0  0  0  0  0  0
   35.7520   26.2460   29.7100 H   0  0  0  0  0  0  0  0  0  0  0  0
   35.9030   28.9580   33.7200 C   0  0  0  0  0  0  0  0  0  0  0  0
   36.1350   29.3350   32.4110 C   0  0  0  0  0  0  0  0  0  0  0  0
   36.0790   30.6320   31.9720 C   0  0  0  0  0  0  0  0  0  0  0  0
   35.7710   31.6190   32.9020 C   0  0  0  0  0  0  0  0  0  0  0  0
   35.5400   31.2430   34.2070 C   0  0  0  0  0  0  0  0  0  0  0  0
   35.5960   29.9320   34.6540 C   0  0  0  0  0  0  0  0  0  0  0  0
   35.2450   32.3790   34.9860 O   0  0  0  0  0  0  0  0  0  0  0  0
   35.6600   33.4800   34.1890 C   0  0  0  0  0  0  0  0  0  0  0  0
   35.6220   33.0100   32.8640 O   0  0  0  0  0  0  0  0  0  0  0  0
   35.9300   27.9830   34.1850 H   0  0  0  0  0  0  0  0  0  0  0  0
   36.2620   30.8940   30.9590 H   0  0  0  0  0  0  0  0  0  0  0  0
   35.3980   29.7100   35.7160 H   0  0  0  0  0  0  0  0  0  0  0  0
   34.9720   34.3410   34.3080 H   0  0  0  0  0  0  0  0  0  0  0  0
   36.7080   33.7540   34.4860 H   0  0  0  0  0  0  0  0  0  0  0  0
   36.9320   24.1230   31.9520 C   0  0  0  0  0  0  0  0  0  0  0  0
   36.0780   23.0530   31.7300 C   0  0  0  0  0  0  0  0  0  0  0  0
   36.3060   21.9020   32.4750 C   0  0  0  0  0  0  0  0  0  0  0  0
   37.3370   21.8770   33.3770 N   0  0  0  0  0  0  0  0  0  0  0  0
   38.1430   22.9370   33.5650 C   0  0  0  0  0  0  0  0  0  0  0  0
   37.8970   23.9880   32.8500 N   0  0  0  0  0  0  0  0  0  0  0  0
   35.3120   23.2000   30.9980 H   0  0  0  0  0  0  0  0  0  0  0  0
   35.6600   21.0770   32.3130 H   0  0  0  0  0  0  0  0  0  0  0  0
   39.1510   22.6580   34.5730 C   0  0  0  0  0  0  0  0  0  0  0  0
   40.3620   22.0810   34.2480 C   0  0  0  0  0  0  0  0  0  0  0  0
   40.6200   21.8040   33.2310 H   0  0  0  0  0  0  0  0  0  0  0  0
   41.3600   21.7920   35.1520 C   0  0  0  0  0  3  0  0  0  0  0  0
   41.1860   22.0810   36.4830 C   0  0  0  0  0  3  0  0  0  0  0  0
   40.0090   22.6530   36.8610 C   0  0  0  0  0  0  0  0  0  0  0  0
   39.8490   22.9400   38.1990 C   0  0  0  0  0  3  0  0  0  0  0  0
   38.6880   23.5230   38.6670 C   0  0  0  0  0  3  0  0  0  0  0  0
   37.7150   23.7950   37.7180 C   0  0  0  0  0  3  0  0  0  0  0  0
   37.9110   23.4950   36.4020 C   0  0  0  0  0  3  0  0  0  0  0  0
   39.0440   22.9210   35.9160 C   0  0  0  0  0  0  0  0  0  0  0  0
  1 30  1  0  0  0  0
  2  1  1  0  0  0  0
  2  8  1  0  0  0  0
  2  3  1  0  0  0  0
  3 10  1  0  0  0  0
  4 11  1  6  0  0  0
  4  3  1  0  0  0  0
  4  5  1  0  0  0  0
  4 17  1  0  0  0  0
  5 13  1  0  0  0  0
  6 14  1  0  0  0  0
  6  1  1  0  0  0  0
  6  5  1  0  0  0  0
  7  2  1  0  0  0  0
  9  3  1  0  0  0  0
 12  5  1  0  0  0  0
 15  6  1  0  0  0  0
 16 25  1  0  0  0  0
 16 21  1  0  0  0  0
 17 16  2  0  0  0  0
 18 17  1  0  0  0  0
 18 19  2  0  0  0  0
 19 20  1  0  0  0  0
 20 21  2  0  0  0  0
 20 22  1  0  0  0  0
 21 27  1  0  0  0  0
 23 28  1  0  0  0  0
 23 29  1  0  0  0  0
 23 22  1  0  0  0  0
 24 19  1  0  0  0  0
 24 23  1  0  0  0  0
 26 18  1  0  0  0  0
 30 35  1  0  0  0  0
 31 30  2  0  0  0  0
 31 32  1  0  0  0  0
 32 33  2  0  0  0  0
 33 34  1  0  0  0  0
 34 38  1  0  0  0  0
 35 34  2  0  0  0  0
 36 31  1  0  0  0  0
 37 32  1  0  0  0  0
 38 48  1  0  0  0  0
 39 38  2  0  0  0  0
 39 41  1  0  0  0  0
 40 39  1  0  0  0  0
 41 42  2  0  0  0  0
 42 43  1  0  0  0  0
 43 44  1  0  0  0  0
 44 45  2  0  0  0  0
 46 45  1  0  0  0  0
 47 46  2  0  0  0  0
 48 47  1  0  0  0  0
 48 43  2  0  0  0  0
M  END
>  <minimizedAffinity>
-7.16816759

$$$$

 OpenBabel03272507493D

 48 53  0  0  1  0  0  0  0  0999 V2000
   36.5880   27.3700   32.8800 N   0  0  0  0  0  0  0  0  0  0  0  0
   36.7860   28.1660   34.0380 C   0  0  0  0  0  0  0  0  0  0  0  0
   35.6340   28.9780   34.5100 C   0  0  0  0  0  0  0  0  0  0  0  0
   34.7920   29.5810   33.4790 C   0  0  1  0  0  0  0  0  0  0  0  0
   34.6800   28.7130   32.2170 C   0  0  0  0  0  0  0  0  0  0  0  0
   36.0950   28.2510   31.8460 C   0  0  0  0  0  0  0  0  0  0  0  0
   37.6190   28.8780   33.8200 H   0  0  0  0  0  0  0  0  0  0  0  0
   37.1570   27.5720   34.9040 H   0  0  0  0  0  0  0  0  0  0  0  0
   35.9510   29.6630   35.2930 H   0  0  0  0  0  0  0  0  0  0  0  0
   34.9920   28.1840   35.0200 H   0  0  0  0  0  0  0  0  0  0  0  0
   35.2060   30.5470   33.0750 H   0  0  0  0  0  0  0  0  0  0  0  0
   34.3500   29.3380   31.3750 H   0  0  0  0  0  0  0  0  0  0  0  0
   34.0740   27.8230   32.3800 H   0  0  0  0  0  0  0  0  0  0  0  0
   36.0080   27.6460   30.9210 H   0  0  0  0  0  0  0  0  0  0  0  0
   36.7660   29.1110   31.6440 H   0  0  0  0  0  0  0  0  0  0  0  0
   32.3880   29.4370   33.0320 C   0  0  0  0  0  0  0  0  0  0  0  0
   33.3900   29.8410   33.8930 C   0  0  0  0  0  0  0  0  0  0  0  0
   33.1590   30.4820   35.0820 C   0  0  0  0  0  0  0  0  0  0  0  0
   31.8390   30.7390   35.4340 C   0  0  0  0  0  0  0  0  0  0  0  0
   30.8390   30.3370   34.5760 C   0  0  0  0  0  0  0  0  0  0  0  0
   31.0700   29.6880   33.3730 C   0  0  0  0  0  0  0  0  0  0  0  0
   29.5830   30.6880   35.1080 O   0  0  0  0  0  0  0  0  0  0  0  0
   29.8410   30.9860   36.4730 C   0  0  0  0  0  0  0  0  0  0  0  0
   31.1990   31.3470   36.5210 O   0  0  0  0  0  0  0  0  0  0  0  0
   32.4420   28.9190   32.0850 H   0  0  0  0  0  0  0  0  0  0  0  0
   33.9500   30.7820   35.7250 H   0  0  0  0  0  0  0  0  0  0  0  0
   30.2160   29.3970   32.7380 H   0  0  0  0  0  0  0  0  0  0  0  0
   29.2110   31.8270   36.8240 H   0  0  0  0  0  0  0  0  0  0  0  0
   29.6520   30.0580   37.0780 H   0  0  0  0  0  0  0  0  0  0  0  0
   36.8150   25.9830   32.7130 C   0  0  0  0  0  0  0  0  0  0  0  0
   36.2090   25.1550   31.7800 C   0  0  0  0  0  0  0  0  0  0  0  0
   36.5770   23.8150   31.7950 C   0  0  0  0  0  0  0  0  0  0  0  0
   37.4980   23.3800   32.7100 N   0  0  0  0  0  0  0  0  0  0  0  0
   38.0640   24.2150   33.6010 C   0  0  0  0  0  0  0  0  0  0  0  0
   37.6940   25.4540   33.5520 N   0  0  0  0  0  0  0  0  0  0  0  0
   35.5060   25.6180   31.1200 H   0  0  0  0  0  0  0  0  0  0  0  0
   36.1200   23.1730   31.0850 H   0  0  0  0  0  0  0  0  0  0  0  0
   39.0000   23.5110   34.4590 C   0  0  0  0  0  0  0  0  0  0  0  0
   40.0560   22.7870   33.9420 C   0  0  0  0  0  0  0  0  0  0  0  0
   40.2380   22.7060   32.8750 H   0  0  0  0  0  0  0  0  0  0  0  0
   40.9810   22.0990   34.6970 C   0  0  0  0  0  3  0  0  0  0  0  0
   40.8880   22.1040   36.0670 C   0  0  0  0  0  3  0  0  0  0  0  0
   39.8640   22.8030   36.6330 C   0  0  0  0  0  0  0  0  0  0  0  0
   39.7850   22.8000   38.0080 C   0  0  0  0  0  3  0  0  0  0  0  0
   38.7810   23.4860   38.6630 C   0  0  0  0  0  3  0  0  0  0  0  0
   37.8770   24.1630   37.8590 C   0  0  0  0  0  3  0  0  0  0  0  0
   37.9890   24.1410   36.5000 C   0  0  0  0  0  3  0  0  0  0  0  0
   38.9680   23.4730   35.8310 C   0  0  0  0  0  0  0  0  0  0  0  0
  1  2  1  0  0  0  0
  2  3  1  0  0  0  0
  2  8  1  0  0  0  0
  3 10  1  0  0  0  0
  3  9  1  0  0  0  0
  4 11  1  6  0  0  0
  4 17  1  0  0  0  0
  4  3  1  0  0  0  0
  5 13  1  0  0  0  0
  5  4  1  0  0  0  0
  6  5  1  0  0  0  0
  6  1  1  0  0  0  0
  7  2  1  0  0  0  0
 12  5  1  0  0  0  0
 14  6  1  0  0  0  0
 15  6  1  0  0  0  0
 16 21  2  0  0  0  0
 16 17  1  0  0  0  0
 17 18  2  0  0  0  0
 18 19  1  0  0  0  0
 18 26  1  0  0  0  0
 19 24  1  0  0  0  0
 20 22  1  0  0  0  0
 20 19  2  0  0  0  0
 21 20  1  0  0  0  0
 22 23  1  0  0  0  0
 23 24  1  0  0  0  0
 23 28  1  0  0  0  0
 23 29  1  0  0  0  0
 25 16  1  0  0  0  0
 27 21  1  0  0  0  0
 30  1  1  0  0  0  0
 30 35  1  0  0  0  0
 31 32  1  0  0  0  0
 31 30  2  0  0  0  0
 32 33  2  0  0  0  0
 33 34  1  0  0  0  0
 34 38  1  0  0  0  0
 35 34  2  0  0  0  0
 36 31  1  0  0  0  0
 37 32  1  0  0  0  0
 38 48  1  0  0  0  0
 39 38  2  0  0  0  0
 39 41  1  0  0  0  0
 40 39  1  0  0  0  0
 41 42  2  0  0  0  0
 42 43  1  0  0  0  0
 43 44  1  0  0  0  0
 44 45  2  0  0  0  0
 46 45  1  0  0  0  0
 47 46  2  0  0  0  0
 48 47  1  0  0  0  0
 48 43  2  0  0  0  0
M  END
>  <minimizedAffinity>
-7.16597605

$$$$

 OpenBabel03272507493D

 48 53  0  0  1  0  0  0  0  0999 V2000
   36.4900   27.4330   32.7750 N   0  0  0  0  0  0  0  0  0  0  0  0
   36.9750   28.2930   33.7950 C   0  0  0  0  0  0  0  0  0  0  0  0
   35.9750   29.1260   34.5140 C   0  0  0  0  0  0  0  0  0  0  0  0
   34.8770   29.6660   33.7150 C   0  0  1  0  0  0  0  0  0  0  0  0
   34.4490   28.7280   32.5760 C   0  0  0  0  0  0  0  0  0  0  0  0
   35.7230   28.2520   31.8660 C   0  0  0  0  0  0  0  0  0  0  0  0
   37.7060   28.9960   33.3240 H   0  0  0  0  0  0  0  0  0  0  0  0
   37.5760   27.7510   34.5600 H   0  0  0  0  0  0  0  0  0  0  0  0
   36.4770   29.8550   35.1460 H   0  0  0  0  0  0  0  0  0  0  0  0
   35.5080   28.3590   35.2180 H   0  0  0  0  0  0  0  0  0  0  0  0
   35.1500   30.6100   33.1640 H   0  0  0  0  0  0  0  0  0  0  0  0
   33.8950   29.3030   31.8220 H   0  0  0  0  0  0  0  0  0  0  0  0
   33.9270   27.8460   32.9420 H   0  0  0  0  0  0  0  0  0  0  0  0
   35.4040   27.5960   31.0310 H   0  0  0  0  0  0  0  0  0  0  0  0
   36.2990   29.1030   31.4470 H   0  0  0  0  0  0  0  0  0  0  0  0
   33.7250   30.7910   35.5610 C   0  0  0  0  0  0  0  0  0  0  0  0
   33.6320   29.9430   34.4740 C   0  0  0  0  0  0  0  0  0  0  0  0
   32.4690   29.3330   34.0820 C   0  0  0  0  0  0  0  0  0  0  0  0
   31.3210   29.5870   34.8250 C   0  0  0  0  0  0  0  0  0  0  0  0
   31.4140   30.4320   35.9090 C   0  0  0  0  0  0  0  0  0  0  0  0
   32.5890   31.0510   36.3080 C   0  0  0  0  0  0  0  0  0  0  0  0
   30.1540   30.5580   36.5260 O   0  0  0  0  0  0  0  0  0  0  0  0
   29.2330   30.0510   35.5700 C   0  0  0  0  0  0  0  0  0  0  0  0
   29.9840   29.1790   34.7610 O   0  0  0  0  0  0  0  0  0  0  0  0
   34.5710   31.3350   35.9560 H   0  0  0  0  0  0  0  0  0  0  0  0
   32.4260   28.6850   33.2420 H   0  0  0  0  0  0  0  0  0  0  0  0
   32.5830   31.7160   37.1870 H   0  0  0  0  0  0  0  0  0  0  0  0
   28.4090   29.4980   36.0630 H   0  0  0  0  0  0  0  0  0  0  0  0
   28.8390   30.9140   34.9690 H   0  0  0  0  0  0  0  0  0  0  0  0
   36.6920   26.0400   32.6270 C   0  0  0  0  0  0  0  0  0  0  0  0
   36.0380   25.2030   31.7350 C   0  0  0  0  0  0  0  0  0  0  0  0
   36.3870   23.8580   31.7620 C   0  0  0  0  0  0  0  0  0  0  0  0
   37.3380   23.4280   32.6490 N   0  0  0  0  0  0  0  0  0  0  0  0
   37.9500   24.2710   33.5000 C   0  0  0  0  0  0  0  0  0  0  0  0
   37.5970   25.5140   33.4410 N   0  0  0  0  0  0  0  0  0  0  0  0
   35.3150   25.6630   31.0950 H   0  0  0  0  0  0  0  0  0  0  0  0
   35.8940   23.2090   31.0840 H   0  0  0  0  0  0  0  0  0  0  0  0
   38.9110   23.5700   34.3340 C   0  0  0  0  0  0  0  0  0  0  0  0
   39.9730   22.8750   33.7910 C   0  0  0  0  0  0  0  0  0  0  0  0
   40.1430   22.8160   32.7200 H   0  0  0  0  0  0  0  0  0  0  0  0
   40.9200   22.1920   34.5220 C   0  0  0  0  0  3  0  0  0  0  0  0
   40.8450   22.1720   35.8930 C   0  0  0  0  0  3  0  0  0  0  0  0
   39.8150   22.8420   36.4840 C   0  0  0  0  0  0  0  0  0  0  0  0
   39.7540   22.8140   37.8600 C   0  0  0  0  0  3  0  0  0  0  0  0
   38.7450   23.4690   38.5390 C   0  0  0  0  0  3  0  0  0  0  0  0
   37.8200   24.1430   37.7590 C   0  0  0  0  0  3  0  0  0  0  0  0
   37.9150   24.1460   36.3970 C   0  0  0  0  0  3  0  0  0  0  0  0
   38.8970   23.5090   35.7050 C   0  0  0  0  0  0  0  0  0  0  0  0
  1  2  1  0  0  0  0
  2  3  1  0  0  0  0
  2  8  1  0  0  0  0
  3  9  1  0  0  0  0
  3 10  1  0  0  0  0
  4 11  1  6  0  0  0
  4 17  1  0  0  0  0
  4  3  1  0  0  0  0
  5 13  1  0  0  0  0
  5  4  1  0  0  0  0
  6  5  1  0  0  0  0
  6  1  1  0  0  0  0
  7  2  1  0  0  0  0
 12  5  1  0  0  0  0
 14  6  1  0  0  0  0
 15  6  1  0  0  0  0
 16 25  1  0  0  0  0
 16 21  1  0  0  0  0
 17 16  2  0  0  0  0
 18 17  1  0  0  0  0
 18 19  2  0  0  0  0
 19 20  1  0  0  0  0
 20 21  2  0  0  0  0
 20 22  1  0  0  0  0
 21 27  1  0  0  0  0
 23 28  1  0  0  0  0
 23 22  1  0  0  0  0
 24 19  1  0  0  0  0
 24 23  1  0  0  0  0
 26 18  1  0  0  0  0
 29 23  1  0  0  0  0
 30  1  1  0  0  0  0
 30 35  1  0  0  0  0
 31 32  1  0  0  0  0
 31 30  2  0  0  0  0
 32 33  2  0  0  0  0
 33 34  1  0  0  0  0
 34 38  1  0  0  0  0
 35 34  2  0  0  0  0
 36 31  1  0  0  0  0
 37 32  1  0  0  0  0
 38 48  1  0  0  0  0
 39 38  2  0  0  0  0
 39 41  1  0  0  0  0
 40 39  1  0  0  0  0
 41 42  2  0  0  0  0
 42 43  1  0  0  0  0
 43 44  1  0  0  0  0
 44 45  2  0  0  0  0
 46 45  1  0  0  0  0
 47 46  2  0  0  0  0
 48 47  1  0  0  0  0
 48 43  2  0  0  0  0
M  END
>  <minimizedAffinity>
-7.11841536

$$$$
