
     RDKit          3D

 33 35  0  0  0  0  0  0  0  0999 V2000
   37.3267   30.2285   51.4118 C   0  0  0  0  0  0  0  0  0  0  0  0
   38.0466   30.6689   50.3053 C   0  0  0  0  0  0  0  0  0  0  0  0
   37.6208   30.2832   49.0358 C   0  0  0  0  0  0  0  0  0  0  0  0
   36.5037   29.4849   48.9855 N   0  0  0  0  0  0  0  0  0  0  0  0
   35.8346   29.0790   50.0647 C   0  0  0  0  0  0  0  0  0  0  0  0
   36.2523   29.4556   51.2830 N   0  0  0  0  0  0  0  0  0  0  0  0
   34.7433   28.2821   49.7534 O   0  0  0  0  0  0  0  0  0  0  0  0
   34.1938   28.3948   48.4538 C   0  0  0  0  0  0  0  0  0  0  0  0
   33.8332   27.0541   47.9087 C   0  0  0  0  0  0  0  0  0  0  0  0
   37.6986   30.5549   52.3651 H   0  0  0  0  0  0  0  0  0  0  0  0
   38.9321   31.2974   50.2963 H   0  0  0  0  0  0  0  0  0  0  0  0
   38.1062   30.5673   48.0977 H   0  0  0  0  0  0  0  0  0  0  0  0
   33.3586   29.0880   48.4275 H   0  0  0  0  0  0  0  0  0  0  0  0
   34.9638   28.8258   47.7567 H   0  0  0  0  0  0  0  0  0  0  0  0
   34.6762   26.3457   47.9430 H   0  0  0  0  0  0  0  0  0  0  0  0
   33.0654   26.6046   48.6045 H   0  0  0  0  0  0  0  0  0  0  0  0
   33.2597   27.1760   46.5536 C   0  0  0  0  0  0  0  0  0  0  0  0
   32.4006   26.1727   46.1253 C   0  0  0  0  0  0  0  0  0  0  0  0
   32.1647   25.3502   46.7926 H   0  0  0  0  0  0  0  0  0  0  0  0
   31.7882   26.1013   44.8961 C   0  0  0  0  0  0  0  0  0  0  0  0
   32.0730   27.1488   44.0134 C   0  0  0  0  0  0  0  0  0  0  0  0
   32.9219   28.1686   44.3969 C   0  0  0  0  0  0  0  0  0  0  0  0
   33.2348   29.2285   43.5699 C   0  0  0  0  0  0  0  0  0  0  0  0
   34.0755   30.2656   43.9243 C   0  0  0  0  0  0  0  0  0  0  0  0
   34.6199   30.2179   45.1785 C   0  0  0  0  0  0  0  0  0  0  0  0
   34.3513   29.1955   46.0481 C   0  0  0  0  0  0  0  0  0  0  0  0
   33.5101   28.1857   45.6517 C   0  0  0  0  0  0  0  0  0  0  0  0
   31.1316   25.2923   44.6272 H   0  0  0  0  0  0  0  0  0  0  0  0
   31.6325   27.1630   43.0331 H   0  0  0  0  0  0  0  0  0  0  0  0
   32.7542   29.1831   42.5905 H   0  0  0  0  0  0  0  0  0  0  0  0
   34.2489   31.0341   43.2080 H   0  0  0  0  0  0  0  0  0  0  0  0
   35.2793   31.0088   45.4905 H   0  0  0  0  0  0  0  0  0  0  0  0
   34.8106   29.2292   47.0219 H   0  0  0  0  0  0  0  0  0  0  0  0
  2  1  2  0
  3  2  1  0
  4  3  2  0
  4  5  1  0
  5  6  2  0
  6  1  1  0
  7  5  1  0
  8  7  1  0
  9  8  1  0
  1 10  1  0
  2 11  1  0
  3 12  1  0
  8 13  1  0
  8 14  1  0
  9 15  1  0
  9 16  1  0
 17 18  2  0
 18 19  1  0
 18 20  1  0
 20 21  2  0
 21 22  1  0
 22 23  2  0
 23 24  1  0
 24 25  2  0
 25 26  1  0
 26 27  2  0
 27 17  1  0
 27 22  1  0
 20 28  1  0
 21 29  1  0
 23 30  1  0
 24 31  1  0
 25 32  1  0
 26 33  1  0
  9 17  1  0
M  ISO  8  10  14  11  14  12  14  13   8  14   8  15   8  16   8  19  15
M  END
>  <DihAtoms>  (1) 
7,8,16,17

>  <DihDeg>  (1) 
100.56932808006867

$$$$
