REMARK  Name = 
REMARK  2 active torsions:
REMARK  status: ('A' for Active; 'I' for Inactive)
REMARK    1  A    between atoms: C_2  and  C_12
REMARK    2  A    between atoms: C_20  and  C_36
REMARK                            x       y       z     vdW  Elec       q    Type
REMARK                         _______ _______ _______ _____ _____    ______ ____
ROOT
ATOM      1  C   UNL     1      36.835  31.119  48.537  0.00  0.00    +0.000 A 
ATOM      2  N   UNL     1      36.788  32.010  49.561  0.00  0.00    +0.000 NA
ATOM      3  C   UNL     1      37.674  33.023  49.601  0.00  0.00    +0.000 A 
ATOM      4  N   UNL     1      38.647  33.233  48.667  0.00  0.00    +0.000 NA
ATOM      5  C   UNL     1      38.719  32.371  47.646  0.00  0.00    +0.000 A 
ATOM      6  C   UNL     1      39.673  32.478  46.646  0.00  0.00    +0.000 A 
ATOM      7  C   UNL     1      39.729  31.551  45.601  0.00  0.00    +0.000 A 
ATOM      8  C   UNL     1      38.804  30.501  45.569  0.00  0.00    +0.000 A 
ATOM      9  C   UNL     1      37.864  30.431  46.588  0.00  0.00    +0.000 A 
ATOM     10  C   UNL     1      37.817  31.339  47.603  0.00  0.00    +0.000 A 
ATOM     11  H   UNL     1      37.678  33.766  50.404  0.00  0.00    +0.000 HD
ATOM     12  H   UNL     1      40.347  33.324  46.755  0.00  0.00    +0.000 HD
ATOM     13  H   UNL     1      40.515  31.751  44.894  0.00  0.00    +0.000 HD
ATOM     14  H   UNL     1      39.026  29.914  44.692  0.00  0.00    +0.000 HD
ENDROOT
BRANCH   1  16
ATOM     15  C   UNL     1      35.845  28.912  49.371  0.00  0.00    +0.000 A 
ATOM     16  C   UNL     1      35.854  30.093  48.582  0.00  0.00    +0.000 A 
ATOM     17  C   UNL     1      34.776  30.310  47.711  0.00  0.00    +0.000 A 
ATOM     18  N   UNL     1      33.766  29.406  47.632  0.00  0.00    +0.000 NA
ATOM     19  C   UNL     1      33.817  28.285  48.414  0.00  0.00    +0.000 A 
ATOM     20  N   UNL     1      34.830  28.040  49.268  0.00  0.00    +0.000 NA
ATOM     21  N   UNL     1      32.735  27.338  48.272  0.00  0.00    +0.000 N 
ATOM     22  C   UNL     1      31.362  27.644  48.538  0.00  0.00    +0.000 C 
ATOM     23  C   UNL     1      30.616  26.437  48.058  0.00  0.00    +0.000 C 
ATOM     24  C   UNL     1      31.586  25.625  47.224  0.00  0.00    +0.000 C 
ATOM     25  C   UNL     1      32.903  25.940  47.831  0.00  0.00    +0.000 C 
ATOM     26  H   UNL     1      36.705  28.821  50.017  0.00  0.00    +0.000 HD
ATOM     27  H   UNL     1      34.637  31.140  47.071  0.00  0.00    +0.000 HD
ATOM     28  H   UNL     1      31.193  27.849  49.602  0.00  0.00    +0.000 HD
ATOM     29  H   UNL     1      31.012  28.506  47.900  0.00  0.00    +0.000 HD
ATOM     30  H   UNL     1      30.368  25.822  48.955  0.00  0.00    +0.000 HD
ATOM     31  H   UNL     1      29.684  26.679  47.518  0.00  0.00    +0.000 HD
ATOM     32  H   UNL     1      31.399  24.537  47.327  0.00  0.00    +0.000 HD
ATOM     33  H   UNL     1      31.531  25.985  46.177  0.00  0.00    +0.000 HD
ATOM     34  H   UNL     1      33.769  25.866  47.158  0.00  0.00    +0.000 HD
ATOM     35  H   UNL     1      33.050  25.325  48.748  0.00  0.00    +0.000 HD
ENDBRANCH   1  16
BRANCH   9  36
ATOM     36  C   UNL     1      37.081  29.279  46.171  0.00  0.00    +0.000 A 
ATOM     37  C   UNL     1      36.227  28.453  46.884  0.00  0.00    +0.000 A 
ATOM     38  H   UNL     1      36.133  28.792  47.929  0.00  0.00    +0.000 HD
ATOM     39  C   UNL     1      35.571  27.355  46.386  0.00  0.00    +0.000 A 
ATOM     40  C   UNL     1      35.786  27.054  45.060  0.00  0.00    +0.000 A 
ATOM     41  C   UNL     1      36.605  27.778  44.225  0.00  0.00    +0.000 A 
ATOM     42  C   UNL     1      36.830  27.483  42.900  0.00  0.00    +0.000 A 
ATOM     43  C   UNL     1      37.661  28.242  42.125  0.00  0.00    +0.000 A 
ATOM     44  C   UNL     1      38.296  29.329  42.664  0.00  0.00    +0.000 A 
ATOM     45  C   UNL     1      38.061  29.610  43.987  0.00  0.00    +0.000 A 
ATOM     46  C   UNL     1      37.218  28.861  44.819  0.00  0.00    +0.000 A 
ENDBRANCH   9  36
TORSDOF 2
