
     RDKit          3D

 53 58  0  0  0  0  0  0  0  0999 V2000
   36.2234   30.2022   46.8613 C   0  0  0  0  0  0  0  0  0  0  0  0
   37.0753   30.7461   47.8045 C   0  0  0  0  0  0  0  0  0  0  0  0
   38.0775   31.6546   47.4353 C   0  0  0  0  0  0  0  0  0  0  0  0
   38.1473   31.9591   46.0815 C   0  0  0  0  0  0  0  0  0  0  0  0
   39.0331   32.8175   45.4778 N   0  0  0  0  0  0  0  0  0  0  0  0
   38.7320   32.8058   44.1680 C   0  0  0  0  0  0  0  0  0  0  0  0
   37.7227   31.9940   43.9527 N   0  0  0  0  0  0  0  0  0  0  0  0
   37.3242   31.4445   45.1107 C   0  0  0  0  0  0  0  0  0  0  0  0
   36.3347   30.5394   45.5190 C   0  0  0  0  0  0  0  0  0  0  0  0
   37.4989   30.1671   51.4986 C   0  0  0  0  0  0  0  0  0  0  0  0
   37.7984   30.6016   50.2112 C   0  0  0  0  0  0  0  0  0  0  0  0
   36.9124   30.3603   49.1924 C   0  0  0  0  0  0  0  0  0  0  0  0
   35.7517   29.6860   49.5132 N   0  0  0  0  0  0  0  0  0  0  0  0
   35.4706   29.2691   50.7629 C   0  0  0  0  0  0  0  0  0  0  0  0
   36.3318   29.5079   51.7338 N   0  0  0  0  0  0  0  0  0  0  0  0
   39.4316   33.5707   43.2339 O   0  0  0  0  0  0  0  0  0  0  0  0
   39.5609   31.8305   41.7272 N   0  0  0  0  0  0  0  0  0  0  0  0
   39.2067   33.2430   41.8732 C   0  0  1  0  0  0  0  0  0  0  0  0
   37.8119   33.4422   41.5086 C   0  0  0  0  0  0  0  0  0  0  0  0
   37.6384   33.1267   40.1524 O   0  0  0  0  0  0  0  0  0  0  0  0
   38.0697   31.8692   39.7909 C   0  0  0  0  0  0  0  0  0  0  0  0
   39.4719   31.5995   40.3012 C   0  0  2  0  0  0  0  0  0  0  0  0
   35.4380   29.5000   47.0968 H   0  0  0  0  0  0  0  0  0  0  0  0
   38.7477   32.0852   48.1618 H   0  0  0  0  0  0  0  0  0  0  0  0
   39.7890   33.3646   45.9653 H   0  0  0  0  0  0  0  0  0  0  0  0
   35.6826   30.1299   44.7593 H   0  0  0  0  0  0  0  0  0  0  0  0
   38.2203   30.3748   52.2765 H   0  0  0  0  0  0  0  0  0  0  0  0
   38.6980   31.1239   49.9638 H   0  0  0  0  0  0  0  0  0  0  0  0
   34.5288   28.7462   50.9118 H   0  0  0  0  0  0  0  0  0  0  0  0
   38.8970   31.1845   42.1289 H   0  0  0  0  0  0  0  0  0  0  0  0
   39.8727   33.7809   41.1718 H   0  0  0  0  0  0  0  0  0  0  0  0
   37.6156   34.5588   41.5394 H   0  0  0  0  0  0  0  0  0  0  0  0
   36.9827   32.9849   41.9788 H   0  0  0  0  0  0  0  0  0  0  0  0
   38.0671   31.8292   38.6982 H   0  0  0  0  0  0  0  0  0  0  0  0
   37.4006   31.1180   40.2662 H   0  0  0  0  0  0  0  0  0  0  0  0
   40.1460   32.3748   39.8770 H   0  0  0  0  0  0  0  0  0  0  0  0
   39.8782   30.2240   40.0273 C   0  0  0  0  0  0  0  0  0  0  0  0
   40.7985   29.4763   40.7101 C   0  0  0  0  0  0  0  0  0  0  0  0
   41.3082   29.9029   41.5613 H   0  0  0  0  0  0  0  0  0  0  0  0
   41.1729   28.1795   40.4297 C   0  0  0  0  0  0  0  0  0  0  0  0
   40.5836   27.5360   39.3617 C   0  0  0  0  0  0  0  0  0  0  0  0
   39.6460   28.2363   38.6321 C   0  0  0  0  0  0  0  0  0  0  0  0
   39.0862   27.5477   37.5783 C   0  0  0  0  0  0  0  0  0  0  0  0
   38.1361   28.1664   36.7926 C   0  0  0  0  0  0  0  0  0  0  0  0
   37.7650   29.4646   37.0784 C   0  0  0  0  0  0  0  0  0  0  0  0
   38.3562   30.0870   38.1325 C   0  0  0  0  0  0  0  0  0  0  0  0
   39.3111   29.5482   38.9683 C   0  0  0  0  0  0  0  0  0  0  0  0
   41.9109   27.6463   41.0143 H   0  0  0  0  0  0  0  0  0  0  0  0
   40.8564   26.5378   39.1274 H   0  0  0  0  0  0  0  0  0  0  0  0
   39.3665   26.5316   37.3425 H   0  0  0  0  0  0  0  0  0  0  0  0
   37.7127   27.6043   35.9723 H   0  0  0  0  0  0  0  0  0  0  0  0
   37.0183   29.9466   36.4587 H   0  0  0  0  0  0  0  0  0  0  0  0
   38.0299   31.0966   38.3153 H   0  0  0  0  0  0  0  0  0  0  0  0
  1  2  2  0
  2 12  1  0
  3  2  1  0
  4  3  2  0
  5  4  1  0
  6  5  1  0
  7  6  2  0
  7  8  1  0
  8  9  2  0
  8  4  1  0
  9  1  1  0
 10 15  2  0
 11 10  1  0
 12 13  1  0
 12 11  2  0
 13 14  2  0
 14 15  1  0
 16  6  1  0
 17 18  1  0
 18 16  1  0
 19 18  1  0
 20 19  1  0
 21 20  1  0
 21 22  1  0
 22 17  1  0
  1 23  1  0
  3 24  1  0
  5 25  1  0
  9 26  1  0
 10 27  1  0
 11 28  1  0
 14 29  1  0
 17 30  1  0
 18 31  1  6
 19 32  1  0
 19 33  1  0
 21 34  1  0
 21 35  1  0
 22 36  1  6
 37 38  2  0
 38 39  1  0
 38 40  1  0
 40 41  2  0
 41 42  1  0
 42 43  2  0
 43 44  1  0
 44 45  2  0
 45 46  1  0
 46 47  2  0
 47 37  1  0
 47 42  1  0
 40 48  1  0
 41 49  1  0
 43 50  1  0
 44 51  1  0
 45 52  1  0
 46 53  1  0
 22 37  1  0
M  ISO  8  23  14  24  14  25   9  26  14  27  14  28  14  29  14  30   5
M  ISO  7  31  13  32  13  33  13  34  13  35  13  36  13  39  15
M  END
>  <DihAtoms>  (1) 
20,21,36,37

>  <DihDeg>  (1) 
-94.3535031717826

$$$$
