REMARK  Name = 
REMARK  2 active torsions:
REMARK  status: ('A' for Active; 'I' for Inactive)
REMARK    1  A    between atoms: C_5  and  C_7
REMARK    2  A    between atoms: C_12  and  C_20
REMARK                            x       y       z     vdW  Elec       q    Type
REMARK                         _______ _______ _______ _____ _____    ______ ____
ROOT
ATOM      1  C   UNL     1      36.101  30.139  48.600  0.00  0.00    +0.000 A 
ATOM      2  C   UNL     1      35.281  29.945  47.527  0.00  0.00    +0.000 A 
ATOM      3  C   UNL     1      34.294  28.987  47.497  0.00  0.00    +0.000 A 
ATOM      4  C   UNL     1      34.155  28.199  48.629  0.00  0.00    +0.000 A 
ATOM      5  C   UNL     1      34.964  28.359  49.743  0.00  0.00    +0.000 A 
ATOM      6  C   UNL     1      35.942  29.339  49.720  0.00  0.00    +0.000 A 
ATOM      7  H   UNL     1      35.403  30.575  46.641  0.00  0.00    +0.000 HD
ATOM      8  H   UNL     1      33.632  28.811  46.663  0.00  0.00    +0.000 HD
ATOM      9  H   UNL     1      33.413  27.402  48.741  0.00  0.00    +0.000 HD
ATOM     10  H   UNL     1      34.896  27.772  50.648  0.00  0.00    +0.000 HD
ENDROOT
BRANCH   6  11
ATOM     11  C   UNL     1      36.876  29.633  50.814  0.00  0.00    +0.000 A 
ATOM     12  C   UNL     1      37.041  31.009  51.010  0.00  0.00    +0.000 A 
ATOM     13  H   UNL     1      36.543  31.776  50.428  0.00  0.00    +0.000 HD
ATOM     14  C   UNL     1      37.906  31.409  52.023  0.00  0.00    +0.000 A 
ATOM     15  C   UNL     1      38.581  30.498  52.811  0.00  0.00    +0.000 A 
ATOM     16  C   UNL     1      38.380  29.157  52.573  0.00  0.00    +0.000 A 
ATOM     17  C   UNL     1      39.012  28.168  53.311  0.00  0.00    +0.000 A 
ATOM     18  C   UNL     1      38.796  26.837  53.056  0.00  0.00    +0.000 A 
ATOM     19  C   UNL     1      37.938  26.411  52.051  0.00  0.00    +0.000 A 
ATOM     20  C   UNL     1      37.290  27.387  51.294  0.00  0.00    +0.000 A 
ATOM     21  C   UNL     1      37.528  28.700  51.574  0.00  0.00    +0.000 A 
ENDBRANCH   6  11
BRANCH   1  26
ATOM     22  C   UNL     1      38.010  33.108  49.477  0.00  0.00    +0.000 A 
ATOM     23  C   UNL     1      38.972  33.205  48.464  0.00  0.00    +0.000 A 
ATOM     24  C   UNL     1      38.947  32.217  47.466  0.00  0.00    +0.000 A 
ATOM     25  N   UNL     1      38.017  31.235  47.523  0.00  0.00    +0.000 NA
ATOM     26  C   UNL     1      37.108  31.182  48.520  0.00  0.00    +0.000 A 
ATOM     27  N   UNL     1      37.095  32.120  49.509  0.00  0.00    +0.000 NA
ATOM     28  H   UNL     1      37.955  33.828  50.289  0.00  0.00    +0.000 HD
ATOM     29  H   UNL     1      39.657  34.032  48.529  0.00  0.00    +0.000 HD
ATOM     30  H   UNL     1      39.697  32.306  46.691  0.00  0.00    +0.000 HD
ENDBRANCH   1  26
TORSDOF 2
