
 OpenBabel03272510023D

 23 25  0  0  0  0  0  0  0  0999 V2000
   37.6690   30.4020   51.1810 C   0  0  0  0  0  0  0  0  0  0  0  0
   38.2680   31.0340   50.0930 C   0  0  0  0  0  0  0  0  0  0  0  0
   37.5950   31.0890   48.8840 C   0  0  0  0  0  0  0  0  0  0  0  0
   36.3690   30.4950   48.8700 N   0  0  0  0  0  0  0  0  0  0  0  0
   35.8000   29.8920   49.9070 C   0  0  0  0  0  0  0  0  0  0  0  0
   36.4650   29.8570   51.0500 N   0  0  0  0  0  0  0  0  0  0  0  0
   38.1930   30.3610   52.1260 H   0  0  0  0  0  0  0  0  0  0  0  0
   39.2530   31.4100   50.2480 H   0  0  0  0  0  0  0  0  0  0  0  0
   38.0510   31.6220   47.6250 C   0  0  0  0  0  0  0  0  0  0  0  0
   39.1410   32.4980   47.6830 C   0  0  0  0  0  0  0  0  0  0  0  0
   39.5920   32.7510   48.6360 H   0  0  0  0  0  0  0  0  0  0  0  0
   39.7260   33.0980   46.6070 C   0  0  0  0  0  3  0  0  0  0  0  0
   39.2380   32.8510   45.3450 C   0  0  0  0  0  3  0  0  0  0  0  0
   38.1770   32.0010   45.2230 C   0  0  0  0  0  0  0  0  0  0  0  0
   37.6860   31.7040   43.9720 C   0  0  0  0  0  3  0  0  0  0  0  0
   36.6310   30.8180   43.7900 C   0  0  0  0  0  3  0  0  0  0  0  0
   36.1000   30.2490   44.9290 C   0  0  0  0  0  3  0  0  0  0  0  0
   36.6050   30.5620   46.1500 C   0  0  0  0  0  3  0  0  0  0  0  0
   37.6310   31.4270   46.3360 C   0  0  0  0  0  0  0  0  0  0  0  0
   34.4580   29.2820   49.7310 C   0  0  0  0  0  0  0  0  0  0  0  0
   33.5630   29.6890   50.7060 F   0  0  0  0  0  0  0  0  0  0  0  0
   33.9100   29.6040   48.5000 F   0  0  0  0  0  0  0  0  0  0  0  0
   34.4980   27.8990   49.7580 F   0  0  0  0  0  0  0  0  0  0  0  0
  1  7  1  0  0  0  0
  2  8  1  0  0  0  0
  2  1  2  0  0  0  0
  3  2  1  0  0  0  0
  4  3  2  0  0  0  0
  4  5  1  0  0  0  0
  5  6  2  0  0  0  0
  6  1  1  0  0  0  0
  9 10  1  0  0  0  0
  9  3  1  0  0  0  0
 10 11  1  0  0  0  0
 12 10  2  0  0  0  0
 13 12  1  0  0  0  0
 14 13  2  0  0  0  0
 14 19  1  0  0  0  0
 15 14  1  0  0  0  0
 16 15  2  0  0  0  0
 16 17  1  0  0  0  0
 17 18  2  0  0  0  0
 18 19  1  0  0  0  0
 19  9  2  0  0  0  0
 20 23  1  0  0  0  0
 20  5  1  0  0  0  0
 20 21  1  0  0  0  0
 22 20  1  0  0  0  0
M  END
>  <minimizedAffinity>
-6.58758593

>  <minimizedRMSD>
1.83779705

$$$$
