REMARK  Name = 
REMARK  2 active torsions:
REMARK  status: ('A' for Active; 'I' for Inactive)
REMARK    1  A    between atoms: C_1  and  N_7
REMARK    2  A    between atoms: C_10  and  C_22
REMARK                            x       y       z     vdW  Elec       q    Type
REMARK                         _______ _______ _______ _____ _____    ______ ____
ROOT
ATOM      1  N   UNL     1      36.642  29.570  49.379  0.00  0.00    +0.000 N 
ATOM      2  C   UNL     1      37.648  30.497  48.872  0.00  0.00    +0.000 C 
ATOM      3  C   UNL     1      38.268  31.043  50.140  0.00  0.00    +0.000 C 
ATOM      4  C   UNL     1      37.531  30.401  51.296  0.00  0.00    +0.000 C 
ATOM      5  C   UNL     1      37.150  29.075  50.659  0.00  0.00    +0.000 C 
ATOM      6  H   UNL     1      37.242  31.270  48.225  0.00  0.00    +0.000 HD
ATOM      7  H   UNL     1      38.402  29.840  48.368  0.00  0.00    +0.000 HD
ATOM      8  H   UNL     1      39.358  30.857  50.185  0.00  0.00    +0.000 HD
ATOM      9  H   UNL     1      38.167  32.151  50.112  0.00  0.00    +0.000 HD
ATOM     10  H   UNL     1      36.656  31.029  51.501  0.00  0.00    +0.000 HD
ATOM     11  H   UNL     1      36.444  28.479  51.223  0.00  0.00    +0.000 HD
ATOM     12  H   UNL     1      38.127  28.560  50.426  0.00  0.00    +0.000 HD
ENDROOT
BRANCH   4  13
ATOM     13  C   UNL     1      38.465  30.220  52.387  0.00  0.00    +0.000 A 
ATOM     14  C   UNL     1      38.398  29.320  53.425  0.00  0.00    +0.000 A 
ATOM     15  H   UNL     1      37.583  28.646  53.480  0.00  0.00    +0.000 HD
ATOM     16  C   UNL     1      39.315  29.195  54.447  0.00  0.00    +0.000 A 
ATOM     17  C   UNL     1      40.411  30.033  54.462  0.00  0.00    +0.000 A 
ATOM     18  C   UNL     1      40.539  30.960  53.450  0.00  0.00    +0.000 A 
ATOM     19  C   UNL     1      41.654  31.757  53.531  0.00  0.00    +0.000 A 
ATOM     20  C   UNL     1      41.868  32.708  52.567  0.00  0.00    +0.000 A 
ATOM     21  C   UNL     1      40.962  32.843  51.542  0.00  0.00    +0.000 A 
ATOM     22  C   UNL     1      39.873  32.019  51.519  0.00  0.00    +0.000 A 
ATOM     23  C   UNL     1      39.595  31.043  52.453  0.00  0.00    +0.000 A 
ENDBRANCH   4  13
BRANCH   1  24
ATOM     24  C   UNL     1      35.426  29.217  48.757  0.00  0.00    +0.000 A 
ATOM     25  C   UNL     1      35.005  29.999  47.688  0.00  0.00    +0.000 A 
ATOM     26  C   UNL     1      33.808  29.683  47.034  0.00  0.00    +0.000 A 
ATOM     27  N   UNL     1      33.115  28.588  47.510  0.00  0.00    +0.000 NA
ATOM     28  C   UNL     1      33.563  27.850  48.559  0.00  0.00    +0.000 A 
ATOM     29  N   UNL     1      34.734  28.171  49.189  0.00  0.00    +0.000 NA
ATOM     30  H   UNL     1      35.494  30.850  47.278  0.00  0.00    +0.000 HD
ATOM     31  H   UNL     1      33.401  30.229  46.197  0.00  0.00    +0.000 HD
ATOM     32  H   UNL     1      32.946  26.995  48.870  0.00  0.00    +0.000 HD
ENDBRANCH   1  24
TORSDOF 2
