REMARK  Name = 
REMARK  2 active torsions:
REMARK  status: ('A' for Active; 'I' for Inactive)
REMARK    1  A    between atoms: C_1  and  N_7
REMARK    2  A    between atoms: C_8  and  C_22
REMARK                            x       y       z     vdW  Elec       q    Type
REMARK                         _______ _______ _______ _____ _____    ______ ____
ROOT
ATOM      1  N   UNL     1      36.646  29.588  49.380  0.00  0.00    +0.000 N 
ATOM      2  C   UNL     1      37.665  30.489  48.859  0.00  0.00    +0.000 C 
ATOM      3  C   UNL     1      38.318  30.998  50.116  0.00  0.00    +0.000 C 
ATOM      4  C   UNL     1      37.528  30.422  51.288  0.00  0.00    +0.000 C 
ATOM      5  C   UNL     1      37.065  29.126  50.694  0.00  0.00    +0.000 C 
ATOM      6  H   UNL     1      37.097  31.332  48.440  0.00  0.00    +0.000 HD
ATOM      7  H   UNL     1      38.271  32.098  50.241  0.00  0.00    +0.000 HD
ATOM      8  H   UNL     1      39.385  30.715  50.168  0.00  0.00    +0.000 HD
ATOM      9  H   UNL     1      36.697  31.043  51.614  0.00  0.00    +0.000 HD
ATOM     10  H   UNL     1      38.279  30.174  52.069  0.00  0.00    +0.000 HD
ATOM     11  H   UNL     1      37.752  28.299  50.711  0.00  0.00    +0.000 HD
ATOM     12  H   UNL     1      36.168  28.817  51.289  0.00  0.00    +0.000 HD
ENDROOT
BRANCH   2  13
ATOM     13  C   UNL     1      38.551  29.881  47.886  0.00  0.00    +0.000 A 
ATOM     14  C   UNL     1      38.427  28.616  47.349  0.00  0.00    +0.000 A 
ATOM     15  H   UNL     1      37.602  27.997  47.673  0.00  0.00    +0.000 HD
ATOM     16  C   UNL     1      39.266  28.039  46.418  0.00  0.00    +0.000 A 
ATOM     17  C   UNL     1      40.332  28.769  45.963  0.00  0.00    +0.000 A 
ATOM     18  C   UNL     1      40.526  30.045  46.450  0.00  0.00    +0.000 A 
ATOM     19  C   UNL     1      41.607  30.720  45.959  0.00  0.00    +0.000 A 
ATOM     20  C   UNL     1      41.870  31.999  46.399  0.00  0.00    +0.000 A 
ATOM     21  C   UNL     1      41.033  32.581  47.332  0.00  0.00    +0.000 A 
ATOM     22  C   UNL     1      39.968  31.847  47.782  0.00  0.00    +0.000 A 
ATOM     23  C   UNL     1      39.648  30.565  47.385  0.00  0.00    +0.000 A 
ENDBRANCH   2  13
BRANCH   1  24
ATOM     24  C   UNL     1      35.431  29.201  48.764  0.00  0.00    +0.000 A 
ATOM     25  C   UNL     1      34.983  30.017  47.715  0.00  0.00    +0.000 A 
ATOM     26  C   UNL     1      33.789  29.708  47.061  0.00  0.00    +0.000 A 
ATOM     27  N   UNL     1      33.124  28.584  47.517  0.00  0.00    +0.000 NA
ATOM     28  C   UNL     1      33.586  27.827  48.526  0.00  0.00    +0.000 A 
ATOM     29  N   UNL     1      34.756  28.132  49.164  0.00  0.00    +0.000 NA
ATOM     30  H   UNL     1      35.458  30.899  47.321  0.00  0.00    +0.000 HD
ATOM     31  H   UNL     1      33.385  30.277  46.259  0.00  0.00    +0.000 HD
ATOM     32  H   UNL     1      32.975  26.984  48.781  0.00  0.00    +0.000 HD
ENDBRANCH   1  24
TORSDOF 2
