
 OpenBabel03272503383D

 21 23  0  0  0  0  0  0  0  0999 V2000
   38.1610   25.4780   35.1820 C   0  0  0  0  0  0  0  0  0  0  0  0
   38.0440   26.7890   35.6730 C   0  0  0  0  0  0  0  0  0  0  0  0
   38.4210   27.0240   36.6630 H   0  0  0  0  0  0  0  0  0  0  0  0
   37.4780   27.8490   35.0030 C   0  0  0  0  0  3  0  0  0  0  0  0
   36.9830   27.6250   33.7480 C   0  0  0  0  0  3  0  0  0  0  0  0
   37.0550   26.3780   33.1840 C   0  0  0  0  0  0  0  0  0  0  0  0
   36.5860   26.1690   31.9040 C   0  0  0  0  0  3  0  0  0  0  0  0
   36.6740   24.9320   31.2780 C   0  0  0  0  0  3  0  0  0  0  0  0
   37.2670   23.9340   32.0320 C   0  0  0  0  0  3  0  0  0  0  0  0
   37.7240   24.1630   33.2990 C   0  0  0  0  0  3  0  0  0  0  0  0
   37.6360   25.3790   33.9210 C   0  0  0  0  0  0  0  0  0  0  0  0
   39.2610   23.0190   37.8700 C   0  0  0  0  0  0  0  0  0  0  0  0
   38.4320   23.9080   37.2020 C   0  0  0  0  0  0  0  0  0  0  0  0
   38.7960   24.4950   36.0190 C   0  0  0  0  0  0  0  0  0  0  0  0
   40.0420   24.1380   35.5530 N   0  0  0  0  0  0  0  0  0  0  0  0
   40.8580   23.2750   36.1930 C   0  0  0  0  0  0  0  0  0  0  0  0
   40.4490   22.7390   37.3300 N   0  0  0  0  0  0  0  0  0  0  0  0
   37.4940   24.1950   37.6290 H   0  0  0  0  0  0  0  0  0  0  0  0
   41.8160   23.0140   35.8130 H   0  0  0  0  0  0  0  0  0  0  0  0
   38.7100   22.5390   39.0380 O   0  0  0  0  0  0  0  0  0  0  0  0
   39.0100   22.8200   39.9630 H   0  0  0  0  0  0  0  0  0  0  0  0
  1  2  1  0  0  0  0
  1 14  1  0  0  0  0
  2  3  1  0  0  0  0
  4  2  2  0  0  0  0
  5  4  1  0  0  0  0
  6  5  2  0  0  0  0
  6 11  1  0  0  0  0
  7  6  1  0  0  0  0
  8  7  2  0  0  0  0
  8  9  1  0  0  0  0
  9 10  2  0  0  0  0
 10 11  1  0  0  0  0
 11  1  2  0  0  0  0
 12 20  1  0  0  0  0
 13 18  1  0  0  0  0
 13 12  2  0  0  0  0
 14 13  1  0  0  0  0
 15 14  2  0  0  0  0
 15 16  1  0  0  0  0
 16 17  2  0  0  0  0
 17 12  1  0  0  0  0
 19 16  1  0  0  0  0
 20 21  1  0  0  0  0
M  END
>  <minimizedAffinity>
-5.54317093

$$$$

 OpenBabel03272503383D

 21 23  0  0  0  0  0  0  0  0999 V2000
   38.8510   25.3500   34.9890 C   0  0  0  0  0  0  0  0  0  0  0  0
   37.5770   25.4970   34.4140 C   0  0  0  0  0  0  0  0  0  0  0  0
   36.7250   25.0090   34.8740 H   0  0  0  0  0  0  0  0  0  0  0  0
   37.2870   26.2260   33.2840 C   0  0  0  0  0  3  0  0  0  0  0  0
   38.3150   26.8710   32.6530 C   0  0  0  0  0  3  0  0  0  0  0  0
   39.5930   26.7870   33.1430 C   0  0  0  0  0  0  0  0  0  0  0  0
   40.6170   27.4690   32.5220 C   0  0  0  0  0  3  0  0  0  0  0  0
   41.9200   27.4450   33.0060 C   0  0  0  0  0  3  0  0  0  0  0  0
   42.1070   26.6920   34.1510 C   0  0  0  0  0  3  0  0  0  0  0  0
   41.0760   26.0230   34.7500 C   0  0  0  0  0  3  0  0  0  0  0  0
   39.7940   26.0400   34.2750 C   0  0  0  0  0  0  0  0  0  0  0  0
   39.6100   22.8160   37.7250 C   0  0  0  0  0  0  0  0  0  0  0  0
   39.7250   23.4620   36.5040 C   0  0  0  0  0  0  0  0  0  0  0  0
   38.9670   24.5580   36.1850 C   0  0  0  0  0  0  0  0  0  0  0  0
   38.0850   24.9580   37.1650 N   0  0  0  0  0  0  0  0  0  0  0  0
   37.9630   24.3380   38.3560 C   0  0  0  0  0  0  0  0  0  0  0  0
   38.7250   23.2870   38.6060 N   0  0  0  0  0  0  0  0  0  0  0  0
   40.3870   23.0840   35.7530 H   0  0  0  0  0  0  0  0  0  0  0  0
   37.2760   24.6660   39.0980 H   0  0  0  0  0  0  0  0  0  0  0  0
   40.4620   21.7400   37.8500 O   0  0  0  0  0  0  0  0  0  0  0  0
   40.1620   20.7730   37.8140 H   0  0  0  0  0  0  0  0  0  0  0  0
  1 14  1  0  0  0  0
  2  3  1  0  0  0  0
  2  1  1  0  0  0  0
  4  2  2  0  0  0  0
  5  6  2  0  0  0  0
  5  4  1  0  0  0  0
  6 11  1  0  0  0  0
  7  8  2  0  0  0  0
  7  6  1  0  0  0  0
  8  9  1  0  0  0  0
  9 10  2  0  0  0  0
 11 10  1  0  0  0  0
 11  1  2  0  0  0  0
 12 20  1  0  0  0  0
 12 17  1  0  0  0  0
 13 12  2  0  0  0  0
 14 13  1  0  0  0  0
 14 15  2  0  0  0  0
 15 16  1  0  0  0  0
 16 17  2  0  0  0  0
 16 19  1  0  0  0  0
 18 13  1  0  0  0  0
 21 20  1  0  0  0  0
M  END
>  <minimizedAffinity>
-5.42737103

$$$$

 OpenBabel03272503383D

 21 23  0  0  0  0  0  0  0  0999 V2000
   38.0180   23.0290   34.1440 C   0  0  0  0  0  0  0  0  0  0  0  0
   38.5620   23.9600   33.2430 C   0  0  0  0  0  0  0  0  0  0  0  0
   39.3300   24.6460   33.5820 H   0  0  0  0  0  0  0  0  0  0  0  0
   38.2060   24.0980   31.9210 C   0  0  0  0  0  3  0  0  0  0  0  0
   37.2420   23.2630   31.4250 C   0  0  0  0  0  3  0  0  0  0  0  0
   36.6560   22.3210   32.2300 C   0  0  0  0  0  0  0  0  0  0  0  0
   35.7110   21.4600   31.7120 C   0  0  0  0  0  3  0  0  0  0  0  0
   35.1200   20.4650   32.4800 C   0  0  0  0  0  3  0  0  0  0  0  0
   35.5510   20.4030   33.7940 C   0  0  0  0  0  3  0  0  0  0  0  0
   36.4890   21.2670   34.2860 C   0  0  0  0  0  3  0  0  0  0  0  0
   37.0710   22.2510   33.5340 C   0  0  0  0  0  0  0  0  0  0  0  0
   39.7560   22.4020   37.4720 C   0  0  0  0  0  0  0  0  0  0  0  0
   39.4900   22.2770   36.1160 C   0  0  0  0  0  0  0  0  0  0  0  0
   38.5220   23.0190   35.4920 C   0  0  0  0  0  0  0  0  0  0  0  0
   37.8370   23.8870   36.3130 N   0  0  0  0  0  0  0  0  0  0  0  0
   38.0850   24.0180   37.6320 C   0  0  0  0  0  0  0  0  0  0  0  0
   39.0340   23.2760   38.1770 N   0  0  0  0  0  0  0  0  0  0  0  0
   40.0130   21.5520   35.5290 H   0  0  0  0  0  0  0  0  0  0  0  0
   37.5420   24.6960   38.2470 H   0  0  0  0  0  0  0  0  0  0  0  0
   40.7670   21.5710   37.9040 O   0  0  0  0  0  0  0  0  0  0  0  0
   40.6170   20.7410   38.4640 H   0  0  0  0  0  0  0  0  0  0  0  0
  1 14  1  0  0  0  0
  2  3  1  0  0  0  0
  2  1  2  0  0  0  0
  4  2  1  0  0  0  0
  5  4  2  0  0  0  0
  5  6  1  0  0  0  0
  6 11  1  0  0  0  0
  7  6  2  0  0  0  0
  7  8  1  0  0  0  0
  8  9  2  0  0  0  0
  9 10  1  0  0  0  0
 11  1  1  0  0  0  0
 11 10  2  0  0  0  0
 12 20  1  0  0  0  0
 12 17  1  0  0  0  0
 13 12  2  0  0  0  0
 14 13  1  0  0  0  0
 14 15  2  0  0  0  0
 15 16  1  0  0  0  0
 16 17  2  0  0  0  0
 16 19  1  0  0  0  0
 18 13  1  0  0  0  0
 20 21  1  0  0  0  0
M  END
>  <minimizedAffinity>
-5.4157033

$$$$

 OpenBabel03272503383D

 21 23  0  0  0  0  0  0  0  0999 V2000
   38.2400   24.2700   34.4610 C   0  0  0  0  0  0  0  0  0  0  0  0
   37.9600   23.4360   33.3650 C   0  0  0  0  0  0  0  0  0  0  0  0
   38.2780   22.3990   33.3890 H   0  0  0  0  0  0  0  0  0  0  0  0
   37.3000   23.8130   32.2190 C   0  0  0  0  0  3  0  0  0  0  0  0
   36.8700   25.1080   32.1210 C   0  0  0  0  0  3  0  0  0  0  0  0
   37.0950   25.9940   33.1430 C   0  0  0  0  0  0  0  0  0  0  0  0
   36.6260   27.2880   33.0510 C   0  0  0  0  0  3  0  0  0  0  0  0
   36.7970   28.2090   34.0780 C   0  0  0  0  0  3  0  0  0  0  0  0
   37.4660   27.7300   35.1910 C   0  0  0  0  0  3  0  0  0  0  0  0
   37.9210   26.4440   35.2590 C   0  0  0  0  0  3  0  0  0  0  0  0
   37.7600   25.5350   34.2490 C   0  0  0  0  0  0  0  0  0  0  0  0
   39.4220   22.9040   37.8110 C   0  0  0  0  0  0  0  0  0  0  0  0
   38.5370   23.3920   36.8620 C   0  0  0  0  0  0  0  0  0  0  0  0
   38.9320   23.7000   35.5860 C   0  0  0  0  0  0  0  0  0  0  0  0
   40.2690   23.4910   35.3270 N   0  0  0  0  0  0  0  0  0  0  0  0
   41.1400   23.0180   36.2410 C   0  0  0  0  0  0  0  0  0  0  0  0
   40.6980   22.7370   37.4550 N   0  0  0  0  0  0  0  0  0  0  0  0
   37.5180   23.5870   37.1240 H   0  0  0  0  0  0  0  0  0  0  0  0
   42.1690   22.8640   36.0170 H   0  0  0  0  0  0  0  0  0  0  0  0
   38.8270   22.6550   39.0280 O   0  0  0  0  0  0  0  0  0  0  0  0
   38.9580   23.2310   39.8510 H   0  0  0  0  0  0  0  0  0  0  0  0
  1 14  1  0  0  0  0
  2  3  1  0  0  0  0
  2  1  2  0  0  0  0
  4  2  1  0  0  0  0
  5  4  2  0  0  0  0
  5  6  1  0  0  0  0
  6 11  1  0  0  0  0
  7  6  2  0  0  0  0
  7  8  1  0  0  0  0
  8  9  2  0  0  0  0
  9 10  1  0  0  0  0
 11  1  1  0  0  0  0
 11 10  2  0  0  0  0
 12 20  1  0  0  0  0
 13 18  1  0  0  0  0
 13 12  2  0  0  0  0
 14 13  1  0  0  0  0
 15 14  2  0  0  0  0
 15 16  1  0  0  0  0
 16 17  2  0  0  0  0
 17 12  1  0  0  0  0
 19 16  1  0  0  0  0
 20 21  1  0  0  0  0
M  END
>  <minimizedAffinity>
-5.31389475

$$$$

 OpenBabel03272503383D

 21 23  0  0  0  0  0  0  0  0999 V2000
   35.0360   30.5740   34.8160 C   0  0  0  0  0  0  0  0  0  0  0  0
   35.8350   31.5710   35.4000 C   0  0  0  0  0  0  0  0  0  0  0  0
   36.8290   31.7570   35.0060 H   0  0  0  0  0  0  0  0  0  0  0  0
   35.4750   32.3670   36.4620 C   0  0  0  0  0  3  0  0  0  0  0  0
   34.2330   32.1880   37.0080 C   0  0  0  0  0  3  0  0  0  0  0  0
   33.3820   31.2400   36.5020 C   0  0  0  0  0  0  0  0  0  0  0  0
   32.1190   31.0900   37.0350 C   0  0  0  0  0  3  0  0  0  0  0  0
   31.2090   30.1700   36.5290 C   0  0  0  0  0  3  0  0  0  0  0  0
   31.6630   29.4230   35.4570 C   0  0  0  0  0  3  0  0  0  0  0  0
   32.9200   29.5890   34.9450 C   0  0  0  0  0  3  0  0  0  0  0  0
   33.8210   30.4900   35.4420 C   0  0  0  0  0  0  0  0  0  0  0  0
   36.0900   29.1620   31.4420 C   0  0  0  0  0  0  0  0  0  0  0  0
   35.5510   30.0650   32.3460 C   0  0  0  0  0  0  0  0  0  0  0  0
   35.5730   29.8440   33.6980 C   0  0  0  0  0  0  0  0  0  0  0  0
   36.1630   28.6600   34.0820 N   0  0  0  0  0  0  0  0  0  0  0  0
   36.6900   27.7740   33.2130 C   0  0  0  0  0  0  0  0  0  0  0  0
   36.6410   28.0450   31.9200 N   0  0  0  0  0  0  0  0  0  0  0  0
   35.0560   30.9480   31.9980 H   0  0  0  0  0  0  0  0  0  0  0  0
   37.1430   26.8660   33.5340 H   0  0  0  0  0  0  0  0  0  0  0  0
   35.9690   29.5720   30.1310 O   0  0  0  0  0  0  0  0  0  0  0  0
   35.3200   29.1660   29.4690 H   0  0  0  0  0  0  0  0  0  0  0  0
  1  2  2  0  0  0  0
  1 11  1  0  0  0  0
  2  4  1  0  0  0  0
  3  2  1  0  0  0  0
  4  5  2  0  0  0  0
  6  5  1  0  0  0  0
  6  7  1  0  0  0  0
  8  7  2  0  0  0  0
  9  8  1  0  0  0  0
 10 11  1  0  0  0  0
 10  9  2  0  0  0  0
 11  6  2  0  0  0  0
 12 17  2  0  0  0  0
 12 13  1  0  0  0  0
 13 14  2  0  0  0  0
 14 15  1  0  0  0  0
 14  1  1  0  0  0  0
 16 19  1  0  0  0  0
 16 15  2  0  0  0  0
 17 16  1  0  0  0  0
 18 13  1  0  0  0  0
 20 12  1  0  0  0  0
 21 20  1  0  0  0  0
M  END
>  <minimizedAffinity>
-5.29388189

$$$$

 OpenBabel03272503383D

 21 23  0  0  0  0  0  0  0  0999 V2000
   35.5200   29.7990   33.4570 C   0  0  0  0  0  0  0  0  0  0  0  0
   35.3960   30.4180   32.2020 C   0  0  0  0  0  0  0  0  0  0  0  0
   34.7810   31.3060   32.1040 H   0  0  0  0  0  0  0  0  0  0  0  0
   35.9970   29.9990   31.0390 C   0  0  0  0  0  3  0  0  0  0  0  0
   36.7900   28.8850   31.0890 C   0  0  0  0  0  3  0  0  0  0  0  0
   36.9720   28.2150   32.2710 C   0  0  0  0  0  0  0  0  0  0  0  0
   37.8010   27.1140   32.3210 C   0  0  0  0  0  3  0  0  0  0  0  0
   38.0460   26.4280   33.5040 C   0  0  0  0  0  3  0  0  0  0  0  0
   37.4020   26.9330   34.6200 C   0  0  0  0  0  3  0  0  0  0  0  0
   36.5850   28.0250   34.5470 C   0  0  0  0  0  3  0  0  0  0  0  0
   36.3360   28.7010   33.3840 C   0  0  0  0  0  0  0  0  0  0  0  0
   34.3790   31.5920   36.6140 C   0  0  0  0  0  0  0  0  0  0  0  0
   35.2330   31.2060   35.5920 C   0  0  0  0  0  0  0  0  0  0  0  0
   34.8270   30.3850   34.5730 C   0  0  0  0  0  0  0  0  0  0  0  0
   33.5140   29.9740   34.6480 N   0  0  0  0  0  0  0  0  0  0  0  0
   32.6730   30.3420   35.6360 C   0  0  0  0  0  0  0  0  0  0  0  0
   33.1240   31.1380   36.5910 N   0  0  0  0  0  0  0  0  0  0  0  0
   36.2600   31.5080   35.6040 H   0  0  0  0  0  0  0  0  0  0  0  0
   31.6630   30.0120   35.6730 H   0  0  0  0  0  0  0  0  0  0  0  0
   34.9800   32.4200   37.5380 O   0  0  0  0  0  0  0  0  0  0  0  0
   35.2430   32.1300   38.4710 H   0  0  0  0  0  0  0  0  0  0  0  0
  1 14  1  0  0  0  0
  2  1  2  0  0  0  0
  3  2  1  0  0  0  0
  4  5  2  0  0  0  0
  4  2  1  0  0  0  0
  5  6  1  0  0  0  0
  6  7  2  0  0  0  0
  6 11  1  0  0  0  0
  7  8  1  0  0  0  0
  8  9  2  0  0  0  0
 10  9  1  0  0  0  0
 11  1  1  0  0  0  0
 11 10  2  0  0  0  0
 12 20  1  0  0  0  0
 13 18  1  0  0  0  0
 13 12  2  0  0  0  0
 14 15  2  0  0  0  0
 14 13  1  0  0  0  0
 15 16  1  0  0  0  0
 16 19  1  0  0  0  0
 16 17  2  0  0  0  0
 17 12  1  0  0  0  0
 20 21  1  0  0  0  0
M  END
>  <minimizedAffinity>
-5.28649092

$$$$

 OpenBabel03272503383D

 21 23  0  0  0  0  0  0  0  0999 V2000
   35.8860   29.3320   33.9350 C   0  0  0  0  0  0  0  0  0  0  0  0
   36.4030   28.1140   34.4090 C   0  0  0  0  0  0  0  0  0  0  0  0
   36.2050   27.8120   35.4310 H   0  0  0  0  0  0  0  0  0  0  0  0
   37.1640   27.2300   33.6800 C   0  0  0  0  0  3  0  0  0  0  0  0
   37.4500   27.5470   32.3800 C   0  0  0  0  0  3  0  0  0  0  0  0
   36.9860   28.7140   31.8310 C   0  0  0  0  0  0  0  0  0  0  0  0
   37.2500   29.0090   30.5100 C   0  0  0  0  0  3  0  0  0  0  0  0
   36.7670   30.1600   29.9000 C   0  0  0  0  0  3  0  0  0  0  0  0
   36.0060   30.9810   30.7140 C   0  0  0  0  0  3  0  0  0  0  0  0
   35.7580   30.6680   32.0210 C   0  0  0  0  0  3  0  0  0  0  0  0
   36.2350   29.5380   32.6270 C   0  0  0  0  0  0  0  0  0  0  0  0
   34.4730   31.6670   36.5890 C   0  0  0  0  0  0  0  0  0  0  0  0
   35.4250   31.0730   35.7740 C   0  0  0  0  0  0  0  0  0  0  0  0
   35.0970   30.1290   34.8370 C   0  0  0  0  0  0  0  0  0  0  0  0
   33.7570   29.8160   34.7750 N   0  0  0  0  0  0  0  0  0  0  0  0
   32.8210   30.3850   35.5610 C   0  0  0  0  0  0  0  0  0  0  0  0
   33.1990   31.2930   36.4450 N   0  0  0  0  0  0  0  0  0  0  0  0
   36.4620   31.3100   35.8940 H   0  0  0  0  0  0  0  0  0  0  0  0
   31.7910   30.1280   35.4940 H   0  0  0  0  0  0  0  0  0  0  0  0
   35.0070   32.5920   37.4600 O   0  0  0  0  0  0  0  0  0  0  0  0
   35.1140   32.4360   38.4540 H   0  0  0  0  0  0  0  0  0  0  0  0
  1  2  1  0  0  0  0
  1 14  1  0  0  0  0
  2  3  1  0  0  0  0
  4  2  2  0  0  0  0
  5  4  1  0  0  0  0
  6  5  2  0  0  0  0
  6 11  1  0  0  0  0
  7  6  1  0  0  0  0
  8  7  2  0  0  0  0
  8  9  1  0  0  0  0
  9 10  2  0  0  0  0
 10 11  1  0  0  0  0
 11  1  2  0  0  0  0
 12 20  1  0  0  0  0
 13 18  1  0  0  0  0
 13 12  2  0  0  0  0
 14 13  1  0  0  0  0
 15 14  2  0  0  0  0
 15 16  1  0  0  0  0
 16 17  2  0  0  0  0
 17 12  1  0  0  0  0
 19 16  1  0  0  0  0
 20 21  1  0  0  0  0
M  END
>  <minimizedAffinity>
-5.10134029

$$$$

 OpenBabel03272503383D

 21 23  0  0  0  0  0  0  0  0999 V2000
   34.9730   30.2730   33.7940 C   0  0  0  0  0  0  0  0  0  0  0  0
   34.6800   31.0120   32.6360 C   0  0  0  0  0  0  0  0  0  0  0  0
   34.0060   31.8590   32.6990 H   0  0  0  0  0  0  0  0  0  0  0  0
   35.1790   30.7610   31.3790 C   0  0  0  0  0  3  0  0  0  0  0  0
   36.0370   29.7070   31.2250 C   0  0  0  0  0  3  0  0  0  0  0  0
   36.3840   28.9300   32.3010 C   0  0  0  0  0  0  0  0  0  0  0  0
   37.2770   27.8920   32.1440 C   0  0  0  0  0  3  0  0  0  0  0  0
   37.6860   27.1040   33.2130 C   0  0  0  0  0  3  0  0  0  0  0  0
   37.1340   27.4400   34.4370 C   0  0  0  0  0  3  0  0  0  0  0  0
   36.2500   28.4740   34.5680 C   0  0  0  0  0  3  0  0  0  0  0  0
   35.8410   29.2500   33.5180 C   0  0  0  0  0  0  0  0  0  0  0  0
   32.7630   30.9970   36.8070 C   0  0  0  0  0  0  0  0  0  0  0  0
   33.1590   30.4110   35.6140 C   0  0  0  0  0  0  0  0  0  0  0  0
   34.3680   30.6870   35.0330 C   0  0  0  0  0  0  0  0  0  0  0  0
   35.1490   31.5900   35.7200 N   0  0  0  0  0  0  0  0  0  0  0  0
   34.7760   32.1680   36.8790 C   0  0  0  0  0  0  0  0  0  0  0  0
   33.5970   31.8590   37.3930 N   0  0  0  0  0  0  0  0  0  0  0  0
   32.4960   29.7540   35.0900 H   0  0  0  0  0  0  0  0  0  0  0  0
   35.3960   32.8630   37.3930 H   0  0  0  0  0  0  0  0  0  0  0  0
   31.5160   30.5850   37.2240 O   0  0  0  0  0  0  0  0  0  0  0  0
   30.6850   31.1620   37.1820 H   0  0  0  0  0  0  0  0  0  0  0  0
  1 14  1  0  0  0  0
  2  3  1  0  0  0  0
  2  1  2  0  0  0  0
  4  2  1  0  0  0  0
  5  4  2  0  0  0  0
  5  6  1  0  0  0  0
  6 11  1  0  0  0  0
  7  6  2  0  0  0  0
  7  8  1  0  0  0  0
  8  9  2  0  0  0  0
  9 10  1  0  0  0  0
 11  1  1  0  0  0  0
 11 10  2  0  0  0  0
 12 20  1  0  0  0  0
 12 17  1  0  0  0  0
 13 12  2  0  0  0  0
 14 13  1  0  0  0  0
 14 15  2  0  0  0  0
 15 16  1  0  0  0  0
 16 17  2  0  0  0  0
 16 19  1  0  0  0  0
 18 13  1  0  0  0  0
 21 20  1  0  0  0  0
M  END
>  <minimizedAffinity>
-5.10019255

$$$$

 OpenBabel03272503383D

 21 23  0  0  0  0  0  0  0  0999 V2000
   38.7450   24.3840   35.7360 C   0  0  0  0  0  0  0  0  0  0  0  0
   37.8950   24.6950   36.8110 C   0  0  0  0  0  0  0  0  0  0  0  0
   37.0870   25.4040   36.6640 H   0  0  0  0  0  0  0  0  0  0  0  0
   37.9860   24.1750   38.0810 C   0  0  0  0  0  3  0  0  0  0  0  0
   38.9830   23.2730   38.3370 C   0  0  0  0  0  3  0  0  0  0  0  0
   39.8590   22.9060   37.3480 C   0  0  0  0  0  0  0  0  0  0  0  0
   40.8380   21.9700   37.6050 C   0  0  0  0  0  3  0  0  0  0  0  0
   41.7220   21.5390   36.6240 C   0  0  0  0  0  3  0  0  0  0  0  0
   41.5440   22.1160   35.3780 C   0  0  0  0  0  3  0  0  0  0  0  0
   40.5660   23.0420   35.1470 C   0  0  0  0  0  3  0  0  0  0  0  0
   39.6960   23.4730   36.1110 C   0  0  0  0  0  0  0  0  0  0  0  0
   37.7740   25.3870   32.1950 C   0  0  0  0  0  0  0  0  0  0  0  0
   37.8230   24.6120   33.3440 C   0  0  0  0  0  0  0  0  0  0  0  0
   38.4930   25.0170   34.4690 C   0  0  0  0  0  0  0  0  0  0  0  0
   39.1130   26.2430   34.3640 N   0  0  0  0  0  0  0  0  0  0  0  0
   39.0730   27.0060   33.2530 C   0  0  0  0  0  0  0  0  0  0  0  0
   38.4080   26.5620   32.2010 N   0  0  0  0  0  0  0  0  0  0  0  0
   37.3690   23.6430   33.3620 H   0  0  0  0  0  0  0  0  0  0  0  0
   39.5590   27.9500   33.1960 H   0  0  0  0  0  0  0  0  0  0  0  0
   37.0470   24.8030   31.1800 O   0  0  0  0  0  0  0  0  0  0  0  0
   37.4610   24.3950   30.3510 H   0  0  0  0  0  0  0  0  0  0  0  0
  1 11  2  0  0  0  0
  1  2  1  0  0  0  0
  2  4  2  0  0  0  0
  3  2  1  0  0  0  0
  4  5  1  0  0  0  0
  6  7  1  0  0  0  0
  6  5  2  0  0  0  0
  8  7  2  0  0  0  0
  9  8  1  0  0  0  0
 10  9  2  0  0  0  0
 10 11  1  0  0  0  0
 11  6  1  0  0  0  0
 12 17  2  0  0  0  0
 12 13  1  0  0  0  0
 13 18  1  0  0  0  0
 13 14  2  0  0  0  0
 14  1  1  0  0  0  0
 15 14  1  0  0  0  0
 16 15  2  0  0  0  0
 17 16  1  0  0  0  0
 19 16  1  0  0  0  0
 20 12  1  0  0  0  0
 21 20  1  0  0  0  0
M  END
>  <minimizedAffinity>
-5.09825325

$$$$
