
 OpenBabel03272508053D

 37 41  0  0  0  0  0  0  0  0999 V2000
   38.8440   30.9010   45.8610 C   0  0  0  0  0  0  0  0  0  0  0  0
   40.0260   31.5830   46.1200 C   0  0  0  0  0  0  0  0  0  0  0  0
   40.8760   31.5390   45.0170 C   0  0  0  0  0  0  0  0  0  0  0  0
   40.1510   30.8160   44.1230 N   0  0  0  0  0  0  0  0  0  0  0  0
   38.9810   30.4450   44.6000 N   0  0  0  0  0  0  0  0  0  0  0  0
   40.2700   32.0850   47.0470 H   0  0  0  0  0  0  0  0  0  0  0  0
   41.8460   31.9450   44.8650 H   0  0  0  0  0  0  0  0  0  0  0  0
   37.7160   30.7300   46.7570 C   0  0  0  0  0  0  0  0  0  0  0  0
   37.9290   30.9240   48.1490 C   0  0  0  0  0  0  0  0  0  0  0  0
   36.8290   30.7540   48.9890 C   0  0  0  0  0  0  0  0  0  0  0  0
   35.6350   30.4180   48.4400 N   0  0  0  0  0  0  0  0  0  0  0  0
   35.4630   30.2410   47.1120 C   0  0  0  0  0  0  0  0  0  0  0  0
   36.5140   30.4010   46.2820 N   0  0  0  0  0  0  0  0  0  0  0  0
   38.9070   31.1910   48.5320 H   0  0  0  0  0  0  0  0  0  0  0  0
   34.4950   29.9730   46.7100 H   0  0  0  0  0  0  0  0  0  0  0  0
   37.0320   30.9530   50.4580 C   0  0  0  0  0  0  0  0  0  0  0  0
   36.5420   32.2050   50.7290 F   0  0  0  0  0  0  0  0  0  0  0  0
   36.3320   30.0130   51.2160 F   0  0  0  0  0  0  0  0  0  0  0  0
   38.3750   30.9150   50.8060 F   0  0  0  0  0  0  0  0  0  0  0  0
   40.5340   30.4530   42.7650 C   0  0  0  0  0  0  0  0  0  0  0  0
   40.1280   31.1970   41.6530 C   0  0  0  0  0  0  0  0  0  0  0  0
   40.5220   30.8190   40.4060 C   0  0  0  0  0  0  0  0  0  0  0  0
   41.3320   29.6810   40.2300 C   0  0  0  0  0  0  0  0  0  0  0  0
   41.5210   29.1520   41.9920 S   0  0  0  0  0  0  0  0  0  0  0  0
   39.4890   32.0850   41.8040 H   0  0  0  0  0  0  0  0  0  0  0  0
   40.2450   31.4100   39.5630 H   0  0  0  0  0  0  0  0  0  0  0  0
   42.0050   28.9520   39.2700 C   0  0  0  0  0  0  0  0  0  0  0  0
   41.5030   27.6890   38.9080 C   0  0  0  0  0  0  0  0  0  0  0  0
   40.6130   27.2210   39.3410 H   0  0  0  0  0  0  0  0  0  0  0  0
   42.0790   26.8760   37.9580 C   0  0  0  0  0  3  0  0  0  0  0  0
   43.2060   27.3060   37.3170 C   0  0  0  0  0  3  0  0  0  0  0  0
   43.7750   28.5230   37.5930 C   0  0  0  0  0  0  0  0  0  0  0  0
   44.8910   28.9260   36.8990 C   0  0  0  0  0  3  0  0  0  0  0  0
   45.4410   30.1660   37.1540 C   0  0  0  0  0  3  0  0  0  0  0  0
   44.8070   30.9320   38.1160 C   0  0  0  0  0  3  0  0  0  0  0  0
   43.6930   30.4820   38.7820 C   0  0  0  0  0  3  0  0  0  0  0  0
   43.1330   29.2590   38.5490 C   0  0  0  0  0  0  0  0  0  0  0  0
  1  2  1  0  0  0  0
  1  8  1  0  0  0  0
  2  6  1  0  0  0  0
  3  2  2  0  0  0  0
  4  5  1  0  0  0  0
  4  3  1  0  0  0  0
  5  1  2  0  0  0  0
  7  3  1  0  0  0  0
  8  9  1  0  0  0  0
  9 14  1  0  0  0  0
  9 10  2  0  0  0  0
 10 16  1  0  0  0  0
 11 10  1  0  0  0  0
 12 11  2  0  0  0  0
 13  8  2  0  0  0  0
 13 12  1  0  0  0  0
 15 12  1  0  0  0  0
 16 17  1  0  0  0  0
 16 19  1  0  0  0  0
 16 18  1  0  0  0  0
 20  4  1  0  0  0  0
 21 25  1  0  0  0  0
 21 20  2  0  0  0  0
 22 21  1  0  0  0  0
 23 22  2  0  0  0  0
 23 24  1  0  0  0  0
 24 20  1  0  0  0  0
 26 22  1  0  0  0  0
 27 23  1  0  0  0  0
 28 27  1  0  0  0  0
 28 29  1  0  0  0  0
 30 28  2  0  0  0  0
 31 32  2  0  0  0  0
 31 30  1  0  0  0  0
 32 37  1  0  0  0  0
 33 34  2  0  0  0  0
 33 32  1  0  0  0  0
 34 35  1  0  0  0  0
 35 36  2  0  0  0  0
 37 36  1  0  0  0  0
 37 27  2  0  0  0  0
M  END
>  <minimizedAffinity>
-6.81349325

>  <minimizedRMSD>
1.33394027

$$$$
