
 OpenBabel03272509343D

 43 48  0  0  1  0  0  0  0  0999 V2000
   37.1950   31.0600   46.4310 C   0  0  1  0  0  0  0  0  0  0  0  0
   38.4630   31.7800   46.6380 C   0  0  0  0  0  0  0  0  0  0  0  0
   38.5310   30.5240   45.8480 C   0  0  2  0  0  0  0  0  0  0  0  0
   36.5320   31.3350   45.6240 H   0  0  0  0  0  0  0  0  0  0  0  0
   38.4040   32.8030   46.2970 H   0  0  0  0  0  0  0  0  0  0  0  0
   38.8160   31.7460   47.7230 H   0  0  0  0  0  0  0  0  0  0  0  0
   38.6430   29.4960   46.1240 H   0  0  0  0  0  0  0  0  0  0  0  0
   38.8560   30.8140   44.4250 C   0  0  0  0  0  0  0  0  0  0  0  0
   39.5420   32.0340   44.3240 C   0  0  0  0  0  0  0  0  0  0  0  0
   40.0290   32.4820   43.1150 C   0  0  0  0  0  0  0  0  0  0  0  0
   39.8500   31.7250   41.9520 C   0  0  0  0  0  0  0  0  0  0  0  0
   39.1740   30.5340   42.0810 C   0  0  0  0  0  0  0  0  0  0  0  0
   38.9170   29.6970   41.0130 C   0  0  0  0  0  0  0  0  0  0  0  0
   38.2260   28.5010   41.1290 C   0  0  0  0  0  0  0  0  0  0  0  0
   37.7650   28.1120   42.3740 C   0  0  0  0  0  0  0  0  0  0  0  0
   38.0170   28.9390   43.4440 C   0  0  0  0  0  0  0  0  0  0  0  0
   38.7040   30.1130   43.2880 C   0  0  0  0  0  0  0  0  0  0  0  0
   39.8580   32.8170   44.9820 H   0  0  0  0  0  0  0  0  0  0  0  0
   40.5680   33.3780   42.8640 H   0  0  0  0  0  0  0  0  0  0  0  0
   40.1640   31.9270   40.9330 H   0  0  0  0  0  0  0  0  0  0  0  0
   39.2610   29.9650   40.0200 H   0  0  0  0  0  0  0  0  0  0  0  0
   38.0420   27.8710   40.2650 H   0  0  0  0  0  0  0  0  0  0  0  0
   37.2210   27.1940   42.5340 H   0  0  0  0  0  0  0  0  0  0  0  0
   37.6410   28.6090   44.4300 H   0  0  0  0  0  0  0  0  0  0  0  0
   34.9390   28.7950   48.4180 C   0  0  0  0  0  0  0  0  0  0  0  0
   35.4470   29.5830   47.3370 C   0  0  0  0  0  0  0  0  0  0  0  0
   36.6450   30.2340   47.5190 C   0  0  0  0  0  0  0  0  0  0  0  0
   37.2330   30.0620   48.7150 N   0  0  0  0  0  0  0  0  0  0  0  0
   36.7940   29.3420   49.7330 C   0  0  0  0  0  0  0  0  0  0  0  0
   35.6020   28.6840   49.5790 N   0  0  0  0  0  0  0  0  0  0  0  0
   34.0020   28.3110   48.2200 H   0  0  0  0  0  0  0  0  0  0  0  0
   34.9070   29.6620   46.4120 H   0  0  0  0  0  0  0  0  0  0  0  0
   37.3860   29.1120   51.0340 C   0  0  0  0  0  0  0  0  0  0  0  0
   37.2110   30.0010   52.0950 C   0  0  0  0  0  0  0  0  0  0  0  0
   36.6090   30.9120   51.9610 H   0  0  0  0  0  0  0  0  0  0  0  0
   37.7340   29.8520   53.3460 C   0  0  0  0  0  3  0  0  0  0  0  0
   38.5030   28.7570   53.6380 C   0  0  0  0  0  3  0  0  0  0  0  0
   38.7300   27.8250   52.6510 C   0  0  0  0  0  0  0  0  0  0  0  0
   39.4930   26.7410   52.9620 C   0  0  0  0  0  3  0  0  0  0  0  0
   39.7540   25.7690   52.0210 C   0  0  0  0  0  3  0  0  0  0  0  0
   39.2020   25.9520   50.7510 C   0  0  0  0  0  3  0  0  0  0  0  0
   38.4400   27.0680   50.4990 C   0  0  0  0  0  3  0  0  0  0  0  0
   38.1670   28.0500   51.4180 C   0  0  0  0  0  0  0  0  0  0  0  0
  1  4  1  6  0  0  0
  1  2  1  0  0  0  0
  1 27  1  0  0  0  0
  2  6  1  0  0  0  0
  3  7  1  1  0  0  0
  3  1  1  0  0  0  0
  3  2  1  0  0  0  0
  5  2  1  0  0  0  0
  8  3  1  0  0  0  0
  9  8  1  0  0  0  0
  9 18  1  0  0  0  0
 10  9  2  0  0  0  0
 11 12  2  0  0  0  0
 11 10  1  0  0  0  0
 12 17  1  0  0  0  0
 13 14  2  0  0  0  0
 13 12  1  0  0  0  0
 14 15  1  0  0  0  0
 15 23  1  0  0  0  0
 15 16  2  0  0  0  0
 16 24  1  0  0  0  0
 17 16  1  0  0  0  0
 17  8  2  0  0  0  0
 19 10  1  0  0  0  0
 20 11  1  0  0  0  0
 21 13  1  0  0  0  0
 22 14  1  0  0  0  0
 25 30  1  0  0  0  0
 26 27  1  0  0  0  0
 26 25  2  0  0  0  0
 27 28  2  0  0  0  0
 28 29  1  0  0  0  0
 29 33  1  0  0  0  0
 30 29  2  0  0  0  0
 31 25  1  0  0  0  0
 32 26  1  0  0  0  0
 33 43  2  0  0  0  0
 33 34  1  0  0  0  0
 34 36  2  0  0  0  0
 35 34  1  0  0  0  0
 36 37  1  0  0  0  0
 38 39  1  0  0  0  0
 38 37  2  0  0  0  0
 40 39  2  0  0  0  0
 41 40  1  0  0  0  0
 42 41  2  0  0  0  0
 42 43  1  0  0  0  0
 43 38  1  0  0  0  0
M  END
>  <minimizedAffinity>
1.68593073

>  <minimizedRMSD>
2.19999456

$$$$
