
 OpenBabel03272510273D

 47 52  0  0  1  0  0  0  0  0999 V2000
   39.6990   31.8170   41.9150 N   0  0  0  0  0  0  0  0  0  0  0  0
   39.3380   33.2320   42.0000 C   0  0  1  0  0  0  0  0  0  0  0  0
   37.9650   33.4180   41.5560 C   0  0  0  0  0  0  0  0  0  0  0  0
   37.8640   33.0630   40.2010 O   0  0  0  0  0  0  0  0  0  0  0  0
   38.3150   31.7950   39.9010 C   0  0  0  0  0  0  0  0  0  0  0  0
   39.6870   31.5430   40.4940 C   0  0  2  0  0  0  0  0  0  0  0  0
   39.0150   31.1810   42.3000 H   0  0  0  0  0  0  0  0  0  0  0  0
   40.0410   33.7500   41.3200 H   0  0  0  0  0  0  0  0  0  0  0  0
   37.7670   34.5350   41.5420 H   0  0  0  0  0  0  0  0  0  0  0  0
   37.1120   32.9740   41.9940 H   0  0  0  0  0  0  0  0  0  0  0  0
   38.3710   31.7230   38.8110 H   0  0  0  0  0  0  0  0  0  0  0  0
   37.6210   31.0580   40.3620 H   0  0  0  0  0  0  0  0  0  0  0  0
   40.3830   32.3070   40.0840 H   0  0  0  0  0  0  0  0  0  0  0  0
   40.1080   30.1610   40.2830 C   0  0  0  0  0  0  0  0  0  0  0  0
   40.8480   29.6660   39.2450 C   0  0  0  0  0  0  0  0  0  0  0  0
   41.1930   30.3320   38.4680 H   0  0  0  0  0  0  0  0  0  0  0  0
   41.2290   28.3530   39.0620 C   0  0  0  0  0  3  0  0  0  0  0  0
   40.8450   27.4150   39.9950 C   0  0  0  0  0  3  0  0  0  0  0  0
   40.0950   27.8510   41.0670 C   0  0  0  0  0  0  0  0  0  0  0  0
   39.7380   26.8750   41.9720 C   0  0  0  0  0  3  0  0  0  0  0  0
   38.9900   27.2180   43.0790 C   0  0  0  0  0  3  0  0  0  0  0  0
   38.6130   28.5330   43.2590 C   0  0  0  0  0  3  0  0  0  0  0  0
   38.9970   29.4470   42.3280 C   0  0  0  0  0  3  0  0  0  0  0  0
   39.7420   29.1950   41.1950 C   0  0  0  0  0  0  0  0  0  0  0  0
   39.4900   33.6000   43.3610 O   0  0  0  0  0  0  0  0  0  0  0  0
   36.2120   30.2350   46.9300 C   0  0  0  0  0  0  0  0  0  0  0  0
   37.0680   30.7550   47.8840 C   0  0  0  0  0  0  0  0  0  0  0  0
   38.0860   31.6530   47.5310 C   0  0  0  0  0  0  0  0  0  0  0  0
   38.1660   31.9730   46.1810 C   0  0  0  0  0  0  0  0  0  0  0  0
   39.0680   32.8260   45.5930 N   0  0  0  0  0  0  0  0  0  0  0  0
   38.7730   32.8340   44.2820 C   0  0  0  0  0  0  0  0  0  0  0  0
   37.7540   32.0400   44.0520 N   0  0  0  0  0  0  0  0  0  0  0  0
   37.3410   31.4830   45.2010 C   0  0  0  0  0  0  0  0  0  0  0  0
   36.3360   30.5870   45.5930 C   0  0  0  0  0  0  0  0  0  0  0  0
   35.4160   29.5420   47.1530 H   0  0  0  0  0  0  0  0  0  0  0  0
   38.7590   32.0640   48.2660 H   0  0  0  0  0  0  0  0  0  0  0  0
   39.8300   33.3550   46.0910 H   0  0  0  0  0  0  0  0  0  0  0  0
   35.6820   30.1980   44.8250 H   0  0  0  0  0  0  0  0  0  0  0  0
   37.4600   30.1330   51.5750 C   0  0  0  0  0  0  0  0  0  0  0  0
   37.7710   30.5810   50.2950 C   0  0  0  0  0  0  0  0  0  0  0  0
   36.8920   30.3540   49.2660 C   0  0  0  0  0  0  0  0  0  0  0  0
   35.7270   29.6820   49.5700 N   0  0  0  0  0  0  0  0  0  0  0  0
   35.4340   29.2520   50.8130 C   0  0  0  0  0  0  0  0  0  0  0  0
   36.2880   29.4760   51.7940 N   0  0  0  0  0  0  0  0  0  0  0  0
   38.1760   30.3290   52.3600 H   0  0  0  0  0  0  0  0  0  0  0  0
   38.6750   31.1010   50.0610 H   0  0  0  0  0  0  0  0  0  0  0  0
   34.4890   28.7310   50.9490 H   0  0  0  0  0  0  0  0  0  0  0  0
  1  2  1  0  0  0  0
  1  7  1  0  0  0  0
  2  8  1  6  0  0  0
  2 25  1  0  0  0  0
  3 10  1  0  0  0  0
  3  2  1  0  0  0  0
  4  3  1  0  0  0  0
  5  4  1  0  0  0  0
  5 12  1  0  0  0  0
  5  6  1  0  0  0  0
  6 13  1  6  0  0  0
  6  1  1  0  0  0  0
  9  3  1  0  0  0  0
 11  5  1  0  0  0  0
 14  6  1  0  0  0  0
 14 24  1  0  0  0  0
 15 14  2  0  0  0  0
 16 15  1  0  0  0  0
 17 15  1  0  0  0  0
 17 18  2  0  0  0  0
 18 19  1  0  0  0  0
 19 24  2  0  0  0  0
 19 20  1  0  0  0  0
 20 21  2  0  0  0  0
 21 22  1  0  0  0  0
 23 22  2  0  0  0  0
 24 23  1  0  0  0  0
 25 31  1  0  0  0  0
 26 35  1  0  0  0  0
 26 27  1  0  0  0  0
 27 41  1  0  0  0  0
 28 27  2  0  0  0  0
 28 36  1  0  0  0  0
 29 28  1  0  0  0  0
 30 37  1  0  0  0  0
 30 29  1  0  0  0  0
 31 30  1  0  0  0  0
 32 31  2  0  0  0  0
 32 33  1  0  0  0  0
 33 34  1  0  0  0  0
 33 29  2  0  0  0  0
 34 26  2  0  0  0  0
 38 34  1  0  0  0  0
 39 44  1  0  0  0  0
 39 45  1  0  0  0  0
 40 39  2  0  0  0  0
 41 42  2  0  0  0  0
 41 40  1  0  0  0  0
 42 43  1  0  0  0  0
 43 47  1  0  0  0  0
 43 44  2  0  0  0  0
 46 40  1  0  0  0  0
M  END
>  <minimizedAffinity>
-6.78992462

>  <minimizedRMSD>
0.3288109

$$$$
