
     RDKit          3D

 29 31  0  0  0  0  0  0  0  0999 V2000
   38.3049   31.2362   50.1169 C   0  0  0  0  0  0  0  0  0  0  0  0
   38.2840   31.5945   48.7705 C   0  0  0  0  0  0  0  0  0  0  0  0
   37.2065   31.2226   47.9853 C   0  0  0  0  0  0  0  0  0  0  0  0
   36.2345   30.5130   48.6237 N   0  0  0  0  0  0  0  0  0  0  0  0
   36.2563   30.1710   49.9070 C   0  0  0  0  0  0  0  0  0  0  0  0
   37.2974   30.5423   50.6333 N   0  0  0  0  0  0  0  0  0  0  0  0
   35.1216   29.3873   50.4571 C   0  0  0  0  0  0  0  0  0  0  0  0
   35.2716   29.1198   51.8067 F   0  0  0  0  0  0  0  0  0  0  0  0
   33.9167   30.0507   50.2926 F   0  0  0  0  0  0  0  0  0  0  0  0
   34.9556   28.1745   49.8110 F   0  0  0  0  0  0  0  0  0  0  0  0
   39.1454   31.5283   50.7308 H   0  0  0  0  0  0  0  0  0  0  0  0
   39.1416   32.1104   48.4043 H   0  0  0  0  0  0  0  0  0  0  0  0
   37.0131   31.4217   46.5704 C   0  0  0  0  0  0  0  0  0  0  0  0
   35.6865   31.4217   46.1217 C   0  0  0  0  0  0  0  0  0  0  0  0
   34.8718   31.2685   46.8198 H   0  0  0  0  0  0  0  0  0  0  0  0
   35.2945   31.6040   44.8289 C   0  0  0  0  0  0  0  0  0  0  0  0
   36.2445   31.8088   43.8541 C   0  0  0  0  0  0  0  0  0  0  0  0
   37.5563   31.8226   44.2303 C   0  0  0  0  0  0  0  0  0  0  0  0
   38.5300   32.0586   43.2874 C   0  0  0  0  0  0  0  0  0  0  0  0
   39.8764   32.1189   43.6230 C   0  0  0  0  0  0  0  0  0  0  0  0
   40.1894   31.9305   44.9552 C   0  0  0  0  0  0  0  0  0  0  0  0
   39.2056   31.6985   45.8623 C   0  0  0  0  0  0  0  0  0  0  0  0
   37.8926   31.6349   45.5417 C   0  0  0  0  0  0  0  0  0  0  0  0
   34.2684   31.5967   44.5226 H   0  0  0  0  0  0  0  0  0  0  0  0
   35.9343   31.9514   42.8312 H   0  0  0  0  0  0  0  0  0  0  0  0
   38.2654   32.2053   42.2436 H   0  0  0  0  0  0  0  0  0  0  0  0
   40.6052   32.3023   42.8706 H   0  0  0  0  0  0  0  0  0  0  0  0
   41.2522   31.9819   45.2063 H   0  0  0  0  0  0  0  0  0  0  0  0
   39.5469   31.6091   46.8602 H   0  0  0  0  0  0  0  0  0  0  0  0
  1  6  2  0
  2  1  1  0
  3  4  1  0
  3  2  2  0
  4  5  2  0
  5  7  1  0
  5  6  1  0
  7  8  1  0
  9  7  1  0
 10  7  1  0
  1 11  1  0
  2 12  1  0
 13 14  2  0
 14 15  1  0
 14 16  1  0
 16 17  2  0
 17 18  1  0
 18 19  2  0
 19 20  1  0
 20 21  2  0
 21 22  1  0
 22 23  2  0
 23 13  1  0
 23 18  1  0
 16 24  1  0
 17 25  1  0
 19 26  1  0
 20 27  1  0
 21 28  1  0
 22 29  1  0
  3 13  1  0
M  ISO  3  11  14  12  14  15  15
M  END
>  <DihAtoms>  (1) 
3,2,12,13

>  <DihDeg>  (1) 
-32.813208269965244

$$$$
