
 OpenBabel03262521343D

 27 30  0  0  1  0  0  0  0  0999 V2000
   38.0810   26.6380   35.7420 C   0  0  1  0  0  0  0  0  0  0  0  0
   39.0950   27.1320   34.8340 C   0  0  0  0  0  0  0  0  0  0  0  0
   37.7360   26.6710   34.2670 C   0  0  2  0  0  0  0  0  0  0  0  0
   37.5490   27.3720   36.3760 H   0  0  0  0  0  0  0  0  0  0  0  0
   39.9380   26.4290   34.5710 H   0  0  0  0  0  0  0  0  0  0  0  0
   39.4050   28.1670   34.7920 H   0  0  0  0  0  0  0  0  0  0  0  0
   37.7270   25.6880   33.7100 H   0  0  0  0  0  0  0  0  0  0  0  0
   37.0640   27.8000   33.6160 C   0  0  0  0  0  0  0  0  0  0  0  0
   36.2730   28.4930   34.5450 C   0  0  0  0  0  0  0  0  0  0  0  0
   36.1690   28.2820   35.6170 H   0  0  0  0  0  0  0  0  0  0  0  0
   35.4950   29.5910   34.1520 C   0  0  0  0  0  3  0  0  0  0  0  0
   35.4820   30.0260   32.8340 C   0  0  0  0  0  3  0  0  0  0  0  0
   36.2600   29.3360   31.9510 C   0  0  0  0  0  0  0  0  0  0  0  0
   36.3650   29.6560   30.6060 C   0  0  0  0  0  3  0  0  0  0  0  0
   37.1680   28.9640   29.7000 C   0  0  0  0  0  3  0  0  0  0  0  0
   37.9190   27.8820   30.1560 C   0  0  0  0  0  3  0  0  0  0  0  0
   37.8290   27.5500   31.4870 C   0  0  0  0  0  3  0  0  0  0  0  0
   37.0240   28.2590   32.3420 C   0  0  0  0  0  0  0  0  0  0  0  0
   38.2970   22.9000   35.9900 C   0  0  0  0  0  0  0  0  0  0  0  0
   38.2380   24.2080   35.4330 C   0  0  0  0  0  0  0  0  0  0  0  0
   38.1630   25.2810   36.3150 C   0  0  0  0  0  0  0  0  0  0  0  0
   38.1490   25.0250   37.6610 N   0  0  0  0  0  0  0  0  0  0  0  0
   38.2070   23.7750   38.1520 C   0  0  0  0  0  0  0  0  0  0  0  0
   38.2810   22.6990   37.3200 N   0  0  0  0  0  0  0  0  0  0  0  0
   38.3570   22.0510   35.3240 H   0  0  0  0  0  0  0  0  0  0  0  0
   38.2580   24.2510   34.3540 H   0  0  0  0  0  0  0  0  0  0  0  0
   38.1850   23.7650   39.2370 H   0  0  0  0  0  0  0  0  0  0  0  0
  1 21  1  0  0  0  0
  1  4  1  1  0  0  0
  2  1  1  0  0  0  0
  3  7  1  6  0  0  0
  3  2  1  0  0  0  0
  3  1  1  0  0  0  0
  5  2  1  0  0  0  0
  6  2  1  0  0  0  0
  8  3  1  0  0  0  0
  8  9  1  0  0  0  0
  9 10  1  0  0  0  0
 11  9  2  0  0  0  0
 12 11  1  0  0  0  0
 13 18  1  0  0  0  0
 13 12  2  0  0  0  0
 14 13  1  0  0  0  0
 15 16  1  0  0  0  0
 15 14  2  0  0  0  0
 16 17  2  0  0  0  0
 17 18  1  0  0  0  0
 18  8  2  0  0  0  0
 19 24  1  0  0  0  0
 20 19  2  0  0  0  0
 20 21  1  0  0  0  0
 21 22  2  0  0  0  0
 22 23  1  0  0  0  0
 23 27  1  0  0  0  0
 24 23  2  0  0  0  0
 25 19  1  0  0  0  0
 26 20  1  0  0  0  0
M  END
>  <minimizedAffinity>
-5.59326601

$$$$

 OpenBabel03262521343D

 27 30  0  0  1  0  0  0  0  0999 V2000
   38.9640   26.9930   33.4410 C   0  0  1  0  0  0  0  0  0  0  0  0
   38.8110   27.3020   34.8470 C   0  0  0  0  0  0  0  0  0  0  0  0
   38.3700   25.9170   34.3280 C   0  0  2  0  0  0  0  0  0  0  0  0
   39.9840   26.7920   33.0620 H   0  0  0  0  0  0  0  0  0  0  0  0
   37.9380   27.9560   35.1390 H   0  0  0  0  0  0  0  0  0  0  0  0
   39.6420   27.4130   35.5280 H   0  0  0  0  0  0  0  0  0  0  0  0
   37.2580   25.7350   34.2540 H   0  0  0  0  0  0  0  0  0  0  0  0
   39.1660   24.8710   34.9770 C   0  0  0  0  0  0  0  0  0  0  0  0
   40.1580   24.4030   34.1020 C   0  0  0  0  0  0  0  0  0  0  0  0
   40.3690   24.7610   33.0860 H   0  0  0  0  0  0  0  0  0  0  0  0
   41.0210   23.3660   34.4800 C   0  0  0  0  0  3  0  0  0  0  0  0
   40.9230   22.7700   35.7300 C   0  0  0  0  0  3  0  0  0  0  0  0
   39.9520   23.2430   36.5620 C   0  0  0  0  0  0  0  0  0  0  0  0
   39.7360   22.7620   37.8450 C   0  0  0  0  0  3  0  0  0  0  0  0
   38.7550   23.2490   38.7060 C   0  0  0  0  0  3  0  0  0  0  0  0
   37.9290   24.2840   38.2700 C   0  0  0  0  0  3  0  0  0  0  0  0
   38.1270   24.7750   37.0010 C   0  0  0  0  0  3  0  0  0  0  0  0
   39.1060   24.2630   36.1870 C   0  0  0  0  0  0  0  0  0  0  0  0
   37.5940   28.1900   30.1590 C   0  0  0  0  0  0  0  0  0  0  0  0
   38.4910   27.6530   31.1250 C   0  0  0  0  0  0  0  0  0  0  0  0
   38.0320   27.5310   32.4320 C   0  0  0  0  0  0  0  0  0  0  0  0
   36.7530   27.9310   32.7200 N   0  0  0  0  0  0  0  0  0  0  0  0
   35.9330   28.4330   31.7810 C   0  0  0  0  0  0  0  0  0  0  0  0
   36.3460   28.5680   30.4910 N   0  0  0  0  0  0  0  0  0  0  0  0
   37.9290   28.2940   29.1370 H   0  0  0  0  0  0  0  0  0  0  0  0
   39.4660   27.3830   30.7480 H   0  0  0  0  0  0  0  0  0  0  0  0
   34.9630   28.6950   32.1900 H   0  0  0  0  0  0  0  0  0  0  0  0
  1  4  1  6  0  0  0
  1  3  1  0  0  0  0
  1  2  1  0  0  0  0
  2  5  1  0  0  0  0
  2  6  1  0  0  0  0
  3  7  1  6  0  0  0
  3  2  1  0  0  0  0
  3  8  1  0  0  0  0
  8 18  1  0  0  0  0
  9 11  1  0  0  0  0
  9  8  2  0  0  0  0
 10  9  1  0  0  0  0
 11 12  2  0  0  0  0
 12 13  1  0  0  0  0
 13 14  1  0  0  0  0
 14 15  2  0  0  0  0
 16 15  1  0  0  0  0
 17 16  2  0  0  0  0
 18 13  2  0  0  0  0
 18 17  1  0  0  0  0
 19 24  2  0  0  0  0
 19 20  1  0  0  0  0
 20 21  2  0  0  0  0
 21 22  1  0  0  0  0
 21  1  1  0  0  0  0
 23 27  1  0  0  0  0
 23 22  2  0  0  0  0
 24 23  1  0  0  0  0
 25 19  1  0  0  0  0
 26 20  1  0  0  0  0
M  END
>  <minimizedAffinity>
-5.41220951

$$$$

 OpenBabel03262521343D

 27 30  0  0  1  0  0  0  0  0999 V2000
   37.9920   26.1090   35.6390 C   0  0  1  0  0  0  0  0  0  0  0  0
   38.7730   27.3260   35.5620 C   0  0  0  0  0  0  0  0  0  0  0  0
   38.7880   26.3460   34.3710 C   0  0  2  0  0  0  0  0  0  0  0  0
   36.8930   26.1900   35.5370 H   0  0  0  0  0  0  0  0  0  0  0  0
   39.7530   27.3450   36.1230 H   0  0  0  0  0  0  0  0  0  0  0  0
   38.3370   28.3110   35.4800 H   0  0  0  0  0  0  0  0  0  0  0  0
   39.7300   25.7410   34.2250 H   0  0  0  0  0  0  0  0  0  0  0  0
   38.2410   27.0070   33.1810 C   0  0  0  0  0  0  0  0  0  0  0  0
   36.8550   27.1780   33.3160 C   0  0  0  0  0  0  0  0  0  0  0  0
   36.2330   26.9060   34.1790 H   0  0  0  0  0  0  0  0  0  0  0  0
   36.0950   27.7490   32.2860 C   0  0  0  0  0  3  0  0  0  0  0  0
   36.6900   28.1640   31.1020 C   0  0  0  0  0  3  0  0  0  0  0  0
   38.0380   27.9880   30.9960 C   0  0  0  0  0  0  0  0  0  0  0  0
   38.7770   28.3640   29.8850 C   0  0  0  0  0  3  0  0  0  0  0  0
   40.1570   28.2000   29.7740 C   0  0  0  0  0  3  0  0  0  0  0  0
   40.8540   27.6260   30.8360 C   0  0  0  0  0  3  0  0  0  0  0  0
   40.1390   27.2480   31.9480 C   0  0  0  0  0  3  0  0  0  0  0  0
   38.7800   27.4280   32.0120 C   0  0  0  0  0  0  0  0  0  0  0  0
   39.8480   23.0060   36.6430 C   0  0  0  0  0  0  0  0  0  0  0  0
   39.4230   24.1300   35.8800 C   0  0  0  0  0  0  0  0  0  0  0  0
   38.4490   24.9540   36.4340 C   0  0  0  0  0  0  0  0  0  0  0  0
   37.9530   24.6430   37.6730 N   0  0  0  0  0  0  0  0  0  0  0  0
   38.3780   23.5730   38.3660 C   0  0  0  0  0  0  0  0  0  0  0  0
   39.3300   22.7430   37.8570 N   0  0  0  0  0  0  0  0  0  0  0  0
   40.6040   22.3520   36.2330 H   0  0  0  0  0  0  0  0  0  0  0  0
   39.9050   24.2450   34.9200 H   0  0  0  0  0  0  0  0  0  0  0  0
   37.8750   23.4860   39.3230 H   0  0  0  0  0  0  0  0  0  0  0  0
  1  4  1  6  0  0  0
  1 21  1  0  0  0  0
  2  1  1  0  0  0  0
  2  5  1  0  0  0  0
  3  7  1  6  0  0  0
  3  2  1  0  0  0  0
  3  1  1  0  0  0  0
  6  2  1  0  0  0  0
  8  9  1  0  0  0  0
  8  3  1  0  0  0  0
  9 10  1  0  0  0  0
 11  9  2  0  0  0  0
 12 11  1  0  0  0  0
 13 12  2  0  0  0  0
 13 18  1  0  0  0  0
 14 13  1  0  0  0  0
 15 14  2  0  0  0  0
 15 16  1  0  0  0  0
 16 17  2  0  0  0  0
 17 18  1  0  0  0  0
 18  8  2  0  0  0  0
 19 24  1  0  0  0  0
 20 21  1  0  0  0  0
 20 19  2  0  0  0  0
 21 22  2  0  0  0  0
 22 23  1  0  0  0  0
 23 27  1  0  0  0  0
 24 23  2  0  0  0  0
 25 19  1  0  0  0  0
 26 20  1  0  0  0  0
M  END
>  <minimizedAffinity>
-5.38989735

$$$$

 OpenBabel03262521343D

 27 30  0  0  1  0  0  0  0  0999 V2000
   38.2760   26.6320   35.4430 C   0  0  1  0  0  0  0  0  0  0  0  0
   39.4880   26.9520   34.7180 C   0  0  0  0  0  0  0  0  0  0  0  0
   38.2890   26.3560   33.9530 C   0  0  2  0  0  0  0  0  0  0  0  0
   37.6300   27.4690   35.7690 H   0  0  0  0  0  0  0  0  0  0  0  0
   40.3500   26.2290   34.8110 H   0  0  0  0  0  0  0  0  0  0  0  0
   39.8280   27.9630   34.5410 H   0  0  0  0  0  0  0  0  0  0  0  0
   38.3840   25.2800   33.6220 H   0  0  0  0  0  0  0  0  0  0  0  0
   37.8210   27.3140   32.9460 C   0  0  0  0  0  0  0  0  0  0  0  0
   38.5610   27.1740   31.7630 C   0  0  0  0  0  0  0  0  0  0  0  0
   39.3580   26.4470   31.5600 H   0  0  0  0  0  0  0  0  0  0  0  0
   38.3290   28.0120   30.6640 C   0  0  0  0  0  3  0  0  0  0  0  0
   37.3590   29.0050   30.7120 C   0  0  0  0  0  3  0  0  0  0  0  0
   36.6530   29.1190   31.8720 C   0  0  0  0  0  0  0  0  0  0  0  0
   35.6440   30.0500   32.0700 C   0  0  0  0  0  3  0  0  0  0  0  0
   34.9080   30.1650   33.2480 C   0  0  0  0  0  3  0  0  0  0  0  0
   35.1880   29.2990   34.3040 C   0  0  0  0  0  3  0  0  0  0  0  0
   36.1840   28.3680   34.1270 C   0  0  0  0  0  3  0  0  0  0  0  0
   36.8840   28.2930   32.9490 C   0  0  0  0  0  0  0  0  0  0  0  0
   38.0720   23.0250   36.4560 C   0  0  0  0  0  0  0  0  0  0  0  0
   38.1820   24.1880   35.6440 C   0  0  0  0  0  0  0  0  0  0  0  0
   38.1830   25.4230   36.2830 C   0  0  0  0  0  0  0  0  0  0  0  0
   38.0780   25.4560   37.6490 N   0  0  0  0  0  0  0  0  0  0  0  0
   37.9770   24.3360   38.3850 C   0  0  0  0  0  0  0  0  0  0  0  0
   37.9720   23.1090   37.7950 N   0  0  0  0  0  0  0  0  0  0  0  0
   38.0700   22.0540   35.9810 H   0  0  0  0  0  0  0  0  0  0  0  0
   38.2570   24.0030   34.5820 H   0  0  0  0  0  0  0  0  0  0  0  0
   37.9030   24.5550   39.4450 H   0  0  0  0  0  0  0  0  0  0  0  0
  1  4  1  1  0  0  0
  1 21  1  0  0  0  0
  2  5  1  0  0  0  0
  2  1  1  0  0  0  0
  3  7  1  6  0  0  0
  3  2  1  0  0  0  0
  3  1  1  0  0  0  0
  6  2  1  0  0  0  0
  8 18  1  0  0  0  0
  8  3  1  0  0  0  0
  9  8  2  0  0  0  0
 10  9  1  0  0  0  0
 11 12  2  0  0  0  0
 11  9  1  0  0  0  0
 12 13  1  0  0  0  0
 13 14  2  0  0  0  0
 13 18  1  0  0  0  0
 14 15  1  0  0  0  0
 15 16  2  0  0  0  0
 17 16  1  0  0  0  0
 18 17  2  0  0  0  0
 19 24  1  0  0  0  0
 20 21  1  0  0  0  0
 20 19  2  0  0  0  0
 21 22  2  0  0  0  0
 22 23  1  0  0  0  0
 23 27  1  0  0  0  0
 24 23  2  0  0  0  0
 25 19  1  0  0  0  0
 26 20  1  0  0  0  0
M  END
>  <minimizedAffinity>
-5.3620739

$$$$

 OpenBabel03262521343D

 27 30  0  0  1  0  0  0  0  0999 V2000
   37.4650   25.3860   33.7380 C   0  0  1  0  0  0  0  0  0  0  0  0
   38.0220   24.1110   33.3410 C   0  0  0  0  0  0  0  0  0  0  0  0
   38.8110   25.0040   34.3210 C   0  0  2  0  0  0  0  0  0  0  0  0
   36.6170   25.3840   34.4480 H   0  0  0  0  0  0  0  0  0  0  0  0
   38.5030   24.0530   32.3210 H   0  0  0  0  0  0  0  0  0  0  0  0
   37.6120   23.1590   33.6460 H   0  0  0  0  0  0  0  0  0  0  0  0
   39.7250   25.5230   33.9100 H   0  0  0  0  0  0  0  0  0  0  0  0
   38.9710   24.3080   35.6020 C   0  0  0  0  0  0  0  0  0  0  0  0
   37.9930   24.7370   36.5120 C   0  0  0  0  0  0  0  0  0  0  0  0
   37.1850   25.4570   36.3280 H   0  0  0  0  0  0  0  0  0  0  0  0
   37.9650   24.2470   37.8250 C   0  0  0  0  0  3  0  0  0  0  0  0
   38.9030   23.3240   38.2650 C   0  0  0  0  0  3  0  0  0  0  0  0
   39.8420   22.9220   37.3620 C   0  0  0  0  0  0  0  0  0  0  0  0
   40.8350   21.9960   37.6450 C   0  0  0  0  0  3  0  0  0  0  0  0
   41.7900   21.5700   36.7240 C   0  0  0  0  0  3  0  0  0  0  0  0
   41.7620   22.0960   35.4330 C   0  0  0  0  0  3  0  0  0  0  0  0
   40.7840   23.0140   35.1320 C   0  0  0  0  0  3  0  0  0  0  0  0
   39.8640   23.4050   36.0730 C   0  0  0  0  0  0  0  0  0  0  0  0
   36.6410   28.7070   32.1970 C   0  0  0  0  0  0  0  0  0  0  0  0
   36.6120   27.5920   33.0800 C   0  0  0  0  0  0  0  0  0  0  0  0
   37.5050   26.5530   32.8360 C   0  0  0  0  0  0  0  0  0  0  0  0
   38.3570   26.6570   31.7680 N   0  0  0  0  0  0  0  0  0  0  0  0
   38.3580   27.7270   30.9540 C   0  0  0  0  0  0  0  0  0  0  0  0
   37.4980   28.7630   31.1610 N   0  0  0  0  0  0  0  0  0  0  0  0
   35.9570   29.5260   32.3660 H   0  0  0  0  0  0  0  0  0  0  0  0
   35.8850   27.6530   33.8760 H   0  0  0  0  0  0  0  0  0  0  0  0
   39.0970   27.6350   30.1660 H   0  0  0  0  0  0  0  0  0  0  0  0
  1  3  1  0  0  0  0
  1  4  1  1  0  0  0
  2  6  1  0  0  0  0
  2  1  1  0  0  0  0
  2  3  1  0  0  0  0
  3  7  1  6  0  0  0
  3  8  1  0  0  0  0
  5  2  1  0  0  0  0
  8 18  2  0  0  0  0
  8  9  1  0  0  0  0
  9 11  2  0  0  0  0
 10  9  1  0  0  0  0
 11 12  1  0  0  0  0
 13 14  1  0  0  0  0
 13 12  2  0  0  0  0
 15 14  2  0  0  0  0
 16 15  1  0  0  0  0
 17 16  2  0  0  0  0
 17 18  1  0  0  0  0
 18 13  1  0  0  0  0
 19 25  1  0  0  0  0
 19 20  1  0  0  0  0
 20 26  1  0  0  0  0
 21 20  2  0  0  0  0
 21  1  1  0  0  0  0
 22 21  1  0  0  0  0
 23 24  1  0  0  0  0
 23 22  2  0  0  0  0
 24 19  2  0  0  0  0
 27 23  1  0  0  0  0
M  END
>  <minimizedAffinity>
-5.34197474

$$$$

 OpenBabel03262521343D

 27 30  0  0  1  0  0  0  0  0999 V2000
   34.3320   29.9620   33.8480 C   0  0  1  0  0  0  0  0  0  0  0  0
   35.4780   30.4040   34.6150 C   0  0  0  0  0  0  0  0  0  0  0  0
   35.2630   28.8930   34.3850 C   0  0  2  0  0  0  0  0  0  0  0  0
   34.3530   30.1090   32.7520 H   0  0  0  0  0  0  0  0  0  0  0  0
   35.2930   30.7120   35.6860 H   0  0  0  0  0  0  0  0  0  0  0  0
   36.3180   30.9290   34.1840 H   0  0  0  0  0  0  0  0  0  0  0  0
   34.9100   28.2910   35.2730 H   0  0  0  0  0  0  0  0  0  0  0  0
   36.3920   28.3450   33.6260 C   0  0  0  0  0  0  0  0  0  0  0  0
   36.1460   28.4500   32.2490 C   0  0  0  0  0  0  0  0  0  0  0  0
   35.2710   28.9010   31.7630 H   0  0  0  0  0  0  0  0  0  0  0  0
   37.0640   27.9530   31.3130 C   0  0  0  0  0  3  0  0  0  0  0  0
   38.2420   27.3410   31.7190 C   0  0  0  0  0  3  0  0  0  0  0  0
   38.4570   27.2520   33.0620 C   0  0  0  0  0  0  0  0  0  0  0  0
   39.5910   26.6830   33.6230 C   0  0  0  0  0  3  0  0  0  0  0  0
   39.8250   26.6000   34.9950 C   0  0  0  0  0  3  0  0  0  0  0  0
   38.8730   27.1160   35.8720 C   0  0  0  0  0  3  0  0  0  0  0  0
   37.7430   27.6850   35.3360 C   0  0  0  0  0  3  0  0  0  0  0  0
   37.5540   27.7440   33.9780 C   0  0  0  0  0  0  0  0  0  0  0  0
   31.5310   30.3450   36.3150 C   0  0  0  0  0  0  0  0  0  0  0  0
   32.8330   30.3880   35.7450 C   0  0  0  0  0  0  0  0  0  0  0  0
   32.9800   29.9380   34.4360 C   0  0  0  0  0  0  0  0  0  0  0  0
   31.8720   29.4820   33.7710 N   0  0  0  0  0  0  0  0  0  0  0  0
   30.6550   29.4570   34.3410 C   0  0  0  0  0  0  0  0  0  0  0  0
   30.4730   29.8890   35.6200 N   0  0  0  0  0  0  0  0  0  0  0  0
   31.3930   30.6890   37.3300 H   0  0  0  0  0  0  0  0  0  0  0  0
   33.6080   30.7730   36.3920 H   0  0  0  0  0  0  0  0  0  0  0  0
   29.9010   29.0660   33.6670 H   0  0  0  0  0  0  0  0  0  0  0  0
  1  4  1  6  0  0  0
  1  3  1  0  0  0  0
  1 21  1  0  0  0  0
  1  2  1  0  0  0  0
  2  5  1  0  0  0  0
  3  2  1  0  0  0  0
  3  7  1  1  0  0  0
  6  2  1  0  0  0  0
  8 18  1  0  0  0  0
  8  3  1  0  0  0  0
  9  8  2  0  0  0  0
 10  9  1  0  0  0  0
 11 12  2  0  0  0  0
 11  9  1  0  0  0  0
 12 13  1  0  0  0  0
 13 14  2  0  0  0  0
 13 18  1  0  0  0  0
 14 15  1  0  0  0  0
 15 16  2  0  0  0  0
 17 16  1  0  0  0  0
 18 17  2  0  0  0  0
 19 25  1  0  0  0  0
 20 19  1  0  0  0  0
 20 26  1  0  0  0  0
 21 20  2  0  0  0  0
 22 23  2  0  0  0  0
 22 21  1  0  0  0  0
 23 24  1  0  0  0  0
 24 19  2  0  0  0  0
 27 23  1  0  0  0  0
M  END
>  <minimizedAffinity>
-5.31339931

$$$$

 OpenBabel03262521343D

 27 30  0  0  1  0  0  0  0  0999 V2000
   35.1820   29.9740   34.8650 C   0  0  1  0  0  0  0  0  0  0  0  0
   34.3860   29.6050   33.7130 C   0  0  0  0  0  0  0  0  0  0  0  0
   35.9240   29.5690   33.6070 C   0  0  2  0  0  0  0  0  0  0  0  0
   35.2400   29.2590   35.7070 H   0  0  0  0  0  0  0  0  0  0  0  0
   33.9270   30.4440   33.1130 H   0  0  0  0  0  0  0  0  0  0  0  0
   33.7930   28.7020   33.6620 H   0  0  0  0  0  0  0  0  0  0  0  0
   36.4090   30.3880   33.0000 H   0  0  0  0  0  0  0  0  0  0  0  0
   36.3680   28.1980   33.3330 C   0  0  0  0  0  0  0  0  0  0  0  0
   35.8660   27.7640   32.0970 C   0  0  0  0  0  0  0  0  0  0  0  0
   35.2570   28.3400   31.3880 H   0  0  0  0  0  0  0  0  0  0  0  0
   36.1170   26.4660   31.6320 C   0  0  0  0  0  3  0  0  0  0  0  0
   36.8700   25.5700   32.3800 C   0  0  0  0  0  3  0  0  0  0  0  0
   37.3470   26.0160   33.5760 C   0  0  0  0  0  0  0  0  0  0  0  0
   38.1250   25.2480   34.4290 C   0  0  0  0  0  3  0  0  0  0  0  0
   38.6280   25.7010   35.6470 C   0  0  0  0  0  3  0  0  0  0  0  0
   38.3430   27.0040   36.0510 C   0  0  0  0  0  3  0  0  0  0  0  0
   37.5740   27.7820   35.2190 C   0  0  0  0  0  3  0  0  0  0  0  0
   37.0990   27.2930   34.0280 C   0  0  0  0  0  0  0  0  0  0  0  0
   34.9800   33.1740   36.8140 C   0  0  0  0  0  0  0  0  0  0  0  0
   34.8180   31.8070   36.4560 C   0  0  0  0  0  0  0  0  0  0  0  0
   35.3650   31.3860   35.2480 C   0  0  0  0  0  0  0  0  0  0  0  0
   36.0240   32.3030   34.4720 N   0  0  0  0  0  0  0  0  0  0  0  0
   36.1590   33.5880   34.8410 C   0  0  0  0  0  0  0  0  0  0  0  0
   35.6370   34.0360   36.0170 N   0  0  0  0  0  0  0  0  0  0  0  0
   34.5640   33.5230   37.7480 H   0  0  0  0  0  0  0  0  0  0  0  0
   34.2750   31.2050   37.1700 H   0  0  0  0  0  0  0  0  0  0  0  0
   36.7080   34.1650   34.1050 H   0  0  0  0  0  0  0  0  0  0  0  0
  1 21  1  0  0  0  0
  1  4  1  1  0  0  0
  2  1  1  0  0  0  0
  3  7  1  6  0  0  0
  3  2  1  0  0  0  0
  3  1  1  0  0  0  0
  5  2  1  0  0  0  0
  6  2  1  0  0  0  0
  8  3  1  0  0  0  0
  8 18  1  0  0  0  0
  9  8  2  0  0  0  0
 10  9  1  0  0  0  0
 11  9  1  0  0  0  0
 11 12  2  0  0  0  0
 12 13  1  0  0  0  0
 13 18  2  0  0  0  0
 13 14  1  0  0  0  0
 14 15  2  0  0  0  0
 15 16  1  0  0  0  0
 17 16  2  0  0  0  0
 18 17  1  0  0  0  0
 19 25  1  0  0  0  0
 20 19  1  0  0  0  0
 20 26  1  0  0  0  0
 21 20  2  0  0  0  0
 22 23  2  0  0  0  0
 22 21  1  0  0  0  0
 23 24  1  0  0  0  0
 24 19  2  0  0  0  0
 27 23  1  0  0  0  0
M  END
>  <minimizedAffinity>
-5.31246424

$$$$

 OpenBabel03262521343D

 27 30  0  0  1  0  0  0  0  0999 V2000
   35.9230   29.0830   33.0150 C   0  0  1  0  0  0  0  0  0  0  0  0
   34.7450   29.7610   32.5150 C   0  0  0  0  0  0  0  0  0  0  0  0
   34.7470   29.2230   33.9610 C   0  0  2  0  0  0  0  0  0  0  0  0
   36.8100   29.6960   33.2600 H   0  0  0  0  0  0  0  0  0  0  0  0
   34.0640   29.1740   31.8320 H   0  0  0  0  0  0  0  0  0  0  0  0
   34.7110   30.8210   32.3050 H   0  0  0  0  0  0  0  0  0  0  0  0
   34.1230   28.3020   34.1590 H   0  0  0  0  0  0  0  0  0  0  0  0
   34.5910   30.3360   34.9020 C   0  0  0  0  0  0  0  0  0  0  0  0
   35.8420   30.8980   35.1990 C   0  0  0  0  0  0  0  0  0  0  0  0
   36.8160   30.6060   34.7860 H   0  0  0  0  0  0  0  0  0  0  0  0
   35.9590   31.9540   36.1130 C   0  0  0  0  0  3  0  0  0  0  0  0
   34.8430   32.4760   36.7530 C   0  0  0  0  0  3  0  0  0  0  0  0
   33.6390   31.9130   36.4460 C   0  0  0  0  0  0  0  0  0  0  0  0
   32.4340   32.3320   36.9900 C   0  0  0  0  0  3  0  0  0  0  0  0
   31.1980   31.7710   36.6720 C   0  0  0  0  0  3  0  0  0  0  0  0
   31.1500   30.7250   35.7530 C   0  0  0  0  0  3  0  0  0  0  0  0
   32.3350   30.2960   35.2020 C   0  0  0  0  0  3  0  0  0  0  0  0
   33.5290   30.8770   35.5460 C   0  0  0  0  0  0  0  0  0  0  0  0
   37.3630   25.6180   33.0810 C   0  0  0  0  0  0  0  0  0  0  0  0
   37.0560   26.9530   33.4670 C   0  0  0  0  0  0  0  0  0  0  0  0
   36.2280   27.6920   32.6290 C   0  0  0  0  0  0  0  0  0  0  0  0
   35.7570   27.1030   31.4850 N   0  0  0  0  0  0  0  0  0  0  0  0
   36.0670   25.8380   31.1510 C   0  0  0  0  0  0  0  0  0  0  0  0
   36.8740   25.0840   31.9470 N   0  0  0  0  0  0  0  0  0  0  0  0
   38.0030   25.0250   33.7170 H   0  0  0  0  0  0  0  0  0  0  0  0
   37.5010   27.2780   34.3960 H   0  0  0  0  0  0  0  0  0  0  0  0
   35.6050   25.5420   30.2160 H   0  0  0  0  0  0  0  0  0  0  0  0
  1  4  1  1  0  0  0
  1  3  1  0  0  0  0
  2  1  1  0  0  0  0
  2  3  1  0  0  0  0
  3  7  1  1  0  0  0
  3  8  1  0  0  0  0
  5  2  1  0  0  0  0
  6  2  1  0  0  0  0
  8  9  2  0  0  0  0
  8 18  1  0  0  0  0
  9 11  1  0  0  0  0
 10  9  1  0  0  0  0
 11 12  2  0  0  0  0
 13 12  1  0  0  0  0
 13 14  1  0  0  0  0
 15 14  2  0  0  0  0
 16 15  1  0  0  0  0
 17 18  1  0  0  0  0
 17 16  2  0  0  0  0
 18 13  2  0  0  0  0
 19 20  1  0  0  0  0
 19 25  1  0  0  0  0
 20 26  1  0  0  0  0
 21  1  1  0  0  0  0
 21 20  2  0  0  0  0
 22 21  1  0  0  0  0
 23 22  2  0  0  0  0
 23 24  1  0  0  0  0
 24 19  2  0  0  0  0
 27 23  1  0  0  0  0
M  END
>  <minimizedAffinity>
-5.27092695

$$$$

 OpenBabel03262521343D

 27 30  0  0  1  0  0  0  0  0999 V2000
   38.5500   24.3820   35.5200 C   0  0  1  0  0  0  0  0  0  0  0  0
   38.2200   25.7180   35.9680 C   0  0  0  0  0  0  0  0  0  0  0  0
   38.8060   25.5220   34.5550 C   0  0  2  0  0  0  0  0  0  0  0  0
   37.7180   23.7040   35.2510 H   0  0  0  0  0  0  0  0  0  0  0  0
   38.9450   26.2190   36.6750 H   0  0  0  0  0  0  0  0  0  0  0  0
   37.2080   26.0650   36.1190 H   0  0  0  0  0  0  0  0  0  0  0  0
   39.8770   25.8450   34.4010 H   0  0  0  0  0  0  0  0  0  0  0  0
   37.8340   25.9690   33.5510 C   0  0  0  0  0  0  0  0  0  0  0  0
   37.7100   27.3660   33.5850 C   0  0  0  0  0  0  0  0  0  0  0  0
   38.2640   28.0660   34.2240 H   0  0  0  0  0  0  0  0  0  0  0  0
   36.8050   28.0300   32.7460 C   0  0  0  0  0  3  0  0  0  0  0  0
   36.0040   27.3270   31.8560 C   0  0  0  0  0  3  0  0  0  0  0  0
   36.1440   25.9710   31.8420 C   0  0  0  0  0  0  0  0  0  0  0  0
   35.4270   25.1330   31.0020 C   0  0  0  0  0  3  0  0  0  0  0  0
   35.5730   23.7460   30.9720 C   0  0  0  0  0  3  0  0  0  0  0  0
   36.4930   23.1480   31.8320 C   0  0  0  0  0  3  0  0  0  0  0  0
   37.2140   23.9620   32.6720 C   0  0  0  0  0  3  0  0  0  0  0  0
   37.0350   25.3230   32.6680 C   0  0  0  0  0  0  0  0  0  0  0  0
   40.8220   22.1240   37.4740 C   0  0  0  0  0  0  0  0  0  0  0  0
   39.6400   22.7680   37.0140 C   0  0  0  0  0  0  0  0  0  0  0  0
   39.7700   23.6970   35.9860 C   0  0  0  0  0  0  0  0  0  0  0  0
   41.0180   23.9410   35.4770 N   0  0  0  0  0  0  0  0  0  0  0  0
   42.1140   23.3130   35.9350 C   0  0  0  0  0  0  0  0  0  0  0  0
   42.0260   22.3980   36.9400 N   0  0  0  0  0  0  0  0  0  0  0  0
   40.7450   21.3980   38.2710 H   0  0  0  0  0  0  0  0  0  0  0  0
   38.7290   22.4720   37.5140 H   0  0  0  0  0  0  0  0  0  0  0  0
   43.0110   23.6320   35.4150 H   0  0  0  0  0  0  0  0  0  0  0  0
  1  4  1  6  0  0  0
  1  2  1  0  0  0  0
  1 21  1  0  0  0  0
  2  6  1  0  0  0  0
  2  5  1  0  0  0  0
  3  7  1  6  0  0  0
  3  1  1  0  0  0  0
  3  2  1  0  0  0  0
  8  9  1  0  0  0  0
  8  3  1  0  0  0  0
  9 10  1  0  0  0  0
 11  9  2  0  0  0  0
 12 11  1  0  0  0  0
 13 12  2  0  0  0  0
 13 18  1  0  0  0  0
 14 13  1  0  0  0  0
 15 14  2  0  0  0  0
 15 16  1  0  0  0  0
 16 17  2  0  0  0  0
 18 17  1  0  0  0  0
 18  8  2  0  0  0  0
 19 25  1  0  0  0  0
 20 19  1  0  0  0  0
 20 26  1  0  0  0  0
 21 20  2  0  0  0  0
 22 23  2  0  0  0  0
 22 21  1  0  0  0  0
 23 24  1  0  0  0  0
 24 19  2  0  0  0  0
 27 23  1  0  0  0  0
M  END
>  <minimizedAffinity>
-5.24766207

$$$$
