
     RDKit          3D

 43 47  0  0  0  0  0  0  0  0999 V2000
   36.7798   31.1576   50.1813 C   0  0  1  0  0  0  0  0  0  0  0  0
   36.4637   29.7645   50.1227 C   0  0  1  0  0  0  0  0  0  0  0  0
   37.4920   30.1717   51.1318 C   0  0  0  0  0  0  0  0  0  0  0  0
   37.7550   31.7949   49.2176 C   0  0  0  0  0  0  0  0  0  0  0  0
   38.2128   33.0634   49.5543 C   0  0  0  0  0  0  0  0  0  0  0  0
   39.1020   33.6490   48.6338 C   0  0  0  0  0  0  0  0  0  0  0  0
   39.4570   32.9699   47.5008 N   0  0  0  0  0  0  0  0  0  0  0  0
   38.9807   31.7229   47.2116 C   0  0  0  0  0  0  0  0  0  0  0  0
   38.1122   31.1294   48.0933 N   0  0  0  0  0  0  0  0  0  0  0  0
   35.0899   29.2954   50.5100 C   0  0  0  0  0  0  0  0  0  0  0  0
   34.2122   29.0492   49.3245 C   0  0  0  0  0  0  0  0  0  0  0  0
   34.2050   29.8463   48.2093 C   0  0  0  0  0  0  0  0  0  0  0  0
   33.3310   29.3837   47.3258 N   0  0  0  0  0  0  0  0  0  0  0  0
   32.7733   28.3044   47.8416 C   0  0  0  0  0  0  0  0  0  0  0  0
   33.3115   28.1048   49.0596 N   0  0  0  0  0  0  0  0  0  0  0  0
   36.1314   31.9077   50.7188 H   0  0  0  0  0  0  0  0  0  0  0  0
   36.8414   29.1999   49.2145 H   0  0  0  0  0  0  0  0  0  0  0  0
   37.1422   30.1257   52.1817 H   0  0  0  0  0  0  0  0  0  0  0  0
   38.5223   29.8845   50.9131 H   0  0  0  0  0  0  0  0  0  0  0  0
   37.9252   33.5743   50.4390 H   0  0  0  0  0  0  0  0  0  0  0  0
   39.5079   34.6291   48.8115 H   0  0  0  0  0  0  0  0  0  0  0  0
   39.2665   31.2021   46.3211 H   0  0  0  0  0  0  0  0  0  0  0  0
   35.1230   28.3965   51.1576 H   0  0  0  0  0  0  0  0  0  0  0  0
   34.5614   30.0795   51.1122 H   0  0  0  0  0  0  0  0  0  0  0  0
   34.8414   30.7394   48.0830 H   0  0  0  0  0  0  0  0  0  0  0  0
   33.1461   29.8504   46.4425 H   0  0  0  0  0  0  0  0  0  0  0  0
   31.8251   27.3074   47.3856 C   0  0  0  0  0  0  0  0  0  0  0  0
   32.2460   26.2418   46.5752 C   0  0  0  0  0  0  0  0  0  0  0  0
   33.2970   26.1640   46.3011 H   0  0  0  0  0  0  0  0  0  0  0  0
   31.4435   25.2502   46.0746 C   0  0  0  0  0  0  0  0  0  0  0  0
   30.1046   25.2580   46.3627 C   0  0  0  0  0  0  0  0  0  0  0  0
   29.6102   26.2704   47.1493 C   0  0  0  0  0  0  0  0  0  0  0  0
   28.2665   26.2581   47.3868 C   0  0  0  0  0  0  0  0  0  0  0  0
   27.6821   27.2374   48.1259 C   0  0  0  0  0  0  0  0  0  0  0  0
   28.5200   28.2402   48.6190 C   0  0  0  0  0  0  0  0  0  0  0  0
   29.8636   28.1910   48.3425 C   0  0  0  0  0  0  0  0  0  0  0  0
   30.4784   27.2182   47.6060 C   0  0  0  0  0  0  0  0  0  0  0  0
   31.8607   24.4724   45.4624 H   0  0  0  0  0  0  0  0  0  0  0  0
   29.5038   24.4758   45.9628 H   0  0  0  0  0  0  0  0  0  0  0  0
   27.6326   25.4776   46.9990 H   0  0  0  0  0  0  0  0  0  0  0  0
   26.6253   27.2194   48.3082 H   0  0  0  0  0  0  0  0  0  0  0  0
   28.0254   29.0100   49.2047 H   0  0  0  0  0  0  0  0  0  0  0  0
   30.3788   29.0266   48.7430 H   0  0  0  0  0  0  0  0  0  0  0  0
  1  3  1  0
  2  1  1  0
  2 10  1  0
  2  3  1  0
  4  5  2  0
  4  1  1  0
  6  5  1  0
  7  6  2  0
  8  7  1  0
  8  9  2  0
  9  4  1  0
 11 10  1  0
 12 11  2  0
 13 14  1  0
 13 12  1  0
 14 15  2  0
 15 11  1  0
  1 16  1  1
  2 17  1  6
  3 18  1  0
  3 19  1  0
  5 20  1  0
  6 21  1  0
  8 22  1  0
 10 23  1  0
 10 24  1  0
 12 25  1  0
 13 26  1  0
 27 28  2  0
 28 29  1  0
 28 30  1  0
 30 31  2  0
 31 32  1  0
 32 33  2  0
 33 34  1  0
 34 35  2  0
 35 36  1  0
 36 37  2  0
 37 27  1  0
 37 32  1  0
 30 38  1  0
 31 39  1  0
 33 40  1  0
 34 41  1  0
 35 42  1  0
 36 43  1  0
 14 27  1  0
M  ISO  8  16  13  17  13  18  13  19  13  20  14  21  14  22  14  23   8
M  ISO  4  24   8  25  14  26   9  29  15
M  END
>  <DihAtoms>  (1) 
12,13,26,27

>  <DihDeg>  (1) 
-159.0859758243129

$$$$
