
 OpenBabel03272502243D

 31 34  0  0  0  0  0  0  0  0999 V2000
   35.9130   29.4220   31.2040 C   0  0  0  0  0  0  0  0  0  0  0  0
   36.4760   28.1780   31.4740 C   0  0  0  0  0  0  0  0  0  0  0  0
   36.5040   27.7770   32.7870 C   0  0  0  0  0  0  0  0  0  0  0  0
   35.9880   28.6200   33.6870 N   0  0  0  0  0  0  0  0  0  0  0  0
   35.4460   29.8200   33.4390 C   0  0  0  0  0  0  0  0  0  0  0  0
   35.4220   30.2040   32.1520 N   0  0  0  0  0  0  0  0  0  0  0  0
   35.8810   29.7580   30.1770 H   0  0  0  0  0  0  0  0  0  0  0  0
   36.8880   27.5090   30.7350 H   0  0  0  0  0  0  0  0  0  0  0  0
   34.9690   30.5040   34.6470 C   0  0  0  0  0  0  0  0  0  0  0  0
   35.7920   31.4020   35.3020 C   0  0  0  0  0  0  0  0  0  0  0  0
   36.7970   31.6320   34.9570 H   0  0  0  0  0  0  0  0  0  0  0  0
   35.4200   32.0830   36.4410 C   0  0  0  0  0  3  0  0  0  0  0  0
   34.1860   31.8940   36.9860 C   0  0  0  0  0  3  0  0  0  0  0  0
   33.3470   31.0120   36.3640 C   0  0  0  0  0  0  0  0  0  0  0  0
   32.0960   30.8180   36.9170 C   0  0  0  0  0  3  0  0  0  0  0  0
   31.1930   29.9410   36.3450 C   0  0  0  0  0  3  0  0  0  0  0  0
   31.6080   29.2690   35.1900 C   0  0  0  0  0  3  0  0  0  0  0  0
   32.8630   29.5010   34.6830 C   0  0  0  0  0  3  0  0  0  0  0  0
   33.7610   30.3610   35.2380 C   0  0  0  0  0  0  0  0  0  0  0  0
   37.0610   26.5010   33.2710 C   0  0  0  0  0  0  0  0  0  0  0  0
   37.3130   25.4360   32.4200 C   0  0  0  0  0  0  0  0  0  0  0  0
   37.8340   24.2400   32.8780 C   0  0  0  0  0  0  0  0  0  0  0  0
   38.1080   24.0960   34.1940 N   0  0  0  0  0  0  0  0  0  0  0  0
   37.8550   25.1390   34.9900 C   0  0  0  0  0  0  0  0  0  0  0  0
   37.3510   26.3110   34.5720 N   0  0  0  0  0  0  0  0  0  0  0  0
   37.0930   25.5550   31.3680 H   0  0  0  0  0  0  0  0  0  0  0  0
   38.0010   23.4600   32.1510 H   0  0  0  0  0  0  0  0  0  0  0  0
   38.1460   25.0190   36.4550 C   0  0  0  0  0  0  0  0  0  0  0  0
   39.3030   24.2790   36.6120 F   0  0  0  0  0  0  0  0  0  0  0  0
   38.2720   26.2910   37.0370 F   0  0  0  0  0  0  0  0  0  0  0  0
   37.1490   24.3660   37.1110 F   0  0  0  0  0  0  0  0  0  0  0  0
  1  2  2  0  0  0  0
  1  6  1  0  0  0  0
  2  3  1  0  0  0  0
  3 20  1  0  0  0  0
  3  4  2  0  0  0  0
  5  4  1  0  0  0  0
  5  9  1  0  0  0  0
  6  5  2  0  0  0  0
  7  1  1  0  0  0  0
  8  2  1  0  0  0  0
  9 19  2  0  0  0  0
  9 10  1  0  0  0  0
 10 12  2  0  0  0  0
 11 10  1  0  0  0  0
 12 13  1  0  0  0  0
 14 15  1  0  0  0  0
 14 13  2  0  0  0  0
 16 15  2  0  0  0  0
 17 16  1  0  0  0  0
 18 17  2  0  0  0  0
 18 19  1  0  0  0  0
 19 14  1  0  0  0  0
 20 25  1  0  0  0  0
 21 22  1  0  0  0  0
 21 20  2  0  0  0  0
 22 23  2  0  0  0  0
 23 24  1  0  0  0  0
 24 28  1  0  0  0  0
 25 24  2  0  0  0  0
 26 21  1  0  0  0  0
 27 22  1  0  0  0  0
 28 29  1  0  0  0  0
 28 30  1  0  0  0  0
 28 31  1  0  0  0  0
M  END
>  <minimizedAffinity>
-6.90206575

$$$$

 OpenBabel03272502243D

 31 34  0  0  0  0  0  0  0  0999 V2000
   36.2840   29.3490   30.8490 C   0  0  0  0  0  0  0  0  0  0  0  0
   36.9440   28.1760   31.2040 C   0  0  0  0  0  0  0  0  0  0  0  0
   36.5930   27.6010   32.4010 C   0  0  0  0  0  0  0  0  0  0  0  0
   35.6510   28.2220   33.1160 N   0  0  0  0  0  0  0  0  0  0  0  0
   35.0100   29.3510   32.7850 C   0  0  0  0  0  0  0  0  0  0  0  0
   35.3580   29.9060   31.6130 N   0  0  0  0  0  0  0  0  0  0  0  0
   36.5430   29.8190   29.9100 H   0  0  0  0  0  0  0  0  0  0  0  0
   37.7030   27.6870   30.6150 H   0  0  0  0  0  0  0  0  0  0  0  0
   34.0270   29.7780   33.7880 C   0  0  0  0  0  0  0  0  0  0  0  0
   32.7150   29.3530   33.6940 C   0  0  0  0  0  0  0  0  0  0  0  0
   32.3680   28.7010   32.8970 H   0  0  0  0  0  0  0  0  0  0  0  0
   31.7340   29.7100   34.5940 C   0  0  0  0  0  3  0  0  0  0  0  0
   32.0250   30.5250   35.6460 C   0  0  0  0  0  3  0  0  0  0  0  0
   33.3130   30.9660   35.7680 C   0  0  0  0  0  0  0  0  0  0  0  0
   33.6090   31.7930   36.8330 C   0  0  0  0  0  3  0  0  0  0  0  0
   34.8900   32.2790   37.0220 C   0  0  0  0  0  3  0  0  0  0  0  0
   35.8580   31.8940   36.0890 C   0  0  0  0  0  3  0  0  0  0  0  0
   35.5080   31.0680   35.0480 C   0  0  0  0  0  3  0  0  0  0  0  0
   34.2510   30.5840   34.8520 C   0  0  0  0  0  0  0  0  0  0  0  0
   37.1810   26.3660   32.9510 C   0  0  0  0  0  0  0  0  0  0  0  0
   37.5100   25.2850   32.1480 C   0  0  0  0  0  0  0  0  0  0  0  0
   38.0590   24.1270   32.6670 C   0  0  0  0  0  0  0  0  0  0  0  0
   38.2850   24.0380   33.9980 N   0  0  0  0  0  0  0  0  0  0  0  0
   37.9580   25.0960   34.7460 C   0  0  0  0  0  0  0  0  0  0  0  0
   37.4250   26.2310   34.2680 N   0  0  0  0  0  0  0  0  0  0  0  0
   37.3280   25.3590   31.0840 H   0  0  0  0  0  0  0  0  0  0  0  0
   38.2870   23.3300   31.9760 H   0  0  0  0  0  0  0  0  0  0  0  0
   38.1930   25.0360   36.2250 C   0  0  0  0  0  0  0  0  0  0  0  0
   39.3480   24.3120   36.4550 F   0  0  0  0  0  0  0  0  0  0  0  0
   38.2890   26.3310   36.7600 F   0  0  0  0  0  0  0  0  0  0  0  0
   37.1760   24.4020   36.8680 F   0  0  0  0  0  0  0  0  0  0  0  0
  1  2  2  0  0  0  0
  1  6  1  0  0  0  0
  2  3  1  0  0  0  0
  3 20  1  0  0  0  0
  3  4  2  0  0  0  0
  5  4  1  0  0  0  0
  5  9  1  0  0  0  0
  6  5  2  0  0  0  0
  7  1  1  0  0  0  0
  8  2  1  0  0  0  0
  9 19  1  0  0  0  0
 10  9  2  0  0  0  0
 10 12  1  0  0  0  0
 11 10  1  0  0  0  0
 12 13  2  0  0  0  0
 13 14  1  0  0  0  0
 14 15  1  0  0  0  0
 15 16  2  0  0  0  0
 17 16  1  0  0  0  0
 18 17  2  0  0  0  0
 19 18  1  0  0  0  0
 19 14  2  0  0  0  0
 20 25  1  0  0  0  0
 21 22  1  0  0  0  0
 21 20  2  0  0  0  0
 22 23  2  0  0  0  0
 23 24  1  0  0  0  0
 24 28  1  0  0  0  0
 25 24  2  0  0  0  0
 26 21  1  0  0  0  0
 27 22  1  0  0  0  0
 28 29  1  0  0  0  0
 28 30  1  0  0  0  0
 28 31  1  0  0  0  0
M  END
>  <minimizedAffinity>
-6.64513731

$$$$

 OpenBabel03272502243D

 31 34  0  0  0  0  0  0  0  0999 V2000
   35.8800   24.3980   31.2350 C   0  0  0  0  0  0  0  0  0  0  0  0
   36.7650   23.8680   32.1700 C   0  0  0  0  0  0  0  0  0  0  0  0
   37.4180   24.7600   32.9860 C   0  0  0  0  0  0  0  0  0  0  0  0
   37.1430   26.0560   32.8060 N   0  0  0  0  0  0  0  0  0  0  0  0
   36.2940   26.5760   31.9100 C   0  0  0  0  0  0  0  0  0  0  0  0
   35.6600   25.6970   31.1160 N   0  0  0  0  0  0  0  0  0  0  0  0
   35.3550   23.7140   30.5830 H   0  0  0  0  0  0  0  0  0  0  0  0
   36.9750   22.8190   32.3020 H   0  0  0  0  0  0  0  0  0  0  0  0
   36.2160   28.0410   31.9640 C   0  0  0  0  0  0  0  0  0  0  0  0
   35.6950   28.6640   33.0830 C   0  0  0  0  0  0  0  0  0  0  0  0
   35.3340   28.1090   33.9450 H   0  0  0  0  0  0  0  0  0  0  0  0
   35.5860   30.0320   33.2100 C   0  0  0  0  0  3  0  0  0  0  0  0
   36.0010   30.8530   32.2060 C   0  0  0  0  0  3  0  0  0  0  0  0
   36.5200   30.2710   31.0840 C   0  0  0  0  0  0  0  0  0  0  0  0
   36.9390   31.1030   30.0640 C   0  0  0  0  0  3  0  0  0  0  0  0
   37.4740   30.5860   28.8980 C   0  0  0  0  0  3  0  0  0  0  0  0
   37.5680   29.1940   28.8070 C   0  0  0  0  0  3  0  0  0  0  0  0
   37.1360   28.4140   29.8520 C   0  0  0  0  0  3  0  0  0  0  0  0
   36.6080   28.9100   31.0040 C   0  0  0  0  0  0  0  0  0  0  0  0
   38.3930   24.3950   34.0290 C   0  0  0  0  0  0  0  0  0  0  0  0
   39.7350   24.1940   33.7460 C   0  0  0  0  0  0  0  0  0  0  0  0
   40.6470   23.8490   34.7270 C   0  0  0  0  0  0  0  0  0  0  0  0
   40.2250   23.7020   36.0030 N   0  0  0  0  0  0  0  0  0  0  0  0
   38.9260   23.9030   36.2450 C   0  0  0  0  0  0  0  0  0  0  0  0
   38.0210   24.2380   35.3140 N   0  0  0  0  0  0  0  0  0  0  0  0
   40.0700   24.3130   32.7240 H   0  0  0  0  0  0  0  0  0  0  0  0
   41.6740   23.7110   34.4250 H   0  0  0  0  0  0  0  0  0  0  0  0
   38.4200   23.7480   37.6470 C   0  0  0  0  0  0  0  0  0  0  0  0
   39.4050   23.1410   38.4040 F   0  0  0  0  0  0  0  0  0  0  0  0
   38.0660   24.9980   38.1820 F   0  0  0  0  0  0  0  0  0  0  0  0
   37.3160   22.9550   37.6960 F   0  0  0  0  0  0  0  0  0  0  0  0
  1  2  1  0  0  0  0
  2  8  1  0  0  0  0
  2  3  2  0  0  0  0
  3 20  1  0  0  0  0
  4  3  1  0  0  0  0
  5  9  1  0  0  0  0
  5  4  2  0  0  0  0
  6  1  2  0  0  0  0
  6  5  1  0  0  0  0
  7  1  1  0  0  0  0
  9 10  1  0  0  0  0
 10 12  2  0  0  0  0
 10 11  1  0  0  0  0
 13 12  1  0  0  0  0
 14 13  2  0  0  0  0
 15 14  1  0  0  0  0
 16 15  2  0  0  0  0
 17 16  1  0  0  0  0
 17 18  2  0  0  0  0
 18 19  1  0  0  0  0
 19 14  1  0  0  0  0
 19  9  2  0  0  0  0
 20 25  1  0  0  0  0
 21 20  2  0  0  0  0
 21 22  1  0  0  0  0
 22 23  2  0  0  0  0
 23 24  1  0  0  0  0
 24 28  1  0  0  0  0
 25 24  2  0  0  0  0
 26 21  1  0  0  0  0
 27 22  1  0  0  0  0
 28 31  1  0  0  0  0
 28 30  1  0  0  0  0
 28 29  1  0  0  0  0
M  END
>  <minimizedAffinity>
-6.60837173

$$$$

 OpenBabel03272502243D

 31 34  0  0  0  0  0  0  0  0999 V2000
   37.5240   24.4110   31.7900 C   0  0  0  0  0  0  0  0  0  0  0  0
   37.9790   23.8230   32.9670 C   0  0  0  0  0  0  0  0  0  0  0  0
   37.9470   24.5950   34.1020 C   0  0  0  0  0  0  0  0  0  0  0  0
   37.4830   25.8410   33.9730 N   0  0  0  0  0  0  0  0  0  0  0  0
   37.0440   26.4170   32.8460 C   0  0  0  0  0  0  0  0  0  0  0  0
   37.0770   25.6550   31.7400 N   0  0  0  0  0  0  0  0  0  0  0  0
   37.5400   23.8210   30.8840 H   0  0  0  0  0  0  0  0  0  0  0  0
   38.3510   22.8150   33.0550 H   0  0  0  0  0  0  0  0  0  0  0  0
   36.5990   27.8030   33.0350 C   0  0  0  0  0  0  0  0  0  0  0  0
   36.1300   28.2160   34.2680 C   0  0  0  0  0  0  0  0  0  0  0  0
   36.0760   27.5500   35.1250 H   0  0  0  0  0  0  0  0  0  0  0  0
   35.6940   29.4980   34.5250 C   0  0  0  0  0  3  0  0  0  0  0  0
   35.7070   30.4410   33.5430 C   0  0  0  0  0  3  0  0  0  0  0  0
   36.1620   30.0670   32.3100 C   0  0  0  0  0  0  0  0  0  0  0  0
   36.1730   31.0220   31.3130 C   0  0  0  0  0  3  0  0  0  0  0  0
   36.6200   30.7180   30.0400 C   0  0  0  0  0  3  0  0  0  0  0  0
   37.0540   29.4070   29.8190 C   0  0  0  0  0  3  0  0  0  0  0  0
   37.0220   28.4970   30.8470 C   0  0  0  0  0  3  0  0  0  0  0  0
   36.5850   28.7850   32.1040 C   0  0  0  0  0  0  0  0  0  0  0  0
   38.3900   24.1540   35.4380 C   0  0  0  0  0  0  0  0  0  0  0  0
   37.6680   24.4420   36.5860 C   0  0  0  0  0  0  0  0  0  0  0  0
   38.0880   24.0290   37.8370 C   0  0  0  0  0  0  0  0  0  0  0  0
   39.2360   23.3230   37.9530 N   0  0  0  0  0  0  0  0  0  0  0  0
   39.9090   23.0620   36.8290 C   0  0  0  0  0  0  0  0  0  0  0  0
   39.5250   23.4500   35.6040 N   0  0  0  0  0  0  0  0  0  0  0  0
   36.7500   25.0050   36.4900 H   0  0  0  0  0  0  0  0  0  0  0  0
   37.4690   24.2920   38.6810 H   0  0  0  0  0  0  0  0  0  0  0  0
   41.1870   22.2830   36.9160 C   0  0  0  0  0  0  0  0  0  0  0  0
   42.2390   23.1770   36.9950 F   0  0  0  0  0  0  0  0  0  0  0  0
   41.1640   21.4250   38.0280 F   0  0  0  0  0  0  0  0  0  0  0  0
   41.3810   21.5160   35.8100 F   0  0  0  0  0  0  0  0  0  0  0  0
  1  2  1  0  0  0  0
  2  8  1  0  0  0  0
  2  3  2  0  0  0  0
  3 20  1  0  0  0  0
  4  3  1  0  0  0  0
  5  9  1  0  0  0  0
  5  4  2  0  0  0  0
  6  1  2  0  0  0  0
  6  5  1  0  0  0  0
  7  1  1  0  0  0  0
  9 10  1  0  0  0  0
 10 12  2  0  0  0  0
 10 11  1  0  0  0  0
 13 12  1  0  0  0  0
 14 13  2  0  0  0  0
 15 14  1  0  0  0  0
 16 15  2  0  0  0  0
 17 16  1  0  0  0  0
 17 18  2  0  0  0  0
 18 19  1  0  0  0  0
 19 14  1  0  0  0  0
 19  9  2  0  0  0  0
 20 25  2  0  0  0  0
 20 21  1  0  0  0  0
 21 22  2  0  0  0  0
 22 23  1  0  0  0  0
 22 27  1  0  0  0  0
 24 28  1  0  0  0  0
 24 23  2  0  0  0  0
 25 24  1  0  0  0  0
 26 21  1  0  0  0  0
 28 29  1  0  0  0  0
 28 30  1  0  0  0  0
 31 28  1  0  0  0  0
M  END
>  <minimizedAffinity>
-6.56181717

$$$$

 OpenBabel03272502243D

 31 34  0  0  0  0  0  0  0  0999 V2000
   35.5560   24.5500   31.1770 C   0  0  0  0  0  0  0  0  0  0  0  0
   36.4460   24.0680   32.1340 C   0  0  0  0  0  0  0  0  0  0  0  0
   37.2980   24.9790   32.7090 C   0  0  0  0  0  0  0  0  0  0  0  0
   37.1950   26.2460   32.2970 N   0  0  0  0  0  0  0  0  0  0  0  0
   36.3440   26.7200   31.3780 C   0  0  0  0  0  0  0  0  0  0  0  0
   35.5140   25.8240   30.8200 N   0  0  0  0  0  0  0  0  0  0  0  0
   34.8760   23.8510   30.7120 H   0  0  0  0  0  0  0  0  0  0  0  0
   36.5160   23.0410   32.4560 H   0  0  0  0  0  0  0  0  0  0  0  0
   36.4830   28.1640   31.1460 C   0  0  0  0  0  0  0  0  0  0  0  0
   37.0240   28.6250   29.9600 C   0  0  0  0  0  0  0  0  0  0  0  0
   37.3580   27.9550   29.1720 H   0  0  0  0  0  0  0  0  0  0  0  0
   37.1880   29.9610   29.6680 C   0  0  0  0  0  3  0  0  0  0  0  0
   36.8120   30.9150   30.5650 C   0  0  0  0  0  3  0  0  0  0  0  0
   36.2740   30.4940   31.7490 C   0  0  0  0  0  0  0  0  0  0  0  0
   35.8940   31.4610   32.6600 C   0  0  0  0  0  3  0  0  0  0  0  0
   35.3430   31.1120   33.8790 C   0  0  0  0  0  3  0  0  0  0  0  0
   35.1920   29.7460   34.1380 C   0  0  0  0  0  3  0  0  0  0  0  0
   35.5870   28.8280   33.1960 C   0  0  0  0  0  3  0  0  0  0  0  0
   36.1310   29.1590   31.9930 C   0  0  0  0  0  0  0  0  0  0  0  0
   38.3110   24.6610   33.7320 C   0  0  0  0  0  0  0  0  0  0  0  0
   39.6680   24.6530   33.4490 C   0  0  0  0  0  0  0  0  0  0  0  0
   40.6150   24.3520   34.4110 C   0  0  0  0  0  0  0  0  0  0  0  0
   40.2130   24.0560   35.6680 N   0  0  0  0  0  0  0  0  0  0  0  0
   38.8990   24.0720   35.9110 C   0  0  0  0  0  0  0  0  0  0  0  0
   37.9600   24.3600   34.9970 N   0  0  0  0  0  0  0  0  0  0  0  0
   39.9860   24.8910   32.4430 H   0  0  0  0  0  0  0  0  0  0  0  0
   41.6510   24.3680   34.1110 H   0  0  0  0  0  0  0  0  0  0  0  0
   38.4140   23.7480   37.2910 C   0  0  0  0  0  0  0  0  0  0  0  0
   37.2340   23.0360   37.1840 F   0  0  0  0  0  0  0  0  0  0  0  0
   39.3870   23.0190   37.9950 F   0  0  0  0  0  0  0  0  0  0  0  0
   38.1510   24.8750   38.0060 F   0  0  0  0  0  0  0  0  0  0  0  0
  1  2  1  0  0  0  0
  2  8  1  0  0  0  0
  2  3  2  0  0  0  0
  3 20  1  0  0  0  0
  4  3  1  0  0  0  0
  5  4  2  0  0  0  0
  6  1  2  0  0  0  0
  6  5  1  0  0  0  0
  7  1  1  0  0  0  0
  9  5  1  0  0  0  0
  9 19  1  0  0  0  0
 10  9  2  0  0  0  0
 11 10  1  0  0  0  0
 12 10  1  0  0  0  0
 12 13  2  0  0  0  0
 13 14  1  0  0  0  0
 14 19  2  0  0  0  0
 14 15  1  0  0  0  0
 15 16  2  0  0  0  0
 16 17  1  0  0  0  0
 18 17  2  0  0  0  0
 19 18  1  0  0  0  0
 20 25  1  0  0  0  0
 21 20  2  0  0  0  0
 21 22  1  0  0  0  0
 22 23  2  0  0  0  0
 23 24  1  0  0  0  0
 24 28  1  0  0  0  0
 25 24  2  0  0  0  0
 26 21  1  0  0  0  0
 27 22  1  0  0  0  0
 28 30  1  0  0  0  0
 28 31  1  0  0  0  0
 29 28  1  0  0  0  0
M  END
>  <minimizedAffinity>
-6.51596737

$$$$

 OpenBabel03272502243D

 31 34  0  0  0  0  0  0  0  0999 V2000
   37.6400   24.0690   32.0850 C   0  0  0  0  0  0  0  0  0  0  0  0
   37.1710   25.3760   31.9740 C   0  0  0  0  0  0  0  0  0  0  0  0
   37.1440   26.1280   33.1230 C   0  0  0  0  0  0  0  0  0  0  0  0
   37.5700   25.5360   34.2430 N   0  0  0  0  0  0  0  0  0  0  0  0
   38.0220   24.2810   34.3600 C   0  0  0  0  0  0  0  0  0  0  0  0
   38.0460   23.5520   33.2330 N   0  0  0  0  0  0  0  0  0  0  0  0
   37.6710   23.4590   31.1930 H   0  0  0  0  0  0  0  0  0  0  0  0
   36.8310   25.8390   31.0620 H   0  0  0  0  0  0  0  0  0  0  0  0
   38.4140   23.9290   35.7310 C   0  0  0  0  0  0  0  0  0  0  0  0
   37.6770   24.3980   36.8030 C   0  0  0  0  0  0  0  0  0  0  0  0
   36.8010   25.0280   36.6770 H   0  0  0  0  0  0  0  0  0  0  0  0
   37.9810   24.1150   38.1160 C   0  0  0  0  0  3  0  0  0  0  0  0
   39.0540   23.3350   38.4240 C   0  0  0  0  0  3  0  0  0  0  0  0
   39.8060   22.8550   37.3890 C   0  0  0  0  0  0  0  0  0  0  0  0
   40.8960   22.0650   37.6990 C   0  0  0  0  0  3  0  0  0  0  0  0
   41.7040   21.5440   36.7050 C   0  0  0  0  0  3  0  0  0  0  0  0
   41.3630   21.8540   35.3850 C   0  0  0  0  0  3  0  0  0  0  0  0
   40.2680   22.6440   35.1330 C   0  0  0  0  0  3  0  0  0  0  0  0
   39.4660   23.1630   36.1030 C   0  0  0  0  0  0  0  0  0  0  0  0
   36.6770   27.5240   33.2100 C   0  0  0  0  0  0  0  0  0  0  0  0
   36.3370   28.1140   34.4170 C   0  0  0  0  0  0  0  0  0  0  0  0
   35.8980   29.4230   34.4940 C   0  0  0  0  0  0  0  0  0  0  0  0
   35.7940   30.1560   33.3620 N   0  0  0  0  0  0  0  0  0  0  0  0
   36.1280   29.5600   32.2140 C   0  0  0  0  0  0  0  0  0  0  0  0
   36.5580   28.2930   32.1110 N   0  0  0  0  0  0  0  0  0  0  0  0
   36.4220   27.5250   35.3200 H   0  0  0  0  0  0  0  0  0  0  0  0
   35.6530   29.8090   35.4710 H   0  0  0  0  0  0  0  0  0  0  0  0
   36.0260   30.3390   30.9380 C   0  0  0  0  0  0  0  0  0  0  0  0
   36.8460   31.4480   31.0350 F   0  0  0  0  0  0  0  0  0  0  0  0
   36.3840   29.5370   29.8420 F   0  0  0  0  0  0  0  0  0  0  0  0
   34.7580   30.7830   30.7230 F   0  0  0  0  0  0  0  0  0  0  0  0
  1  6  1  0  0  0  0
  2  1  2  0  0  0  0
  2  3  1  0  0  0  0
  3 20  1  0  0  0  0
  3  4  2  0  0  0  0
  4  5  1  0  0  0  0
  5  9  1  0  0  0  0
  6  5  2  0  0  0  0
  7  1  1  0  0  0  0
  8  2  1  0  0  0  0
  9 19  2  0  0  0  0
  9 10  1  0  0  0  0
 10 12  2  0  0  0  0
 11 10  1  0  0  0  0
 12 13  1  0  0  0  0
 14 15  1  0  0  0  0
 14 13  2  0  0  0  0
 16 15  2  0  0  0  0
 17 16  1  0  0  0  0
 18 17  2  0  0  0  0
 18 19  1  0  0  0  0
 19 14  1  0  0  0  0
 20 21  1  0  0  0  0
 21 22  2  0  0  0  0
 21 26  1  0  0  0  0
 22 27  1  0  0  0  0
 23 22  1  0  0  0  0
 24 23  2  0  0  0  0
 25 24  1  0  0  0  0
 25 20  2  0  0  0  0
 28 29  1  0  0  0  0
 28 24  1  0  0  0  0
 30 28  1  0  0  0  0
 31 28  1  0  0  0  0
M  END
>  <minimizedAffinity>
-6.49813271

$$$$

 OpenBabel03272502243D

 31 34  0  0  0  0  0  0  0  0999 V2000
   41.7370   26.7090   33.8280 C   0  0  0  0  0  0  0  0  0  0  0  0
   41.1760   25.6960   34.6010 C   0  0  0  0  0  0  0  0  0  0  0  0
   39.8620   25.3790   34.3560 C   0  0  0  0  0  0  0  0  0  0  0  0
   39.2420   26.0740   33.3980 N   0  0  0  0  0  0  0  0  0  0  0  0
   39.7710   27.0510   32.6500 C   0  0  0  0  0  0  0  0  0  0  0  0
   41.0570   27.3540   32.8950 N   0  0  0  0  0  0  0  0  0  0  0  0
   42.7700   26.9740   34.0040 H   0  0  0  0  0  0  0  0  0  0  0  0
   41.6910   25.1440   35.3710 H   0  0  0  0  0  0  0  0  0  0  0  0
   38.8260   27.6200   31.6810 C   0  0  0  0  0  0  0  0  0  0  0  0
   39.1580   27.6710   30.3400 C   0  0  0  0  0  0  0  0  0  0  0  0
   40.1070   27.3010   29.9590 H   0  0  0  0  0  0  0  0  0  0  0  0
   38.3280   28.1900   29.3700 C   0  0  0  0  0  3  0  0  0  0  0  0
   37.1060   28.6900   29.7030 C   0  0  0  0  0  3  0  0  0  0  0  0
   36.7450   28.6570   31.0210 C   0  0  0  0  0  0  0  0  0  0  0  0
   35.5070   29.1650   31.3610 C   0  0  0  0  0  3  0  0  0  0  0  0
   35.0730   29.1660   32.6740 C   0  0  0  0  0  3  0  0  0  0  0  0
   35.9440   28.6310   33.6280 C   0  0  0  0  0  3  0  0  0  0  0  0
   37.1640   28.1380   33.2350 C   0  0  0  0  0  3  0  0  0  0  0  0
   37.6020   28.1320   31.9460 C   0  0  0  0  0  0  0  0  0  0  0  0
   39.0940   24.3440   35.0710 C   0  0  0  0  0  0  0  0  0  0  0  0
   38.4950   23.2820   34.4110 C   0  0  0  0  0  0  0  0  0  0  0  0
   37.7730   22.3140   35.0840 C   0  0  0  0  0  0  0  0  0  0  0  0
   37.6430   22.3980   36.4280 N   0  0  0  0  0  0  0  0  0  0  0  0
   38.2300   23.4320   37.0360 C   0  0  0  0  0  0  0  0  0  0  0  0
   38.9360   24.3850   36.4080 N   0  0  0  0  0  0  0  0  0  0  0  0
   38.6020   23.2170   33.3360 H   0  0  0  0  0  0  0  0  0  0  0  0
   37.3390   21.5200   34.4980 H   0  0  0  0  0  0  0  0  0  0  0  0
   38.1070   23.5610   38.5240 C   0  0  0  0  0  0  0  0  0  0  0  0
   37.1970   22.6210   38.9710 F   0  0  0  0  0  0  0  0  0  0  0  0
   39.3590   23.3880   39.1380 F   0  0  0  0  0  0  0  0  0  0  0  0
   37.6410   24.7870   38.8840 F   0  0  0  0  0  0  0  0  0  0  0  0
  1  7  1  0  0  0  0
  1  2  1  0  0  0  0
  2  8  1  0  0  0  0
  3  2  2  0  0  0  0
  3 20  1  0  0  0  0
  4  3  1  0  0  0  0
  5  6  1  0  0  0  0
  5  4  2  0  0  0  0
  6  1  2  0  0  0  0
  9 19  1  0  0  0  0
  9  5  1  0  0  0  0
 10  9  2  0  0  0  0
 11 10  1  0  0  0  0
 12 13  2  0  0  0  0
 12 10  1  0  0  0  0
 13 14  1  0  0  0  0
 14 15  2  0  0  0  0
 14 19  1  0  0  0  0
 15 16  1  0  0  0  0
 16 17  2  0  0  0  0
 18 17  1  0  0  0  0
 19 18  2  0  0  0  0
 20 25  1  0  0  0  0
 21 20  2  0  0  0  0
 21 22  1  0  0  0  0
 22 23  2  0  0  0  0
 23 24  1  0  0  0  0
 24 28  1  0  0  0  0
 25 24  2  0  0  0  0
 26 21  1  0  0  0  0
 27 22  1  0  0  0  0
 28 31  1  0  0  0  0
 28 29  1  0  0  0  0
 28 30  1  0  0  0  0
M  END
>  <minimizedAffinity>
-6.40522814

$$$$

 OpenBabel03272502243D

 31 34  0  0  0  0  0  0  0  0999 V2000
   40.9940   24.9770   31.7420 C   0  0  0  0  0  0  0  0  0  0  0  0
   41.1380   24.2430   32.9160 C   0  0  0  0  0  0  0  0  0  0  0  0
   40.2750   24.5350   33.9440 C   0  0  0  0  0  0  0  0  0  0  0  0
   39.3740   25.4970   33.7220 N   0  0  0  0  0  0  0  0  0  0  0  0
   39.2270   26.2090   32.5960 C   0  0  0  0  0  0  0  0  0  0  0  0
   40.0750   25.9180   31.5960 N   0  0  0  0  0  0  0  0  0  0  0  0
   41.6630   24.7640   30.9200 H   0  0  0  0  0  0  0  0  0  0  0  0
   41.8710   23.4690   33.0800 H   0  0  0  0  0  0  0  0  0  0  0  0
   38.1430   27.1960   32.6700 C   0  0  0  0  0  0  0  0  0  0  0  0
   37.3980   27.3200   33.8280 C   0  0  0  0  0  0  0  0  0  0  0  0
   37.5810   26.7090   34.7070 H   0  0  0  0  0  0  0  0  0  0  0  0
   36.3650   28.2200   33.9750 C   0  0  0  0  0  3  0  0  0  0  0  0
   36.0240   29.0520   32.9520 C   0  0  0  0  0  3  0  0  0  0  0  0
   36.7390   28.9560   31.7910 C   0  0  0  0  0  0  0  0  0  0  0  0
   36.3930   29.7980   30.7530 C   0  0  0  0  0  3  0  0  0  0  0  0
   37.0700   29.7590   29.5480 C   0  0  0  0  0  3  0  0  0  0  0  0
   38.1120   28.8320   29.4380 C   0  0  0  0  0  3  0  0  0  0  0  0
   38.4140   28.0190   30.5030 C   0  0  0  0  0  3  0  0  0  0  0  0
   37.7550   28.0490   31.6930 C   0  0  0  0  0  0  0  0  0  0  0  0
   40.2740   23.8740   35.2620 C   0  0  0  0  0  0  0  0  0  0  0  0
   41.3620   23.1520   35.7260 C   0  0  0  0  0  0  0  0  0  0  0  0
   41.3570   22.5320   36.9610 C   0  0  0  0  0  0  0  0  0  0  0  0
   40.2600   22.6270   37.7470 N   0  0  0  0  0  0  0  0  0  0  0  0
   39.2270   23.3290   37.2730 C   0  0  0  0  0  0  0  0  0  0  0  0
   39.2060   23.9410   36.0790 N   0  0  0  0  0  0  0  0  0  0  0  0
   42.2380   23.0780   35.0950 H   0  0  0  0  0  0  0  0  0  0  0  0
   42.2440   21.9890   37.2500 H   0  0  0  0  0  0  0  0  0  0  0  0
   37.9930   23.4570   38.1140 C   0  0  0  0  0  0  0  0  0  0  0  0
   37.9110   24.7590   38.5740 F   0  0  0  0  0  0  0  0  0  0  0  0
   36.8540   23.1080   37.3710 F   0  0  0  0  0  0  0  0  0  0  0  0
   38.0400   22.6400   39.2000 F   0  0  0  0  0  0  0  0  0  0  0  0
  1  2  1  0  0  0  0
  2  8  1  0  0  0  0
  2  3  2  0  0  0  0
  3 20  1  0  0  0  0
  4  3  1  0  0  0  0
  5  9  1  0  0  0  0
  5  4  2  0  0  0  0
  6  1  2  0  0  0  0
  6  5  1  0  0  0  0
  7  1  1  0  0  0  0
  9 10  1  0  0  0  0
 10 12  2  0  0  0  0
 10 11  1  0  0  0  0
 13 12  1  0  0  0  0
 14 13  2  0  0  0  0
 15 14  1  0  0  0  0
 16 15  2  0  0  0  0
 17 16  1  0  0  0  0
 17 18  2  0  0  0  0
 18 19  1  0  0  0  0
 19 14  1  0  0  0  0
 19  9  2  0  0  0  0
 20 21  2  0  0  0  0
 20 25  1  0  0  0  0
 21 22  1  0  0  0  0
 22 27  1  0  0  0  0
 22 23  2  0  0  0  0
 24 23  1  0  0  0  0
 24 28  1  0  0  0  0
 25 24  2  0  0  0  0
 26 21  1  0  0  0  0
 28 29  1  0  0  0  0
 28 31  1  0  0  0  0
 30 28  1  0  0  0  0
M  END
>  <minimizedAffinity>
-6.38661861

$$$$

 OpenBabel03272502243D

 31 34  0  0  0  0  0  0  0  0999 V2000
   39.9190   24.9860   35.0880 C   0  0  0  0  0  0  0  0  0  0  0  0
   39.5700   23.8000   34.4460 C   0  0  0  0  0  0  0  0  0  0  0  0
   38.5290   23.8590   33.5510 C   0  0  0  0  0  0  0  0  0  0  0  0
   37.9450   25.0490   33.3800 N   0  0  0  0  0  0  0  0  0  0  0  0
   38.2720   26.1940   33.9930 C   0  0  0  0  0  0  0  0  0  0  0  0
   39.2910   26.1290   34.8660 N   0  0  0  0  0  0  0  0  0  0  0  0
   40.7350   24.9630   35.7960 H   0  0  0  0  0  0  0  0  0  0  0  0
   40.0520   22.8480   34.5950 H   0  0  0  0  0  0  0  0  0  0  0  0
   37.4360   27.3300   33.5880 C   0  0  0  0  0  0  0  0  0  0  0  0
   36.5900   27.9280   34.5050 C   0  0  0  0  0  0  0  0  0  0  0  0
   36.5140   27.5900   35.5350 H   0  0  0  0  0  0  0  0  0  0  0  0
   35.7740   28.9960   34.2020 C   0  0  0  0  0  3  0  0  0  0  0  0
   35.7660   29.5250   32.9470 C   0  0  0  0  0  3  0  0  0  0  0  0
   36.5880   28.9580   32.0150 C   0  0  0  0  0  0  0  0  0  0  0  0
   36.5790   29.4920   30.7410 C   0  0  0  0  0  3  0  0  0  0  0  0
   37.3850   28.9710   29.7450 C   0  0  0  0  0  3  0  0  0  0  0  0
   38.1980   27.8870   30.0910 C   0  0  0  0  0  3  0  0  0  0  0  0
   38.1680   27.3960   31.3730 C   0  0  0  0  0  3  0  0  0  0  0  0
   37.3800   27.9010   32.3620 C   0  0  0  0  0  0  0  0  0  0  0  0
   38.0110   22.7140   32.7800 C   0  0  0  0  0  0  0  0  0  0  0  0
   38.5060   22.3840   31.5280 C   0  0  0  0  0  0  0  0  0  0  0  0
   38.0160   21.3110   30.8060 C   0  0  0  0  0  0  0  0  0  0  0  0
   37.0240   20.5550   31.3310 N   0  0  0  0  0  0  0  0  0  0  0  0
   36.5680   20.8980   32.5390 C   0  0  0  0  0  0  0  0  0  0  0  0
   37.0250   21.9330   33.2610 N   0  0  0  0  0  0  0  0  0  0  0  0
   39.3000   22.9890   31.1120 H   0  0  0  0  0  0  0  0  0  0  0  0
   38.4550   21.1190   29.8390 H   0  0  0  0  0  0  0  0  0  0  0  0
   35.4680   20.0860   33.1540 C   0  0  0  0  0  0  0  0  0  0  0  0
   34.2970   20.3460   32.4670 F   0  0  0  0  0  0  0  0  0  0  0  0
   35.7870   18.7190   33.1160 F   0  0  0  0  0  0  0  0  0  0  0  0
   35.2650   20.4240   34.4560 F   0  0  0  0  0  0  0  0  0  0  0  0
  1  7  1  0  0  0  0
  2  8  1  0  0  0  0
  2  1  2  0  0  0  0
  3  2  1  0  0  0  0
  4  3  2  0  0  0  0
  4  5  1  0  0  0  0
  5  6  2  0  0  0  0
  6  1  1  0  0  0  0
  9  5  1  0  0  0  0
  9 10  1  0  0  0  0
 10 11  1  0  0  0  0
 12 10  2  0  0  0  0
 13 12  1  0  0  0  0
 14 19  1  0  0  0  0
 14 13  2  0  0  0  0
 15 14  1  0  0  0  0
 16 17  1  0  0  0  0
 16 15  2  0  0  0  0
 17 18  2  0  0  0  0
 18 19  1  0  0  0  0
 19  9  2  0  0  0  0
 20 25  1  0  0  0  0
 20  3  1  0  0  0  0
 21 20  2  0  0  0  0
 22 23  2  0  0  0  0
 22 21  1  0  0  0  0
 23 24  1  0  0  0  0
 24 28  1  0  0  0  0
 24 25  2  0  0  0  0
 26 21  1  0  0  0  0
 27 22  1  0  0  0  0
 28 31  1  0  0  0  0
 29 28  1  0  0  0  0
 30 28  1  0  0  0  0
M  END
>  <minimizedAffinity>
-6.3317008

$$$$
