
     RDKit          3D

 29 31  0  0  0  0  0  0  0  0999 V2000
   38.3049   31.2362   50.1169 C   0  0  0  0  0  0  0  0  0  0  0  0
   38.2840   31.5945   48.7705 C   0  0  0  0  0  0  0  0  0  0  0  0
   37.2065   31.2226   47.9853 C   0  0  0  0  0  0  0  0  0  0  0  0
   36.2345   30.5130   48.6237 N   0  0  0  0  0  0  0  0  0  0  0  0
   36.2563   30.1710   49.9070 C   0  0  0  0  0  0  0  0  0  0  0  0
   37.2974   30.5423   50.6333 N   0  0  0  0  0  0  0  0  0  0  0  0
   35.1216   29.3873   50.4571 C   0  0  0  0  0  0  0  0  0  0  0  0
   35.2716   29.1198   51.8067 F   0  0  0  0  0  0  0  0  0  0  0  0
   33.9167   30.0507   50.2926 F   0  0  0  0  0  0  0  0  0  0  0  0
   34.9556   28.1745   49.8110 F   0  0  0  0  0  0  0  0  0  0  0  0
   39.1454   31.5283   50.7308 H   0  0  0  0  0  0  0  0  0  0  0  0
   39.1416   32.1104   48.4043 H   0  0  0  0  0  0  0  0  0  0  0  0
   37.0131   31.4217   46.5704 C   0  0  0  0  0  0  0  0  0  0  0  0
   35.7449   31.1032   46.0689 C   0  0  0  0  0  0  0  0  0  0  0  0
   34.9747   30.7213   46.7288 H   0  0  0  0  0  0  0  0  0  0  0  0
   35.3601   31.2310   44.7675 C   0  0  0  0  0  0  0  0  0  0  0  0
   36.2565   31.7079   43.8383 C   0  0  0  0  0  0  0  0  0  0  0  0
   37.5091   32.0389   44.2672 C   0  0  0  0  0  0  0  0  0  0  0  0
   38.4197   32.5507   43.3718 C   0  0  0  0  0  0  0  0  0  0  0  0
   39.6952   32.9369   43.7629 C   0  0  0  0  0  0  0  0  0  0  0  0
   40.0041   32.7818   45.1003 C   0  0  0  0  0  0  0  0  0  0  0  0
   39.0839   32.2726   45.9597 C   0  0  0  0  0  0  0  0  0  0  0  0
   37.8410   31.8911   45.5848 C   0  0  0  0  0  0  0  0  0  0  0  0
   34.3797   30.9760   44.4201 H   0  0  0  0  0  0  0  0  0  0  0  0
   35.9524   31.8075   42.8084 H   0  0  0  0  0  0  0  0  0  0  0  0
   38.1592   32.6666   42.3230 H   0  0  0  0  0  0  0  0  0  0  0  0
   40.3764   33.3285   43.0462 H   0  0  0  0  0  0  0  0  0  0  0  0
   41.0103   33.0908   45.3954 H   0  0  0  0  0  0  0  0  0  0  0  0
   39.4053   32.2334   46.9673 H   0  0  0  0  0  0  0  0  0  0  0  0
  1  6  2  0
  2  1  1  0
  3  4  1  0
  3  2  2  0
  4  5  2  0
  5  7  1  0
  5  6  1  0
  7  8  1  0
  9  7  1  0
 10  7  1  0
  1 11  1  0
  2 12  1  0
 13 14  2  0
 14 15  1  0
 14 16  1  0
 16 17  2  0
 17 18  1  0
 18 19  2  0
 19 20  1  0
 20 21  2  0
 21 22  1  0
 22 23  2  0
 23 13  1  0
 23 18  1  0
 16 24  1  0
 17 25  1  0
 19 26  1  0
 20 27  1  0
 21 28  1  0
 22 29  1  0
  3 13  1  0
M  ISO  3  11  14  12  14  15  15
M  END
>  <DihAtoms>  (1) 
3,2,12,13

>  <DihDeg>  (1) 
-32.813208269965244

$$$$
