
 OpenBabel03272501503D

 22 24  0  0  0  0  0  0  0  0999 V2000
   37.3510   30.2140   51.3670 C   0  0  0  0  0  0  0  0  0  0  0  0
   37.9360   30.8270   50.2640 C   0  0  0  0  0  0  0  0  0  0  0  0
   37.4200   30.5930   48.9870 C   0  0  0  0  0  0  0  0  0  0  0  0
   36.3440   29.7520   48.9520 N   0  0  0  0  0  0  0  0  0  0  0  0
   35.7870   29.1690   50.0120 C   0  0  0  0  0  0  0  0  0  0  0  0
   36.2980   29.4030   51.2300 N   0  0  0  0  0  0  0  0  0  0  0  0
   34.6720   28.3280   49.7460 N   0  0  0  0  0  0  0  0  0  0  0  0
   37.7520   30.3950   52.3560 H   0  0  0  0  0  0  0  0  0  0  0  0
   38.7270   31.4800   50.4610 H   0  0  0  0  0  0  0  0  0  0  0  0
   34.8590   27.3150   49.5940 H   0  0  0  0  0  0  0  0  0  0  0  0
   33.7970   28.9080   49.7460 H   0  0  0  0  0  0  0  0  0  0  0  0
   37.8300   31.1820   47.7340 C   0  0  0  0  0  0  0  0  0  0  0  0
   38.9440   32.0340   47.8190 C   0  0  0  0  0  0  0  0  0  0  0  0
   39.4480   32.2150   48.7760 H   0  0  0  0  0  0  0  0  0  0  0  0
   39.4880   32.7010   46.7430 C   0  0  0  0  0  3  0  0  0  0  0  0
   38.9400   32.5520   45.4990 C   0  0  0  0  0  3  0  0  0  0  0  0
   37.8500   31.7340   45.3660 C   0  0  0  0  0  0  0  0  0  0  0  0
   37.2540   31.5900   44.1320 C   0  0  0  0  0  3  0  0  0  0  0  0
   36.1300   30.8050   43.9420 C   0  0  0  0  0  3  0  0  0  0  0  0
   35.6300   30.1640   45.0840 C   0  0  0  0  0  3  0  0  0  0  0  0
   36.2450   30.3270   46.2890 C   0  0  0  0  0  3  0  0  0  0  0  0
   37.3490   31.0950   46.4710 C   0  0  0  0  0  0  0  0  0  0  0  0
  1  8  1  0  0  0  0
  2  9  1  0  0  0  0
  2  1  2  0  0  0  0
  3  2  1  0  0  0  0
  4  3  2  0  0  0  0
  4  5  1  0  0  0  0
  5  6  2  0  0  0  0
  6  1  1  0  0  0  0
  7  5  1  0  0  0  0
 10  7  1  0  0  0  0
 11  7  1  0  0  0  0
 12 13  1  0  0  0  0
 12  3  1  0  0  0  0
 13 14  1  0  0  0  0
 15 13  2  0  0  0  0
 16 15  1  0  0  0  0
 17 16  2  0  0  0  0
 17 22  1  0  0  0  0
 18 17  1  0  0  0  0
 19 18  2  0  0  0  0
 19 20  1  0  0  0  0
 20 21  2  0  0  0  0
 21 22  1  0  0  0  0
 22 12  2  0  0  0  0
M  END
>  <minimizedAffinity>
-5.99342442

>  <minimizedRMSD>
0.826678932

$$$$
