
 OpenBabel03272509473D

 27 29  0  0  0  0  0  0  0  0999 V2000
   32.7600   27.4850   48.3410 C   0  0  0  0  0  0  0  0  0  0  0  0
   33.1840   26.7670   47.6210 H   0  0  0  0  0  0  0  0  0  0  0  0
   32.6010   26.8770   49.2790 H   0  0  0  0  0  0  0  0  0  0  0  0
   31.4680   28.0360   47.8860 C   0  0  0  0  0  0  0  0  0  0  0  0
   31.4490   28.7240   46.6790 C   0  0  0  0  0  0  0  0  0  0  0  0
   32.3660   28.8210   46.1060 H   0  0  0  0  0  0  0  0  0  0  0  0
   30.3530   29.3220   46.1040 C   0  0  0  0  0  3  0  0  0  0  0  0
   29.1570   29.2140   46.8210 C   0  0  0  0  0  3  0  0  0  0  0  0
   29.1270   28.5390   48.0250 C   0  0  0  0  0  0  0  0  0  0  0  0
   27.9750   28.3960   48.7730 C   0  0  0  0  0  3  0  0  0  0  0  0
   27.9110   27.7240   49.9770 C   0  0  0  0  0  3  0  0  0  0  0  0
   29.0750   27.1720   50.4390 C   0  0  0  0  0  3  0  0  0  0  0  0
   30.2520   27.2760   49.7480 C   0  0  0  0  0  3  0  0  0  0  0  0
   30.2670   27.9550   48.5550 C   0  0  0  0  0  0  0  0  0  0  0  0
   33.7130   28.5820   48.6800 C   0  0  0  0  0  0  0  0  0  0  0  0
   33.2050   29.5120   48.9130 H   0  0  0  0  0  0  0  0  0  0  0  0
   34.3060   28.7890   47.7470 H   0  0  0  0  0  0  0  0  0  0  0  0
   34.5890   28.1870   49.7180 O   0  0  0  0  0  0  0  0  0  0  0  0
   37.1960   30.1850   51.2780 C   0  0  0  0  0  0  0  0  0  0  0  0
   37.8760   30.6230   50.1450 C   0  0  0  0  0  0  0  0  0  0  0  0
   37.4170   30.2180   48.8940 C   0  0  0  0  0  0  0  0  0  0  0  0
   36.3100   29.4050   48.8860 N   0  0  0  0  0  0  0  0  0  0  0  0
   35.6790   29.0020   49.9890 C   0  0  0  0  0  0  0  0  0  0  0  0
   36.1280   29.3970   51.1900 N   0  0  0  0  0  0  0  0  0  0  0  0
   37.5930   30.5250   52.2160 H   0  0  0  0  0  0  0  0  0  0  0  0
   38.7520   31.2620   50.1030 H   0  0  0  0  0  0  0  0  0  0  0  0
   37.8690   30.4990   47.9390 H   0  0  0  0  0  0  0  0  0  0  0  0
  1 15  1  0  0  0  0
  1  3  1  0  0  0  0
  2  1  1  0  0  0  0
  4  1  1  0  0  0  0
  4 14  1  0  0  0  0
  5  4  2  0  0  0  0
  6  5  1  0  0  0  0
  7  5  1  0  0  0  0
  7  8  2  0  0  0  0
  8  9  1  0  0  0  0
  9 14  2  0  0  0  0
  9 10  1  0  0  0  0
 10 11  2  0  0  0  0
 11 12  1  0  0  0  0
 13 12  2  0  0  0  0
 14 13  1  0  0  0  0
 15 16  1  0  0  0  0
 15 18  1  0  0  0  0
 17 15  1  0  0  0  0
 18 23  1  0  0  0  0
 19 25  1  0  0  0  0
 20 19  2  0  0  0  0
 21 20  1  0  0  0  0
 22 21  2  0  0  0  0
 22 23  1  0  0  0  0
 23 24  2  0  0  0  0
 24 19  1  0  0  0  0
 26 20  1  0  0  0  0
 27 21  1  0  0  0  0
M  END
>  <minimizedAffinity>
-5.32931995

>  <minimizedRMSD>
2.94306493

$$$$
