
 OpenBabel03272509473D

 27 29  0  0  0  0  0  0  0  0999 V2000
   32.9450   27.6050   48.2930 C   0  0  0  0  0  0  0  0  0  0  0  0
   33.3530   27.5700   47.2700 H   0  0  0  0  0  0  0  0  0  0  0  0
   33.1300   26.5690   48.7020 H   0  0  0  0  0  0  0  0  0  0  0  0
   31.4970   27.8910   48.3070 C   0  0  0  0  0  0  0  0  0  0  0  0
   30.7640   27.4470   49.4000 C   0  0  0  0  0  0  0  0  0  0  0  0
   31.2700   26.9270   50.2060 H   0  0  0  0  0  0  0  0  0  0  0  0
   29.4090   27.5980   49.5820 C   0  0  0  0  0  3  0  0  0  0  0  0
   28.7300   28.2670   48.5580 C   0  0  0  0  0  3  0  0  0  0  0  0
   29.4170   28.7260   47.4520 C   0  0  0  0  0  0  0  0  0  0  0  0
   28.8000   29.3960   46.4140 C   0  0  0  0  0  3  0  0  0  0  0  0
   29.4590   29.8720   45.2990 C   0  0  0  0  0  3  0  0  0  0  0  0
   30.8100   29.6560   45.2400 C   0  0  0  0  0  3  0  0  0  0  0  0
   31.4840   28.9990   46.2350 C   0  0  0  0  0  3  0  0  0  0  0  0
   30.7850   28.5430   47.3250 C   0  0  0  0  0  0  0  0  0  0  0  0
   33.6830   28.5640   49.1670 C   0  0  0  0  0  0  0  0  0  0  0  0
   33.1100   28.8430   50.0450 H   0  0  0  0  0  0  0  0  0  0  0  0
   33.8020   29.5110   48.5720 H   0  0  0  0  0  0  0  0  0  0  0  0
   34.9580   28.0570   49.5090 O   0  0  0  0  0  0  0  0  0  0  0  0
   37.1990   30.2530   51.3470 C   0  0  0  0  0  0  0  0  0  0  0  0
   37.9310   30.7900   50.2920 C   0  0  0  0  0  0  0  0  0  0  0  0
   37.6300   30.3810   48.9950 C   0  0  0  0  0  0  0  0  0  0  0  0
   36.6150   29.4640   48.8670 N   0  0  0  0  0  0  0  0  0  0  0  0
   35.9320   28.9660   49.8970 C   0  0  0  0  0  0  0  0  0  0  0  0
   36.2290   29.3660   51.1430 N   0  0  0  0  0  0  0  0  0  0  0  0
   37.4730   30.6020   52.3250 H   0  0  0  0  0  0  0  0  0  0  0  0
   38.7380   31.5140   50.3450 H   0  0  0  0  0  0  0  0  0  0  0  0
   38.1360   30.7340   48.0920 H   0  0  0  0  0  0  0  0  0  0  0  0
  1  4  1  0  0  0  0
  1  3  1  0  0  0  0
  1 15  1  0  0  0  0
  2  1  1  0  0  0  0
  4  5  1  0  0  0  0
  5  7  2  0  0  0  0
  5  6  1  0  0  0  0
  8  7  1  0  0  0  0
  9  8  2  0  0  0  0
 10  9  1  0  0  0  0
 11 10  2  0  0  0  0
 12 11  1  0  0  0  0
 12 13  2  0  0  0  0
 13 14  1  0  0  0  0
 14  9  1  0  0  0  0
 14  4  2  0  0  0  0
 15 18  1  0  0  0  0
 15 16  1  0  0  0  0
 17 15  1  0  0  0  0
 18 23  1  0  0  0  0
 19 25  1  0  0  0  0
 20 26  1  0  0  0  0
 20 19  2  0  0  0  0
 21 20  1  0  0  0  0
 22 21  2  0  0  0  0
 22 23  1  0  0  0  0
 23 24  2  0  0  0  0
 24 19  1  0  0  0  0
 27 21  1  0  0  0  0
M  END
>  <minimizedAffinity>
-4.87458801

>  <minimizedRMSD>
3.33475494

$$$$
