
 OpenBabel03272510273D

 47 52  0  0  1  0  0  0  0  0999 V2000
   39.7000   31.8160   41.9160 N   0  0  0  0  0  0  0  0  0  0  0  0
   39.3390   33.2310   42.0010 C   0  0  1  0  0  0  0  0  0  0  0  0
   37.9650   33.4170   41.5570 C   0  0  0  0  0  0  0  0  0  0  0  0
   37.8650   33.0620   40.2030 O   0  0  0  0  0  0  0  0  0  0  0  0
   38.3150   31.7950   39.9030 C   0  0  0  0  0  0  0  0  0  0  0  0
   39.6880   31.5420   40.4950 C   0  0  2  0  0  0  0  0  0  0  0  0
   39.0150   31.1800   42.3010 H   0  0  0  0  0  0  0  0  0  0  0  0
   40.0410   33.7490   41.3220 H   0  0  0  0  0  0  0  0  0  0  0  0
   37.7680   34.5340   41.5430 H   0  0  0  0  0  0  0  0  0  0  0  0
   37.1120   32.9730   41.9950 H   0  0  0  0  0  0  0  0  0  0  0  0
   38.3710   31.7230   38.8130 H   0  0  0  0  0  0  0  0  0  0  0  0
   37.6220   31.0570   40.3630 H   0  0  0  0  0  0  0  0  0  0  0  0
   40.3840   32.3060   40.0850 H   0  0  0  0  0  0  0  0  0  0  0  0
   40.1080   30.1600   40.2840 C   0  0  0  0  0  0  0  0  0  0  0  0
   40.8500   29.6650   39.2460 C   0  0  0  0  0  0  0  0  0  0  0  0
   41.1940   30.3320   38.4700 H   0  0  0  0  0  0  0  0  0  0  0  0
   41.2300   28.3530   39.0620 C   0  0  0  0  0  3  0  0  0  0  0  0
   40.8450   27.4150   39.9960 C   0  0  0  0  0  3  0  0  0  0  0  0
   40.0950   27.8500   41.0680 C   0  0  0  0  0  0  0  0  0  0  0  0
   39.7380   26.8740   41.9720 C   0  0  0  0  0  3  0  0  0  0  0  0
   38.9880   27.2160   43.0800 C   0  0  0  0  0  3  0  0  0  0  0  0
   38.6110   28.5320   43.2580 C   0  0  0  0  0  3  0  0  0  0  0  0
   38.9960   29.4460   42.3280 C   0  0  0  0  0  3  0  0  0  0  0  0
   39.7420   29.1940   41.1960 C   0  0  0  0  0  0  0  0  0  0  0  0
   39.4900   33.6000   43.3620 O   0  0  0  0  0  0  0  0  0  0  0  0
   36.2120   30.2350   46.9310 C   0  0  0  0  0  0  0  0  0  0  0  0
   37.0670   30.7540   47.8850 C   0  0  0  0  0  0  0  0  0  0  0  0
   38.0860   31.6520   47.5320 C   0  0  0  0  0  0  0  0  0  0  0  0
   38.1660   31.9720   46.1830 C   0  0  0  0  0  0  0  0  0  0  0  0
   39.0680   32.8250   45.5950 N   0  0  0  0  0  0  0  0  0  0  0  0
   38.7740   32.8340   44.2830 C   0  0  0  0  0  0  0  0  0  0  0  0
   37.7540   32.0400   44.0530 N   0  0  0  0  0  0  0  0  0  0  0  0
   37.3410   31.4820   45.2020 C   0  0  0  0  0  0  0  0  0  0  0  0
   36.3360   30.5860   45.5940 C   0  0  0  0  0  0  0  0  0  0  0  0
   35.4160   29.5420   47.1540 H   0  0  0  0  0  0  0  0  0  0  0  0
   38.7580   32.0630   48.2680 H   0  0  0  0  0  0  0  0  0  0  0  0
   39.8300   33.3540   46.0920 H   0  0  0  0  0  0  0  0  0  0  0  0
   35.6820   30.1970   44.8260 H   0  0  0  0  0  0  0  0  0  0  0  0
   37.4590   30.1310   51.5760 C   0  0  0  0  0  0  0  0  0  0  0  0
   37.7710   30.5790   50.2960 C   0  0  0  0  0  0  0  0  0  0  0  0
   36.8910   30.3530   49.2670 C   0  0  0  0  0  0  0  0  0  0  0  0
   35.7250   29.6820   49.5720 N   0  0  0  0  0  0  0  0  0  0  0  0
   35.4320   29.2530   50.8150 C   0  0  0  0  0  0  0  0  0  0  0  0
   36.2870   29.4760   51.7950 N   0  0  0  0  0  0  0  0  0  0  0  0
   38.1750   30.3260   52.3610 H   0  0  0  0  0  0  0  0  0  0  0  0
   38.6750   31.0990   50.0620 H   0  0  0  0  0  0  0  0  0  0  0  0
   34.4860   28.7330   50.9500 H   0  0  0  0  0  0  0  0  0  0  0  0
  1  2  1  0  0  0  0
  1  7  1  0  0  0  0
  2  8  1  6  0  0  0
  2 25  1  0  0  0  0
  3 10  1  0  0  0  0
  3  2  1  0  0  0  0
  4  3  1  0  0  0  0
  5  4  1  0  0  0  0
  5 12  1  0  0  0  0
  5  6  1  0  0  0  0
  6 13  1  6  0  0  0
  6  1  1  0  0  0  0
  9  3  1  0  0  0  0
 11  5  1  0  0  0  0
 14  6  1  0  0  0  0
 14 24  1  0  0  0  0
 15 14  2  0  0  0  0
 16 15  1  0  0  0  0
 17 15  1  0  0  0  0
 17 18  2  0  0  0  0
 18 19  1  0  0  0  0
 19 24  2  0  0  0  0
 19 20  1  0  0  0  0
 20 21  2  0  0  0  0
 21 22  1  0  0  0  0
 23 22  2  0  0  0  0
 24 23  1  0  0  0  0
 25 31  1  0  0  0  0
 26 35  1  0  0  0  0
 26 27  1  0  0  0  0
 27 41  1  0  0  0  0
 28 27  2  0  0  0  0
 28 36  1  0  0  0  0
 29 28  1  0  0  0  0
 30 37  1  0  0  0  0
 30 29  1  0  0  0  0
 31 30  1  0  0  0  0
 32 31  2  0  0  0  0
 32 33  1  0  0  0  0
 33 34  1  0  0  0  0
 33 29  2  0  0  0  0
 34 26  2  0  0  0  0
 38 34  1  0  0  0  0
 39 44  1  0  0  0  0
 39 45  1  0  0  0  0
 40 39  2  0  0  0  0
 41 42  2  0  0  0  0
 41 40  1  0  0  0  0
 42 43  1  0  0  0  0
 43 47  1  0  0  0  0
 43 44  2  0  0  0  0
 46 40  1  0  0  0  0
M  END
>  <minimizedAffinity>
-6.78901291

>  <minimizedRMSD>
1.42452204

$$$$
