
 OpenBabel03272509543D

 45 49  0  0  0  0  0  0  0  0999 V2000
   34.4170   28.6540   48.1310 C   0  0  0  0  0  0  0  0  0  0  0  0
   35.1710   28.9650   47.3900 H   0  0  0  0  0  0  0  0  0  0  0  0
   33.7690   29.5400   48.3260 H   0  0  0  0  0  0  0  0  0  0  0  0
   33.5300   27.5490   47.6670 C   0  0  0  0  0  0  0  0  0  0  0  0
   33.7250   27.3770   46.5850 H   0  0  0  0  0  0  0  0  0  0  0  0
   33.7230   26.5820   48.1690 H   0  0  0  0  0  0  0  0  0  0  0  0
   32.0810   27.8850   47.7710 C   0  0  0  0  0  0  0  0  0  0  0  0
   31.3930   27.5310   48.9070 C   0  0  0  0  0  0  0  0  0  0  0  0
   30.0720   27.8040   49.0450 C   0  0  0  0  0  0  0  0  0  0  0  0
   29.4260   28.4180   48.0810 N   0  0  0  0  0  0  0  0  0  0  0  0
   30.0740   28.7840   46.9470 C   0  0  0  0  0  0  0  0  0  0  0  0
   31.3960   28.5110   46.8070 N   0  0  0  0  0  0  0  0  0  0  0  0
   31.9340   27.0280   49.6870 H   0  0  0  0  0  0  0  0  0  0  0  0
   29.4930   27.5420   49.9220 H   0  0  0  0  0  0  0  0  0  0  0  0
   29.5740   29.4730   45.7430 C   0  0  0  0  0  0  0  0  0  0  0  0
   30.0960   30.6510   45.2490 C   0  0  0  0  0  0  0  0  0  0  0  0
   30.9410   31.1090   45.7880 H   0  0  0  0  0  0  0  0  0  0  0  0
   29.6390   31.2970   44.1340 C   0  0  0  0  0  3  0  0  0  0  0  0
   28.5880   30.7770   43.4190 C   0  0  0  0  0  3  0  0  0  0  0  0
   28.0260   29.6060   43.8620 C   0  0  0  0  0  0  0  0  0  0  0  0
   26.9770   29.1310   43.1060 C   0  0  0  0  0  3  0  0  0  0  0  0
   26.3510   27.9610   43.4760 C   0  0  0  0  0  3  0  0  0  0  0  0
   26.8300   27.3140   44.6160 C   0  0  0  0  0  3  0  0  0  0  0  0
   27.8800   27.8490   45.3170 C   0  0  0  0  0  3  0  0  0  0  0  0
   28.5270   29.0120   44.9780 C   0  0  0  0  0  0  0  0  0  0  0  0
   34.9970   28.3380   49.4020 O   0  0  0  0  0  0  0  0  0  0  0  0
   37.3010   30.1620   51.4840 C   0  0  0  0  0  0  0  0  0  0  0  0
   38.0520   30.8500   50.4900 C   0  0  0  0  0  0  0  0  0  0  0  0
   37.6990   30.6290   49.1750 C   0  0  0  0  0  0  0  0  0  0  0  0
   36.6630   29.7680   48.9430 N   0  0  0  0  0  0  0  0  0  0  0  0
   35.9790   29.1380   49.8940 C   0  0  0  0  0  0  0  0  0  0  0  0
   36.3070   29.3410   51.1820 N   0  0  0  0  0  0  0  0  0  0  0  0
   37.6030   30.3560   52.5170 H   0  0  0  0  0  0  0  0  0  0  0  0
   38.8620   31.5240   50.6850 H   0  0  0  0  0  0  0  0  0  0  0  0
   38.9390   33.2360   48.9820 F   0  0  0  0  0  0  0  0  0  0  0  0
   38.9180   32.4460   47.9070 C   0  0  0  0  0  0  0  0  0  0  0  0
   38.3380   31.2360   48.0220 C   0  0  0  0  0  0  0  0  0  0  0  0
   38.3750   30.4950   46.8340 C   0  0  0  0  0  0  0  0  0  0  0  0
   38.9450   30.9570   45.6730 C   0  0  0  0  0  0  0  0  0  0  0  0
   39.5200   32.1930   45.6150 C   0  0  0  0  0  0  0  0  0  0  0  0
   39.5040   32.9570   46.7660 C   0  0  0  0  0  0  0  0  0  0  0  0
   37.9450   29.4930   46.7680 H   0  0  0  0  0  0  0  0  0  0  0  0
   38.9590   30.3600   44.7700 H   0  0  0  0  0  0  0  0  0  0  0  0
   39.9690   32.5710   44.7230 H   0  0  0  0  0  0  0  0  0  0  0  0
   39.9500   33.9350   46.7520 H   0  0  0  0  0  0  0  0  0  0  0  0
  1  3  1  0  0  0  0
  1 26  1  0  0  0  0
  2  1  1  0  0  0  0
  4  7  1  0  0  0  0
  4  1  1  0  0  0  0
  4  6  1  0  0  0  0
  5  4  1  0  0  0  0
  7  8  1  0  0  0  0
  8  9  2  0  0  0  0
  8 13  1  0  0  0  0
  9 14  1  0  0  0  0
 10  9  1  0  0  0  0
 11 10  2  0  0  0  0
 12 11  1  0  0  0  0
 12  7  2  0  0  0  0
 15 11  1  0  0  0  0
 16 15  1  0  0  0  0
 16 17  1  0  0  0  0
 18 16  2  0  0  0  0
 19 20  2  0  0  0  0
 19 18  1  0  0  0  0
 20 25  1  0  0  0  0
 21 22  2  0  0  0  0
 21 20  1  0  0  0  0
 22 23  1  0  0  0  0
 23 24  2  0  0  0  0
 25 24  1  0  0  0  0
 25 15  2  0  0  0  0
 26 31  1  0  0  0  0
 27 33  1  0  0  0  0
 28 34  1  0  0  0  0
 28 27  2  0  0  0  0
 29 28  1  0  0  0  0
 30 29  2  0  0  0  0
 30 31  1  0  0  0  0
 31 32  2  0  0  0  0
 32 27  1  0  0  0  0
 36 37  1  0  0  0  0
 36 35  1  0  0  0  0
 37 29  1  0  0  0  0
 38 37  2  0  0  0  0
 39 38  1  0  0  0  0
 40 39  2  0  0  0  0
 40 41  1  0  0  0  0
 41 36  2  0  0  0  0
 42 38  1  0  0  0  0
 43 39  1  0  0  0  0
 44 40  1  0  0  0  0
 45 41  1  0  0  0  0
M  END
>  <minimizedAffinity>
-6.96210718

>  <minimizedRMSD>
0.302524149

$$$$
