
     RDKit          3D

 50 54  0  0  0  0  0  0  0  0999 V2000
   35.6785   29.8085   48.5028 C   0  0  0  0  0  0  0  0  0  0  0  0
   35.4660   28.8796   49.4490 C   0  0  0  0  0  0  0  0  0  0  0  0
   34.6718   27.8273   49.2243 C   0  0  0  0  0  0  0  0  0  0  0  0
   34.0763   27.7111   48.0098 N   0  0  0  0  0  0  0  0  0  0  0  0
   34.2897   28.6308   47.0792 C   0  0  0  0  0  0  0  0  0  0  0  0
   35.0847   29.6865   47.3019 N   0  0  0  0  0  0  0  0  0  0  0  0
   32.2616   28.0748   45.8055 C   0  0  0  0  0  0  0  0  0  0  0  0
   33.6252   28.3866   45.8235 C   0  0  0  0  0  0  0  0  0  0  0  0
   34.4173   28.4567   44.6908 C   0  0  0  0  0  0  0  0  0  0  0  0
   33.8462   28.2059   43.4600 C   0  0  0  0  0  0  0  0  0  0  0  0
   32.5095   27.8895   43.3488 C   0  0  0  0  0  0  0  0  0  0  0  0
   31.8112   27.8447   44.5138 C   0  0  0  0  0  0  0  0  0  0  0  0
   31.2783   28.0090   47.1486 S   0  0  0  0  0  0  0  0  0  0  0  0
   30.4708   26.7386   46.7199 O   0  0  0  0  0  0  0  0  0  0  0  0
   30.3553   29.1986   47.0858 O   0  0  0  0  0  0  0  0  0  0  0  0
   30.9751   27.6195   48.6659 C   0  0  0  0  0  0  0  0  0  0  0  0
   30.5471   26.3457   49.1059 F   0  0  0  0  0  0  0  0  0  0  0  0
   29.6839   28.1895   49.0830 F   0  0  0  0  0  0  0  0  0  0  0  0
   31.5453   28.3427   49.7532 F   0  0  0  0  0  0  0  0  0  0  0  0
   37.3172   32.7530   49.9603 C   0  0  0  0  0  0  0  0  0  0  0  0
   38.2508   33.0985   48.9817 C   0  0  0  0  0  0  0  0  0  0  0  0
   38.3098   32.3282   47.8310 C   0  0  0  0  0  0  0  0  0  0  0  0
   37.4366   31.2783   47.7554 N   0  0  0  0  0  0  0  0  0  0  0  0
   36.5468   30.9644   48.7124 C   0  0  0  0  0  0  0  0  0  0  0  0
   36.5021   31.7150   49.8077 N   0  0  0  0  0  0  0  0  0  0  0  0
   35.9402   28.9705   50.4183 H   0  0  0  0  0  0  0  0  0  0  0  0
   34.5078   27.0812   49.9997 H   0  0  0  0  0  0  0  0  0  0  0  0
   35.4678   28.7030   44.7538 H   0  0  0  0  0  0  0  0  0  0  0  0
   34.4556   28.2574   42.5623 H   0  0  0  0  0  0  0  0  0  0  0  0
   32.0471   27.6907   42.4026 H   0  0  0  0  0  0  0  0  0  0  0  0
   30.7500   27.5929   44.4193 H   0  0  0  0  0  0  0  0  0  0  0  0
   37.2668   33.3527   50.8586 H   0  0  0  0  0  0  0  0  0  0  0  0
   38.8932   33.8989   49.1797 H   0  0  0  0  0  0  0  0  0  0  0  0
   39.2214   32.4313   46.7159 C   0  0  0  0  0  0  0  0  0  0  0  0
   40.0987   33.5279   46.7221 C   0  0  0  0  0  0  0  0  0  0  0  0
   40.0553   34.2489   47.5417 H   0  0  0  0  0  0  0  0  0  0  0  0
   41.0405   33.7804   45.7506 C   0  0  0  0  0  0  0  0  0  0  0  0
   41.1612   32.9199   44.6836 C   0  0  0  0  0  0  0  0  0  0  0  0
   40.3313   31.8239   44.6221 C   0  0  0  0  0  0  0  0  0  0  0  0
   40.4519   30.9249   43.5849 C   0  0  0  0  0  0  0  0  0  0  0  0
   39.6624   29.7731   43.4896 C   0  0  0  0  0  0  0  0  0  0  0  0
   38.7466   29.6068   44.5256 C   0  0  0  0  0  0  0  0  0  0  0  0
   38.6459   30.5187   45.5477 C   0  0  0  0  0  0  0  0  0  0  0  0
   39.4162   31.6325   45.6239 C   0  0  0  0  0  0  0  0  0  0  0  0
   41.6806   34.6447   45.8211 H   0  0  0  0  0  0  0  0  0  0  0  0
   41.8814   33.0752   43.8976 H   0  0  0  0  0  0  0  0  0  0  0  0
   41.1835   31.1098   42.8096 H   0  0  0  0  0  0  0  0  0  0  0  0
   39.8308   29.1336   42.6423 H   0  0  0  0  0  0  0  0  0  0  0  0
   38.1500   28.6973   44.4184 H   0  0  0  0  0  0  0  0  0  0  0  0
   37.9343   30.2209   46.2632 H   0  0  0  0  0  0  0  0  0  0  0  0
  1 24  1  0
  1  2  2  0
  3  2  1  0
  4  3  2  0
  5  6  2  0
  5  4  1  0
  6  1  1  0
  7  8  2  0
  7 13  1  0
  8  5  1  0
  9  8  1  0
 10  9  2  0
 11 10  1  0
 11 12  2  0
 12  7  1  0
 13 16  1  0
 14 13  2  0
 15 13  2  0
 16 18  1  0
 16 17  1  0
 16 19  1  0
 21 20  2  0
 22 21  1  0
 23 22  2  0
 23 24  1  0
 24 25  2  0
 25 20  1  0
  2 26  1  0
  3 27  1  0
  9 28  1  0
 10 29  1  0
 11 30  1  0
 12 31  1  0
 20 32  1  0
 21 33  1  0
 34 35  2  0
 35 36  1  0
 35 37  1  0
 37 38  2  0
 38 39  1  0
 39 40  2  0
 40 41  1  0
 41 42  2  0
 42 43  1  0
 43 44  2  0
 44 34  1  0
 44 39  1  0
 37 45  1  0
 38 46  1  0
 40 47  1  0
 41 48  1  0
 42 49  1  0
 43 50  1  0
 22 34  1  0
M  ISO  8  26  14  27  14  28  14  29  14  30  14  31  14  32  14  33  14
M  ISO  1  36  15
M  END
>  <DihAtoms>  (1) 
20,21,33,34

>  <DihDeg>  (1) 
143.6567638999108

$$$$
