
     RDKit          3D

 48 53  0  0  0  0  0  0  0  0999 V2000
   35.8509   29.1305   49.8024 C   0  0  0  0  0  0  0  0  0  0  0  0
   34.8234   29.6221   50.5490 C   0  0  0  0  0  0  0  0  0  0  0  0
   33.6476   29.0375   50.0607 C   0  0  0  0  0  0  0  0  0  0  0  0
   34.0640   28.1990   49.0099 C   0  0  0  0  0  0  0  0  0  0  0  0
   35.3534   28.3100   48.9249 O   0  0  0  0  0  0  0  0  0  0  0  0
   33.5279   26.4320   47.3422 C   0  0  0  0  0  0  0  0  0  0  0  0
   33.1282   27.3984   48.2290 C   0  0  0  0  0  0  0  0  0  0  0  0
   31.7831   27.6717   48.4351 C   0  0  0  0  0  0  0  0  0  0  0  0
   30.8489   26.9390   47.7181 C   0  0  0  0  0  0  0  0  0  0  0  0
   29.5054   26.9878   47.7157 N   0  0  0  0  0  0  0  0  0  0  0  0
   29.0877   26.0674   46.8428 N   0  0  0  0  0  0  0  0  0  0  0  0
   30.1554   25.4429   46.2986 C   0  0  0  0  0  0  0  0  0  0  0  0
   31.3149   25.9718   46.8330 C   0  0  0  0  0  0  0  0  0  0  0  0
   32.6449   25.6953   46.6232 C   0  0  0  0  0  0  0  0  0  0  0  0
   37.2180   29.5335   50.0462 C   0  0  0  0  0  0  0  0  0  0  0  0
   37.8702   28.9588   50.9626 O   0  0  0  0  0  0  0  0  0  0  0  0
   37.7677   30.5781   49.2232 C   0  0  0  0  0  0  0  0  0  0  0  0
   38.1379   31.7590   49.8223 C   0  0  0  0  0  0  0  0  0  0  0  0
   38.6871   32.7721   49.0602 C   0  0  0  0  0  0  0  0  0  0  0  0
   38.8291   32.5199   47.7157 N   0  0  0  0  0  0  0  0  0  0  0  0
   38.4739   31.3854   47.1354 C   0  0  0  0  0  0  0  0  0  0  0  0
   37.9492   30.4460   47.9228 N   0  0  0  0  0  0  0  0  0  0  0  0
   34.8433   30.3380   51.3836 H   0  0  0  0  0  0  0  0  0  0  0  0
   32.6761   29.2483   50.4695 H   0  0  0  0  0  0  0  0  0  0  0  0
   34.5926   26.2668   47.2268 H   0  0  0  0  0  0  0  0  0  0  0  0
   31.3790   28.4250   49.1226 H   0  0  0  0  0  0  0  0  0  0  0  0
   28.8944   27.6138   48.2776 H   0  0  0  0  0  0  0  0  0  0  0  0
   30.1111   24.6404   45.5488 H   0  0  0  0  0  0  0  0  0  0  0  0
   32.9279   24.9246   45.9148 H   0  0  0  0  0  0  0  0  0  0  0  0
   37.9989   31.8891   50.8787 H   0  0  0  0  0  0  0  0  0  0  0  0
   38.9808   33.6935   49.5003 H   0  0  0  0  0  0  0  0  0  0  0  0
   38.7336   31.3848   45.7071 C   0  0  0  0  0  0  0  0  0  0  0  0
   38.1641   30.4389   44.8842 C   0  0  0  0  0  0  0  0  0  0  0  0
   37.5061   29.6616   45.2502 H   0  0  0  0  0  0  0  0  0  0  0  0
   38.3692   30.3838   43.5277 C   0  0  0  0  0  0  0  0  0  0  0  0
   39.1780   31.2958   42.8952 C   0  0  0  0  0  0  0  0  0  0  0  0
   39.7731   32.2632   43.6685 C   0  0  0  0  0  0  0  0  0  0  0  0
   40.5880   33.1872   43.0524 C   0  0  0  0  0  0  0  0  0  0  0  0
   41.2147   34.1831   43.7704 C   0  0  0  0  0  0  0  0  0  0  0  0
   40.9890   34.2155   45.1460 C   0  0  0  0  0  0  0  0  0  0  0  0
   40.1659   33.2689   45.7112 C   0  0  0  0  0  0  0  0  0  0  0  0
   39.5301   32.2676   45.0203 C   0  0  0  0  0  0  0  0  0  0  0  0
   37.9120   29.6324   42.9001 H   0  0  0  0  0  0  0  0  0  0  0  0
   39.3326   31.2438   41.8293 H   0  0  0  0  0  0  0  0  0  0  0  0
   40.7278   33.1101   41.9631 H   0  0  0  0  0  0  0  0  0  0  0  0
   41.8305   34.8536   43.1900 H   0  0  0  0  0  0  0  0  0  0  0  0
   41.4924   35.0051   45.6789 H   0  0  0  0  0  0  0  0  0  0  0  0
   40.0762   33.4043   46.7696 H   0  0  0  0  0  0  0  0  0  0  0  0
  1 15  1  0
  1  2  2  0
  3  2  1  0
  4  3  2  0
  5  4  1  0
  5  1  1  0
  6  7  2  0
  7  8  1  0
  7  4  1  0
  9  8  2  0
 10  9  1  0
 11 10  1  0
 12 13  1  0
 12 11  2  0
 13  9  1  0
 14 13  2  0
 14  6  1  0
 15 16  2  0
 17 18  2  0
 17 15  1  0
 19 18  1  0
 20 19  2  0
 21 20  1  0
 21 22  2  0
 22 17  1  0
  2 23  1  0
  3 24  1  0
  6 25  1  0
  8 26  1  0
 10 27  1  0
 12 28  1  0
 14 29  1  0
 18 30  1  0
 19 31  1  0
 32 33  2  0
 33 34  1  0
 33 35  1  0
 35 36  2  0
 36 37  1  0
 37 38  2  0
 38 39  1  0
 39 40  2  0
 40 41  1  0
 41 42  2  0
 42 32  1  0
 42 37  1  0
 35 43  1  0
 36 44  1  0
 38 45  1  0
 39 46  1  0
 40 47  1  0
 41 48  1  0
 21 32  1  0
M  ISO  8  23  14  24  14  25  14  26  14  27   9  28  14  29  14  30  14
M  ISO  2  31  14  34  15
M  END
>  <DihAtoms>  (1) 
19,20,31,32

>  <DihDeg>  (1) 
0.024210612729294635

$$$$
