
     RDKit          3D

 50 54  0  0  0  0  0  0  0  0999 V2000
   38.2352   31.0407   47.8335 Cl  0  0  0  0  0  0  0  0  0  0  0  0
   36.9830   30.6083   46.7012 C   0  0  0  0  0  0  0  0  0  0  0  0
   35.8279   30.0738   47.1606 C   0  0  0  0  0  0  0  0  0  0  0  0
   34.8606   29.8068   46.1933 C   0  0  0  0  0  0  0  0  0  0  0  0
   35.0088   30.0452   44.8597 C   0  0  0  0  0  0  0  0  0  0  0  0
   36.2002   30.5869   44.4422 C   0  0  0  0  0  0  0  0  0  0  0  0
   37.2042   30.8756   45.3494 C   0  0  0  0  0  0  0  0  0  0  0  0
   36.5279   29.1623   50.7420 C   0  0  0  0  0  0  0  0  0  0  0  0
   36.7204   29.4020   49.3764 C   0  0  0  0  0  0  0  0  0  0  0  0
   35.6572   29.8093   48.5664 C   0  0  0  0  0  0  0  0  0  0  0  0
   34.4549   29.9500   49.1796 N   0  0  0  0  0  0  0  0  0  0  0  0
   34.2590   29.7210   50.4886 C   0  0  0  0  0  0  0  0  0  0  0  0
   35.2968   29.3262   51.2765 N   0  0  0  0  0  0  0  0  0  0  0  0
   38.4548   31.4005   44.9112 N   0  0  0  0  0  0  0  0  0  0  0  0
   38.7574   32.8183   44.8317 C   0  0  0  0  0  0  0  0  0  0  0  0
   40.0494   32.9742   44.0812 C   0  0  0  0  0  0  0  0  0  0  0  0
   39.9410   32.2285   42.8675 N   0  0  0  0  0  0  0  0  0  0  0  0
   39.8083   30.8231   43.0426 C   0  0  0  0  0  0  0  0  0  0  0  0
   39.5131   30.5262   44.5184 C   0  0  2  0  0  0  0  0  0  0  0  0
   33.9135   29.3761   46.5167 H   0  0  0  0  0  0  0  0  0  0  0  0
   34.2128   29.8144   44.1566 H   0  0  0  0  0  0  0  0  0  0  0  0
   36.3426   30.7854   43.3884 H   0  0  0  0  0  0  0  0  0  0  0  0
   37.2902   28.8488   51.4366 H   0  0  0  0  0  0  0  0  0  0  0  0
   37.7367   29.1922   49.1133 H   0  0  0  0  0  0  0  0  0  0  0  0
   33.2342   29.8872   50.7848 H   0  0  0  0  0  0  0  0  0  0  0  0
   38.8462   33.2591   45.8599 H   0  0  0  0  0  0  0  0  0  0  0  0
   37.9663   33.3383   44.2302 H   0  0  0  0  0  0  0  0  0  0  0  0
   40.0481   34.0609   43.7482 H   0  0  0  0  0  0  0  0  0  0  0  0
   40.9626   32.8771   44.6530 H   0  0  0  0  0  0  0  0  0  0  0  0
   40.7549   32.4845   42.2486 H   0  0  0  0  0  0  0  0  0  0  0  0
   40.7194   30.2416   42.7731 H   0  0  0  0  0  0  0  0  0  0  0  0
   39.0031   30.4878   42.3836 H   0  0  0  0  0  0  0  0  0  0  0  0
   40.4524   30.9522   44.9545 H   0  0  0  0  0  0  0  0  0  0  0  0
   39.3652   29.0993   44.7258 C   0  0  0  0  0  0  0  0  0  0  0  0
   39.5464   28.5251   45.9685 C   0  0  0  0  0  0  0  0  0  0  0  0
   39.8138   29.0484   46.8475 H   0  0  0  0  0  0  0  0  0  0  0  0
   39.3752   27.1594   46.2243 C   0  0  0  0  0  0  0  0  0  0  0  0
   39.0063   26.3055   45.2146 C   0  0  0  0  0  0  0  0  0  0  0  0
   38.8146   26.8200   43.9719 C   0  0  0  0  0  0  0  0  0  0  0  0
   38.4475   25.9624   42.9560 C   0  0  0  0  0  0  0  0  0  0  0  0
   38.2411   26.4161   41.6730 C   0  0  0  0  0  0  0  0  0  0  0  0
   38.4175   27.7840   41.4333 C   0  0  0  0  0  0  0  0  0  0  0  0
   38.7847   28.6012   42.4803 C   0  0  0  0  0  0  0  0  0  0  0  0
   38.9942   28.1596   43.7706 C   0  0  0  0  0  0  0  0  0  0  0  0
   39.5169   26.7045   47.1982 H   0  0  0  0  0  0  0  0  0  0  0  0
   38.8683   25.2499   45.3882 H   0  0  0  0  0  0  0  0  0  0  0  0
   38.3129   24.9069   43.1474 H   0  0  0  0  0  0  0  0  0  0  0  0
   37.9553   25.7378   40.8905 H   0  0  0  0  0  0  0  0  0  0  0  0
   38.2461   28.0842   40.4248 H   0  0  0  0  0  0  0  0  0  0  0  0
   38.8885   29.6158   42.1582 H   0  0  0  0  0  0  0  0  0  0  0  0
  2  3  2  0
  2  1  1  0
  3 10  1  0
  4  3  1  0
  5  4  2  0
  6  5  1  0
  6  7  2  0
  7  2  1  0
  8 13  2  0
  9  8  1  0
 10 11  1  0
 10  9  2  0
 11 12  2  0
 12 13  1  0
 14  7  1  0
 15 14  1  0
 16 15  1  0
 17 18  1  0
 17 16  1  0
 18 19  1  0
 19 14  1  0
  4 20  1  0
  5 21  1  0
  6 22  1  0
  8 23  1  0
  9 24  1  0
 12 25  1  0
 15 26  1  0
 15 27  1  0
 16 28  1  0
 16 29  1  0
 17 30  1  0
 18 31  1  0
 18 32  1  0
 19 33  1  1
 34 35  2  0
 35 36  1  0
 35 37  1  0
 37 38  2  0
 38 39  1  0
 39 40  2  0
 40 41  1  0
 41 42  2  0
 42 43  1  0
 43 44  2  0
 44 34  1  0
 44 39  1  0
 37 45  1  0
 38 46  1  0
 40 47  1  0
 41 48  1  0
 42 49  1  0
 43 50  1  0
 19 34  1  0
M  ISO  8  20  14  21  14  22  14  23  14  24  14  25  14  26  13  27  13
M  ISO  7  28  13  29  13  30   5  31  13  32  13  33  13  36  15
M  END
>  <DihAtoms>  (1) 
17,18,33,34

>  <DihDeg>  (1) 
-52.291719788060455

$$$$
