
 OpenBabel03272509343D

 43 48  0  0  1  0  0  0  0  0999 V2000
   37.8080   27.3890   34.1140 C   0  0  1  0  0  0  0  0  0  0  0  0
   38.1820   27.4880   35.5350 C   0  0  0  0  0  0  0  0  0  0  0  0
   37.4470   26.2650   35.1240 C   0  0  2  0  0  0  0  0  0  0  0  0
   38.5100   27.0090   33.3860 H   0  0  0  0  0  0  0  0  0  0  0  0
   39.2450   27.6410   35.6610 H   0  0  0  0  0  0  0  0  0  0  0  0
   37.5990   28.2990   36.0880 H   0  0  0  0  0  0  0  0  0  0  0  0
   36.4050   26.0380   35.0340 H   0  0  0  0  0  0  0  0  0  0  0  0
   38.3290   25.0690   35.2050 C   0  0  0  0  0  0  0  0  0  0  0  0
   38.8940   24.7970   33.9500 C   0  0  0  0  0  0  0  0  0  0  0  0
   39.8170   23.7880   33.7850 C   0  0  0  0  0  0  0  0  0  0  0  0
   40.2160   23.0050   34.8730 C   0  0  0  0  0  0  0  0  0  0  0  0
   39.6470   23.2940   36.0920 C   0  0  0  0  0  0  0  0  0  0  0  0
   39.9410   22.5910   37.2440 C   0  0  0  0  0  0  0  0  0  0  0  0
   39.3640   22.8640   38.4740 C   0  0  0  0  0  0  0  0  0  0  0  0
   38.4430   23.8940   38.5680 C   0  0  0  0  0  0  0  0  0  0  0  0
   38.1450   24.6000   37.4250 C   0  0  0  0  0  0  0  0  0  0  0  0
   38.7370   24.2980   36.2290 C   0  0  0  0  0  0  0  0  0  0  0  0
   38.8330   25.1930   32.9570 H   0  0  0  0  0  0  0  0  0  0  0  0
   40.3390   23.4500   32.9070 H   0  0  0  0  0  0  0  0  0  0  0  0
   40.9210   22.1810   34.9190 H   0  0  0  0  0  0  0  0  0  0  0  0
   40.6580   21.7770   37.2130 H   0  0  0  0  0  0  0  0  0  0  0  0
   39.6200   22.2890   39.3560 H   0  0  0  0  0  0  0  0  0  0  0  0
   37.9580   24.1600   39.4940 H   0  0  0  0  0  0  0  0  0  0  0  0
   37.4080   25.4190   37.5230 H   0  0  0  0  0  0  0  0  0  0  0  0
   35.3550   29.0850   31.8190 C   0  0  0  0  0  0  0  0  0  0  0  0
   36.4940   28.3440   32.2650 C   0  0  0  0  0  0  0  0  0  0  0  0
   36.6440   28.1410   33.6170 C   0  0  0  0  0  0  0  0  0  0  0  0
   35.6870   28.6660   34.4020 N   0  0  0  0  0  0  0  0  0  0  0  0
   34.6230   29.3530   34.0240 C   0  0  0  0  0  0  0  0  0  0  0  0
   34.4500   29.5720   32.6820 N   0  0  0  0  0  0  0  0  0  0  0  0
   35.2890   29.2130   30.7550 H   0  0  0  0  0  0  0  0  0  0  0  0
   37.2100   27.9580   31.5630 H   0  0  0  0  0  0  0  0  0  0  0  0
   33.5590   29.9310   34.8170 C   0  0  0  0  0  0  0  0  0  0  0  0
   32.2570   29.4320   34.7870 C   0  0  0  0  0  0  0  0  0  0  0  0
   32.0070   28.5720   34.1460 H   0  0  0  0  0  0  0  0  0  0  0  0
   31.2030   29.9190   35.5050 C   0  0  0  0  0  3  0  0  0  0  0  0
   31.3870   30.9900   36.3410 C   0  0  0  0  0  3  0  0  0  0  0  0
   32.6390   31.5490   36.4340 C   0  0  0  0  0  0  0  0  0  0  0  0
   32.8030   32.6090   37.2740 C   0  0  0  0  0  3  0  0  0  0  0  0
   34.0330   33.2130   37.4190 C   0  0  0  0  0  3  0  0  0  0  0  0
   35.0890   32.6860   36.6690 C   0  0  0  0  0  3  0  0  0  0  0  0
   34.8610   31.6140   35.8390 C   0  0  0  0  0  3  0  0  0  0  0  0
   33.6460   30.9970   35.6790 C   0  0  0  0  0  0  0  0  0  0  0  0
  1  4  1  6  0  0  0
  1  3  1  0  0  0  0
  1  2  1  0  0  0  0
  2  5  1  0  0  0  0
  2  6  1  0  0  0  0
  3  7  1  1  0  0  0
  3  8  1  0  0  0  0
  3  2  1  0  0  0  0
  8 17  1  0  0  0  0
  9  8  2  0  0  0  0
 10  9  1  0  0  0  0
 10 11  2  0  0  0  0
 11 20  1  0  0  0  0
 11 12  1  0  0  0  0
 12 17  2  0  0  0  0
 12 13  1  0  0  0  0
 13 14  2  0  0  0  0
 14 15  1  0  0  0  0
 14 22  1  0  0  0  0
 15 23  1  0  0  0  0
 16 24  1  0  0  0  0
 16 15  2  0  0  0  0
 17 16  1  0  0  0  0
 18  9  1  0  0  0  0
 19 10  1  0  0  0  0
 21 13  1  0  0  0  0
 25 26  2  0  0  0  0
 25 30  1  0  0  0  0
 26 27  1  0  0  0  0
 27  1  1  0  0  0  0
 27 28  2  0  0  0  0
 29 28  1  0  0  0  0
 29 33  1  0  0  0  0
 30 29  2  0  0  0  0
 31 25  1  0  0  0  0
 32 26  1  0  0  0  0
 33 43  1  0  0  0  0
 34 33  2  0  0  0  0
 34 36  1  0  0  0  0
 35 34  1  0  0  0  0
 36 37  2  0  0  0  0
 37 38  1  0  0  0  0
 38 39  1  0  0  0  0
 39 40  2  0  0  0  0
 41 40  1  0  0  0  0
 42 41  2  0  0  0  0
 43 42  1  0  0  0  0
 43 38  2  0  0  0  0
M  END
>  <minimizedAffinity>
-7.75907087

$$$$

 OpenBabel03272509343D

 43 48  0  0  1  0  0  0  0  0999 V2000
   37.4730   26.4920   33.6730 C   0  0  1  0  0  0  0  0  0  0  0  0
   38.8550   26.2590   33.2200 C   0  0  0  0  0  0  0  0  0  0  0  0
   38.6690   26.5610   34.6630 C   0  0  2  0  0  0  0  0  0  0  0  0
   36.8330   25.6620   33.9350 H   0  0  0  0  0  0  0  0  0  0  0  0
   38.9600   25.3040   32.7260 H   0  0  0  0  0  0  0  0  0  0  0  0
   39.2440   27.0960   32.5470 H   0  0  0  0  0  0  0  0  0  0  0  0
   38.6120   27.4770   35.2120 H   0  0  0  0  0  0  0  0  0  0  0  0
   38.9760   25.3650   35.4940 C   0  0  0  0  0  0  0  0  0  0  0  0
   37.8790   25.0470   36.3090 C   0  0  0  0  0  0  0  0  0  0  0  0
   37.8850   23.9260   37.1090 C   0  0  0  0  0  0  0  0  0  0  0  0
   38.9930   23.0720   37.1280 C   0  0  0  0  0  0  0  0  0  0  0  0
   40.0530   23.4080   36.3180 C   0  0  0  0  0  0  0  0  0  0  0  0
   41.2130   22.6610   36.2510 C   0  0  0  0  0  0  0  0  0  0  0  0
   42.2930   22.9970   35.4490 C   0  0  0  0  0  0  0  0  0  0  0  0
   42.2190   24.1380   34.6690 C   0  0  0  0  0  0  0  0  0  0  0  0
   41.0670   24.8880   34.7300 C   0  0  0  0  0  0  0  0  0  0  0  0
   40.0220   24.5210   35.5360 C   0  0  0  0  0  0  0  0  0  0  0  0
   36.9090   25.4490   36.5150 H   0  0  0  0  0  0  0  0  0  0  0  0
   37.1420   23.5400   37.7850 H   0  0  0  0  0  0  0  0  0  0  0  0
   39.1620   22.1600   37.6920 H   0  0  0  0  0  0  0  0  0  0  0  0
   41.3120   21.7590   36.8460 H   0  0  0  0  0  0  0  0  0  0  0  0
   43.1870   22.3850   35.4240 H   0  0  0  0  0  0  0  0  0  0  0  0
   43.0220   24.4560   34.0230 H   0  0  0  0  0  0  0  0  0  0  0  0
   41.0270   25.7950   34.0980 H   0  0  0  0  0  0  0  0  0  0  0  0
   36.2090   29.5790   31.9280 C   0  0  0  0  0  0  0  0  0  0  0  0
   36.8300   28.3070   32.1390 C   0  0  0  0  0  0  0  0  0  0  0  0
   36.8350   27.7940   33.4160 C   0  0  0  0  0  0  0  0  0  0  0  0
   36.2440   28.5500   34.3570 N   0  0  0  0  0  0  0  0  0  0  0  0
   35.6600   29.7250   34.1970 C   0  0  0  0  0  0  0  0  0  0  0  0
   35.6420   30.2600   32.9360 N   0  0  0  0  0  0  0  0  0  0  0  0
   36.2350   29.9280   30.9140 H   0  0  0  0  0  0  0  0  0  0  0  0
   37.2790   27.7710   31.3240 H   0  0  0  0  0  0  0  0  0  0  0  0
   35.0010   30.5760   35.1650 C   0  0  0  0  0  0  0  0  0  0  0  0
   35.6680   31.6110   35.8170 C   0  0  0  0  0  0  0  0  0  0  0  0
   36.7310   31.8070   35.6070 H   0  0  0  0  0  0  0  0  0  0  0  0
   35.1170   32.4550   36.7380 C   0  0  0  0  0  3  0  0  0  0  0  0
   33.7980   32.3150   37.0860 C   0  0  0  0  0  3  0  0  0  0  0  0
   33.0610   31.3180   36.4930 C   0  0  0  0  0  0  0  0  0  0  0  0
   31.7510   31.1970   36.8480 C   0  0  0  0  0  3  0  0  0  0  0  0
   30.9540   30.2220   36.2880 C   0  0  0  0  0  3  0  0  0  0  0  0
   31.5520   29.3780   35.3490 C   0  0  0  0  0  3  0  0  0  0  0  0
   32.8790   29.5500   35.0310 C   0  0  0  0  0  3  0  0  0  0  0  0
   33.6920   30.5120   35.5760 C   0  0  0  0  0  0  0  0  0  0  0  0
  1  4  1  1  0  0  0
  1  3  1  0  0  0  0
  2  1  1  0  0  0  0
  2  3  1  0  0  0  0
  3  7  1  1  0  0  0
  3  8  1  0  0  0  0
  5  2  1  0  0  0  0
  6  2  1  0  0  0  0
  8 17  2  0  0  0  0
  8  9  1  0  0  0  0
  9 18  1  0  0  0  0
  9 10  2  0  0  0  0
 10 11  1  0  0  0  0
 10 19  1  0  0  0  0
 11 20  1  0  0  0  0
 12 11  2  0  0  0  0
 13 12  1  0  0  0  0
 13 21  1  0  0  0  0
 14 13  2  0  0  0  0
 15 16  2  0  0  0  0
 15 14  1  0  0  0  0
 16 17  1  0  0  0  0
 17 12  1  0  0  0  0
 22 14  1  0  0  0  0
 23 15  1  0  0  0  0
 24 16  1  0  0  0  0
 25 26  2  0  0  0  0
 25 30  1  0  0  0  0
 26 27  1  0  0  0  0
 27  1  1  0  0  0  0
 27 28  2  0  0  0  0
 29 28  1  0  0  0  0
 29 33  1  0  0  0  0
 30 29  2  0  0  0  0
 31 25  1  0  0  0  0
 32 26  1  0  0  0  0
 33 43  2  0  0  0  0
 33 34  1  0  0  0  0
 34 36  2  0  0  0  0
 35 34  1  0  0  0  0
 36 37  1  0  0  0  0
 38 39  1  0  0  0  0
 38 37  2  0  0  0  0
 40 39  2  0  0  0  0
 41 40  1  0  0  0  0
 42 41  2  0  0  0  0
 42 43  1  0  0  0  0
 43 38  1  0  0  0  0
M  END
>  <minimizedAffinity>
-7.63815641

$$$$

 OpenBabel03272509343D

 43 48  0  0  1  0  0  0  0  0999 V2000
   37.1310   26.1060   33.1770 C   0  0  1  0  0  0  0  0  0  0  0  0
   38.2670   25.6210   32.3750 C   0  0  0  0  0  0  0  0  0  0  0  0
   38.5530   25.9710   33.7900 C   0  0  2  0  0  0  0  0  0  0  0  0
   36.4620   25.4100   33.6590 H   0  0  0  0  0  0  0  0  0  0  0  0
   38.0640   24.6550   31.9340 H   0  0  0  0  0  0  0  0  0  0  0  0
   38.5850   26.3630   31.5680 H   0  0  0  0  0  0  0  0  0  0  0  0
   38.8110   26.8900   34.2730 H   0  0  0  0  0  0  0  0  0  0  0  0
   38.8760   24.7520   34.5790 C   0  0  0  0  0  0  0  0  0  0  0  0
   39.5400   23.8150   33.7730 C   0  0  0  0  0  0  0  0  0  0  0  0
   40.0220   22.6350   34.2970 C   0  0  0  0  0  0  0  0  0  0  0  0
   39.8610   22.3430   35.6550 C   0  0  0  0  0  0  0  0  0  0  0  0
   39.2070   23.2800   36.4220 C   0  0  0  0  0  0  0  0  0  0  0  0
   38.9690   23.1120   37.7720 C   0  0  0  0  0  0  0  0  0  0  0  0
   38.3000   24.0430   38.5510 C   0  0  0  0  0  0  0  0  0  0  0  0
   37.8420   25.2070   37.9590 C   0  0  0  0  0  0  0  0  0  0  0  0
   38.0760   25.3830   36.6140 C   0  0  0  0  0  0  0  0  0  0  0  0
   38.7410   24.4380   35.8800 C   0  0  0  0  0  0  0  0  0  0  0  0
   39.8390   23.7290   32.7480 H   0  0  0  0  0  0  0  0  0  0  0  0
   40.5450   21.8200   33.8290 H   0  0  0  0  0  0  0  0  0  0  0  0
   40.1740   21.4740   36.2240 H   0  0  0  0  0  0  0  0  0  0  0  0
   39.3110   22.2130   38.2750 H   0  0  0  0  0  0  0  0  0  0  0  0
   38.1310   23.8740   39.6090 H   0  0  0  0  0  0  0  0  0  0  0  0
   37.3150   25.9730   38.5070 H   0  0  0  0  0  0  0  0  0  0  0  0
   37.7030   26.3200   36.1610 H   0  0  0  0  0  0  0  0  0  0  0  0
   36.3650   29.4790   31.6930 C   0  0  0  0  0  0  0  0  0  0  0  0
   36.8090   28.1230   31.8040 C   0  0  0  0  0  0  0  0  0  0  0  0
   36.6780   27.4990   33.0220 C   0  0  0  0  0  0  0  0  0  0  0  0
   36.1350   28.2350   34.0070 N   0  0  0  0  0  0  0  0  0  0  0  0
   35.7130   29.4860   33.9390 C   0  0  0  0  0  0  0  0  0  0  0  0
   35.8330   30.1330   32.7370 N   0  0  0  0  0  0  0  0  0  0  0  0
   36.4910   29.9150   30.7200 H   0  0  0  0  0  0  0  0  0  0  0  0
   37.2310   27.6110   30.9600 H   0  0  0  0  0  0  0  0  0  0  0  0
   35.1130   30.3220   34.9570 C   0  0  0  0  0  0  0  0  0  0  0  0
   35.8460   31.2820   35.6530 C   0  0  0  0  0  0  0  0  0  0  0  0
   36.9170   31.4260   35.4400 H   0  0  0  0  0  0  0  0  0  0  0  0
   35.3530   32.1080   36.6220 C   0  0  0  0  0  3  0  0  0  0  0  0
   34.0320   32.0260   36.9780 C   0  0  0  0  0  3  0  0  0  0  0  0
   33.2320   31.1060   36.3430 C   0  0  0  0  0  0  0  0  0  0  0  0
   31.9200   31.0430   36.7070 C   0  0  0  0  0  3  0  0  0  0  0  0
   31.0630   30.1460   36.1070 C   0  0  0  0  0  3  0  0  0  0  0  0
   31.6030   29.3180   35.1190 C   0  0  0  0  0  3  0  0  0  0  0  0
   32.9340   29.4300   34.7950 C   0  0  0  0  0  3  0  0  0  0  0  0
   33.8070   30.3140   35.3790 C   0  0  0  0  0  0  0  0  0  0  0  0
  1  4  1  1  0  0  0
  1  3  1  0  0  0  0
  2  1  1  0  0  0  0
  2  3  1  0  0  0  0
  3  7  1  1  0  0  0
  3  8  1  0  0  0  0
  5  2  1  0  0  0  0
  6  2  1  0  0  0  0
  8 17  1  0  0  0  0
  9 10  1  0  0  0  0
  9  8  2  0  0  0  0
 10 11  2  0  0  0  0
 11 20  1  0  0  0  0
 11 12  1  0  0  0  0
 12 13  1  0  0  0  0
 13 21  1  0  0  0  0
 13 14  2  0  0  0  0
 14 22  1  0  0  0  0
 15 23  1  0  0  0  0
 15 14  1  0  0  0  0
 16 15  2  0  0  0  0
 17 12  2  0  0  0  0
 17 16  1  0  0  0  0
 18  9  1  0  0  0  0
 19 10  1  0  0  0  0
 24 16  1  0  0  0  0
 25 26  2  0  0  0  0
 25 30  1  0  0  0  0
 26 27  1  0  0  0  0
 27  1  1  0  0  0  0
 27 28  2  0  0  0  0
 29 28  1  0  0  0  0
 29 33  1  0  0  0  0
 30 29  2  0  0  0  0
 31 25  1  0  0  0  0
 32 26  1  0  0  0  0
 33 43  2  0  0  0  0
 33 34  1  0  0  0  0
 34 36  2  0  0  0  0
 35 34  1  0  0  0  0
 36 37  1  0  0  0  0
 38 39  1  0  0  0  0
 38 37  2  0  0  0  0
 40 39  2  0  0  0  0
 41 40  1  0  0  0  0
 42 41  2  0  0  0  0
 42 43  1  0  0  0  0
 43 38  1  0  0  0  0
M  END
>  <minimizedAffinity>
-7.55260134

$$$$

 OpenBabel03272509343D

 43 48  0  0  1  0  0  0  0  0999 V2000
   36.4770   28.8970   33.9220 C   0  0  1  0  0  0  0  0  0  0  0  0
   35.3830   29.4160   33.0840 C   0  0  0  0  0  0  0  0  0  0  0  0
   35.0490   29.1030   34.4970 C   0  0  2  0  0  0  0  0  0  0  0  0
   37.1640   29.5730   34.4090 H   0  0  0  0  0  0  0  0  0  0  0  0
   35.6380   30.3640   32.6320 H   0  0  0  0  0  0  0  0  0  0  0  0
   35.0530   28.6730   32.2820 H   0  0  0  0  0  0  0  0  0  0  0  0
   34.7400   28.2040   34.9890 H   0  0  0  0  0  0  0  0  0  0  0  0
   34.7580   30.3480   35.2570 C   0  0  0  0  0  0  0  0  0  0  0  0
   35.9230   31.1210   35.3850 C   0  0  0  0  0  0  0  0  0  0  0  0
   35.8940   32.3650   35.9750 C   0  0  0  0  0  0  0  0  0  0  0  0
   34.6940   32.8920   36.4650 C   0  0  0  0  0  0  0  0  0  0  0  0
   33.5680   32.1140   36.3250 C   0  0  0  0  0  0  0  0  0  0  0  0
   32.3230   32.5070   36.7760 C   0  0  0  0  0  0  0  0  0  0  0  0
   31.1850   31.7250   36.6530 C   0  0  0  0  0  0  0  0  0  0  0  0
   31.2860   30.4840   36.0480 C   0  0  0  0  0  0  0  0  0  0  0  0
   32.5230   30.0850   35.5960 C   0  0  0  0  0  0  0  0  0  0  0  0
   33.6230   30.8870   35.7370 C   0  0  0  0  0  0  0  0  0  0  0  0
   36.9560   31.0380   35.1170 H   0  0  0  0  0  0  0  0  0  0  0  0
   36.6800   33.0770   36.1520 H   0  0  0  0  0  0  0  0  0  0  0  0
   34.4960   33.8410   36.9520 H   0  0  0  0  0  0  0  0  0  0  0  0
   32.2010   33.4720   37.2560 H   0  0  0  0  0  0  0  0  0  0  0  0
   30.2240   32.0690   37.0210 H   0  0  0  0  0  0  0  0  0  0  0  0
   30.4400   29.8270   35.9200 H   0  0  0  0  0  0  0  0  0  0  0  0
   32.5810   29.0910   35.1150 H   0  0  0  0  0  0  0  0  0  0  0  0
   37.1180   25.4630   32.5200 C   0  0  0  0  0  0  0  0  0  0  0  0
   36.7290   26.8380   32.5970 C   0  0  0  0  0  0  0  0  0  0  0  0
   36.8750   27.4840   33.8030 C   0  0  0  0  0  0  0  0  0  0  0  0
   37.3790   26.7490   34.8080 N   0  0  0  0  0  0  0  0  0  0  0  0
   37.7500   25.4800   34.7720 C   0  0  0  0  0  0  0  0  0  0  0  0
   37.6140   24.8120   33.5830 N   0  0  0  0  0  0  0  0  0  0  0  0
   36.9820   25.0110   31.5560 H   0  0  0  0  0  0  0  0  0  0  0  0
   36.3350   27.3480   31.7380 H   0  0  0  0  0  0  0  0  0  0  0  0
   38.3070   24.6440   35.8130 C   0  0  0  0  0  0  0  0  0  0  0  0
   37.5750   24.2800   36.9420 C   0  0  0  0  0  0  0  0  0  0  0  0
   36.5380   24.6280   37.0680 H   0  0  0  0  0  0  0  0  0  0  0  0
   38.0280   23.4940   37.9630 C   0  0  0  0  0  3  0  0  0  0  0  0
   39.3040   22.9970   37.9240 C   0  0  0  0  0  3  0  0  0  0  0  0
   40.1010   23.3050   36.8460 C   0  0  0  0  0  0  0  0  0  0  0  0
   41.3650   22.7970   36.8220 C   0  0  0  0  0  3  0  0  0  0  0  0
   42.2140   23.0630   35.7700 C   0  0  0  0  0  3  0  0  0  0  0  0
   41.7150   23.8690   34.7430 C   0  0  0  0  0  3  0  0  0  0  0  0
   40.4300   24.3510   34.8240 C   0  0  0  0  0  3  0  0  0  0  0  0
   39.5680   24.1010   35.8610 C   0  0  0  0  0  0  0  0  0  0  0  0
  1  4  1  1  0  0  0
  1  3  1  0  0  0  0
  2  1  1  0  0  0  0
  2  3  1  0  0  0  0
  3  7  1  1  0  0  0
  3  8  1  0  0  0  0
  5  2  1  0  0  0  0
  6  2  1  0  0  0  0
  8  9  2  0  0  0  0
  8 17  1  0  0  0  0
  9 10  1  0  0  0  0
 10 19  1  0  0  0  0
 10 11  2  0  0  0  0
 11 20  1  0  0  0  0
 12 11  1  0  0  0  0
 12 13  1  0  0  0  0
 13 21  1  0  0  0  0
 14 13  2  0  0  0  0
 14 22  1  0  0  0  0
 15 14  1  0  0  0  0
 16 17  1  0  0  0  0
 16 15  2  0  0  0  0
 17 12  2  0  0  0  0
 18  9  1  0  0  0  0
 23 15  1  0  0  0  0
 24 16  1  0  0  0  0
 25 26  2  0  0  0  0
 25 30  1  0  0  0  0
 26 27  1  0  0  0  0
 27  1  1  0  0  0  0
 27 28  2  0  0  0  0
 29 28  1  0  0  0  0
 29 33  1  0  0  0  0
 30 29  2  0  0  0  0
 31 25  1  0  0  0  0
 32 26  1  0  0  0  0
 33 43  2  0  0  0  0
 33 34  1  0  0  0  0
 34 35  1  0  0  0  0
 34 36  2  0  0  0  0
 37 36  1  0  0  0  0
 38 37  2  0  0  0  0
 39 38  1  0  0  0  0
 40 39  2  0  0  0  0
 41 42  2  0  0  0  0
 41 40  1  0  0  0  0
 42 43  1  0  0  0  0
 43 38  1  0  0  0  0
M  END
>  <minimizedAffinity>
-7.43173313

$$$$

 OpenBabel03272509343D

 43 48  0  0  1  0  0  0  0  0999 V2000
   37.6450   27.2760   31.9750 C   0  0  1  0  0  0  0  0  0  0  0  0
   36.9390   27.5390   30.7090 C   0  0  0  0  0  0  0  0  0  0  0  0
   36.2350   27.9290   31.9580 C   0  0  2  0  0  0  0  0  0  0  0  0
   38.3660   27.9820   32.3590 H   0  0  0  0  0  0  0  0  0  0  0  0
   37.5310   28.1440   30.0370 H   0  0  0  0  0  0  0  0  0  0  0  0
   36.6030   26.5820   30.1850 H   0  0  0  0  0  0  0  0  0  0  0  0
   35.5960   27.3950   32.6300 H   0  0  0  0  0  0  0  0  0  0  0  0
   36.1340   29.4100   32.0650 C   0  0  0  0  0  0  0  0  0  0  0  0
   36.1270   29.9890   30.7860 C   0  0  0  0  0  0  0  0  0  0  0  0
   35.9540   31.3450   30.6170 C   0  0  0  0  0  0  0  0  0  0  0  0
   35.7780   32.1830   31.7230 C   0  0  0  0  0  0  0  0  0  0  0  0
   35.7870   31.5880   32.9640 C   0  0  0  0  0  0  0  0  0  0  0  0
   35.6390   32.2990   34.1380 C   0  0  0  0  0  0  0  0  0  0  0  0
   35.6600   31.7130   35.3940 C   0  0  0  0  0  0  0  0  0  0  0  0
   35.8380   30.3440   35.4910 C   0  0  0  0  0  0  0  0  0  0  0  0
   35.9870   29.6270   34.3260 C   0  0  0  0  0  0  0  0  0  0  0  0
   35.9600   30.2450   33.1040 C   0  0  0  0  0  0  0  0  0  0  0  0
   36.2110   29.6570   29.7720 H   0  0  0  0  0  0  0  0  0  0  0  0
   35.9250   31.9430   29.7240 H   0  0  0  0  0  0  0  0  0  0  0  0
   35.6310   33.2570   31.7690 H   0  0  0  0  0  0  0  0  0  0  0  0
   35.4960   33.3740   34.1060 H   0  0  0  0  0  0  0  0  0  0  0  0
   35.5410   32.3060   36.2940 H   0  0  0  0  0  0  0  0  0  0  0  0
   35.8640   29.8240   36.4360 H   0  0  0  0  0  0  0  0  0  0  0  0
   36.1270   28.5350   34.4260 H   0  0  0  0  0  0  0  0  0  0  0  0
   37.3310   23.5380   32.2890 C   0  0  0  0  0  0  0  0  0  0  0  0
   37.3100   24.8510   31.7200 C   0  0  0  0  0  0  0  0  0  0  0  0
   37.6630   25.9100   32.5240 C   0  0  0  0  0  0  0  0  0  0  0  0
   38.0010   25.6030   33.7880 N   0  0  0  0  0  0  0  0  0  0  0  0
   38.0340   24.4050   34.3450 C   0  0  0  0  0  0  0  0  0  0  0  0
   37.6850   23.3320   33.5670 N   0  0  0  0  0  0  0  0  0  0  0  0
   37.0470   22.7520   31.6160 H   0  0  0  0  0  0  0  0  0  0  0  0
   37.0260   25.0030   30.6950 H   0  0  0  0  0  0  0  0  0  0  0  0
   38.3980   24.0130   35.6900 C   0  0  0  0  0  0  0  0  0  0  0  0
   37.6530   24.4010   36.8020 C   0  0  0  0  0  0  0  0  0  0  0  0
   36.7540   25.0260   36.6780 H   0  0  0  0  0  0  0  0  0  0  0  0
   37.9300   24.0720   38.0980 C   0  0  0  0  0  3  0  0  0  0  0  0
   39.0240   23.2970   38.3840 C   0  0  0  0  0  3  0  0  0  0  0  0
   39.8190   22.8680   37.3470 C   0  0  0  0  0  0  0  0  0  0  0  0
   40.8990   22.0940   37.6510 C   0  0  0  0  0  3  0  0  0  0  0  0
   41.7340   21.6270   36.6590 C   0  0  0  0  0  3  0  0  0  0  0  0
   41.4180   21.9830   35.3460 C   0  0  0  0  0  3  0  0  0  0  0  0
   40.3140   22.7660   35.1030 C   0  0  0  0  0  3  0  0  0  0  0  0
   39.4690   23.2430   36.0730 C   0  0  0  0  0  0  0  0  0  0  0  0
  1  4  1  1  0  0  0
  1 27  1  0  0  0  0
  2  3  1  0  0  0  0
  2  1  1  0  0  0  0
  3  1  1  0  0  0  0
  3  8  1  0  0  0  0
  3  7  1  1  0  0  0
  5  2  1  0  0  0  0
  6  2  1  0  0  0  0
  8 17  1  0  0  0  0
  9  8  2  0  0  0  0
 10  9  1  0  0  0  0
 10 11  2  0  0  0  0
 11 20  1  0  0  0  0
 11 12  1  0  0  0  0
 12 17  2  0  0  0  0
 12 13  1  0  0  0  0
 13 14  2  0  0  0  0
 14 15  1  0  0  0  0
 14 22  1  0  0  0  0
 15 23  1  0  0  0  0
 16 24  1  0  0  0  0
 16 15  2  0  0  0  0
 17 16  1  0  0  0  0
 18  9  1  0  0  0  0
 19 10  1  0  0  0  0
 21 13  1  0  0  0  0
 25 30  1  0  0  0  0
 26 25  2  0  0  0  0
 26 27  1  0  0  0  0
 27 28  2  0  0  0  0
 28 29  1  0  0  0  0
 29 33  1  0  0  0  0
 30 29  2  0  0  0  0
 31 25  1  0  0  0  0
 32 26  1  0  0  0  0
 33 43  2  0  0  0  0
 33 34  1  0  0  0  0
 34 36  2  0  0  0  0
 35 34  1  0  0  0  0
 36 37  1  0  0  0  0
 38 39  1  0  0  0  0
 38 37  2  0  0  0  0
 40 39  2  0  0  0  0
 41 40  1  0  0  0  0
 42 41  2  0  0  0  0
 42 43  1  0  0  0  0
 43 38  1  0  0  0  0
M  END
>  <minimizedAffinity>
-7.37608337

$$$$

 OpenBabel03272509343D

 43 48  0  0  1  0  0  0  0  0999 V2000
   38.5170   26.7210   32.2770 C   0  0  1  0  0  0  0  0  0  0  0  0
   39.9570   27.0260   32.2310 C   0  0  0  0  0  0  0  0  0  0  0  0
   39.3420   26.9200   33.5790 C   0  0  2  0  0  0  0  0  0  0  0  0
   38.1690   25.7010   32.2220 H   0  0  0  0  0  0  0  0  0  0  0  0
   40.5060   26.2850   31.6670 H   0  0  0  0  0  0  0  0  0  0  0  0
   40.1740   28.0710   31.8250 H   0  0  0  0  0  0  0  0  0  0  0  0
   38.8380   27.6260   34.2050 H   0  0  0  0  0  0  0  0  0  0  0  0
   39.8460   25.7170   34.2950 C   0  0  0  0  0  0  0  0  0  0  0  0
   41.1210   25.3710   33.8230 C   0  0  0  0  0  0  0  0  0  0  0  0
   41.8370   24.3400   34.3910 C   0  0  0  0  0  0  0  0  0  0  0  0
   41.3070   23.6090   35.4590 C   0  0  0  0  0  0  0  0  0  0  0  0
   40.0550   23.9710   35.9020 C   0  0  0  0  0  0  0  0  0  0  0  0
   39.4100   23.3260   36.9380 C   0  0  0  0  0  0  0  0  0  0  0  0
   38.1440   23.6730   37.3840 C   0  0  0  0  0  0  0  0  0  0  0  0
   37.4810   24.7200   36.7670 C   0  0  0  0  0  0  0  0  0  0  0  0
   38.1170   25.3690   35.7340 C   0  0  0  0  0  0  0  0  0  0  0  0
   39.3680   24.9950   35.3240 C   0  0  0  0  0  0  0  0  0  0  0  0
   41.8030   25.7140   33.0720 H   0  0  0  0  0  0  0  0  0  0  0  0
   42.8110   23.9480   34.1550 H   0  0  0  0  0  0  0  0  0  0  0  0
   41.7290   22.7790   36.0150 H   0  0  0  0  0  0  0  0  0  0  0  0
   39.8950   22.5000   37.4480 H   0  0  0  0  0  0  0  0  0  0  0  0
   37.6690   23.1410   38.2010 H   0  0  0  0  0  0  0  0  0  0  0  0
   36.4950   25.0420   37.0650 H   0  0  0  0  0  0  0  0  0  0  0  0
   37.5700   26.2030   35.2570 H   0  0  0  0  0  0  0  0  0  0  0  0
   36.6830   29.5810   30.6570 C   0  0  0  0  0  0  0  0  0  0  0  0
   37.6430   28.5420   30.8700 C   0  0  0  0  0  0  0  0  0  0  0  0
   37.5410   27.7940   32.0200 C   0  0  0  0  0  0  0  0  0  0  0  0
   36.5300   28.1160   32.8450 N   0  0  0  0  0  0  0  0  0  0  0  0
   35.6260   29.0660   32.6790 C   0  0  0  0  0  0  0  0  0  0  0  0
   35.7050   29.8270   31.5420 N   0  0  0  0  0  0  0  0  0  0  0  0
   36.8110   30.1310   29.7450 H   0  0  0  0  0  0  0  0  0  0  0  0
   38.4200   28.3540   30.1530 H   0  0  0  0  0  0  0  0  0  0  0  0
   34.5140   29.4490   33.5220 C   0  0  0  0  0  0  0  0  0  0  0  0
   33.2180   28.9890   33.2940 C   0  0  0  0  0  0  0  0  0  0  0  0
   33.0090   28.3110   32.4520 H   0  0  0  0  0  0  0  0  0  0  0  0
   32.1210   29.3030   34.0440 C   0  0  0  0  0  3  0  0  0  0  0  0
   32.2500   30.1390   35.1220 C   0  0  0  0  0  3  0  0  0  0  0  0
   33.4930   30.6430   35.4220 C   0  0  0  0  0  0  0  0  0  0  0  0
   33.6030   31.4680   36.5010 C   0  0  0  0  0  3  0  0  0  0  0  0
   34.8200   32.0040   36.8600 C   0  0  0  0  0  3  0  0  0  0  0  0
   35.9210   31.6600   36.0710 C   0  0  0  0  0  3  0  0  0  0  0  0
   35.7470   30.8210   34.9950 C   0  0  0  0  0  3  0  0  0  0  0  0
   34.5450   30.2760   34.6180 C   0  0  0  0  0  0  0  0  0  0  0  0
  1  4  1  6  0  0  0
  1  3  1  0  0  0  0
  2  1  1  0  0  0  0
  2  3  1  0  0  0  0
  3  7  1  1  0  0  0
  3  8  1  0  0  0  0
  5  2  1  0  0  0  0
  6  2  1  0  0  0  0
  8 17  1  0  0  0  0
  9  8  2  0  0  0  0
  9 10  1  0  0  0  0
 10 11  2  0  0  0  0
 11 12  1  0  0  0  0
 11 20  1  0  0  0  0
 12 13  1  0  0  0  0
 13 14  2  0  0  0  0
 13 21  1  0  0  0  0
 14 22  1  0  0  0  0
 15 23  1  0  0  0  0
 15 14  1  0  0  0  0
 16 15  2  0  0  0  0
 17 16  1  0  0  0  0
 17 12  2  0  0  0  0
 18  9  1  0  0  0  0
 19 10  1  0  0  0  0
 24 16  1  0  0  0  0
 25 26  2  0  0  0  0
 25 30  1  0  0  0  0
 26 27  1  0  0  0  0
 27  1  1  0  0  0  0
 27 28  2  0  0  0  0
 29 28  1  0  0  0  0
 29 33  1  0  0  0  0
 30 29  2  0  0  0  0
 31 25  1  0  0  0  0
 32 26  1  0  0  0  0
 33 43  1  0  0  0  0
 34 33  2  0  0  0  0
 34 36  1  0  0  0  0
 35 34  1  0  0  0  0
 36 37  2  0  0  0  0
 37 38  1  0  0  0  0
 38 39  1  0  0  0  0
 39 40  2  0  0  0  0
 41 40  1  0  0  0  0
 42 41  2  0  0  0  0
 43 42  1  0  0  0  0
 43 38  2  0  0  0  0
M  END
>  <minimizedAffinity>
-7.29922485

$$$$

 OpenBabel03272509343D

 43 48  0  0  1  0  0  0  0  0999 V2000
   36.9300   25.1970   31.3900 C   0  0  1  0  0  0  0  0  0  0  0  0
   35.5960   25.5290   30.8610 C   0  0  0  0  0  0  0  0  0  0  0  0
   36.0730   26.3320   32.0160 C   0  0  2  0  0  0  0  0  0  0  0  0
   37.8190   25.6180   30.9440 H   0  0  0  0  0  0  0  0  0  0  0  0
   35.6290   25.7580   29.8050 H   0  0  0  0  0  0  0  0  0  0  0  0
   34.8260   24.7100   31.0630 H   0  0  0  0  0  0  0  0  0  0  0  0
   36.0220   26.1850   33.0740 H   0  0  0  0  0  0  0  0  0  0  0  0
   36.3410   27.7370   31.6050 C   0  0  0  0  0  0  0  0  0  0  0  0
   36.8350   27.7720   30.2920 C   0  0  0  0  0  0  0  0  0  0  0  0
   37.0790   28.9670   29.6510 C   0  0  0  0  0  0  0  0  0  0  0  0
   36.8370   30.1830   30.2990 C   0  0  0  0  0  0  0  0  0  0  0  0
   36.3510   30.1190   31.5850 C   0  0  0  0  0  0  0  0  0  0  0  0
   36.0810   31.2410   32.3430 C   0  0  0  0  0  0  0  0  0  0  0  0
   35.6050   31.1890   33.6440 C   0  0  0  0  0  0  0  0  0  0  0  0
   35.3820   29.9530   34.2260 C   0  0  0  0  0  0  0  0  0  0  0  0
   35.6470   28.8290   33.4780 C   0  0  0  0  0  0  0  0  0  0  0  0
   36.1180   28.9240   32.1950 C   0  0  0  0  0  0  0  0  0  0  0  0
   37.1010   27.0660   29.5320 H   0  0  0  0  0  0  0  0  0  0  0  0
   37.4530   29.1720   28.6640 H   0  0  0  0  0  0  0  0  0  0  0  0
   36.9720   31.2000   29.9470 H   0  0  0  0  0  0  0  0  0  0  0  0
   36.2420   32.2290   31.9240 H   0  0  0  0  0  0  0  0  0  0  0  0
   35.4060   32.0940   34.2070 H   0  0  0  0  0  0  0  0  0  0  0  0
   35.0120   29.8410   35.2330 H   0  0  0  0  0  0  0  0  0  0  0  0
   35.4620   27.8520   33.9610 H   0  0  0  0  0  0  0  0  0  0  0  0
   36.7870   21.6800   32.7240 C   0  0  0  0  0  0  0  0  0  0  0  0
   36.6200   22.7990   31.8470 C   0  0  0  0  0  0  0  0  0  0  0  0
   37.0910   24.0220   32.2630 C   0  0  0  0  0  0  0  0  0  0  0  0
   37.6760   24.0480   33.4730 N   0  0  0  0  0  0  0  0  0  0  0  0
   37.8490   23.0370   34.3060 C   0  0  0  0  0  0  0  0  0  0  0  0
   37.3870   21.8070   33.9180 N   0  0  0  0  0  0  0  0  0  0  0  0
   36.4000   20.7530   32.3490 H   0  0  0  0  0  0  0  0  0  0  0  0
   36.1390   22.6840   30.8940 H   0  0  0  0  0  0  0  0  0  0  0  0
   38.4780   23.0020   35.6100 C   0  0  0  0  0  0  0  0  0  0  0  0
   37.8060   23.3950   36.7660 C   0  0  0  0  0  0  0  0  0  0  0  0
   36.7630   23.7460   36.7110 H   0  0  0  0  0  0  0  0  0  0  0  0
   38.3280   23.3890   38.0280 C   0  0  0  0  0  3  0  0  0  0  0  0
   39.6180   22.9710   38.2290 C   0  0  0  0  0  3  0  0  0  0  0  0
   40.3570   22.5650   37.1430 C   0  0  0  0  0  0  0  0  0  0  0  0
   41.6360   22.1490   37.3630 C   0  0  0  0  0  3  0  0  0  0  0  0
   42.4300   21.7250   36.3200 C   0  0  0  0  0  3  0  0  0  0  0  0
   41.8620   21.7440   35.0430 C   0  0  0  0  0  3  0  0  0  0  0  0
   40.5660   22.1740   34.8850 C   0  0  0  0  0  3  0  0  0  0  0  0
   39.7570   22.6010   35.9080 C   0  0  0  0  0  0  0  0  0  0  0  0
  1  4  1  6  0  0  0
  1  3  1  0  0  0  0
  1 27  1  0  0  0  0
  2  6  1  0  0  0  0
  2  1  1  0  0  0  0
  2  3  1  0  0  0  0
  3  7  1  1  0  0  0
  5  2  1  0  0  0  0
  8  3  1  0  0  0  0
  8 17  1  0  0  0  0
  9  8  2  0  0  0  0
 10  9  1  0  0  0  0
 10 11  2  0  0  0  0
 11 12  1  0  0  0  0
 12 17  2  0  0  0  0
 12 13  1  0  0  0  0
 13 14  2  0  0  0  0
 14 22  1  0  0  0  0
 14 15  1  0  0  0  0
 15 23  1  0  0  0  0
 16 24  1  0  0  0  0
 16 15  2  0  0  0  0
 17 16  1  0  0  0  0
 18  9  1  0  0  0  0
 19 10  1  0  0  0  0
 20 11  1  0  0  0  0
 21 13  1  0  0  0  0
 25 30  1  0  0  0  0
 26 27  1  0  0  0  0
 26 25  2  0  0  0  0
 27 28  2  0  0  0  0
 28 29  1  0  0  0  0
 29 33  1  0  0  0  0
 30 29  2  0  0  0  0
 31 25  1  0  0  0  0
 32 26  1  0  0  0  0
 33 43  2  0  0  0  0
 33 34  1  0  0  0  0
 34 36  2  0  0  0  0
 35 34  1  0  0  0  0
 36 37  1  0  0  0  0
 38 39  1  0  0  0  0
 38 37  2  0  0  0  0
 40 39  2  0  0  0  0
 41 40  1  0  0  0  0
 42 41  2  0  0  0  0
 42 43  1  0  0  0  0
 43 38  1  0  0  0  0
M  END
>  <minimizedAffinity>
-7.2508111

$$$$

 OpenBabel03272509343D

 43 48  0  0  1  0  0  0  0  0999 V2000
   37.4860   26.0380   35.3380 C   0  0  1  0  0  0  0  0  0  0  0  0
   38.3550   27.2090   35.5460 C   0  0  0  0  0  0  0  0  0  0  0  0
   38.0450   26.8520   34.1380 C   0  0  2  0  0  0  0  0  0  0  0  0
   36.4120   26.1380   35.3740 H   0  0  0  0  0  0  0  0  0  0  0  0
   37.8900   27.9460   36.1850 H   0  0  0  0  0  0  0  0  0  0  0  0
   39.3840   26.9270   35.9530 H   0  0  0  0  0  0  0  0  0  0  0  0
   38.4990   26.1770   33.4420 H   0  0  0  0  0  0  0  0  0  0  0  0
   37.1780   27.8850   33.5110 C   0  0  0  0  0  0  0  0  0  0  0  0
   36.3760   28.5010   34.4850 C   0  0  0  0  0  0  0  0  0  0  0  0
   35.5470   29.5540   34.1660 C   0  0  0  0  0  0  0  0  0  0  0  0
   35.4850   30.0390   32.8560 C   0  0  0  0  0  0  0  0  0  0  0  0
   36.2820   29.4170   31.9220 C   0  0  0  0  0  0  0  0  0  0  0  0
   36.3070   29.7860   30.5920 C   0  0  0  0  0  0  0  0  0  0  0  0
   37.0960   29.1590   29.6400 C   0  0  0  0  0  0  0  0  0  0  0  0
   37.9070   28.1070   30.0300 C   0  0  0  0  0  0  0  0  0  0  0  0
   37.8880   27.7330   31.3540 C   0  0  0  0  0  0  0  0  0  0  0  0
   37.0930   28.3790   32.2630 C   0  0  0  0  0  0  0  0  0  0  0  0
   36.1990   28.4020   35.5360 H   0  0  0  0  0  0  0  0  0  0  0  0
   34.8770   30.1300   34.7790 H   0  0  0  0  0  0  0  0  0  0  0  0
   34.8950   30.8480   32.4380 H   0  0  0  0  0  0  0  0  0  0  0  0
   35.6870   30.6070   30.2450 H   0  0  0  0  0  0  0  0  0  0  0  0
   37.0880   29.4770   28.6040 H   0  0  0  0  0  0  0  0  0  0  0  0
   38.5450   27.5760   29.3410 H   0  0  0  0  0  0  0  0  0  0  0  0
   38.5430   26.8910   31.6440 H   0  0  0  0  0  0  0  0  0  0  0  0
   39.1400   22.9590   36.7330 C   0  0  0  0  0  0  0  0  0  0  0  0
   38.5910   24.2780   36.6560 C   0  0  0  0  0  0  0  0  0  0  0  0
   38.0540   24.6850   35.4570 C   0  0  0  0  0  0  0  0  0  0  0  0
   38.0960   23.7870   34.4570 N   0  0  0  0  0  0  0  0  0  0  0  0
   38.5930   22.5630   34.4940 C   0  0  0  0  0  0  0  0  0  0  0  0
   39.1360   22.1320   35.6760 N   0  0  0  0  0  0  0  0  0  0  0  0
   39.5450   22.6960   37.6910 H   0  0  0  0  0  0  0  0  0  0  0  0
   38.5990   24.9290   37.5100 H   0  0  0  0  0  0  0  0  0  0  0  0
   38.6560   21.5530   33.4590 C   0  0  0  0  0  0  0  0  0  0  0  0
   39.8560   21.1920   32.8490 C   0  0  0  0  0  0  0  0  0  0  0  0
   40.7990   21.6770   33.1470 H   0  0  0  0  0  0  0  0  0  0  0  0
   39.9980   20.2510   31.8700 C   0  0  0  0  0  3  0  0  0  0  0  0
   38.8960   19.5740   31.4130 C   0  0  0  0  0  3  0  0  0  0  0  0
   37.6680   19.8660   31.9570 C   0  0  0  0  0  0  0  0  0  0  0  0
   36.5860   19.1800   31.4930 C   0  0  0  0  0  3  0  0  0  0  0  0
   35.3270   19.4200   31.9990 C   0  0  0  0  0  3  0  0  0  0  0  0
   35.2220   20.3890   33.0000 C   0  0  0  0  0  3  0  0  0  0  0  0
   36.3500   21.0470   33.4280 C   0  0  0  0  0  3  0  0  0  0  0  0
   37.6130   20.8260   32.9390 C   0  0  0  0  0  0  0  0  0  0  0  0
  1  4  1  1  0  0  0
  1 27  1  0  0  0  0
  1  2  1  0  0  0  0
  2  6  1  0  0  0  0
  2  5  1  0  0  0  0
  3  7  1  6  0  0  0
  3  1  1  0  0  0  0
  3  2  1  0  0  0  0
  8  3  1  0  0  0  0
  8  9  1  0  0  0  0
  9 18  1  0  0  0  0
 10  9  2  0  0  0  0
 10 19  1  0  0  0  0
 11 10  1  0  0  0  0
 12 17  1  0  0  0  0
 12 11  2  0  0  0  0
 13 12  1  0  0  0  0
 14 15  1  0  0  0  0
 14 13  2  0  0  0  0
 15 16  2  0  0  0  0
 16 24  1  0  0  0  0
 16 17  1  0  0  0  0
 17  8  2  0  0  0  0
 20 11  1  0  0  0  0
 21 13  1  0  0  0  0
 22 14  1  0  0  0  0
 23 15  1  0  0  0  0
 25 31  1  0  0  0  0
 26 25  1  0  0  0  0
 26 32  1  0  0  0  0
 27 26  2  0  0  0  0
 28 29  2  0  0  0  0
 28 27  1  0  0  0  0
 29 30  1  0  0  0  0
 30 25  2  0  0  0  0
 33 29  1  0  0  0  0
 34 35  1  0  0  0  0
 34 33  2  0  0  0  0
 36 34  1  0  0  0  0
 37 36  2  0  0  0  0
 37 38  1  0  0  0  0
 38 43  1  0  0  0  0
 39 38  2  0  0  0  0
 39 40  1  0  0  0  0
 40 41  2  0  0  0  0
 41 42  1  0  0  0  0
 43 42  2  0  0  0  0
 43 33  1  0  0  0  0
M  END
>  <minimizedAffinity>
-7.24180651

$$$$

 OpenBabel03272509343D

 43 48  0  0  1  0  0  0  0  0999 V2000
   38.5320   26.2270   35.4670 C   0  0  1  0  0  0  0  0  0  0  0  0
   37.7680   25.1290   36.0840 C   0  0  0  0  0  0  0  0  0  0  0  0
   38.8030   24.7440   35.0900 C   0  0  2  0  0  0  0  0  0  0  0  0
   39.3990   26.6380   35.9620 H   0  0  0  0  0  0  0  0  0  0  0  0
   37.8280   25.1540   37.1620 H   0  0  0  0  0  0  0  0  0  0  0  0
   36.6760   25.1110   35.7500 H   0  0  0  0  0  0  0  0  0  0  0  0
   38.7870   24.6490   34.0240 H   0  0  0  0  0  0  0  0  0  0  0  0
   39.9300   24.0340   35.7520 C   0  0  0  0  0  0  0  0  0  0  0  0
   39.4380   23.0690   36.6440 C   0  0  0  0  0  0  0  0  0  0  0  0
   40.2870   22.2180   37.3160 C   0  0  0  0  0  0  0  0  0  0  0  0
   41.6710   22.2960   37.1240 C   0  0  0  0  0  0  0  0  0  0  0  0
   42.1250   23.2510   36.2430 C   0  0  0  0  0  0  0  0  0  0  0  0
   43.4650   23.4450   35.9720 C   0  0  0  0  0  0  0  0  0  0  0  0
   43.9350   24.4120   35.0970 C   0  0  0  0  0  0  0  0  0  0  0  0
   43.0250   25.2330   34.4550 C   0  0  0  0  0  0  0  0  0  0  0  0
   41.6880   25.0470   34.7190 C   0  0  0  0  0  0  0  0  0  0  0  0
   41.2640   24.0790   35.5910 C   0  0  0  0  0  0  0  0  0  0  0  0
   38.4830   22.7360   36.9960 H   0  0  0  0  0  0  0  0  0  0  0  0
   40.0820   21.4350   38.0240 H   0  0  0  0  0  0  0  0  0  0  0  0
   42.4710   21.7130   37.5670 H   0  0  0  0  0  0  0  0  0  0  0  0
   44.2110   22.8220   36.4540 H   0  0  0  0  0  0  0  0  0  0  0  0
   44.9960   24.5340   34.9110 H   0  0  0  0  0  0  0  0  0  0  0  0
   43.3230   26.0050   33.7620 H   0  0  0  0  0  0  0  0  0  0  0  0
   40.9770   25.7120   34.1950 H   0  0  0  0  0  0  0  0  0  0  0  0
   37.8870   27.8070   32.1120 C   0  0  0  0  0  0  0  0  0  0  0  0
   38.5040   27.0220   33.1380 C   0  0  0  0  0  0  0  0  0  0  0  0
   37.9210   27.0160   34.3840 C   0  0  0  0  0  0  0  0  0  0  0  0
   36.8090   27.7590   34.5190 N   0  0  0  0  0  0  0  0  0  0  0  0
   36.2130   28.4920   33.5950 C   0  0  0  0  0  0  0  0  0  0  0  0
   36.7730   28.5180   32.3450 N   0  0  0  0  0  0  0  0  0  0  0  0
   38.3840   27.7740   31.1620 H   0  0  0  0  0  0  0  0  0  0  0  0
   39.3940   26.4570   32.9390 H   0  0  0  0  0  0  0  0  0  0  0  0
   35.0140   29.2990   33.6780 C   0  0  0  0  0  0  0  0  0  0  0  0
   33.8880   29.0340   32.9010 C   0  0  0  0  0  0  0  0  0  0  0  0
   33.8860   28.1890   32.1950 H   0  0  0  0  0  0  0  0  0  0  0  0
   32.7220   29.7450   32.9230 C   0  0  0  0  0  3  0  0  0  0  0  0
   32.5990   30.8220   33.7630 C   0  0  0  0  0  3  0  0  0  0  0  0
   33.6620   31.1590   34.5670 C   0  0  0  0  0  0  0  0  0  0  0  0
   33.5190   32.2290   35.3980 C   0  0  0  0  0  3  0  0  0  0  0  0
   34.5430   32.6170   36.2330 C   0  0  0  0  0  3  0  0  0  0  0  0
   35.7200   31.8640   36.1840 C   0  0  0  0  0  3  0  0  0  0  0  0
   35.8040   30.7950   35.3250 C   0  0  0  0  0  3  0  0  0  0  0  0
   34.7980   30.3900   34.4840 C   0  0  0  0  0  0  0  0  0  0  0  0
  1  4  1  1  0  0  0
  1  2  1  0  0  0  0
  2  5  1  0  0  0  0
  3  7  1  6  0  0  0
  3  1  1  0  0  0  0
  3  8  1  0  0  0  0
  3  2  1  0  0  0  0
  6  2  1  0  0  0  0
  8  9  1  0  0  0  0
  9 18  1  0  0  0  0
  9 10  2  0  0  0  0
 10 19  1  0  0  0  0
 11 10  1  0  0  0  0
 11 20  1  0  0  0  0
 12 11  2  0  0  0  0
 13 12  1  0  0  0  0
 13 21  1  0  0  0  0
 14 13  2  0  0  0  0
 15 16  2  0  0  0  0
 15 14  1  0  0  0  0
 16 17  1  0  0  0  0
 17  8  2  0  0  0  0
 17 12  1  0  0  0  0
 22 14  1  0  0  0  0
 23 15  1  0  0  0  0
 24 16  1  0  0  0  0
 25 30  2  0  0  0  0
 25 26  1  0  0  0  0
 26 27  2  0  0  0  0
 27 28  1  0  0  0  0
 27  1  1  0  0  0  0
 29 33  1  0  0  0  0
 29 28  2  0  0  0  0
 30 29  1  0  0  0  0
 31 25  1  0  0  0  0
 32 26  1  0  0  0  0
 33 43  1  0  0  0  0
 34 36  1  0  0  0  0
 34 33  2  0  0  0  0
 35 34  1  0  0  0  0
 36 37  2  0  0  0  0
 37 38  1  0  0  0  0
 38 39  1  0  0  0  0
 39 40  2  0  0  0  0
 41 40  1  0  0  0  0
 42 41  2  0  0  0  0
 43 38  2  0  0  0  0
 43 42  1  0  0  0  0
M  END
>  <minimizedAffinity>
-7.20307302

$$$$
