
     RDKit          3D

 29 31  0  0  0  0  0  0  0  0999 V2000
   38.3049   31.2362   50.1169 C   0  0  0  0  0  0  0  0  0  0  0  0
   38.2840   31.5945   48.7705 C   0  0  0  0  0  0  0  0  0  0  0  0
   37.2065   31.2226   47.9853 C   0  0  0  0  0  0  0  0  0  0  0  0
   36.2345   30.5130   48.6237 N   0  0  0  0  0  0  0  0  0  0  0  0
   36.2563   30.1710   49.9070 C   0  0  0  0  0  0  0  0  0  0  0  0
   37.2974   30.5423   50.6333 N   0  0  0  0  0  0  0  0  0  0  0  0
   35.1216   29.3873   50.4571 C   0  0  0  0  0  0  0  0  0  0  0  0
   35.2716   29.1198   51.8067 F   0  0  0  0  0  0  0  0  0  0  0  0
   33.9167   30.0507   50.2926 F   0  0  0  0  0  0  0  0  0  0  0  0
   34.9556   28.1745   49.8110 F   0  0  0  0  0  0  0  0  0  0  0  0
   39.1454   31.5283   50.7308 H   0  0  0  0  0  0  0  0  0  0  0  0
   39.1416   32.1104   48.4043 H   0  0  0  0  0  0  0  0  0  0  0  0
   37.0131   31.4217   46.5704 C   0  0  0  0  0  0  0  0  0  0  0  0
   35.7128   31.7459   46.1638 C   0  0  0  0  0  0  0  0  0  0  0  0
   34.9147   31.8263   46.8924 H   0  0  0  0  0  0  0  0  0  0  0  0
   35.3282   31.9830   44.8777 C   0  0  0  0  0  0  0  0  0  0  0  0
   36.2590   31.9098   43.8664 C   0  0  0  0  0  0  0  0  0  0  0  0
   37.5455   31.6005   44.2005 C   0  0  0  0  0  0  0  0  0  0  0  0
   38.5085   31.5523   43.2191 C   0  0  0  0  0  0  0  0  0  0  0  0
   39.8387   31.2779   43.5098 C   0  0  0  0  0  0  0  0  0  0  0  0
   40.1471   31.0562   44.8379 C   0  0  0  0  0  0  0  0  0  0  0  0
   39.1739   31.1097   45.7838 C   0  0  0  0  0  0  0  0  0  0  0  0
   37.8758   31.3729   45.5071 C   0  0  0  0  0  0  0  0  0  0  0  0
   34.3222   32.2280   44.6041 H   0  0  0  0  0  0  0  0  0  0  0  0
   35.9542   32.0958   42.8488 H   0  0  0  0  0  0  0  0  0  0  0  0
   38.2480   31.7301   42.1791 H   0  0  0  0  0  0  0  0  0  0  0  0
   40.5593   31.2470   42.7283 H   0  0  0  0  0  0  0  0  0  0  0  0
   41.1974   30.8428   45.0535 H   0  0  0  0  0  0  0  0  0  0  0  0
   39.5212   30.9665   46.7732 H   0  0  0  0  0  0  0  0  0  0  0  0
  1  6  2  0
  2  1  1  0
  3  4  1  0
  3  2  2  0
  4  5  2  0
  5  7  1  0
  5  6  1  0
  7  8  1  0
  9  7  1  0
 10  7  1  0
  1 11  1  0
  2 12  1  0
 13 14  2  0
 14 15  1  0
 14 16  1  0
 16 17  2  0
 17 18  1  0
 18 19  2  0
 19 20  1  0
 20 21  2  0
 21 22  1  0
 22 23  2  0
 23 13  1  0
 23 18  1  0
 16 24  1  0
 17 25  1  0
 19 26  1  0
 20 27  1  0
 21 28  1  0
 22 29  1  0
  3 13  1  0
M  ISO  3  11  14  12  14  15  15
M  END
>  <DihAtoms>  (1) 
3,2,12,13

>  <DihDeg>  (1) 
-32.813208269965244

$$$$
