
 OpenBabel03262521503D

 34 37  0  0  1  0  0  0  0  0999 V2000
   37.0830   22.4440   31.2730 C   0  0  0  0  0  0  0  0  0  0  0  0
   35.7960   22.8760   31.5830 C   0  0  0  0  0  0  0  0  0  0  0  0
   35.5360   24.2380   31.4290 C   0  0  0  0  0  0  0  0  0  0  0  0
   36.5490   25.0170   30.9950 N   0  0  0  0  0  0  0  0  0  0  0  0
   37.7750   24.5850   30.7040 C   0  0  0  0  0  0  0  0  0  0  0  0
   38.0470   23.2820   30.8440 N   0  0  0  0  0  0  0  0  0  0  0  0
   38.7490   25.4870   30.2650 N   0  0  0  0  0  0  0  0  0  0  0  0
   39.8350   25.0490   29.3660 C   0  0  0  0  0  0  0  0  0  0  0  0
   39.8840   25.9170   28.1770 C   0  0  0  0  0  0  0  0  0  0  0  0
   39.1870   27.1230   28.2170 N   0  0  0  0  0  0  0  0  0  0  0  0
   38.8360   27.7340   29.4240 C   0  0  0  0  0  0  0  0  0  0  0  0
   38.7890   26.8620   30.6470 C   0  0  1  0  0  0  0  0  0  0  0  0
   37.3130   21.3800   31.3860 H   0  0  0  0  0  0  0  0  0  0  0  0
   35.0070   22.2220   31.9290 H   0  0  0  0  0  0  0  0  0  0  0  0
   34.5600   24.6850   31.6430 H   0  0  0  0  0  0  0  0  0  0  0  0
   39.7690   23.9670   29.1890 H   0  0  0  0  0  0  0  0  0  0  0  0
   40.7580   25.1950   30.0010 H   0  0  0  0  0  0  0  0  0  0  0  0
   39.5790   25.3080   27.2850 H   0  0  0  0  0  0  0  0  0  0  0  0
   40.9720   26.1390   27.9650 H   0  0  0  0  0  0  0  0  0  0  0  0
   39.6580   27.8230   27.5740 H   0  0  0  0  0  0  0  0  0  0  0  0
   37.8100   28.1790   29.2820 H   0  0  0  0  0  0  0  0  0  0  0  0
   39.4690   28.6260   29.6040 H   0  0  0  0  0  0  0  0  0  0  0  0
   39.8650   26.9680   31.0370 H   0  0  0  0  0  0  0  0  0  0  0  0
   37.9290   27.3380   31.7010 C   0  0  0  0  0  0  0  0  0  0  0  0
   36.7310   27.9740   31.3360 C   0  0  0  0  0  0  0  0  0  0  0  0
   36.3610   28.1220   30.3310 H   0  0  0  0  0  0  0  0  0  0  0  0
   35.8530   28.5130   32.2370 C   0  0  0  0  0  3  0  0  0  0  0  0
   36.1220   28.4510   33.6040 C   0  0  0  0  0  3  0  0  0  0  0  0
   37.2770   27.8420   34.0310 C   0  0  0  0  0  0  0  0  0  0  0  0
   37.5860   27.7480   35.3720 C   0  0  0  0  0  3  0  0  0  0  0  0
   38.7410   27.1330   35.8260 C   0  0  0  0  0  3  0  0  0  0  0  0
   39.5730   26.6130   34.8480 C   0  0  0  0  0  3  0  0  0  0  0  0
   39.2610   26.7090   33.5100 C   0  0  0  0  0  3  0  0  0  0  0  0
   38.1110   27.3230   33.0670 C   0  0  0  0  0  0  0  0  0  0  0  0
  1 13  1  0  0  0  0
  1  2  1  0  0  0  0
  2 14  1  0  0  0  0
  3  2  2  0  0  0  0
  3 15  1  0  0  0  0
  4  3  1  0  0  0  0
  5  6  1  0  0  0  0
  5  4  2  0  0  0  0
  6  1  2  0  0  0  0
  7 12  1  0  0  0  0
  7  5  1  0  0  0  0
  8 17  1  0  0  0  0
  8  7  1  0  0  0  0
  9 10  1  0  0  0  0
  9  8  1  0  0  0  0
 10 11  1  0  0  0  0
 11 22  1  0  0  0  0
 11 12  1  0  0  0  0
 12 23  1  1  0  0  0
 12 24  1  0  0  0  0
 16  8  1  0  0  0  0
 18  9  1  0  0  0  0
 19  9  1  0  0  0  0
 20 10  1  0  0  0  0
 21 11  1  0  0  0  0
 24 34  1  0  0  0  0
 25 24  2  0  0  0  0
 25 27  1  0  0  0  0
 26 25  1  0  0  0  0
 27 28  2  0  0  0  0
 28 29  1  0  0  0  0
 29 30  1  0  0  0  0
 30 31  2  0  0  0  0
 32 31  1  0  0  0  0
 33 32  2  0  0  0  0
 34 33  1  0  0  0  0
 34 29  2  0  0  0  0
M  END
>  <minimizedAffinity>
-6.25210953

$$$$

 OpenBabel03262521503D

 34 37  0  0  1  0  0  0  0  0999 V2000
   37.1550   22.4950   31.1200 C   0  0  0  0  0  0  0  0  0  0  0  0
   37.1510   21.5200   32.1150 C   0  0  0  0  0  0  0  0  0  0  0  0
   37.4200   21.9470   33.4150 C   0  0  0  0  0  0  0  0  0  0  0  0
   37.6580   23.2630   33.5980 N   0  0  0  0  0  0  0  0  0  0  0  0
   37.6580   24.1810   32.6330 C   0  0  0  0  0  0  0  0  0  0  0  0
   37.4030   23.7940   31.3770 N   0  0  0  0  0  0  0  0  0  0  0  0
   37.9240   25.5190   32.9400 N   0  0  0  0  0  0  0  0  0  0  0  0
   37.3440   26.6100   32.1320 C   0  0  0  0  0  0  0  0  0  0  0  0
   36.6360   27.5620   33.0050 C   0  0  0  0  0  0  0  0  0  0  0  0
   36.8710   27.4920   34.3770 N   0  0  0  0  0  0  0  0  0  0  0  0
   38.0260   26.9040   34.8990 C   0  0  0  0  0  0  0  0  0  0  0  0
   38.7630   25.9370   34.0170 C   0  0  1  0  0  0  0  0  0  0  0  0
   36.9470   22.1850   30.0910 H   0  0  0  0  0  0  0  0  0  0  0  0
   36.9550   20.4720   31.9310 H   0  0  0  0  0  0  0  0  0  0  0  0
   37.4420   21.2670   34.2720 H   0  0  0  0  0  0  0  0  0  0  0  0
   36.7790   26.1980   31.2850 H   0  0  0  0  0  0  0  0  0  0  0  0
   38.2580   27.0960   31.6770 H   0  0  0  0  0  0  0  0  0  0  0  0
   35.5370   27.4900   32.7840 H   0  0  0  0  0  0  0  0  0  0  0  0
   36.8930   28.6040   32.6500 H   0  0  0  0  0  0  0  0  0  0  0  0
   36.7200   28.4490   34.8090 H   0  0  0  0  0  0  0  0  0  0  0  0
   37.7200   26.3500   35.8320 H   0  0  0  0  0  0  0  0  0  0  0  0
   38.7150   27.6810   35.2880 H   0  0  0  0  0  0  0  0  0  0  0  0
   39.5000   26.6390   33.4840 H   0  0  0  0  0  0  0  0  0  0  0  0
   39.5680   24.9650   34.7160 C   0  0  0  0  0  0  0  0  0  0  0  0
   40.7320   24.4990   34.0840 C   0  0  0  0  0  0  0  0  0  0  0  0
   41.1160   24.8180   33.1250 H   0  0  0  0  0  0  0  0  0  0  0  0
   41.5540   23.5430   34.6180 C   0  0  0  0  0  3  0  0  0  0  0  0
   41.2570   22.9720   35.8550 C   0  0  0  0  0  3  0  0  0  0  0  0
   40.1320   23.3830   36.5280 C   0  0  0  0  0  0  0  0  0  0  0  0
   39.7980   22.8540   37.7580 C   0  0  0  0  0  3  0  0  0  0  0  0
   38.6730   23.2580   38.4570 C   0  0  0  0  0  3  0  0  0  0  0  0
   37.8980   24.2300   37.8470 C   0  0  0  0  0  3  0  0  0  0  0  0
   38.2340   24.7550   36.6180 C   0  0  0  0  0  3  0  0  0  0  0  0
   39.3540   24.3480   35.9280 C   0  0  0  0  0  0  0  0  0  0  0  0
  1  6  2  0  0  0  0
  1  2  1  0  0  0  0
  2  3  2  0  0  0  0
  3  4  1  0  0  0  0
  3 15  1  0  0  0  0
  5  7  1  0  0  0  0
  5  4  2  0  0  0  0
  6  5  1  0  0  0  0
  7 12  1  0  0  0  0
  8  7  1  0  0  0  0
  8  9  1  0  0  0  0
  9 10  1  0  0  0  0
 10 20  1  0  0  0  0
 10 11  1  0  0  0  0
 11 22  1  0  0  0  0
 11 21  1  0  0  0  0
 12 23  1  6  0  0  0
 12 24  1  0  0  0  0
 12 11  1  0  0  0  0
 13  1  1  0  0  0  0
 14  2  1  0  0  0  0
 16  8  1  0  0  0  0
 17  8  1  0  0  0  0
 18  9  1  0  0  0  0
 19  9  1  0  0  0  0
 24 34  1  0  0  0  0
 25 27  1  0  0  0  0
 25 24  2  0  0  0  0
 26 25  1  0  0  0  0
 27 28  2  0  0  0  0
 28 29  1  0  0  0  0
 29 30  1  0  0  0  0
 30 31  2  0  0  0  0
 32 31  1  0  0  0  0
 33 32  2  0  0  0  0
 34 29  2  0  0  0  0
 34 33  1  0  0  0  0
M  END
>  <minimizedAffinity>
-5.84720612

$$$$

 OpenBabel03262521503D

 34 37  0  0  1  0  0  0  0  0999 V2000
   43.1590   24.5300   33.4020 C   0  0  0  0  0  0  0  0  0  0  0  0
   43.0210   25.9130   33.4880 C   0  0  0  0  0  0  0  0  0  0  0  0
   42.0020   26.3940   34.3100 C   0  0  0  0  0  0  0  0  0  0  0  0
   41.2410   25.4820   34.9500 N   0  0  0  0  0  0  0  0  0  0  0  0
   41.3870   24.1610   34.8550 C   0  0  0  0  0  0  0  0  0  0  0  0
   42.3590   23.6780   34.0710 N   0  0  0  0  0  0  0  0  0  0  0  0
   40.5340   23.3090   35.5620 N   0  0  0  0  0  0  0  0  0  0  0  0
   40.9920   21.9780   36.0080 C   0  0  0  0  0  0  0  0  0  0  0  0
   40.7610   21.8240   37.4540 C   0  0  0  0  0  0  0  0  0  0  0  0
   39.9140   22.7360   38.0830 N   0  0  0  0  0  0  0  0  0  0  0  0
   38.9630   23.4720   37.3710 C   0  0  0  0  0  0  0  0  0  0  0  0
   39.1830   23.6310   35.8930 C   0  0  1  0  0  0  0  0  0  0  0  0
   43.9520   24.1280   32.7620 H   0  0  0  0  0  0  0  0  0  0  0  0
   43.6520   26.6160   32.9590 H   0  0  0  0  0  0  0  0  0  0  0  0
   41.8040   27.4610   34.4510 H   0  0  0  0  0  0  0  0  0  0  0  0
   42.0110   21.7860   35.6450 H   0  0  0  0  0  0  0  0  0  0  0  0
   40.3270   21.2770   35.4240 H   0  0  0  0  0  0  0  0  0  0  0  0
   41.7580   21.7860   37.9680 H   0  0  0  0  0  0  0  0  0  0  0  0
   40.3550   20.7830   37.6230 H   0  0  0  0  0  0  0  0  0  0  0  0
   39.4650   22.2750   38.9260 H   0  0  0  0  0  0  0  0  0  0  0  0
   38.9390   24.5040   37.8250 H   0  0  0  0  0  0  0  0  0  0  0  0
   37.9440   23.0880   37.5750 H   0  0  0  0  0  0  0  0  0  0  0  0
   38.6150   22.7200   35.4850 H   0  0  0  0  0  0  0  0  0  0  0  0
   38.5590   24.7910   35.3050 C   0  0  0  0  0  0  0  0  0  0  0  0
   38.5090   25.9690   36.0700 C   0  0  0  0  0  0  0  0  0  0  0  0
   38.9210   26.1120   37.0580 H   0  0  0  0  0  0  0  0  0  0  0  0
   37.9020   27.1210   35.6480 C   0  0  0  0  0  3  0  0  0  0  0  0
   37.2880   27.1750   34.3980 C   0  0  0  0  0  3  0  0  0  0  0  0
   37.3010   26.0580   33.5980 C   0  0  0  0  0  0  0  0  0  0  0  0
   36.7130   26.0620   32.3490 C   0  0  0  0  0  3  0  0  0  0  0  0
   36.7200   24.9500   31.5240 C   0  0  0  0  0  3  0  0  0  0  0  0
   37.3560   23.8280   32.0260 C   0  0  0  0  0  3  0  0  0  0  0  0
   37.9410   23.8270   33.2730 C   0  0  0  0  0  3  0  0  0  0  0  0
   37.9300   24.9370   34.0890 C   0  0  0  0  0  0  0  0  0  0  0  0
  1  2  2  0  0  0  0
  1  6  1  0  0  0  0
  2  3  1  0  0  0  0
  3 15  1  0  0  0  0
  3  4  2  0  0  0  0
  5  4  1  0  0  0  0
  5  7  1  0  0  0  0
  6  5  2  0  0  0  0
  7 12  1  0  0  0  0
  7  8  1  0  0  0  0
  8  9  1  0  0  0  0
  9 19  1  0  0  0  0
  9 18  1  0  0  0  0
  9 10  1  0  0  0  0
 10 20  1  0  0  0  0
 11 22  1  0  0  0  0
 11 21  1  0  0  0  0
 11 10  1  0  0  0  0
 12 23  1  6  0  0  0
 12 11  1  0  0  0  0
 13  1  1  0  0  0  0
 14  2  1  0  0  0  0
 16  8  1  0  0  0  0
 17  8  1  0  0  0  0
 24 12  1  0  0  0  0
 24 25  1  0  0  0  0
 25 26  1  0  0  0  0
 27 25  2  0  0  0  0
 28 27  1  0  0  0  0
 29 34  1  0  0  0  0
 29 28  2  0  0  0  0
 30 29  1  0  0  0  0
 31 32  1  0  0  0  0
 31 30  2  0  0  0  0
 32 33  2  0  0  0  0
 33 34  1  0  0  0  0
 34 24  2  0  0  0  0
M  END
>  <minimizedAffinity>
-5.81444597

$$$$

 OpenBabel03262521503D

 34 37  0  0  1  0  0  0  0  0999 V2000
   37.9250   27.2820   35.6390 C   0  0  0  0  0  0  0  0  0  0  0  0
   39.2340   26.8860   35.3760 C   0  0  0  0  0  0  0  0  0  0  0  0
   39.6220   26.8450   34.0360 C   0  0  0  0  0  0  0  0  0  0  0  0
   38.7000   27.1920   33.1140 N   0  0  0  0  0  0  0  0  0  0  0  0
   37.4510   27.5680   33.3850 C   0  0  0  0  0  0  0  0  0  0  0  0
   37.0570   27.6150   34.6630 N   0  0  0  0  0  0  0  0  0  0  0  0
   36.5790   27.9020   32.3430 N   0  0  0  0  0  0  0  0  0  0  0  0
   35.4910   28.8780   32.5510 C   0  0  0  0  0  0  0  0  0  0  0  0
   35.5640   29.9380   31.5300 C   0  0  0  0  0  0  0  0  0  0  0  0
   36.3660   29.7160   30.4130 N   0  0  0  0  0  0  0  0  0  0  0  0
   36.7260   28.4280   30.0060 C   0  0  0  0  0  0  0  0  0  0  0  0
   36.6500   27.3360   31.0350 C   0  0  1  0  0  0  0  0  0  0  0  0
   37.5960   27.3220   36.6820 H   0  0  0  0  0  0  0  0  0  0  0  0
   39.9470   26.6140   36.1430 H   0  0  0  0  0  0  0  0  0  0  0  0
   40.6250   26.5480   33.7160 H   0  0  0  0  0  0  0  0  0  0  0  0
   35.4650   29.2010   33.6010 H   0  0  0  0  0  0  0  0  0  0  0  0
   34.5630   28.2520   32.4050 H   0  0  0  0  0  0  0  0  0  0  0  0
   35.8460   30.8970   32.0400 H   0  0  0  0  0  0  0  0  0  0  0  0
   34.5090   30.1430   31.1800 H   0  0  0  0  0  0  0  0  0  0  0  0
   35.9840   30.2670   29.5900 H   0  0  0  0  0  0  0  0  0  0  0  0
   37.7930   28.4830   29.6450 H   0  0  0  0  0  0  0  0  0  0  0  0
   36.1710   28.1420   29.0900 H   0  0  0  0  0  0  0  0  0  0  0  0
   35.5750   26.9610   30.8810 H   0  0  0  0  0  0  0  0  0  0  0  0
   37.5110   26.2060   30.7890 C   0  0  0  0  0  0  0  0  0  0  0  0
   38.7910   26.4550   30.2670 C   0  0  0  0  0  0  0  0  0  0  0  0
   39.2210   27.4240   30.0540 H   0  0  0  0  0  0  0  0  0  0  0  0
   39.6830   25.4700   29.9440 C   0  0  0  0  0  3  0  0  0  0  0  0
   39.3460   24.1290   30.1260 C   0  0  0  0  0  3  0  0  0  0  0  0
   38.1090   23.8140   30.6330 C   0  0  0  0  0  0  0  0  0  0  0  0
   37.7300   22.5030   30.8380 C   0  0  0  0  0  3  0  0  0  0  0  0
   36.4910   22.1620   31.3550 C   0  0  0  0  0  3  0  0  0  0  0  0
   35.6490   23.2200   31.6560 C   0  0  0  0  0  3  0  0  0  0  0  0
   36.0320   24.5270   31.4490 C   0  0  0  0  0  3  0  0  0  0  0  0
   37.2650   24.8580   30.9340 C   0  0  0  0  0  0  0  0  0  0  0  0
  1 13  1  0  0  0  0
  2  1  1  0  0  0  0
  2 14  1  0  0  0  0
  3  2  2  0  0  0  0
  4  5  2  0  0  0  0
  4  3  1  0  0  0  0
  5  6  1  0  0  0  0
  6  1  2  0  0  0  0
  7  8  1  0  0  0  0
  7  5  1  0  0  0  0
  8 16  1  0  0  0  0
  9 18  1  0  0  0  0
  9  8  1  0  0  0  0
 10  9  1  0  0  0  0
 11 10  1  0  0  0  0
 11 12  1  0  0  0  0
 12 23  1  6  0  0  0
 12  7  1  0  0  0  0
 15  3  1  0  0  0  0
 17  8  1  0  0  0  0
 19  9  1  0  0  0  0
 20 10  1  0  0  0  0
 21 11  1  0  0  0  0
 22 11  1  0  0  0  0
 24 34  1  0  0  0  0
 24 12  1  0  0  0  0
 25 24  2  0  0  0  0
 26 25  1  0  0  0  0
 27 28  2  0  0  0  0
 27 25  1  0  0  0  0
 28 29  1  0  0  0  0
 29 30  2  0  0  0  0
 29 34  1  0  0  0  0
 30 31  1  0  0  0  0
 31 32  2  0  0  0  0
 33 32  1  0  0  0  0
 34 33  2  0  0  0  0
M  END
>  <minimizedAffinity>
-5.74737549

$$$$

 OpenBabel03262521503D

 34 37  0  0  1  0  0  0  0  0999 V2000
   38.1820   21.6760   31.8260 C   0  0  0  0  0  0  0  0  0  0  0  0
   37.5000   20.9150   32.7720 C   0  0  0  0  0  0  0  0  0  0  0  0
   37.1270   21.5620   33.9500 C   0  0  0  0  0  0  0  0  0  0  0  0
   37.4580   22.8640   34.0720 N   0  0  0  0  0  0  0  0  0  0  0  0
   38.1120   23.5770   33.1560 C   0  0  0  0  0  0  0  0  0  0  0  0
   38.4800   22.9760   32.0180 N   0  0  0  0  0  0  0  0  0  0  0  0
   38.4050   24.9230   33.3950 N   0  0  0  0  0  0  0  0  0  0  0  0
   38.5220   25.8810   32.2780 C   0  0  0  0  0  0  0  0  0  0  0  0
   37.6390   27.0370   32.5110 C   0  0  0  0  0  0  0  0  0  0  0  0
   37.1170   27.2140   33.7910 N   0  0  0  0  0  0  0  0  0  0  0  0
   37.7170   26.6460   34.9180 C   0  0  0  0  0  0  0  0  0  0  0  0
   38.6260   25.4710   34.6940 C   0  0  1  0  0  0  0  0  0  0  0  0
   38.4860   21.1910   30.8930 H   0  0  0  0  0  0  0  0  0  0  0  0
   37.2510   19.8700   32.6390 H   0  0  0  0  0  0  0  0  0  0  0  0
   36.5880   21.0600   34.7600 H   0  0  0  0  0  0  0  0  0  0  0  0
   38.4140   25.3590   31.3170 H   0  0  0  0  0  0  0  0  0  0  0  0
   39.6060   26.1940   32.3300 H   0  0  0  0  0  0  0  0  0  0  0  0
   36.8190   27.0120   31.7450 H   0  0  0  0  0  0  0  0  0  0  0  0
   38.2160   27.9660   32.2270 H   0  0  0  0  0  0  0  0  0  0  0  0
   36.9310   28.2450   33.9550 H   0  0  0  0  0  0  0  0  0  0  0  0
   36.8850   26.3090   35.5990 H   0  0  0  0  0  0  0  0  0  0  0  0
   38.2270   27.4250   35.5200 H   0  0  0  0  0  0  0  0  0  0  0  0
   39.6390   25.9960   34.5610 H   0  0  0  0  0  0  0  0  0  0  0  0
   38.7750   24.5910   35.8270 C   0  0  0  0  0  0  0  0  0  0  0  0
   37.7340   24.5520   36.7700 C   0  0  0  0  0  0  0  0  0  0  0  0
   36.8030   25.0980   36.7230 H   0  0  0  0  0  0  0  0  0  0  0  0
   37.7740   23.7980   37.9110 C   0  0  0  0  0  3  0  0  0  0  0  0
   38.8880   23.0090   38.1950 C   0  0  0  0  0  3  0  0  0  0  0  0
   39.9420   23.0000   37.3140 C   0  0  0  0  0  0  0  0  0  0  0  0
   41.0640   22.2310   37.5450 C   0  0  0  0  0  3  0  0  0  0  0  0
   42.1350   22.2010   36.6670 C   0  0  0  0  0  3  0  0  0  0  0  0
   42.0140   22.9920   35.5370 C   0  0  0  0  0  3  0  0  0  0  0  0
   40.8920   23.7580   35.3100 C   0  0  0  0  0  3  0  0  0  0  0  0
   39.8310   23.7840   36.1880 C   0  0  0  0  0  0  0  0  0  0  0  0
  1  6  2  0  0  0  0
  1  2  1  0  0  0  0
  2  3  2  0  0  0  0
  3  4  1  0  0  0  0
  3 15  1  0  0  0  0
  5  7  1  0  0  0  0
  5  4  2  0  0  0  0
  6  5  1  0  0  0  0
  7 12  1  0  0  0  0
  8 17  1  0  0  0  0
  8  9  1  0  0  0  0
  8  7  1  0  0  0  0
  9 10  1  0  0  0  0
 10 20  1  0  0  0  0
 10 11  1  0  0  0  0
 11 22  1  0  0  0  0
 11 21  1  0  0  0  0
 12 23  1  6  0  0  0
 12 11  1  0  0  0  0
 12 24  1  0  0  0  0
 13  1  1  0  0  0  0
 14  2  1  0  0  0  0
 16  8  1  0  0  0  0
 18  9  1  0  0  0  0
 19  9  1  0  0  0  0
 24 34  2  0  0  0  0
 24 25  1  0  0  0  0
 25 27  2  0  0  0  0
 26 25  1  0  0  0  0
 27 28  1  0  0  0  0
 29 30  1  0  0  0  0
 29 28  2  0  0  0  0
 31 30  2  0  0  0  0
 32 31  1  0  0  0  0
 33 32  2  0  0  0  0
 33 34  1  0  0  0  0
 34 29  1  0  0  0  0
M  END
>  <minimizedAffinity>
-5.68229914

$$$$

 OpenBabel03262521503D

 34 37  0  0  1  0  0  0  0  0999 V2000
   36.4890   26.5600   31.5170 C   0  0  0  0  0  0  0  0  0  0  0  0
   35.5280   25.7810   30.8780 C   0  0  0  0  0  0  0  0  0  0  0  0
   35.4700   24.4340   31.2370 C   0  0  0  0  0  0  0  0  0  0  0  0
   36.3460   24.0040   32.1690 N   0  0  0  0  0  0  0  0  0  0  0  0
   37.2600   24.7650   32.7690 C   0  0  0  0  0  0  0  0  0  0  0  0
   37.3330   26.0600   32.4400 N   0  0  0  0  0  0  0  0  0  0  0  0
   38.1200   24.2070   33.7200 N   0  0  0  0  0  0  0  0  0  0  0  0
   38.6650   25.0260   34.8200 C   0  0  0  0  0  0  0  0  0  0  0  0
   38.3890   24.3800   36.1140 C   0  0  0  0  0  0  0  0  0  0  0  0
   37.9860   23.0450   36.1070 N   0  0  0  0  0  0  0  0  0  0  0  0
   38.2570   22.1980   35.0280 C   0  0  0  0  0  0  0  0  0  0  0  0
   38.5480   22.8450   33.7040 C   0  0  1  0  0  0  0  0  0  0  0  0
   36.5560   27.6210   31.2520 H   0  0  0  0  0  0  0  0  0  0  0  0
   34.8410   26.1610   30.1340 H   0  0  0  0  0  0  0  0  0  0  0  0
   34.7540   23.7320   30.7990 H   0  0  0  0  0  0  0  0  0  0  0  0
   38.3470   26.0720   34.7090 H   0  0  0  0  0  0  0  0  0  0  0  0
   39.7750   25.0250   34.6060 H   0  0  0  0  0  0  0  0  0  0  0  0
   37.6530   25.0160   36.6740 H   0  0  0  0  0  0  0  0  0  0  0  0
   39.3230   24.4680   36.7430 H   0  0  0  0  0  0  0  0  0  0  0  0
   38.2780   22.5850   37.0170 H   0  0  0  0  0  0  0  0  0  0  0  0
   37.3530   21.5380   34.8950 H   0  0  0  0  0  0  0  0  0  0  0  0
   39.0540   21.4760   35.2940 H   0  0  0  0  0  0  0  0  0  0  0  0
   39.6900   22.9550   33.7560 H   0  0  0  0  0  0  0  0  0  0  0  0
   38.2750   22.0220   32.5510 C   0  0  0  0  0  0  0  0  0  0  0  0
   39.1070   22.1660   31.4290 C   0  0  0  0  0  0  0  0  0  0  0  0
   39.9650   22.8170   31.3430 H   0  0  0  0  0  0  0  0  0  0  0  0
   38.9250   21.4820   30.2570 C   0  0  0  0  0  3  0  0  0  0  0  0
   37.8680   20.5820   30.1250 C   0  0  0  0  0  3  0  0  0  0  0  0
   37.0150   20.3930   31.1860 C   0  0  0  0  0  0  0  0  0  0  0  0
   35.9590   19.5080   31.1080 C   0  0  0  0  0  3  0  0  0  0  0  0
   35.0910   19.2960   32.1670 C   0  0  0  0  0  3  0  0  0  0  0  0
   35.3480   20.0270   33.3150 C   0  0  0  0  0  3  0  0  0  0  0  0
   36.4030   20.9090   33.3880 C   0  0  0  0  0  3  0  0  0  0  0  0
   37.2610   21.1150   32.3310 C   0  0  0  0  0  0  0  0  0  0  0  0
  1  6  1  0  0  0  0
  2  3  1  0  0  0  0
  2  1  2  0  0  0  0
  3  4  2  0  0  0  0
  4  5  1  0  0  0  0
  5  7  1  0  0  0  0
  6  5  2  0  0  0  0
  7  8  1  0  0  0  0
  8  9  1  0  0  0  0
  9 18  1  0  0  0  0
  9 19  1  0  0  0  0
 10  9  1  0  0  0  0
 10 20  1  0  0  0  0
 11 22  1  0  0  0  0
 11 10  1  0  0  0  0
 12  7  1  0  0  0  0
 12 23  1  6  0  0  0
 12 11  1  0  0  0  0
 13  1  1  0  0  0  0
 14  2  1  0  0  0  0
 15  3  1  0  0  0  0
 16  8  1  0  0  0  0
 17  8  1  0  0  0  0
 21 11  1  0  0  0  0
 24 12  1  0  0  0  0
 25 24  2  0  0  0  0
 26 25  1  0  0  0  0
 27 25  1  0  0  0  0
 28 27  2  0  0  0  0
 28 29  1  0  0  0  0
 29 34  1  0  0  0  0
 30 29  2  0  0  0  0
 30 31  1  0  0  0  0
 31 32  2  0  0  0  0
 32 33  1  0  0  0  0
 34 24  1  0  0  0  0
 34 33  2  0  0  0  0
M  END
>  <minimizedAffinity>
-5.62058783

$$$$

 OpenBabel03262521503D

 34 37  0  0  1  0  0  0  0  0999 V2000
   36.7360   22.4000   31.0870 C   0  0  0  0  0  0  0  0  0  0  0  0
   35.5500   22.9770   31.5340 C   0  0  0  0  0  0  0  0  0  0  0  0
   35.4970   24.3710   31.5550 C   0  0  0  0  0  0  0  0  0  0  0  0
   36.5950   25.0380   31.1430 N   0  0  0  0  0  0  0  0  0  0  0  0
   37.7220   24.4690   30.7190 C   0  0  0  0  0  0  0  0  0  0  0  0
   37.7950   23.1320   30.6900 N   0  0  0  0  0  0  0  0  0  0  0  0
   38.8010   25.2640   30.3180 N   0  0  0  0  0  0  0  0  0  0  0  0
   39.7570   24.7840   29.3010 C   0  0  0  0  0  0  0  0  0  0  0  0
   39.8790   25.7750   28.2180 C   0  0  0  0  0  0  0  0  0  0  0  0
   39.3810   27.0570   28.4440 N   0  0  0  0  0  0  0  0  0  0  0  0
   39.1930   27.5590   29.7350 C   0  0  0  0  0  0  0  0  0  0  0  0
   39.0750   26.5600   30.8500 C   0  0  1  0  0  0  0  0  0  0  0  0
   36.8030   21.3080   31.0620 H   0  0  0  0  0  0  0  0  0  0  0  0
   34.6880   22.4090   31.8580 H   0  0  0  0  0  0  0  0  0  0  0  0
   34.6160   24.9280   31.8870 H   0  0  0  0  0  0  0  0  0  0  0  0
   39.5150   23.7540   29.0070 H   0  0  0  0  0  0  0  0  0  0  0  0
   40.7240   24.7120   29.8820 H   0  0  0  0  0  0  0  0  0  0  0  0
   39.4360   25.3330   27.2860 H   0  0  0  0  0  0  0  0  0  0  0  0
   40.9760   25.8570   27.9570 H   0  0  0  0  0  0  0  0  0  0  0  0
   39.9220   27.7530   27.8540 H   0  0  0  0  0  0  0  0  0  0  0  0
   38.2430   28.1650   29.7170 H   0  0  0  0  0  0  0  0  0  0  0  0
   39.9660   28.3180   29.9710 H   0  0  0  0  0  0  0  0  0  0  0  0
   40.1720   26.4560   31.1730 H   0  0  0  0  0  0  0  0  0  0  0  0
   38.3550   27.0240   32.0100 C   0  0  0  0  0  0  0  0  0  0  0  0
   38.6760   26.4550   33.2540 C   0  0  0  0  0  0  0  0  0  0  0  0
   39.4390   25.7140   33.4450 H   0  0  0  0  0  0  0  0  0  0  0  0
   38.0350   26.7720   34.4210 C   0  0  0  0  0  3  0  0  0  0  0  0
   37.0000   27.7060   34.4230 C   0  0  0  0  0  3  0  0  0  0  0  0
   36.6350   28.3020   33.2400 C   0  0  0  0  0  0  0  0  0  0  0  0
   35.6220   29.2380   33.1900 C   0  0  0  0  0  3  0  0  0  0  0  0
   35.2420   29.8560   32.0100 C   0  0  0  0  0  3  0  0  0  0  0  0
   35.9430   29.4790   30.8770 C   0  0  0  0  0  3  0  0  0  0  0  0
   36.9530   28.5440   30.9310 C   0  0  0  0  0  3  0  0  0  0  0  0
   37.3250   27.9330   32.1080 C   0  0  0  0  0  0  0  0  0  0  0  0
  1  2  1  0  0  0  0
  2  3  2  0  0  0  0
  2 14  1  0  0  0  0
  3 15  1  0  0  0  0
  4  3  1  0  0  0  0
  5  4  2  0  0  0  0
  6  5  1  0  0  0  0
  6  1  2  0  0  0  0
  7  5  1  0  0  0  0
  7 12  1  0  0  0  0
  8 17  1  0  0  0  0
  8  7  1  0  0  0  0
  9 10  1  0  0  0  0
  9  8  1  0  0  0  0
 10 11  1  0  0  0  0
 11 22  1  0  0  0  0
 11 12  1  0  0  0  0
 12 23  1  1  0  0  0
 12 24  1  0  0  0  0
 13  1  1  0  0  0  0
 16  8  1  0  0  0  0
 18  9  1  0  0  0  0
 19  9  1  0  0  0  0
 20 10  1  0  0  0  0
 21 11  1  0  0  0  0
 24 34  2  0  0  0  0
 24 25  1  0  0  0  0
 25 26  1  0  0  0  0
 25 27  2  0  0  0  0
 27 28  1  0  0  0  0
 29 28  2  0  0  0  0
 30 29  1  0  0  0  0
 31 30  2  0  0  0  0
 32 33  2  0  0  0  0
 32 31  1  0  0  0  0
 33 34  1  0  0  0  0
 34 29  1  0  0  0  0
M  END
>  <minimizedAffinity>
-5.61950731

$$$$

 OpenBabel03262521503D

 34 37  0  0  1  0  0  0  0  0999 V2000
   43.0850   23.9650   35.2370 C   0  0  0  0  0  0  0  0  0  0  0  0
   42.9790   25.0940   34.4280 C   0  0  0  0  0  0  0  0  0  0  0  0
   41.7110   25.6630   34.3050 C   0  0  0  0  0  0  0  0  0  0  0  0
   40.7000   25.0740   34.9780 N   0  0  0  0  0  0  0  0  0  0  0  0
   40.8200   23.9930   35.7470 C   0  0  0  0  0  0  0  0  0  0  0  0
   42.0280   23.4300   35.8790 N   0  0  0  0  0  0  0  0  0  0  0  0
   39.6980   23.4660   36.3940 N   0  0  0  0  0  0  0  0  0  0  0  0
   39.8340   22.7430   37.6740 C   0  0  0  0  0  0  0  0  0  0  0  0
   38.9330   23.3300   38.6810 C   0  0  0  0  0  0  0  0  0  0  0  0
   37.9270   24.1870   38.2390 N   0  0  0  0  0  0  0  0  0  0  0  0
   37.4630   24.1640   36.9210 C   0  0  0  0  0  0  0  0  0  0  0  0
   38.3680   23.5620   35.8840 C   0  0  1  0  0  0  0  0  0  0  0  0
   44.0690   23.4990   35.3500 H   0  0  0  0  0  0  0  0  0  0  0  0
   43.8130   25.5400   33.9030 H   0  0  0  0  0  0  0  0  0  0  0  0
   41.5140   26.5510   33.6960 H   0  0  0  0  0  0  0  0  0  0  0  0
   40.8930   22.6510   37.9490 H   0  0  0  0  0  0  0  0  0  0  0  0
   39.5000   21.6970   37.4060 H   0  0  0  0  0  0  0  0  0  0  0  0
   39.5610   23.8240   39.4690 H   0  0  0  0  0  0  0  0  0  0  0  0
   38.4540   22.4760   39.2450 H   0  0  0  0  0  0  0  0  0  0  0  0
   37.1110   24.1500   38.9160 H   0  0  0  0  0  0  0  0  0  0  0  0
   37.2660   25.2330   36.6230 H   0  0  0  0  0  0  0  0  0  0  0  0
   36.4550   23.7050   36.8730 H   0  0  0  0  0  0  0  0  0  0  0  0
   38.0280   22.4650   35.9030 H   0  0  0  0  0  0  0  0  0  0  0  0
   38.1490   24.0290   34.5380 C   0  0  0  0  0  0  0  0  0  0  0  0
   38.4120   23.1410   33.4830 C   0  0  0  0  0  0  0  0  0  0  0  0
   38.7390   22.1140   33.5720 H   0  0  0  0  0  0  0  0  0  0  0  0
   38.2920   23.4760   32.1610 C   0  0  0  0  0  3  0  0  0  0  0  0
   37.8890   24.7590   31.7960 C   0  0  0  0  0  3  0  0  0  0  0  0
   37.6140   25.6790   32.7790 C   0  0  0  0  0  0  0  0  0  0  0  0
   37.2050   26.9600   32.4690 C   0  0  0  0  0  3  0  0  0  0  0  0
   36.9170   27.9010   33.4430 C   0  0  0  0  0  3  0  0  0  0  0  0
   37.0620   27.4800   34.7540 C   0  0  0  0  0  3  0  0  0  0  0  0
   37.4710   26.2000   35.0590 C   0  0  0  0  0  3  0  0  0  0  0  0
   37.7580   25.2690   34.0850 C   0  0  0  0  0  0  0  0  0  0  0  0
  1 13  1  0  0  0  0
  1  6  1  0  0  0  0
  2  1  2  0  0  0  0
  3  2  1  0  0  0  0
  3  4  2  0  0  0  0
  4  5  1  0  0  0  0
  5  6  2  0  0  0  0
  5  7  1  0  0  0  0
  7  8  1  0  0  0  0
  8 16  1  0  0  0  0
  8  9  1  0  0  0  0
  9 19  1  0  0  0  0
  9 18  1  0  0  0  0
 10  9  1  0  0  0  0
 10 20  1  0  0  0  0
 11 10  1  0  0  0  0
 12 23  1  6  0  0  0
 12  7  1  0  0  0  0
 12 11  1  0  0  0  0
 14  2  1  0  0  0  0
 15  3  1  0  0  0  0
 17  8  1  0  0  0  0
 21 11  1  0  0  0  0
 22 11  1  0  0  0  0
 24 12  1  0  0  0  0
 25 26  1  0  0  0  0
 25 24  2  0  0  0  0
 27 25  1  0  0  0  0
 28 27  2  0  0  0  0
 28 29  1  0  0  0  0
 29 34  1  0  0  0  0
 30 29  2  0  0  0  0
 30 31  1  0  0  0  0
 31 32  2  0  0  0  0
 32 33  1  0  0  0  0
 34 24  1  0  0  0  0
 34 33  2  0  0  0  0
M  END
>  <minimizedAffinity>
-5.6036253

$$$$

 OpenBabel03262521503D

 34 37  0  0  1  0  0  0  0  0999 V2000
   39.4890   26.4120   34.8420 C   0  0  0  0  0  0  0  0  0  0  0  0
   38.7760   27.3770   35.5490 C   0  0  0  0  0  0  0  0  0  0  0  0
   37.5240   27.7300   35.0440 C   0  0  0  0  0  0  0  0  0  0  0  0
   37.1140   27.1090   33.9190 N   0  0  0  0  0  0  0  0  0  0  0  0
   37.8110   26.1880   33.2550 C   0  0  0  0  0  0  0  0  0  0  0  0
   39.0140   25.8340   33.7220 N   0  0  0  0  0  0  0  0  0  0  0  0
   37.2850   25.6140   32.0940 N   0  0  0  0  0  0  0  0  0  0  0  0
   37.6480   24.2380   31.6980 C   0  0  0  0  0  0  0  0  0  0  0  0
   36.4310   23.4390   31.4800 C   0  0  0  0  0  0  0  0  0  0  0  0
   35.2170   24.1130   31.3600 N   0  0  0  0  0  0  0  0  0  0  0  0
   35.1540   25.4610   30.9970 C   0  0  0  0  0  0  0  0  0  0  0  0
   36.3920   26.2870   31.2070 C   0  0  1  0  0  0  0  0  0  0  0  0
   40.4750   26.1180   35.2180 H   0  0  0  0  0  0  0  0  0  0  0  0
   39.1380   27.8540   36.4500 H   0  0  0  0  0  0  0  0  0  0  0  0
   36.8790   28.4750   35.5190 H   0  0  0  0  0  0  0  0  0  0  0  0
   38.3950   23.8280   32.3920 H   0  0  0  0  0  0  0  0  0  0  0  0
   38.1970   24.3960   30.7240 H   0  0  0  0  0  0  0  0  0  0  0  0
   36.3750   22.6570   32.2840 H   0  0  0  0  0  0  0  0  0  0  0  0
   36.5930   22.8230   30.5460 H   0  0  0  0  0  0  0  0  0  0  0  0
   34.5540   23.5410   30.7610 H   0  0  0  0  0  0  0  0  0  0  0  0
   34.3260   25.9270   31.6040 H   0  0  0  0  0  0  0  0  0  0  0  0
   34.7870   25.5660   29.9570 H   0  0  0  0  0  0  0  0  0  0  0  0
   36.9200   26.1570   30.1950 H   0  0  0  0  0  0  0  0  0  0  0  0
   36.1610   27.7020   31.3630 C   0  0  0  0  0  0  0  0  0  0  0  0
   35.0810   28.1080   32.1640 C   0  0  0  0  0  0  0  0  0  0  0  0
   34.4090   27.4630   32.7130 H   0  0  0  0  0  0  0  0  0  0  0  0
   34.7250   29.4160   32.3520 C   0  0  0  0  0  3  0  0  0  0  0  0
   35.4470   30.4360   31.7340 C   0  0  0  0  0  3  0  0  0  0  0  0
   36.5170   30.1100   30.9350 C   0  0  0  0  0  0  0  0  0  0  0  0
   37.2660   31.0820   30.3070 C   0  0  0  0  0  3  0  0  0  0  0  0
   38.3530   30.7760   29.5040 C   0  0  0  0  0  3  0  0  0  0  0  0
   38.6450   29.4300   29.3680 C   0  0  0  0  0  3  0  0  0  0  0  0
   37.8930   28.4620   29.9970 C   0  0  0  0  0  3  0  0  0  0  0  0
   36.8130   28.7730   30.7940 C   0  0  0  0  0  0  0  0  0  0  0  0
  1 13  1  0  0  0  0
  1  2  1  0  0  0  0
  2 14  1  0  0  0  0
  3 15  1  0  0  0  0
  3  2  2  0  0  0  0
  4  3  1  0  0  0  0
  5  6  1  0  0  0  0
  5  4  2  0  0  0  0
  6  1  2  0  0  0  0
  7  5  1  0  0  0  0
  8  7  1  0  0  0  0
  8 16  1  0  0  0  0
  9  8  1  0  0  0  0
  9 18  1  0  0  0  0
 10  9  1  0  0  0  0
 11 12  1  0  0  0  0
 11 10  1  0  0  0  0
 11 21  1  0  0  0  0
 12 23  1  6  0  0  0
 12 24  1  0  0  0  0
 12  7  1  0  0  0  0
 17  8  1  0  0  0  0
 19  9  1  0  0  0  0
 20 10  1  0  0  0  0
 22 11  1  0  0  0  0
 24 25  1  0  0  0  0
 25 27  2  0  0  0  0
 25 26  1  0  0  0  0
 28 27  1  0  0  0  0
 29 28  2  0  0  0  0
 30 29  1  0  0  0  0
 31 30  2  0  0  0  0
 32 31  1  0  0  0  0
 32 33  2  0  0  0  0
 33 34  1  0  0  0  0
 34 29  1  0  0  0  0
 34 24  2  0  0  0  0
M  END
>  <minimizedAffinity>
-5.57531309

$$$$
