
     RDKit          3D

 54 59  0  0  0  0  0  0  0  0999 V2000
   32.7007   28.2144   47.4356 N   0  0  0  0  0  0  0  0  0  0  0  0
   33.2952   27.7662   48.6452 C   0  0  0  0  0  0  0  0  0  0  0  0
   34.4766   28.5189   49.1407 C   0  0  0  0  0  0  0  0  0  0  0  0
   35.4142   29.0056   48.1312 C   0  0  0  0  0  0  0  0  0  0  0  0
   34.7237   29.3995   46.8157 C   0  0  0  0  0  0  0  0  0  0  0  0
   33.7534   28.2695   46.4484 C   0  0  0  0  0  0  0  0  0  0  0  0
   35.9440   30.7375   49.7804 C   0  0  0  0  0  0  0  0  0  0  0  0
   36.1929   30.2050   48.5298 C   0  0  0  0  0  0  0  0  0  0  0  0
   37.0927   30.7353   47.6430 C   0  0  0  0  0  0  0  0  0  0  0  0
   37.7908   31.8740   48.0286 C   0  0  0  0  0  0  0  0  0  0  0  0
   37.5420   32.4057   49.2745 C   0  0  0  0  0  0  0  0  0  0  0  0
   36.6333   31.8718   50.1745 C   0  0  0  0  0  0  0  0  0  0  0  0
   38.3412   33.5486   49.4747 O   0  0  0  0  0  0  0  0  0  0  0  0
   39.3332   33.4764   48.4596 C   0  0  0  0  0  0  0  0  0  0  0  0
   38.7611   32.6941   47.4407 O   0  0  0  0  0  0  0  0  0  0  0  0
   31.3479   28.5505   47.1903 C   0  0  0  0  0  0  0  0  0  0  0  0
   30.8712   29.3429   46.1566 C   0  0  0  0  0  0  0  0  0  0  0  0
   29.4982   29.5511   46.1064 C   0  0  0  0  0  0  0  0  0  0  0  0
   28.6953   28.9785   47.0575 N   0  0  0  0  0  0  0  0  0  0  0  0
   29.1962   28.2158   48.0452 C   0  0  0  0  0  0  0  0  0  0  0  0
   30.4785   28.0468   48.0552 N   0  0  0  0  0  0  0  0  0  0  0  0
   33.6237   26.7101   48.4881 H   0  0  0  0  0  0  0  0  0  0  0  0
   32.5615   27.7004   49.4809 H   0  0  0  0  0  0  0  0  0  0  0  0
   34.9399   27.9901   49.9715 H   0  0  0  0  0  0  0  0  0  0  0  0
   33.9832   29.4457   49.5876 H   0  0  0  0  0  0  0  0  0  0  0  0
   36.1524   28.2242   47.7946 H   0  0  0  0  0  0  0  0  0  0  0  0
   35.4678   29.4162   46.0067 H   0  0  0  0  0  0  0  0  0  0  0  0
   34.1441   30.3153   46.9121 H   0  0  0  0  0  0  0  0  0  0  0  0
   33.2777   28.5504   45.4865 H   0  0  0  0  0  0  0  0  0  0  0  0
   34.2820   27.3044   46.3128 H   0  0  0  0  0  0  0  0  0  0  0  0
   35.2769   30.4081   50.5642 H   0  0  0  0  0  0  0  0  0  0  0  0
   37.2647   30.3038   46.6870 H   0  0  0  0  0  0  0  0  0  0  0  0
   36.4887   32.3552   51.1560 H   0  0  0  0  0  0  0  0  0  0  0  0
   39.5823   34.4837   48.0725 H   0  0  0  0  0  0  0  0  0  0  0  0
   40.2398   32.9720   48.8900 H   0  0  0  0  0  0  0  0  0  0  0  0
   31.6025   29.7310   45.4791 H   0  0  0  0  0  0  0  0  0  0  0  0
   29.1225   30.1555   45.3197 H   0  0  0  0  0  0  0  0  0  0  0  0
   28.1426   27.7325   48.9206 C   0  0  0  0  0  0  0  0  0  0  0  0
   27.4695   26.5547   48.6657 C   0  0  0  0  0  0  0  0  0  0  0  0
   27.6907   25.9338   47.8029 H   0  0  0  0  0  0  0  0  0  0  0  0
   26.4639   26.0401   49.4536 C   0  0  0  0  0  0  0  0  0  0  0  0
   26.0665   26.7097   50.5846 C   0  0  0  0  0  0  0  0  0  0  0  0
   26.6972   27.8791   50.8856 C   0  0  0  0  0  0  0  0  0  0  0  0
   26.2896   28.5388   52.0244 C   0  0  0  0  0  0  0  0  0  0  0  0
   26.8777   29.7295   52.4039 C   0  0  0  0  0  0  0  0  0  0  0  0
   27.8838   30.2050   51.5793 C   0  0  0  0  0  0  0  0  0  0  0  0
   28.2593   29.5220   50.4590 C   0  0  0  0  0  0  0  0  0  0  0  0
   27.6965   28.3489   50.0638 C   0  0  0  0  0  0  0  0  0  0  0  0
   25.9579   25.1143   49.2240 H   0  0  0  0  0  0  0  0  0  0  0  0
   25.2830   26.3101   51.1996 H   0  0  0  0  0  0  0  0  0  0  0  0
   25.4936   28.1256   52.6421 H   0  0  0  0  0  0  0  0  0  0  0  0
   26.5149   30.1952   53.3029 H   0  0  0  0  0  0  0  0  0  0  0  0
   28.3280   31.1462   51.9057 H   0  0  0  0  0  0  0  0  0  0  0  0
   29.0348   29.9840   49.9182 H   0  0  0  0  0  0  0  0  0  0  0  0
  1  2  1  0
  2  3  1  0
  4  8  1  0
  4  3  1  0
  5  4  1  0
  6  5  1  0
  6  1  1  0
  7 12  2  0
  8  7  1  0
  9 10  1  0
  9  8  2  0
 10 11  2  0
 11 13  1  0
 11 12  1  0
 14 13  1  0
 15 10  1  0
 15 14  1  0
 16  1  1  0
 16 21  1  0
 17 16  2  0
 18 17  1  0
 18 19  2  0
 19 20  1  0
 20 21  2  0
  2 22  1  0
  2 23  1  0
  3 24  1  0
  3 25  1  0
  4 26  1  0
  5 27  1  0
  5 28  1  0
  6 29  1  0
  6 30  1  0
  7 31  1  0
  9 32  1  0
 12 33  1  0
 14 34  1  0
 14 35  1  0
 17 36  1  0
 18 37  1  0
 38 39  2  0
 39 40  1  0
 39 41  1  0
 41 42  2  0
 42 43  1  0
 43 44  2  0
 44 45  1  0
 45 46  2  0
 46 47  1  0
 47 48  2  0
 48 38  1  0
 48 43  1  0
 41 49  1  0
 42 50  1  0
 44 51  1  0
 45 52  1  0
 46 53  1  0
 47 54  1  0
 20 38  1  0
M  ISO  8  22  13  23  13  24  13  25  13  26  13  27  13  28  13  29  13
M  ISO  8  30  13  31  14  32  14  33  14  34  13  35  13  36  14  37  14
M  ISO  1  40  15
M  END
>  <DihAtoms>  (1) 
18,19,37,38

>  <DihDeg>  (1) 
-1.6938716001647767

$$$$
