
 OpenBabel03272505423D

 47 51  0  0  0  0  0  0  0  0999 V2000
   37.5430   26.5840   34.5290 C   0  0  0  0  0  0  0  0  0  0  0  0
   37.8360   26.6310   35.8860 C   0  0  0  0  0  0  0  0  0  0  0  0
   38.4070   25.5240   36.4930 C   0  0  0  0  0  0  0  0  0  0  0  0
   38.7080   24.3620   35.8290 C   0  0  0  0  0  0  0  0  0  0  0  0
   38.4170   24.3150   34.4770 C   0  0  0  0  0  0  0  0  0  0  0  0
   37.8470   25.4280   33.8860 C   0  0  0  0  0  0  0  0  0  0  0  0
   37.6270   27.5150   36.4770 H   0  0  0  0  0  0  0  0  0  0  0  0
   38.6270   25.5870   37.5610 H   0  0  0  0  0  0  0  0  0  0  0  0
   39.1560   23.5240   36.3600 H   0  0  0  0  0  0  0  0  0  0  0  0
   38.6680   23.3850   33.9880 H   0  0  0  0  0  0  0  0  0  0  0  0
   37.6170   25.1960   32.4990 N   0  0  0  0  0  0  0  0  0  0  0  0
   36.5220   24.8710   31.6350 C   0  0  0  0  0  0  0  0  0  0  0  0
   36.9130   23.6350   30.8590 C   0  0  0  0  0  0  0  0  0  0  0  0
   37.9560   23.9980   29.9280 N   0  0  0  0  0  0  0  0  0  0  0  0
   38.7010   25.1470   30.3070 C   0  0  0  0  0  0  0  0  0  0  0  0
   38.8600   25.3440   31.7790 C   0  0  0  0  0  0  0  0  0  0  0  0
   35.5940   24.6610   32.2110 H   0  0  0  0  0  0  0  0  0  0  0  0
   36.2720   25.6780   30.9170 H   0  0  0  0  0  0  0  0  0  0  0  0
   36.8840   22.6890   31.2980 H   0  0  0  0  0  0  0  0  0  0  0  0
   36.0040   23.5700   30.1600 H   0  0  0  0  0  0  0  0  0  0  0  0
   37.7040   24.0430   28.9420 H   0  0  0  0  0  0  0  0  0  0  0  0
   38.2220   26.0380   29.8190 H   0  0  0  0  0  0  0  0  0  0  0  0
   39.7160   25.0570   29.8570 H   0  0  0  0  0  0  0  0  0  0  0  0
   39.0520   26.4610   31.8670 H   0  0  0  0  0  0  0  0  0  0  0  0
   39.7480   24.9230   32.2350 H   0  0  0  0  0  0  0  0  0  0  0  0
   36.5640   29.0220   31.9860 C   0  0  0  0  0  0  0  0  0  0  0  0
   35.7930   29.9230   32.7220 C   0  0  0  0  0  0  0  0  0  0  0  0
   35.6060   29.6960   34.0830 C   0  0  0  0  0  0  0  0  0  0  0  0
   36.2160   28.5770   34.5820 N   0  0  0  0  0  0  0  0  0  0  0  0
   36.9470   27.7220   33.8830 C   0  0  0  0  0  0  0  0  0  0  0  0
   37.1110   27.9640   32.5730 N   0  0  0  0  0  0  0  0  0  0  0  0
   35.4180   30.7730   32.2190 H   0  0  0  0  0  0  0  0  0  0  0  0
   34.9170   30.5190   35.0480 C   0  0  0  0  0  0  0  0  0  0  0  0
   35.6890   31.4790   35.6980 C   0  0  0  0  0  0  0  0  0  0  0  0
   36.7570   31.5950   35.4700 H   0  0  0  0  0  0  0  0  0  0  0  0
   35.2260   32.3510   36.6560 C   0  0  0  0  0  3  0  0  0  0  0  0
   33.9020   32.2980   37.0240 C   0  0  0  0  0  3  0  0  0  0  0  0
   33.0820   31.3690   36.4220 C   0  0  0  0  0  0  0  0  0  0  0  0
   31.7600   31.2600   36.7900 C   0  0  0  0  0  3  0  0  0  0  0  0
   30.9050   30.3090   36.2360 C   0  0  0  0  0  3  0  0  0  0  0  0
   31.4740   29.4610   35.2770 C   0  0  0  0  0  3  0  0  0  0  0  0
   32.7980   29.6010   34.9340 C   0  0  0  0  0  3  0  0  0  0  0  0
   33.6300   30.5410   35.4810 C   0  0  0  0  0  0  0  0  0  0  0  0
   36.7430   29.3070   30.5210 C   0  0  0  0  0  0  0  0  0  0  0  0
   36.4650   28.1230   29.8090 F   0  0  0  0  0  0  0  0  0  0  0  0
   35.9200   30.3000   30.1650 F   0  0  0  0  0  0  0  0  0  0  0  0
   38.0670   29.5870   30.2960 F   0  0  0  0  0  0  0  0  0  0  0  0
  1  2  1  0  0  0  0
  2  7  1  0  0  0  0
  2  3  2  0  0  0  0
  3  8  1  0  0  0  0
  4  9  1  0  0  0  0
  4  3  1  0  0  0  0
  5  4  2  0  0  0  0
  6  5  1  0  0  0  0
  6  1  2  0  0  0  0
 10  5  1  0  0  0  0
 11  6  1  0  0  0  0
 12 17  1  0  0  0  0
 12 11  1  0  0  0  0
 13 19  1  0  0  0  0
 13 12  1  0  0  0  0
 14 15  1  0  0  0  0
 14 13  1  0  0  0  0
 15 16  1  0  0  0  0
 16 24  1  0  0  0  0
 16 25  1  0  0  0  0
 16 11  1  0  0  0  0
 18 12  1  0  0  0  0
 20 13  1  0  0  0  0
 21 14  1  0  0  0  0
 22 15  1  0  0  0  0
 23 15  1  0  0  0  0
 26 31  2  0  0  0  0
 26 27  1  0  0  0  0
 27 28  2  0  0  0  0
 28 29  1  0  0  0  0
 28 33  1  0  0  0  0
 30  1  1  0  0  0  0
 30 29  2  0  0  0  0
 31 30  1  0  0  0  0
 32 27  1  0  0  0  0
 33 43  2  0  0  0  0
 33 34  1  0  0  0  0
 34 36  2  0  0  0  0
 35 34  1  0  0  0  0
 36 37  1  0  0  0  0
 38 39  1  0  0  0  0
 38 37  2  0  0  0  0
 40 39  2  0  0  0  0
 41 40  1  0  0  0  0
 42 41  2  0  0  0  0
 42 43  1  0  0  0  0
 43 38  1  0  0  0  0
 44 26  1  0  0  0  0
 45 44  1  0  0  0  0
 46 44  1  0  0  0  0
 47 44  1  0  0  0  0
M  END
>  <minimizedAffinity>
-7.68250895

$$$$

 OpenBabel03272505423D

 47 51  0  0  0  0  0  0  0  0999 V2000
   36.2130   26.1540   31.6570 C   0  0  0  0  0  0  0  0  0  0  0  0
   35.4580   25.2420   30.9320 C   0  0  0  0  0  0  0  0  0  0  0  0
   35.6470   23.8860   31.1450 C   0  0  0  0  0  0  0  0  0  0  0  0
   36.5500   23.3750   32.0430 C   0  0  0  0  0  0  0  0  0  0  0  0
   37.3020   24.2830   32.7660 C   0  0  0  0  0  0  0  0  0  0  0  0
   37.1010   25.6330   32.5420 C   0  0  0  0  0  0  0  0  0  0  0  0
   34.7250   25.5700   30.2040 H   0  0  0  0  0  0  0  0  0  0  0  0
   35.0410   23.1900   30.5610 H   0  0  0  0  0  0  0  0  0  0  0  0
   36.6540   22.2990   32.1670 H   0  0  0  0  0  0  0  0  0  0  0  0
   38.0010   23.8440   33.4630 H   0  0  0  0  0  0  0  0  0  0  0  0
   37.9600   26.4120   33.3700 N   0  0  0  0  0  0  0  0  0  0  0  0
   39.2400   27.0510   33.2840 C   0  0  0  0  0  0  0  0  0  0  0  0
   40.0760   26.5390   34.4340 C   0  0  0  0  0  0  0  0  0  0  0  0
   39.5340   27.0770   35.6590 N   0  0  0  0  0  0  0  0  0  0  0  0
   38.1620   27.4390   35.5800 C   0  0  0  0  0  0  0  0  0  0  0  0
   37.3360   26.6020   34.6580 C   0  0  0  0  0  0  0  0  0  0  0  0
   39.7520   26.8130   32.3260 H   0  0  0  0  0  0  0  0  0  0  0  0
   39.1850   28.1560   33.3460 H   0  0  0  0  0  0  0  0  0  0  0  0
   40.5160   25.5940   34.4040 H   0  0  0  0  0  0  0  0  0  0  0  0
   41.0000   27.2060   34.2890 H   0  0  0  0  0  0  0  0  0  0  0  0
   40.0700   27.8070   36.1250 H   0  0  0  0  0  0  0  0  0  0  0  0
   38.1120   28.5270   35.3090 H   0  0  0  0  0  0  0  0  0  0  0  0
   37.7300   27.3560   36.6040 H   0  0  0  0  0  0  0  0  0  0  0  0
   36.4680   27.2890   34.4000 H   0  0  0  0  0  0  0  0  0  0  0  0
   36.8310   25.7480   35.0930 H   0  0  0  0  0  0  0  0  0  0  0  0
   36.5290   29.5360   30.3070 C   0  0  0  0  0  0  0  0  0  0  0  0
   35.6490   30.2600   31.1140 C   0  0  0  0  0  0  0  0  0  0  0  0
   34.9470   29.5920   32.1140 C   0  0  0  0  0  0  0  0  0  0  0  0
   35.1970   28.2500   32.2120 N   0  0  0  0  0  0  0  0  0  0  0  0
   36.0320   27.5640   31.4470 C   0  0  0  0  0  0  0  0  0  0  0  0
   36.6960   28.2320   30.4900 N   0  0  0  0  0  0  0  0  0  0  0  0
   35.5850   31.3030   30.9580 H   0  0  0  0  0  0  0  0  0  0  0  0
   34.0480   30.1380   33.1030 C   0  0  0  0  0  0  0  0  0  0  0  0
   32.6930   30.0990   32.7890 C   0  0  0  0  0  0  0  0  0  0  0  0
   32.3440   29.6650   31.8410 H   0  0  0  0  0  0  0  0  0  0  0  0
   31.6810   30.5760   33.5890 C   0  0  0  0  0  3  0  0  0  0  0  0
   31.9980   31.1430   34.8010 C   0  0  0  0  0  3  0  0  0  0  0  0
   33.3220   31.2160   35.1740 C   0  0  0  0  0  0  0  0  0  0  0  0
   33.6830   31.8090   36.3630 C   0  0  0  0  0  3  0  0  0  0  0  0
   35.0120   31.9400   36.7600 C   0  0  0  0  0  3  0  0  0  0  0  0
   35.9680   31.4310   35.8730 C   0  0  0  0  0  3  0  0  0  0  0  0
   35.5700   30.8440   34.6940 C   0  0  0  0  0  3  0  0  0  0  0  0
   34.2610   30.7160   34.3130 C   0  0  0  0  0  0  0  0  0  0  0  0
   37.2680   30.2980   29.2430 C   0  0  0  0  0  0  0  0  0  0  0  0
   37.4640   29.4350   28.1450 F   0  0  0  0  0  0  0  0  0  0  0  0
   36.5540   31.3760   28.9000 F   0  0  0  0  0  0  0  0  0  0  0  0
   38.5190   30.5990   29.7190 F   0  0  0  0  0  0  0  0  0  0  0  0
  1  6  1  0  0  0  0
  2  3  1  0  0  0  0
  2  1  2  0  0  0  0
  3  4  2  0  0  0  0
  4  9  1  0  0  0  0
  4  5  1  0  0  0  0
  5 10  1  0  0  0  0
  6  5  2  0  0  0  0
  6 11  1  0  0  0  0
  7  2  1  0  0  0  0
  8  3  1  0  0  0  0
 11 16  1  0  0  0  0
 12 18  1  0  0  0  0
 12 11  1  0  0  0  0
 12 13  1  0  0  0  0
 13 14  1  0  0  0  0
 14 21  1  0  0  0  0
 15 14  1  0  0  0  0
 15 23  1  0  0  0  0
 16 25  1  0  0  0  0
 16 15  1  0  0  0  0
 17 12  1  0  0  0  0
 19 13  1  0  0  0  0
 20 13  1  0  0  0  0
 22 15  1  0  0  0  0
 24 16  1  0  0  0  0
 26 31  2  0  0  0  0
 26 27  1  0  0  0  0
 27 28  2  0  0  0  0
 28 29  1  0  0  0  0
 28 33  1  0  0  0  0
 30  1  1  0  0  0  0
 30 29  2  0  0  0  0
 31 30  1  0  0  0  0
 32 27  1  0  0  0  0
 33 43  1  0  0  0  0
 34 33  2  0  0  0  0
 34 36  1  0  0  0  0
 35 34  1  0  0  0  0
 36 37  2  0  0  0  0
 37 38  1  0  0  0  0
 38 39  1  0  0  0  0
 39 40  2  0  0  0  0
 41 40  1  0  0  0  0
 42 41  2  0  0  0  0
 43 42  1  0  0  0  0
 43 38  2  0  0  0  0
 44 47  1  0  0  0  0
 44 26  1  0  0  0  0
 45 44  1  0  0  0  0
 46 44  1  0  0  0  0
M  END
>  <minimizedAffinity>
-7.63291693

$$$$

 OpenBabel03272505423D

 47 51  0  0  0  0  0  0  0  0999 V2000
   36.1470   26.6800   31.7810 C   0  0  0  0  0  0  0  0  0  0  0  0
   35.1780   25.9460   31.1100 C   0  0  0  0  0  0  0  0  0  0  0  0
   35.2510   24.5630   31.1200 C   0  0  0  0  0  0  0  0  0  0  0  0
   36.2370   23.8560   31.7610 C   0  0  0  0  0  0  0  0  0  0  0  0
   37.2020   24.5870   32.4300 C   0  0  0  0  0  0  0  0  0  0  0  0
   37.1150   25.9670   32.4110 C   0  0  0  0  0  0  0  0  0  0  0  0
   34.3670   26.4340   30.5810 H   0  0  0  0  0  0  0  0  0  0  0  0
   34.4760   24.0090   30.5830 H   0  0  0  0  0  0  0  0  0  0  0  0
   36.2420   22.7680   31.7330 H   0  0  0  0  0  0  0  0  0  0  0  0
   37.9610   23.9970   32.9220 H   0  0  0  0  0  0  0  0  0  0  0  0
   38.1900   26.5470   33.1460 N   0  0  0  0  0  0  0  0  0  0  0  0
   39.4610   27.1540   32.8850 C   0  0  0  0  0  0  0  0  0  0  0  0
   40.4910   26.4060   33.6990 C   0  0  0  0  0  0  0  0  0  0  0  0
   40.2730   26.7130   35.0930 N   0  0  0  0  0  0  0  0  0  0  0  0
   38.9470   27.1210   35.3990 C   0  0  0  0  0  0  0  0  0  0  0  0
   37.8810   26.5020   34.5560 C   0  0  0  0  0  0  0  0  0  0  0  0
   39.7300   27.0910   31.8080 H   0  0  0  0  0  0  0  0  0  0  0  0
   39.5010   28.2270   33.1580 H   0  0  0  0  0  0  0  0  0  0  0  0
   40.8450   25.4720   33.3980 H   0  0  0  0  0  0  0  0  0  0  0  0
   41.4060   27.0620   33.4690 H   0  0  0  0  0  0  0  0  0  0  0  0
   40.9500   27.3240   35.5470 H   0  0  0  0  0  0  0  0  0  0  0  0
   38.9170   28.2430   35.3490 H   0  0  0  0  0  0  0  0  0  0  0  0
   38.7470   26.8550   36.4630 H   0  0  0  0  0  0  0  0  0  0  0  0
   37.0280   27.2500   34.6340 H   0  0  0  0  0  0  0  0  0  0  0  0
   37.4240   25.5950   34.9330 H   0  0  0  0  0  0  0  0  0  0  0  0
   36.4750   30.1720   30.7490 C   0  0  0  0  0  0  0  0  0  0  0  0
   35.9620   30.8560   31.8530 C   0  0  0  0  0  0  0  0  0  0  0  0
   35.5030   30.1250   32.9450 C   0  0  0  0  0  0  0  0  0  0  0  0
   35.6030   28.7650   32.8260 N   0  0  0  0  0  0  0  0  0  0  0  0
   36.0890   28.1160   31.7790 C   0  0  0  0  0  0  0  0  0  0  0  0
   36.5250   28.8450   30.7400 N   0  0  0  0  0  0  0  0  0  0  0  0
   35.9860   31.9120   31.8310 H   0  0  0  0  0  0  0  0  0  0  0  0
   35.0030   30.6100   34.2090 C   0  0  0  0  0  0  0  0  0  0  0  0
   35.8860   31.3800   34.9620 C   0  0  0  0  0  0  0  0  0  0  0  0
   36.8970   31.6030   34.5960 H   0  0  0  0  0  0  0  0  0  0  0  0
   35.6080   31.9240   36.1950 C   0  0  0  0  0  3  0  0  0  0  0  0
   34.3700   31.7110   36.7560 C   0  0  0  0  0  3  0  0  0  0  0  0
   33.4490   30.9550   36.0650 C   0  0  0  0  0  0  0  0  0  0  0  0
   32.2130   30.6880   36.6100 C   0  0  0  0  0  3  0  0  0  0  0  0
   31.2660   29.8960   35.9640 C   0  0  0  0  0  3  0  0  0  0  0  0
   31.6480   29.3800   34.7180 C   0  0  0  0  0  3  0  0  0  0  0  0
   32.8910   29.6690   34.2060 C   0  0  0  0  0  3  0  0  0  0  0  0
   33.8150   30.4520   34.8460 C   0  0  0  0  0  0  0  0  0  0  0  0
   36.9640   31.0000   29.5940 C   0  0  0  0  0  0  0  0  0  0  0  0
   38.1790   31.6040   29.9730 F   0  0  0  0  0  0  0  0  0  0  0  0
   37.1180   30.2110   28.5240 F   0  0  0  0  0  0  0  0  0  0  0  0
   36.0750   32.0250   29.3920 F   0  0  0  0  0  0  0  0  0  0  0  0
  1  6  1  0  0  0  0
  2  3  1  0  0  0  0
  2  1  2  0  0  0  0
  3  4  2  0  0  0  0
  4  5  1  0  0  0  0
  5 10  1  0  0  0  0
  6  5  2  0  0  0  0
  6 11  1  0  0  0  0
  7  2  1  0  0  0  0
  8  3  1  0  0  0  0
  9  4  1  0  0  0  0
 11 16  1  0  0  0  0
 12 11  1  0  0  0  0
 12 18  1  0  0  0  0
 12 13  1  0  0  0  0
 13 14  1  0  0  0  0
 14 15  1  0  0  0  0
 14 21  1  0  0  0  0
 15 23  1  0  0  0  0
 16 24  1  0  0  0  0
 16 25  1  0  0  0  0
 16 15  1  0  0  0  0
 17 12  1  0  0  0  0
 19 13  1  0  0  0  0
 20 13  1  0  0  0  0
 22 15  1  0  0  0  0
 26 27  1  0  0  0  0
 27 28  2  0  0  0  0
 28 33  1  0  0  0  0
 29 28  1  0  0  0  0
 30  1  1  0  0  0  0
 30 29  2  0  0  0  0
 31 26  2  0  0  0  0
 31 30  1  0  0  0  0
 32 27  1  0  0  0  0
 33 43  2  0  0  0  0
 33 34  1  0  0  0  0
 34 36  2  0  0  0  0
 35 34  1  0  0  0  0
 36 37  1  0  0  0  0
 38 39  1  0  0  0  0
 38 37  2  0  0  0  0
 40 39  2  0  0  0  0
 41 40  1  0  0  0  0
 42 41  2  0  0  0  0
 42 43  1  0  0  0  0
 43 38  1  0  0  0  0
 44 45  1  0  0  0  0
 44 26  1  0  0  0  0
 46 44  1  0  0  0  0
 47 44  1  0  0  0  0
M  END
>  <minimizedAffinity>
-7.33892441

$$$$

 OpenBabel03272505423D

 47 51  0  0  0  0  0  0  0  0999 V2000
   38.5390   26.7560   33.3460 C   0  0  0  0  0  0  0  0  0  0  0  0
   39.4450   27.2160   34.2930 C   0  0  0  0  0  0  0  0  0  0  0  0
   40.2310   26.3030   34.9750 C   0  0  0  0  0  0  0  0  0  0  0  0
   40.1730   24.9470   34.7750 C   0  0  0  0  0  0  0  0  0  0  0  0
   39.2710   24.4880   33.8310 C   0  0  0  0  0  0  0  0  0  0  0  0
   38.4930   25.4130   33.1580 C   0  0  0  0  0  0  0  0  0  0  0  0
   39.5480   28.2740   34.5060 H   0  0  0  0  0  0  0  0  0  0  0  0
   40.9350   26.6910   35.7160 H   0  0  0  0  0  0  0  0  0  0  0  0
   40.8160   24.2770   35.3420 H   0  0  0  0  0  0  0  0  0  0  0  0
   39.2540   23.4160   33.7000 H   0  0  0  0  0  0  0  0  0  0  0  0
   37.6280   24.7600   32.2320 N   0  0  0  0  0  0  0  0  0  0  0  0
   36.9850   25.0470   30.9850 C   0  0  0  0  0  0  0  0  0  0  0  0
   35.5080   24.7890   31.1720 C   0  0  0  0  0  0  0  0  0  0  0  0
   35.3120   23.3650   31.3110 N   0  0  0  0  0  0  0  0  0  0  0  0
   36.4570   22.6630   31.7760 C   0  0  0  0  0  0  0  0  0  0  0  0
   37.3370   23.4290   32.7090 C   0  0  0  0  0  0  0  0  0  0  0  0
   37.1350   26.1050   30.6800 H   0  0  0  0  0  0  0  0  0  0  0  0
   37.3520   24.4220   30.1460 H   0  0  0  0  0  0  0  0  0  0  0  0
   34.8990   25.4720   31.6730 H   0  0  0  0  0  0  0  0  0  0  0  0
   35.1610   24.9550   30.0890 H   0  0  0  0  0  0  0  0  0  0  0  0
   34.8850   22.8750   30.5270 H   0  0  0  0  0  0  0  0  0  0  0  0
   37.0220   22.3000   30.8760 H   0  0  0  0  0  0  0  0  0  0  0  0
   36.1020   21.7490   32.3060 H   0  0  0  0  0  0  0  0  0  0  0  0
   38.3420   22.9120   32.5920 H   0  0  0  0  0  0  0  0  0  0  0  0
   37.1420   23.3150   33.7690 H   0  0  0  0  0  0  0  0  0  0  0  0
   37.2720   29.0020   30.7540 C   0  0  0  0  0  0  0  0  0  0  0  0
   36.0950   29.4830   31.3290 C   0  0  0  0  0  0  0  0  0  0  0  0
   35.7340   29.0370   32.5980 C   0  0  0  0  0  0  0  0  0  0  0  0
   36.5960   28.1450   33.1760 N   0  0  0  0  0  0  0  0  0  0  0  0
   37.7130   27.6890   32.6300 C   0  0  0  0  0  0  0  0  0  0  0  0
   38.0380   28.1350   31.4050 N   0  0  0  0  0  0  0  0  0  0  0  0
   35.5450   30.2070   30.7900 H   0  0  0  0  0  0  0  0  0  0  0  0
   34.6130   29.4450   33.4120 C   0  0  0  0  0  0  0  0  0  0  0  0
   33.3610   28.9960   33.0010 C   0  0  0  0  0  0  0  0  0  0  0  0
   33.2520   28.3610   32.1110 H   0  0  0  0  0  0  0  0  0  0  0  0
   32.1720   29.2820   33.6300 C   0  0  0  0  0  3  0  0  0  0  0  0
   32.1850   30.0710   34.7560 C   0  0  0  0  0  3  0  0  0  0  0  0
   33.3900   30.5520   35.2170 C   0  0  0  0  0  0  0  0  0  0  0  0
   33.4410   31.3750   36.3190 C   0  0  0  0  0  3  0  0  0  0  0  0
   34.6340   31.9160   36.7950 C   0  0  0  0  0  3  0  0  0  0  0  0
   35.7880   31.5730   36.0800 C   0  0  0  0  0  3  0  0  0  0  0  0
   35.6990   30.7470   34.9840 C   0  0  0  0  0  3  0  0  0  0  0  0
   34.5230   30.2170   34.5250 C   0  0  0  0  0  0  0  0  0  0  0  0
   37.6260   29.5120   29.3850 C   0  0  0  0  0  0  0  0  0  0  0  0
   36.7840   30.6040   29.0940 F   0  0  0  0  0  0  0  0  0  0  0  0
   38.9160   29.8690   29.3710 F   0  0  0  0  0  0  0  0  0  0  0  0
   37.3190   28.5380   28.4700 F   0  0  0  0  0  0  0  0  0  0  0  0
  1  2  1  0  0  0  0
  2  7  1  0  0  0  0
  2  3  2  0  0  0  0
  3  8  1  0  0  0  0
  4  3  1  0  0  0  0
  4  9  1  0  0  0  0
  5  4  2  0  0  0  0
  6  1  2  0  0  0  0
  6  5  1  0  0  0  0
 10  5  1  0  0  0  0
 11 16  1  0  0  0  0
 11  6  1  0  0  0  0
 12 13  1  0  0  0  0
 12 11  1  0  0  0  0
 13 14  1  0  0  0  0
 13 19  1  0  0  0  0
 14 15  1  0  0  0  0
 15 23  1  0  0  0  0
 15 16  1  0  0  0  0
 16 25  1  0  0  0  0
 17 12  1  0  0  0  0
 18 12  1  0  0  0  0
 20 13  1  0  0  0  0
 21 14  1  0  0  0  0
 22 15  1  0  0  0  0
 24 16  1  0  0  0  0
 26 27  2  0  0  0  0
 26 31  1  0  0  0  0
 27 28  1  0  0  0  0
 28 29  2  0  0  0  0
 28 33  1  0  0  0  0
 30 29  1  0  0  0  0
 30  1  1  0  0  0  0
 31 30  2  0  0  0  0
 32 27  1  0  0  0  0
 33 43  1  0  0  0  0
 34 33  2  0  0  0  0
 34 36  1  0  0  0  0
 35 34  1  0  0  0  0
 36 37  2  0  0  0  0
 37 38  1  0  0  0  0
 38 39  1  0  0  0  0
 39 40  2  0  0  0  0
 41 40  1  0  0  0  0
 42 41  2  0  0  0  0
 43 42  1  0  0  0  0
 43 38  2  0  0  0  0
 44 26  1  0  0  0  0
 45 44  1  0  0  0  0
 46 44  1  0  0  0  0
 47 44  1  0  0  0  0
M  END
>  <minimizedAffinity>
-7.31315422

$$$$

 OpenBabel03272505423D

 47 51  0  0  0  0  0  0  0  0999 V2000
   39.7010   25.5340   33.5750 C   0  0  0  0  0  0  0  0  0  0  0  0
   40.8430   25.9790   32.9210 C   0  0  0  0  0  0  0  0  0  0  0  0
   42.0850   25.7100   33.4710 C   0  0  0  0  0  0  0  0  0  0  0  0
   42.2670   25.0190   34.6420 C   0  0  0  0  0  0  0  0  0  0  0  0
   41.1300   24.5750   35.2940 C   0  0  0  0  0  0  0  0  0  0  0  0
   39.8970   24.8520   34.7320 C   0  0  0  0  0  0  0  0  0  0  0  0
   40.7790   26.5310   31.9900 H   0  0  0  0  0  0  0  0  0  0  0  0
   42.9670   26.0720   32.9360 H   0  0  0  0  0  0  0  0  0  0  0  0
   43.2690   24.8380   35.0260 H   0  0  0  0  0  0  0  0  0  0  0  0
   41.3120   24.0360   36.2120 H   0  0  0  0  0  0  0  0  0  0  0  0
   38.8490   24.3210   35.5390 N   0  0  0  0  0  0  0  0  0  0  0  0
   37.9120   24.7870   36.5180 C   0  0  0  0  0  0  0  0  0  0  0  0
   38.0800   23.9230   37.7470 C   0  0  0  0  0  0  0  0  0  0  0  0
   37.5880   22.6010   37.4390 N   0  0  0  0  0  0  0  0  0  0  0  0
   37.6020   22.2820   36.0540 C   0  0  0  0  0  0  0  0  0  0  0  0
   38.7060   22.9100   35.2690 C   0  0  0  0  0  0  0  0  0  0  0  0
   38.0980   25.8490   36.7900 H   0  0  0  0  0  0  0  0  0  0  0  0
   36.8570   24.7280   36.1820 H   0  0  0  0  0  0  0  0  0  0  0  0
   38.8780   24.0660   38.4030 H   0  0  0  0  0  0  0  0  0  0  0  0
   37.2140   24.3410   38.3750 H   0  0  0  0  0  0  0  0  0  0  0  0
   36.7040   22.3230   37.8620 H   0  0  0  0  0  0  0  0  0  0  0  0
   36.5940   22.5430   35.6350 H   0  0  0  0  0  0  0  0  0  0  0  0
   37.6980   21.1750   35.9620 H   0  0  0  0  0  0  0  0  0  0  0  0
   38.2940   22.9140   34.2090 H   0  0  0  0  0  0  0  0  0  0  0  0
   39.6170   22.3350   35.1580 H   0  0  0  0  0  0  0  0  0  0  0  0
   36.5000   25.1310   31.8560 C   0  0  0  0  0  0  0  0  0  0  0  0
   35.9390   26.4030   31.9740 C   0  0  0  0  0  0  0  0  0  0  0  0
   36.6520   27.3950   32.6430 C   0  0  0  0  0  0  0  0  0  0  0  0
   37.8710   27.0130   33.1330 N   0  0  0  0  0  0  0  0  0  0  0  0
   38.4030   25.8060   33.0210 C   0  0  0  0  0  0  0  0  0  0  0  0
   37.6950   24.8690   32.3710 N   0  0  0  0  0  0  0  0  0  0  0  0
   35.0060   26.5740   31.5070 H   0  0  0  0  0  0  0  0  0  0  0  0
   36.3080   28.7850   32.8250 C   0  0  0  0  0  0  0  0  0  0  0  0
   35.8110   29.1360   34.0770 C   0  0  0  0  0  0  0  0  0  0  0  0
   35.7010   28.3860   34.8730 H   0  0  0  0  0  0  0  0  0  0  0  0
   35.4170   30.4010   34.4460 C   0  0  0  0  0  3  0  0  0  0  0  0
   35.5080   31.4230   33.5300 C   0  0  0  0  0  3  0  0  0  0  0  0
   35.9900   31.1460   32.2700 C   0  0  0  0  0  0  0  0  0  0  0  0
   36.0620   32.1340   31.3150 C   0  0  0  0  0  3  0  0  0  0  0  0
   36.5050   31.8880   30.0170 C   0  0  0  0  0  3  0  0  0  0  0  0
   36.8750   30.5670   29.7370 C   0  0  0  0  0  3  0  0  0  0  0  0
   36.7910   29.6060   30.7180 C   0  0  0  0  0  3  0  0  0  0  0  0
   36.3570   29.8570   31.9920 C   0  0  0  0  0  0  0  0  0  0  0  0
   35.6980   24.0920   31.1230 C   0  0  0  0  0  0  0  0  0  0  0  0
   35.0940   23.2520   32.0800 F   0  0  0  0  0  0  0  0  0  0  0  0
   34.7850   24.7030   30.3590 F   0  0  0  0  0  0  0  0  0  0  0  0
   36.5650   23.3010   30.4130 F   0  0  0  0  0  0  0  0  0  0  0  0
  1  6  1  0  0  0  0
  2  3  1  0  0  0  0
  2  1  2  0  0  0  0
  3  4  2  0  0  0  0
  4  9  1  0  0  0  0
  4  5  1  0  0  0  0
  5 10  1  0  0  0  0
  6  5  2  0  0  0  0
  6 11  1  0  0  0  0
  7  2  1  0  0  0  0
  8  3  1  0  0  0  0
 11 12  1  0  0  0  0
 12 17  1  0  0  0  0
 12 13  1  0  0  0  0
 13 20  1  0  0  0  0
 13 19  1  0  0  0  0
 14 13  1  0  0  0  0
 14 21  1  0  0  0  0
 15 14  1  0  0  0  0
 16 11  1  0  0  0  0
 16 15  1  0  0  0  0
 18 12  1  0  0  0  0
 22 15  1  0  0  0  0
 23 15  1  0  0  0  0
 24 16  1  0  0  0  0
 25 16  1  0  0  0  0
 26 27  2  0  0  0  0
 26 31  1  0  0  0  0
 27 28  1  0  0  0  0
 28 33  1  0  0  0  0
 28 29  2  0  0  0  0
 30 29  1  0  0  0  0
 30  1  1  0  0  0  0
 31 30  2  0  0  0  0
 32 27  1  0  0  0  0
 33 34  1  0  0  0  0
 34 36  2  0  0  0  0
 34 35  1  0  0  0  0
 37 36  1  0  0  0  0
 38 37  2  0  0  0  0
 39 38  1  0  0  0  0
 40 39  2  0  0  0  0
 41 40  1  0  0  0  0
 41 42  2  0  0  0  0
 42 43  1  0  0  0  0
 43 38  1  0  0  0  0
 43 33  2  0  0  0  0
 44 26  1  0  0  0  0
 44 45  1  0  0  0  0
 46 44  1  0  0  0  0
 47 44  1  0  0  0  0
M  END
>  <minimizedAffinity>
-7.09481955

$$$$

 OpenBabel03272505423D

 47 51  0  0  0  0  0  0  0  0999 V2000
   39.9330   24.9040   33.4100 C   0  0  0  0  0  0  0  0  0  0  0  0
   41.1270   25.1870   32.7600 C   0  0  0  0  0  0  0  0  0  0  0  0
   42.3230   25.0210   33.4390 C   0  0  0  0  0  0  0  0  0  0  0  0
   42.4080   24.5870   34.7370 C   0  0  0  0  0  0  0  0  0  0  0  0
   41.2190   24.3040   35.3860 C   0  0  0  0  0  0  0  0  0  0  0  0
   40.0340   24.4750   34.6940 C   0  0  0  0  0  0  0  0  0  0  0  0
   41.1410   25.5340   31.7330 H   0  0  0  0  0  0  0  0  0  0  0  0
   43.2480   25.2510   32.9040 H   0  0  0  0  0  0  0  0  0  0  0  0
   43.3770   24.4760   35.2190 H   0  0  0  0  0  0  0  0  0  0  0  0
   41.3250   23.9650   36.4060 H   0  0  0  0  0  0  0  0  0  0  0  0
   38.9200   24.1390   35.5180 N   0  0  0  0  0  0  0  0  0  0  0  0
   37.9610   24.8080   36.3460 C   0  0  0  0  0  0  0  0  0  0  0  0
   38.0230   24.1660   37.7120 C   0  0  0  0  0  0  0  0  0  0  0  0
   37.4780   22.8320   37.6090 N   0  0  0  0  0  0  0  0  0  0  0  0
   37.5450   22.2760   36.3030 C   0  0  0  0  0  0  0  0  0  0  0  0
   38.7180   22.7100   35.4870 C   0  0  0  0  0  0  0  0  0  0  0  0
   38.1890   25.8920   36.4420 H   0  0  0  0  0  0  0  0  0  0  0  0
   36.9230   24.7360   35.9650 H   0  0  0  0  0  0  0  0  0  0  0  0
   38.7940   24.3870   38.3800 H   0  0  0  0  0  0  0  0  0  0  0  0
   37.1490   24.7240   38.2080 H   0  0  0  0  0  0  0  0  0  0  0  0
   36.5610   22.6710   38.0210 H   0  0  0  0  0  0  0  0  0  0  0  0
   36.5740   22.5020   35.7870 H   0  0  0  0  0  0  0  0  0  0  0  0
   37.5870   21.1670   36.4090 H   0  0  0  0  0  0  0  0  0  0  0  0
   38.3600   22.5460   34.4200 H   0  0  0  0  0  0  0  0  0  0  0  0
   39.6020   22.0850   35.5300 H   0  0  0  0  0  0  0  0  0  0  0  0
   36.7740   24.1940   31.7140 C   0  0  0  0  0  0  0  0  0  0  0  0
   36.3140   25.4730   31.3970 C   0  0  0  0  0  0  0  0  0  0  0  0
   37.0810   26.5750   31.7660 C   0  0  0  0  0  0  0  0  0  0  0  0
   38.2470   26.2870   32.4220 N   0  0  0  0  0  0  0  0  0  0  0  0
   38.6830   25.0730   32.7220 C   0  0  0  0  0  0  0  0  0  0  0  0
   37.9240   24.0280   32.3560 N   0  0  0  0  0  0  0  0  0  0  0  0
   35.4160   25.5490   30.8450 H   0  0  0  0  0  0  0  0  0  0  0  0
   36.8460   27.9710   31.4850 C   0  0  0  0  0  0  0  0  0  0  0  0
   37.1780   28.4040   30.2040 C   0  0  0  0  0  0  0  0  0  0  0  0
   37.5860   27.7070   29.4590 H   0  0  0  0  0  0  0  0  0  0  0  0
   37.0410   29.6930   29.7440 C   0  0  0  0  0  3  0  0  0  0  0  0
   36.5410   30.6550   30.5900 C   0  0  0  0  0  3  0  0  0  0  0  0
   36.1940   30.2960   31.8740 C   0  0  0  0  0  0  0  0  0  0  0  0
   35.7240   31.2370   32.7610 C   0  0  0  0  0  3  0  0  0  0  0  0
   35.4000   30.9260   34.0800 C   0  0  0  0  0  3  0  0  0  0  0  0
   35.5820   29.5880   34.4550 C   0  0  0  0  0  3  0  0  0  0  0  0
   36.0530   28.6750   33.5400 C   0  0  0  0  0  3  0  0  0  0  0  0
   36.3660   28.9900   32.2440 C   0  0  0  0  0  0  0  0  0  0  0  0
   35.9170   23.0320   31.2940 C   0  0  0  0  0  0  0  0  0  0  0  0
   35.4200   22.4130   32.4580 F   0  0  0  0  0  0  0  0  0  0  0  0
   34.9260   23.4790   30.5140 F   0  0  0  0  0  0  0  0  0  0  0  0
   36.7190   22.1040   30.6810 F   0  0  0  0  0  0  0  0  0  0  0  0
  1  6  1  0  0  0  0
  2  1  2  0  0  0  0
  2  3  1  0  0  0  0
  3  4  2  0  0  0  0
  4  9  1  0  0  0  0
  4  5  1  0  0  0  0
  5 10  1  0  0  0  0
  6  5  2  0  0  0  0
  6 11  1  0  0  0  0
  7  2  1  0  0  0  0
  8  3  1  0  0  0  0
 11 12  1  0  0  0  0
 12 17  1  0  0  0  0
 12 13  1  0  0  0  0
 13 20  1  0  0  0  0
 13 19  1  0  0  0  0
 14 13  1  0  0  0  0
 14 21  1  0  0  0  0
 15 23  1  0  0  0  0
 15 14  1  0  0  0  0
 16 11  1  0  0  0  0
 16 25  1  0  0  0  0
 16 15  1  0  0  0  0
 18 12  1  0  0  0  0
 22 15  1  0  0  0  0
 24 16  1  0  0  0  0
 26 31  1  0  0  0  0
 27 26  2  0  0  0  0
 27 28  1  0  0  0  0
 28 29  2  0  0  0  0
 29 30  1  0  0  0  0
 30  1  1  0  0  0  0
 31 30  2  0  0  0  0
 32 27  1  0  0  0  0
 33 28  1  0  0  0  0
 33 43  1  0  0  0  0
 34 33  2  0  0  0  0
 35 34  1  0  0  0  0
 36 34  1  0  0  0  0
 36 37  2  0  0  0  0
 37 38  1  0  0  0  0
 38 43  2  0  0  0  0
 38 39  1  0  0  0  0
 39 40  2  0  0  0  0
 40 41  1  0  0  0  0
 42 41  2  0  0  0  0
 43 42  1  0  0  0  0
 44 26  1  0  0  0  0
 44 45  1  0  0  0  0
 46 44  1  0  0  0  0
 47 44  1  0  0  0  0
M  END
>  <minimizedAffinity>
-7.00870562

$$$$

 OpenBabel03272505423D

 47 51  0  0  0  0  0  0  0  0999 V2000
   40.7690   25.0620   34.8210 C   0  0  0  0  0  0  0  0  0  0  0  0
   42.0690   24.5750   34.7960 C   0  0  0  0  0  0  0  0  0  0  0  0
   43.0730   25.3560   34.2480 C   0  0  0  0  0  0  0  0  0  0  0  0
   42.8640   26.6040   33.7180 C   0  0  0  0  0  0  0  0  0  0  0  0
   41.5690   27.0900   33.7440 C   0  0  0  0  0  0  0  0  0  0  0  0
   40.5780   26.2980   34.2940 C   0  0  0  0  0  0  0  0  0  0  0  0
   42.3120   23.5970   35.1960 H   0  0  0  0  0  0  0  0  0  0  0  0
   44.0870   24.9480   34.2400 H   0  0  0  0  0  0  0  0  0  0  0  0
   43.6940   27.1720   33.3010 H   0  0  0  0  0  0  0  0  0  0  0  0
   41.4430   28.0750   33.3180 H   0  0  0  0  0  0  0  0  0  0  0  0
   39.3170   26.9590   34.2320 N   0  0  0  0  0  0  0  0  0  0  0  0
   38.3530   27.5110   35.1360 C   0  0  0  0  0  0  0  0  0  0  0  0
   37.0220   26.8680   34.8220 C   0  0  0  0  0  0  0  0  0  0  0  0
   36.5740   27.3600   33.5400 N   0  0  0  0  0  0  0  0  0  0  0  0
   37.6200   27.8200   32.6950 C   0  0  0  0  0  0  0  0  0  0  0  0
   38.9230   27.1060   32.8500 C   0  0  0  0  0  0  0  0  0  0  0  0
   38.6180   27.3020   36.1950 H   0  0  0  0  0  0  0  0  0  0  0  0
   38.2460   28.6110   35.0480 H   0  0  0  0  0  0  0  0  0  0  0  0
   36.8020   25.8980   35.1370 H   0  0  0  0  0  0  0  0  0  0  0  0
   36.3590   27.4760   35.5360 H   0  0  0  0  0  0  0  0  0  0  0  0
   35.7970   28.0180   33.5390 H   0  0  0  0  0  0  0  0  0  0  0  0
   37.7310   28.9250   32.8630 H   0  0  0  0  0  0  0  0  0  0  0  0
   37.2820   27.7000   31.6400 H   0  0  0  0  0  0  0  0  0  0  0  0
   39.6770   27.8670   32.4710 H   0  0  0  0  0  0  0  0  0  0  0  0
   39.0990   26.2620   32.1940 H   0  0  0  0  0  0  0  0  0  0  0  0
   38.4480   23.5460   37.2040 C   0  0  0  0  0  0  0  0  0  0  0  0
   37.6960   22.7010   36.3870 C   0  0  0  0  0  0  0  0  0  0  0  0
   37.9790   22.6520   35.0250 C   0  0  0  0  0  0  0  0  0  0  0  0
   39.0000   23.4630   34.6080 N   0  0  0  0  0  0  0  0  0  0  0  0
   39.7140   24.2640   35.3830 C   0  0  0  0  0  0  0  0  0  0  0  0
   39.4200   24.2920   36.6930 N   0  0  0  0  0  0  0  0  0  0  0  0
   36.9650   22.0930   36.8500 H   0  0  0  0  0  0  0  0  0  0  0  0
   37.3890   21.8110   34.0110 C   0  0  0  0  0  0  0  0  0  0  0  0
   36.2280   21.1340   34.3740 C   0  0  0  0  0  0  0  0  0  0  0  0
   35.7950   21.2520   35.3770 H   0  0  0  0  0  0  0  0  0  0  0  0
   35.5230   20.2790   33.5600 C   0  0  0  0  0  3  0  0  0  0  0  0
   35.9730   20.0520   32.2800 C   0  0  0  0  0  3  0  0  0  0  0  0
   37.1180   20.6890   31.8560 C   0  0  0  0  0  0  0  0  0  0  0  0
   37.6200   20.4600   30.5940 C   0  0  0  0  0  3  0  0  0  0  0  0
   38.7960   21.0510   30.1380 C   0  0  0  0  0  3  0  0  0  0  0  0
   39.4450   21.8990   31.0450 C   0  0  0  0  0  3  0  0  0  0  0  0
   38.9130   22.1040   32.2970 C   0  0  0  0  0  3  0  0  0  0  0  0
   37.7540   21.5210   32.7360 C   0  0  0  0  0  0  0  0  0  0  0  0
   38.1120   23.5640   38.6700 C   0  0  0  0  0  0  0  0  0  0  0  0
   37.6400   24.8520   38.9930 F   0  0  0  0  0  0  0  0  0  0  0  0
   37.1900   22.6260   38.9180 F   0  0  0  0  0  0  0  0  0  0  0  0
   39.2720   23.3930   39.3810 F   0  0  0  0  0  0  0  0  0  0  0  0
  1 30  1  0  0  0  0
  2  1  1  0  0  0  0
  2  7  1  0  0  0  0
  3  2  2  0  0  0  0
  4  5  2  0  0  0  0
  4  3  1  0  0  0  0
  5  6  1  0  0  0  0
  6  1  2  0  0  0  0
  8  3  1  0  0  0  0
  9  4  1  0  0  0  0
 10  5  1  0  0  0  0
 11  6  1  0  0  0  0
 11 12  1  0  0  0  0
 12 17  1  0  0  0  0
 13 12  1  0  0  0  0
 13 19  1  0  0  0  0
 13 20  1  0  0  0  0
 14 13  1  0  0  0  0
 15 16  1  0  0  0  0
 15 22  1  0  0  0  0
 15 14  1  0  0  0  0
 16 11  1  0  0  0  0
 18 12  1  0  0  0  0
 21 14  1  0  0  0  0
 23 15  1  0  0  0  0
 24 16  1  0  0  0  0
 25 16  1  0  0  0  0
 26 44  1  0  0  0  0
 27 32  1  0  0  0  0
 27 26  2  0  0  0  0
 28 27  1  0  0  0  0
 29 28  2  0  0  0  0
 29 30  1  0  0  0  0
 30 31  2  0  0  0  0
 31 26  1  0  0  0  0
 33 34  1  0  0  0  0
 33 28  1  0  0  0  0
 34 35  1  0  0  0  0
 36 34  2  0  0  0  0
 37 36  1  0  0  0  0
 38 37  2  0  0  0  0
 38 43  1  0  0  0  0
 39 38  1  0  0  0  0
 40 39  2  0  0  0  0
 40 41  1  0  0  0  0
 41 42  2  0  0  0  0
 42 43  1  0  0  0  0
 43 33  2  0  0  0  0
 44 46  1  0  0  0  0
 44 45  1  0  0  0  0
 44 47  1  0  0  0  0
M  END
>  <minimizedAffinity>
-6.99147081

$$$$

 OpenBabel03272505423D

 47 51  0  0  0  0  0  0  0  0999 V2000
   38.8990   25.4870   30.8750 C   0  0  0  0  0  0  0  0  0  0  0  0
   39.9390   25.3440   29.9660 C   0  0  0  0  0  0  0  0  0  0  0  0
   40.3880   26.4550   29.2720 C   0  0  0  0  0  0  0  0  0  0  0  0
   39.8620   27.7130   29.4260 C   0  0  0  0  0  0  0  0  0  0  0  0
   38.8260   27.8560   30.3310 C   0  0  0  0  0  0  0  0  0  0  0  0
   38.3890   26.7370   31.0160 C   0  0  0  0  0  0  0  0  0  0  0  0
   40.4060   24.3810   29.7910 H   0  0  0  0  0  0  0  0  0  0  0  0
   41.2070   26.3150   28.5630 H   0  0  0  0  0  0  0  0  0  0  0  0
   40.2560   28.5490   28.8520 H   0  0  0  0  0  0  0  0  0  0  0  0
   38.4370   28.8600   30.4260 H   0  0  0  0  0  0  0  0  0  0  0  0
   37.3210   27.0740   31.8980 N   0  0  0  0  0  0  0  0  0  0  0  0
   35.8920   27.1620   31.8630 C   0  0  0  0  0  0  0  0  0  0  0  0
   35.5170   28.5520   32.3200 C   0  0  0  0  0  0  0  0  0  0  0  0
   35.8070   28.6570   33.7310 N   0  0  0  0  0  0  0  0  0  0  0  0
   36.8020   27.7510   34.1900 C   0  0  0  0  0  0  0  0  0  0  0  0
   37.8620   27.4140   33.1930 C   0  0  0  0  0  0  0  0  0  0  0  0
   35.4970   26.9960   30.8370 H   0  0  0  0  0  0  0  0  0  0  0  0
   35.3890   26.4230   32.5180 H   0  0  0  0  0  0  0  0  0  0  0  0
   35.6100   29.3750   31.6850 H   0  0  0  0  0  0  0  0  0  0  0  0
   34.3740   28.4290   32.3380 H   0  0  0  0  0  0  0  0  0  0  0  0
   35.0140   28.6710   34.3700 H   0  0  0  0  0  0  0  0  0  0  0  0
   36.2770   26.8320   34.5640 H   0  0  0  0  0  0  0  0  0  0  0  0
   37.2940   28.2090   35.0780 H   0  0  0  0  0  0  0  0  0  0  0  0
   38.2450   26.4080   33.5600 H   0  0  0  0  0  0  0  0  0  0  0  0
   38.7590   28.0210   33.2090 H   0  0  0  0  0  0  0  0  0  0  0  0
   36.9020   22.5950   31.8840 C   0  0  0  0  0  0  0  0  0  0  0  0
   37.5480   22.1810   33.0490 C   0  0  0  0  0  0  0  0  0  0  0  0
   38.6660   22.8870   33.4870 C   0  0  0  0  0  0  0  0  0  0  0  0
   39.0320   23.9510   32.7070 N   0  0  0  0  0  0  0  0  0  0  0  0
   38.4180   24.3430   31.6020 C   0  0  0  0  0  0  0  0  0  0  0  0
   37.3430   23.6450   31.2020 N   0  0  0  0  0  0  0  0  0  0  0  0
   37.1310   21.3690   33.5800 H   0  0  0  0  0  0  0  0  0  0  0  0
   39.4440   22.6900   34.6870 C   0  0  0  0  0  0  0  0  0  0  0  0
   40.6690   22.0480   34.5250 C   0  0  0  0  0  0  0  0  0  0  0  0
   41.0120   21.7240   33.5330 H   0  0  0  0  0  0  0  0  0  0  0  0
   41.5500   21.7560   35.5410 C   0  0  0  0  0  3  0  0  0  0  0  0
   41.2260   22.1130   36.8290 C   0  0  0  0  0  3  0  0  0  0  0  0
   40.0270   22.7490   37.0610 C   0  0  0  0  0  0  0  0  0  0  0  0
   39.6500   23.0900   38.3400 C   0  0  0  0  0  3  0  0  0  0  0  0
   38.4290   23.6980   38.6240 C   0  0  0  0  0  3  0  0  0  0  0  0
   37.5990   23.9450   37.5230 C   0  0  0  0  0  3  0  0  0  0  0  0
   38.0090   23.5920   36.2590 C   0  0  0  0  0  3  0  0  0  0  0  0
   39.2130   22.9970   35.9890 C   0  0  0  0  0  0  0  0  0  0  0  0
   35.6970   21.8080   31.4500 C   0  0  0  0  0  0  0  0  0  0  0  0
   36.1480   20.6560   30.7750 F   0  0  0  0  0  0  0  0  0  0  0  0
   34.9680   21.4930   32.5270 F   0  0  0  0  0  0  0  0  0  0  0  0
   35.0090   22.5480   30.5220 F   0  0  0  0  0  0  0  0  0  0  0  0
  1  6  1  0  0  0  0
  1 30  1  0  0  0  0
  2  1  2  0  0  0  0
  3  4  2  0  0  0  0
  3  2  1  0  0  0  0
  4  5  1  0  0  0  0
  5 10  1  0  0  0  0
  5  6  2  0  0  0  0
  6 11  1  0  0  0  0
  7  2  1  0  0  0  0
  8  3  1  0  0  0  0
  9  4  1  0  0  0  0
 11 16  1  0  0  0  0
 12 11  1  0  0  0  0
 12 13  1  0  0  0  0
 12 18  1  0  0  0  0
 13 20  1  0  0  0  0
 13 14  1  0  0  0  0
 14 15  1  0  0  0  0
 14 21  1  0  0  0  0
 15 22  1  0  0  0  0
 15 23  1  0  0  0  0
 16 25  1  0  0  0  0
 16 24  1  0  0  0  0
 16 15  1  0  0  0  0
 17 12  1  0  0  0  0
 19 13  1  0  0  0  0
 26 27  1  0  0  0  0
 27 28  2  0  0  0  0
 27 32  1  0  0  0  0
 28 33  1  0  0  0  0
 29 28  1  0  0  0  0
 30 29  2  0  0  0  0
 31 30  1  0  0  0  0
 31 26  2  0  0  0  0
 33 43  1  0  0  0  0
 34 33  2  0  0  0  0
 34 36  1  0  0  0  0
 35 34  1  0  0  0  0
 36 37  2  0  0  0  0
 37 38  1  0  0  0  0
 38 39  1  0  0  0  0
 39 40  2  0  0  0  0
 41 40  1  0  0  0  0
 42 41  2  0  0  0  0
 43 42  1  0  0  0  0
 43 38  2  0  0  0  0
 44 26  1  0  0  0  0
 44 46  1  0  0  0  0
 45 44  1  0  0  0  0
 47 44  1  0  0  0  0
M  END
>  <minimizedAffinity>
-6.83678627

$$$$

 OpenBabel03272505423D

 47 51  0  0  0  0  0  0  0  0999 V2000
   38.4500   24.0020   36.0980 C   0  0  0  0  0  0  0  0  0  0  0  0
   37.4790   24.1310   37.0820 C   0  0  0  0  0  0  0  0  0  0  0  0
   37.7880   23.7840   38.3870 C   0  0  0  0  0  0  0  0  0  0  0  0
   39.0140   23.3100   38.7790 C   0  0  0  0  0  0  0  0  0  0  0  0
   39.9820   23.1810   37.7990 C   0  0  0  0  0  0  0  0  0  0  0  0
   39.6580   23.5330   36.5020 C   0  0  0  0  0  0  0  0  0  0  0  0
   36.4860   24.4990   36.8490 H   0  0  0  0  0  0  0  0  0  0  0  0
   37.0050   23.8940   39.1410 H   0  0  0  0  0  0  0  0  0  0  0  0
   39.1980   23.0530   39.8200 H   0  0  0  0  0  0  0  0  0  0  0  0
   40.9350   22.8060   38.1460 H   0  0  0  0  0  0  0  0  0  0  0  0
   40.7730   23.3330   35.6360 N   0  0  0  0  0  0  0  0  0  0  0  0
   41.7230   24.1270   34.9150 C   0  0  0  0  0  0  0  0  0  0  0  0
   41.6640   23.6960   33.4680 C   0  0  0  0  0  0  0  0  0  0  0  0
   42.2200   22.3670   33.3710 N   0  0  0  0  0  0  0  0  0  0  0  0
   42.1620   21.6210   34.5790 C   0  0  0  0  0  0  0  0  0  0  0  0
   40.9870   21.9170   35.4530 C   0  0  0  0  0  0  0  0  0  0  0  0
   41.4860   25.2110   34.9830 H   0  0  0  0  0  0  0  0  0  0  0  0
   42.7630   24.0080   35.2810 H   0  0  0  0  0  0  0  0  0  0  0  0
   40.8890   24.0070   32.8430 H   0  0  0  0  0  0  0  0  0  0  0  0
   42.5310   24.3300   33.0600 H   0  0  0  0  0  0  0  0  0  0  0  0
   43.1380   22.2770   32.9380 H   0  0  0  0  0  0  0  0  0  0  0  0
   43.1320   21.7760   35.1210 H   0  0  0  0  0  0  0  0  0  0  0  0
   42.1290   20.5400   34.3090 H   0  0  0  0  0  0  0  0  0  0  0  0
   41.3490   21.5990   36.4820 H   0  0  0  0  0  0  0  0  0  0  0  0
   40.1080   21.2980   35.3170 H   0  0  0  0  0  0  0  0  0  0  0  0
   37.5900   25.9350   33.1170 C   0  0  0  0  0  0  0  0  0  0  0  0
   37.5590   24.9520   32.1260 C   0  0  0  0  0  0  0  0  0  0  0  0
   37.8350   23.6330   32.4760 C   0  0  0  0  0  0  0  0  0  0  0  0
   38.1170   23.4220   33.7990 N   0  0  0  0  0  0  0  0  0  0  0  0
   38.1470   24.3550   34.7380 C   0  0  0  0  0  0  0  0  0  0  0  0
   37.8770   25.6190   34.3740 N   0  0  0  0  0  0  0  0  0  0  0  0
   37.2810   25.2470   31.1500 H   0  0  0  0  0  0  0  0  0  0  0  0
   37.7920   22.4520   31.6470 C   0  0  0  0  0  0  0  0  0  0  0  0
   38.7510   22.3740   30.6410 C   0  0  0  0  0  0  0  0  0  0  0  0
   39.4960   23.1700   30.5060 H   0  0  0  0  0  0  0  0  0  0  0  0
   38.8720   21.3410   29.7410 C   0  0  0  0  0  3  0  0  0  0  0  0
   37.9910   20.2860   29.8120 C   0  0  0  0  0  3  0  0  0  0  0  0
   37.0150   20.3010   30.7830 C   0  0  0  0  0  0  0  0  0  0  0  0
   36.0930   19.2820   30.8630 C   0  0  0  0  0  3  0  0  0  0  0  0
   35.0640   19.2760   31.8040 C   0  0  0  0  0  3  0  0  0  0  0  0
   35.0210   20.3770   32.6690 C   0  0  0  0  0  3  0  0  0  0  0  0
   35.9610   21.3760   32.5590 C   0  0  0  0  0  3  0  0  0  0  0  0
   36.9700   21.3720   31.6340 C   0  0  0  0  0  0  0  0  0  0  0  0
   37.2830   27.3450   32.6960 C   0  0  0  0  0  0  0  0  0  0  0  0
   38.4400   27.8840   32.0990 F   0  0  0  0  0  0  0  0  0  0  0  0
   36.2500   27.3320   31.8450 F   0  0  0  0  0  0  0  0  0  0  0  0
   37.0520   28.0910   33.8240 F   0  0  0  0  0  0  0  0  0  0  0  0
  1  6  2  0  0  0  0
  1  2  1  0  0  0  0
  2  3  2  0  0  0  0
  3  4  1  0  0  0  0
  3  8  1  0  0  0  0
  4  9  1  0  0  0  0
  5 10  1  0  0  0  0
  5  4  2  0  0  0  0
  6  5  1  0  0  0  0
  7  2  1  0  0  0  0
 11  6  1  0  0  0  0
 12 17  1  0  0  0  0
 12 18  1  0  0  0  0
 12 11  1  0  0  0  0
 13 12  1  0  0  0  0
 14 13  1  0  0  0  0
 14 15  1  0  0  0  0
 15 22  1  0  0  0  0
 15 16  1  0  0  0  0
 16 11  1  0  0  0  0
 16 24  1  0  0  0  0
 19 13  1  0  0  0  0
 20 13  1  0  0  0  0
 21 14  1  0  0  0  0
 23 15  1  0  0  0  0
 25 16  1  0  0  0  0
 26 31  1  0  0  0  0
 27 28  1  0  0  0  0
 27 26  2  0  0  0  0
 28 29  2  0  0  0  0
 29 30  1  0  0  0  0
 30  1  1  0  0  0  0
 31 30  2  0  0  0  0
 32 27  1  0  0  0  0
 33 28  1  0  0  0  0
 34 33  2  0  0  0  0
 35 34  1  0  0  0  0
 36 37  2  0  0  0  0
 36 34  1  0  0  0  0
 37 38  1  0  0  0  0
 38 39  2  0  0  0  0
 38 43  1  0  0  0  0
 39 40  1  0  0  0  0
 40 41  2  0  0  0  0
 42 41  1  0  0  0  0
 43 33  1  0  0  0  0
 43 42  2  0  0  0  0
 44 26  1  0  0  0  0
 44 47  1  0  0  0  0
 45 44  1  0  0  0  0
 46 44  1  0  0  0  0
M  END
>  <minimizedAffinity>
-6.81875896

$$$$
