
 OpenBabel03272506353D

 21 23  0  0  0  0  0  0  0  0999 V2000
   38.5220   25.4640   35.2670 C   0  0  0  0  0  0  0  0  0  0  0  0
   38.3510   26.7490   35.7750 C   0  0  0  0  0  0  0  0  0  0  0  0
   38.8400   26.9760   36.7300 H   0  0  0  0  0  0  0  0  0  0  0  0
   37.6270   27.7340   35.1780 C   0  0  0  0  0  3  0  0  0  0  0  0
   37.0000   27.4940   33.9850 C   0  0  0  0  0  3  0  0  0  0  0  0
   37.1220   26.2480   33.4170 C   0  0  0  0  0  0  0  0  0  0  0  0
   36.4680   26.0680   32.2180 C   0  0  0  0  0  3  0  0  0  0  0  0
   36.5460   24.8470   31.5930 C   0  0  0  0  0  3  0  0  0  0  0  0
   37.2860   23.8420   32.2060 C   0  0  0  0  0  3  0  0  0  0  0  0
   37.9120   24.0990   33.4050 C   0  0  0  0  0  3  0  0  0  0  0  0
   37.8670   25.2940   34.0680 C   0  0  0  0  0  0  0  0  0  0  0  0
   39.2090   23.0290   37.8090 C   0  0  0  0  0  0  0  0  0  0  0  0
   40.4280   22.4350   37.5080 C   0  0  0  0  0  0  0  0  0  0  0  0
   41.0500   22.8980   36.3660 C   0  0  0  0  0  0  0  0  0  0  0  0
   40.4710   23.8630   35.6280 N   0  0  0  0  0  0  0  0  0  0  0  0
   39.2960   24.4340   35.9190 C   0  0  0  0  0  0  0  0  0  0  0  0
   38.7250   23.9730   37.0130 N   0  0  0  0  0  0  0  0  0  0  0  0
   40.9390   21.6610   38.0610 H   0  0  0  0  0  0  0  0  0  0  0  0
   41.9910   22.5140   36.0400 H   0  0  0  0  0  0  0  0  0  0  0  0
   38.5730   22.5580   38.9710 O   0  0  0  0  0  0  0  0  0  0  0  0
   38.1960   21.6170   38.9990 H   0  0  0  0  0  0  0  0  0  0  0  0
  1  2  1  0  0  0  0
  1 16  1  0  0  0  0
  2  3  1  0  0  0  0
  4  2  2  0  0  0  0
  5  4  1  0  0  0  0
  6  5  2  0  0  0  0
  6 11  1  0  0  0  0
  7  6  1  0  0  0  0
  8  9  1  0  0  0  0
  8  7  2  0  0  0  0
  9 10  2  0  0  0  0
 10 11  1  0  0  0  0
 11  1  2  0  0  0  0
 12 20  1  0  0  0  0
 13 12  1  0  0  0  0
 13 18  1  0  0  0  0
 14 13  2  0  0  0  0
 15 16  2  0  0  0  0
 15 14  1  0  0  0  0
 16 17  1  0  0  0  0
 17 12  2  0  0  0  0
 19 14  1  0  0  0  0
 20 21  1  0  0  0  0
M  END
>  <minimizedAffinity>
-5.68245697

$$$$

 OpenBabel03272506353D

 21 23  0  0  0  0  0  0  0  0999 V2000
   39.0960   24.9930   34.8230 C   0  0  0  0  0  0  0  0  0  0  0  0
   40.0560   24.4820   33.9540 C   0  0  0  0  0  0  0  0  0  0  0  0
   40.6780   23.6590   34.3260 H   0  0  0  0  0  0  0  0  0  0  0  0
   40.2760   24.9250   32.6870 C   0  0  0  0  0  3  0  0  0  0  0  0
   39.5230   25.9510   32.1810 C   0  0  0  0  0  3  0  0  0  0  0  0
   38.5530   26.5090   32.9780 C   0  0  0  0  0  0  0  0  0  0  0  0
   37.8290   27.5370   32.4130 C   0  0  0  0  0  3  0  0  0  0  0  0
   36.8430   28.1420   33.1540 C   0  0  0  0  0  3  0  0  0  0  0  0
   36.6200   27.6870   34.4480 C   0  0  0  0  0  3  0  0  0  0  0  0
   37.3850   26.6540   34.9420 C   0  0  0  0  0  3  0  0  0  0  0  0
   38.3770   26.0180   34.2500 C   0  0  0  0  0  0  0  0  0  0  0  0
   39.6700   22.8390   37.6320 C   0  0  0  0  0  0  0  0  0  0  0  0
   38.8130   23.2340   38.6520 C   0  0  0  0  0  0  0  0  0  0  0  0
   37.9890   24.3020   38.3560 C   0  0  0  0  0  0  0  0  0  0  0  0
   38.0530   24.8870   37.1450 N   0  0  0  0  0  0  0  0  0  0  0  0
   38.8800   24.5050   36.1640 C   0  0  0  0  0  0  0  0  0  0  0  0
   39.6530   23.4840   36.4740 N   0  0  0  0  0  0  0  0  0  0  0  0
   38.7180   22.8050   39.6370 H   0  0  0  0  0  0  0  0  0  0  0  0
   37.2900   24.6890   39.0640 H   0  0  0  0  0  0  0  0  0  0  0  0
   40.5100   21.7520   37.9310 O   0  0  0  0  0  0  0  0  0  0  0  0
   41.2580   21.8580   38.6070 H   0  0  0  0  0  0  0  0  0  0  0  0
  1 16  1  0  0  0  0
  2  3  1  0  0  0  0
  2  1  2  0  0  0  0
  4  2  1  0  0  0  0
  5  4  2  0  0  0  0
  5  6  1  0  0  0  0
  6 11  1  0  0  0  0
  7  6  2  0  0  0  0
  7  8  1  0  0  0  0
  8  9  2  0  0  0  0
  9 10  1  0  0  0  0
 11  1  1  0  0  0  0
 11 10  2  0  0  0  0
 12 20  1  0  0  0  0
 12 13  1  0  0  0  0
 13 18  1  0  0  0  0
 14 13  2  0  0  0  0
 14 19  1  0  0  0  0
 15 14  1  0  0  0  0
 16 17  1  0  0  0  0
 16 15  2  0  0  0  0
 17 12  2  0  0  0  0
 20 21  1  0  0  0  0
M  END
>  <minimizedAffinity>
-5.52096415

$$$$

 OpenBabel03272506353D

 21 23  0  0  0  0  0  0  0  0999 V2000
   38.5910   24.2120   34.4650 C   0  0  0  0  0  0  0  0  0  0  0  0
   38.1290   23.5330   33.3410 C   0  0  0  0  0  0  0  0  0  0  0  0
   38.4650   22.4970   33.2100 H   0  0  0  0  0  0  0  0  0  0  0  0
   37.2970   24.0570   32.4010 C   0  0  0  0  0  3  0  0  0  0  0  0
   36.8520   25.3460   32.5240 C   0  0  0  0  0  3  0  0  0  0  0  0
   37.2630   26.0830   33.6090 C   0  0  0  0  0  0  0  0  0  0  0  0
   36.7820   27.3720   33.6770 C   0  0  0  0  0  3  0  0  0  0  0  0
   37.1530   28.1660   34.7350 C   0  0  0  0  0  3  0  0  0  0  0  0
   38.0040   27.6280   35.6940 C   0  0  0  0  0  3  0  0  0  0  0  0
   38.4420   26.3290   35.5560 C   0  0  0  0  0  3  0  0  0  0  0  0
   38.1040   25.4970   34.5250 C   0  0  0  0  0  0  0  0  0  0  0  0
   39.4410   22.8550   37.6750 C   0  0  0  0  0  0  0  0  0  0  0  0
   40.7870   22.5120   37.6470 C   0  0  0  0  0  0  0  0  0  0  0  0
   41.4400   22.7620   36.4560 C   0  0  0  0  0  0  0  0  0  0  0  0
   40.7710   23.3030   35.4210 N   0  0  0  0  0  0  0  0  0  0  0  0
   39.4740   23.6330   35.4500 C   0  0  0  0  0  0  0  0  0  0  0  0
   38.8760   23.3840   36.5970 N   0  0  0  0  0  0  0  0  0  0  0  0
   41.3740   22.0780   38.4420 H   0  0  0  0  0  0  0  0  0  0  0  0
   42.4760   22.5390   36.3230 H   0  0  0  0  0  0  0  0  0  0  0  0
   38.7740   22.6010   38.8850 O   0  0  0  0  0  0  0  0  0  0  0  0
   38.6030   21.6460   39.1820 H   0  0  0  0  0  0  0  0  0  0  0  0
  1 11  1  0  0  0  0
  1 16  1  0  0  0  0
  2  1  2  0  0  0  0
  3  2  1  0  0  0  0
  4  5  2  0  0  0  0
  4  2  1  0  0  0  0
  5  6  1  0  0  0  0
  6  7  2  0  0  0  0
  6 11  1  0  0  0  0
  7  8  1  0  0  0  0
  8  9  2  0  0  0  0
 10  9  1  0  0  0  0
 11 10  2  0  0  0  0
 12 20  1  0  0  0  0
 13 12  1  0  0  0  0
 13 18  1  0  0  0  0
 14 13  2  0  0  0  0
 15 16  2  0  0  0  0
 15 14  1  0  0  0  0
 16 17  1  0  0  0  0
 17 12  2  0  0  0  0
 19 14  1  0  0  0  0
 20 21  1  0  0  0  0
M  END
>  <minimizedAffinity>
-5.45665789

$$$$

 OpenBabel03272506353D

 21 23  0  0  0  0  0  0  0  0999 V2000
   38.3810   24.3890   36.2190 C   0  0  0  0  0  0  0  0  0  0  0  0
   37.7670   24.5390   37.4600 C   0  0  0  0  0  0  0  0  0  0  0  0
   36.8980   25.2070   37.5080 H   0  0  0  0  0  0  0  0  0  0  0  0
   38.1630   23.9240   38.6060 C   0  0  0  0  0  3  0  0  0  0  0  0
   39.2440   23.0820   38.5920 C   0  0  0  0  0  3  0  0  0  0  0  0
   39.9040   22.8800   37.4030 C   0  0  0  0  0  0  0  0  0  0  0  0
   40.9810   22.0230   37.4520 C   0  0  0  0  0  3  0  0  0  0  0  0
   41.6890   21.7760   36.3010 C   0  0  0  0  0  3  0  0  0  0  0  0
   41.2820   22.4060   35.1310 C   0  0  0  0  0  3  0  0  0  0  0  0
   40.1930   23.2490   35.1620 C   0  0  0  0  0  3  0  0  0  0  0  0
   39.4550   23.5300   36.2780 C   0  0  0  0  0  0  0  0  0  0  0  0
   37.0350   27.1130   34.3130 C   0  0  0  0  0  0  0  0  0  0  0  0
   36.9880   26.7160   32.9820 C   0  0  0  0  0  0  0  0  0  0  0  0
   37.4460   25.4390   32.7250 C   0  0  0  0  0  0  0  0  0  0  0  0
   37.8970   24.6700   33.7330 N   0  0  0  0  0  0  0  0  0  0  0  0
   37.9410   25.0530   35.0150 C   0  0  0  0  0  0  0  0  0  0  0  0
   37.4990   26.2750   35.2310 N   0  0  0  0  0  0  0  0  0  0  0  0
   36.6390   27.2870   32.1350 H   0  0  0  0  0  0  0  0  0  0  0  0
   37.4550   25.0300   31.7390 H   0  0  0  0  0  0  0  0  0  0  0  0
   36.5700   28.4120   34.5770 O   0  0  0  0  0  0  0  0  0  0  0  0
   37.0960   29.2160   34.2510 H   0  0  0  0  0  0  0  0  0  0  0  0
  1 11  2  0  0  0  0
  1  2  1  0  0  0  0
  2  3  1  0  0  0  0
  2  4  2  0  0  0  0
  5  4  1  0  0  0  0
  6  7  1  0  0  0  0
  6  5  2  0  0  0  0
  8  7  2  0  0  0  0
  9 10  2  0  0  0  0
  9  8  1  0  0  0  0
 10 11  1  0  0  0  0
 11  6  1  0  0  0  0
 12 20  1  0  0  0  0
 12 17  1  0  0  0  0
 13 12  2  0  0  0  0
 14 13  1  0  0  0  0
 14 15  2  0  0  0  0
 15 16  1  0  0  0  0
 16 17  2  0  0  0  0
 16  1  1  0  0  0  0
 18 13  1  0  0  0  0
 19 14  1  0  0  0  0
 21 20  1  0  0  0  0
M  END
>  <minimizedAffinity>
-5.41582632

$$$$

 OpenBabel03272506353D

 21 23  0  0  0  0  0  0  0  0999 V2000
   34.7410   30.1460   33.5440 C   0  0  0  0  0  0  0  0  0  0  0  0
   34.5140   30.8040   32.3390 C   0  0  0  0  0  0  0  0  0  0  0  0
   33.7350   31.5760   32.3300 H   0  0  0  0  0  0  0  0  0  0  0  0
   35.1830   30.5620   31.1800 C   0  0  0  0  0  3  0  0  0  0  0  0
   36.1640   29.6060   31.1430 C   0  0  0  0  0  3  0  0  0  0  0  0
   36.4480   28.9120   32.2950 C   0  0  0  0  0  0  0  0  0  0  0  0
   37.4430   27.9650   32.1960 C   0  0  0  0  0  3  0  0  0  0  0  0
   37.7800   27.2330   33.3090 C   0  0  0  0  0  3  0  0  0  0  0  0
   37.0940   27.4830   34.4920 C   0  0  0  0  0  3  0  0  0  0  0  0
   36.1110   28.4480   34.5120 C   0  0  0  0  0  3  0  0  0  0  0  0
   35.7380   29.2030   33.4360 C   0  0  0  0  0  0  0  0  0  0  0  0
   34.2230   31.6850   36.7430 C   0  0  0  0  0  0  0  0  0  0  0  0
   32.9980   31.2470   37.2300 C   0  0  0  0  0  0  0  0  0  0  0  0
   32.3100   30.3720   36.4130 C   0  0  0  0  0  0  0  0  0  0  0  0
   32.8370   30.0000   35.2310 N   0  0  0  0  0  0  0  0  0  0  0  0
   34.0170   30.4230   34.7630 C   0  0  0  0  0  0  0  0  0  0  0  0
   34.6510   31.2560   35.5630 N   0  0  0  0  0  0  0  0  0  0  0  0
   32.5280   31.5100   38.1650 H   0  0  0  0  0  0  0  0  0  0  0  0
   31.3600   29.9710   36.6880 H   0  0  0  0  0  0  0  0  0  0  0  0
   34.9240   32.5770   37.5720 O   0  0  0  0  0  0  0  0  0  0  0  0
   34.5730   33.5170   37.7210 H   0  0  0  0  0  0  0  0  0  0  0  0
  1 16  1  0  0  0  0
  2  1  2  0  0  0  0
  3  2  1  0  0  0  0
  4  2  1  0  0  0  0
  5  4  2  0  0  0  0
  5  6  1  0  0  0  0
  6 11  1  0  0  0  0
  7  6  2  0  0  0  0
  7  8  1  0  0  0  0
  8  9  2  0  0  0  0
  9 10  1  0  0  0  0
 11  1  1  0  0  0  0
 11 10  2  0  0  0  0
 12 13  1  0  0  0  0
 12 20  1  0  0  0  0
 13 18  1  0  0  0  0
 14 19  1  0  0  0  0
 14 13  2  0  0  0  0
 15 14  1  0  0  0  0
 16 15  2  0  0  0  0
 16 17  1  0  0  0  0
 17 12  2  0  0  0  0
 20 21  1  0  0  0  0
M  END
>  <minimizedAffinity>
-5.26926899

$$$$

 OpenBabel03272506353D

 21 23  0  0  0  0  0  0  0  0999 V2000
   38.7000   24.4340   34.5450 C   0  0  0  0  0  0  0  0  0  0  0  0
   37.9360   23.7570   33.5980 C   0  0  0  0  0  0  0  0  0  0  0  0
   37.2520   22.9830   33.9690 H   0  0  0  0  0  0  0  0  0  0  0  0
   37.9740   23.9840   32.2580 C   0  0  0  0  0  3  0  0  0  0  0  0
   38.8130   24.9400   31.7500 C   0  0  0  0  0  3  0  0  0  0  0  0
   39.6000   25.6530   32.6220 C   0  0  0  0  0  0  0  0  0  0  0  0
   40.4220   26.6000   32.0510 C   0  0  0  0  0  3  0  0  0  0  0  0
   41.2380   27.3510   32.8630 C   0  0  0  0  0  3  0  0  0  0  0  0
   41.1960   27.1170   34.2330 C   0  0  0  0  0  3  0  0  0  0  0  0
   40.3470   26.1520   34.7280 C   0  0  0  0  0  3  0  0  0  0  0  0
   39.5160   25.3790   33.9660 C   0  0  0  0  0  0  0  0  0  0  0  0
   39.6190   22.7800   37.5920 C   0  0  0  0  0  0  0  0  0  0  0  0
   38.8690   23.3380   38.6200 C   0  0  0  0  0  0  0  0  0  0  0  0
   37.9960   24.3390   38.2440 C   0  0  0  0  0  0  0  0  0  0  0  0
   37.9170   24.7140   36.9530 N   0  0  0  0  0  0  0  0  0  0  0  0
   38.6410   24.1750   35.9640 C   0  0  0  0  0  0  0  0  0  0  0  0
   39.4640   23.2230   36.3520 N   0  0  0  0  0  0  0  0  0  0  0  0
   38.8900   23.0790   39.6670 H   0  0  0  0  0  0  0  0  0  0  0  0
   37.3700   24.8370   38.9500 H   0  0  0  0  0  0  0  0  0  0  0  0
   40.5090   21.7600   37.9720 O   0  0  0  0  0  0  0  0  0  0  0  0
   41.3230   21.9800   38.5360 H   0  0  0  0  0  0  0  0  0  0  0  0
  1 16  1  0  0  0  0
  2  3  1  0  0  0  0
  2  1  2  0  0  0  0
  4  2  1  0  0  0  0
  5  4  2  0  0  0  0
  5  6  1  0  0  0  0
  6 11  1  0  0  0  0
  7  6  2  0  0  0  0
  7  8  1  0  0  0  0
  8  9  2  0  0  0  0
  9 10  1  0  0  0  0
 11  1  1  0  0  0  0
 11 10  2  0  0  0  0
 12 20  1  0  0  0  0
 12 13  1  0  0  0  0
 13 18  1  0  0  0  0
 14 13  2  0  0  0  0
 14 19  1  0  0  0  0
 15 14  1  0  0  0  0
 16 17  1  0  0  0  0
 16 15  2  0  0  0  0
 17 12  2  0  0  0  0
 20 21  1  0  0  0  0
M  END
>  <minimizedAffinity>
-5.26366854

$$$$

 OpenBabel03272506353D

 21 23  0  0  0  0  0  0  0  0999 V2000
   35.1450   30.6980   34.7970 C   0  0  0  0  0  0  0  0  0  0  0  0
   35.8920   31.7220   35.3720 C   0  0  0  0  0  0  0  0  0  0  0  0
   36.8770   31.9280   34.9340 H   0  0  0  0  0  0  0  0  0  0  0  0
   35.4940   32.4800   36.4280 C   0  0  0  0  0  3  0  0  0  0  0  0
   34.2730   32.2580   37.0070 C   0  0  0  0  0  3  0  0  0  0  0  0
   33.4740   31.2630   36.4950 C   0  0  0  0  0  0  0  0  0  0  0  0
   32.2580   31.0880   37.1190 C   0  0  0  0  0  3  0  0  0  0  0  0
   31.4090   30.1110   36.6600 C   0  0  0  0  0  3  0  0  0  0  0  0
   31.8190   29.3370   35.5800 C   0  0  0  0  0  3  0  0  0  0  0  0
   33.0500   29.5730   35.0090 C   0  0  0  0  0  3  0  0  0  0  0  0
   33.9320   30.5310   35.4260 C   0  0  0  0  0  0  0  0  0  0  0  0
   35.8410   30.0640   31.3360 C   0  0  0  0  0  0  0  0  0  0  0  0
   36.3410   28.7720   31.2340 C   0  0  0  0  0  0  0  0  0  0  0  0
   36.4440   28.0780   32.4230 C   0  0  0  0  0  0  0  0  0  0  0  0
   36.0720   28.6620   33.5780 N   0  0  0  0  0  0  0  0  0  0  0  0
   35.5910   29.9070   33.6740 C   0  0  0  0  0  0  0  0  0  0  0  0
   35.5030   30.5450   32.5250 N   0  0  0  0  0  0  0  0  0  0  0  0
   36.6540   28.2540   30.3400 H   0  0  0  0  0  0  0  0  0  0  0  0
   36.8140   27.0770   32.4630 H   0  0  0  0  0  0  0  0  0  0  0  0
   35.7360   30.7730   30.1270 O   0  0  0  0  0  0  0  0  0  0  0  0
   36.5730   31.0660   29.6340 H   0  0  0  0  0  0  0  0  0  0  0  0
  1  2  2  0  0  0  0
  1 11  1  0  0  0  0
  2  4  1  0  0  0  0
  3  2  1  0  0  0  0
  4  5  2  0  0  0  0
  6  5  1  0  0  0  0
  6  7  1  0  0  0  0
  8  7  2  0  0  0  0
  9  8  1  0  0  0  0
 10 11  1  0  0  0  0
 10  9  2  0  0  0  0
 11  6  2  0  0  0  0
 12 17  1  0  0  0  0
 13 12  2  0  0  0  0
 13 14  1  0  0  0  0
 14 19  1  0  0  0  0
 14 15  2  0  0  0  0
 15 16  1  0  0  0  0
 16  1  1  0  0  0  0
 17 16  2  0  0  0  0
 18 13  1  0  0  0  0
 20 12  1  0  0  0  0
 21 20  1  0  0  0  0
M  END
>  <minimizedAffinity>
-5.26285219

$$$$

 OpenBabel03272506353D

 21 23  0  0  0  0  0  0  0  0999 V2000
   39.1800   24.7030   35.6570 C   0  0  0  0  0  0  0  0  0  0  0  0
   38.1860   24.9550   36.5990 C   0  0  0  0  0  0  0  0  0  0  0  0
   37.4730   25.7560   36.3710 H   0  0  0  0  0  0  0  0  0  0  0  0
   38.0360   24.2840   37.7730 C   0  0  0  0  0  3  0  0  0  0  0  0
   38.9030   23.2750   38.0990 C   0  0  0  0  0  3  0  0  0  0  0  0
   39.9120   22.9650   37.2190 C   0  0  0  0  0  0  0  0  0  0  0  0
   40.7520   21.9430   37.6030 C   0  0  0  0  0  3  0  0  0  0  0  0
   41.7830   21.5800   36.7710 C   0  0  0  0  0  3  0  0  0  0  0  0
   41.9340   22.2670   35.5720 C   0  0  0  0  0  3  0  0  0  0  0  0
   41.0530   23.2790   35.2580 C   0  0  0  0  0  3  0  0  0  0  0  0
   40.0120   23.6790   36.0480 C   0  0  0  0  0  0  0  0  0  0  0  0
   40.7140   27.0370   33.4060 C   0  0  0  0  0  0  0  0  0  0  0  0
   39.9770   27.0370   32.2290 C   0  0  0  0  0  0  0  0  0  0  0  0
   38.8900   26.1860   32.2070 C   0  0  0  0  0  0  0  0  0  0  0  0
   38.6070   25.4280   33.2820 N   0  0  0  0  0  0  0  0  0  0  0  0
   39.3180   25.4290   34.4160 C   0  0  0  0  0  0  0  0  0  0  0  0
   40.3480   26.2490   34.4090 N   0  0  0  0  0  0  0  0  0  0  0  0
   40.1560   27.6210   31.3390 H   0  0  0  0  0  0  0  0  0  0  0  0
   38.2530   26.1060   31.3540 H   0  0  0  0  0  0  0  0  0  0  0  0
   41.8210   27.9020   33.4310 O   0  0  0  0  0  0  0  0  0  0  0  0
   42.6300   27.7110   32.8490 H   0  0  0  0  0  0  0  0  0  0  0  0
  1 11  2  0  0  0  0
  1  2  1  0  0  0  0
  2  4  2  0  0  0  0
  3  2  1  0  0  0  0
  4  5  1  0  0  0  0
  6  7  1  0  0  0  0
  6  5  2  0  0  0  0
  8  7  2  0  0  0  0
  9  8  1  0  0  0  0
 10  9  2  0  0  0  0
 10 11  1  0  0  0  0
 11  6  1  0  0  0  0
 12 20  1  0  0  0  0
 12 17  1  0  0  0  0
 13 12  2  0  0  0  0
 14 13  1  0  0  0  0
 14 15  2  0  0  0  0
 15 16  1  0  0  0  0
 16  1  1  0  0  0  0
 17 16  2  0  0  0  0
 18 13  1  0  0  0  0
 19 14  1  0  0  0  0
 21 20  1  0  0  0  0
M  END
>  <minimizedAffinity>
-5.18389416

$$$$

 OpenBabel03272506353D

 21 23  0  0  0  0  0  0  0  0999 V2000
   35.0760   30.4920   34.9140 C   0  0  0  0  0  0  0  0  0  0  0  0
   35.8640   31.5090   35.4450 C   0  0  0  0  0  0  0  0  0  0  0  0
   36.8770   31.6190   35.0390 H   0  0  0  0  0  0  0  0  0  0  0  0
   35.4720   32.3700   36.4220 C   0  0  0  0  0  3  0  0  0  0  0  0
   34.2160   32.2700   36.9580 C   0  0  0  0  0  3  0  0  0  0  0  0
   33.3760   31.2900   36.4850 C   0  0  0  0  0  0  0  0  0  0  0  0
   32.1260   31.2400   37.0630 C   0  0  0  0  0  3  0  0  0  0  0  0
   31.2340   30.2850   36.6390 C   0  0  0  0  0  3  0  0  0  0  0  0
   31.6380   29.4060   35.6400 C   0  0  0  0  0  3  0  0  0  0  0  0
   32.9050   29.5200   35.1110 C   0  0  0  0  0  3  0  0  0  0  0  0
   33.8300   30.4500   35.4960 C   0  0  0  0  0  0  0  0  0  0  0  0
   36.7360   27.5910   33.6110 C   0  0  0  0  0  0  0  0  0  0  0  0
   36.5670   27.5900   32.2320 C   0  0  0  0  0  0  0  0  0  0  0  0
   35.8410   28.6470   31.7200 C   0  0  0  0  0  0  0  0  0  0  0  0
   35.3510   29.5900   32.5470 N   0  0  0  0  0  0  0  0  0  0  0  0
   35.5150   29.5900   33.8750 C   0  0  0  0  0  0  0  0  0  0  0  0
   36.2100   28.5700   34.3350 N   0  0  0  0  0  0  0  0  0  0  0  0
   36.9350   26.8640   31.5230 H   0  0  0  0  0  0  0  0  0  0  0  0
   35.6500   28.7480   30.6750 H   0  0  0  0  0  0  0  0  0  0  0  0
   37.4740   26.5160   34.1340 O   0  0  0  0  0  0  0  0  0  0  0  0
   37.0880   25.5780   34.1170 H   0  0  0  0  0  0  0  0  0  0  0  0
  1  2  2  0  0  0  0
  1 11  1  0  0  0  0
  2  4  1  0  0  0  0
  3  2  1  0  0  0  0
  4  5  2  0  0  0  0
  6  5  1  0  0  0  0
  6  7  1  0  0  0  0
  8  7  2  0  0  0  0
  9  8  1  0  0  0  0
 10 11  1  0  0  0  0
 10  9  2  0  0  0  0
 11  6  2  0  0  0  0
 12 20  1  0  0  0  0
 12 17  1  0  0  0  0
 13 12  2  0  0  0  0
 14 13  1  0  0  0  0
 14 15  2  0  0  0  0
 15 16  1  0  0  0  0
 16 17  2  0  0  0  0
 16  1  1  0  0  0  0
 18 13  1  0  0  0  0
 19 14  1  0  0  0  0
 21 20  1  0  0  0  0
M  END
>  <minimizedAffinity>
-5.13752365

$$$$
