
 OpenBabel03272504283D

 44 48  0  0  0  0  0  0  0  0999 V2000
   31.4180   27.9910   47.3030 C   0  0  0  0  0  0  0  0  0  0  0  0
   31.0000   26.7190   47.2150 C   0  0  0  0  0  0  0  0  0  0  0  0
   29.8250   26.4110   46.6540 C   0  0  0  0  0  0  0  0  0  0  0  0
   29.0520   27.4180   46.1710 N   0  0  0  0  0  0  0  0  0  0  0  0
   29.4720   28.6730   46.2610 C   0  0  0  0  0  0  0  0  0  0  0  0
   30.6480   28.9830   46.8220 N   0  0  0  0  0  0  0  0  0  0  0  0
   31.6140   25.9140   47.5990 H   0  0  0  0  0  0  0  0  0  0  0  0
   29.4960   25.3750   46.5880 H   0  0  0  0  0  0  0  0  0  0  0  0
   27.5920   30.2400   46.4860 C   0  0  0  0  0  0  0  0  0  0  0  0
   28.5800   29.6510   45.6910 C   0  0  0  0  0  0  0  0  0  0  0  0
   28.7560   29.9250   44.3460 C   0  0  0  0  0  0  0  0  0  0  0  0
   27.9150   30.8330   43.7330 C   0  0  0  0  0  0  0  0  0  0  0  0
   26.9140   31.4600   44.4400 C   0  0  0  0  0  0  0  0  0  0  0  0
   26.8160   31.1290   45.7550 C   0  0  0  0  0  0  0  0  0  0  0  0
   29.5350   29.4450   43.7710 H   0  0  0  0  0  0  0  0  0  0  0  0
   28.0420   31.0580   42.6780 H   0  0  0  0  0  0  0  0  0  0  0  0
   26.2500   32.1670   43.9840 H   0  0  0  0  0  0  0  0  0  0  0  0
   26.0180   31.6310   46.3110 H   0  0  0  0  0  0  0  0  0  0  0  0
   27.3720   29.9490   48.1110 S   0  0  0  0  0  0  0  0  0  0  0  0
   26.3580   28.7690   47.9490 O   0  0  0  0  0  0  0  0  0  0  0  0
   26.6330   31.1330   48.6820 O   0  0  0  0  0  0  0  0  0  0  0  0
   27.8040   29.3100   49.5080 C   0  0  0  0  0  0  0  0  0  0  0  0
   26.9150   28.7560   50.4560 F   0  0  0  0  0  0  0  0  0  0  0  0
   28.1490   30.3750   50.4630 F   0  0  0  0  0  0  0  0  0  0  0  0
   29.1210   28.8110   49.7270 F   0  0  0  0  0  0  0  0  0  0  0  0
   34.2100   28.4070   49.6510 C   0  0  0  0  0  0  0  0  0  0  0  0
   35.1510   29.1010   48.8890 C   0  0  0  0  0  0  0  0  0  0  0  0
   34.8220   29.4270   47.5820 C   0  0  0  0  0  0  0  0  0  0  0  0
   33.5880   29.0300   47.1460 N   0  0  0  0  0  0  0  0  0  0  0  0
   32.7000   28.3600   47.9000 C   0  0  0  0  0  0  0  0  0  0  0  0
   33.0300   28.0580   49.1520 N   0  0  0  0  0  0  0  0  0  0  0  0
   34.4620   28.1520   50.6720 H   0  0  0  0  0  0  0  0  0  0  0  0
   36.0770   29.3080   49.3250 H   0  0  0  0  0  0  0  0  0  0  0  0
   35.6340   30.0710   46.5760 C   0  0  0  0  0  0  0  0  0  0  0  0
   35.2030   29.9420   45.2460 C   0  0  0  0  0  0  0  0  0  0  0  0
   34.3010   29.3680   45.0240 H   0  0  0  0  0  0  0  0  0  0  0  0
   35.8430   30.4970   44.1600 C   0  0  0  0  0  0  0  0  0  0  0  0
   36.9880   31.2360   44.3530 C   0  0  0  0  0  0  0  0  0  0  0  0
   37.4590   31.4020   45.6360 C   0  0  0  0  0  0  0  0  0  0  0  0
   38.5830   32.1650   45.8640 C   0  0  0  0  0  0  0  0  0  0  0  0
   39.0860   32.4000   47.1490 C   0  0  0  0  0  0  0  0  0  0  0  0
   38.3620   31.8010   48.1760 C   0  0  0  0  0  0  0  0  0  0  0  0
   37.2470   31.0430   47.9220 C   0  0  0  0  0  0  0  0  0  0  0  0
   36.7720   30.8220   46.6700 C   0  0  0  0  0  0  0  0  0  0  0  0
  1 30  1  0  0  0  0
  2  1  1  0  0  0  0
  2  7  1  0  0  0  0
  3  2  2  0  0  0  0
  4  5  2  0  0  0  0
  4  3  1  0  0  0  0
  5  6  1  0  0  0  0
  6  1  2  0  0  0  0
  8  3  1  0  0  0  0
  9 19  1  0  0  0  0
 10  5  1  0  0  0  0
 10  9  2  0  0  0  0
 11 10  1  0  0  0  0
 12 11  2  0  0  0  0
 12 13  1  0  0  0  0
 13 14  2  0  0  0  0
 14 18  1  0  0  0  0
 14  9  1  0  0  0  0
 15 11  1  0  0  0  0
 16 12  1  0  0  0  0
 17 13  1  0  0  0  0
 19 21  2  0  0  0  0
 19 22  1  0  0  0  0
 20 19  2  0  0  0  0
 22 25  1  0  0  0  0
 22 23  1  0  0  0  0
 22 24  1  0  0  0  0
 26 32  1  0  0  0  0
 27 33  1  0  0  0  0
 27 26  2  0  0  0  0
 28 27  1  0  0  0  0
 29 28  2  0  0  0  0
 29 30  1  0  0  0  0
 30 31  2  0  0  0  0
 31 26  1  0  0  0  0
 34 44  1  0  0  0  0
 34 28  1  0  0  0  0
 35 34  2  0  0  0  0
 36 35  1  0  0  0  0
 37 38  2  0  0  0  0
 37 35  1  0  0  0  0
 38 39  1  0  0  0  0
 39 40  2  0  0  0  0
 39 44  1  0  0  0  0
 40 41  1  0  0  0  0
 41 42  2  0  0  0  0
 43 42  1  0  0  0  0
 44 43  2  0  0  0  0
M  END
>  <minimizedAffinity>
-7.56651974

>  <minimizedRMSD>
4.83801746

$$$$
