
 OpenBabel03272503033D

 30 33  0  0  0  0  0  0  0  0999 V2000
   36.5430   28.4310   34.8220 F   0  0  0  0  0  0  0  0  0  0  0  0
   36.2350   28.9300   33.6060 C   0  0  0  0  0  0  0  0  0  0  0  0
   36.6240   28.2540   32.4900 C   0  0  0  0  0  0  0  0  0  0  0  0
   36.2840   28.8110   31.2690 C   0  0  0  0  0  0  0  0  0  0  0  0
   35.5800   29.9990   31.1740 C   0  0  0  0  0  0  0  0  0  0  0  0
   35.2020   30.6560   32.3170 C   0  0  0  0  0  0  0  0  0  0  0  0
   35.5310   30.1180   33.5340 C   0  0  0  0  0  0  0  0  0  0  0  0
   36.5870   28.2840   30.3650 H   0  0  0  0  0  0  0  0  0  0  0  0
   35.3510   30.3720   30.1850 H   0  0  0  0  0  0  0  0  0  0  0  0
   34.6510   31.5850   32.2640 H   0  0  0  0  0  0  0  0  0  0  0  0
   35.1090   30.8500   34.7260 C   0  0  0  0  0  0  0  0  0  0  0  0
   35.8610   31.8820   35.2540 C   0  0  0  0  0  0  0  0  0  0  0  0
   36.7890   32.1580   34.7730 H   0  0  0  0  0  0  0  0  0  0  0  0
   35.5100   32.6050   36.3740 C   0  0  0  0  0  3  0  0  0  0  0  0
   34.3340   32.2850   37.0180 C   0  0  0  0  0  3  0  0  0  0  0  0
   33.5490   31.2500   36.5140 C   0  0  0  0  0  0  0  0  0  0  0  0
   32.3610   30.9340   37.1710 C   0  0  0  0  0  3  0  0  0  0  0  0
   31.6350   29.9180   36.6400 C   0  0  0  0  0  3  0  0  0  0  0  0
   31.9620   29.1820   35.5240 C   0  0  0  0  0  3  0  0  0  0  0  0
   33.1580   29.5310   34.8990 C   0  0  0  0  0  3  0  0  0  0  0  0
   33.9420   30.5550   35.3900 C   0  0  0  0  0  0  0  0  0  0  0  0
   39.4230   25.7580   32.9660 C   0  0  0  0  0  0  0  0  0  0  0  0
   38.7530   26.9820   32.8190 C   0  0  0  0  0  0  0  0  0  0  0  0
   37.3630   27.0060   32.6470 C   0  0  0  0  0  0  0  0  0  0  0  0
   36.7320   25.8170   32.6340 N   0  0  0  0  0  0  0  0  0  0  0  0
   37.3970   24.6560   32.7780 C   0  0  0  0  0  0  0  0  0  0  0  0
   38.7290   24.6270   32.9420 N   0  0  0  0  0  0  0  0  0  0  0  0
   40.4820   25.9300   33.0870 H   0  0  0  0  0  0  0  0  0  0  0  0
   39.2240   27.9630   32.8240 H   0  0  0  0  0  0  0  0  0  0  0  0
   36.9260   23.6780   32.7730 H   0  0  0  0  0  0  0  0  0  0  0  0
  2  1  1  0  0  0  0
  3 24  1  0  0  0  0
  3  2  2  0  0  0  0
  4  3  1  0  0  0  0
  5  4  2  0  0  0  0
  5  6  1  0  0  0  0
  6  7  2  0  0  0  0
  7  2  1  0  0  0  0
  7 11  1  0  0  0  0
  8  4  1  0  0  0  0
  9  5  1  0  0  0  0
 10  6  1  0  0  0  0
 11 12  2  0  0  0  0
 11 21  1  0  0  0  0
 12 14  1  0  0  0  0
 13 12  1  0  0  0  0
 14 15  2  0  0  0  0
 16 15  1  0  0  0  0
 16 17  1  0  0  0  0
 18 17  2  0  0  0  0
 19 18  1  0  0  0  0
 20 21  1  0  0  0  0
 20 19  2  0  0  0  0
 21 16  2  0  0  0  0
 22 28  1  0  0  0  0
 23 29  1  0  0  0  0
 23 22  2  0  0  0  0
 24 23  1  0  0  0  0
 25 24  2  0  0  0  0
 25 26  1  0  0  0  0
 26 27  2  0  0  0  0
 27 22  1  0  0  0  0
 30 26  1  0  0  0  0
M  END
>  <minimizedAffinity>
-6.37506866

$$$$

 OpenBabel03272503033D

 30 33  0  0  0  0  0  0  0  0999 V2000
   37.5520   23.1880   33.2590 F   0  0  0  0  0  0  0  0  0  0  0  0
   36.7870   23.9740   32.4730 C   0  0  0  0  0  0  0  0  0  0  0  0
   35.9450   23.3970   31.5710 C   0  0  0  0  0  0  0  0  0  0  0  0
   35.1850   24.2490   30.7880 C   0  0  0  0  0  0  0  0  0  0  0  0
   35.2690   25.6250   30.9070 C   0  0  0  0  0  0  0  0  0  0  0  0
   36.1260   26.1760   31.8240 C   0  0  0  0  0  0  0  0  0  0  0  0
   36.8850   25.3460   32.6080 C   0  0  0  0  0  0  0  0  0  0  0  0
   34.5060   23.8050   30.0610 H   0  0  0  0  0  0  0  0  0  0  0  0
   34.6430   26.2260   30.2600 H   0  0  0  0  0  0  0  0  0  0  0  0
   36.2050   27.2490   31.9330 H   0  0  0  0  0  0  0  0  0  0  0  0
   37.7860   25.9750   33.5720 C   0  0  0  0  0  0  0  0  0  0  0  0
   37.4010   26.2250   34.8750 C   0  0  0  0  0  0  0  0  0  0  0  0
   36.4050   25.9470   35.1940 H   0  0  0  0  0  0  0  0  0  0  0  0
   38.2080   26.8140   35.8240 C   0  0  0  0  0  3  0  0  0  0  0  0
   39.4850   27.1840   35.4600 C   0  0  0  0  0  3  0  0  0  0  0  0
   39.9080   26.9470   34.1530 C   0  0  0  0  0  0  0  0  0  0  0  0
   41.2020   27.3240   33.7930 C   0  0  0  0  0  3  0  0  0  0  0  0
   41.5630   27.0720   32.5100 C   0  0  0  0  0  3  0  0  0  0  0  0
   40.7770   26.4840   31.5440 C   0  0  0  0  0  3  0  0  0  0  0  0
   39.4920   26.1250   31.9470 C   0  0  0  0  0  3  0  0  0  0  0  0
   39.0640   26.3550   33.2380 C   0  0  0  0  0  0  0  0  0  0  0  0
   34.9270   19.7910   32.0690 C   0  0  0  0  0  0  0  0  0  0  0  0
   34.9350   21.1900   32.1770 C   0  0  0  0  0  0  0  0  0  0  0  0
   35.8970   21.9410   31.4880 C   0  0  0  0  0  0  0  0  0  0  0  0
   36.7800   21.2560   30.7400 N   0  0  0  0  0  0  0  0  0  0  0  0
   36.7510   19.9140   30.6510 C   0  0  0  0  0  0  0  0  0  0  0  0
   35.8330   19.1880   31.3090 N   0  0  0  0  0  0  0  0  0  0  0  0
   34.1230   19.3800   32.6630 H   0  0  0  0  0  0  0  0  0  0  0  0
   34.2410   21.7810   32.7710 H   0  0  0  0  0  0  0  0  0  0  0  0
   37.4440   19.3250   30.0590 H   0  0  0  0  0  0  0  0  0  0  0  0
  2  7  1  0  0  0  0
  2  1  1  0  0  0  0
  3  2  2  0  0  0  0
  4  5  2  0  0  0  0
  4  3  1  0  0  0  0
  5  6  1  0  0  0  0
  6 10  1  0  0  0  0
  6  7  2  0  0  0  0
  7 11  1  0  0  0  0
  8  4  1  0  0  0  0
  9  5  1  0  0  0  0
 11 12  1  0  0  0  0
 12 13  1  0  0  0  0
 12 14  2  0  0  0  0
 15 14  1  0  0  0  0
 16 15  2  0  0  0  0
 17 16  1  0  0  0  0
 18 17  2  0  0  0  0
 19 20  2  0  0  0  0
 19 18  1  0  0  0  0
 20 21  1  0  0  0  0
 21 11  2  0  0  0  0
 21 16  1  0  0  0  0
 22 23  1  0  0  0  0
 22 28  1  0  0  0  0
 23 29  1  0  0  0  0
 24  3  1  0  0  0  0
 24 23  2  0  0  0  0
 25 24  1  0  0  0  0
 26 25  2  0  0  0  0
 26 27  1  0  0  0  0
 27 22  2  0  0  0  0
 30 26  1  0  0  0  0
M  END
>  <minimizedAffinity>
-6.23021078

$$$$

 OpenBabel03272503033D

 30 33  0  0  0  0  0  0  0  0999 V2000
   36.1680   27.6920   34.9050 F   0  0  0  0  0  0  0  0  0  0  0  0
   36.3460   28.1560   33.6510 C   0  0  0  0  0  0  0  0  0  0  0  0
   37.3910   27.6940   32.9100 C   0  0  0  0  0  0  0  0  0  0  0  0
   37.5290   28.2050   31.6310 C   0  0  0  0  0  0  0  0  0  0  0  0
   36.6510   29.1450   31.1180 C   0  0  0  0  0  0  0  0  0  0  0  0
   35.6090   29.5910   31.8890 C   0  0  0  0  0  0  0  0  0  0  0  0
   35.4580   29.0940   33.1570 C   0  0  0  0  0  0  0  0  0  0  0  0
   38.3590   27.8470   31.0240 H   0  0  0  0  0  0  0  0  0  0  0  0
   36.8240   29.4980   30.1090 H   0  0  0  0  0  0  0  0  0  0  0  0
   34.9120   30.3250   31.5050 H   0  0  0  0  0  0  0  0  0  0  0  0
   34.3340   29.5970   33.9440 C   0  0  0  0  0  0  0  0  0  0  0  0
   33.0430   29.1470   33.7450 C   0  0  0  0  0  0  0  0  0  0  0  0
   32.8570   28.3990   32.9850 H   0  0  0  0  0  0  0  0  0  0  0  0
   31.9490   29.5860   34.4560 C   0  0  0  0  0  3  0  0  0  0  0  0
   32.1420   30.5400   35.4340 C   0  0  0  0  0  3  0  0  0  0  0  0
   33.4310   31.0170   35.6630 C   0  0  0  0  0  0  0  0  0  0  0  0
   33.6170   31.9810   36.6530 C   0  0  0  0  0  3  0  0  0  0  0  0
   34.8910   32.4130   36.8350 C   0  0  0  0  0  3  0  0  0  0  0  0
   36.0010   31.9900   36.1390 C   0  0  0  0  0  3  0  0  0  0  0  0
   35.7680   31.0270   35.1590 C   0  0  0  0  0  3  0  0  0  0  0  0
   34.4960   30.5470   34.9240 C   0  0  0  0  0  0  0  0  0  0  0  0
   40.2520   26.0840   34.7850 C   0  0  0  0  0  0  0  0  0  0  0  0
   39.4190   27.0710   34.2360 C   0  0  0  0  0  0  0  0  0  0  0  0
   38.2850   26.7030   33.5000 C   0  0  0  0  0  0  0  0  0  0  0  0
   38.0530   25.3850   33.3610 N   0  0  0  0  0  0  0  0  0  0  0  0
   38.8660   24.4570   33.8980 C   0  0  0  0  0  0  0  0  0  0  0  0
   39.9550   24.8030   34.6030 N   0  0  0  0  0  0  0  0  0  0  0  0
   41.0720   26.5470   35.3150 H   0  0  0  0  0  0  0  0  0  0  0  0
   39.5710   28.1450   34.3240 H   0  0  0  0  0  0  0  0  0  0  0  0
   38.7140   23.3860   33.8080 H   0  0  0  0  0  0  0  0  0  0  0  0
  2  1  1  0  0  0  0
  3 24  1  0  0  0  0
  3  2  2  0  0  0  0
  4  3  1  0  0  0  0
  5  4  2  0  0  0  0
  5  6  1  0  0  0  0
  6  7  2  0  0  0  0
  7  2  1  0  0  0  0
  7 11  1  0  0  0  0
  8  4  1  0  0  0  0
  9  5  1  0  0  0  0
 10  6  1  0  0  0  0
 11 21  1  0  0  0  0
 12 11  2  0  0  0  0
 12 14  1  0  0  0  0
 13 12  1  0  0  0  0
 14 15  2  0  0  0  0
 15 16  1  0  0  0  0
 16 17  1  0  0  0  0
 17 18  2  0  0  0  0
 19 18  1  0  0  0  0
 20 19  2  0  0  0  0
 21 20  1  0  0  0  0
 21 16  2  0  0  0  0
 22 28  1  0  0  0  0
 23 29  1  0  0  0  0
 23 22  2  0  0  0  0
 24 23  1  0  0  0  0
 25 24  2  0  0  0  0
 25 26  1  0  0  0  0
 26 27  2  0  0  0  0
 27 22  1  0  0  0  0
 30 26  1  0  0  0  0
M  END
>  <minimizedAffinity>
-6.17822647

$$$$

 OpenBabel03272503033D

 30 33  0  0  0  0  0  0  0  0999 V2000
   36.1420   28.3460   34.6060 F   0  0  0  0  0  0  0  0  0  0  0  0
   36.1330   29.0910   33.4810 C   0  0  0  0  0  0  0  0  0  0  0  0
   35.5100   30.3010   33.4870 C   0  0  0  0  0  0  0  0  0  0  0  0
   35.5280   31.0230   32.3060 C   0  0  0  0  0  0  0  0  0  0  0  0
   36.1490   30.5470   31.1650 C   0  0  0  0  0  0  0  0  0  0  0  0
   36.7690   29.3240   31.1900 C   0  0  0  0  0  0  0  0  0  0  0  0
   36.7600   28.5970   32.3520 C   0  0  0  0  0  0  0  0  0  0  0  0
   35.0340   31.9940   32.2920 H   0  0  0  0  0  0  0  0  0  0  0  0
   36.1220   31.1680   30.2790 H   0  0  0  0  0  0  0  0  0  0  0  0
   37.2600   28.9350   30.3080 H   0  0  0  0  0  0  0  0  0  0  0  0
   37.4320   27.2990   32.3350 C   0  0  0  0  0  0  0  0  0  0  0  0
   38.7300   27.1430   32.7800 C   0  0  0  0  0  0  0  0  0  0  0  0
   39.2670   28.0050   33.1540 H   0  0  0  0  0  0  0  0  0  0  0  0
   39.4110   25.9450   32.7860 C   0  0  0  0  0  3  0  0  0  0  0  0
   38.7640   24.8210   32.3170 C   0  0  0  0  0  3  0  0  0  0  0  0
   37.4530   24.9410   31.8600 C   0  0  0  0  0  0  0  0  0  0  0  0
   36.8050   23.7990   31.3890 C   0  0  0  0  0  3  0  0  0  0  0  0
   35.5310   23.9700   30.9540 C   0  0  0  0  0  3  0  0  0  0  0  0
   34.8290   25.1550   30.9380 C   0  0  0  0  0  3  0  0  0  0  0  0
   35.5150   26.2690   31.4180 C   0  0  0  0  0  3  0  0  0  0  0  0
   36.8120   26.1620   31.8730 C   0  0  0  0  0  0  0  0  0  0  0  0
   34.8960   31.9520   36.8320 C   0  0  0  0  0  0  0  0  0  0  0  0
   35.5500   31.5390   35.6610 C   0  0  0  0  0  0  0  0  0  0  0  0
   34.8720   30.7550   34.7190 C   0  0  0  0  0  0  0  0  0  0  0  0
   33.5950   30.4370   34.9990 N   0  0  0  0  0  0  0  0  0  0  0  0
   32.9890   30.8460   36.1290 C   0  0  0  0  0  0  0  0  0  0  0  0
   33.6340   31.5970   37.0370 N   0  0  0  0  0  0  0  0  0  0  0  0
   35.5670   32.5440   37.4390 H   0  0  0  0  0  0  0  0  0  0  0  0
   36.5790   31.7730   35.3970 H   0  0  0  0  0  0  0  0  0  0  0  0
   31.9630   30.6120   36.3920 H   0  0  0  0  0  0  0  0  0  0  0  0
  2  3  1  0  0  0  0
  2  1  1  0  0  0  0
  3 24  1  0  0  0  0
  4  3  2  0  0  0  0
  5  6  2  0  0  0  0
  5  4  1  0  0  0  0
  6  7  1  0  0  0  0
  7  2  2  0  0  0  0
  8  4  1  0  0  0  0
  9  5  1  0  0  0  0
 10  6  1  0  0  0  0
 11  7  1  0  0  0  0
 11 12  1  0  0  0  0
 12 14  2  0  0  0  0
 12 13  1  0  0  0  0
 15 14  1  0  0  0  0
 16 21  1  0  0  0  0
 16 15  2  0  0  0  0
 17 16  1  0  0  0  0
 18 17  2  0  0  0  0
 19 18  1  0  0  0  0
 19 20  2  0  0  0  0
 20 21  1  0  0  0  0
 21 11  2  0  0  0  0
 22 27  1  0  0  0  0
 22 28  1  0  0  0  0
 23 22  2  0  0  0  0
 24 25  2  0  0  0  0
 24 23  1  0  0  0  0
 25 26  1  0  0  0  0
 26 30  1  0  0  0  0
 26 27  2  0  0  0  0
 29 23  1  0  0  0  0
M  END
>  <minimizedAffinity>
-6.1401453

$$$$

 OpenBabel03272503033D

 30 33  0  0  0  0  0  0  0  0999 V2000
   36.0820   28.1930   34.7490 F   0  0  0  0  0  0  0  0  0  0  0  0
   36.1550   28.9280   33.6200 C   0  0  0  0  0  0  0  0  0  0  0  0
   35.5660   30.1550   33.5830 C   0  0  0  0  0  0  0  0  0  0  0  0
   35.6680   30.8640   32.3990 C   0  0  0  0  0  0  0  0  0  0  0  0
   36.3350   30.3600   31.2960 C   0  0  0  0  0  0  0  0  0  0  0  0
   36.9180   29.1210   31.3640 C   0  0  0  0  0  0  0  0  0  0  0  0
   36.8260   28.4060   32.5300 C   0  0  0  0  0  0  0  0  0  0  0  0
   35.2020   31.8480   32.3510 H   0  0  0  0  0  0  0  0  0  0  0  0
   36.3720   30.9740   30.4050 H   0  0  0  0  0  0  0  0  0  0  0  0
   37.4440   28.7100   30.5130 H   0  0  0  0  0  0  0  0  0  0  0  0
   37.4620   27.0890   32.5590 C   0  0  0  0  0  0  0  0  0  0  0  0
   38.7180   26.8970   33.0990 C   0  0  0  0  0  0  0  0  0  0  0  0
   39.2490   27.7430   33.5150 H   0  0  0  0  0  0  0  0  0  0  0  0
   39.3630   25.6800   33.1530 C   0  0  0  0  0  3  0  0  0  0  0  0
   38.7210   24.5750   32.6330 C   0  0  0  0  0  3  0  0  0  0  0  0
   37.4520   24.7320   32.0800 C   0  0  0  0  0  0  0  0  0  0  0  0
   36.8100   23.6100   31.5580 C   0  0  0  0  0  3  0  0  0  0  0  0
   35.5780   23.8170   31.0300 C   0  0  0  0  0  3  0  0  0  0  0  0
   34.9120   25.0200   30.9650 C   0  0  0  0  0  3  0  0  0  0  0  0
   35.5910   26.1150   31.4980 C   0  0  0  0  0  3  0  0  0  0  0  0
   36.8470   25.9700   32.0490 C   0  0  0  0  0  0  0  0  0  0  0  0
   32.9250   30.7780   36.2150 C   0  0  0  0  0  0  0  0  0  0  0  0
   33.5490   30.2890   35.0570 C   0  0  0  0  0  0  0  0  0  0  0  0
   34.8760   30.6380   34.7740 C   0  0  0  0  0  0  0  0  0  0  0  0
   35.4930   31.4440   35.6570 N   0  0  0  0  0  0  0  0  0  0  0  0
   34.8730   31.8990   36.7620 C   0  0  0  0  0  0  0  0  0  0  0  0
   33.6010   31.5690   37.0370 N   0  0  0  0  0  0  0  0  0  0  0  0
   31.9100   30.4090   36.2700 H   0  0  0  0  0  0  0  0  0  0  0  0
   33.0870   29.6370   34.3190 H   0  0  0  0  0  0  0  0  0  0  0  0
   35.3350   32.5500   37.4970 H   0  0  0  0  0  0  0  0  0  0  0  0
  2  1  1  0  0  0  0
  3  2  1  0  0  0  0
  3 24  1  0  0  0  0
  4  3  2  0  0  0  0
  5  6  2  0  0  0  0
  5  4  1  0  0  0  0
  6  7  1  0  0  0  0
  7 11  1  0  0  0  0
  7  2  2  0  0  0  0
  8  4  1  0  0  0  0
  9  5  1  0  0  0  0
 10  6  1  0  0  0  0
 11 12  1  0  0  0  0
 12 14  2  0  0  0  0
 12 13  1  0  0  0  0
 15 14  1  0  0  0  0
 16 15  2  0  0  0  0
 17 16  1  0  0  0  0
 18 17  2  0  0  0  0
 19 18  1  0  0  0  0
 19 20  2  0  0  0  0
 20 21  1  0  0  0  0
 21 16  1  0  0  0  0
 21 11  2  0  0  0  0
 22 28  1  0  0  0  0
 22 27  1  0  0  0  0
 23 22  2  0  0  0  0
 24 23  1  0  0  0  0
 24 25  2  0  0  0  0
 25 26  1  0  0  0  0
 26 27  2  0  0  0  0
 26 30  1  0  0  0  0
 29 23  1  0  0  0  0
M  END
>  <minimizedAffinity>
-6.08397865

$$$$

 OpenBabel03272503033D

 30 33  0  0  0  0  0  0  0  0999 V2000
   35.9820   27.8580   34.8010 F   0  0  0  0  0  0  0  0  0  0  0  0
   36.1850   28.5120   33.6380 C   0  0  0  0  0  0  0  0  0  0  0  0
   35.7790   29.8070   33.5220 C   0  0  0  0  0  0  0  0  0  0  0  0
   36.0090   30.4300   32.3070 C   0  0  0  0  0  0  0  0  0  0  0  0
   36.6220   29.7770   31.2520 C   0  0  0  0  0  0  0  0  0  0  0  0
   37.0200   28.4730   31.4000 C   0  0  0  0  0  0  0  0  0  0  0  0
   36.8000   27.8420   32.5970 C   0  0  0  0  0  0  0  0  0  0  0  0
   35.6900   31.4660   32.1950 H   0  0  0  0  0  0  0  0  0  0  0  0
   36.7680   30.3300   30.3330 H   0  0  0  0  0  0  0  0  0  0  0  0
   37.5020   27.9460   30.5880 H   0  0  0  0  0  0  0  0  0  0  0  0
   37.2390   26.4530   32.7120 C   0  0  0  0  0  0  0  0  0  0  0  0
   36.5320   25.4140   32.1390 C   0  0  0  0  0  0  0  0  0  0  0  0
   35.6270   25.6320   31.5880 H   0  0  0  0  0  0  0  0  0  0  0  0
   36.9000   24.0880   32.2160 C   0  0  0  0  0  3  0  0  0  0  0  0
   38.0480   23.7660   32.9090 C   0  0  0  0  0  3  0  0  0  0  0  0
   38.7870   24.7890   33.5000 C   0  0  0  0  0  0  0  0  0  0  0  0
   39.9460   24.4540   34.1990 C   0  0  0  0  0  3  0  0  0  0  0  0
   40.6280   25.4870   34.7570 C   0  0  0  0  0  3  0  0  0  0  0  0
   40.2820   26.8180   34.6940 C   0  0  0  0  0  3  0  0  0  0  0  0
   39.1170   27.1060   33.9860 C   0  0  0  0  0  3  0  0  0  0  0  0
   38.3780   26.1010   33.3970 C   0  0  0  0  0  0  0  0  0  0  0  0
   35.1880   31.8680   36.6350 C   0  0  0  0  0  0  0  0  0  0  0  0
   35.8460   31.2740   35.5470 C   0  0  0  0  0  0  0  0  0  0  0  0
   35.1380   30.4470   34.6660 C   0  0  0  0  0  0  0  0  0  0  0  0
   33.8290   30.2660   34.9220 N   0  0  0  0  0  0  0  0  0  0  0  0
   33.2200   30.8480   35.9720 C   0  0  0  0  0  0  0  0  0  0  0  0
   33.8940   31.6410   36.8200 N   0  0  0  0  0  0  0  0  0  0  0  0
   35.8850   32.4680   37.2030 H   0  0  0  0  0  0  0  0  0  0  0  0
   36.9000   31.3930   35.3060 H   0  0  0  0  0  0  0  0  0  0  0  0
   32.1690   30.7280   36.2120 H   0  0  0  0  0  0  0  0  0  0  0  0
  2  1  1  0  0  0  0
  3  2  1  0  0  0  0
  3 24  1  0  0  0  0
  4  3  2  0  0  0  0
  5  6  2  0  0  0  0
  5  4  1  0  0  0  0
  6  7  1  0  0  0  0
  7 11  1  0  0  0  0
  7  2  2  0  0  0  0
  8  4  1  0  0  0  0
  9  5  1  0  0  0  0
 10  6  1  0  0  0  0
 11 21  1  0  0  0  0
 12 14  1  0  0  0  0
 12 11  2  0  0  0  0
 13 12  1  0  0  0  0
 14 15  2  0  0  0  0
 15 16  1  0  0  0  0
 16 17  1  0  0  0  0
 17 18  2  0  0  0  0
 19 18  1  0  0  0  0
 20 19  2  0  0  0  0
 21 16  2  0  0  0  0
 21 20  1  0  0  0  0
 22 27  1  0  0  0  0
 22 28  1  0  0  0  0
 23 22  2  0  0  0  0
 24 25  2  0  0  0  0
 24 23  1  0  0  0  0
 25 26  1  0  0  0  0
 26 30  1  0  0  0  0
 26 27  2  0  0  0  0
 29 23  1  0  0  0  0
M  END
>  <minimizedAffinity>
-6.06073523

$$$$

 OpenBabel03272503033D

 30 33  0  0  0  0  0  0  0  0999 V2000
   35.7060   31.2630   32.3480 F   0  0  0  0  0  0  0  0  0  0  0  0
   36.0940   30.0220   32.7090 C   0  0  0  0  0  0  0  0  0  0  0  0
   36.7500   29.2400   31.8080 C   0  0  0  0  0  0  0  0  0  0  0  0
   37.1230   27.9750   32.2280 C   0  0  0  0  0  0  0  0  0  0  0  0
   36.8470   27.5140   33.5040 C   0  0  0  0  0  0  0  0  0  0  0  0
   36.1840   28.3260   34.3890 C   0  0  0  0  0  0  0  0  0  0  0  0
   35.8080   29.5810   33.9880 C   0  0  0  0  0  0  0  0  0  0  0  0
   37.6490   27.3350   31.5210 H   0  0  0  0  0  0  0  0  0  0  0  0
   37.1700   26.5140   33.7600 H   0  0  0  0  0  0  0  0  0  0  0  0
   35.9590   27.9840   35.3900 H   0  0  0  0  0  0  0  0  0  0  0  0
   35.1030   30.4120   34.9630 C   0  0  0  0  0  0  0  0  0  0  0  0
   35.7690   31.3100   35.7740 C   0  0  0  0  0  0  0  0  0  0  0  0
   36.8440   31.4040   35.6860 H   0  0  0  0  0  0  0  0  0  0  0  0
   35.1570   32.1170   36.7080 C   0  0  0  0  0  3  0  0  0  0  0  0
   33.7880   32.0290   36.8520 C   0  0  0  0  0  3  0  0  0  0  0  0
   33.0820   31.1330   36.0500 C   0  0  0  0  0  0  0  0  0  0  0  0
   31.6990   31.0510   36.2020 C   0  0  0  0  0  3  0  0  0  0  0  0
   31.0600   30.1630   35.3990 C   0  0  0  0  0  3  0  0  0  0  0  0
   31.6490   29.3480   34.4580 C   0  0  0  0  0  3  0  0  0  0  0  0
   33.0330   29.4630   34.3410 C   0  0  0  0  0  3  0  0  0  0  0  0
   33.7400   30.3460   35.1290 C   0  0  0  0  0  0  0  0  0  0  0  0
   37.7990   29.5450   28.1890 C   0  0  0  0  0  0  0  0  0  0  0  0
   37.5580   28.9870   29.4540 C   0  0  0  0  0  0  0  0  0  0  0  0
   37.0160   29.7760   30.4770 C   0  0  0  0  0  0  0  0  0  0  0  0
   36.7490   31.0600   30.1770 N   0  0  0  0  0  0  0  0  0  0  0  0
   36.9870   31.5720   28.9560 C   0  0  0  0  0  0  0  0  0  0  0  0
   37.5070   30.8210   27.9710 N   0  0  0  0  0  0  0  0  0  0  0  0
   38.2150   28.7980   27.5290 H   0  0  0  0  0  0  0  0  0  0  0  0
   37.7600   27.9570   29.7370 H   0  0  0  0  0  0  0  0  0  0  0  0
   36.7860   32.6000   28.6740 H   0  0  0  0  0  0  0  0  0  0  0  0
  1  2  1  0  0  0  0
  2  7  1  0  0  0  0
  3  4  1  0  0  0  0
  3  2  2  0  0  0  0
  4  5  2  0  0  0  0
  5  9  1  0  0  0  0
  5  6  1  0  0  0  0
  6 10  1  0  0  0  0
  7  6  2  0  0  0  0
  7 11  1  0  0  0  0
  8  4  1  0  0  0  0
 11 21  2  0  0  0  0
 11 12  1  0  0  0  0
 12 14  2  0  0  0  0
 13 12  1  0  0  0  0
 14 15  1  0  0  0  0
 16 17  1  0  0  0  0
 16 15  2  0  0  0  0
 18 17  2  0  0  0  0
 19 18  1  0  0  0  0
 20 19  2  0  0  0  0
 20 21  1  0  0  0  0
 21 16  1  0  0  0  0
 22 23  1  0  0  0  0
 23 29  1  0  0  0  0
 23 24  2  0  0  0  0
 24  3  1  0  0  0  0
 25 24  1  0  0  0  0
 26 25  2  0  0  0  0
 27 22  2  0  0  0  0
 27 26  1  0  0  0  0
 28 22  1  0  0  0  0
 30 26  1  0  0  0  0
M  END
>  <minimizedAffinity>
-6.04450846

$$$$

 OpenBabel03272503033D

 30 33  0  0  0  0  0  0  0  0999 V2000
   36.0660   27.8660   34.8620 F   0  0  0  0  0  0  0  0  0  0  0  0
   35.9840   28.4700   33.6580 C   0  0  0  0  0  0  0  0  0  0  0  0
   36.8090   28.0670   32.6520 C   0  0  0  0  0  0  0  0  0  0  0  0
   36.6850   28.7210   31.4390 C   0  0  0  0  0  0  0  0  0  0  0  0
   35.7680   29.7400   31.2440 C   0  0  0  0  0  0  0  0  0  0  0  0
   34.9510   30.1230   32.2770 C   0  0  0  0  0  0  0  0  0  0  0  0
   35.0610   29.4840   33.4850 C   0  0  0  0  0  0  0  0  0  0  0  0
   37.3370   28.4130   30.6220 H   0  0  0  0  0  0  0  0  0  0  0  0
   35.7300   30.2040   30.2670 H   0  0  0  0  0  0  0  0  0  0  0  0
   34.2280   30.9160   32.1440 H   0  0  0  0  0  0  0  0  0  0  0  0
   34.1710   29.9240   34.5580 C   0  0  0  0  0  0  0  0  0  0  0  0
   32.9850   29.2730   34.8360 C   0  0  0  0  0  0  0  0  0  0  0  0
   32.7060   28.4110   34.2450 H   0  0  0  0  0  0  0  0  0  0  0  0
   32.1110   29.6440   35.8340 C   0  0  0  0  0  3  0  0  0  0  0  0
   32.4290   30.7380   36.6110 C   0  0  0  0  0  3  0  0  0  0  0  0
   33.6180   31.4200   36.3590 C   0  0  0  0  0  0  0  0  0  0  0  0
   33.9330   32.5240   37.1500 C   0  0  0  0  0  3  0  0  0  0  0  0
   35.1000   33.1530   36.8620 C   0  0  0  0  0  3  0  0  0  0  0  0
   35.9910   32.8020   35.8730 C   0  0  0  0  0  3  0  0  0  0  0  0
   35.6360   31.6930   35.1070 C   0  0  0  0  0  3  0  0  0  0  0  0
   34.4620   31.0110   35.3480 C   0  0  0  0  0  0  0  0  0  0  0  0
   38.3090   24.6380   33.1850 C   0  0  0  0  0  0  0  0  0  0  0  0
   37.3630   25.6430   32.9300 C   0  0  0  0  0  0  0  0  0  0  0  0
   37.7560   26.9880   32.9120 C   0  0  0  0  0  0  0  0  0  0  0  0
   39.0560   27.2440   33.1450 N   0  0  0  0  0  0  0  0  0  0  0  0
   39.9450   26.2620   33.3860 C   0  0  0  0  0  0  0  0  0  0  0  0
   39.5740   24.9720   33.4060 N   0  0  0  0  0  0  0  0  0  0  0  0
   37.8320   23.6690   33.1610 H   0  0  0  0  0  0  0  0  0  0  0  0
   36.3050   25.4800   32.7380 H   0  0  0  0  0  0  0  0  0  0  0  0
   41.0000   26.4260   33.5790 H   0  0  0  0  0  0  0  0  0  0  0  0
  2  1  1  0  0  0  0
  3 24  1  0  0  0  0
  3  2  2  0  0  0  0
  4  3  1  0  0  0  0
  5  4  2  0  0  0  0
  5  6  1  0  0  0  0
  6  7  2  0  0  0  0
  7  2  1  0  0  0  0
  7 11  1  0  0  0  0
  8  4  1  0  0  0  0
  9  5  1  0  0  0  0
 10  6  1  0  0  0  0
 11 12  2  0  0  0  0
 11 21  1  0  0  0  0
 12 14  1  0  0  0  0
 13 12  1  0  0  0  0
 14 15  2  0  0  0  0
 16 15  1  0  0  0  0
 16 17  1  0  0  0  0
 18 17  2  0  0  0  0
 19 18  1  0  0  0  0
 20 21  1  0  0  0  0
 20 19  2  0  0  0  0
 21 16  2  0  0  0  0
 22 27  1  0  0  0  0
 23 22  2  0  0  0  0
 24 23  1  0  0  0  0
 24 25  2  0  0  0  0
 25 26  1  0  0  0  0
 26 27  2  0  0  0  0
 26 30  1  0  0  0  0
 28 22  1  0  0  0  0
 29 23  1  0  0  0  0
M  END
>  <minimizedAffinity>
-5.9766221

$$$$

 OpenBabel03272503033D

 30 33  0  0  0  0  0  0  0  0999 V2000
   40.4570   24.4390   34.7120 F   0  0  0  0  0  0  0  0  0  0  0  0
   39.7120   24.0890   35.7820 C   0  0  0  0  0  0  0  0  0  0  0  0
   40.2280   23.2260   36.7000 C   0  0  0  0  0  0  0  0  0  0  0  0
   39.4210   22.8980   37.7760 C   0  0  0  0  0  0  0  0  0  0  0  0
   38.1460   23.4170   37.9220 C   0  0  0  0  0  0  0  0  0  0  0  0
   37.6550   24.2840   36.9810 C   0  0  0  0  0  0  0  0  0  0  0  0
   38.4420   24.6190   35.9100 C   0  0  0  0  0  0  0  0  0  0  0  0
   39.8170   22.2080   38.5200 H   0  0  0  0  0  0  0  0  0  0  0  0
   37.5750   23.1140   38.7900 H   0  0  0  0  0  0  0  0  0  0  0  0
   36.6620   24.7020   37.0780 H   0  0  0  0  0  0  0  0  0  0  0  0
   37.8790   25.5470   34.9300 C   0  0  0  0  0  0  0  0  0  0  0  0
   37.6810   26.8830   35.2180 C   0  0  0  0  0  0  0  0  0  0  0  0
   37.9500   27.2570   36.1970 H   0  0  0  0  0  0  0  0  0  0  0  0
   37.1550   27.7990   34.3340 C   0  0  0  0  0  3  0  0  0  0  0  0
   36.7970   27.3640   33.0750 C   0  0  0  0  0  3  0  0  0  0  0  0
   36.9830   26.0220   32.7480 C   0  0  0  0  0  0  0  0  0  0  0  0
   36.6200   25.5910   31.4730 C   0  0  0  0  0  3  0  0  0  0  0  0
   36.8200   24.2760   31.2060 C   0  0  0  0  0  3  0  0  0  0  0  0
   37.3440   23.3410   32.0710 C   0  0  0  0  0  3  0  0  0  0  0  0
   37.6920   23.8160   33.3340 C   0  0  0  0  0  3  0  0  0  0  0  0
   37.5130   25.1420   33.6680 C   0  0  0  0  0  0  0  0  0  0  0  0
   43.1390   20.8970   36.0730 C   0  0  0  0  0  0  0  0  0  0  0  0
   41.8240   21.3500   36.2630 C   0  0  0  0  0  0  0  0  0  0  0  0
   41.5770   22.7090   36.4960 C   0  0  0  0  0  0  0  0  0  0  0  0
   42.6470   23.5250   36.5240 N   0  0  0  0  0  0  0  0  0  0  0  0
   43.8990   23.0670   36.3390 C   0  0  0  0  0  0  0  0  0  0  0  0
   44.1420   21.7650   36.1150 N   0  0  0  0  0  0  0  0  0  0  0  0
   43.1410   19.8290   35.9080 H   0  0  0  0  0  0  0  0  0  0  0  0
   40.9340   20.7250   36.2480 H   0  0  0  0  0  0  0  0  0  0  0  0
   44.7860   23.6900   36.3540 H   0  0  0  0  0  0  0  0  0  0  0  0
  1  2  1  0  0  0  0
  2  7  2  0  0  0  0
  2  3  1  0  0  0  0
  3  4  2  0  0  0  0
  4  5  1  0  0  0  0
  4  8  1  0  0  0  0
  5  9  1  0  0  0  0
  6 10  1  0  0  0  0
  6  5  2  0  0  0  0
  7  6  1  0  0  0  0
 11 12  1  0  0  0  0
 11  7  1  0  0  0  0
 12 13  1  0  0  0  0
 14 12  2  0  0  0  0
 15 14  1  0  0  0  0
 16 15  2  0  0  0  0
 16 21  1  0  0  0  0
 17 16  1  0  0  0  0
 18 17  2  0  0  0  0
 18 19  1  0  0  0  0
 19 20  2  0  0  0  0
 20 21  1  0  0  0  0
 21 11  2  0  0  0  0
 22 27  2  0  0  0  0
 22 23  1  0  0  0  0
 23 24  2  0  0  0  0
 24 25  1  0  0  0  0
 24  3  1  0  0  0  0
 26 30  1  0  0  0  0
 26 25  2  0  0  0  0
 27 26  1  0  0  0  0
 28 22  1  0  0  0  0
 29 23  1  0  0  0  0
M  END
>  <minimizedAffinity>
-5.90178299

$$$$
