
 OpenBabel03262521183D

 31 33  0  0  0  0  0  0  0  0999 V2000
   38.8540   31.2510   46.5180 C   0  0  0  0  0  0  0  0  0  0  0  0
   39.2640   32.4130   47.1210 C   0  0  0  0  0  0  0  0  0  0  0  0
   40.0640   33.2930   46.3630 C   0  0  0  0  0  0  0  0  0  0  0  0
   40.3790   32.9380   45.0880 N   0  0  0  0  0  0  0  0  0  0  0  0
   39.9640   31.7910   44.5210 C   0  0  0  0  0  0  0  0  0  0  0  0
   39.2280   31.0180   45.2710 N   0  0  0  0  0  0  0  0  0  0  0  0
   39.0910   32.8150   48.1100 H   0  0  0  0  0  0  0  0  0  0  0  0
   40.4430   34.2230   46.7150 H   0  0  0  0  0  0  0  0  0  0  0  0
   40.2000   31.2500   43.1980 C   0  0  0  0  0  0  0  0  0  0  0  0
   40.9330   30.0810   42.9630 C   0  0  0  0  0  0  0  0  0  0  0  0
   41.3460   29.5590   43.8400 H   0  0  0  0  0  0  0  0  0  0  0  0
   41.1720   29.5470   41.7260 C   0  0  0  0  0  0  0  0  0  0  0  0
   40.6750   30.1700   40.6090 C   0  0  0  0  0  0  0  0  0  0  0  0
   39.9440   31.3220   40.7610 C   0  0  0  0  0  0  0  0  0  0  0  0
   39.4710   31.9060   39.6080 C   0  0  0  0  0  0  0  0  0  0  0  0
   38.7320   33.0660   39.6860 C   0  0  0  0  0  0  0  0  0  0  0  0
   38.4960   33.6010   40.9550 C   0  0  0  0  0  0  0  0  0  0  0  0
   39.0020   32.9600   42.0620 C   0  0  0  0  0  0  0  0  0  0  0  0
   39.7400   31.8070   42.0290 C   0  0  0  0  0  0  0  0  0  0  0  0
   38.0790   30.4530   47.3290 O   0  0  0  0  0  0  0  0  0  0  0  0
   36.7390   30.7690   47.4710 C   0  0  0  0  0  0  0  0  0  0  0  0
   36.6600   31.8790   47.4290 H   0  0  0  0  0  0  0  0  0  0  0  0
   36.0780   30.4050   46.6550 H   0  0  0  0  0  0  0  0  0  0  0  0
   36.5510   30.2000   48.6800 C   0  0  0  0  0  0  0  0  0  0  0  0
   37.0830   29.2230   48.8420 H   0  0  0  0  0  0  0  0  0  0  0  0
   35.4750   29.8390   48.7720 H   0  0  0  0  0  0  0  0  0  0  0  0
   36.8120   31.0150   49.9020 C   0  0  0  0  0  0  0  0  0  0  0  0
   35.8420   31.5270   50.1510 H   0  0  0  0  0  0  0  0  0  0  0  0
   37.5150   31.8700   49.7200 H   0  0  0  0  0  0  0  0  0  0  0  0
   37.2620   30.0300   51.3260 S   0  0  0  0  0  0  0  0  0  0  0  0
   38.3830   29.2240   51.0120 H   0  0  0  0  0  0  0  0  0  0  0  0
  1  2  1  0  0  0  0
  1 20  1  0  0  0  0
  2  7  1  0  0  0  0
  3  8  1  0  0  0  0
  3  2  2  0  0  0  0
  4  3  1  0  0  0  0
  5  4  2  0  0  0  0
  5  6  1  0  0  0  0
  6  1  2  0  0  0  0
  9  5  1  0  0  0  0
 10  9  1  0  0  0  0
 10 11  1  0  0  0  0
 12 10  2  0  0  0  0
 13 14  2  0  0  0  0
 13 12  1  0  0  0  0
 14 19  1  0  0  0  0
 15 16  2  0  0  0  0
 15 14  1  0  0  0  0
 16 17  1  0  0  0  0
 17 18  2  0  0  0  0
 19 18  1  0  0  0  0
 19  9  2  0  0  0  0
 20 21  1  0  0  0  0
 21 24  1  0  0  0  0
 22 21  1  0  0  0  0
 23 21  1  0  0  0  0
 24 26  1  0  0  0  0
 24 25  1  0  0  0  0
 24 27  1  0  0  0  0
 27 28  1  0  0  0  0
 27 30  1  0  0  0  0
 29 27  1  0  0  0  0
 31 30  1  0  0  0  0
M  END
>  <minimizedAffinity>
-4.92872095

>  <minimizedRMSD>
3.70152617

$$$$
