
     RDKit          3D

 29 31  0  0  0  0  0  0  0  0999 V2000
   38.3049   31.2362   50.1169 C   0  0  0  0  0  0  0  0  0  0  0  0
   38.2840   31.5945   48.7705 C   0  0  0  0  0  0  0  0  0  0  0  0
   37.2065   31.2226   47.9853 C   0  0  0  0  0  0  0  0  0  0  0  0
   36.2345   30.5130   48.6237 N   0  0  0  0  0  0  0  0  0  0  0  0
   36.2563   30.1710   49.9070 C   0  0  0  0  0  0  0  0  0  0  0  0
   37.2974   30.5423   50.6333 N   0  0  0  0  0  0  0  0  0  0  0  0
   35.1216   29.3873   50.4571 C   0  0  0  0  0  0  0  0  0  0  0  0
   35.2716   29.1198   51.8067 F   0  0  0  0  0  0  0  0  0  0  0  0
   33.9167   30.0507   50.2926 F   0  0  0  0  0  0  0  0  0  0  0  0
   34.9556   28.1745   49.8110 F   0  0  0  0  0  0  0  0  0  0  0  0
   39.1454   31.5283   50.7308 H   0  0  0  0  0  0  0  0  0  0  0  0
   39.1416   32.1104   48.4043 H   0  0  0  0  0  0  0  0  0  0  0  0
   37.0131   31.4217   46.5704 C   0  0  0  0  0  0  0  0  0  0  0  0
   37.1922   32.7285   46.0998 C   0  0  0  0  0  0  0  0  0  0  0  0
   37.4517   33.5270   46.7850 H   0  0  0  0  0  0  0  0  0  0  0  0
   37.0667   33.1193   44.7999 C   0  0  0  0  0  0  0  0  0  0  0  0
   36.7401   32.1887   43.8398 C   0  0  0  0  0  0  0  0  0  0  0  0
   36.5556   30.8960   44.2367 C   0  0  0  0  0  0  0  0  0  0  0  0
   36.2619   29.9337   43.2984 C   0  0  0  0  0  0  0  0  0  0  0  0
   36.1000   28.5981   43.6438 C   0  0  0  0  0  0  0  0  0  0  0  0
   36.2503   28.2837   44.9804 C   0  0  0  0  0  0  0  0  0  0  0  0
   36.5394   29.2564   45.8831 C   0  0  0  0  0  0  0  0  0  0  0  0
   36.6949   30.5597   45.5541 C   0  0  0  0  0  0  0  0  0  0  0  0
   37.2107   34.1302   44.4770 H   0  0  0  0  0  0  0  0  0  0  0  0
   36.6393   32.4984   42.8118 H   0  0  0  0  0  0  0  0  0  0  0  0
   36.1478   30.1989   42.2507 H   0  0  0  0  0  0  0  0  0  0  0  0
   35.8725   27.8781   42.8949 H   0  0  0  0  0  0  0  0  0  0  0  0
   36.1219   27.2292   45.2388 H   0  0  0  0  0  0  0  0  0  0  0  0
   36.6747   28.9051   46.8722 H   0  0  0  0  0  0  0  0  0  0  0  0
  1  6  2  0
  2  1  1  0
  3  4  1  0
  3  2  2  0
  4  5  2  0
  5  7  1  0
  5  6  1  0
  7  8  1  0
  9  7  1  0
 10  7  1  0
  1 11  1  0
  2 12  1  0
 13 14  2  0
 14 15  1  0
 14 16  1  0
 16 17  2  0
 17 18  1  0
 18 19  2  0
 19 20  1  0
 20 21  2  0
 21 22  1  0
 22 23  2  0
 23 13  1  0
 23 18  1  0
 16 24  1  0
 17 25  1  0
 19 26  1  0
 20 27  1  0
 21 28  1  0
 22 29  1  0
  3 13  1  0
M  ISO  3  11  14  12  14  15  15
M  END
>  <DihAtoms>  (1) 
3,2,12,13

>  <DihDeg>  (1) 
-32.813208269965244

$$$$
