
     RDKit          3D

 49 54  0  0  0  0  0  0  0  0999 V2000
   37.5606   32.0604   48.5097 C   0  0  1  0  0  0  0  0  0  0  0  0
   38.7932   32.7981   48.8366 C   0  0  0  0  0  0  0  0  0  0  0  0
   38.9352   31.6388   47.9191 C   0  0  2  0  0  0  0  0  0  0  0  0
   39.2913   32.0943   46.5480 C   0  0  0  0  0  0  0  0  0  0  0  0
   39.7426   33.4218   46.5799 C   0  0  0  0  0  0  0  0  0  0  0  0
   40.2147   34.0438   45.4446 C   0  0  0  0  0  0  0  0  0  0  0  0
   40.2561   33.3611   44.2248 C   0  0  0  0  0  0  0  0  0  0  0  0
   39.8083   32.0599   44.2226 C   0  0  0  0  0  0  0  0  0  0  0  0
   39.7807   31.2766   43.0857 C   0  0  0  0  0  0  0  0  0  0  0  0
   39.3192   29.9700   43.0695 C   0  0  0  0  0  0  0  0  0  0  0  0
   38.8592   29.4068   44.2470 C   0  0  0  0  0  0  0  0  0  0  0  0
   38.8830   30.1796   45.3852 C   0  0  0  0  0  0  0  0  0  0  0  0
   39.3468   31.4685   45.3589 C   0  0  0  0  0  0  0  0  0  0  0  0
   35.2822   29.5955   50.2137 C   0  0  0  0  0  0  0  0  0  0  0  0
   35.7889   30.5167   49.2435 C   0  0  0  0  0  0  0  0  0  0  0  0
   37.0112   31.1013   49.4825 C   0  0  0  0  0  0  0  0  0  0  0  0
   37.6223   30.7424   50.6251 N   0  0  0  0  0  0  0  0  0  0  0  0
   37.1846   29.8951   51.5412 C   0  0  0  0  0  0  0  0  0  0  0  0
   35.9689   29.3003   51.3275 N   0  0  0  0  0  0  0  0  0  0  0  0
   36.9131   32.3969   47.7155 H   0  0  0  0  0  0  0  0  0  0  0  0
   38.7038   33.8498   48.6065 H   0  0  0  0  0  0  0  0  0  0  0  0
   39.1136   32.6594   49.9244 H   0  0  0  0  0  0  0  0  0  0  0  0
   39.0793   30.5922   48.0870 H   0  0  0  0  0  0  0  0  0  0  0  0
   39.8641   34.1947   47.3112 H   0  0  0  0  0  0  0  0  0  0  0  0
   40.5916   35.0396   45.2953 H   0  0  0  0  0  0  0  0  0  0  0  0
   40.5924   33.6953   43.2491 H   0  0  0  0  0  0  0  0  0  0  0  0
   40.1327   31.6800   42.1417 H   0  0  0  0  0  0  0  0  0  0  0  0
   39.3133   29.3873   42.1552 H   0  0  0  0  0  0  0  0  0  0  0  0
   38.4871   28.3956   44.3038 H   0  0  0  0  0  0  0  0  0  0  0  0
   38.5119   29.7110   46.3152 H   0  0  0  0  0  0  0  0  0  0  0  0
   34.3263   29.1723   49.9754 H   0  0  0  0  0  0  0  0  0  0  0  0
   35.2296   30.7440   48.3549 H   0  0  0  0  0  0  0  0  0  0  0  0
   37.8004   29.4630   52.7778 C   0  0  0  0  0  0  0  0  0  0  0  0
   38.5830   28.3107   52.8517 C   0  0  0  0  0  0  0  0  0  0  0  0
   38.7493   27.6948   51.9554 H   0  0  0  0  0  0  0  0  0  0  0  0
   39.1968   27.8408   53.9767 C   0  0  0  0  0  0  0  0  0  0  0  0
   39.0650   28.5208   55.1590 C   0  0  0  0  0  0  0  0  0  0  0  0
   38.3104   29.6702   55.1806 C   0  0  0  0  0  0  0  0  0  0  0  0
   38.1950   30.3343   56.3642 C   0  0  0  0  0  0  0  0  0  0  0  0
   37.4578   31.4949   56.4534 C   0  0  0  0  0  0  0  0  0  0  0  0
   36.8443   31.9471   55.2824 C   0  0  0  0  0  0  0  0  0  0  0  0
   36.9981   31.2323   54.1177 C   0  0  0  0  0  0  0  0  0  0  0  0
   37.7263   30.0750   54.0049 C   0  0  0  0  0  0  0  0  0  0  0  0
   39.7881   26.9444   53.9702 H   0  0  0  0  0  0  0  0  0  0  0  0
   39.5462   28.1480   56.0314 H   0  0  0  0  0  0  0  0  0  0  0  0
   38.6821   29.9612   57.2597 H   0  0  0  0  0  0  0  0  0  0  0  0
   37.3805   31.9975   57.3870 H   0  0  0  0  0  0  0  0  0  0  0  0
   36.2763   32.8539   55.3807 H   0  0  0  0  0  0  0  0  0  0  0  0
   36.4957   31.6701   53.2996 H   0  0  0  0  0  0  0  0  0  0  0  0
  1  2  1  0
  1 16  1  0
  3  1  1  0
  3  2  1  0
  4  5  2  0
  4  3  1  0
  6  5  1  0
  7  6  2  0
  8  7  1  0
  8 13  2  0
  9  8  1  0
 10  9  2  0
 10 11  1  0
 11 12  2  0
 13 12  1  0
 13  4  1  0
 14 19  2  0
 15 16  2  0
 15 14  1  0
 16 17  1  0
 17 18  2  0
 19 18  1  0
  1 20  1  6
  2 21  1  0
  2 22  1  0
  3 23  1  1
  5 24  1  0
  6 25  1  0
  7 26  1  0
  9 27  1  0
 10 28  1  0
 11 29  1  0
 12 30  1  0
 14 31  1  0
 15 32  1  0
 33 34  2  0
 34 35  1  0
 34 36  1  0
 36 37  2  0
 37 38  1  0
 38 39  2  0
 39 40  1  0
 40 41  2  0
 41 42  1  0
 42 43  2  0
 43 33  1  0
 43 38  1  0
 36 44  1  0
 37 45  1  0
 39 46  1  0
 40 47  1  0
 41 48  1  0
 42 49  1  0
 18 33  1  0
M  ISO  8  20  13  21  13  22  13  23  13  24  14  25  14  26  14  27  14
M  ISO  6  28  14  29  14  30  14  31  14  32  14  35  15
M  END
>  <DihAtoms>  (1) 
16,17,32,33

>  <DihDeg>  (1) 
176.51290229337

$$$$
