
     RDKit          3D

 39 42  0  0  0  0  0  0  0  0999 V2000
   37.9327   31.2426   47.9838 C   0  0  0  0  0  0  0  0  0  0  0  0
   37.3787   31.0873   46.7387 C   0  0  0  0  0  0  0  0  0  0  0  0
   38.1552   31.7890   45.8237 C   0  0  0  0  0  0  0  0  0  0  0  0
   39.1486   32.3411   46.5518 N   0  0  0  0  0  0  0  0  0  0  0  0
   39.0183   32.0175   47.8377 N   0  0  0  0  0  0  0  0  0  0  0  0
   37.2517   30.1611   51.5271 C   0  0  0  0  0  0  0  0  0  0  0  0
   37.8867   30.7971   50.4673 C   0  0  0  0  0  0  0  0  0  0  0  0
   37.3678   30.6356   49.1787 C   0  0  0  0  0  0  0  0  0  0  0  0
   36.2644   29.8543   49.0733 N   0  0  0  0  0  0  0  0  0  0  0  0
   35.6679   29.2482   50.1219 C   0  0  0  0  0  0  0  0  0  0  0  0
   36.1711   29.4083   51.3498 N   0  0  0  0  0  0  0  0  0  0  0  0
   40.1901   33.1672   45.9600 C   0  0  0  0  0  0  0  0  0  0  0  0
   39.7508   33.6506   44.5813 C   0  0  0  0  0  0  0  0  0  0  0  0
   36.4777   30.5161   46.4631 H   0  0  0  0  0  0  0  0  0  0  0  0
   37.9276   31.8239   44.7679 H   0  0  0  0  0  0  0  0  0  0  0  0
   37.6895   30.3141   52.5123 H   0  0  0  0  0  0  0  0  0  0  0  0
   38.7680   31.4203   50.5574 H   0  0  0  0  0  0  0  0  0  0  0  0
   34.7959   28.6558   49.8876 H   0  0  0  0  0  0  0  0  0  0  0  0
   41.0975   32.5387   45.9292 H   0  0  0  0  0  0  0  0  0  0  0  0
   40.4013   34.0282   46.6304 H   0  0  0  0  0  0  0  0  0  0  0  0
   39.5601   32.7342   43.9607 H   0  0  0  0  0  0  0  0  0  0  0  0
   38.8151   34.2290   44.6818 H   0  0  0  0  0  0  0  0  0  0  0  0
   40.7947   34.4987   43.9553 C   0  0  0  0  0  0  0  0  0  0  0  0
   40.3943   35.3473   42.9151 C   0  0  0  0  0  0  0  0  0  0  0  0
   39.3516   35.3302   42.6092 H   0  0  0  0  0  0  0  0  0  0  0  0
   41.2094   36.2214   42.2267 C   0  0  0  0  0  0  0  0  0  0  0  0
   42.5386   36.2608   42.5984 C   0  0  0  0  0  0  0  0  0  0  0  0
   42.9697   35.4292   43.6289 C   0  0  0  0  0  0  0  0  0  0  0  0
   44.3080   35.4882   43.9737 C   0  0  0  0  0  0  0  0  0  0  0  0
   44.7269   34.6441   45.0049 C   0  0  0  0  0  0  0  0  0  0  0  0
   43.8774   33.7959   45.6541 C   0  0  0  0  0  0  0  0  0  0  0  0
   42.5361   33.7413   45.3037 C   0  0  0  0  0  0  0  0  0  0  0  0
   42.1272   34.5624   44.3007 C   0  0  0  0  0  0  0  0  0  0  0  0
   40.8040   36.8354   41.4386 H   0  0  0  0  0  0  0  0  0  0  0  0
   43.1931   36.9410   42.0691 H   0  0  0  0  0  0  0  0  0  0  0  0
   44.9650   36.1646   43.4499 H   0  0  0  0  0  0  0  0  0  0  0  0
   45.7961   34.7527   45.2144 H   0  0  0  0  0  0  0  0  0  0  0  0
   44.3175   33.1847   46.4421 H   0  0  0  0  0  0  0  0  0  0  0  0
   41.8803   33.0689   45.8148 H   0  0  0  0  0  0  0  0  0  0  0  0
  1  8  1  0
  2  1  1  0
  3  4  1  0
  3  2  2  0
  4  5  1  0
  5  1  2  0
  7  6  2  0
  8  7  1  0
  9  8  2  0
  9 10  1  0
 10 11  2  0
 11  6  1  0
 12  4  1  0
 13 12  1  0
  2 14  1  0
  3 15  1  0
  6 16  1  0
  7 17  1  0
 10 18  1  0
 12 19  1  0
 12 20  1  0
 13 21  1  0
 13 22  1  0
 23 24  2  0
 24 25  1  0
 24 26  1  0
 26 27  2  0
 27 28  1  0
 28 29  2  0
 29 30  1  0
 30 31  2  0
 31 32  1  0
 32 33  2  0
 33 23  1  0
 33 28  1  0
 26 34  1  0
 27 35  1  0
 29 36  1  0
 30 37  1  0
 31 38  1  0
 32 39  1  0
 13 23  1  0
M  ISO  8  14  14  15  14  16  14  17  14  18  14  19   8  20   8  21   8
M  ISO  2  22   8  25  15
M  END
>  <DihAtoms>  (1) 
11,12,22,23

>  <DihDeg>  (1) 
-100.22687254783948

$$$$
