
 OpenBabel03272510273D

 47 52  0  0  1  0  0  0  0  0999 V2000
   39.7000   31.8170   41.9160 N   0  0  0  0  0  0  0  0  0  0  0  0
   39.3380   33.2320   42.0010 C   0  0  1  0  0  0  0  0  0  0  0  0
   37.9640   33.4170   41.5570 C   0  0  0  0  0  0  0  0  0  0  0  0
   37.8630   33.0620   40.2020 O   0  0  0  0  0  0  0  0  0  0  0  0
   38.3150   31.7950   39.9020 C   0  0  0  0  0  0  0  0  0  0  0  0
   39.6870   31.5430   40.4940 C   0  0  2  0  0  0  0  0  0  0  0  0
   39.0150   31.1810   42.3000 H   0  0  0  0  0  0  0  0  0  0  0  0
   40.0400   33.7500   41.3210 H   0  0  0  0  0  0  0  0  0  0  0  0
   37.7660   34.5340   41.5440 H   0  0  0  0  0  0  0  0  0  0  0  0
   37.1110   32.9730   41.9950 H   0  0  0  0  0  0  0  0  0  0  0  0
   38.3700   31.7230   38.8120 H   0  0  0  0  0  0  0  0  0  0  0  0
   37.6210   31.0570   40.3630 H   0  0  0  0  0  0  0  0  0  0  0  0
   40.3830   32.3080   40.0850 H   0  0  0  0  0  0  0  0  0  0  0  0
   40.1080   30.1610   40.2830 C   0  0  0  0  0  0  0  0  0  0  0  0
   40.8490   29.6670   39.2450 C   0  0  0  0  0  0  0  0  0  0  0  0
   41.1930   30.3330   38.4690 H   0  0  0  0  0  0  0  0  0  0  0  0
   41.2300   28.3550   39.0620 C   0  0  0  0  0  3  0  0  0  0  0  0
   40.8440   27.4150   39.9960 C   0  0  0  0  0  3  0  0  0  0  0  0
   40.0950   27.8520   41.0680 C   0  0  0  0  0  0  0  0  0  0  0  0
   39.7380   26.8750   41.9720 C   0  0  0  0  0  3  0  0  0  0  0  0
   38.9890   27.2170   43.0790 C   0  0  0  0  0  3  0  0  0  0  0  0
   38.6110   28.5320   43.2580 C   0  0  0  0  0  3  0  0  0  0  0  0
   38.9970   29.4460   42.3270 C   0  0  0  0  0  3  0  0  0  0  0  0
   39.7420   29.1950   41.1950 C   0  0  0  0  0  0  0  0  0  0  0  0
   39.4890   33.6000   43.3620 O   0  0  0  0  0  0  0  0  0  0  0  0
   36.2130   30.2340   46.9310 C   0  0  0  0  0  0  0  0  0  0  0  0
   37.0680   30.7540   47.8850 C   0  0  0  0  0  0  0  0  0  0  0  0
   38.0860   31.6530   47.5320 C   0  0  0  0  0  0  0  0  0  0  0  0
   38.1660   31.9720   46.1820 C   0  0  0  0  0  0  0  0  0  0  0  0
   39.0680   32.8250   45.5940 N   0  0  0  0  0  0  0  0  0  0  0  0
   38.7730   32.8340   44.2830 C   0  0  0  0  0  0  0  0  0  0  0  0
   37.7540   32.0400   44.0530 N   0  0  0  0  0  0  0  0  0  0  0  0
   37.3410   31.4820   45.2020 C   0  0  0  0  0  0  0  0  0  0  0  0
   36.3360   30.5860   45.5940 C   0  0  0  0  0  0  0  0  0  0  0  0
   35.4160   29.5410   47.1540 H   0  0  0  0  0  0  0  0  0  0  0  0
   38.7580   32.0640   48.2680 H   0  0  0  0  0  0  0  0  0  0  0  0
   39.8290   33.3550   46.0920 H   0  0  0  0  0  0  0  0  0  0  0  0
   35.6830   30.1960   44.8250 H   0  0  0  0  0  0  0  0  0  0  0  0
   37.4600   30.1310   51.5760 C   0  0  0  0  0  0  0  0  0  0  0  0
   37.7710   30.5790   50.2950 C   0  0  0  0  0  0  0  0  0  0  0  0
   36.8920   30.3530   49.2670 C   0  0  0  0  0  0  0  0  0  0  0  0
   35.7260   29.6820   49.5710 N   0  0  0  0  0  0  0  0  0  0  0  0
   35.4330   29.2530   50.8150 C   0  0  0  0  0  0  0  0  0  0  0  0
   36.2870   29.4760   51.7950 N   0  0  0  0  0  0  0  0  0  0  0  0
   38.1760   30.3260   52.3610 H   0  0  0  0  0  0  0  0  0  0  0  0
   38.6760   31.0980   50.0610 H   0  0  0  0  0  0  0  0  0  0  0  0
   34.4870   28.7340   50.9500 H   0  0  0  0  0  0  0  0  0  0  0  0
  1  2  1  0  0  0  0
  1  7  1  0  0  0  0
  2  8  1  6  0  0  0
  2 25  1  0  0  0  0
  3 10  1  0  0  0  0
  3  2  1  0  0  0  0
  4  3  1  0  0  0  0
  5  4  1  0  0  0  0
  5 12  1  0  0  0  0
  5  6  1  0  0  0  0
  6 13  1  6  0  0  0
  6  1  1  0  0  0  0
  9  3  1  0  0  0  0
 11  5  1  0  0  0  0
 14  6  1  0  0  0  0
 14 24  1  0  0  0  0
 15 14  2  0  0  0  0
 16 15  1  0  0  0  0
 17 15  1  0  0  0  0
 17 18  2  0  0  0  0
 18 19  1  0  0  0  0
 19 24  2  0  0  0  0
 19 20  1  0  0  0  0
 20 21  2  0  0  0  0
 21 22  1  0  0  0  0
 23 22  2  0  0  0  0
 24 23  1  0  0  0  0
 25 31  1  0  0  0  0
 26 35  1  0  0  0  0
 26 27  1  0  0  0  0
 27 41  1  0  0  0  0
 28 27  2  0  0  0  0
 28 36  1  0  0  0  0
 29 28  1  0  0  0  0
 30 37  1  0  0  0  0
 30 29  1  0  0  0  0
 31 30  1  0  0  0  0
 32 31  2  0  0  0  0
 32 33  1  0  0  0  0
 33 34  1  0  0  0  0
 33 29  2  0  0  0  0
 34 26  2  0  0  0  0
 38 34  1  0  0  0  0
 39 44  1  0  0  0  0
 39 45  1  0  0  0  0
 40 39  2  0  0  0  0
 41 42  2  0  0  0  0
 41 40  1  0  0  0  0
 42 43  1  0  0  0  0
 43 47  1  0  0  0  0
 43 44  2  0  0  0  0
 46 40  1  0  0  0  0
M  END
>  <minimizedAffinity>
-6.7896595

>  <minimizedRMSD>
1.29803789

$$$$
