
 OpenBabel03272510033D

 23 25  0  0  0  0  0  0  0  0999 V2000
   40.7460   22.1170   35.9510 C   0  0  0  0  0  0  0  0  0  0  0  0
   40.0730   22.2250   34.7350 C   0  0  0  0  0  0  0  0  0  0  0  0
   38.8230   22.8190   34.7020 C   0  0  0  0  0  0  0  0  0  0  0  0
   38.3490   23.2540   35.9030 N   0  0  0  0  0  0  0  0  0  0  0  0
   38.9920   23.1500   37.0610 C   0  0  0  0  0  0  0  0  0  0  0  0
   40.1850   22.5800   37.0620 N   0  0  0  0  0  0  0  0  0  0  0  0
   41.7230   21.6550   35.9770 H   0  0  0  0  0  0  0  0  0  0  0  0
   40.5530   21.7930   33.8880 H   0  0  0  0  0  0  0  0  0  0  0  0
   37.9280   22.9690   33.5810 C   0  0  0  0  0  0  0  0  0  0  0  0
   38.1290   24.0970   32.7770 C   0  0  0  0  0  0  0  0  0  0  0  0
   38.9150   24.8050   33.0130 H   0  0  0  0  0  0  0  0  0  0  0  0
   37.4000   24.4120   31.6690 C   0  0  0  0  0  3  0  0  0  0  0  0
   36.3740   23.5830   31.2730 C   0  0  0  0  0  3  0  0  0  0  0  0
   36.1320   22.4640   32.0150 C   0  0  0  0  0  0  0  0  0  0  0  0
   35.1380   21.5960   31.6300 C   0  0  0  0  0  3  0  0  0  0  0  0
   34.8730   20.4250   32.3290 C   0  0  0  0  0  3  0  0  0  0  0  0
   35.6610   20.1770   33.4350 C   0  0  0  0  0  3  0  0  0  0  0  0
   36.6350   21.0540   33.7930 C   0  0  0  0  0  3  0  0  0  0  0  0
   36.8960   22.1970   33.1180 C   0  0  0  0  0  0  0  0  0  0  0  0
   38.3390   23.6670   38.2900 C   0  0  0  0  0  0  0  0  0  0  0  0
   37.2590   22.8920   38.6780 F   0  0  0  0  0  0  0  0  0  0  0  0
   39.2240   23.7150   39.3550 F   0  0  0  0  0  0  0  0  0  0  0  0
   37.8840   24.9650   38.1400 F   0  0  0  0  0  0  0  0  0  0  0  0
  1  7  1  0  0  0  0
  1  6  1  0  0  0  0
  2  1  2  0  0  0  0
  3  2  1  0  0  0  0
  3  4  2  0  0  0  0
  4  5  1  0  0  0  0
  5  6  2  0  0  0  0
  5 20  1  0  0  0  0
  8  2  1  0  0  0  0
  9  3  1  0  0  0  0
 10 11  1  0  0  0  0
 10  9  2  0  0  0  0
 12 10  1  0  0  0  0
 13 12  2  0  0  0  0
 13 14  1  0  0  0  0
 14 19  1  0  0  0  0
 15 14  2  0  0  0  0
 15 16  1  0  0  0  0
 16 17  2  0  0  0  0
 17 18  1  0  0  0  0
 19  9  1  0  0  0  0
 19 18  2  0  0  0  0
 20 21  1  0  0  0  0
 20 22  1  0  0  0  0
 23 20  1  0  0  0  0
M  END
>  <minimizedAffinity>
-6.02253532

$$$$

 OpenBabel03272510033D

 23 25  0  0  0  0  0  0  0  0999 V2000
   38.3500   27.0750   33.0810 C   0  0  0  0  0  0  0  0  0  0  0  0
   38.8040   26.5280   34.2800 C   0  0  0  0  0  0  0  0  0  0  0  0
   38.4330   25.2390   34.6220 C   0  0  0  0  0  0  0  0  0  0  0  0
   37.6290   24.6030   33.7240 N   0  0  0  0  0  0  0  0  0  0  0  0
   37.1970   25.1250   32.5820 C   0  0  0  0  0  0  0  0  0  0  0  0
   37.5680   26.3580   32.2800 N   0  0  0  0  0  0  0  0  0  0  0  0
   38.6400   28.0800   32.8120 H   0  0  0  0  0  0  0  0  0  0  0  0
   39.3880   27.1680   34.9010 H   0  0  0  0  0  0  0  0  0  0  0  0
   38.7230   24.5110   35.8330 C   0  0  0  0  0  0  0  0  0  0  0  0
   37.8820   24.7650   36.9230 C   0  0  0  0  0  0  0  0  0  0  0  0
   37.0730   25.4800   36.8350 H   0  0  0  0  0  0  0  0  0  0  0  0
   37.9830   24.1730   38.1470 C   0  0  0  0  0  3  0  0  0  0  0  0
   38.9760   23.2460   38.3730 C   0  0  0  0  0  3  0  0  0  0  0  0
   39.8250   22.9540   37.3470 C   0  0  0  0  0  0  0  0  0  0  0  0
   40.8080   22.0090   37.5270 C   0  0  0  0  0  3  0  0  0  0  0  0
   41.6770   21.6480   36.5050 C   0  0  0  0  0  3  0  0  0  0  0  0
   41.5040   22.2890   35.2950 C   0  0  0  0  0  3  0  0  0  0  0  0
   40.5250   23.2200   35.1470 C   0  0  0  0  0  3  0  0  0  0  0  0
   39.6780   23.5780   36.1390 C   0  0  0  0  0  0  0  0  0  0  0  0
   36.3170   24.3080   31.7110 C   0  0  0  0  0  0  0  0  0  0  0  0
   36.0950   23.0420   32.2250 F   0  0  0  0  0  0  0  0  0  0  0  0
   35.0810   24.9080   31.5280 F   0  0  0  0  0  0  0  0  0  0  0  0
   36.8340   24.1510   30.4360 F   0  0  0  0  0  0  0  0  0  0  0  0
  1  2  1  0  0  0  0
  2  3  2  0  0  0  0
  2  8  1  0  0  0  0
  3  9  1  0  0  0  0
  4  3  1  0  0  0  0
  5  4  2  0  0  0  0
  6  5  1  0  0  0  0
  6  1  2  0  0  0  0
  7  1  1  0  0  0  0
  9 19  2  0  0  0  0
  9 10  1  0  0  0  0
 10 12  2  0  0  0  0
 11 10  1  0  0  0  0
 12 13  1  0  0  0  0
 14 15  1  0  0  0  0
 14 13  2  0  0  0  0
 16 15  2  0  0  0  0
 17 16  1  0  0  0  0
 18 17  2  0  0  0  0
 18 19  1  0  0  0  0
 19 14  1  0  0  0  0
 20 21  1  0  0  0  0
 20  5  1  0  0  0  0
 22 20  1  0  0  0  0
 23 20  1  0  0  0  0
M  END
>  <minimizedAffinity>
-5.94992876

$$$$

 OpenBabel03272510033D

 23 25  0  0  0  0  0  0  0  0999 V2000
   37.1660   27.4770   33.1780 C   0  0  0  0  0  0  0  0  0  0  0  0
   38.1100   26.8340   33.9780 C   0  0  0  0  0  0  0  0  0  0  0  0
   38.2900   25.4670   33.8510 C   0  0  0  0  0  0  0  0  0  0  0  0
   37.4970   24.8560   32.9260 N   0  0  0  0  0  0  0  0  0  0  0  0
   36.5980   25.4700   32.1650 C   0  0  0  0  0  0  0  0  0  0  0  0
   36.4490   26.7760   32.3070 N   0  0  0  0  0  0  0  0  0  0  0  0
   37.0260   28.5440   33.2750 H   0  0  0  0  0  0  0  0  0  0  0  0
   38.6190   27.4420   34.6890 H   0  0  0  0  0  0  0  0  0  0  0  0
   39.1480   24.5980   34.6170 C   0  0  0  0  0  0  0  0  0  0  0  0
   40.2970   24.1350   33.9670 C   0  0  0  0  0  0  0  0  0  0  0  0
   40.5000   24.4210   32.9420 H   0  0  0  0  0  0  0  0  0  0  0  0
   41.2370   23.3160   34.5200 C   0  0  0  0  0  3  0  0  0  0  0  0
   41.0830   22.8880   35.8200 C   0  0  0  0  0  3  0  0  0  0  0  0
   39.9830   23.3090   36.5070 C   0  0  0  0  0  0  0  0  0  0  0  0
   39.8150   22.9280   37.8180 C   0  0  0  0  0  3  0  0  0  0  0  0
   38.7320   23.3580   38.5750 C   0  0  0  0  0  3  0  0  0  0  0  0
   37.8300   24.1900   37.9420 C   0  0  0  0  0  3  0  0  0  0  0  0
   38.0220   24.5490   36.6460 C   0  0  0  0  0  3  0  0  0  0  0  0
   39.0720   24.1310   35.9030 C   0  0  0  0  0  0  0  0  0  0  0  0
   35.8030   24.6620   31.2070 C   0  0  0  0  0  0  0  0  0  0  0  0
   34.9890   25.4460   30.4060 F   0  0  0  0  0  0  0  0  0  0  0  0
   36.6180   23.9150   30.3720 F   0  0  0  0  0  0  0  0  0  0  0  0
   34.9920   23.7370   31.8410 F   0  0  0  0  0  0  0  0  0  0  0  0
  1  7  1  0  0  0  0
  1  2  1  0  0  0  0
  2  8  1  0  0  0  0
  3  2  2  0  0  0  0
  3  9  1  0  0  0  0
  4  3  1  0  0  0  0
  5  6  1  0  0  0  0
  5  4  2  0  0  0  0
  6  1  2  0  0  0  0
  9 19  1  0  0  0  0
 10 12  1  0  0  0  0
 10  9  2  0  0  0  0
 11 10  1  0  0  0  0
 12 13  2  0  0  0  0
 13 14  1  0  0  0  0
 14 15  1  0  0  0  0
 15 16  2  0  0  0  0
 17 16  1  0  0  0  0
 18 17  2  0  0  0  0
 19 14  2  0  0  0  0
 19 18  1  0  0  0  0
 20 23  1  0  0  0  0
 20  5  1  0  0  0  0
 21 20  1  0  0  0  0
 22 20  1  0  0  0  0
M  END
>  <minimizedAffinity>
-5.94017696

$$$$

 OpenBabel03272510033D

 23 25  0  0  0  0  0  0  0  0999 V2000
   39.7620   22.9160   35.1500 C   0  0  0  0  0  0  0  0  0  0  0  0
   39.3420   23.9630   34.3310 C   0  0  0  0  0  0  0  0  0  0  0  0
   38.5770   24.9830   34.8720 C   0  0  0  0  0  0  0  0  0  0  0  0
   38.2950   24.8620   36.2000 N   0  0  0  0  0  0  0  0  0  0  0  0
   38.6950   23.8630   36.9780 C   0  0  0  0  0  0  0  0  0  0  0  0
   39.4260   22.9040   36.4350 N   0  0  0  0  0  0  0  0  0  0  0  0
   40.3610   22.1210   34.7290 H   0  0  0  0  0  0  0  0  0  0  0  0
   39.6030   23.8930   33.3010 H   0  0  0  0  0  0  0  0  0  0  0  0
   37.9810   26.1120   34.2020 C   0  0  0  0  0  0  0  0  0  0  0  0
   37.0770   26.8700   34.9560 C   0  0  0  0  0  0  0  0  0  0  0  0
   36.8500   26.5950   35.9790 H   0  0  0  0  0  0  0  0  0  0  0  0
   36.4180   27.9780   34.5100 C   0  0  0  0  0  3  0  0  0  0  0  0
   36.6280   28.4210   33.2240 C   0  0  0  0  0  3  0  0  0  0  0  0
   37.5020   27.7240   32.4410 C   0  0  0  0  0  0  0  0  0  0  0  0
   37.7610   28.1580   31.1620 C   0  0  0  0  0  3  0  0  0  0  0  0
   38.6690   27.5070   30.3350 C   0  0  0  0  0  3  0  0  0  0  0  0
   39.2990   26.3980   30.8650 C   0  0  0  0  0  3  0  0  0  0  0  0
   39.0210   25.9920   32.1310 C   0  0  0  0  0  3  0  0  0  0  0  0
   38.1360   26.6200   32.9400 C   0  0  0  0  0  0  0  0  0  0  0  0
   38.2980   23.8680   38.4080 C   0  0  0  0  0  0  0  0  0  0  0  0
   37.3080   22.9400   38.6830 F   0  0  0  0  0  0  0  0  0  0  0  0
   39.3730   23.5910   39.2360 F   0  0  0  0  0  0  0  0  0  0  0  0
   37.8330   25.1040   38.8230 F   0  0  0  0  0  0  0  0  0  0  0  0
  1  6  1  0  0  0  0
  2  3  1  0  0  0  0
  2  1  2  0  0  0  0
  3  4  2  0  0  0  0
  4  5  1  0  0  0  0
  5 20  1  0  0  0  0
  6  5  2  0  0  0  0
  7  1  1  0  0  0  0
  8  2  1  0  0  0  0
  9  3  1  0  0  0  0
  9 10  1  0  0  0  0
 10 11  1  0  0  0  0
 12 10  2  0  0  0  0
 13 12  1  0  0  0  0
 14 19  1  0  0  0  0
 14 13  2  0  0  0  0
 15 14  1  0  0  0  0
 16 17  1  0  0  0  0
 16 15  2  0  0  0  0
 17 18  2  0  0  0  0
 18 19  1  0  0  0  0
 19  9  2  0  0  0  0
 20 21  1  0  0  0  0
 20 23  1  0  0  0  0
 20 22  1  0  0  0  0
M  END
>  <minimizedAffinity>
-5.83686066

$$$$

 OpenBabel03272510033D

 23 25  0  0  0  0  0  0  0  0999 V2000
   40.7970   22.4570   35.7340 C   0  0  0  0  0  0  0  0  0  0  0  0
   39.9770   22.3360   34.6130 C   0  0  0  0  0  0  0  0  0  0  0  0
   38.6350   22.6620   34.7150 C   0  0  0  0  0  0  0  0  0  0  0  0
   38.2270   23.0830   35.9450 N   0  0  0  0  0  0  0  0  0  0  0  0
   39.0090   23.1970   37.0120 C   0  0  0  0  0  0  0  0  0  0  0  0
   40.2870   22.8800   36.8850 N   0  0  0  0  0  0  0  0  0  0  0  0
   41.8450   22.2040   35.6540 H   0  0  0  0  0  0  0  0  0  0  0  0
   40.4330   21.9470   33.7320 H   0  0  0  0  0  0  0  0  0  0  0  0
   37.6030   22.5450   33.7150 C   0  0  0  0  0  0  0  0  0  0  0  0
   36.9580   21.3040   33.6360 C   0  0  0  0  0  0  0  0  0  0  0  0
   37.2460   20.4940   34.2950 H   0  0  0  0  0  0  0  0  0  0  0  0
   35.9520   20.9960   32.7690 C   0  0  0  0  0  3  0  0  0  0  0  0
   35.5030   21.9500   31.8840 C   0  0  0  0  0  3  0  0  0  0  0  0
   36.0900   23.1810   31.9160 C   0  0  0  0  0  0  0  0  0  0  0  0
   35.6440   24.1680   31.0690 C   0  0  0  0  0  3  0  0  0  0  0  0
   36.1820   25.4490   31.0850 C   0  0  0  0  0  3  0  0  0  0  0  0
   37.1930   25.6810   31.9970 C   0  0  0  0  0  3  0  0  0  0  0  0
   37.6140   24.6860   32.8200 C   0  0  0  0  0  3  0  0  0  0  0  0
   37.0950   23.4360   32.8070 C   0  0  0  0  0  0  0  0  0  0  0  0
   38.4130   23.6620   38.2890 C   0  0  0  0  0  0  0  0  0  0  0  0
   39.3260   23.6570   39.3300 F   0  0  0  0  0  0  0  0  0  0  0  0
   37.9130   24.9500   38.1780 F   0  0  0  0  0  0  0  0  0  0  0  0
   37.3340   22.8890   38.6810 F   0  0  0  0  0  0  0  0  0  0  0  0
  1  6  1  0  0  0  0
  2  3  1  0  0  0  0
  2  1  2  0  0  0  0
  3  4  2  0  0  0  0
  4  5  1  0  0  0  0
  5 20  1  0  0  0  0
  6  5  2  0  0  0  0
  7  1  1  0  0  0  0
  8  2  1  0  0  0  0
  9  3  1  0  0  0  0
 10  9  1  0  0  0  0
 10 11  1  0  0  0  0
 12 10  2  0  0  0  0
 13 14  2  0  0  0  0
 13 12  1  0  0  0  0
 14 19  1  0  0  0  0
 15 16  2  0  0  0  0
 15 14  1  0  0  0  0
 16 17  1  0  0  0  0
 17 18  2  0  0  0  0
 19 18  1  0  0  0  0
 19  9  2  0  0  0  0
 20 23  1  0  0  0  0
 20 21  1  0  0  0  0
 22 20  1  0  0  0  0
M  END
>  <minimizedAffinity>
-5.80568361

$$$$

 OpenBabel03272510033D

 23 25  0  0  0  0  0  0  0  0999 V2000
   36.4120   23.6410   31.8880 C   0  0  0  0  0  0  0  0  0  0  0  0
   37.5160   23.6980   32.7380 C   0  0  0  0  0  0  0  0  0  0  0  0
   37.8740   22.5730   33.4610 C   0  0  0  0  0  0  0  0  0  0  0  0
   37.0860   21.4780   33.2700 N   0  0  0  0  0  0  0  0  0  0  0  0
   36.0340   21.4260   32.4610 C   0  0  0  0  0  0  0  0  0  0  0  0
   35.7160   22.5140   31.7810 N   0  0  0  0  0  0  0  0  0  0  0  0
   36.1330   24.5170   31.3210 H   0  0  0  0  0  0  0  0  0  0  0  0
   38.0040   24.6410   32.8160 H   0  0  0  0  0  0  0  0  0  0  0  0
   38.9220   22.4310   34.4410 C   0  0  0  0  0  0  0  0  0  0  0  0
   40.1530   21.9610   33.9660 C   0  0  0  0  0  0  0  0  0  0  0  0
   40.2790   21.7180   32.9180 H   0  0  0  0  0  0  0  0  0  0  0  0
   41.2670   21.7700   34.7280 C   0  0  0  0  0  3  0  0  0  0  0  0
   41.2240   22.0470   36.0760 C   0  0  0  0  0  3  0  0  0  0  0  0
   40.0520   22.5120   36.5970 C   0  0  0  0  0  0  0  0  0  0  0  0
   39.9830   22.8320   37.9330 C   0  0  0  0  0  3  0  0  0  0  0  0
   38.8250   23.3420   38.5070 C   0  0  0  0  0  3  0  0  0  0  0  0
   37.7440   23.5130   37.6660 C   0  0  0  0  0  3  0  0  0  0  0  0
   37.8420   23.1870   36.3510 C   0  0  0  0  0  3  0  0  0  0  0  0
   38.9650   22.6860   35.7860 C   0  0  0  0  0  0  0  0  0  0  0  0
   35.2670   20.1580   32.3670 C   0  0  0  0  0  0  0  0  0  0  0  0
   35.3210   19.4220   33.5380 F   0  0  0  0  0  0  0  0  0  0  0  0
   33.9320   20.3910   32.0790 F   0  0  0  0  0  0  0  0  0  0  0  0
   35.7190   19.3420   31.3440 F   0  0  0  0  0  0  0  0  0  0  0  0
  1  2  1  0  0  0  0
  2  8  1  0  0  0  0
  2  3  2  0  0  0  0
  3  9  1  0  0  0  0
  4  3  1  0  0  0  0
  5  4  2  0  0  0  0
  6  1  2  0  0  0  0
  6  5  1  0  0  0  0
  7  1  1  0  0  0  0
  9 19  1  0  0  0  0
 10  9  2  0  0  0  0
 10 12  1  0  0  0  0
 11 10  1  0  0  0  0
 12 13  2  0  0  0  0
 13 14  1  0  0  0  0
 14 15  1  0  0  0  0
 15 16  2  0  0  0  0
 17 16  1  0  0  0  0
 18 17  2  0  0  0  0
 19 18  1  0  0  0  0
 19 14  2  0  0  0  0
 20  5  1  0  0  0  0
 20 21  1  0  0  0  0
 22 20  1  0  0  0  0
 23 20  1  0  0  0  0
M  END
>  <minimizedAffinity>
-5.74115705

$$$$

 OpenBabel03272510033D

 23 25  0  0  0  0  0  0  0  0999 V2000
   37.0680   23.5850   32.0270 C   0  0  0  0  0  0  0  0  0  0  0  0
   37.8250   23.7870   33.1800 C   0  0  0  0  0  0  0  0  0  0  0  0
   37.8250   22.8200   34.1700 C   0  0  0  0  0  0  0  0  0  0  0  0
   37.0560   21.7230   33.9180 N   0  0  0  0  0  0  0  0  0  0  0  0
   36.3350   21.5330   32.8190 C   0  0  0  0  0  0  0  0  0  0  0  0
   36.3560   22.4730   31.8890 N   0  0  0  0  0  0  0  0  0  0  0  0
   37.0690   24.3390   31.2520 H   0  0  0  0  0  0  0  0  0  0  0  0
   38.3370   24.7190   33.2520 H   0  0  0  0  0  0  0  0  0  0  0  0
   38.4690   22.8530   35.4600 C   0  0  0  0  0  0  0  0  0  0  0  0
   37.6910   23.3170   36.5270 C   0  0  0  0  0  0  0  0  0  0  0  0
   36.6690   23.6350   36.3620 H   0  0  0  0  0  0  0  0  0  0  0  0
   38.1100   23.4150   37.8210 C   0  0  0  0  0  3  0  0  0  0  0  0
   39.3930   23.0370   38.1490 C   0  0  0  0  0  3  0  0  0  0  0  0
   40.1990   22.5730   37.1510 C   0  0  0  0  0  0  0  0  0  0  0  0
   41.4760   22.1560   37.4480 C   0  0  0  0  0  3  0  0  0  0  0  0
   42.3250   21.6420   36.4770 C   0  0  0  0  0  3  0  0  0  0  0  0
   41.8220   21.5700   35.1930 C   0  0  0  0  0  3  0  0  0  0  0  0
   40.5580   21.9910   34.9290 C   0  0  0  0  0  3  0  0  0  0  0  0
   39.7260   22.4960   35.8700 C   0  0  0  0  0  0  0  0  0  0  0  0
   35.5400   20.2860   32.6940 C   0  0  0  0  0  0  0  0  0  0  0  0
   35.4890   19.5720   33.8790 F   0  0  0  0  0  0  0  0  0  0  0  0
   34.2360   20.5500   32.3080 F   0  0  0  0  0  0  0  0  0  0  0  0
   36.0380   19.4370   31.7210 F   0  0  0  0  0  0  0  0  0  0  0  0
  1  2  1  0  0  0  0
  2  8  1  0  0  0  0
  2  3  2  0  0  0  0
  3  9  1  0  0  0  0
  4  3  1  0  0  0  0
  5  4  2  0  0  0  0
  6  1  2  0  0  0  0
  6  5  1  0  0  0  0
  7  1  1  0  0  0  0
  9 19  2  0  0  0  0
  9 10  1  0  0  0  0
 10 12  2  0  0  0  0
 11 10  1  0  0  0  0
 12 13  1  0  0  0  0
 14 15  1  0  0  0  0
 14 13  2  0  0  0  0
 16 15  2  0  0  0  0
 17 16  1  0  0  0  0
 18 17  2  0  0  0  0
 18 19  1  0  0  0  0
 19 14  1  0  0  0  0
 20  5  1  0  0  0  0
 20 21  1  0  0  0  0
 22 20  1  0  0  0  0
 23 20  1  0  0  0  0
M  END
>  <minimizedAffinity>
-5.61841583

$$$$

 OpenBabel03272510033D

 23 25  0  0  0  0  0  0  0  0999 V2000
   35.9800   29.0650   31.5180 C   0  0  0  0  0  0  0  0  0  0  0  0
   35.4560   29.9990   32.4110 C   0  0  0  0  0  0  0  0  0  0  0  0
   35.5440   29.7600   33.7710 C   0  0  0  0  0  0  0  0  0  0  0  0
   36.1520   28.5920   34.1230 N   0  0  0  0  0  0  0  0  0  0  0  0
   36.6490   27.7030   33.2710 C   0  0  0  0  0  0  0  0  0  0  0  0
   36.5540   27.9590   31.9770 N   0  0  0  0  0  0  0  0  0  0  0  0
   35.9150   29.2520   30.4550 H   0  0  0  0  0  0  0  0  0  0  0  0
   34.9680   30.8430   31.9810 H   0  0  0  0  0  0  0  0  0  0  0  0
   35.0110   30.5440   34.8580 C   0  0  0  0  0  0  0  0  0  0  0  0
   35.8550   31.5350   35.3760 C   0  0  0  0  0  0  0  0  0  0  0  0
   36.8500   31.6740   34.9700 H   0  0  0  0  0  0  0  0  0  0  0  0
   35.5350   32.3850   36.3930 C   0  0  0  0  0  3  0  0  0  0  0  0
   34.2960   32.2990   36.9860 C   0  0  0  0  0  3  0  0  0  0  0  0
   33.4280   31.3550   36.5210 C   0  0  0  0  0  0  0  0  0  0  0  0
   32.1690   31.2630   37.0680 C   0  0  0  0  0  3  0  0  0  0  0  0
   31.2340   30.3440   36.6080 C   0  0  0  0  0  3  0  0  0  0  0  0
   31.6340   29.5240   35.5720 C   0  0  0  0  0  3  0  0  0  0  0  0
   32.8850   29.6370   35.0530 C   0  0  0  0  0  3  0  0  0  0  0  0
   33.8010   30.5280   35.4980 C   0  0  0  0  0  0  0  0  0  0  0  0
   37.2770   26.4710   33.8090 C   0  0  0  0  0  0  0  0  0  0  0  0
   36.9340   26.2390   35.1300 F   0  0  0  0  0  0  0  0  0  0  0  0
   36.9090   25.3520   33.0790 F   0  0  0  0  0  0  0  0  0  0  0  0
   38.6590   26.5080   33.7410 F   0  0  0  0  0  0  0  0  0  0  0  0
  1  6  2  0  0  0  0
  1  2  1  0  0  0  0
  2  3  2  0  0  0  0
  3  4  1  0  0  0  0
  3  9  1  0  0  0  0
  5 20  1  0  0  0  0
  5  4  2  0  0  0  0
  6  5  1  0  0  0  0
  7  1  1  0  0  0  0
  8  2  1  0  0  0  0
  9 10  2  0  0  0  0
  9 19  1  0  0  0  0
 10 12  1  0  0  0  0
 11 10  1  0  0  0  0
 12 13  2  0  0  0  0
 14 13  1  0  0  0  0
 14 15  1  0  0  0  0
 16 15  2  0  0  0  0
 17 16  1  0  0  0  0
 18 19  1  0  0  0  0
 18 17  2  0  0  0  0
 19 14  2  0  0  0  0
 20 21  1  0  0  0  0
 22 20  1  0  0  0  0
 23 20  1  0  0  0  0
M  END
>  <minimizedAffinity>
-5.61142635

$$$$

 OpenBabel03272510033D

 23 25  0  0  0  0  0  0  0  0999 V2000
   35.0110   25.6480   30.8100 C   0  0  0  0  0  0  0  0  0  0  0  0
   35.9290   26.3420   31.5960 C   0  0  0  0  0  0  0  0  0  0  0  0
   36.7940   25.6340   32.4140 C   0  0  0  0  0  0  0  0  0  0  0  0
   36.6590   24.2790   32.3750 N   0  0  0  0  0  0  0  0  0  0  0  0
   35.7830   23.6190   31.6260 C   0  0  0  0  0  0  0  0  0  0  0  0
   34.9710   24.3210   30.8530 N   0  0  0  0  0  0  0  0  0  0  0  0
   34.3370   26.1990   30.1700 H   0  0  0  0  0  0  0  0  0  0  0  0
   35.8810   27.4050   31.5530 H   0  0  0  0  0  0  0  0  0  0  0  0
   37.7620   26.1440   33.3530 C   0  0  0  0  0  0  0  0  0  0  0  0
   37.3330   26.2590   34.6810 C   0  0  0  0  0  0  0  0  0  0  0  0
   36.3230   25.9830   34.9560 H   0  0  0  0  0  0  0  0  0  0  0  0
   38.0980   26.7080   35.7170 C   0  0  0  0  0  3  0  0  0  0  0  0
   39.4010   27.0870   35.4840 C   0  0  0  0  0  3  0  0  0  0  0  0
   39.8780   26.9940   34.2100 C   0  0  0  0  0  0  0  0  0  0  0  0
   41.1850   27.3330   33.9470 C   0  0  0  0  0  3  0  0  0  0  0  0
   41.7310   27.2220   32.6740 C   0  0  0  0  0  3  0  0  0  0  0  0
   40.8920   26.7540   31.6820 C   0  0  0  0  0  3  0  0  0  0  0  0
   39.6050   26.4280   31.9720 C   0  0  0  0  0  3  0  0  0  0  0  0
   39.0660   26.5360   33.2080 C   0  0  0  0  0  0  0  0  0  0  0  0
   35.7530   22.1370   31.7000 C   0  0  0  0  0  0  0  0  0  0  0  0
   35.3300   21.5590   30.5150 F   0  0  0  0  0  0  0  0  0  0  0  0
   37.0020   21.6160   31.9980 F   0  0  0  0  0  0  0  0  0  0  0  0
   34.9210   21.6750   32.7050 F   0  0  0  0  0  0  0  0  0  0  0  0
  1  6  2  0  0  0  0
  1  2  1  0  0  0  0
  2  3  2  0  0  0  0
  3  9  1  0  0  0  0
  4  3  1  0  0  0  0
  5 20  1  0  0  0  0
  5  4  2  0  0  0  0
  6  5  1  0  0  0  0
  7  1  1  0  0  0  0
  8  2  1  0  0  0  0
  9 10  1  0  0  0  0
 10 11  1  0  0  0  0
 10 12  2  0  0  0  0
 13 12  1  0  0  0  0
 14 13  2  0  0  0  0
 15 14  1  0  0  0  0
 16 15  2  0  0  0  0
 17 18  2  0  0  0  0
 17 16  1  0  0  0  0
 18 19  1  0  0  0  0
 19  9  2  0  0  0  0
 19 14  1  0  0  0  0
 20 22  1  0  0  0  0
 20 23  1  0  0  0  0
 21 20  1  0  0  0  0
M  END
>  <minimizedAffinity>
-5.59726524

$$$$
