
 OpenBabel03272500363D

 23 25  0  0  0  0  0  0  0  0999 V2000
   37.2970   30.5410   49.5660 C   0  0  0  0  0  0  0  0  0  0  0  0
   37.1330   31.7420   50.2380 C   0  0  0  0  0  0  0  0  0  0  0  0
   37.5990   32.9010   49.5960 C   0  0  0  0  0  0  0  0  0  0  0  0
   38.1730   32.7800   48.3780 N   0  0  0  0  0  0  0  0  0  0  0  0
   38.3200   31.6120   47.7500 C   0  0  0  0  0  0  0  0  0  0  0  0
   37.8710   30.5360   48.3780 N   0  0  0  0  0  0  0  0  0  0  0  0
   36.6810   31.8400   51.1990 H   0  0  0  0  0  0  0  0  0  0  0  0
   37.5320   33.8920   50.0090 H   0  0  0  0  0  0  0  0  0  0  0  0
   38.9010   31.2970   46.4480 C   0  0  0  0  0  0  0  0  0  0  0  0
   40.2590   31.4710   46.1470 C   0  0  0  0  0  0  0  0  0  0  0  0
   40.9100   31.8680   46.9400 H   0  0  0  0  0  0  0  0  0  0  0  0
   40.8210   31.1800   44.9330 C   0  0  0  0  0  0  0  0  0  0  0  0
   40.0600   30.6900   43.9250 C   0  0  0  0  0  0  0  0  0  0  0  0
   38.7160   30.4890   44.1400 C   0  0  0  0  0  0  0  0  0  0  0  0
   37.9750   29.9880   43.0930 C   0  0  0  0  0  0  0  0  0  0  0  0
   36.6240   29.7640   43.2470 C   0  0  0  0  0  0  0  0  0  0  0  0
   36.0630   30.0640   44.4870 C   0  0  0  0  0  0  0  0  0  0  0  0
   36.8560   30.5630   45.4980 C   0  0  0  0  0  0  0  0  0  0  0  0
   38.2030   30.7980   45.3750 C   0  0  0  0  0  0  0  0  0  0  0  0
   36.8120   29.2800   50.2160 C   0  0  0  0  0  0  0  0  0  0  0  0
   36.0330   28.5500   49.3230 F   0  0  0  0  0  0  0  0  0  0  0  0
   37.9070   28.5770   50.6490 F   0  0  0  0  0  0  0  0  0  0  0  0
   35.9930   29.6590   51.2700 F   0  0  0  0  0  0  0  0  0  0  0  0
  1 20  1  0  0  0  0
  1  2  1  0  0  0  0
  2  7  1  0  0  0  0
  3  8  1  0  0  0  0
  3  2  2  0  0  0  0
  4  3  1  0  0  0  0
  5  4  2  0  0  0  0
  5  6  1  0  0  0  0
  6  1  2  0  0  0  0
  9  5  1  0  0  0  0
 10  9  1  0  0  0  0
 10 11  1  0  0  0  0
 12 10  2  0  0  0  0
 13 14  2  0  0  0  0
 13 12  1  0  0  0  0
 14 19  1  0  0  0  0
 15 16  2  0  0  0  0
 15 14  1  0  0  0  0
 16 17  1  0  0  0  0
 17 18  2  0  0  0  0
 19 18  1  0  0  0  0
 19  9  2  0  0  0  0
 20 22  1  0  0  0  0
 20 23  1  0  0  0  0
 21 20  1  0  0  0  0
M  END
>  <minimizedAffinity>
-6.4506588

>  <minimizedRMSD>
3.57768536

$$$$
