
     RDKit          3D

 38 41  0  0  0  0  0  0  0  0999 V2000
   38.0888   33.1471   49.5031 C   0  0  0  0  0  0  0  0  0  0  0  0
   38.9350   33.0670   48.3654 C   0  0  0  0  0  0  0  0  0  0  0  0
   38.7045   32.0536   47.4353 C   0  0  0  0  0  0  0  0  0  0  0  0
   37.6819   31.1883   47.6559 N   0  0  0  0  0  0  0  0  0  0  0  0
   36.8946   31.2812   48.7357 C   0  0  0  0  0  0  0  0  0  0  0  0
   37.0818   32.2479   49.6645 N   0  0  0  0  0  0  0  0  0  0  0  0
   35.8326   30.3427   48.9148 N   0  0  0  0  0  0  0  0  0  0  0  0
   34.7537   30.1825   47.9362 C   0  0  0  0  0  0  0  0  0  0  0  0
   34.0145   28.9731   48.3709 C   0  0  0  0  0  0  0  0  0  0  0  0
   34.8690   28.3160   49.4325 C   0  0  0  0  0  0  0  0  0  0  0  0
   35.6447   29.4405   50.0248 C   0  0  0  0  0  0  0  0  0  0  0  0
   38.1848   33.8908   50.2767 H   0  0  0  0  0  0  0  0  0  0  0  0
   39.3764   32.0310   46.6015 H   0  0  0  0  0  0  0  0  0  0  0  0
   34.1799   31.1128   47.9066 H   0  0  0  0  0  0  0  0  0  0  0  0
   35.1827   30.0181   46.9144 H   0  0  0  0  0  0  0  0  0  0  0  0
   33.8079   28.2812   47.5114 H   0  0  0  0  0  0  0  0  0  0  0  0
   33.0510   29.3042   48.8166 H   0  0  0  0  0  0  0  0  0  0  0  0
   34.1664   27.9180   50.2138 H   0  0  0  0  0  0  0  0  0  0  0  0
   35.4808   27.5297   48.9830 H   0  0  0  0  0  0  0  0  0  0  0  0
   35.1131   29.9419   50.8523 H   0  0  0  0  0  0  0  0  0  0  0  0
   36.6318   29.0188   50.3566 H   0  0  0  0  0  0  0  0  0  0  0  0
   39.9512   34.0899   48.3670 C   0  0  0  0  0  0  0  0  0  0  0  0
   39.5579   35.3372   48.8640 C   0  0  0  0  0  0  0  0  0  0  0  0
   38.5264   35.5070   49.2065 H   0  0  0  0  0  0  0  0  0  0  0  0
   40.3995   36.4302   48.9663 C   0  0  0  0  0  0  0  0  0  0  0  0
   41.7199   36.2509   48.5396 C   0  0  0  0  0  0  0  0  0  0  0  0
   42.1495   35.0379   48.0424 C   0  0  0  0  0  0  0  0  0  0  0  0
   43.4472   34.8890   47.6237 C   0  0  0  0  0  0  0  0  0  0  0  0
   43.8094   33.6505   47.1291 C   0  0  0  0  0  0  0  0  0  0  0  0
   42.9399   32.5651   47.0354 C   0  0  0  0  0  0  0  0  0  0  0  0
   41.6554   32.7859   47.4732 C   0  0  0  0  0  0  0  0  0  0  0  0
   41.2613   34.0044   47.9715 C   0  0  0  0  0  0  0  0  0  0  0  0
   40.0399   37.3687   49.3582 H   0  0  0  0  0  0  0  0  0  0  0  0
   42.4000   37.0956   48.6107 H   0  0  0  0  0  0  0  0  0  0  0  0
   44.1826   35.6817   47.6632 H   0  0  0  0  0  0  0  0  0  0  0  0
   44.8347   33.4692   46.7784 H   0  0  0  0  0  0  0  0  0  0  0  0
   43.2724   31.6354   46.6465 H   0  0  0  0  0  0  0  0  0  0  0  0
   40.9866   31.9445   47.3891 H   0  0  0  0  0  0  0  0  0  0  0  0
  1  6  2  0
  2  1  1  0
  3  4  1  0
  3  2  2  0
  4  5  2  0
  5  7  1  0
  5  6  1  0
  7 11  1  0
  8  9  1  0
  8  7  1  0
  9 10  1  0
 10 11  1  0
  1 12  1  0
  3 13  1  0
  8 14  1  0
  8 15  1  0
  9 16  1  0
  9 17  1  0
 10 18  1  0
 10 19  1  0
 11 20  1  0
 11 21  1  0
 22 23  2  0
 23 24  1  0
 23 25  1  0
 25 26  2  0
 26 27  1  0
 27 28  2  0
 28 29  1  0
 29 30  2  0
 30 31  1  0
 31 32  2  0
 32 22  1  0
 32 27  1  0
 25 33  1  0
 26 34  1  0
 28 35  1  0
 29 36  1  0
 30 37  1  0
 31 38  1  0
  2 22  1  0
M  ISO  8  12  14  13  14  14  13  15  13  16  13  17  13  18  13  19  13
M  ISO  3  20  13  21  13  24  15
M  END
>  <DihAtoms>  (1) 
0,1,21,22

>  <DihDeg>  (1) 
53.18370482102763

$$$$
