
 OpenBabel03272509473D

 27 29  0  0  0  0  0  0  0  0999 V2000
   32.7600   27.4840   48.3400 C   0  0  0  0  0  0  0  0  0  0  0  0
   33.1820   26.7640   47.6220 H   0  0  0  0  0  0  0  0  0  0  0  0
   32.6020   26.8780   49.2800 H   0  0  0  0  0  0  0  0  0  0  0  0
   31.4690   28.0360   47.8860 C   0  0  0  0  0  0  0  0  0  0  0  0
   31.4500   28.7240   46.6790 C   0  0  0  0  0  0  0  0  0  0  0  0
   32.3670   28.8200   46.1060 H   0  0  0  0  0  0  0  0  0  0  0  0
   30.3540   29.3220   46.1050 C   0  0  0  0  0  3  0  0  0  0  0  0
   29.1570   29.2140   46.8220 C   0  0  0  0  0  3  0  0  0  0  0  0
   29.1280   28.5390   48.0260 C   0  0  0  0  0  0  0  0  0  0  0  0
   27.9760   28.3960   48.7730 C   0  0  0  0  0  3  0  0  0  0  0  0
   27.9120   27.7240   49.9780 C   0  0  0  0  0  3  0  0  0  0  0  0
   29.0750   27.1720   50.4390 C   0  0  0  0  0  3  0  0  0  0  0  0
   30.2520   27.2760   49.7480 C   0  0  0  0  0  3  0  0  0  0  0  0
   30.2680   27.9550   48.5550 C   0  0  0  0  0  0  0  0  0  0  0  0
   33.7160   28.5800   48.6750 C   0  0  0  0  0  0  0  0  0  0  0  0
   33.2090   29.5130   48.8980 H   0  0  0  0  0  0  0  0  0  0  0  0
   34.3140   28.7780   47.7430 H   0  0  0  0  0  0  0  0  0  0  0  0
   34.5860   28.1910   49.7210 O   0  0  0  0  0  0  0  0  0  0  0  0
   37.1980   30.1840   51.2770 C   0  0  0  0  0  0  0  0  0  0  0  0
   37.8770   30.6210   50.1430 C   0  0  0  0  0  0  0  0  0  0  0  0
   37.4150   30.2180   48.8920 C   0  0  0  0  0  0  0  0  0  0  0  0
   36.3070   29.4060   48.8860 N   0  0  0  0  0  0  0  0  0  0  0  0
   35.6770   29.0030   49.9900 C   0  0  0  0  0  0  0  0  0  0  0  0
   36.1290   29.3970   51.1900 N   0  0  0  0  0  0  0  0  0  0  0  0
   37.5960   30.5240   52.2140 H   0  0  0  0  0  0  0  0  0  0  0  0
   38.7540   31.2590   50.1000 H   0  0  0  0  0  0  0  0  0  0  0  0
   37.8660   30.4980   47.9370 H   0  0  0  0  0  0  0  0  0  0  0  0
  1 15  1  0  0  0  0
  1  3  1  0  0  0  0
  2  1  1  0  0  0  0
  4  1  1  0  0  0  0
  4 14  1  0  0  0  0
  5  4  2  0  0  0  0
  6  5  1  0  0  0  0
  7  5  1  0  0  0  0
  7  8  2  0  0  0  0
  8  9  1  0  0  0  0
  9 14  2  0  0  0  0
  9 10  1  0  0  0  0
 10 11  2  0  0  0  0
 11 12  1  0  0  0  0
 13 12  2  0  0  0  0
 14 13  1  0  0  0  0
 15 16  1  0  0  0  0
 15 18  1  0  0  0  0
 17 15  1  0  0  0  0
 18 23  1  0  0  0  0
 19 25  1  0  0  0  0
 20 19  2  0  0  0  0
 21 20  1  0  0  0  0
 22 21  2  0  0  0  0
 22 23  1  0  0  0  0
 23 24  2  0  0  0  0
 24 19  1  0  0  0  0
 26 20  1  0  0  0  0
 27 21  1  0  0  0  0
M  END
>  <minimizedAffinity>
-5.32941437

>  <minimizedRMSD>
2.81488752

$$$$
