REMARK  Name = 
REMARK  2 active torsions:
REMARK  status: ('A' for Active; 'I' for Inactive)
REMARK    1  A    between atoms: C_2  and  C_20
REMARK    2  A    between atoms: C_3  and  C_7
REMARK                            x       y       z     vdW  Elec       q    Type
REMARK                         _______ _______ _______ _____ _____    ______ ____
ROOT
ATOM      1  C   UNL     1      37.248  30.093  51.497  0.00  0.00    +0.000 A 
ATOM      2  C   UNL     1      37.988  30.818  50.514  0.00  0.00    +0.000 A 
ATOM      3  C   UNL     1      37.638  30.628  49.177  0.00  0.00    +0.000 A 
ATOM      4  N   UNL     1      36.624  29.773  48.867  0.00  0.00    +0.000 NA
ATOM      5  C   UNL     1      35.944  29.102  49.824  0.00  0.00    +0.000 A 
ATOM      6  N   UNL     1      36.253  29.260  51.129  0.00  0.00    +0.000 NA
ATOM      7  H   UNL     1      37.428  30.160  52.548  0.00  0.00    +0.000 HD
ATOM      8  H   UNL     1      35.168  28.462  49.419  0.00  0.00    +0.000 HD
ENDROOT
BRANCH   3   9
ATOM      9  C   UNL     1      38.329  31.313  48.113  0.00  0.00    +0.000 A 
ATOM     10  C   UNL     1      38.821  32.561  48.340  0.00  0.00    +0.000 A 
ATOM     11  C   UNL     1      39.510  33.281  47.381  0.00  0.00    +0.000 A 
ATOM     12  C   UNL     1      39.691  32.675  46.136  0.00  0.00    +0.000 A 
ATOM     13  C   UNL     1      39.211  31.398  45.840  0.00  0.00    +0.000 A 
ATOM     14  C   UNL     1      38.530  30.750  46.868  0.00  0.00    +0.000 A 
ATOM     15  H   UNL     1      38.758  33.162  49.216  0.00  0.00    +0.000 HD
ATOM     16  H   UNL     1      39.930  34.270  47.482  0.00  0.00    +0.000 HD
ATOM     17  H   UNL     1      40.215  33.136  45.299  0.00  0.00    +0.000 HD
ATOM     18  H   UNL     1      39.355  30.937  44.876  0.00  0.00    +0.000 HD
ATOM     19  H   UNL     1      38.148  29.760  46.664  0.00  0.00    +0.000 HD
ENDBRANCH   3   9
BRANCH   2  20
ATOM     20  C   UNL     1      39.012  31.632  51.101  0.00  0.00    +0.000 A 
ATOM     21  C   UNL     1      40.283  31.102  51.394  0.00  0.00    +0.000 A 
ATOM     22  H   UNL     1      40.493  30.048  51.175  0.00  0.00    +0.000 HD
ATOM     23  C   UNL     1      41.324  31.810  51.948  0.00  0.00    +0.000 A 
ATOM     24  C   UNL     1      41.134  33.131  52.246  0.00  0.00    +0.000 A 
ATOM     25  C   UNL     1      39.922  33.731  51.993  0.00  0.00    +0.000 A 
ATOM     26  C   UNL     1      39.733  35.069  52.285  0.00  0.00    +0.000 A 
ATOM     27  C   UNL     1      38.531  35.698  52.031  0.00  0.00    +0.000 A 
ATOM     28  C   UNL     1      37.527  34.934  51.472  0.00  0.00    +0.000 A 
ATOM     29  C   UNL     1      37.736  33.605  51.189  0.00  0.00    +0.000 A 
ATOM     30  C   UNL     1      38.924  32.967  51.438  0.00  0.00    +0.000 A 
ENDBRANCH   2  20
TORSDOF 2
