
     RDKit          3D

 36 39  0  0  0  0  0  0  0  0999 V2000
   37.2481   30.0928   51.4967 C   0  0  0  0  0  0  0  0  0  0  0  0
   37.9883   30.8181   50.5144 C   0  0  0  0  0  0  0  0  0  0  0  0
   37.6382   30.6281   49.1770 C   0  0  0  0  0  0  0  0  0  0  0  0
   36.6237   29.7735   48.8675 N   0  0  0  0  0  0  0  0  0  0  0  0
   35.9437   29.1016   49.8243 C   0  0  0  0  0  0  0  0  0  0  0  0
   36.2532   29.2601   51.1294 N   0  0  0  0  0  0  0  0  0  0  0  0
   38.3294   31.3128   48.1131 C   0  0  0  0  0  0  0  0  0  0  0  0
   38.8213   32.5614   48.3399 C   0  0  0  0  0  0  0  0  0  0  0  0
   39.5099   33.2812   47.3813 C   0  0  0  0  0  0  0  0  0  0  0  0
   39.6915   32.6754   46.1363 C   0  0  0  0  0  0  0  0  0  0  0  0
   39.2106   31.3982   45.8403 C   0  0  0  0  0  0  0  0  0  0  0  0
   38.5302   30.7497   46.8679 C   0  0  0  0  0  0  0  0  0  0  0  0
   37.4277   30.1602   52.5481 H   0  0  0  0  0  0  0  0  0  0  0  0
   35.1676   28.4616   49.4189 H   0  0  0  0  0  0  0  0  0  0  0  0
   38.7582   33.1617   49.2160 H   0  0  0  0  0  0  0  0  0  0  0  0
   39.9299   34.2704   47.4816 H   0  0  0  0  0  0  0  0  0  0  0  0
   40.2153   33.1361   45.2993 H   0  0  0  0  0  0  0  0  0  0  0  0
   39.3546   30.9372   44.8758 H   0  0  0  0  0  0  0  0  0  0  0  0
   38.1480   29.7597   46.6643 H   0  0  0  0  0  0  0  0  0  0  0  0
   39.0120   31.6319   51.1011 C   0  0  0  0  0  0  0  0  0  0  0  0
   39.9912   31.0724   51.9447 C   0  0  0  0  0  0  0  0  0  0  0  0
   39.9672   29.9979   52.1616 H   0  0  0  0  0  0  0  0  0  0  0  0
   41.0111   31.7746   52.5426 C   0  0  0  0  0  0  0  0  0  0  0  0
   41.1027   33.1202   52.3158 C   0  0  0  0  0  0  0  0  0  0  0  0
   40.1881   33.7504   51.5033 C   0  0  0  0  0  0  0  0  0  0  0  0
   40.2856   35.1081   51.2657 C   0  0  0  0  0  0  0  0  0  0  0  0
   39.3877   35.7620   50.4464 C   0  0  0  0  0  0  0  0  0  0  0  0
   38.3889   35.0012   49.8748 C   0  0  0  0  0  0  0  0  0  0  0  0
   38.3089   33.6516   50.1240 C   0  0  0  0  0  0  0  0  0  0  0  0
   39.1935   32.9891   50.9368 C   0  0  0  0  0  0  0  0  0  0  0  0
   41.7228   31.2829   53.1745 H   0  0  0  0  0  0  0  0  0  0  0  0
   41.8950   33.6716   52.7797 H   0  0  0  0  0  0  0  0  0  0  0  0
   41.0819   35.6799   51.7290 H   0  0  0  0  0  0  0  0  0  0  0  0
   39.4878   36.8077   50.2823 H   0  0  0  0  0  0  0  0  0  0  0  0
   37.6996   35.5347   49.2381 H   0  0  0  0  0  0  0  0  0  0  0  0
   37.5031   33.1449   49.6231 H   0  0  0  0  0  0  0  0  0  0  0  0
  2  1  2  0
  3  2  1  0
  4  3  2  0
  4  5  1  0
  5  6  2  0
  6  1  1  0
  7  8  2  0
  7  3  1  0
  9  8  1  0
 10  9  2  0
 11 10  1  0
 11 12  2  0
 12  7  1  0
  1 13  1  0
  5 14  1  0
  8 15  1  0
  9 16  1  0
 10 17  1  0
 11 18  1  0
 12 19  1  0
 20 21  2  0
 21 22  1  0
 21 23  1  0
 23 24  2  0
 24 25  1  0
 25 26  2  0
 26 27  1  0
 27 28  2  0
 28 29  1  0
 29 30  2  0
 30 20  1  0
 30 25  1  0
 23 31  1  0
 24 32  1  0
 26 33  1  0
 27 34  1  0
 28 35  1  0
 29 36  1  0
  2 20  1  0
M  ISO  8  13  14  14  14  15  14  16  14  17  14  18  14  19  14  22  15
M  END
>  <DihAtoms>  (1) 
0,1,19,20

>  <DihDeg>  (1) 
-64.39103845749074

$$$$
