
     RDKit          3D

 28 30  0  0  0  0  0  0  0  0999 V2000
   37.3100   30.2163   51.4204 C   0  0  0  0  0  0  0  0  0  0  0  0
   38.0754   30.7372   50.3814 C   0  0  0  0  0  0  0  0  0  0  0  0
   37.7500   30.4268   49.0582 C   0  0  0  0  0  0  0  0  0  0  0  0
   36.6638   29.6101   48.9153 N   0  0  0  0  0  0  0  0  0  0  0  0
   35.9335   29.1146   49.9129 C   0  0  0  0  0  0  0  0  0  0  0  0
   36.2631   29.4225   51.1770 N   0  0  0  0  0  0  0  0  0  0  0  0
   34.8452   28.2844   49.5348 N   0  0  0  0  0  0  0  0  0  0  0  0
   37.5635   30.4557   52.4439 H   0  0  0  0  0  0  0  0  0  0  0  0
   38.8484   31.3838   50.6532 H   0  0  0  0  0  0  0  0  0  0  0  0
   35.0191   27.2593   49.4800 H   0  0  0  0  0  0  0  0  0  0  0  0
   33.9986   28.8818   49.3644 H   0  0  0  0  0  0  0  0  0  0  0  0
   38.3626   30.9166   47.8475 C   0  0  0  0  0  0  0  0  0  0  0  0
   37.9548   30.2617   46.6721 C   0  0  0  0  0  0  0  0  0  0  0  0
   37.2186   29.4482   46.7029 H   0  0  0  0  0  0  0  0  0  0  0  0
   38.4255   30.5701   45.4151 C   0  0  0  0  0  0  0  0  0  0  0  0
   39.3476   31.5670   45.2551 C   0  0  0  0  0  0  0  0  0  0  0  0
   39.7787   32.2331   46.3718 C   0  0  0  0  0  0  0  0  0  0  0  0
   40.7322   33.2195   46.2491 C   0  0  0  0  0  0  0  0  0  0  0  0
   41.2333   33.9029   47.3440 C   0  0  0  0  0  0  0  0  0  0  0  0
   40.7123   33.5299   48.5894 C   0  0  0  0  0  0  0  0  0  0  0  0
   39.7691   32.5507   48.6759 C   0  0  0  0  0  0  0  0  0  0  0  0
   39.2773   31.8848   47.5988 C   0  0  0  0  0  0  0  0  0  0  0  0
   38.0787   30.0367   44.5444 H   0  0  0  0  0  0  0  0  0  0  0  0
   39.7167   31.8151   44.2912 H   0  0  0  0  0  0  0  0  0  0  0  0
   41.0893   33.4518   45.2384 H   0  0  0  0  0  0  0  0  0  0  0  0
   41.9844   34.6758   47.2120 H   0  0  0  0  0  0  0  0  0  0  0  0
   41.1252   34.0805   49.4204 H   0  0  0  0  0  0  0  0  0  0  0  0
   39.4906   32.3390   49.6651 H   0  0  0  0  0  0  0  0  0  0  0  0
  2  1  2  0
  3  2  1  0
  4  3  2  0
  4  5  1  0
  5  6  2  0
  6  1  1  0
  7  5  1  0
  1  8  1  0
  2  9  1  0
  7 10  1  0
  7 11  1  0
 12 13  2  0
 13 14  1  0
 13 15  1  0
 15 16  2  0
 16 17  1  0
 17 18  2  0
 18 19  1  0
 19 20  2  0
 20 21  1  0
 21 22  2  0
 22 12  1  0
 22 17  1  0
 15 23  1  0
 16 24  1  0
 18 25  1  0
 19 26  1  0
 20 27  1  0
 21 28  1  0
  3 12  1  0
M  ISO  3   8  14   9  14  14  15
M  END
>  <DihAtoms>  (1) 
1,2,11,12

>  <DihDeg>  (1) 
-144.5638883325183

$$$$
