
     RDKit          3D

 28 30  0  0  0  0  0  0  0  0999 V2000
   37.3100   30.2163   51.4204 C   0  0  0  0  0  0  0  0  0  0  0  0
   38.0754   30.7372   50.3814 C   0  0  0  0  0  0  0  0  0  0  0  0
   37.7500   30.4268   49.0582 C   0  0  0  0  0  0  0  0  0  0  0  0
   36.6638   29.6101   48.9153 N   0  0  0  0  0  0  0  0  0  0  0  0
   35.9335   29.1146   49.9129 C   0  0  0  0  0  0  0  0  0  0  0  0
   36.2631   29.4225   51.1770 N   0  0  0  0  0  0  0  0  0  0  0  0
   34.8452   28.2844   49.5348 N   0  0  0  0  0  0  0  0  0  0  0  0
   37.5635   30.4557   52.4439 H   0  0  0  0  0  0  0  0  0  0  0  0
   38.8484   31.3838   50.6532 H   0  0  0  0  0  0  0  0  0  0  0  0
   35.0191   27.2593   49.4800 H   0  0  0  0  0  0  0  0  0  0  0  0
   33.9986   28.8818   49.3644 H   0  0  0  0  0  0  0  0  0  0  0  0
   38.3626   30.9166   47.8475 C   0  0  0  0  0  0  0  0  0  0  0  0
   39.6584   31.4375   48.0098 C   0  0  0  0  0  0  0  0  0  0  0  0
   40.1450   31.4502   48.9936 H   0  0  0  0  0  0  0  0  0  0  0  0
   40.4121   31.9624   46.9835 C   0  0  0  0  0  0  0  0  0  0  0  0
   39.9073   31.9997   45.7134 C   0  0  0  0  0  0  0  0  0  0  0  0
   38.6465   31.5063   45.5049 C   0  0  0  0  0  0  0  0  0  0  0  0
   38.0955   31.5601   44.2437 C   0  0  0  0  0  0  0  0  0  0  0  0
   36.8132   31.1107   43.9779 C   0  0  0  0  0  0  0  0  0  0  0  0
   36.1055   30.5969   45.0719 C   0  0  0  0  0  0  0  0  0  0  0  0
   36.6802   30.5570   46.3064 C   0  0  0  0  0  0  0  0  0  0  0  0
   37.9401   30.9958   46.5625 C   0  0  0  0  0  0  0  0  0  0  0  0
   41.4030   32.3488   47.1618 H   0  0  0  0  0  0  0  0  0  0  0  0
   40.4792   32.4003   44.9138 H   0  0  0  0  0  0  0  0  0  0  0  0
   38.7152   31.9777   43.4408 H   0  0  0  0  0  0  0  0  0  0  0  0
   36.4093   31.1670   42.9716 H   0  0  0  0  0  0  0  0  0  0  0  0
   35.1103   30.2574   44.8303 H   0  0  0  0  0  0  0  0  0  0  0  0
   36.0337   30.1870   47.0454 H   0  0  0  0  0  0  0  0  0  0  0  0
  2  1  2  0
  3  2  1  0
  4  3  2  0
  4  5  1  0
  5  6  2  0
  6  1  1  0
  7  5  1  0
  1  8  1  0
  2  9  1  0
  7 10  1  0
  7 11  1  0
 12 13  2  0
 13 14  1  0
 13 15  1  0
 15 16  2  0
 16 17  1  0
 17 18  2  0
 18 19  1  0
 19 20  2  0
 20 21  1  0
 21 22  2  0
 22 12  1  0
 22 17  1  0
 15 23  1  0
 16 24  1  0
 18 25  1  0
 19 26  1  0
 20 27  1  0
 21 28  1  0
  3 12  1  0
M  ISO  3   8  14   9  14  14  15
M  END
>  <DihAtoms>  (1) 
1,2,11,12

>  <DihDeg>  (1) 
-144.5638883325183

$$$$
