
     RDKit          3D

 28 30  0  0  0  0  0  0  0  0999 V2000
   37.3100   30.2163   51.4204 C   0  0  0  0  0  0  0  0  0  0  0  0
   38.0754   30.7372   50.3814 C   0  0  0  0  0  0  0  0  0  0  0  0
   37.7500   30.4268   49.0582 C   0  0  0  0  0  0  0  0  0  0  0  0
   36.6638   29.6101   48.9153 N   0  0  0  0  0  0  0  0  0  0  0  0
   35.9335   29.1146   49.9129 C   0  0  0  0  0  0  0  0  0  0  0  0
   36.2631   29.4225   51.1770 N   0  0  0  0  0  0  0  0  0  0  0  0
   34.8452   28.2844   49.5348 N   0  0  0  0  0  0  0  0  0  0  0  0
   37.5635   30.4557   52.4439 H   0  0  0  0  0  0  0  0  0  0  0  0
   38.8484   31.3838   50.6532 H   0  0  0  0  0  0  0  0  0  0  0  0
   35.0191   27.2593   49.4800 H   0  0  0  0  0  0  0  0  0  0  0  0
   33.9986   28.8818   49.3644 H   0  0  0  0  0  0  0  0  0  0  0  0
   38.3626   30.9166   47.8475 C   0  0  0  0  0  0  0  0  0  0  0  0
   39.7502   31.1273   47.9307 C   0  0  0  0  0  0  0  0  0  0  0  0
   40.3005   30.9186   48.8572 H   0  0  0  0  0  0  0  0  0  0  0  0
   40.5217   31.5991   46.8920 C   0  0  0  0  0  0  0  0  0  0  0  0
   39.9431   31.8943   45.6889 C   0  0  0  0  0  0  0  0  0  0  0  0
   38.5922   31.7085   45.5592 C   0  0  0  0  0  0  0  0  0  0  0  0
   37.9730   32.0285   44.3712 C   0  0  0  0  0  0  0  0  0  0  0  0
   36.6066   31.8967   44.1913 C   0  0  0  0  0  0  0  0  0  0  0  0
   35.8873   31.4177   45.2935 C   0  0  0  0  0  0  0  0  0  0  0  0
   36.5306   31.1094   46.4542 C   0  0  0  0  0  0  0  0  0  0  0  0
   37.8722   31.2368   46.6257 C   0  0  0  0  0  0  0  0  0  0  0  0
   41.5843   31.7422   47.0081 H   0  0  0  0  0  0  0  0  0  0  0  0
   40.5274   32.2571   44.8803 H   0  0  0  0  0  0  0  0  0  0  0  0
   38.6073   32.3980   43.5562 H   0  0  0  0  0  0  0  0  0  0  0  0
   36.1502   32.1574   43.2411 H   0  0  0  0  0  0  0  0  0  0  0  0
   34.8262   31.3287   45.1199 H   0  0  0  0  0  0  0  0  0  0  0  0
   35.8760   30.7994   47.2133 H   0  0  0  0  0  0  0  0  0  0  0  0
  2  1  2  0
  3  2  1  0
  4  3  2  0
  4  5  1  0
  5  6  2  0
  6  1  1  0
  7  5  1  0
  1  8  1  0
  2  9  1  0
  7 10  1  0
  7 11  1  0
 12 13  2  0
 13 14  1  0
 13 15  1  0
 15 16  2  0
 16 17  1  0
 17 18  2  0
 18 19  1  0
 19 20  2  0
 20 21  1  0
 21 22  2  0
 22 12  1  0
 22 17  1  0
 15 23  1  0
 16 24  1  0
 18 25  1  0
 19 26  1  0
 20 27  1  0
 21 28  1  0
  3 12  1  0
M  ISO  3   8  14   9  14  14  15
M  END
>  <DihAtoms>  (1) 
1,2,11,12

>  <DihDeg>  (1) 
-144.5638883325183

$$$$
