
 OpenBabel03262523273D

 42 46  0  0  1  0  0  0  0  0999 V2000
   36.7000   20.9910   32.9870 C   0  0  0  0  0  0  0  0  0  0  0  0
   35.6090   20.5660   33.7330 C   0  0  0  0  0  0  0  0  0  0  0  0
   35.6310   20.7940   35.0920 C   0  0  0  0  0  0  0  0  0  0  0  0
   36.7170   21.4180   35.6200 N   0  0  0  0  0  0  0  0  0  0  0  0
   37.7730   21.8240   34.8640 C   0  0  0  0  0  0  0  0  0  0  0  0
   37.7570   21.6080   33.5570 N   0  0  0  0  0  0  0  0  0  0  0  0
   38.8910   22.4800   35.4980 N   0  0  0  0  0  0  0  0  0  0  0  0
   40.2360   22.1190   35.1450 C   0  0  0  0  0  0  0  0  0  0  0  0
   41.2170   22.3020   36.2750 C   0  0  0  0  0  0  0  0  0  0  0  0
   40.4440   22.2900   37.5640 C   0  0  0  0  0  0  0  0  0  0  0  0
   39.6290   23.5640   37.5930 C   0  0  0  0  0  0  0  0  0  0  0  0
   38.6200   23.5100   36.5050 C   0  0  1  0  0  0  0  0  0  0  0  0
   36.7110   20.8240   31.9020 H   0  0  0  0  0  0  0  0  0  0  0  0
   34.7900   20.0780   33.2190 H   0  0  0  0  0  0  0  0  0  0  0  0
   34.8060   20.4800   35.7040 H   0  0  0  0  0  0  0  0  0  0  0  0
   40.2460   21.0360   34.8660 H   0  0  0  0  0  0  0  0  0  0  0  0
   40.5680   22.6520   34.2140 H   0  0  0  0  0  0  0  0  0  0  0  0
   41.6690   23.3120   36.1630 H   0  0  0  0  0  0  0  0  0  0  0  0
   41.9690   21.4810   36.3080 H   0  0  0  0  0  0  0  0  0  0  0  0
   39.7620   21.4160   37.6030 H   0  0  0  0  0  0  0  0  0  0  0  0
   41.1160   22.2960   38.4520 H   0  0  0  0  0  0  0  0  0  0  0  0
   40.3020   24.4110   37.6300 H   0  0  0  0  0  0  0  0  0  0  0  0
   39.1220   23.5490   38.6070 H   0  0  0  0  0  0  0  0  0  0  0  0
   37.6260   23.1970   36.9550 H   0  0  0  0  0  0  0  0  0  0  0  0
   38.3610   24.8120   35.8850 C   0  0  0  0  0  0  0  0  0  0  0  0
   38.3520   26.0710   36.4860 C   0  0  0  0  0  0  0  0  0  0  0  0
   38.0790   27.1780   35.7400 C   0  0  0  0  0  0  0  0  0  0  0  0
   37.8120   26.9850   34.3490 C   0  0  0  0  0  0  0  0  0  0  0  0
   37.9890   25.1150   34.2400 S   0  0  0  0  0  0  0  0  0  0  0  0
   38.5650   26.1730   37.5400 H   0  0  0  0  0  0  0  0  0  0  0  0
   38.0230   28.1370   36.1410 H   0  0  0  0  0  0  0  0  0  0  0  0
   37.4410   27.6750   33.1800 C   0  0  0  0  0  0  0  0  0  0  0  0
   38.2030   27.4900   32.0160 C   0  0  0  0  0  0  0  0  0  0  0  0
   39.0760   26.8140   31.9730 H   0  0  0  0  0  0  0  0  0  0  0  0
   37.9490   28.1130   30.8410 C   0  0  0  0  0  3  0  0  0  0  0  0
   36.8930   28.9730   30.7710 C   0  0  0  0  0  3  0  0  0  0  0  0
   36.0740   29.2380   31.8440 C   0  0  0  0  0  0  0  0  0  0  0  0
   35.0400   30.1360   31.7430 C   0  0  0  0  0  3  0  0  0  0  0  0
   34.2560   30.4050   32.8690 C   0  0  0  0  0  3  0  0  0  0  0  0
   34.6010   29.7190   34.0390 C   0  0  0  0  0  3  0  0  0  0  0  0
   35.6360   28.8430   34.0720 C   0  0  0  0  0  3  0  0  0  0  0  0
   36.4170   28.5580   32.9880 C   0  0  0  0  0  0  0  0  0  0  0  0
  1  6  2  0  0  0  0
  1  2  1  0  0  0  0
  2  3  2  0  0  0  0
  3  4  1  0  0  0  0
  3 15  1  0  0  0  0
  5  7  1  0  0  0  0
  5  4  2  0  0  0  0
  6  5  1  0  0  0  0
  7 12  1  0  0  0  0
  8  7  1  0  0  0  0
  8  9  1  0  0  0  0
  9 19  1  0  0  0  0
  9 10  1  0  0  0  0
 10 11  1  0  0  0  0
 10 20  1  0  0  0  0
 10 21  1  0  0  0  0
 11 22  1  0  0  0  0
 11 23  1  0  0  0  0
 12 24  1  1  0  0  0
 12 11  1  0  0  0  0
 13  1  1  0  0  0  0
 14  2  1  0  0  0  0
 16  8  1  0  0  0  0
 17  8  1  0  0  0  0
 18  9  1  0  0  0  0
 25 26  2  0  0  0  0
 25 12  1  0  0  0  0
 26 30  1  0  0  0  0
 27 31  1  0  0  0  0
 27 26  1  0  0  0  0
 28 27  2  0  0  0  0
 29 28  1  0  0  0  0
 29 25  1  0  0  0  0
 32 28  1  0  0  0  0
 33 32  2  0  0  0  0
 34 33  1  0  0  0  0
 35 33  1  0  0  0  0
 36 35  2  0  0  0  0
 36 37  1  0  0  0  0
 37 42  1  0  0  0  0
 38 37  2  0  0  0  0
 38 39  1  0  0  0  0
 39 40  2  0  0  0  0
 40 41  1  0  0  0  0
 42 32  1  0  0  0  0
 42 41  2  0  0  0  0
M  END
>  <minimizedAffinity>
-7.31759501

$$$$

 OpenBabel03262523273D

 42 46  0  0  1  0  0  0  0  0999 V2000
   32.0430   29.9320   35.3010 C   0  0  0  0  0  0  0  0  0  0  0  0
   31.1240   29.1170   34.6540 C   0  0  0  0  0  0  0  0  0  0  0  0
   31.4670   28.6140   33.4180 C   0  0  0  0  0  0  0  0  0  0  0  0
   32.6820   28.9470   32.9050 N   0  0  0  0  0  0  0  0  0  0  0  0
   33.5630   29.7490   33.5620 C   0  0  0  0  0  0  0  0  0  0  0  0
   33.2390   30.2350   34.7510 N   0  0  0  0  0  0  0  0  0  0  0  0
   34.8340   30.0570   32.9510 N   0  0  0  0  0  0  0  0  0  0  0  0
   35.3410   31.4010   32.9760 C   0  0  0  0  0  0  0  0  0  0  0  0
   36.2140   31.7300   31.7920 C   0  0  0  0  0  0  0  0  0  0  0  0
   35.8730   30.7700   30.6860 C   0  0  0  0  0  0  0  0  0  0  0  0
   36.3690   29.4100   31.1240 C   0  0  0  0  0  0  0  0  0  0  0  0
   35.5840   28.9740   32.3080 C   0  0  1  0  0  0  0  0  0  0  0  0
   31.7980   30.3480   36.2870 H   0  0  0  0  0  0  0  0  0  0  0  0
   30.1820   28.9110   35.1460 H   0  0  0  0  0  0  0  0  0  0  0  0
   30.7830   27.9800   32.8860 H   0  0  0  0  0  0  0  0  0  0  0  0
   34.4710   32.1030   32.9550 H   0  0  0  0  0  0  0  0  0  0  0  0
   35.8570   31.6230   33.9490 H   0  0  0  0  0  0  0  0  0  0  0  0
   37.2670   31.5380   32.0910 H   0  0  0  0  0  0  0  0  0  0  0  0
   36.0400   32.7660   31.4230 H   0  0  0  0  0  0  0  0  0  0  0  0
   34.7750   30.7280   30.5290 H   0  0  0  0  0  0  0  0  0  0  0  0
   36.3900   31.0300   29.7350 H   0  0  0  0  0  0  0  0  0  0  0  0
   37.4480   29.4380   31.2040 H   0  0  0  0  0  0  0  0  0  0  0  0
   36.1580   28.7350   30.2380 H   0  0  0  0  0  0  0  0  0  0  0  0
   34.7780   28.2560   31.9580 H   0  0  0  0  0  0  0  0  0  0  0  0
   36.3710   28.2140   33.2820 C   0  0  0  0  0  0  0  0  0  0  0  0
   36.6580   28.5410   34.6070 C   0  0  0  0  0  0  0  0  0  0  0  0
   37.4210   27.7040   35.3640 C   0  0  0  0  0  0  0  0  0  0  0  0
   37.8950   26.5050   34.7450 C   0  0  0  0  0  0  0  0  0  0  0  0
   37.1540   26.7110   33.0280 S   0  0  0  0  0  0  0  0  0  0  0  0
   36.2740   29.4550   35.0390 H   0  0  0  0  0  0  0  0  0  0  0  0
   37.6970   27.9140   36.3460 H   0  0  0  0  0  0  0  0  0  0  0  0
   38.7030   25.3770   34.9780 C   0  0  0  0  0  0  0  0  0  0  0  0
   39.5030   24.8930   33.9310 C   0  0  0  0  0  0  0  0  0  0  0  0
   39.5370   25.3690   32.9340 H   0  0  0  0  0  0  0  0  0  0  0  0
   40.3070   23.8080   34.0350 C   0  0  0  0  0  3  0  0  0  0  0  0
   40.3500   23.1380   35.2210 C   0  0  0  0  0  3  0  0  0  0  0  0
   39.6110   23.5130   36.3190 C   0  0  0  0  0  0  0  0  0  0  0  0
   39.6570   22.7920   37.4870 C   0  0  0  0  0  3  0  0  0  0  0  0
   38.8590   23.1880   38.5660 C   0  0  0  0  0  3  0  0  0  0  0  0
   38.0580   24.3160   38.3600 C   0  0  0  0  0  3  0  0  0  0  0  0
   38.0590   24.9840   37.1790 C   0  0  0  0  0  3  0  0  0  0  0  0
   38.8290   24.6240   36.1100 C   0  0  0  0  0  0  0  0  0  0  0  0
  1 13  1  0  0  0  0
  2 14  1  0  0  0  0
  2  1  2  0  0  0  0
  3  2  1  0  0  0  0
  4  3  2  0  0  0  0
  4  5  1  0  0  0  0
  5  6  2  0  0  0  0
  6  1  1  0  0  0  0
  7  8  1  0  0  0  0
  7  5  1  0  0  0  0
  8 17  1  0  0  0  0
  9 18  1  0  0  0  0
  9  8  1  0  0  0  0
 10 11  1  0  0  0  0
 10  9  1  0  0  0  0
 11 22  1  0  0  0  0
 11 12  1  0  0  0  0
 12 24  1  6  0  0  0
 12  7  1  0  0  0  0
 12 25  1  0  0  0  0
 15  3  1  0  0  0  0
 16  8  1  0  0  0  0
 19  9  1  0  0  0  0
 20 10  1  0  0  0  0
 21 10  1  0  0  0  0
 23 11  1  0  0  0  0
 25 26  2  0  0  0  0
 26 30  1  0  0  0  0
 26 27  1  0  0  0  0
 27 31  1  0  0  0  0
 28 32  1  0  0  0  0
 28 27  2  0  0  0  0
 29 25  1  0  0  0  0
 29 28  1  0  0  0  0
 32 42  1  0  0  0  0
 33 35  1  0  0  0  0
 33 32  2  0  0  0  0
 34 33  1  0  0  0  0
 35 36  2  0  0  0  0
 36 37  1  0  0  0  0
 37 38  1  0  0  0  0
 38 39  2  0  0  0  0
 40 39  1  0  0  0  0
 41 40  2  0  0  0  0
 42 37  2  0  0  0  0
 42 41  1  0  0  0  0
M  END
>  <minimizedAffinity>
-7.05380249

$$$$

 OpenBabel03262523273D

 42 46  0  0  1  0  0  0  0  0999 V2000
   38.7180   23.4320   36.4520 C   0  0  0  0  0  0  0  0  0  0  0  0
   40.0710   23.4620   36.1420 C   0  0  0  0  0  0  0  0  0  0  0  0
   40.4580   23.0080   34.8990 C   0  0  0  0  0  0  0  0  0  0  0  0
   39.4930   22.5580   34.0530 N   0  0  0  0  0  0  0  0  0  0  0  0
   38.1740   22.5390   34.3840 C   0  0  0  0  0  0  0  0  0  0  0  0
   37.7960   22.9750   35.5770 N   0  0  0  0  0  0  0  0  0  0  0  0
   37.2090   22.0450   33.4320 N   0  0  0  0  0  0  0  0  0  0  0  0
   36.1600   21.1600   33.8570 C   0  0  0  0  0  0  0  0  0  0  0  0
   35.7090   20.2090   32.7770 C   0  0  0  0  0  0  0  0  0  0  0  0
   36.8200   20.0940   31.7710 C   0  0  0  0  0  0  0  0  0  0  0  0
   36.9000   21.4250   31.0580 C   0  0  0  0  0  0  0  0  0  0  0  0
   37.3300   22.4620   32.0310 C   0  0  1  0  0  0  0  0  0  0  0  0
   38.3800   23.7870   37.4340 H   0  0  0  0  0  0  0  0  0  0  0  0
   40.7620   23.8400   36.8850 H   0  0  0  0  0  0  0  0  0  0  0  0
   41.4950   23.0150   34.6230 H   0  0  0  0  0  0  0  0  0  0  0  0
   36.5460   20.5430   34.7060 H   0  0  0  0  0  0  0  0  0  0  0  0
   35.2990   21.7330   34.2950 H   0  0  0  0  0  0  0  0  0  0  0  0
   34.8380   20.6750   32.2660 H   0  0  0  0  0  0  0  0  0  0  0  0
   35.4950   19.1940   33.1820 H   0  0  0  0  0  0  0  0  0  0  0  0
   37.7860   19.8890   32.2760 H   0  0  0  0  0  0  0  0  0  0  0  0
   36.6090   19.3120   31.0070 H   0  0  0  0  0  0  0  0  0  0  0  0
   35.9820   21.5850   30.5070 H   0  0  0  0  0  0  0  0  0  0  0  0
   37.6950   21.2710   30.2650 H   0  0  0  0  0  0  0  0  0  0  0  0
   38.4420   22.6400   31.8950 H   0  0  0  0  0  0  0  0  0  0  0  0
   36.7070   23.7690   31.8040 C   0  0  0  0  0  0  0  0  0  0  0  0
   35.5040   24.0540   31.1570 C   0  0  0  0  0  0  0  0  0  0  0  0
   35.0880   25.3450   31.0350 C   0  0  0  0  0  0  0  0  0  0  0  0
   35.9240   26.3620   31.5940 C   0  0  0  0  0  0  0  0  0  0  0  0
   37.3160   25.2980   32.2800 S   0  0  0  0  0  0  0  0  0  0  0  0
   34.8990   23.2540   30.7550 H   0  0  0  0  0  0  0  0  0  0  0  0
   34.2190   25.6200   30.5320 H   0  0  0  0  0  0  0  0  0  0  0  0
   36.0460   27.7590   31.7210 C   0  0  0  0  0  0  0  0  0  0  0  0
   35.5220   28.3800   32.8650 C   0  0  0  0  0  0  0  0  0  0  0  0
   35.0300   27.8180   33.6790 H   0  0  0  0  0  0  0  0  0  0  0  0
   35.5680   29.7150   33.0860 C   0  0  0  0  0  3  0  0  0  0  0  0
   36.1540   30.5130   32.1490 C   0  0  0  0  0  3  0  0  0  0  0  0
   36.7000   30.0230   30.9860 C   0  0  0  0  0  0  0  0  0  0  0  0
   37.2530   30.8640   30.0510 C   0  0  0  0  0  3  0  0  0  0  0  0
   37.7620   30.3260   28.8650 C   0  0  0  0  0  3  0  0  0  0  0  0
   37.6640   28.9370   28.7250 C   0  0  0  0  0  3  0  0  0  0  0  0
   37.1050   28.1620   29.6880 C   0  0  0  0  0  3  0  0  0  0  0  0
   36.6030   28.6580   30.8570 C   0  0  0  0  0  0  0  0  0  0  0  0
  1 13  1  0  0  0  0
  2  1  1  0  0  0  0
  2 14  1  0  0  0  0
  3  2  2  0  0  0  0
  4  5  2  0  0  0  0
  4  3  1  0  0  0  0
  5  6  1  0  0  0  0
  6  1  2  0  0  0  0
  7  8  1  0  0  0  0
  7  5  1  0  0  0  0
  8 17  1  0  0  0  0
  8 16  1  0  0  0  0
  9 19  1  0  0  0  0
  9  8  1  0  0  0  0
 10 20  1  0  0  0  0
 10  9  1  0  0  0  0
 11 10  1  0  0  0  0
 11 12  1  0  0  0  0
 12 24  1  6  0  0  0
 12  7  1  0  0  0  0
 15  3  1  0  0  0  0
 18  9  1  0  0  0  0
 21 10  1  0  0  0  0
 22 11  1  0  0  0  0
 23 11  1  0  0  0  0
 25 12  1  0  0  0  0
 25 29  1  0  0  0  0
 26 25  2  0  0  0  0
 27 26  1  0  0  0  0
 27 28  2  0  0  0  0
 28 32  1  0  0  0  0
 28 29  1  0  0  0  0
 30 26  1  0  0  0  0
 31 27  1  0  0  0  0
 32 33  1  0  0  0  0
 33 35  2  0  0  0  0
 33 34  1  0  0  0  0
 36 35  1  0  0  0  0
 37 36  2  0  0  0  0
 38 37  1  0  0  0  0
 39 38  2  0  0  0  0
 40 39  1  0  0  0  0
 40 41  2  0  0  0  0
 41 42  1  0  0  0  0
 42 37  1  0  0  0  0
 42 32  2  0  0  0  0
M  END
>  <minimizedAffinity>
-6.68872166

$$$$

 OpenBabel03262523273D

 42 46  0  0  1  0  0  0  0  0999 V2000
   38.6560   23.4430   36.4120 C   0  0  0  0  0  0  0  0  0  0  0  0
   40.0220   23.4600   36.1620 C   0  0  0  0  0  0  0  0  0  0  0  0
   40.4600   22.9830   34.9450 C   0  0  0  0  0  0  0  0  0  0  0  0
   39.5300   22.5250   34.0640 N   0  0  0  0  0  0  0  0  0  0  0  0
   38.1970   22.5200   34.3360 C   0  0  0  0  0  0  0  0  0  0  0  0
   37.7710   22.9780   35.5050 N   0  0  0  0  0  0  0  0  0  0  0  0
   37.2730   22.0160   33.3500 N   0  0  0  0  0  0  0  0  0  0  0  0
   36.2000   21.1450   33.7430 C   0  0  0  0  0  0  0  0  0  0  0  0
   35.7900   20.1800   32.6600 C   0  0  0  0  0  0  0  0  0  0  0  0
   36.9430   20.0410   31.7060 C   0  0  0  0  0  0  0  0  0  0  0  0
   37.0650   21.3600   30.9760 C   0  0  0  0  0  0  0  0  0  0  0  0
   37.4580   22.4100   31.9490 C   0  0  1  0  0  0  0  0  0  0  0  0
   38.2770   23.8170   37.3720 H   0  0  0  0  0  0  0  0  0  0  0  0
   40.6820   23.8460   36.9280 H   0  0  0  0  0  0  0  0  0  0  0  0
   41.5080   22.9790   34.7150 H   0  0  0  0  0  0  0  0  0  0  0  0
   36.5440   20.5400   34.6180 H   0  0  0  0  0  0  0  0  0  0  0  0
   35.3240   21.7300   34.1330 H   0  0  0  0  0  0  0  0  0  0  0  0
   34.9460   20.6420   32.1030 H   0  0  0  0  0  0  0  0  0  0  0  0
   35.5510   19.1730   33.0710 H   0  0  0  0  0  0  0  0  0  0  0  0
   37.8850   19.8370   32.2560 H   0  0  0  0  0  0  0  0  0  0  0  0
   36.7610   19.2470   30.9460 H   0  0  0  0  0  0  0  0  0  0  0  0
   36.1730   21.5160   30.3820 H   0  0  0  0  0  0  0  0  0  0  0  0
   37.8930   21.1870   30.2210 H   0  0  0  0  0  0  0  0  0  0  0  0
   38.5770   22.5780   31.8610 H   0  0  0  0  0  0  0  0  0  0  0  0
   36.8550   23.7160   31.6750 C   0  0  0  0  0  0  0  0  0  0  0  0
   35.5220   24.0110   31.3860 C   0  0  0  0  0  0  0  0  0  0  0  0
   35.1470   25.2980   31.1480 C   0  0  0  0  0  0  0  0  0  0  0  0
   36.1640   26.3030   31.2120 C   0  0  0  0  0  0  0  0  0  0  0  0
   37.6520   25.2320   31.6310 S   0  0  0  0  0  0  0  0  0  0  0  0
   34.7840   23.2220   31.3530 H   0  0  0  0  0  0  0  0  0  0  0  0
   34.1760   25.5730   30.8920 H   0  0  0  0  0  0  0  0  0  0  0  0
   36.3820   27.6800   31.0200 C   0  0  0  0  0  0  0  0  0  0  0  0
   36.9990   28.1060   29.8330 C   0  0  0  0  0  0  0  0  0  0  0  0
   37.3090   27.4080   29.0350 H   0  0  0  0  0  0  0  0  0  0  0  0
   37.2730   29.4010   29.5490 C   0  0  0  0  0  3  0  0  0  0  0  0
   36.9340   30.3570   30.4600 C   0  0  0  0  0  3  0  0  0  0  0  0
   36.3270   30.0640   31.6600 C   0  0  0  0  0  0  0  0  0  0  0  0
   36.0310   31.0520   32.5660 C   0  0  0  0  0  3  0  0  0  0  0  0
   35.4490   30.7050   33.7890 C   0  0  0  0  0  3  0  0  0  0  0  0
   35.2110   29.3410   33.9950 C   0  0  0  0  0  3  0  0  0  0  0  0
   35.5280   28.4140   33.0560 C   0  0  0  0  0  3  0  0  0  0  0  0
   36.0930   28.7230   31.8520 C   0  0  0  0  0  0  0  0  0  0  0  0
  1 13  1  0  0  0  0
  2  1  1  0  0  0  0
  2 14  1  0  0  0  0
  3  2  2  0  0  0  0
  4  5  2  0  0  0  0
  4  3  1  0  0  0  0
  5  6  1  0  0  0  0
  6  1  2  0  0  0  0
  7  8  1  0  0  0  0
  7  5  1  0  0  0  0
  8 17  1  0  0  0  0
  8 16  1  0  0  0  0
  9 19  1  0  0  0  0
  9  8  1  0  0  0  0
 10 20  1  0  0  0  0
 10  9  1  0  0  0  0
 11 10  1  0  0  0  0
 11 12  1  0  0  0  0
 12 24  1  6  0  0  0
 12  7  1  0  0  0  0
 15  3  1  0  0  0  0
 18  9  1  0  0  0  0
 21 10  1  0  0  0  0
 22 11  1  0  0  0  0
 23 11  1  0  0  0  0
 25 12  1  0  0  0  0
 26 25  2  0  0  0  0
 27 28  2  0  0  0  0
 27 26  1  0  0  0  0
 28 29  1  0  0  0  0
 29 25  1  0  0  0  0
 30 26  1  0  0  0  0
 31 27  1  0  0  0  0
 32 28  1  0  0  0  0
 32 42  1  0  0  0  0
 33 32  2  0  0  0  0
 34 33  1  0  0  0  0
 35 33  1  0  0  0  0
 35 36  2  0  0  0  0
 36 37  1  0  0  0  0
 37 42  2  0  0  0  0
 37 38  1  0  0  0  0
 38 39  2  0  0  0  0
 39 40  1  0  0  0  0
 41 40  2  0  0  0  0
 42 41  1  0  0  0  0
M  END
>  <minimizedAffinity>
-6.62657213

$$$$

 OpenBabel03262523273D

 42 46  0  0  1  0  0  0  0  0999 V2000
   41.3330   27.4950   33.4420 C   0  0  0  0  0  0  0  0  0  0  0  0
   42.0110   27.8050   32.2700 C   0  0  0  0  0  0  0  0  0  0  0  0
   41.3590   27.5960   31.0740 C   0  0  0  0  0  0  0  0  0  0  0  0
   40.0930   27.0990   31.1130 N   0  0  0  0  0  0  0  0  0  0  0  0
   39.4530   26.8040   32.2760 C   0  0  0  0  0  0  0  0  0  0  0  0
   40.0750   27.0030   33.4290 N   0  0  0  0  0  0  0  0  0  0  0  0
   38.1100   26.2790   32.2350 N   0  0  0  0  0  0  0  0  0  0  0  0
   37.7390   25.1740   33.0750 C   0  0  0  0  0  0  0  0  0  0  0  0
   36.6550   24.3110   32.4790 C   0  0  0  0  0  0  0  0  0  0  0  0
   36.6570   24.5290   30.9920 C   0  0  0  0  0  0  0  0  0  0  0  0
   36.1560   25.9370   30.7590 C   0  0  0  0  0  0  0  0  0  0  0  0
   37.1440   26.8940   31.3180 C   0  0  1  0  0  0  0  0  0  0  0  0
   41.8270   27.6500   34.4100 H   0  0  0  0  0  0  0  0  0  0  0  0
   43.0180   28.1960   32.3450 H   0  0  0  0  0  0  0  0  0  0  0  0
   41.8500   27.8230   30.1470 H   0  0  0  0  0  0  0  0  0  0  0  0
   38.6400   24.5270   33.2190 H   0  0  0  0  0  0  0  0  0  0  0  0
   37.4740   25.5220   34.1090 H   0  0  0  0  0  0  0  0  0  0  0  0
   35.6830   24.6800   32.8720 H   0  0  0  0  0  0  0  0  0  0  0  0
   36.8320   23.2290   32.6760 H   0  0  0  0  0  0  0  0  0  0  0  0
   37.6840   24.4320   30.5830 H   0  0  0  0  0  0  0  0  0  0  0  0
   35.9650   23.8310   30.4680 H   0  0  0  0  0  0  0  0  0  0  0  0
   35.1290   26.0040   31.0920 H   0  0  0  0  0  0  0  0  0  0  0  0
   36.1050   26.0330   29.6300 H   0  0  0  0  0  0  0  0  0  0  0  0
   37.7870   27.2820   30.4670 H   0  0  0  0  0  0  0  0  0  0  0  0
   36.5330   28.0880   31.9060 C   0  0  0  0  0  0  0  0  0  0  0  0
   36.0730   29.2340   31.2560 C   0  0  0  0  0  0  0  0  0  0  0  0
   35.5360   30.2560   31.9800 C   0  0  0  0  0  0  0  0  0  0  0  0
   35.4680   30.0930   33.3990 C   0  0  0  0  0  0  0  0  0  0  0  0
   36.2320   28.3820   33.5660 S   0  0  0  0  0  0  0  0  0  0  0  0
   36.1380   29.3140   30.1800 H   0  0  0  0  0  0  0  0  0  0  0  0
   35.2110   31.1490   31.5540 H   0  0  0  0  0  0  0  0  0  0  0  0
   35.1030   30.7650   34.5800 C   0  0  0  0  0  0  0  0  0  0  0  0
   35.9850   31.7180   35.1140 C   0  0  0  0  0  0  0  0  0  0  0  0
   36.9480   31.9750   34.6380 H   0  0  0  0  0  0  0  0  0  0  0  0
   35.7460   32.4130   36.2510 C   0  0  0  0  0  3  0  0  0  0  0  0
   34.5850   32.1820   36.9270 C   0  0  0  0  0  3  0  0  0  0  0  0
   33.6430   31.2720   36.5060 C   0  0  0  0  0  0  0  0  0  0  0  0
   32.5000   31.0450   37.2330 C   0  0  0  0  0  3  0  0  0  0  0  0
   31.5890   30.0820   36.7880 C   0  0  0  0  0  3  0  0  0  0  0  0
   31.9260   29.4120   35.6070 C   0  0  0  0  0  3  0  0  0  0  0  0
   33.0730   29.6850   34.9360 C   0  0  0  0  0  3  0  0  0  0  0  0
   33.9800   30.6200   35.3440 C   0  0  0  0  0  0  0  0  0  0  0  0
  1 13  1  0  0  0  0
  2 14  1  0  0  0  0
  2  1  2  0  0  0  0
  3  4  2  0  0  0  0
  3  2  1  0  0  0  0
  4  5  1  0  0  0  0
  5  6  2  0  0  0  0
  6  1  1  0  0  0  0
  7  5  1  0  0  0  0
  7  8  1  0  0  0  0
  8 16  1  0  0  0  0
  8 17  1  0  0  0  0
  9 19  1  0  0  0  0
  9 18  1  0  0  0  0
  9  8  1  0  0  0  0
 10  9  1  0  0  0  0
 11 10  1  0  0  0  0
 11 22  1  0  0  0  0
 11 12  1  0  0  0  0
 12 24  1  6  0  0  0
 12 25  1  0  0  0  0
 12  7  1  0  0  0  0
 15  3  1  0  0  0  0
 20 10  1  0  0  0  0
 21 10  1  0  0  0  0
 23 11  1  0  0  0  0
 25 29  1  0  0  0  0
 26 25  2  0  0  0  0
 26 27  1  0  0  0  0
 27 28  2  0  0  0  0
 28 29  1  0  0  0  0
 28 32  1  0  0  0  0
 30 26  1  0  0  0  0
 31 27  1  0  0  0  0
 32 33  2  0  0  0  0
 32 42  1  0  0  0  0
 33 35  1  0  0  0  0
 34 33  1  0  0  0  0
 35 36  2  0  0  0  0
 37 36  1  0  0  0  0
 37 38  1  0  0  0  0
 39 38  2  0  0  0  0
 40 39  1  0  0  0  0
 41 42  1  0  0  0  0
 41 40  2  0  0  0  0
 42 37  2  0  0  0  0
M  END
>  <minimizedAffinity>
-6.62552738

$$$$

 OpenBabel03262523273D

 42 46  0  0  1  0  0  0  0  0999 V2000
   38.4830   20.7750   32.2890 C   0  0  0  0  0  0  0  0  0  0  0  0
   37.1420   20.4160   32.3170 C   0  0  0  0  0  0  0  0  0  0  0  0
   36.3770   20.8670   33.3700 C   0  0  0  0  0  0  0  0  0  0  0  0
   36.9790   21.6360   34.3170 N   0  0  0  0  0  0  0  0  0  0  0  0
   38.2960   21.9720   34.2640 C   0  0  0  0  0  0  0  0  0  0  0  0
   39.0370   21.5410   33.2530 N   0  0  0  0  0  0  0  0  0  0  0  0
   38.8630   22.7910   35.3080 N   0  0  0  0  0  0  0  0  0  0  0  0
   40.1410   22.4590   35.8740 C   0  0  0  0  0  0  0  0  0  0  0  0
   40.2840   22.8870   37.3120 C   0  0  0  0  0  0  0  0  0  0  0  0
   38.9040   23.0430   37.8870 C   0  0  0  0  0  0  0  0  0  0  0  0
   38.2890   24.2520   37.2180 C   0  0  0  0  0  0  0  0  0  0  0  0
   38.1050   23.9570   35.7740 C   0  0  1  0  0  0  0  0  0  0  0  0
   39.1180   20.4300   31.4620 H   0  0  0  0  0  0  0  0  0  0  0  0
   36.7560   19.8000   31.5150 H   0  0  0  0  0  0  0  0  0  0  0  0
   35.3360   20.6100   33.4280 H   0  0  0  0  0  0  0  0  0  0  0  0
   40.2590   21.3470   35.8420 H   0  0  0  0  0  0  0  0  0  0  0  0
   40.9800   22.8490   35.2370 H   0  0  0  0  0  0  0  0  0  0  0  0
   40.7650   23.8890   37.3150 H   0  0  0  0  0  0  0  0  0  0  0  0
   40.8330   22.1300   37.9180 H   0  0  0  0  0  0  0  0  0  0  0  0
   38.2850   22.1480   37.6680 H   0  0  0  0  0  0  0  0  0  0  0  0
   38.9290   23.2370   38.9830 H   0  0  0  0  0  0  0  0  0  0  0  0
   38.8540   25.1330   37.4960 H   0  0  0  0  0  0  0  0  0  0  0  0
   37.2850   24.3760   37.7290 H   0  0  0  0  0  0  0  0  0  0  0  0
   37.0220   23.6630   35.6040 H   0  0  0  0  0  0  0  0  0  0  0  0
   38.3220   25.1190   34.9090 C   0  0  0  0  0  0  0  0  0  0  0  0
   39.2890   26.1180   35.0260 C   0  0  0  0  0  0  0  0  0  0  0  0
   39.3300   27.1340   34.1200 C   0  0  0  0  0  0  0  0  0  0  0  0
   38.3580   27.1200   33.0700 C   0  0  0  0  0  0  0  0  0  0  0  0
   37.4210   25.5510   33.5170 S   0  0  0  0  0  0  0  0  0  0  0  0
   40.0090   26.0870   35.8320 H   0  0  0  0  0  0  0  0  0  0  0  0
   40.0040   27.9250   34.1780 H   0  0  0  0  0  0  0  0  0  0  0  0
   37.9000   27.8640   31.9670 C   0  0  0  0  0  0  0  0  0  0  0  0
   36.7830   28.6980   32.1330 C   0  0  0  0  0  0  0  0  0  0  0  0
   36.2550   28.8070   33.0980 H   0  0  0  0  0  0  0  0  0  0  0  0
   36.2460   29.4460   31.1400 C   0  0  0  0  0  3  0  0  0  0  0  0
   36.8150   29.3950   29.9020 C   0  0  0  0  0  3  0  0  0  0  0  0
   37.9110   28.6140   29.6150 C   0  0  0  0  0  0  0  0  0  0  0  0
   38.4350   28.5650   28.3460 C   0  0  0  0  0  3  0  0  0  0  0  0
   39.5250   27.7270   28.0900 C   0  0  0  0  0  3  0  0  0  0  0  0
   40.0050   26.9890   29.1770 C   0  0  0  0  0  3  0  0  0  0  0  0
   39.4410   27.0840   30.4070 C   0  0  0  0  0  3  0  0  0  0  0  0
   38.3780   27.8940   30.6890 C   0  0  0  0  0  0  0  0  0  0  0  0
  1  2  2  0  0  0  0
  1  6  1  0  0  0  0
  2  3  1  0  0  0  0
  3 15  1  0  0  0  0
  3  4  2  0  0  0  0
  5  4  1  0  0  0  0
  5  7  1  0  0  0  0
  6  5  2  0  0  0  0
  7 12  1  0  0  0  0
  7  8  1  0  0  0  0
  8  9  1  0  0  0  0
  9 18  1  0  0  0  0
  9 10  1  0  0  0  0
  9 19  1  0  0  0  0
 10 21  1  0  0  0  0
 11 22  1  0  0  0  0
 11 23  1  0  0  0  0
 11 10  1  0  0  0  0
 12 24  1  6  0  0  0
 12 11  1  0  0  0  0
 13  1  1  0  0  0  0
 14  2  1  0  0  0  0
 16  8  1  0  0  0  0
 17  8  1  0  0  0  0
 20 10  1  0  0  0  0
 25 26  2  0  0  0  0
 25 12  1  0  0  0  0
 26 30  1  0  0  0  0
 27 31  1  0  0  0  0
 27 26  1  0  0  0  0
 28 29  1  0  0  0  0
 28 27  2  0  0  0  0
 29 25  1  0  0  0  0
 32 33  1  0  0  0  0
 32 28  1  0  0  0  0
 33 34  1  0  0  0  0
 35 33  2  0  0  0  0
 36 35  1  0  0  0  0
 37 36  2  0  0  0  0
 37 42  1  0  0  0  0
 38 37  1  0  0  0  0
 39 38  2  0  0  0  0
 39 40  1  0  0  0  0
 40 41  2  0  0  0  0
 41 42  1  0  0  0  0
 42 32  2  0  0  0  0
M  END
>  <minimizedAffinity>
-6.61365891

$$$$

 OpenBabel03262523273D

 42 46  0  0  1  0  0  0  0  0999 V2000
   37.9900   23.3840   37.9000 C   0  0  0  0  0  0  0  0  0  0  0  0
   39.2460   23.1130   38.4290 C   0  0  0  0  0  0  0  0  0  0  0  0
   40.2150   22.6340   37.5740 C   0  0  0  0  0  0  0  0  0  0  0  0
   39.8840   22.4550   36.2670 N   0  0  0  0  0  0  0  0  0  0  0  0
   38.6450   22.7280   35.7770 C   0  0  0  0  0  0  0  0  0  0  0  0
   37.7090   23.1890   36.5940 N   0  0  0  0  0  0  0  0  0  0  0  0
   38.3700   22.5100   34.3770 N   0  0  0  0  0  0  0  0  0  0  0  0
   37.1480   21.8750   33.9700 C   0  0  0  0  0  0  0  0  0  0  0  0
   37.2800   21.1000   32.6830 C   0  0  0  0  0  0  0  0  0  0  0  0
   38.7340   20.7730   32.4890 C   0  0  0  0  0  0  0  0  0  0  0  0
   39.4360   22.0780   32.1890 C   0  0  0  0  0  0  0  0  0  0  0  0
   39.3650   22.9460   33.3910 C   0  0  1  0  0  0  0  0  0  0  0  0
   37.1980   23.7660   38.5570 H   0  0  0  0  0  0  0  0  0  0  0  0
   39.4100   23.2900   39.4840 H   0  0  0  0  0  0  0  0  0  0  0  0
   41.1970   22.4130   37.9440 H   0  0  0  0  0  0  0  0  0  0  0  0
   36.8480   21.1500   34.7670 H   0  0  0  0  0  0  0  0  0  0  0  0
   36.3020   22.6120   33.9280 H   0  0  0  0  0  0  0  0  0  0  0  0
   36.9730   21.7750   31.8550 H   0  0  0  0  0  0  0  0  0  0  0  0
   36.7060   20.1460   32.7130 H   0  0  0  0  0  0  0  0  0  0  0  0
   39.1620   20.3290   33.4110 H   0  0  0  0  0  0  0  0  0  0  0  0
   38.8950   20.0920   31.6220 H   0  0  0  0  0  0  0  0  0  0  0  0
   39.0660   22.4680   31.2490 H   0  0  0  0  0  0  0  0  0  0  0  0
   40.5090   21.7770   31.9780 H   0  0  0  0  0  0  0  0  0  0  0  0
   40.3510   22.8680   33.9470 H   0  0  0  0  0  0  0  0  0  0  0  0
   39.2200   24.3690   33.0760 C   0  0  0  0  0  0  0  0  0  0  0  0
   40.0710   25.4220   33.4140 C   0  0  0  0  0  0  0  0  0  0  0  0
   39.7630   26.6930   33.0360 C   0  0  0  0  0  0  0  0  0  0  0  0
   38.5560   26.8850   32.2930 C   0  0  0  0  0  0  0  0  0  0  0  0
   37.9420   25.1080   32.2070 S   0  0  0  0  0  0  0  0  0  0  0  0
   40.9780   25.2320   33.9720 H   0  0  0  0  0  0  0  0  0  0  0  0
   40.3400   27.5210   33.2910 H   0  0  0  0  0  0  0  0  0  0  0  0
   37.7450   27.8850   31.7240 C   0  0  0  0  0  0  0  0  0  0  0  0
   37.9690   28.2550   30.3890 C   0  0  0  0  0  0  0  0  0  0  0  0
   38.7450   27.7850   29.7590 H   0  0  0  0  0  0  0  0  0  0  0  0
   37.2620   29.2130   29.7430 C   0  0  0  0  0  3  0  0  0  0  0  0
   36.2740   29.8640   30.4200 C   0  0  0  0  0  3  0  0  0  0  0  0
   35.9620   29.5920   31.7320 C   0  0  0  0  0  0  0  0  0  0  0  0
   34.9800   30.2930   32.3880 C   0  0  0  0  0  3  0  0  0  0  0  0
   34.7230   30.0100   33.7340 C   0  0  0  0  0  3  0  0  0  0  0  0
   35.5090   29.0090   34.3150 C   0  0  0  0  0  3  0  0  0  0  0  0
   36.4640   28.3540   33.6090 C   0  0  0  0  0  3  0  0  0  0  0  0
   36.7360   28.6060   32.2950 C   0  0  0  0  0  0  0  0  0  0  0  0
  1  2  1  0  0  0  0
  1 13  1  0  0  0  0
  2 14  1  0  0  0  0
  3 15  1  0  0  0  0
  3  2  2  0  0  0  0
  4  3  1  0  0  0  0
  5  4  2  0  0  0  0
  5  6  1  0  0  0  0
  6  1  2  0  0  0  0
  7  5  1  0  0  0  0
  8  7  1  0  0  0  0
  8 16  1  0  0  0  0
  9 19  1  0  0  0  0
  9  8  1  0  0  0  0
 10  9  1  0  0  0  0
 10 20  1  0  0  0  0
 11 10  1  0  0  0  0
 11 12  1  0  0  0  0
 12 24  1  1  0  0  0
 12  7  1  0  0  0  0
 17  8  1  0  0  0  0
 18  9  1  0  0  0  0
 21 10  1  0  0  0  0
 22 11  1  0  0  0  0
 23 11  1  0  0  0  0
 25 12  1  0  0  0  0
 25 26  2  0  0  0  0
 26 30  1  0  0  0  0
 27 31  1  0  0  0  0
 27 26  1  0  0  0  0
 28 27  2  0  0  0  0
 29 28  1  0  0  0  0
 29 25  1  0  0  0  0
 32 28  1  0  0  0  0
 32 42  1  0  0  0  0
 33 32  2  0  0  0  0
 34 33  1  0  0  0  0
 35 33  1  0  0  0  0
 35 36  2  0  0  0  0
 36 37  1  0  0  0  0
 37 42  2  0  0  0  0
 37 38  1  0  0  0  0
 38 39  2  0  0  0  0
 39 40  1  0  0  0  0
 41 40  2  0  0  0  0
 42 41  1  0  0  0  0
M  END
>  <minimizedAffinity>
-6.60651159

$$$$

 OpenBabel03262523273D

 42 46  0  0  1  0  0  0  0  0999 V2000
   38.4970   22.5630   36.2650 C   0  0  0  0  0  0  0  0  0  0  0  0
   39.8530   22.6940   36.5300 C   0  0  0  0  0  0  0  0  0  0  0  0
   40.6360   23.3210   35.5840 C   0  0  0  0  0  0  0  0  0  0  0  0
   40.0340   23.7710   34.4510 N   0  0  0  0  0  0  0  0  0  0  0  0
   38.7020   23.6280   34.2180 C   0  0  0  0  0  0  0  0  0  0  0  0
   37.9440   23.0260   35.1240 N   0  0  0  0  0  0  0  0  0  0  0  0
   38.1370   24.1310   32.9900 N   0  0  0  0  0  0  0  0  0  0  0  0
   37.1950   23.3390   32.2480 C   0  0  0  0  0  0  0  0  0  0  0  0
   37.2350   23.6020   30.7640 C   0  0  0  0  0  0  0  0  0  0  0  0
   38.5760   24.1960   30.4360 C   0  0  0  0  0  0  0  0  0  0  0  0
   38.5960   25.5820   31.0410 C   0  0  0  0  0  0  0  0  0  0  0  0
   38.5490   25.4580   32.5200 C   0  0  1  0  0  0  0  0  0  0  0  0
   37.8480   22.0680   37.0000 H   0  0  0  0  0  0  0  0  0  0  0  0
   40.2370   22.3020   37.4630 H   0  0  0  0  0  0  0  0  0  0  0  0
   41.6890   23.4410   35.7520 H   0  0  0  0  0  0  0  0  0  0  0  0
   37.4470   22.2600   32.4030 H   0  0  0  0  0  0  0  0  0  0  0  0
   36.1580   23.4470   32.6630 H   0  0  0  0  0  0  0  0  0  0  0  0
   36.4620   24.3700   30.5410 H   0  0  0  0  0  0  0  0  0  0  0  0
   37.1120   22.6650   30.1740 H   0  0  0  0  0  0  0  0  0  0  0  0
   39.3920   23.5900   30.8800 H   0  0  0  0  0  0  0  0  0  0  0  0
   38.7270   24.3020   29.3380 H   0  0  0  0  0  0  0  0  0  0  0  0
   37.8460   26.1900   30.5510 H   0  0  0  0  0  0  0  0  0  0  0  0
   39.5890   26.0180   30.7100 H   0  0  0  0  0  0  0  0  0  0  0  0
   39.6040   25.5730   32.9220 H   0  0  0  0  0  0  0  0  0  0  0  0
   37.7790   26.5200   33.1710 C   0  0  0  0  0  0  0  0  0  0  0  0
   37.8690   26.9720   34.4880 C   0  0  0  0  0  0  0  0  0  0  0  0
   37.0550   27.9760   34.9190 C   0  0  0  0  0  0  0  0  0  0  0  0
   36.1320   28.5270   33.9750 C   0  0  0  0  0  0  0  0  0  0  0  0
   36.5490   27.4820   32.4670 S   0  0  0  0  0  0  0  0  0  0  0  0
   38.5850   26.5330   35.1670 H   0  0  0  0  0  0  0  0  0  0  0  0
   37.0520   28.3290   35.8980 H   0  0  0  0  0  0  0  0  0  0  0  0
   35.0860   29.4600   33.8550 C   0  0  0  0  0  0  0  0  0  0  0  0
   34.0720   29.2200   32.9150 C   0  0  0  0  0  0  0  0  0  0  0  0
   34.0510   28.3220   32.2720 H   0  0  0  0  0  0  0  0  0  0  0  0
   33.0270   30.0550   32.7020 C   0  0  0  0  0  3  0  0  0  0  0  0
   32.9440   31.1990   33.4390 C   0  0  0  0  0  3  0  0  0  0  0  0
   33.8770   31.5460   34.3890 C   0  0  0  0  0  0  0  0  0  0  0  0
   33.7750   32.7240   35.0880 C   0  0  0  0  0  3  0  0  0  0  0  0
   34.7670   33.0550   36.0170 C   0  0  0  0  0  3  0  0  0  0  0  0
   35.8100   32.1330   36.1610 C   0  0  0  0  0  3  0  0  0  0  0  0
   35.8500   30.9850   35.4380 C   0  0  0  0  0  3  0  0  0  0  0  0
   34.8960   30.6340   34.5270 C   0  0  0  0  0  0  0  0  0  0  0  0
  1  2  1  0  0  0  0
  1 13  1  0  0  0  0
  2 14  1  0  0  0  0
  3 15  1  0  0  0  0
  3  2  2  0  0  0  0
  4  3  1  0  0  0  0
  5  4  2  0  0  0  0
  5  6  1  0  0  0  0
  6  1  2  0  0  0  0
  7  5  1  0  0  0  0
  8 16  1  0  0  0  0
  8 17  1  0  0  0  0
  8  7  1  0  0  0  0
  9  8  1  0  0  0  0
 10  9  1  0  0  0  0
 10 20  1  0  0  0  0
 10 11  1  0  0  0  0
 11 12  1  0  0  0  0
 12 24  1  1  0  0  0
 12  7  1  0  0  0  0
 12 25  1  0  0  0  0
 18  9  1  0  0  0  0
 19  9  1  0  0  0  0
 21 10  1  0  0  0  0
 22 11  1  0  0  0  0
 23 11  1  0  0  0  0
 25 26  2  0  0  0  0
 26 27  1  0  0  0  0
 26 30  1  0  0  0  0
 27 31  1  0  0  0  0
 28 27  2  0  0  0  0
 29 25  1  0  0  0  0
 29 28  1  0  0  0  0
 32 28  1  0  0  0  0
 32 42  1  0  0  0  0
 33 32  2  0  0  0  0
 34 33  1  0  0  0  0
 35 33  1  0  0  0  0
 35 36  2  0  0  0  0
 36 37  1  0  0  0  0
 37 42  2  0  0  0  0
 37 38  1  0  0  0  0
 38 39  2  0  0  0  0
 39 40  1  0  0  0  0
 41 40  2  0  0  0  0
 42 41  1  0  0  0  0
M  END
>  <minimizedAffinity>
-6.4471817

$$$$

 OpenBabel03262523273D

 42 46  0  0  1  0  0  0  0  0999 V2000
   38.1560   20.7080   32.5920 C   0  0  0  0  0  0  0  0  0  0  0  0
   36.7980   20.4230   32.6360 C   0  0  0  0  0  0  0  0  0  0  0  0
   36.0700   20.9190   33.6960 C   0  0  0  0  0  0  0  0  0  0  0  0
   36.7240   21.6550   34.6340 N   0  0  0  0  0  0  0  0  0  0  0  0
   38.0570   21.9190   34.5650 C   0  0  0  0  0  0  0  0  0  0  0  0
   38.7620   21.4450   33.5480 N   0  0  0  0  0  0  0  0  0  0  0  0
   38.6790   22.7080   35.6000 N   0  0  0  0  0  0  0  0  0  0  0  0
   39.9430   22.3080   36.1540 C   0  0  0  0  0  0  0  0  0  0  0  0
   40.1250   22.7310   37.5890 C   0  0  0  0  0  0  0  0  0  0  0  0
   38.7620   22.9650   38.1780 C   0  0  0  0  0  0  0  0  0  0  0  0
   38.2070   24.2040   37.5110 C   0  0  0  0  0  0  0  0  0  0  0  0
   37.9920   23.9150   36.0710 C   0  0  1  0  0  0  0  0  0  0  0  0
   38.7630   20.3260   31.7600 H   0  0  0  0  0  0  0  0  0  0  0  0
   36.3700   19.8270   31.8400 H   0  0  0  0  0  0  0  0  0  0  0  0
   35.0180   20.7190   33.7660 H   0  0  0  0  0  0  0  0  0  0  0  0
   39.9990   21.1910   36.1250 H   0  0  0  0  0  0  0  0  0  0  0  0
   40.7960   22.6490   35.5070 H   0  0  0  0  0  0  0  0  0  0  0  0
   40.6610   23.7050   37.5840 H   0  0  0  0  0  0  0  0  0  0  0  0
   40.6380   21.9470   38.1910 H   0  0  0  0  0  0  0  0  0  0  0  0
   38.0930   22.1040   37.9690 H   0  0  0  0  0  0  0  0  0  0  0  0
   38.8090   23.1600   39.2730 H   0  0  0  0  0  0  0  0  0  0  0  0
   38.8230   25.0520   37.7800 H   0  0  0  0  0  0  0  0  0  0  0  0
   37.2170   24.3830   38.0330 H   0  0  0  0  0  0  0  0  0  0  0  0
   36.8930   23.6810   35.9140 H   0  0  0  0  0  0  0  0  0  0  0  0
   38.2630   25.0610   35.1990 C   0  0  0  0  0  0  0  0  0  0  0  0
   37.8020   26.3720   35.3240 C   0  0  0  0  0  0  0  0  0  0  0  0
   38.1580   27.3080   34.4010 C   0  0  0  0  0  0  0  0  0  0  0  0
   39.0060   26.8870   33.3290 C   0  0  0  0  0  0  0  0  0  0  0  0
   39.2220   25.0730   33.7800 S   0  0  0  0  0  0  0  0  0  0  0  0
   37.1670   26.6500   36.1530 H   0  0  0  0  0  0  0  0  0  0  0  0
   37.8160   28.2910   34.4230 H   0  0  0  0  0  0  0  0  0  0  0  0
   39.6120   27.3430   32.1430 C   0  0  0  0  0  0  0  0  0  0  0  0
   41.0120   27.3360   32.0550 C   0  0  0  0  0  0  0  0  0  0  0  0
   41.6620   26.9750   32.8730 H   0  0  0  0  0  0  0  0  0  0  0  0
   41.7020   27.7650   30.9720 C   0  0  0  0  0  3  0  0  0  0  0  0
   41.0060   28.2340   29.8970 C   0  0  0  0  0  3  0  0  0  0  0  0
   39.6320   28.2920   29.8640 C   0  0  0  0  0  0  0  0  0  0  0  0
   38.9690   28.8010   28.7740 C   0  0  0  0  0  3  0  0  0  0  0  0
   37.5730   28.8770   28.8000 C   0  0  0  0  0  3  0  0  0  0  0  0
   36.9500   28.4160   29.9650 C   0  0  0  0  0  3  0  0  0  0  0  0
   37.6650   27.9240   31.0080 C   0  0  0  0  0  3  0  0  0  0  0  0
   39.0280   27.8340   31.0110 C   0  0  0  0  0  0  0  0  0  0  0  0
  1  2  2  0  0  0  0
  1  6  1  0  0  0  0
  2  3  1  0  0  0  0
  3 15  1  0  0  0  0
  3  4  2  0  0  0  0
  5  4  1  0  0  0  0
  5  7  1  0  0  0  0
  6  5  2  0  0  0  0
  7 12  1  0  0  0  0
  7  8  1  0  0  0  0
  8  9  1  0  0  0  0
  9 10  1  0  0  0  0
  9 19  1  0  0  0  0
 10 21  1  0  0  0  0
 11 22  1  0  0  0  0
 11 23  1  0  0  0  0
 11 10  1  0  0  0  0
 12 24  1  6  0  0  0
 12 11  1  0  0  0  0
 13  1  1  0  0  0  0
 14  2  1  0  0  0  0
 16  8  1  0  0  0  0
 17  8  1  0  0  0  0
 18  9  1  0  0  0  0
 20 10  1  0  0  0  0
 25 26  2  0  0  0  0
 25 12  1  0  0  0  0
 26 30  1  0  0  0  0
 27 31  1  0  0  0  0
 27 26  1  0  0  0  0
 28 29  1  0  0  0  0
 28 27  2  0  0  0  0
 29 25  1  0  0  0  0
 32 28  1  0  0  0  0
 33 32  1  0  0  0  0
 33 34  1  0  0  0  0
 35 33  2  0  0  0  0
 36 35  1  0  0  0  0
 37 36  2  0  0  0  0
 37 42  1  0  0  0  0
 38 39  2  0  0  0  0
 38 37  1  0  0  0  0
 39 40  1  0  0  0  0
 40 41  2  0  0  0  0
 41 42  1  0  0  0  0
 42 32  2  0  0  0  0
M  END
>  <minimizedAffinity>
-6.42430592

$$$$
