
     RDKit          3D

 43 47  0  0  0  0  0  0  0  0999 V2000
   36.7798   31.1576   50.1813 C   0  0  1  0  0  0  0  0  0  0  0  0
   36.4637   29.7645   50.1227 C   0  0  1  0  0  0  0  0  0  0  0  0
   37.4920   30.1717   51.1318 C   0  0  0  0  0  0  0  0  0  0  0  0
   37.7550   31.7949   49.2176 C   0  0  0  0  0  0  0  0  0  0  0  0
   38.2128   33.0634   49.5543 C   0  0  0  0  0  0  0  0  0  0  0  0
   39.1020   33.6490   48.6338 C   0  0  0  0  0  0  0  0  0  0  0  0
   39.4570   32.9699   47.5008 N   0  0  0  0  0  0  0  0  0  0  0  0
   38.9807   31.7229   47.2116 C   0  0  0  0  0  0  0  0  0  0  0  0
   38.1122   31.1294   48.0933 N   0  0  0  0  0  0  0  0  0  0  0  0
   35.0899   29.2954   50.5100 C   0  0  0  0  0  0  0  0  0  0  0  0
   34.2122   29.0492   49.3245 C   0  0  0  0  0  0  0  0  0  0  0  0
   34.2050   29.8463   48.2093 C   0  0  0  0  0  0  0  0  0  0  0  0
   33.3310   29.3837   47.3258 N   0  0  0  0  0  0  0  0  0  0  0  0
   32.7733   28.3044   47.8416 C   0  0  0  0  0  0  0  0  0  0  0  0
   33.3115   28.1048   49.0596 N   0  0  0  0  0  0  0  0  0  0  0  0
   36.1314   31.9077   50.7188 H   0  0  0  0  0  0  0  0  0  0  0  0
   36.8414   29.1999   49.2145 H   0  0  0  0  0  0  0  0  0  0  0  0
   37.1422   30.1257   52.1817 H   0  0  0  0  0  0  0  0  0  0  0  0
   38.5223   29.8845   50.9131 H   0  0  0  0  0  0  0  0  0  0  0  0
   37.9252   33.5743   50.4390 H   0  0  0  0  0  0  0  0  0  0  0  0
   39.5079   34.6291   48.8115 H   0  0  0  0  0  0  0  0  0  0  0  0
   39.2665   31.2021   46.3211 H   0  0  0  0  0  0  0  0  0  0  0  0
   35.1230   28.3965   51.1576 H   0  0  0  0  0  0  0  0  0  0  0  0
   34.5614   30.0795   51.1122 H   0  0  0  0  0  0  0  0  0  0  0  0
   34.8414   30.7394   48.0830 H   0  0  0  0  0  0  0  0  0  0  0  0
   33.1461   29.8504   46.4425 H   0  0  0  0  0  0  0  0  0  0  0  0
   31.8251   27.3074   47.3856 C   0  0  0  0  0  0  0  0  0  0  0  0
   31.5811   26.1547   48.1481 C   0  0  0  0  0  0  0  0  0  0  0  0
   32.1036   26.0216   49.0941 H   0  0  0  0  0  0  0  0  0  0  0  0
   30.7209   25.1412   47.8154 C   0  0  0  0  0  0  0  0  0  0  0  0
   30.0151   25.2145   46.6441 C   0  0  0  0  0  0  0  0  0  0  0  0
   30.1984   26.3113   45.8369 C   0  0  0  0  0  0  0  0  0  0  0  0
   29.4994   26.3304   44.6651 C   0  0  0  0  0  0  0  0  0  0  0  0
   29.6418   27.3579   43.7872 C   0  0  0  0  0  0  0  0  0  0  0  0
   30.5294   28.3751   44.1458 C   0  0  0  0  0  0  0  0  0  0  0  0
   31.2000   28.2929   45.3407 C   0  0  0  0  0  0  0  0  0  0  0  0
   31.0744   27.2748   46.2431 C   0  0  0  0  0  0  0  0  0  0  0  0
   30.5999   24.2968   48.4682 H   0  0  0  0  0  0  0  0  0  0  0  0
   29.3528   24.4149   46.4101 H   0  0  0  0  0  0  0  0  0  0  0  0
   28.8185   25.5377   44.4019 H   0  0  0  0  0  0  0  0  0  0  0  0
   29.0879   27.3651   42.8687 H   0  0  0  0  0  0  0  0  0  0  0  0
   30.6240   29.1822   43.4248 H   0  0  0  0  0  0  0  0  0  0  0  0
   31.8663   29.1066   45.4749 H   0  0  0  0  0  0  0  0  0  0  0  0
  1  3  1  0
  2  1  1  0
  2 10  1  0
  2  3  1  0
  4  5  2  0
  4  1  1  0
  6  5  1  0
  7  6  2  0
  8  7  1  0
  8  9  2  0
  9  4  1  0
 11 10  1  0
 12 11  2  0
 13 14  1  0
 13 12  1  0
 14 15  2  0
 15 11  1  0
  1 16  1  1
  2 17  1  6
  3 18  1  0
  3 19  1  0
  5 20  1  0
  6 21  1  0
  8 22  1  0
 10 23  1  0
 10 24  1  0
 12 25  1  0
 13 26  1  0
 27 28  2  0
 28 29  1  0
 28 30  1  0
 30 31  2  0
 31 32  1  0
 32 33  2  0
 33 34  1  0
 34 35  2  0
 35 36  1  0
 36 37  2  0
 37 27  1  0
 37 32  1  0
 30 38  1  0
 31 39  1  0
 33 40  1  0
 34 41  1  0
 35 42  1  0
 36 43  1  0
 14 27  1  0
M  ISO  8  16  13  17  13  18  13  19  13  20  14  21  14  22  14  23   8
M  ISO  4  24   8  25  14  26   9  29  15
M  END
>  <DihAtoms>  (1) 
12,13,26,27

>  <DihDeg>  (1) 
-159.0859758243129

$$$$
