REMARK  Name = 
REMARK  3 active torsions:
REMARK  status: ('A' for Active; 'I' for Inactive)
REMARK    1  A    between atoms: N_1  and  C_7
REMARK    2  A    between atoms: C_3  and  C_15
REMARK    3  A    between atoms: C_19  and  C_34
REMARK                            x       y       z     vdW  Elec       q    Type
REMARK                         _______ _______ _______ _____ _____    ______ ____
ROOT
ATOM      1  N   UNL     1      34.627  30.046  45.658  0.00  0.00    +0.000 N 
ATOM      2  C   UNL     1      35.035  30.069  47.060  0.00  0.00    +0.000 C 
ATOM      3  C   UNL     1      36.271  30.802  47.327  0.00  0.00    +0.000 C 
ATOM      4  N   UNL     1      37.331  30.498  46.325  0.00  0.00    +0.000 NA
ATOM      5  C   UNL     1      36.756  30.766  44.994  0.00  0.00    +0.000 C 
ATOM      6  C   UNL     1      35.725  29.670  44.838  0.00  0.00    +0.000 C 
ATOM      7  H   UNL     1      34.188  30.401  47.653  0.00  0.00    +0.000 HD
ATOM      8  H   UNL     1      35.275  28.959  47.203  0.00  0.00    +0.000 HD
ATOM      9  H   UNL     1      36.206  31.900  47.209  0.00  0.00    +0.000 HD
ATOM     10  H   UNL     1      38.088  31.169  46.448  0.00  0.00    +0.000 HD
ATOM     11  H   UNL     1      37.580  30.622  44.263  0.00  0.00    +0.000 HD
ATOM     12  H   UNL     1      36.324  31.771  44.928  0.00  0.00    +0.000 HD
ATOM     13  H   UNL     1      36.231  28.719  45.142  0.00  0.00    +0.000 HD
ATOM     14  H   UNL     1      35.409  29.565  43.783  0.00  0.00    +0.000 HD
ENDROOT
BRANCH   3  17
ATOM     15 CL   UNL     1      38.238  32.727  48.445  0.00  0.00    +0.000 Cl
ATOM     16  C   UNL     1      37.660  31.300  49.306  0.00  0.00    +0.000 A 
ATOM     17  C   UNL     1      36.771  30.487  48.654  0.00  0.00    +0.000 A 
ATOM     18  C   UNL     1      36.218  29.319  49.206  0.00  0.00    +0.000 A 
ATOM     19  C   UNL     1      36.642  29.013  50.508  0.00  0.00    +0.000 A 
ATOM     20  C   UNL     1      37.553  29.837  51.180  0.00  0.00    +0.000 A 
ATOM     21  C   UNL     1      38.042  30.961  50.571  0.00  0.00    +0.000 A 
ATOM     22  H   UNL     1      35.539  28.545  48.950  0.00  0.00    +0.000 HD
ATOM     23  H   UNL     1      36.368  28.184  51.136  0.00  0.00    +0.000 HD
ATOM     24  H   UNL     1      37.930  29.674  52.179  0.00  0.00    +0.000 HD
BRANCH  21  25
ATOM     25  C   UNL     1      38.989  31.857  51.221  0.00  0.00    +0.000 A 
ATOM     26  C   UNL     1      40.043  31.265  51.880  0.00  0.00    +0.000 A 
ATOM     27  H   UNL     1      40.170  30.182  51.918  0.00  0.00    +0.000 HD
ATOM     28  C   UNL     1      41.012  31.973  52.536  0.00  0.00    +0.000 A 
ATOM     29  C   UNL     1      40.933  33.361  52.542  0.00  0.00    +0.000 A 
ATOM     30  C   UNL     1      39.879  33.965  51.884  0.00  0.00    +0.000 A 
ATOM     31  C   UNL     1      39.787  35.359  51.881  0.00  0.00    +0.000 A 
ATOM     32  C   UNL     1      38.724  35.951  51.216  0.00  0.00    +0.000 A 
ATOM     33  C   UNL     1      37.770  35.190  50.567  0.00  0.00    +0.000 A 
ATOM     34  C   UNL     1      37.845  33.803  50.559  0.00  0.00    +0.000 A 
ATOM     35  C   UNL     1      38.902  33.241  51.221  0.00  0.00    +0.000 A 
ENDBRANCH  21  25
ENDBRANCH   3  17
BRANCH   1  36
ATOM     36  C   UNL     1      33.310  30.351  45.240  0.00  0.00    +0.000 A 
ATOM     37  C   UNL     1      33.048  31.065  44.065  0.00  0.00    +0.000 A 
ATOM     38  C   UNL     1      31.728  31.321  43.726  0.00  0.00    +0.000 A 
ATOM     39  N   UNL     1      30.732  30.853  44.571  0.00  0.00    +0.000 NA
ATOM     40  C   UNL     1      31.037  30.169  45.694  0.00  0.00    +0.000 A 
ATOM     41  N   UNL     1      32.294  29.916  46.033  0.00  0.00    +0.000 NA
ATOM     42  H   UNL     1      33.911  31.375  43.492  0.00  0.00    +0.000 HD
ATOM     43  H   UNL     1      31.527  31.863  42.833  0.00  0.00    +0.000 HD
ATOM     44  H   UNL     1      30.209  29.841  46.295  0.00  0.00    +0.000 HD
ENDBRANCH   1  36
TORSDOF 3
