
 OpenBabel03272508063D

 37 41  0  0  0  0  0  0  0  0999 V2000
   38.8460   30.9010   45.8610 C   0  0  0  0  0  0  0  0  0  0  0  0
   40.0270   31.5870   46.1150 C   0  0  0  0  0  0  0  0  0  0  0  0
   40.8760   31.5390   45.0120 C   0  0  0  0  0  0  0  0  0  0  0  0
   40.1520   30.8100   44.1220 N   0  0  0  0  0  0  0  0  0  0  0  0
   38.9840   30.4390   44.6020 N   0  0  0  0  0  0  0  0  0  0  0  0
   40.2710   32.0950   47.0390 H   0  0  0  0  0  0  0  0  0  0  0  0
   41.8450   31.9470   44.8560 H   0  0  0  0  0  0  0  0  0  0  0  0
   37.7200   30.7320   46.7580 C   0  0  0  0  0  0  0  0  0  0  0  0
   37.9360   30.9260   48.1500 C   0  0  0  0  0  0  0  0  0  0  0  0
   36.8360   30.7580   48.9910 C   0  0  0  0  0  0  0  0  0  0  0  0
   35.6410   30.4230   48.4450 N   0  0  0  0  0  0  0  0  0  0  0  0
   35.4670   30.2460   47.1170 C   0  0  0  0  0  0  0  0  0  0  0  0
   36.5170   30.4040   46.2850 N   0  0  0  0  0  0  0  0  0  0  0  0
   38.9140   31.1920   48.5310 H   0  0  0  0  0  0  0  0  0  0  0  0
   34.4970   29.9790   46.7170 H   0  0  0  0  0  0  0  0  0  0  0  0
   37.0420   30.9570   50.4600 C   0  0  0  0  0  0  0  0  0  0  0  0
   36.5510   32.2100   50.7310 F   0  0  0  0  0  0  0  0  0  0  0  0
   36.3450   30.0170   51.2200 F   0  0  0  0  0  0  0  0  0  0  0  0
   38.3860   30.9220   50.8060 F   0  0  0  0  0  0  0  0  0  0  0  0
   40.5350   30.4410   42.7650 C   0  0  0  0  0  0  0  0  0  0  0  0
   40.1460   31.1920   41.6520 C   0  0  0  0  0  0  0  0  0  0  0  0
   40.5380   30.8080   40.4060 C   0  0  0  0  0  0  0  0  0  0  0  0
   41.3310   29.6570   40.2330 C   0  0  0  0  0  0  0  0  0  0  0  0
   41.5030   29.1250   41.9960 S   0  0  0  0  0  0  0  0  0  0  0  0
   39.5210   32.0900   41.8000 H   0  0  0  0  0  0  0  0  0  0  0  0
   40.2750   31.4030   39.5620 H   0  0  0  0  0  0  0  0  0  0  0  0
   41.9960   28.9170   39.2760 C   0  0  0  0  0  0  0  0  0  0  0  0
   41.5230   27.6280   38.9720 C   0  0  0  0  0  0  0  0  0  0  0  0
   40.6610   27.1480   39.4470 H   0  0  0  0  0  0  0  0  0  0  0  0
   42.0940   26.8010   38.0300 C   0  0  0  0  0  3  0  0  0  0  0  0
   43.1860   27.2440   37.3390 C   0  0  0  0  0  3  0  0  0  0  0  0
   43.7240   28.4860   37.5570 C   0  0  0  0  0  0  0  0  0  0  0  0
   44.8060   28.8990   36.8160 C   0  0  0  0  0  3  0  0  0  0  0  0
   45.3240   30.1630   37.0110 C   0  0  0  0  0  3  0  0  0  0  0  0
   44.6970   30.9420   37.9680 C   0  0  0  0  0  3  0  0  0  0  0  0
   43.6190   30.4810   38.6850 C   0  0  0  0  0  3  0  0  0  0  0  0
   43.0900   29.2340   38.5100 C   0  0  0  0  0  0  0  0  0  0  0  0
  1  2  1  0  0  0  0
  1  8  1  0  0  0  0
  2  6  1  0  0  0  0
  3  2  2  0  0  0  0
  4  5  1  0  0  0  0
  4  3  1  0  0  0  0
  5  1  2  0  0  0  0
  7  3  1  0  0  0  0
  8  9  1  0  0  0  0
  9 14  1  0  0  0  0
  9 10  2  0  0  0  0
 10 16  1  0  0  0  0
 11 10  1  0  0  0  0
 12 11  2  0  0  0  0
 13  8  2  0  0  0  0
 13 12  1  0  0  0  0
 15 12  1  0  0  0  0
 16 17  1  0  0  0  0
 16 19  1  0  0  0  0
 16 18  1  0  0  0  0
 20  4  1  0  0  0  0
 21 25  1  0  0  0  0
 21 20  2  0  0  0  0
 22 21  1  0  0  0  0
 23 22  2  0  0  0  0
 23 24  1  0  0  0  0
 24 20  1  0  0  0  0
 26 22  1  0  0  0  0
 27 23  1  0  0  0  0
 28 27  1  0  0  0  0
 28 29  1  0  0  0  0
 30 28  2  0  0  0  0
 31 32  2  0  0  0  0
 31 30  1  0  0  0  0
 32 37  1  0  0  0  0
 33 34  2  0  0  0  0
 33 32  1  0  0  0  0
 34 35  1  0  0  0  0
 35 36  2  0  0  0  0
 37 36  1  0  0  0  0
 37 27  2  0  0  0  0
M  END
>  <minimizedAffinity>
-6.82517815

>  <minimizedRMSD>
0.567940295

$$$$
