
 OpenBabel03272506093D

 46 50  0  0  0  0  0  0  0  0999 V2000
   34.2960   28.0100   49.1790 C   0  0  0  0  0  0  0  0  0  0  0  0
   34.3260   27.0480   49.7690 H   0  0  0  0  0  0  0  0  0  0  0  0
   35.1470   27.9330   48.4880 H   0  0  0  0  0  0  0  0  0  0  0  0
   32.9940   28.0890   48.4600 C   0  0  0  0  0  0  0  0  0  0  0  0
   32.9840   28.6290   47.1330 C   0  0  0  0  0  0  0  0  0  0  0  0
   31.2700   28.5190   46.7160 S   0  0  0  0  0  0  0  0  0  0  0  0
   30.7760   27.7590   48.3770 C   0  0  0  0  0  0  0  0  0  0  0  0
   31.8380   27.7160   48.9070 N   0  0  0  0  0  0  0  0  0  0  0  0
   29.4850   27.3400   48.8880 N   0  0  0  0  0  0  0  0  0  0  0  0
   28.5420   26.8780   47.9250 C   0  0  0  0  0  0  0  0  0  0  0  0
   27.1360   26.8290   48.4210 C   0  0  0  0  0  0  0  0  0  0  0  0
   26.9570   27.4760   49.7270 N   0  0  0  0  0  0  0  0  0  0  0  0
   27.9030   26.8230   50.6160 C   0  0  0  0  0  0  0  0  0  0  0  0
   29.2500   27.4180   50.3190 C   0  0  0  0  0  0  0  0  0  0  0  0
   33.6380   29.0290   46.4240 H   0  0  0  0  0  0  0  0  0  0  0  0
   28.8760   25.8800   47.5450 H   0  0  0  0  0  0  0  0  0  0  0  0
   28.5770   27.5600   47.0490 H   0  0  0  0  0  0  0  0  0  0  0  0
   26.4020   27.1640   47.6760 H   0  0  0  0  0  0  0  0  0  0  0  0
   26.8930   25.7410   48.6110 H   0  0  0  0  0  0  0  0  0  0  0  0
   25.9880   27.2950   50.0280 H   0  0  0  0  0  0  0  0  0  0  0  0
   27.6170   27.1780   51.6440 H   0  0  0  0  0  0  0  0  0  0  0  0
   27.8450   25.7370   50.5130 H   0  0  0  0  0  0  0  0  0  0  0  0
   30.0230   26.8200   50.8380 H   0  0  0  0  0  0  0  0  0  0  0  0
   29.2700   28.4550   50.6950 H   0  0  0  0  0  0  0  0  0  0  0  0
   34.4850   29.1530   50.1210 C   0  0  0  0  0  0  0  0  0  0  0  0
   34.5710   28.7860   51.1690 H   0  0  0  0  0  0  0  0  0  0  0  0
   33.6550   29.8900   50.0050 H   0  0  0  0  0  0  0  0  0  0  0  0
   37.8330   30.7440   50.5010 C   0  0  0  0  0  0  0  0  0  0  0  0
   38.1480   31.0730   49.1950 C   0  0  0  0  0  0  0  0  0  0  0  0
   37.2290   30.7610   48.1650 C   0  0  0  0  0  0  0  0  0  0  0  0
   36.0740   30.1490   48.5490 N   0  0  0  0  0  0  0  0  0  0  0  0
   35.8080   29.8470   49.8330 C   0  0  0  0  0  0  0  0  0  0  0  0
   36.6810   30.1440   50.7750 N   0  0  0  0  0  0  0  0  0  0  0  0
   38.5270   30.9750   51.2950 H   0  0  0  0  0  0  0  0  0  0  0  0
   39.0610   31.5870   49.0410 H   0  0  0  0  0  0  0  0  0  0  0  0
   37.3420   31.0730   46.7670 C   0  0  0  0  0  0  0  0  0  0  0  0
   36.4320   30.4610   45.9110 C   0  0  0  0  0  0  0  0  0  0  0  0
   35.6850   29.8040   46.2750 H   0  0  0  0  0  0  0  0  0  0  0  0
   36.4000   30.6340   44.5460 C   0  0  0  0  0  0  0  0  0  0  0  0
   37.3170   31.4610   43.9370 C   0  0  0  0  0  0  0  0  0  0  0  0
   38.2390   32.0880   44.7290 C   0  0  0  0  0  0  0  0  0  0  0  0
   39.1960   32.8920   44.1580 C   0  0  0  0  0  0  0  0  0  0  0  0
   40.1760   33.5140   44.9240 C   0  0  0  0  0  0  0  0  0  0  0  0
   40.1690   33.3020   46.2890 C   0  0  0  0  0  0  0  0  0  0  0  0
   39.1910   32.4900   46.8100 C   0  0  0  0  0  0  0  0  0  0  0  0
   38.2140   31.8720   46.0730 C   0  0  0  0  0  0  0  0  0  0  0  0
  1  2  1  0  0  0  0
  1 25  1  0  0  0  0
  3  1  1  0  0  0  0
  4  8  1  0  0  0  0
  4  1  1  0  0  0  0
  5  4  2  0  0  0  0
  6  5  1  0  0  0  0
  6  7  1  0  0  0  0
  7  9  1  0  0  0  0
  7  8  2  0  0  0  0
  9 14  1  0  0  0  0
 10 11  1  0  0  0  0
 10  9  1  0  0  0  0
 11 19  1  0  0  0  0
 11 12  1  0  0  0  0
 12 20  1  0  0  0  0
 12 13  1  0  0  0  0
 13 21  1  0  0  0  0
 14 13  1  0  0  0  0
 14 24  1  0  0  0  0
 14 23  1  0  0  0  0
 15  5  1  0  0  0  0
 16 10  1  0  0  0  0
 17 10  1  0  0  0  0
 18 11  1  0  0  0  0
 22 13  1  0  0  0  0
 25 26  1  0  0  0  0
 27 25  1  0  0  0  0
 28 33  1  0  0  0  0
 28 34  1  0  0  0  0
 29 28  2  0  0  0  0
 30 31  2  0  0  0  0
 30 29  1  0  0  0  0
 31 32  1  0  0  0  0
 32 25  1  0  0  0  0
 32 33  2  0  0  0  0
 35 29  1  0  0  0  0
 36 30  1  0  0  0  0
 37 38  1  0  0  0  0
 37 36  2  0  0  0  0
 39 37  1  0  0  0  0
 40 39  2  0  0  0  0
 40 41  1  0  0  0  0
 41 46  1  0  0  0  0
 42 41  2  0  0  0  0
 42 43  1  0  0  0  0
 43 44  2  0  0  0  0
 44 45  1  0  0  0  0
 46 36  1  0  0  0  0
 46 45  2  0  0  0  0
M  END
>  <minimizedAffinity>
-8.40031338

>  <minimizedRMSD>
1.9025315

$$$$
