
 OpenBabel03272505533D

 46 50  0  0  1  0  0  0  0  0999 V2000
   39.8520   22.7850   37.9170 C   0  0  0  0  0  0  0  0  0  0  0  0
   38.8180   23.3840   38.6600 C   0  0  0  0  0  0  0  0  0  0  0  0
   37.7740   23.9600   37.9390 C   0  0  0  0  0  0  0  0  0  0  0  0
   37.8190   23.9090   36.5800 N   0  0  0  0  0  0  0  0  0  0  0  0
   38.8160   23.3320   35.9200 C   0  0  0  0  0  0  0  0  0  0  0  0
   39.8390   22.7670   36.5850 N   0  0  0  0  0  0  0  0  0  0  0  0
   38.8040   23.3050   34.5010 N   0  0  0  0  0  0  0  0  0  0  0  0
   39.4480   22.2380   33.7580 C   0  0  0  0  0  0  0  0  0  0  0  0
   38.4960   21.6330   32.7820 C   0  0  0  0  0  0  0  0  0  0  0  0
   37.3320   22.3270   32.5450 N   0  0  0  0  0  0  0  0  0  0  0  0
   37.2390   23.7460   32.7680 C   0  0  0  0  0  0  0  0  0  0  0  0
   38.1440   24.3370   33.7320 C   0  0  2  0  0  0  0  0  0  0  0  0
   40.6730   22.3310   38.4710 H   0  0  0  0  0  0  0  0  0  0  0  0
   38.7880   23.4210   39.7320 H   0  0  0  0  0  0  0  0  0  0  0  0
   36.9250   24.4500   38.3880 H   0  0  0  0  0  0  0  0  0  0  0  0
   40.4590   22.4310   33.4310 H   0  0  0  0  0  0  0  0  0  0  0  0
   39.6000   21.4160   34.5450 H   0  0  0  0  0  0  0  0  0  0  0  0
   38.2530   20.5690   32.9840 H   0  0  0  0  0  0  0  0  0  0  0  0
   39.0760   21.5770   31.8120 H   0  0  0  0  0  0  0  0  0  0  0  0
   36.4450   21.8380   32.3780 H   0  0  0  0  0  0  0  0  0  0  0  0
   36.1990   23.8170   33.2420 H   0  0  0  0  0  0  0  0  0  0  0  0
   37.0540   24.1720   31.7970 H   0  0  0  0  0  0  0  0  0  0  0  0
   37.6140   25.0090   34.4730 H   0  0  0  0  0  0  0  0  0  0  0  0
   39.2030   25.1720   33.1700 N   0  0  2  0  0  0  0  0  0  0  0  0
   40.4940   24.8620   33.7880 C   0  0  0  0  0  0  0  0  0  0  0  0
   41.2260   26.1760   33.9880 C   0  0  0  0  0  0  0  0  0  0  0  0
   40.3860   27.1330   33.2330 C   0  0  0  0  0  0  0  0  0  0  0  0
   38.9610   26.5660   33.4220 C   0  0  1  0  0  0  0  0  0  0  0  0
   41.0670   24.3110   33.0240 H   0  0  0  0  0  0  0  0  0  0  0  0
   40.4020   24.2650   34.7020 H   0  0  0  0  0  0  0  0  0  0  0  0
   42.2810   26.1150   33.6800 H   0  0  0  0  0  0  0  0  0  0  0  0
   41.1070   26.4200   35.0820 H   0  0  0  0  0  0  0  0  0  0  0  0
   40.4410   28.1480   33.6720 H   0  0  0  0  0  0  0  0  0  0  0  0
   40.6780   27.1200   32.1670 H   0  0  0  0  0  0  0  0  0  0  0  0
   38.8170   26.8030   34.4740 H   0  0  0  0  0  0  0  0  0  0  0  0
   38.2310   27.2930   32.4040 C   0  0  0  0  0  0  0  0  0  0  0  0
   38.6540   27.2360   31.0930 C   0  0  0  0  0  0  0  0  0  0  0  0
   39.5160   26.6580   30.8130 H   0  0  0  0  0  0  0  0  0  0  0  0
   38.0380   27.9090   30.0620 C   0  0  0  0  0  3  0  0  0  0  0  0
   36.9310   28.6980   30.2990 C   0  0  0  0  0  3  0  0  0  0  0  0
   36.4630   28.7940   31.5910 C   0  0  0  0  0  0  0  0  0  0  0  0
   35.3610   29.5840   31.8550 C   0  0  0  0  0  3  0  0  0  0  0  0
   34.8670   29.7110   33.1470 C   0  0  0  0  0  3  0  0  0  0  0  0
   35.5220   29.0110   34.1680 C   0  0  0  0  0  3  0  0  0  0  0  0
   36.6060   28.2450   33.8450 C   0  0  0  0  0  3  0  0  0  0  0  0
   37.1250   28.0950   32.5790 C   0  0  0  0  0  0  0  0  0  0  0  0
  1 13  1  0  0  0  0
  1  2  1  0  0  0  0
  2 14  1  0  0  0  0
  3 15  1  0  0  0  0
  3  2  2  0  0  0  0
  4  3  1  0  0  0  0
  5  4  2  0  0  0  0
  5  6  1  0  0  0  0
  6  1  2  0  0  0  0
  7  5  1  0  0  0  0
  8  7  1  0  0  0  0
  8 17  1  0  0  0  0
  9 18  1  0  0  0  0
  9  8  1  0  0  0  0
 10 11  1  0  0  0  0
 10  9  1  0  0  0  0
 11 21  1  0  0  0  0
 11 12  1  0  0  0  0
 12 23  1  1  0  0  0
 12  7  1  0  0  0  0
 16  8  1  0  0  0  0
 19  9  1  0  0  0  0
 20 10  1  0  0  0  0
 22 11  1  0  0  0  0
 24 28  1  0  0  0  0
 24 12  1  0  0  0  0
 24 25  1  1  0  0  0
 25 26  1  0  0  0  0
 25 30  1  0  0  0  0
 26 32  1  0  0  0  0
 27 28  1  0  0  0  0
 27 33  1  0  0  0  0
 27 26  1  0  0  0  0
 28 35  1  1  0  0  0
 29 25  1  0  0  0  0
 31 26  1  0  0  0  0
 34 27  1  0  0  0  0
 36 46  1  0  0  0  0
 36 28  1  0  0  0  0
 37 36  2  0  0  0  0
 38 37  1  0  0  0  0
 39 40  2  0  0  0  0
 39 37  1  0  0  0  0
 40 41  1  0  0  0  0
 41 42  2  0  0  0  0
 41 46  1  0  0  0  0
 42 43  1  0  0  0  0
 43 44  2  0  0  0  0
 45 44  1  0  0  0  0
 46 45  2  0  0  0  0
M  END
>  <minimizedAffinity>
-6.73092461

$$$$

 OpenBabel03272505533D

 46 50  0  0  1  0  0  0  0  0999 V2000
   37.0320   28.7320   29.6280 C   0  0  0  0  0  0  0  0  0  0  0  0
   38.3710   28.9210   29.2370 C   0  0  0  0  0  0  0  0  0  0  0  0
   39.3070   28.0150   29.7300 C   0  0  0  0  0  0  0  0  0  0  0  0
   38.8750   27.0170   30.5480 N   0  0  0  0  0  0  0  0  0  0  0  0
   37.6000   26.8760   30.8910 C   0  0  0  0  0  0  0  0  0  0  0  0
   36.6710   27.7330   30.4330 N   0  0  0  0  0  0  0  0  0  0  0  0
   37.2090   25.8110   31.7440 N   0  0  0  0  0  0  0  0  0  0  0  0
   35.8820   25.2290   31.6690 C   0  0  0  0  0  0  0  0  0  0  0  0
   35.9700   23.7470   31.5160 C   0  0  0  0  0  0  0  0  0  0  0  0
   37.1990   23.1740   31.7530 N   0  0  0  0  0  0  0  0  0  0  0  0
   38.1830   23.8140   32.5870 C   0  0  0  0  0  0  0  0  0  0  0  0
   38.1190   25.2550   32.7210 C   0  0  2  0  0  0  0  0  0  0  0  0
   36.2910   29.4340   29.2470 H   0  0  0  0  0  0  0  0  0  0  0  0
   38.7050   29.7100   28.5920 H   0  0  0  0  0  0  0  0  0  0  0  0
   40.3610   28.0500   29.5080 H   0  0  0  0  0  0  0  0  0  0  0  0
   35.1510   25.6270   32.3550 H   0  0  0  0  0  0  0  0  0  0  0  0
   35.4860   25.5910   30.6550 H   0  0  0  0  0  0  0  0  0  0  0  0
   35.5680   23.3650   30.5550 H   0  0  0  0  0  0  0  0  0  0  0  0
   35.2390   23.3360   32.2740 H   0  0  0  0  0  0  0  0  0  0  0  0
   37.5260   22.3710   31.2040 H   0  0  0  0  0  0  0  0  0  0  0  0
   39.1350   23.6050   31.9860 H   0  0  0  0  0  0  0  0  0  0  0  0
   38.3160   23.1510   33.4240 H   0  0  0  0  0  0  0  0  0  0  0  0
   39.1220   25.7530   32.5570 H   0  0  0  0  0  0  0  0  0  0  0  0
   37.6730   25.7440   34.0230 N   0  0  2  0  0  0  0  0  0  0  0  0
   37.0310   27.0550   33.8950 C   0  0  0  0  0  0  0  0  0  0  0  0
   37.4720   27.8910   35.0820 C   0  0  0  0  0  0  0  0  0  0  0  0
   38.1500   26.8980   35.9440 C   0  0  0  0  0  0  0  0  0  0  0  0
   38.7800   25.9250   34.9230 C   0  0  1  0  0  0  0  0  0  0  0  0
   35.9530   26.8750   34.0370 H   0  0  0  0  0  0  0  0  0  0  0  0
   37.2170   27.5330   32.9260 H   0  0  0  0  0  0  0  0  0  0  0  0
   36.6320   28.4340   35.5420 H   0  0  0  0  0  0  0  0  0  0  0  0
   38.2670   28.5820   34.6820 H   0  0  0  0  0  0  0  0  0  0  0  0
   38.9500   27.3700   36.5470 H   0  0  0  0  0  0  0  0  0  0  0  0
   37.4010   26.3810   36.5730 H   0  0  0  0  0  0  0  0  0  0  0  0
   39.5640   26.5680   34.5290 H   0  0  0  0  0  0  0  0  0  0  0  0
   39.1160   24.8010   35.7720 C   0  0  0  0  0  0  0  0  0  0  0  0
   38.2260   24.3930   36.7430 C   0  0  0  0  0  0  0  0  0  0  0  0
   37.2840   24.8940   36.8780 H   0  0  0  0  0  0  0  0  0  0  0  0
   38.4670   23.3500   37.6100 C   0  0  0  0  0  3  0  0  0  0  0  0
   39.6490   22.6410   37.5470 C   0  0  0  0  0  3  0  0  0  0  0  0
   40.5780   23.0050   36.5960 C   0  0  0  0  0  0  0  0  0  0  0  0
   41.7710   22.3160   36.5170 C   0  0  0  0  0  3  0  0  0  0  0  0
   42.7340   22.6600   35.5770 C   0  0  0  0  0  3  0  0  0  0  0  0
   42.4520   23.7260   34.7150 C   0  0  0  0  0  3  0  0  0  0  0  0
   41.2530   24.3700   34.8400 C   0  0  0  0  0  3  0  0  0  0  0  0
   40.2750   24.0580   35.7580 C   0  0  0  0  0  0  0  0  0  0  0  0
  1  6  1  0  0  0  0
  2  1  2  0  0  0  0
  2  3  1  0  0  0  0
  3  4  2  0  0  0  0
  4  5  1  0  0  0  0
  5  7  1  0  0  0  0
  6  5  2  0  0  0  0
  7 12  1  0  0  0  0
  8  7  1  0  0  0  0
  8 16  1  0  0  0  0
  9  8  1  0  0  0  0
  9 10  1  0  0  0  0
  9 19  1  0  0  0  0
 10 11  1  0  0  0  0
 11 12  1  0  0  0  0
 11 22  1  0  0  0  0
 12 23  1  6  0  0  0
 12 24  1  0  0  0  0
 13  1  1  0  0  0  0
 14  2  1  0  0  0  0
 15  3  1  0  0  0  0
 17  8  1  0  0  0  0
 18  9  1  0  0  0  0
 20 10  1  0  0  0  0
 21 11  1  0  0  0  0
 24 25  1  6  0  0  0
 24 28  1  0  0  0  0
 25 29  1  0  0  0  0
 25 26  1  0  0  0  0
 26 31  1  0  0  0  0
 26 27  1  0  0  0  0
 27 33  1  0  0  0  0
 27 34  1  0  0  0  0
 28 35  1  6  0  0  0
 28 36  1  0  0  0  0
 28 27  1  0  0  0  0
 30 25  1  0  0  0  0
 32 26  1  0  0  0  0
 36 37  1  0  0  0  0
 37 38  1  0  0  0  0
 37 39  2  0  0  0  0
 40 39  1  0  0  0  0
 41 40  2  0  0  0  0
 42 41  1  0  0  0  0
 43 42  2  0  0  0  0
 44 45  2  0  0  0  0
 44 43  1  0  0  0  0
 45 46  1  0  0  0  0
 46 36  2  0  0  0  0
 46 41  1  0  0  0  0
M  END
>  <minimizedAffinity>
-6.66905785

$$$$

 OpenBabel03272505533D

 46 50  0  0  1  0  0  0  0  0999 V2000
   40.2850   22.6930   37.5960 C   0  0  0  0  0  0  0  0  0  0  0  0
   39.1820   23.0000   38.4150 C   0  0  0  0  0  0  0  0  0  0  0  0
   38.0050   23.3810   37.7730 C   0  0  0  0  0  0  0  0  0  0  0  0
   37.9950   23.4320   36.4130 N   0  0  0  0  0  0  0  0  0  0  0  0
   39.0610   23.1320   35.6800 C   0  0  0  0  0  0  0  0  0  0  0  0
   40.2130   22.7620   36.2680 N   0  0  0  0  0  0  0  0  0  0  0  0
   38.9890   23.1990   34.2640 N   0  0  0  0  0  0  0  0  0  0  0  0
   39.8130   22.3510   33.4230 C   0  0  0  0  0  0  0  0  0  0  0  0
   38.9690   21.6190   32.4340 C   0  0  0  0  0  0  0  0  0  0  0  0
   37.6720   22.0550   32.2870 N   0  0  0  0  0  0  0  0  0  0  0  0
   37.2850   23.4020   32.6200 C   0  0  0  0  0  0  0  0  0  0  0  0
   38.0860   24.1100   33.5970 C   0  0  2  0  0  0  0  0  0  0  0  0
   41.2100   22.3940   38.0880 H   0  0  0  0  0  0  0  0  0  0  0  0
   39.1950   22.9580   39.4870 H   0  0  0  0  0  0  0  0  0  0  0  0
   37.0930   23.6410   38.2840 H   0  0  0  0  0  0  0  0  0  0  0  0
   40.7410   22.7820   33.0800 H   0  0  0  0  0  0  0  0  0  0  0  0
   40.1760   21.5320   34.1400 H   0  0  0  0  0  0  0  0  0  0  0  0
   38.9710   20.5170   32.5630 H   0  0  0  0  0  0  0  0  0  0  0  0
   39.5000   21.7560   31.4450 H   0  0  0  0  0  0  0  0  0  0  0  0
   36.9060   21.3960   32.1120 H   0  0  0  0  0  0  0  0  0  0  0  0
   36.2780   23.2100   33.1300 H   0  0  0  0  0  0  0  0  0  0  0  0
   36.9670   23.8410   31.6910 H   0  0  0  0  0  0  0  0  0  0  0  0
   37.4580   24.5990   34.4030 H   0  0  0  0  0  0  0  0  0  0  0  0
   38.9110   25.1930   33.0660 N   0  0  2  0  0  0  0  0  0  0  0  0
   40.3230   24.8050   33.0390 C   0  0  0  0  0  0  0  0  0  0  0  0
   41.1330   26.0180   33.4570 C   0  0  0  0  0  0  0  0  0  0  0  0
   40.1210   27.0980   33.4570 C   0  0  0  0  0  0  0  0  0  0  0  0
   38.8320   26.3660   33.8930 C   0  0  1  0  0  0  0  0  0  0  0  0
   40.5650   24.6330   31.9770 H   0  0  0  0  0  0  0  0  0  0  0  0
   40.5360   23.9080   33.6310 H   0  0  0  0  0  0  0  0  0  0  0  0
   42.0070   26.1780   32.8080 H   0  0  0  0  0  0  0  0  0  0  0  0
   41.4180   25.8310   34.5310 H   0  0  0  0  0  0  0  0  0  0  0  0
   40.3700   27.8820   34.2000 H   0  0  0  0  0  0  0  0  0  0  0  0
   40.0170   27.5080   32.4350 H   0  0  0  0  0  0  0  0  0  0  0  0
   39.0790   26.1840   34.9370 H   0  0  0  0  0  0  0  0  0  0  0  0
   37.8200   27.3410   33.5420 C   0  0  0  0  0  0  0  0  0  0  0  0
   36.9810   27.8310   34.5200 C   0  0  0  0  0  0  0  0  0  0  0  0
   37.0660   27.5040   35.5400 H   0  0  0  0  0  0  0  0  0  0  0  0
   35.9770   28.7430   34.2770 C   0  0  0  0  0  3  0  0  0  0  0  0
   35.7570   29.2250   33.0030 C   0  0  0  0  0  3  0  0  0  0  0  0
   36.5660   28.7700   31.9840 C   0  0  0  0  0  0  0  0  0  0  0  0
   36.3610   29.2310   30.7000 C   0  0  0  0  0  3  0  0  0  0  0  0
   37.1520   28.7880   29.6470 C   0  0  0  0  0  3  0  0  0  0  0  0
   38.1600   27.8610   29.9350 C   0  0  0  0  0  3  0  0  0  0  0  0
   38.3150   27.4410   31.2250 C   0  0  0  0  0  3  0  0  0  0  0  0
   37.5530   27.8570   32.2940 C   0  0  0  0  0  0  0  0  0  0  0  0
  1 13  1  0  0  0  0
  1  2  1  0  0  0  0
  2 14  1  0  0  0  0
  3 15  1  0  0  0  0
  3  2  2  0  0  0  0
  4  3  1  0  0  0  0
  5  6  1  0  0  0  0
  5  4  2  0  0  0  0
  6  1  2  0  0  0  0
  7  5  1  0  0  0  0
  8 17  1  0  0  0  0
  8  7  1  0  0  0  0
  9 18  1  0  0  0  0
  9  8  1  0  0  0  0
 10  9  1  0  0  0  0
 10 11  1  0  0  0  0
 11 21  1  0  0  0  0
 11 12  1  0  0  0  0
 12  7  1  0  0  0  0
 12 23  1  1  0  0  0
 16  8  1  0  0  0  0
 19  9  1  0  0  0  0
 20 10  1  0  0  0  0
 22 11  1  0  0  0  0
 24 25  1  1  0  0  0
 24 12  1  0  0  0  0
 24 28  1  0  0  0  0
 25 26  1  0  0  0  0
 25 30  1  0  0  0  0
 26 27  1  0  0  0  0
 26 32  1  0  0  0  0
 27 28  1  0  0  0  0
 27 33  1  0  0  0  0
 28 35  1  1  0  0  0
 29 25  1  0  0  0  0
 31 26  1  0  0  0  0
 34 27  1  0  0  0  0
 36 28  1  0  0  0  0
 36 37  1  0  0  0  0
 37 38  1  0  0  0  0
 39 37  2  0  0  0  0
 40 39  1  0  0  0  0
 41 46  1  0  0  0  0
 41 40  2  0  0  0  0
 42 41  1  0  0  0  0
 43 44  1  0  0  0  0
 43 42  2  0  0  0  0
 44 45  2  0  0  0  0
 45 46  1  0  0  0  0
 46 36  2  0  0  0  0
M  END
>  <minimizedAffinity>
-6.6678009

$$$$

 OpenBabel03272505533D

 46 50  0  0  1  0  0  0  0  0999 V2000
   36.2820   29.7420   30.4200 C   0  0  0  0  0  0  0  0  0  0  0  0
   37.4440   30.1760   29.7530 C   0  0  0  0  0  0  0  0  0  0  0  0
   38.5340   29.3080   29.7530 C   0  0  0  0  0  0  0  0  0  0  0  0
   38.4110   28.1120   30.3900 N   0  0  0  0  0  0  0  0  0  0  0  0
   37.2940   27.7430   31.0070 C   0  0  0  0  0  0  0  0  0  0  0  0
   36.2230   28.5570   31.0260 N   0  0  0  0  0  0  0  0  0  0  0  0
   37.2240   26.4790   31.6490 N   0  0  0  0  0  0  0  0  0  0  0  0
   35.9670   25.7660   31.7830 C   0  0  0  0  0  0  0  0  0  0  0  0
   36.0980   24.3750   31.2600 C   0  0  0  0  0  0  0  0  0  0  0  0
   37.3760   23.9220   31.0240 N   0  0  0  0  0  0  0  0  0  0  0  0
   38.5150   24.4840   31.7040 C   0  0  0  0  0  0  0  0  0  0  0  0
   38.4030   25.8430   32.1930 C   0  0  2  0  0  0  0  0  0  0  0  0
   35.4230   30.4120   30.4260 H   0  0  0  0  0  0  0  0  0  0  0  0
   37.5350   31.1200   29.2530 H   0  0  0  0  0  0  0  0  0  0  0  0
   39.4780   29.5220   29.2810 H   0  0  0  0  0  0  0  0  0  0  0  0
   35.4350   25.9130   32.7100 H   0  0  0  0  0  0  0  0  0  0  0  0
   35.2810   26.2860   31.0240 H   0  0  0  0  0  0  0  0  0  0  0  0
   35.4660   24.1620   30.3730 H   0  0  0  0  0  0  0  0  0  0  0  0
   35.6350   23.7230   32.0590 H   0  0  0  0  0  0  0  0  0  0  0  0
   37.5840   23.3030   30.2330 H   0  0  0  0  0  0  0  0  0  0  0  0
   39.2700   24.5300   30.8450 H   0  0  0  0  0  0  0  0  0  0  0  0
   38.9170   23.6790   32.2920 H   0  0  0  0  0  0  0  0  0  0  0  0
   39.2880   26.4860   31.9000 H   0  0  0  0  0  0  0  0  0  0  0  0
   38.3130   25.9820   33.6450 N   0  0  2  0  0  0  0  0  0  0  0  0
   37.1490   26.7880   34.0190 C   0  0  0  0  0  0  0  0  0  0  0  0
   37.5690   27.6800   35.1720 C   0  0  0  0  0  0  0  0  0  0  0  0
   38.8950   27.1340   35.5370 C   0  0  0  0  0  0  0  0  0  0  0  0
   39.4610   26.6620   34.1790 C   0  0  1  0  0  0  0  0  0  0  0  0
   36.4160   26.0790   34.4390 H   0  0  0  0  0  0  0  0  0  0  0  0
   36.7130   27.3350   33.1750 H   0  0  0  0  0  0  0  0  0  0  0  0
   36.8190   27.7000   35.9770 H   0  0  0  0  0  0  0  0  0  0  0  0
   37.7430   28.6960   34.7160 H   0  0  0  0  0  0  0  0  0  0  0  0
   39.5520   27.9210   35.9570 H   0  0  0  0  0  0  0  0  0  0  0  0
   38.7670   26.2820   36.2300 H   0  0  0  0  0  0  0  0  0  0  0  0
   39.6500   27.6310   33.7220 H   0  0  0  0  0  0  0  0  0  0  0  0
   40.5670   25.8300   34.6080 C   0  0  0  0  0  0  0  0  0  0  0  0
   41.8580   26.2060   34.3040 C   0  0  0  0  0  0  0  0  0  0  0  0
   42.0590   27.1090   33.7570 H   0  0  0  0  0  0  0  0  0  0  0  0
   42.9690   25.4700   34.6510 C   0  0  0  0  0  3  0  0  0  0  0  0
   42.8390   24.2820   35.3410 C   0  0  0  0  0  3  0  0  0  0  0  0
   41.5710   23.8540   35.6710 C   0  0  0  0  0  0  0  0  0  0  0  0
   41.4140   22.6650   36.3540 C   0  0  0  0  0  3  0  0  0  0  0  0
   40.1510   22.2000   36.6960 C   0  0  0  0  0  3  0  0  0  0  0  0
   39.0470   22.9770   36.3250 C   0  0  0  0  0  3  0  0  0  0  0  0
   39.2650   24.1440   35.6510 C   0  0  0  0  0  3  0  0  0  0  0  0
   40.5000   24.6380   35.2950 C   0  0  0  0  0  0  0  0  0  0  0  0
  1 13  1  0  0  0  0
  1  6  1  0  0  0  0
  2  3  1  0  0  0  0
  2  1  2  0  0  0  0
  3  4  2  0  0  0  0
  4  5  1  0  0  0  0
  5  6  2  0  0  0  0
  5  7  1  0  0  0  0
  7  8  1  0  0  0  0
  7 12  1  0  0  0  0
  8 16  1  0  0  0  0
  9  8  1  0  0  0  0
  9 19  1  0  0  0  0
 10  9  1  0  0  0  0
 10 11  1  0  0  0  0
 11 12  1  0  0  0  0
 11 22  1  0  0  0  0
 12 23  1  6  0  0  0
 12 24  1  0  0  0  0
 14  2  1  0  0  0  0
 15  3  1  0  0  0  0
 17  8  1  0  0  0  0
 18  9  1  0  0  0  0
 20 10  1  0  0  0  0
 21 11  1  0  0  0  0
 24 25  1  6  0  0  0
 24 28  1  0  0  0  0
 25 29  1  0  0  0  0
 25 26  1  0  0  0  0
 26 27  1  0  0  0  0
 26 31  1  0  0  0  0
 27 33  1  0  0  0  0
 27 34  1  0  0  0  0
 28 35  1  6  0  0  0
 28 36  1  0  0  0  0
 28 27  1  0  0  0  0
 30 25  1  0  0  0  0
 32 26  1  0  0  0  0
 36 46  1  0  0  0  0
 37 36  2  0  0  0  0
 37 39  1  0  0  0  0
 38 37  1  0  0  0  0
 39 40  2  0  0  0  0
 40 41  1  0  0  0  0
 41 42  1  0  0  0  0
 42 43  2  0  0  0  0
 44 43  1  0  0  0  0
 45 44  2  0  0  0  0
 46 45  1  0  0  0  0
 46 41  2  0  0  0  0
M  END
>  <minimizedAffinity>
-6.48072195

$$$$

 OpenBabel03272505533D

 46 50  0  0  1  0  0  0  0  0999 V2000
   40.1500   26.5700   35.0890 C   0  0  0  0  0  0  0  0  0  0  0  0
   41.4250   26.6870   34.5050 C   0  0  0  0  0  0  0  0  0  0  0  0
   41.5890   26.1450   33.2310 C   0  0  0  0  0  0  0  0  0  0  0  0
   40.5220   25.5430   32.6410 N   0  0  0  0  0  0  0  0  0  0  0  0
   39.3340   25.4550   33.2290 C   0  0  0  0  0  0  0  0  0  0  0  0
   39.1420   25.9680   34.4580 N   0  0  0  0  0  0  0  0  0  0  0  0
   38.2560   24.8200   32.5600 N   0  0  0  0  0  0  0  0  0  0  0  0
   36.8790   25.2020   32.8100 C   0  0  0  0  0  0  0  0  0  0  0  0
   36.1820   25.5120   31.5290 C   0  0  0  0  0  0  0  0  0  0  0  0
   36.8190   25.1280   30.3710 N   0  0  0  0  0  0  0  0  0  0  0  0
   37.7850   24.0600   30.3580 C   0  0  0  0  0  0  0  0  0  0  0  0
   38.4830   23.7680   31.5940 C   0  0  2  0  0  0  0  0  0  0  0  0
   40.0100   26.9910   36.0840 H   0  0  0  0  0  0  0  0  0  0  0  0
   42.2630   27.1630   34.9750 H   0  0  0  0  0  0  0  0  0  0  0  0
   42.5130   26.1680   32.6770 H   0  0  0  0  0  0  0  0  0  0  0  0
   36.3510   24.6160   33.5480 H   0  0  0  0  0  0  0  0  0  0  0  0
   36.9720   26.2200   33.3310 H   0  0  0  0  0  0  0  0  0  0  0  0
   35.8560   26.5680   31.4330 H   0  0  0  0  0  0  0  0  0  0  0  0
   35.2010   24.9520   31.5920 H   0  0  0  0  0  0  0  0  0  0  0  0
   36.7690   25.7000   29.5210 H   0  0  0  0  0  0  0  0  0  0  0  0
   38.5760   24.4990   29.6570 H   0  0  0  0  0  0  0  0  0  0  0  0
   37.3540   23.2980   29.7330 H   0  0  0  0  0  0  0  0  0  0  0  0
   39.6040   23.6880   31.4530 H   0  0  0  0  0  0  0  0  0  0  0  0
   38.1050   22.5190   32.2490 N   0  0  2  0  0  0  0  0  0  0  0  0
   36.8690   21.9830   31.6730 C   0  0  0  0  0  0  0  0  0  0  0  0
   36.0420   21.4250   32.8170 C   0  0  0  0  0  0  0  0  0  0  0  0
   36.9920   21.4650   33.9520 C   0  0  0  0  0  0  0  0  0  0  0  0
   37.8420   22.7190   33.6480 C   0  0  1  0  0  0  0  0  0  0  0  0
   37.1740   21.1120   31.0690 H   0  0  0  0  0  0  0  0  0  0  0  0
   36.3310   22.7090   31.0540 H   0  0  0  0  0  0  0  0  0  0  0  0
   35.6170   20.4380   32.5800 H   0  0  0  0  0  0  0  0  0  0  0  0
   35.2500   22.2010   33.0190 H   0  0  0  0  0  0  0  0  0  0  0  0
   36.4610   21.6030   34.9140 H   0  0  0  0  0  0  0  0  0  0  0  0
   37.6160   20.5520   33.9440 H   0  0  0  0  0  0  0  0  0  0  0  0
   37.0990   23.4880   33.8490 H   0  0  0  0  0  0  0  0  0  0  0  0
   38.9580   22.5290   34.5520 C   0  0  0  0  0  0  0  0  0  0  0  0
   40.1360   21.9940   34.0730 C   0  0  0  0  0  0  0  0  0  0  0  0
   40.2410   21.7190   33.0400 H   0  0  0  0  0  0  0  0  0  0  0  0
   41.2410   21.7580   34.8600 C   0  0  0  0  0  3  0  0  0  0  0  0
   41.2230   22.0540   36.2080 C   0  0  0  0  0  3  0  0  0  0  0  0
   40.0710   22.5900   36.7420 C   0  0  0  0  0  0  0  0  0  0  0  0
   40.0250   22.8880   38.0890 C   0  0  0  0  0  3  0  0  0  0  0  0
   38.8780   23.4210   38.6640 C   0  0  0  0  0  3  0  0  0  0  0  0
   37.7750   23.6460   37.8310 C   0  0  0  0  0  3  0  0  0  0  0  0
   37.8810   23.3320   36.5060 C   0  0  0  0  0  3  0  0  0  0  0  0
   38.9990   22.8030   35.9010 C   0  0  0  0  0  0  0  0  0  0  0  0
  1 13  1  0  0  0  0
  2 14  1  0  0  0  0
  2  1  1  0  0  0  0
  3  2  2  0  0  0  0
  4  5  2  0  0  0  0
  4  3  1  0  0  0  0
  5  6  1  0  0  0  0
  6  1  2  0  0  0  0
  7  8  1  0  0  0  0
  7  5  1  0  0  0  0
  8 17  1  0  0  0  0
  8 16  1  0  0  0  0
  9 19  1  0  0  0  0
  9  8  1  0  0  0  0
 10  9  1  0  0  0  0
 11 10  1  0  0  0  0
 11 12  1  0  0  0  0
 12 23  1  6  0  0  0
 12 24  1  0  0  0  0
 12  7  1  0  0  0  0
 15  3  1  0  0  0  0
 18  9  1  0  0  0  0
 20 10  1  0  0  0  0
 21 11  1  0  0  0  0
 22 11  1  0  0  0  0
 24 25  1  6  0  0  0
 24 28  1  0  0  0  0
 25 26  1  0  0  0  0
 26 32  1  0  0  0  0
 26 27  1  0  0  0  0
 27 33  1  0  0  0  0
 28 35  1  1  0  0  0
 28 27  1  0  0  0  0
 28 36  1  0  0  0  0
 29 25  1  0  0  0  0
 30 25  1  0  0  0  0
 31 26  1  0  0  0  0
 34 27  1  0  0  0  0
 36 46  1  0  0  0  0
 37 36  2  0  0  0  0
 37 39  1  0  0  0  0
 38 37  1  0  0  0  0
 39 40  2  0  0  0  0
 40 41  1  0  0  0  0
 41 42  1  0  0  0  0
 42 43  2  0  0  0  0
 44 43  1  0  0  0  0
 45 44  2  0  0  0  0
 46 45  1  0  0  0  0
 46 41  2  0  0  0  0
M  END
>  <minimizedAffinity>
-6.4214015

$$$$

 OpenBabel03272505533D

 46 50  0  0  1  0  0  0  0  0999 V2000
   43.0410   25.3780   34.1920 C   0  0  0  0  0  0  0  0  0  0  0  0
   42.7250   26.7170   33.8950 C   0  0  0  0  0  0  0  0  0  0  0  0
   41.4230   27.1340   34.1670 C   0  0  0  0  0  0  0  0  0  0  0  0
   40.5500   26.2330   34.6930 N   0  0  0  0  0  0  0  0  0  0  0  0
   40.8920   24.9770   34.9590 C   0  0  0  0  0  0  0  0  0  0  0  0
   42.1410   24.5430   34.7090 N   0  0  0  0  0  0  0  0  0  0  0  0
   39.9390   24.0850   35.5140 N   0  0  0  0  0  0  0  0  0  0  0  0
   40.3410   22.9810   36.3660 C   0  0  0  0  0  0  0  0  0  0  0  0
   39.5800   23.0090   37.6490 C   0  0  0  0  0  0  0  0  0  0  0  0
   38.4840   23.8400   37.6990 N   0  0  0  0  0  0  0  0  0  0  0  0
   37.7850   24.2410   36.5060 C   0  0  0  0  0  0  0  0  0  0  0  0
   38.5240   24.2400   35.2590 C   0  0  2  0  0  0  0  0  0  0  0  0
   44.0560   25.0410   33.9850 H   0  0  0  0  0  0  0  0  0  0  0  0
   43.4170   27.4230   33.4800 H   0  0  0  0  0  0  0  0  0  0  0  0
   41.0550   28.1300   33.9850 H   0  0  0  0  0  0  0  0  0  0  0  0
   40.4770   22.0300   35.8760 H   0  0  0  0  0  0  0  0  0  0  0  0
   41.4130   23.2530   36.6710 H   0  0  0  0  0  0  0  0  0  0  0  0
   40.2100   23.1810   38.5460 H   0  0  0  0  0  0  0  0  0  0  0  0
   39.2220   21.9460   37.7940 H   0  0  0  0  0  0  0  0  0  0  0  0
   38.2380   24.3450   38.5570 H   0  0  0  0  0  0  0  0  0  0  0  0
   37.5840   25.3440   36.7410 H   0  0  0  0  0  0  0  0  0  0  0  0
   36.7980   23.8250   36.6040 H   0  0  0  0  0  0  0  0  0  0  0  0
   38.3980   25.2030   34.6770 H   0  0  0  0  0  0  0  0  0  0  0  0
   38.1580   23.1880   34.3140 N   0  0  2  0  0  0  0  0  0  0  0  0
   38.9900   21.9990   34.5110 C   0  0  0  0  0  0  0  0  0  0  0  0
   39.3210   21.4460   33.1370 C   0  0  0  0  0  0  0  0  0  0  0  0
   38.4350   22.2330   32.2500 C   0  0  0  0  0  0  0  0  0  0  0  0
   38.3700   23.6060   32.9550 C   0  0  1  0  0  0  0  0  0  0  0  0
   38.3350   21.2500   34.9870 H   0  0  0  0  0  0  0  0  0  0  0  0
   39.8720   22.1880   35.1340 H   0  0  0  0  0  0  0  0  0  0  0  0
   39.2010   20.3520   33.0890 H   0  0  0  0  0  0  0  0  0  0  0  0
   40.3780   21.7760   32.9290 H   0  0  0  0  0  0  0  0  0  0  0  0
   38.8810   22.3550   31.2440 H   0  0  0  0  0  0  0  0  0  0  0  0
   37.4360   21.7610   32.2110 H   0  0  0  0  0  0  0  0  0  0  0  0
   39.3820   23.9530   32.7560 H   0  0  0  0  0  0  0  0  0  0  0  0
   37.2430   24.2170   32.2810 C   0  0  0  0  0  0  0  0  0  0  0  0
   36.2050   23.4250   31.8390 C   0  0  0  0  0  0  0  0  0  0  0  0
   36.2160   22.3610   31.9880 H   0  0  0  0  0  0  0  0  0  0  0  0
   35.1040   23.9130   31.1700 C   0  0  0  0  0  3  0  0  0  0  0  0
   34.9840   25.2610   30.9020 C   0  0  0  0  0  3  0  0  0  0  0  0
   35.9920   26.1020   31.3200 C   0  0  0  0  0  0  0  0  0  0  0  0
   35.8990   27.4540   31.0580 C   0  0  0  0  0  3  0  0  0  0  0  0
   36.9000   28.3300   31.4560 C   0  0  0  0  0  3  0  0  0  0  0  0
   38.0030   27.7950   32.1330 C   0  0  0  0  0  3  0  0  0  0  0  0
   38.0390   26.4490   32.3640 C   0  0  0  0  0  3  0  0  0  0  0  0
   37.0680   25.5510   31.9850 C   0  0  0  0  0  0  0  0  0  0  0  0
  1  6  1  0  0  0  0
  2  3  1  0  0  0  0
  2  1  2  0  0  0  0
  3  4  2  0  0  0  0
  4  5  1  0  0  0  0
  5  7  1  0  0  0  0
  6  5  2  0  0  0  0
  7  8  1  0  0  0  0
  8 17  1  0  0  0  0
  8  9  1  0  0  0  0
  9 10  1  0  0  0  0
  9 19  1  0  0  0  0
  9 18  1  0  0  0  0
 10 20  1  0  0  0  0
 11 22  1  0  0  0  0
 11 21  1  0  0  0  0
 11 10  1  0  0  0  0
 12 23  1  6  0  0  0
 12  7  1  0  0  0  0
 12 11  1  0  0  0  0
 13  1  1  0  0  0  0
 14  2  1  0  0  0  0
 15  3  1  0  0  0  0
 16  8  1  0  0  0  0
 24 25  1  1  0  0  0
 24 12  1  0  0  0  0
 25 29  1  0  0  0  0
 25 30  1  0  0  0  0
 26 25  1  0  0  0  0
 27 28  1  0  0  0  0
 27 26  1  0  0  0  0
 28 35  1  6  0  0  0
 28 24  1  0  0  0  0
 31 26  1  0  0  0  0
 32 26  1  0  0  0  0
 33 27  1  0  0  0  0
 34 27  1  0  0  0  0
 36 28  1  0  0  0  0
 37 38  1  0  0  0  0
 37 36  2  0  0  0  0
 39 37  1  0  0  0  0
 40 39  2  0  0  0  0
 40 41  1  0  0  0  0
 41 46  1  0  0  0  0
 42 41  2  0  0  0  0
 42 43  1  0  0  0  0
 43 44  2  0  0  0  0
 44 45  1  0  0  0  0
 46 36  1  0  0  0  0
 46 45  2  0  0  0  0
M  END
>  <minimizedAffinity>
-6.30960083

$$$$

 OpenBabel03272505533D

 46 50  0  0  1  0  0  0  0  0999 V2000
   38.9550   28.8450   29.3650 C   0  0  0  0  0  0  0  0  0  0  0  0
   37.6920   29.4370   29.1810 C   0  0  0  0  0  0  0  0  0  0  0  0
   36.7140   29.1470   30.1310 C   0  0  0  0  0  0  0  0  0  0  0  0
   37.0370   28.3200   31.1610 N   0  0  0  0  0  0  0  0  0  0  0  0
   38.2440   27.7830   31.2960 C   0  0  0  0  0  0  0  0  0  0  0  0
   39.2100   28.0420   30.3970 N   0  0  0  0  0  0  0  0  0  0  0  0
   38.5230   26.9310   32.3970 N   0  0  0  0  0  0  0  0  0  0  0  0
   39.8600   26.8200   32.9480 C   0  0  0  0  0  0  0  0  0  0  0  0
   39.8390   27.0580   34.4200 C   0  0  0  0  0  0  0  0  0  0  0  0
   38.6050   27.0510   35.0290 N   0  0  0  0  0  0  0  0  0  0  0  0
   37.4820   26.3560   34.4550 C   0  0  0  0  0  0  0  0  0  0  0  0
   37.4840   26.1430   33.0220 C   0  0  2  0  0  0  0  0  0  0  0  0
   39.7280   29.0650   28.6280 H   0  0  0  0  0  0  0  0  0  0  0  0
   37.4430   30.0880   28.3660 H   0  0  0  0  0  0  0  0  0  0  0  0
   35.7090   29.5350   30.1040 H   0  0  0  0  0  0  0  0  0  0  0  0
   40.4610   26.0050   32.5720 H   0  0  0  0  0  0  0  0  0  0  0  0
   40.4030   27.7370   32.5250 H   0  0  0  0  0  0  0  0  0  0  0  0
   40.4010   27.9580   34.7430 H   0  0  0  0  0  0  0  0  0  0  0  0
   40.4510   26.2120   34.8570 H   0  0  0  0  0  0  0  0  0  0  0  0
   38.3930   27.6840   35.8080 H   0  0  0  0  0  0  0  0  0  0  0  0
   36.6450   27.1130   34.6500 H   0  0  0  0  0  0  0  0  0  0  0  0
   37.2350   25.5860   35.1640 H   0  0  0  0  0  0  0  0  0  0  0  0
   36.5070   26.4420   32.5350 H   0  0  0  0  0  0  0  0  0  0  0  0
   37.7010   24.7630   32.5930 N   0  0  2  0  0  0  0  0  0  0  0  0
   36.7070   24.3650   31.5950 C   0  0  0  0  0  0  0  0  0  0  0  0
   36.3080   22.9330   31.8990 C   0  0  0  0  0  0  0  0  0  0  0  0
   37.3020   22.5310   32.9190 C   0  0  0  0  0  0  0  0  0  0  0  0
   37.5590   23.8450   33.6900 C   0  0  1  0  0  0  0  0  0  0  0  0
   37.2450   24.3300   30.6330 H   0  0  0  0  0  0  0  0  0  0  0  0
   35.8570   25.0550   31.5330 H   0  0  0  0  0  0  0  0  0  0  0  0
   36.2700   22.3100   30.9920 H   0  0  0  0  0  0  0  0  0  0  0  0
   35.3100   23.0040   32.4180 H   0  0  0  0  0  0  0  0  0  0  0  0
   36.8840   21.7730   33.6100 H   0  0  0  0  0  0  0  0  0  0  0  0
   38.2240   22.1790   32.4190 H   0  0  0  0  0  0  0  0  0  0  0  0
   36.6080   23.9300   34.2130 H   0  0  0  0  0  0  0  0  0  0  0  0
   38.7650   23.5130   34.4200 C   0  0  0  0  0  0  0  0  0  0  0  0
   39.9290   23.2550   33.7270 C   0  0  0  0  0  0  0  0  0  0  0  0
   39.9570   23.2980   32.6540 H   0  0  0  0  0  0  0  0  0  0  0  0
   41.1170   22.9110   34.3330 C   0  0  0  0  0  3  0  0  0  0  0  0
   41.2030   22.8070   35.7060 C   0  0  0  0  0  3  0  0  0  0  0  0
   40.0700   23.0530   36.4510 C   0  0  0  0  0  0  0  0  0  0  0  0
   40.1280   22.9470   37.8260 C   0  0  0  0  0  3  0  0  0  0  0  0
   39.0050   23.1800   38.6090 C   0  0  0  0  0  3  0  0  0  0  0  0
   37.8160   23.5260   37.9550 C   0  0  0  0  0  3  0  0  0  0  0  0
   37.8200   23.6160   36.5920 C   0  0  0  0  0  3  0  0  0  0  0  0
   38.9120   23.3930   35.7840 C   0  0  0  0  0  0  0  0  0  0  0  0
  1  6  1  0  0  0  0
  2  1  2  0  0  0  0
  2  3  1  0  0  0  0
  3  4  2  0  0  0  0
  4  5  1  0  0  0  0
  5  7  1  0  0  0  0
  6  5  2  0  0  0  0
  7  8  1  0  0  0  0
  7 12  1  0  0  0  0
  8  9  1  0  0  0  0
  9 18  1  0  0  0  0
  9 19  1  0  0  0  0
  9 10  1  0  0  0  0
 10 20  1  0  0  0  0
 11 21  1  0  0  0  0
 11 10  1  0  0  0  0
 11 22  1  0  0  0  0
 12 23  1  6  0  0  0
 12 11  1  0  0  0  0
 13  1  1  0  0  0  0
 14  2  1  0  0  0  0
 15  3  1  0  0  0  0
 16  8  1  0  0  0  0
 17  8  1  0  0  0  0
 24 25  1  6  0  0  0
 24 12  1  0  0  0  0
 24 28  1  0  0  0  0
 25 26  1  0  0  0  0
 26 32  1  0  0  0  0
 26 27  1  0  0  0  0
 27 33  1  0  0  0  0
 27 28  1  0  0  0  0
 28 35  1  1  0  0  0
 28 36  1  0  0  0  0
 29 25  1  0  0  0  0
 30 25  1  0  0  0  0
 31 26  1  0  0  0  0
 34 27  1  0  0  0  0
 36 46  1  0  0  0  0
 37 39  1  0  0  0  0
 37 36  2  0  0  0  0
 38 37  1  0  0  0  0
 39 40  2  0  0  0  0
 40 41  1  0  0  0  0
 41 42  1  0  0  0  0
 42 43  2  0  0  0  0
 44 43  1  0  0  0  0
 45 44  2  0  0  0  0
 46 41  2  0  0  0  0
 46 45  1  0  0  0  0
M  END
>  <minimizedAffinity>
-6.29050779

$$$$

 OpenBabel03272505533D

 46 50  0  0  1  0  0  0  0  0999 V2000
   40.0210   21.3170   31.8690 C   0  0  0  0  0  0  0  0  0  0  0  0
   39.0200   20.4850   32.4050 C   0  0  0  0  0  0  0  0  0  0  0  0
   37.8370   21.1010   32.8110 C   0  0  0  0  0  0  0  0  0  0  0  0
   37.7260   22.4490   32.6670 N   0  0  0  0  0  0  0  0  0  0  0  0
   38.6970   23.1960   32.1560 C   0  0  0  0  0  0  0  0  0  0  0  0
   39.8510   22.6330   31.7540 N   0  0  0  0  0  0  0  0  0  0  0  0
   38.5200   24.5980   32.0260 N   0  0  0  0  0  0  0  0  0  0  0  0
   39.1920   25.3530   30.9840 C   0  0  0  0  0  0  0  0  0  0  0  0
   38.2080   26.1640   30.2110 C   0  0  0  0  0  0  0  0  0  0  0  0
   36.9500   26.2930   30.7550 N   0  0  0  0  0  0  0  0  0  0  0  0
   36.7190   26.1420   32.1690 C   0  0  0  0  0  0  0  0  0  0  0  0
   37.6580   25.3350   32.9220 C   0  0  2  0  0  0  0  0  0  0  0  0
   40.9490   20.8460   31.5480 H   0  0  0  0  0  0  0  0  0  0  0  0
   39.1130   19.4220   32.5150 H   0  0  0  0  0  0  0  0  0  0  0  0
   36.9970   20.5780   33.2360 H   0  0  0  0  0  0  0  0  0  0  0  0
   40.1260   25.8160   31.2620 H   0  0  0  0  0  0  0  0  0  0  0  0
   39.5310   24.5460   30.2430 H   0  0  0  0  0  0  0  0  0  0  0  0
   38.1160   25.8720   29.1450 H   0  0  0  0  0  0  0  0  0  0  0  0
   38.6700   27.1950   30.1480 H   0  0  0  0  0  0  0  0  0  0  0  0
   36.1130   26.3170   30.1620 H   0  0  0  0  0  0  0  0  0  0  0  0
   35.7420   25.5450   32.1590 H   0  0  0  0  0  0  0  0  0  0  0  0
   36.3720   27.1040   32.5010 H   0  0  0  0  0  0  0  0  0  0  0  0
   37.1440   24.5740   33.5840 H   0  0  0  0  0  0  0  0  0  0  0  0
   38.5370   26.0740   33.8240 N   0  0  2  0  0  0  0  0  0  0  0  0
   39.1380   27.2220   33.1410 C   0  0  0  0  0  0  0  0  0  0  0  0
   40.5800   27.3200   33.6050 C   0  0  0  0  0  0  0  0  0  0  0  0
   40.6260   26.3520   34.7240 C   0  0  0  0  0  0  0  0  0  0  0  0
   39.6310   25.2580   34.2760 C   0  0  1  0  0  0  0  0  0  0  0  0
   38.6300   28.1120   33.5470 H   0  0  0  0  0  0  0  0  0  0  0  0
   39.0280   27.1820   32.0510 H   0  0  0  0  0  0  0  0  0  0  0  0
   40.8670   28.3540   33.8510 H   0  0  0  0  0  0  0  0  0  0  0  0
   41.1940   26.8870   32.7660 H   0  0  0  0  0  0  0  0  0  0  0  0
   41.6360   25.9110   34.8310 H   0  0  0  0  0  0  0  0  0  0  0  0
   40.2820   26.8430   35.6530 H   0  0  0  0  0  0  0  0  0  0  0  0
   40.2100   24.8140   33.4690 H   0  0  0  0  0  0  0  0  0  0  0  0
   39.4320   24.5340   35.5150 C   0  0  0  0  0  0  0  0  0  0  0  0
   38.3840   24.8780   36.3420 C   0  0  0  0  0  0  0  0  0  0  0  0
   37.7100   25.6740   36.0830 H   0  0  0  0  0  0  0  0  0  0  0  0
   38.1290   24.2620   37.5470 C   0  0  0  0  0  3  0  0  0  0  0  0
   38.9350   23.2370   37.9980 C   0  0  0  0  0  3  0  0  0  0  0  0
   39.9990   22.8500   37.2130 C   0  0  0  0  0  0  0  0  0  0  0  0
   40.8250   21.8320   37.6450 C   0  0  0  0  0  3  0  0  0  0  0  0
   41.9110   21.4210   36.8840 C   0  0  0  0  0  3  0  0  0  0  0  0
   42.1380   22.0730   35.6660 C   0  0  0  0  0  3  0  0  0  0  0  0
   41.2860   23.0730   35.2900 C   0  0  0  0  0  3  0  0  0  0  0  0
   40.2000   23.5070   36.0170 C   0  0  0  0  0  0  0  0  0  0  0  0
  1  2  1  0  0  0  0
  2 14  1  0  0  0  0
  2  3  2  0  0  0  0
  3 15  1  0  0  0  0
  4  3  1  0  0  0  0
  5  4  2  0  0  0  0
  6  1  2  0  0  0  0
  6  5  1  0  0  0  0
  7  5  1  0  0  0  0
  7 12  1  0  0  0  0
  8 16  1  0  0  0  0
  8  7  1  0  0  0  0
  9 10  1  0  0  0  0
  9  8  1  0  0  0  0
 10 11  1  0  0  0  0
 11 22  1  0  0  0  0
 11 12  1  0  0  0  0
 12 23  1  1  0  0  0
 12 24  1  0  0  0  0
 13  1  1  0  0  0  0
 17  8  1  0  0  0  0
 18  9  1  0  0  0  0
 19  9  1  0  0  0  0
 20 10  1  0  0  0  0
 21 11  1  0  0  0  0
 24 25  1  6  0  0  0
 24 28  1  0  0  0  0
 25 29  1  0  0  0  0
 25 26  1  0  0  0  0
 26 31  1  0  0  0  0
 26 27  1  0  0  0  0
 27 33  1  0  0  0  0
 27 34  1  0  0  0  0
 28 35  1  6  0  0  0
 28 27  1  0  0  0  0
 28 36  1  0  0  0  0
 30 25  1  0  0  0  0
 32 26  1  0  0  0  0
 36 46  2  0  0  0  0
 36 37  1  0  0  0  0
 37 39  2  0  0  0  0
 38 37  1  0  0  0  0
 39 40  1  0  0  0  0
 41 42  1  0  0  0  0
 41 40  2  0  0  0  0
 43 42  2  0  0  0  0
 44 43  1  0  0  0  0
 45 44  2  0  0  0  0
 45 46  1  0  0  0  0
 46 41  1  0  0  0  0
M  END
>  <minimizedAffinity>
-6.26967907

$$$$

 OpenBabel03272505533D

 46 50  0  0  1  0  0  0  0  0999 V2000
   37.0570   26.7810   34.6600 C   0  0  0  0  0  0  0  0  0  0  0  0
   37.9490   27.4150   35.5450 C   0  0  0  0  0  0  0  0  0  0  0  0
   39.3110   27.2600   35.2900 C   0  0  0  0  0  0  0  0  0  0  0  0
   39.6880   26.5150   34.2160 N   0  0  0  0  0  0  0  0  0  0  0  0
   38.8100   25.9340   33.4050 C   0  0  0  0  0  0  0  0  0  0  0  0
   37.4890   26.0640   33.6240 N   0  0  0  0  0  0  0  0  0  0  0  0
   39.2650   25.1730   32.2970 N   0  0  0  0  0  0  0  0  0  0  0  0
   38.4710   25.0460   31.0890 C   0  0  0  0  0  0  0  0  0  0  0  0
   39.2800   25.4170   29.8920 C   0  0  0  0  0  0  0  0  0  0  0  0
   40.6400   25.5260   30.0750 N   0  0  0  0  0  0  0  0  0  0  0  0
   41.3160   24.8380   31.1440 C   0  0  0  0  0  0  0  0  0  0  0  0
   40.5420   24.4950   32.3200 C   0  0  2  0  0  0  0  0  0  0  0  0
   35.9910   26.8960   34.8500 H   0  0  0  0  0  0  0  0  0  0  0  0
   37.6460   28.0010   36.3910 H   0  0  0  0  0  0  0  0  0  0  0  0
   40.0930   27.6920   35.8910 H   0  0  0  0  0  0  0  0  0  0  0  0
   37.8400   24.1730   31.0260 H   0  0  0  0  0  0  0  0  0  0  0  0
   37.7040   25.8950   31.1800 H   0  0  0  0  0  0  0  0  0  0  0  0
   38.9110   26.3150   29.3540 H   0  0  0  0  0  0  0  0  0  0  0  0
   39.0910   24.5860   29.1480 H   0  0  0  0  0  0  0  0  0  0  0  0
   41.1890   26.2360   29.5780 H   0  0  0  0  0  0  0  0  0  0  0  0
   42.0490   25.6480   31.4860 H   0  0  0  0  0  0  0  0  0  0  0  0
   41.9820   24.1470   30.6570 H   0  0  0  0  0  0  0  0  0  0  0  0
   41.0560   24.7970   33.2830 H   0  0  0  0  0  0  0  0  0  0  0  0
   40.2510   23.0740   32.4880 N   0  0  2  0  0  0  0  0  0  0  0  0
   39.6150   22.5270   31.2870 C   0  0  0  0  0  0  0  0  0  0  0  0
   38.5350   21.5660   31.7460 C   0  0  0  0  0  0  0  0  0  0  0  0
   38.8020   21.4470   33.1970 C   0  0  0  0  0  0  0  0  0  0  0  0
   39.3280   22.8510   33.5680 C   0  0  1  0  0  0  0  0  0  0  0  0
   40.3830   21.9060   30.7980 H   0  0  0  0  0  0  0  0  0  0  0  0
   39.2530   23.3010   30.6000 H   0  0  0  0  0  0  0  0  0  0  0  0
   38.5470   20.6240   31.1750 H   0  0  0  0  0  0  0  0  0  0  0  0
   37.5650   22.1290   31.6310 H   0  0  0  0  0  0  0  0  0  0  0  0
   37.8710   21.2400   33.7600 H   0  0  0  0  0  0  0  0  0  0  0  0
   39.5760   20.6760   33.3690 H   0  0  0  0  0  0  0  0  0  0  0  0
   38.4020   23.4150   33.4770 H   0  0  0  0  0  0  0  0  0  0  0  0
   39.9050   22.6010   34.8730 C   0  0  0  0  0  0  0  0  0  0  0  0
   41.0880   21.9000   34.9700 C   0  0  0  0  0  0  0  0  0  0  0  0
   41.5910   21.5370   34.0930 H   0  0  0  0  0  0  0  0  0  0  0  0
   41.6990   21.5960   36.1660 C   0  0  0  0  0  3  0  0  0  0  0  0
   41.1390   21.9920   37.3630 C   0  0  0  0  0  3  0  0  0  0  0  0
   39.9550   22.6970   37.3280 C   0  0  0  0  0  0  0  0  0  0  0  0
   39.3700   23.0970   38.5130 C   0  0  0  0  0  3  0  0  0  0  0  0
   38.1730   23.8010   38.5160 C   0  0  0  0  0  3  0  0  0  0  0  0
   37.5830   24.0900   37.2800 C   0  0  0  0  0  3  0  0  0  0  0  0
   38.2090   23.6680   36.1420 C   0  0  0  0  0  3  0  0  0  0  0  0
   39.3940   22.9680   36.0980 C   0  0  0  0  0  0  0  0  0  0  0  0
  1 13  1  0  0  0  0
  1  2  1  0  0  0  0
  2 14  1  0  0  0  0
  3  2  2  0  0  0  0
  3 15  1  0  0  0  0
  4  3  1  0  0  0  0
  5  6  1  0  0  0  0
  5  4  2  0  0  0  0
  6  1  2  0  0  0  0
  7 12  1  0  0  0  0
  7  5  1  0  0  0  0
  8 17  1  0  0  0  0
  8  7  1  0  0  0  0
  9 10  1  0  0  0  0
  9  8  1  0  0  0  0
 10 11  1  0  0  0  0
 11 21  1  0  0  0  0
 11 12  1  0  0  0  0
 12 24  1  0  0  0  0
 12 23  1  1  0  0  0
 16  8  1  0  0  0  0
 18  9  1  0  0  0  0
 19  9  1  0  0  0  0
 20 10  1  0  0  0  0
 22 11  1  0  0  0  0
 24 25  1  6  0  0  0
 24 28  1  0  0  0  0
 25 26  1  0  0  0  0
 26 27  1  0  0  0  0
 27 34  1  0  0  0  0
 27 28  1  0  0  0  0
 27 33  1  0  0  0  0
 28 35  1  1  0  0  0
 28 36  1  0  0  0  0
 29 25  1  0  0  0  0
 30 25  1  0  0  0  0
 31 26  1  0  0  0  0
 32 26  1  0  0  0  0
 36 37  2  0  0  0  0
 36 46  1  0  0  0  0
 37 39  1  0  0  0  0
 38 37  1  0  0  0  0
 39 40  2  0  0  0  0
 41 40  1  0  0  0  0
 41 42  1  0  0  0  0
 42 43  2  0  0  0  0
 44 43  1  0  0  0  0
 45 44  2  0  0  0  0
 46 45  1  0  0  0  0
 46 41  2  0  0  0  0
M  END
>  <minimizedAffinity>
-6.23175907

$$$$
