
 OpenBabel03272500513D

 47 53  0  0  1  0  0  0  0  0999 V2000
   32.3830   27.9130   48.0950 C   0  0  0  0  0  0  0  0  0  0  0  0
   33.2320   26.8380   47.9000 C   0  0  0  0  0  0  0  0  0  0  0  0
   34.4630   27.1930   48.3520 N   0  0  0  0  0  0  0  0  0  0  0  0
   34.4020   28.4690   48.8250 C   0  0  0  0  0  0  0  0  0  0  0  0
   33.1320   28.8940   48.6620 N   0  0  0  0  0  0  0  0  0  0  0  0
   33.0160   25.8790   47.4770 H   0  0  0  0  0  0  0  0  0  0  0  0
   35.3580   26.6510   48.3740 H   0  0  0  0  0  0  0  0  0  0  0  0
   29.9070   27.9050   48.7600 C   0  0  1  0  0  0  0  0  0  0  0  0
   30.1260   26.6920   47.7820 C   0  0  0  0  0  0  0  0  0  0  0  0
   30.9330   27.9540   47.7210 C   0  0  2  0  0  0  0  0  0  0  0  0
   30.2210   27.6940   49.8090 H   0  0  0  0  0  0  0  0  0  0  0  0
   30.6370   25.8190   48.2090 H   0  0  0  0  0  0  0  0  0  0  0  0
   29.3240   26.5860   47.0290 H   0  0  0  0  0  0  0  0  0  0  0  0
   30.7330   28.6310   46.8440 H   0  0  0  0  0  0  0  0  0  0  0  0
   27.2320   30.1480   47.8920 C   0  0  0  0  0  0  0  0  0  0  0  0
   26.5970   29.3520   48.8210 C   0  0  0  0  0  0  0  0  0  0  0  0
   27.5250   28.3930   49.2750 C   0  0  0  0  0  0  0  0  0  0  0  0
   28.6680   28.6380   48.6190 N   0  0  0  0  0  0  0  0  0  0  0  0
   28.4530   29.6600   47.8310 N   0  0  0  0  0  0  0  0  0  0  0  0
   25.5840   29.3520   49.2170 H   0  0  0  0  0  0  0  0  0  0  0  0
   27.3470   27.6170   50.0080 H   0  0  0  0  0  0  0  0  0  0  0  0
   25.7290   32.1670   47.8860 C   0  0  0  0  0  0  0  0  0  0  0  0
   26.5950   31.2440   47.2060 C   0  0  0  0  0  0  0  0  0  0  0  0
   26.7950   31.4470   45.8660 C   0  0  0  0  0  0  0  0  0  0  0  0
   26.1700   32.4990   45.2600 N   0  0  0  0  0  0  0  0  0  0  0  0
   25.3670   33.3370   45.9380 C   0  0  0  0  0  0  0  0  0  0  0  0
   25.1340   33.1840   47.2640 N   0  0  0  0  0  0  0  0  0  0  0  0
   25.5850   31.9860   48.9480 H   0  0  0  0  0  0  0  0  0  0  0  0
   27.4330   30.7950   45.2840 H   0  0  0  0  0  0  0  0  0  0  0  0
   24.9230   34.1370   45.3590 H   0  0  0  0  0  0  0  0  0  0  0  0
   35.5160   29.2690   49.4130 C   0  0  0  0  0  0  0  0  0  0  0  0
   35.9040   29.1170   50.7450 C   0  0  0  0  0  0  0  0  0  0  0  0
   37.2730   30.3330   50.8790 S   0  0  0  0  0  0  0  0  0  0  0  0
   37.0700   30.8370   49.0760 C   0  0  0  0  0  0  0  0  0  0  0  0
   36.2270   30.1660   48.7910 N   0  0  0  0  0  0  0  0  0  0  0  0
   35.4860   28.4450   51.4870 H   0  0  0  0  0  0  0  0  0  0  0  0
   38.0320   31.8950   48.6430 C   0  0  0  0  0  0  0  0  0  0  0  0
   38.3150   33.0120   49.3880 C   0  0  0  0  0  0  0  0  0  0  0  0
   37.8580   33.1890   50.3290 H   0  0  0  0  0  0  0  0  0  0  0  0
   39.2100   33.9760   48.9600 C   0  0  0  0  0  0  0  0  0  0  0  0
   39.8390   33.8060   47.7450 C   0  0  0  0  0  0  0  0  0  0  0  0
   39.5840   32.7130   46.9800 C   0  0  0  0  0  0  0  0  0  0  0  0
   40.2270   32.5710   45.7700 C   0  0  0  0  0  0  0  0  0  0  0  0
   39.9630   31.4450   44.9850 C   0  0  0  0  0  0  0  0  0  0  0  0
   39.0460   30.5130   45.4820 C   0  0  0  0  0  0  0  0  0  0  0  0
   38.4240   30.6840   46.6880 C   0  0  0  0  0  0  0  0  0  0  0  0
   38.6960   31.7990   47.4480 C   0  0  0  0  0  0  0  0  0  0  0  0
  1  5  1  0  0  0  0
  2  1  2  0  0  0  0
  2  3  1  0  0  0  0
  3  7  1  0  0  0  0
  3  4  1  0  0  0  0
  4 31  1  0  0  0  0
  5  4  2  0  0  0  0
  6  2  1  0  0  0  0
  8 11  1  1  0  0  0
  9 12  1  0  0  0  0
  9  8  1  0  0  0  0
 10 14  1  6  0  0  0
 10  9  1  0  0  0  0
 10  1  1  0  0  0  0
 10  8  1  0  0  0  0
 13  9  1  0  0  0  0
 15 16  1  0  0  0  0
 16 20  1  0  0  0  0
 16 17  2  0  0  0  0
 17 21  1  0  0  0  0
 18  8  1  0  0  0  0
 18 17  1  0  0  0  0
 19 15  2  0  0  0  0
 19 18  1  0  0  0  0
 22 28  1  0  0  0  0
 23 22  2  0  0  0  0
 23 15  1  0  0  0  0
 24 23  1  0  0  0  0
 25 24  2  0  0  0  0
 25 26  1  0  0  0  0
 26 27  2  0  0  0  0
 27 22  1  0  0  0  0
 29 24  1  0  0  0  0
 30 26  1  0  0  0  0
 31 32  2  0  0  0  0
 32 33  1  0  0  0  0
 32 36  1  0  0  0  0
 34 33  1  0  0  0  0
 35 34  2  0  0  0  0
 35 31  1  0  0  0  0
 37 34  1  0  0  0  0
 37 38  1  0  0  0  0
 38 39  1  0  0  0  0
 40 38  2  0  0  0  0
 41 40  1  0  0  0  0
 42 47  1  0  0  0  0
 42 41  2  0  0  0  0
 43 42  1  0  0  0  0
 44 45  1  0  0  0  0
 44 43  2  0  0  0  0
 45 46  2  0  0  0  0
 46 47  1  0  0  0  0
 47 37  2  0  0  0  0
M  END
>  <minimizedAffinity>
-8.70435333

>  <minimizedRMSD>
3.20955396

$$$$
