
 OpenBabel03272503343D

 43 47  0  0  1  0  0  0  0  0999 V2000
   35.2120   29.5610   47.2200 C   0  0  0  0  0  0  0  0  0  0  0  0
   35.4050   30.2220   46.0010 C   0  0  0  0  0  0  0  0  0  0  0  0
   34.4700   29.9670   44.9910 C   0  0  0  0  0  0  0  0  0  0  0  0
   33.4430   29.0940   45.2710 N   0  0  0  0  0  0  0  0  0  0  0  0
   33.3050   28.4900   46.4470 C   0  0  0  0  0  0  0  0  0  0  0  0
   34.1910   28.7210   47.4300 N   0  0  0  0  0  0  0  0  0  0  0  0
   36.2190   30.9060   45.8010 H   0  0  0  0  0  0  0  0  0  0  0  0
   34.5400   30.4290   44.0300 H   0  0  0  0  0  0  0  0  0  0  0  0
   36.1720   29.8210   48.2650 N   0  0  0  0  0  0  0  0  0  0  0  0
   37.4510   30.4490   48.1220 C   0  0  0  0  0  0  0  0  0  0  0  0
   37.6590   31.0880   49.4930 C   0  0  2  0  0  0  0  0  0  0  0  0
   36.3720   30.8450   50.2710 C   0  0  0  0  0  0  0  0  0  0  0  0
   36.0220   29.4900   49.6720 C   0  0  0  0  0  0  0  0  0  0  0  0
   38.2340   29.6810   47.9720 H   0  0  0  0  0  0  0  0  0  0  0  0
   37.4880   31.2390   47.3390 H   0  0  0  0  0  0  0  0  0  0  0  0
   38.4670   30.5440   50.0540 H   0  0  0  0  0  0  0  0  0  0  0  0
   35.6060   31.6010   50.0030 H   0  0  0  0  0  0  0  0  0  0  0  0
   36.5460   30.7840   51.3520 H   0  0  0  0  0  0  0  0  0  0  0  0
   36.8260   28.7870   50.0270 H   0  0  0  0  0  0  0  0  0  0  0  0
   35.0100   29.1490   49.9410 H   0  0  0  0  0  0  0  0  0  0  0  0
   37.9980   32.5430   49.4060 C   0  0  0  0  0  0  0  0  0  0  0  0
   36.9380   33.2300   49.9560 F   0  0  0  0  0  0  0  0  0  0  0  0
   38.0300   32.8640   48.0660 F   0  0  0  0  0  0  0  0  0  0  0  0
   39.1840   32.8610   50.0080 F   0  0  0  0  0  0  0  0  0  0  0  0
   31.9590   27.3770   46.7390 S   0  0  0  0  0  0  0  0  0  0  0  0
   30.8200   27.7840   47.9140 C   0  0  0  0  0  0  0  0  0  0  0  0
   30.5990   27.8010   49.2540 C   0  0  0  0  0  0  0  0  0  0  0  0
   29.4630   28.2330   49.8770 C   0  0  0  0  0  0  0  0  0  0  0  0
   28.4320   28.7120   48.9320 C   0  0  0  0  0  0  0  0  0  0  0  0
   29.2050   28.4840   47.3030 S   0  0  0  0  0  0  0  0  0  0  0  0
   31.4840   27.4110   49.7340 H   0  0  0  0  0  0  0  0  0  0  0  0
   29.3780   28.1700   50.9270 H   0  0  0  0  0  0  0  0  0  0  0  0
   27.1330   29.1600   49.0720 C   0  0  0  0  0  0  0  0  0  0  0  0
   26.3060   28.3310   49.8490 C   0  0  0  0  0  0  0  0  0  0  0  0
   26.6070   27.4050   50.3320 H   0  0  0  0  0  0  0  0  0  0  0  0
   24.9700   28.6120   50.0930 C   0  0  0  0  0  0  0  0  0  0  0  0
   24.4030   29.7450   49.5650 C   0  0  0  0  0  0  0  0  0  0  0  0
   25.1410   30.6100   48.7900 C   0  0  0  0  0  0  0  0  0  0  0  0
   24.5860   31.7340   48.2200 C   0  0  0  0  0  0  0  0  0  0  0  0
   25.3310   32.5700   47.4140 C   0  0  0  0  0  0  0  0  0  0  0  0
   26.6630   32.2050   47.2160 C   0  0  0  0  0  0  0  0  0  0  0  0
   27.1750   31.0830   47.8010 C   0  0  0  0  0  0  0  0  0  0  0  0
   26.4500   30.2450   48.6050 C   0  0  0  0  0  0  0  0  0  0  0  0
  1  6  1  0  0  0  0
  1  9  1  0  0  0  0
  2  1  2  0  0  0  0
  3  4  2  0  0  0  0
  3  2  1  0  0  0  0
  4  5  1  0  0  0  0
  5 25  1  0  0  0  0
  5  6  2  0  0  0  0
  7  2  1  0  0  0  0
  8  3  1  0  0  0  0
  9 13  1  0  0  0  0
 10  9  1  0  0  0  0
 10 11  1  0  0  0  0
 11 16  1  1  0  0  0
 11 12  1  0  0  0  0
 12 18  1  0  0  0  0
 13 20  1  0  0  0  0
 13 19  1  0  0  0  0
 13 12  1  0  0  0  0
 14 10  1  0  0  0  0
 15 10  1  0  0  0  0
 17 12  1  0  0  0  0
 21 11  1  0  0  0  0
 21 22  1  0  0  0  0
 21 24  1  0  0  0  0
 23 21  1  0  0  0  0
 25 26  1  0  0  0  0
 26 27  2  0  0  0  0
 27 31  1  0  0  0  0
 27 28  1  0  0  0  0
 28 32  1  0  0  0  0
 29 33  1  0  0  0  0
 29 28  2  0  0  0  0
 30 26  1  0  0  0  0
 30 29  1  0  0  0  0
 33 34  1  0  0  0  0
 34 36  2  0  0  0  0
 34 35  1  0  0  0  0
 37 36  1  0  0  0  0
 38 37  2  0  0  0  0
 39 38  1  0  0  0  0
 40 39  2  0  0  0  0
 41 40  1  0  0  0  0
 41 42  2  0  0  0  0
 42 43  1  0  0  0  0
 43 38  1  0  0  0  0
 43 33  2  0  0  0  0
M  END
>  <minimizedAffinity>
-7.22769499

>  <minimizedRMSD>
1.14087808

$$$$
