
 OpenBabel03272505173D

 44 48  0  0  1  0  0  0  0  0999 V2000
   38.3440   31.6760   45.1470 N   0  0  0  0  0  0  0  0  0  0  0  0
   38.7110   32.6420   46.1660 C   0  0  0  0  0  0  0  0  0  0  0  0
   40.1270   33.0720   45.9070 C   0  0  0  0  0  0  0  0  0  0  0  0
   40.2230   33.4550   44.5340 N   0  0  0  0  0  0  0  0  0  0  0  0
   40.0040   32.4000   43.6060 C   0  0  0  0  0  0  0  0  0  0  0  0
   39.4230   31.1900   44.3470 C   0  0  2  0  0  0  0  0  0  0  0  0
   38.6200   32.1890   47.1880 H   0  0  0  0  0  0  0  0  0  0  0  0
   38.0700   33.5570   46.0650 H   0  0  0  0  0  0  0  0  0  0  0  0
   40.2320   34.0470   46.4830 H   0  0  0  0  0  0  0  0  0  0  0  0
   40.9110   32.4440   46.3120 H   0  0  0  0  0  0  0  0  0  0  0  0
   41.1490   33.9370   44.3900 H   0  0  0  0  0  0  0  0  0  0  0  0
   40.9270   32.0490   43.0900 H   0  0  0  0  0  0  0  0  0  0  0  0
   39.3270   32.7800   42.8370 H   0  0  0  0  0  0  0  0  0  0  0  0
   40.2770   31.0090   45.0480 H   0  0  0  0  0  0  0  0  0  0  0  0
   39.1820   30.1000   43.4230 C   0  0  0  0  0  0  0  0  0  0  0  0
   39.0410   28.7980   43.8590 C   0  0  0  0  0  0  0  0  0  0  0  0
   39.1060   28.4830   44.8660 H   0  0  0  0  0  0  0  0  0  0  0  0
   38.7680   27.7200   43.0080 C   0  0  0  0  0  0  0  0  0  0  0  0
   38.6250   27.9210   41.6580 C   0  0  0  0  0  0  0  0  0  0  0  0
   38.7550   29.1850   41.1760 C   0  0  0  0  0  0  0  0  0  0  0  0
   38.6140   29.3880   39.8190 C   0  0  0  0  0  0  0  0  0  0  0  0
   38.7380   30.6420   39.2640 C   0  0  0  0  0  0  0  0  0  0  0  0
   39.0110   31.7090   40.1280 C   0  0  0  0  0  0  0  0  0  0  0  0
   39.1430   31.4560   41.4760 C   0  0  0  0  0  0  0  0  0  0  0  0
   39.0210   30.2050   42.0460 C   0  0  0  0  0  0  0  0  0  0  0  0
   37.1990   30.1380   47.3930 Cl  0  0  0  0  0  0  0  0  0  0  0  0
   36.3690   30.4310   45.8880 C   0  0  0  0  0  0  0  0  0  0  0  0
   35.1220   29.9370   45.7110 C   0  0  0  0  0  0  0  0  0  0  0  0
   34.5120   30.2630   44.5010 C   0  0  0  0  0  0  0  0  0  0  0  0
   35.0800   31.0230   43.5230 C   0  0  0  0  0  0  0  0  0  0  0  0
   36.3480   31.5010   43.7500 C   0  0  0  0  0  0  0  0  0  0  0  0
   37.0130   31.2150   44.9290 C   0  0  0  0  0  0  0  0  0  0  0  0
   33.5060   29.8870   44.3140 H   0  0  0  0  0  0  0  0  0  0  0  0
   34.5480   31.2410   42.6010 H   0  0  0  0  0  0  0  0  0  0  0  0
   36.8220   32.1060   42.9890 H   0  0  0  0  0  0  0  0  0  0  0  0
   33.7050   28.7900   49.0010 C   0  0  0  0  0  0  0  0  0  0  0  0
   34.3150   29.5960   48.0320 C   0  0  0  0  0  0  0  0  0  0  0  0
   34.5090   29.1260   46.7310 C   0  0  0  0  0  0  0  0  0  0  0  0
   34.0780   27.8640   46.4780 N   0  0  0  0  0  0  0  0  0  0  0  0
   33.4940   27.0810   47.4010 C   0  0  0  0  0  0  0  0  0  0  0  0
   33.3040   27.5430   48.6670 N   0  0  0  0  0  0  0  0  0  0  0  0
   33.5150   29.0730   50.0230 H   0  0  0  0  0  0  0  0  0  0  0  0
   34.6000   30.5320   48.4690 H   0  0  0  0  0  0  0  0  0  0  0  0
   33.2240   26.1140   47.0050 H   0  0  0  0  0  0  0  0  0  0  0  0
  1  2  1  0  0  0  0
  2  7  1  0  0  0  0
  3  2  1  0  0  0  0
  3 10  1  0  0  0  0
  3  9  1  0  0  0  0
  4  3  1  0  0  0  0
  5  6  1  0  0  0  0
  5  4  1  0  0  0  0
  6 14  1  1  0  0  0
  6  1  1  0  0  0  0
  8  2  1  0  0  0  0
 11  4  1  0  0  0  0
 12  5  1  0  0  0  0
 13  5  1  0  0  0  0
 15 16  1  0  0  0  0
 15  6  1  0  0  0  0
 16 17  1  0  0  0  0
 18 16  2  0  0  0  0
 19 18  1  0  0  0  0
 20 19  2  0  0  0  0
 20 25  1  0  0  0  0
 21 20  1  0  0  0  0
 22 21  2  0  0  0  0
 22 23  1  0  0  0  0
 23 24  2  0  0  0  0
 24 25  1  0  0  0  0
 25 15  2  0  0  0  0
 27 26  1  0  0  0  0
 28 27  1  0  0  0  0
 28 38  1  0  0  0  0
 29 28  2  0  0  0  0
 30 31  2  0  0  0  0
 30 29  1  0  0  0  0
 31 32  1  0  0  0  0
 32  1  1  0  0  0  0
 32 27  2  0  0  0  0
 33 29  1  0  0  0  0
 34 30  1  0  0  0  0
 35 31  1  0  0  0  0
 36 42  1  0  0  0  0
 37 43  1  0  0  0  0
 37 36  2  0  0  0  0
 38 37  1  0  0  0  0
 39 38  2  0  0  0  0
 39 40  1  0  0  0  0
 40 41  2  0  0  0  0
 41 36  1  0  0  0  0
 44 40  1  0  0  0  0
M  END
>  <minimizedAffinity>
-5.04548597

>  <minimizedRMSD>
2.75378346

$$$$
