
     RDKit          3D

 43 47  0  0  0  0  0  0  0  0999 V2000
   38.9102   30.8953   45.7682 C   0  0  0  0  0  0  0  0  0  0  0  0
   40.1150   31.5386   46.0186 C   0  0  0  0  0  0  0  0  0  0  0  0
   40.9521   31.4757   44.9069 C   0  0  0  0  0  0  0  0  0  0  0  0
   40.1955   30.7810   44.0163 N   0  0  0  0  0  0  0  0  0  0  0  0
   39.0208   30.4434   44.5032 N   0  0  0  0  0  0  0  0  0  0  0  0
   37.7874   30.7522   46.6738 C   0  0  0  0  0  0  0  0  0  0  0  0
   38.0114   30.9730   48.0611 C   0  0  0  0  0  0  0  0  0  0  0  0
   36.9146   30.8297   48.9114 C   0  0  0  0  0  0  0  0  0  0  0  0
   35.7141   30.4930   48.3765 N   0  0  0  0  0  0  0  0  0  0  0  0
   35.5324   30.2898   47.0543 C   0  0  0  0  0  0  0  0  0  0  0  0
   36.5791   30.4229   46.2139 N   0  0  0  0  0  0  0  0  0  0  0  0
   37.1289   31.0576   50.3742 C   0  0  0  0  0  0  0  0  0  0  0  0
   36.6036   32.2990   50.6324 F   0  0  0  0  0  0  0  0  0  0  0  0
   36.4678   30.1092   51.1547 F   0  0  0  0  0  0  0  0  0  0  0  0
   38.4768   31.0671   50.7062 F   0  0  0  0  0  0  0  0  0  0  0  0
   40.5538   30.4149   42.6519 C   0  0  0  0  0  0  0  0  0  0  0  0
   40.1749   31.1883   41.5495 C   0  0  0  0  0  0  0  0  0  0  0  0
   40.5439   30.8064   40.2973 C   0  0  0  0  0  0  0  0  0  0  0  0
   41.3016   29.6353   40.1044 C   0  0  0  0  0  0  0  0  0  0  0  0
   41.4771   29.0803   41.8591 S   0  0  0  0  0  0  0  0  0  0  0  0
   40.3839   32.0275   46.9456 H   0  0  0  0  0  0  0  0  0  0  0  0
   41.9316   31.8544   44.7466 H   0  0  0  0  0  0  0  0  0  0  0  0
   38.9934   31.2402   48.4322 H   0  0  0  0  0  0  0  0  0  0  0  0
   34.5589   30.0221   46.6645 H   0  0  0  0  0  0  0  0  0  0  0  0
   39.5780   32.1022   41.7141 H   0  0  0  0  0  0  0  0  0  0  0  0
   40.2890   31.4167   39.4610 H   0  0  0  0  0  0  0  0  0  0  0  0
   41.9349   28.8860   39.1321 C   0  0  0  0  0  0  0  0  0  0  0  0
   43.0519   29.4353   38.4789 C   0  0  0  0  0  0  0  0  0  0  0  0
   43.4644   30.4311   38.6716 H   0  0  0  0  0  0  0  0  0  0  0  0
   43.7706   28.7812   37.5025 C   0  0  0  0  0  0  0  0  0  0  0  0
   43.3904   27.5223   37.1346 C   0  0  0  0  0  0  0  0  0  0  0  0
   42.3161   26.8946   37.7119 C   0  0  0  0  0  0  0  0  0  0  0  0
   41.9896   25.6144   37.3307 C   0  0  0  0  0  0  0  0  0  0  0  0
   40.9305   24.9708   37.9380 C   0  0  0  0  0  0  0  0  0  0  0  0
   40.2580   25.6847   38.9143 C   0  0  0  0  0  0  0  0  0  0  0  0
   40.6241   26.9640   39.2586 C   0  0  0  0  0  0  0  0  0  0  0  0
   41.6661   27.6216   38.6699 C   0  0  0  0  0  0  0  0  0  0  0  0
   44.6211   29.2095   37.0081 H   0  0  0  0  0  0  0  0  0  0  0  0
   43.9478   27.0062   36.3697 H   0  0  0  0  0  0  0  0  0  0  0  0
   42.5863   25.1503   36.5543 H   0  0  0  0  0  0  0  0  0  0  0  0
   40.7499   23.9774   37.5763 H   0  0  0  0  0  0  0  0  0  0  0  0
   39.4305   25.1030   39.3492 H   0  0  0  0  0  0  0  0  0  0  0  0
   40.0153   27.3209   40.0326 H   0  0  0  0  0  0  0  0  0  0  0  0
  1  2  1  0
  1  6  1  0
  3  2  2  0
  4  5  1  0
  4  3  1  0
  5  1  2  0
  6  7  2  0
  7  8  1  0
  8 12  1  0
  9  8  2  0
 10  9  1  0
 11  6  1  0
 11 10  2  0
 12 13  1  0
 12 15  1  0
 12 14  1  0
 16  4  1  0
 17 16  2  0
 18 17  1  0
 19 18  2  0
 19 20  1  0
 20 16  1  0
  2 21  1  0
  3 22  1  0
  7 23  1  0
 10 24  1  0
 17 25  1  0
 18 26  1  0
 27 28  2  0
 28 29  1  0
 28 30  1  0
 30 31  2  0
 31 32  1  0
 32 33  2  0
 33 34  1  0
 34 35  2  0
 35 36  1  0
 36 37  2  0
 37 27  1  0
 37 32  1  0
 30 38  1  0
 31 39  1  0
 33 40  1  0
 34 41  1  0
 35 42  1  0
 36 43  1  0
 19 27  1  0
M  ISO  7  21  14  22  14  23  14  24  14  25  14  26  14  29  15
M  END
>  <DihAtoms>  (1) 
17,18,26,27

>  <DihDeg>  (1) 
156.2694294008932

$$$$
