
 OpenBabel03272505423D

 47 51  0  0  0  0  0  0  0  0999 V2000
   33.2820   29.7500   44.9350 C   0  0  0  0  0  0  0  0  0  0  0  0
   32.9030   30.9380   44.3250 C   0  0  0  0  0  0  0  0  0  0  0  0
   32.0930   30.8930   43.2020 C   0  0  0  0  0  0  0  0  0  0  0  0
   31.6310   29.7290   42.6420 C   0  0  0  0  0  0  0  0  0  0  0  0
   32.0070   28.5450   43.2500 C   0  0  0  0  0  0  0  0  0  0  0  0
   32.8170   28.6070   44.3700 C   0  0  0  0  0  0  0  0  0  0  0  0
   33.2280   31.8980   44.7100 H   0  0  0  0  0  0  0  0  0  0  0  0
   31.8100   31.8430   42.7410 H   0  0  0  0  0  0  0  0  0  0  0  0
   30.9960   29.7560   41.7580 H   0  0  0  0  0  0  0  0  0  0  0  0
   31.6250   27.6500   42.7820 H   0  0  0  0  0  0  0  0  0  0  0  0
   33.1010   27.2970   44.8560 N   0  0  0  0  0  0  0  0  0  0  0  0
   32.5600   26.3660   45.8010 C   0  0  0  0  0  0  0  0  0  0  0  0
   33.6760   25.9870   46.7460 C   0  0  0  0  0  0  0  0  0  0  0  0
   34.6300   25.1840   46.0190 N   0  0  0  0  0  0  0  0  0  0  0  0
   34.6180   25.3950   44.6130 C   0  0  0  0  0  0  0  0  0  0  0  0
   34.2690   26.7820   44.1820 C   0  0  0  0  0  0  0  0  0  0  0  0
   31.7240   26.8120   46.3820 H   0  0  0  0  0  0  0  0  0  0  0  0
   32.1610   25.4440   45.3320 H   0  0  0  0  0  0  0  0  0  0  0  0
   33.9780   26.6290   47.5110 H   0  0  0  0  0  0  0  0  0  0  0  0
   33.1260   25.1810   47.3530 H   0  0  0  0  0  0  0  0  0  0  0  0
   34.6590   24.1880   46.2310 H   0  0  0  0  0  0  0  0  0  0  0  0
   33.9270   24.6340   44.1620 H   0  0  0  0  0  0  0  0  0  0  0  0
   35.6350   25.1570   44.2260 H   0  0  0  0  0  0  0  0  0  0  0  0
   33.8830   26.6300   43.1240 H   0  0  0  0  0  0  0  0  0  0  0  0
   35.0940   27.4680   44.0290 H   0  0  0  0  0  0  0  0  0  0  0  0
   34.4940   29.3480   48.3600 C   0  0  0  0  0  0  0  0  0  0  0  0
   35.7830   29.8770   48.2820 C   0  0  0  0  0  0  0  0  0  0  0  0
   36.2370   30.3670   47.0600 C   0  0  0  0  0  0  0  0  0  0  0  0
   35.3470   30.2800   46.0240 N   0  0  0  0  0  0  0  0  0  0  0  0
   34.1250   29.7770   46.0990 C   0  0  0  0  0  0  0  0  0  0  0  0
   33.7120   29.3110   47.2890 N   0  0  0  0  0  0  0  0  0  0  0  0
   36.3500   29.9250   49.1730 H   0  0  0  0  0  0  0  0  0  0  0  0
   37.4900   31.0180   46.7590 C   0  0  0  0  0  0  0  0  0  0  0  0
   38.1640   30.5600   45.6300 C   0  0  0  0  0  0  0  0  0  0  0  0
   37.7470   29.7550   45.0100 H   0  0  0  0  0  0  0  0  0  0  0  0
   39.3730   31.0390   45.1810 C   0  0  0  0  0  0  0  0  0  0  0  0
   39.9920   32.0490   45.8800 C   0  0  0  0  0  0  0  0  0  0  0  0
   39.3820   32.5470   47.0090 C   0  0  0  0  0  0  0  0  0  0  0  0
   39.9880   33.5320   47.7550 C   0  0  0  0  0  0  0  0  0  0  0  0
   39.4250   34.0370   48.9260 C   0  0  0  0  0  0  0  0  0  0  0  0
   38.1970   33.4780   49.3040 C   0  0  0  0  0  0  0  0  0  0  0  0
   37.6210   32.4960   48.5320 C   0  0  0  0  0  0  0  0  0  0  0  0
   38.1800   32.0080   47.3810 C   0  0  0  0  0  0  0  0  0  0  0  0
   34.0430   28.8330   49.6990 C   0  0  0  0  0  0  0  0  0  0  0  0
   32.7680   28.2560   49.5380 F   0  0  0  0  0  0  0  0  0  0  0  0
   34.9340   27.9410   50.1480 F   0  0  0  0  0  0  0  0  0  0  0  0
   33.8740   29.9060   50.5380 F   0  0  0  0  0  0  0  0  0  0  0  0
  1 30  1  0  0  0  0
  2  7  1  0  0  0  0
  2  1  2  0  0  0  0
  3  2  1  0  0  0  0
  4  3  2  0  0  0  0
  4  5  1  0  0  0  0
  5  6  2  0  0  0  0
  6 11  1  0  0  0  0
  6  1  1  0  0  0  0
  8  3  1  0  0  0  0
  9  4  1  0  0  0  0
 10  5  1  0  0  0  0
 11 12  1  0  0  0  0
 12 17  1  0  0  0  0
 12 13  1  0  0  0  0
 13 20  1  0  0  0  0
 13 19  1  0  0  0  0
 14 21  1  0  0  0  0
 14 13  1  0  0  0  0
 15 14  1  0  0  0  0
 16 15  1  0  0  0  0
 16 11  1  0  0  0  0
 18 12  1  0  0  0  0
 22 15  1  0  0  0  0
 23 15  1  0  0  0  0
 24 16  1  0  0  0  0
 25 16  1  0  0  0  0
 26 44  1  0  0  0  0
 27 26  1  0  0  0  0
 27 32  1  0  0  0  0
 28 27  2  0  0  0  0
 29 30  2  0  0  0  0
 29 28  1  0  0  0  0
 30 31  1  0  0  0  0
 31 26  2  0  0  0  0
 33 28  1  0  0  0  0
 33 43  1  0  0  0  0
 34 33  2  0  0  0  0
 35 34  1  0  0  0  0
 36 34  1  0  0  0  0
 36 37  2  0  0  0  0
 37 38  1  0  0  0  0
 38 43  2  0  0  0  0
 38 39  1  0  0  0  0
 39 40  2  0  0  0  0
 40 41  1  0  0  0  0
 42 41  2  0  0  0  0
 43 42  1  0  0  0  0
 44 46  1  0  0  0  0
 44 47  1  0  0  0  0
 45 44  1  0  0  0  0
M  END
>  <minimizedAffinity>
-6.61928988

>  <minimizedRMSD>
4.77856112

$$$$
