
     RDKit          3D

 29 31  0  0  0  0  0  0  0  0999 V2000
   38.3049   31.2362   50.1169 C   0  0  0  0  0  0  0  0  0  0  0  0
   38.2840   31.5945   48.7705 C   0  0  0  0  0  0  0  0  0  0  0  0
   37.2065   31.2226   47.9853 C   0  0  0  0  0  0  0  0  0  0  0  0
   36.2345   30.5130   48.6237 N   0  0  0  0  0  0  0  0  0  0  0  0
   36.2563   30.1710   49.9070 C   0  0  0  0  0  0  0  0  0  0  0  0
   37.2974   30.5423   50.6333 N   0  0  0  0  0  0  0  0  0  0  0  0
   35.1216   29.3873   50.4571 C   0  0  0  0  0  0  0  0  0  0  0  0
   35.2716   29.1198   51.8067 F   0  0  0  0  0  0  0  0  0  0  0  0
   33.9167   30.0507   50.2926 F   0  0  0  0  0  0  0  0  0  0  0  0
   34.9556   28.1745   49.8110 F   0  0  0  0  0  0  0  0  0  0  0  0
   39.1454   31.5283   50.7308 H   0  0  0  0  0  0  0  0  0  0  0  0
   39.1416   32.1104   48.4043 H   0  0  0  0  0  0  0  0  0  0  0  0
   37.0131   31.4217   46.5704 C   0  0  0  0  0  0  0  0  0  0  0  0
   35.8221   32.0539   46.1922 C   0  0  0  0  0  0  0  0  0  0  0  0
   35.1004   32.3567   46.9417 H   0  0  0  0  0  0  0  0  0  0  0  0
   35.4587   32.3423   44.9104 C   0  0  0  0  0  0  0  0  0  0  0  0
   36.2991   32.0041   43.8741 C   0  0  0  0  0  0  0  0  0  0  0  0
   37.4777   31.3876   44.1799 C   0  0  0  0  0  0  0  0  0  0  0  0
   38.3567   31.0663   43.1715 C   0  0  0  0  0  0  0  0  0  0  0  0
   39.5846   30.4711   43.4310 C   0  0  0  0  0  0  0  0  0  0  0  0
   39.8799   30.2183   44.7565 C   0  0  0  0  0  0  0  0  0  0  0  0
   38.9909   30.5463   45.7295 C   0  0  0  0  0  0  0  0  0  0  0  0
   37.7918   31.1229   45.4834 C   0  0  0  0  0  0  0  0  0  0  0  0
   34.5374   32.8270   44.6590 H   0  0  0  0  0  0  0  0  0  0  0  0
   36.0107   32.2309   42.8601 H   0  0  0  0  0  0  0  0  0  0  0  0
   38.1082   31.2732   42.1339 H   0  0  0  0  0  0  0  0  0  0  0  0
   40.2418   30.2343   42.6292 H   0  0  0  0  0  0  0  0  0  0  0  0
   40.8497   29.7512   44.9474 H   0  0  0  0  0  0  0  0  0  0  0  0
   39.3301   30.3492   46.7125 H   0  0  0  0  0  0  0  0  0  0  0  0
  1  6  2  0
  2  1  1  0
  3  4  1  0
  3  2  2  0
  4  5  2  0
  5  7  1  0
  5  6  1  0
  7  8  1  0
  9  7  1  0
 10  7  1  0
  1 11  1  0
  2 12  1  0
 13 14  2  0
 14 15  1  0
 14 16  1  0
 16 17  2  0
 17 18  1  0
 18 19  2  0
 19 20  1  0
 20 21  2  0
 21 22  1  0
 22 23  2  0
 23 13  1  0
 23 18  1  0
 16 24  1  0
 17 25  1  0
 19 26  1  0
 20 27  1  0
 21 28  1  0
 22 29  1  0
  3 13  1  0
M  ISO  3  11  14  12  14  15  15
M  END
>  <DihAtoms>  (1) 
3,2,12,13

>  <DihDeg>  (1) 
-32.813208269965244

$$$$
