
     RDKit          3D

 28 30  0  0  0  0  0  0  0  0999 V2000
   37.3100   30.2163   51.4204 C   0  0  0  0  0  0  0  0  0  0  0  0
   38.0754   30.7372   50.3814 C   0  0  0  0  0  0  0  0  0  0  0  0
   37.7500   30.4268   49.0582 C   0  0  0  0  0  0  0  0  0  0  0  0
   36.6638   29.6101   48.9153 N   0  0  0  0  0  0  0  0  0  0  0  0
   35.9335   29.1146   49.9129 C   0  0  0  0  0  0  0  0  0  0  0  0
   36.2631   29.4225   51.1770 N   0  0  0  0  0  0  0  0  0  0  0  0
   34.8452   28.2844   49.5348 N   0  0  0  0  0  0  0  0  0  0  0  0
   37.5635   30.4557   52.4439 H   0  0  0  0  0  0  0  0  0  0  0  0
   38.8484   31.3838   50.6532 H   0  0  0  0  0  0  0  0  0  0  0  0
   35.0191   27.2593   49.4800 H   0  0  0  0  0  0  0  0  0  0  0  0
   33.9986   28.8818   49.3644 H   0  0  0  0  0  0  0  0  0  0  0  0
   38.3626   30.9166   47.8475 C   0  0  0  0  0  0  0  0  0  0  0  0
   39.7646   30.8164   47.8122 C   0  0  0  0  0  0  0  0  0  0  0  0
   40.3233   30.3863   48.6534 H   0  0  0  0  0  0  0  0  0  0  0  0
   40.5407   31.2344   46.7541 C   0  0  0  0  0  0  0  0  0  0  0  0
   39.9527   31.7875   45.6505 C   0  0  0  0  0  0  0  0  0  0  0  0
   38.5884   31.9096   45.6386 C   0  0  0  0  0  0  0  0  0  0  0  0
   37.9676   32.4936   44.5566 C   0  0  0  0  0  0  0  0  0  0  0  0
   36.5964   32.6773   44.5020 C   0  0  0  0  0  0  0  0  0  0  0  0
   35.8744   32.2336   45.6171 C   0  0  0  0  0  0  0  0  0  0  0  0
   36.5191   31.6592   46.6708 C   0  0  0  0  0  0  0  0  0  0  0  0
   37.8645   31.4774   46.7191 C   0  0  0  0  0  0  0  0  0  0  0  0
   41.6141   31.1337   46.7771 H   0  0  0  0  0  0  0  0  0  0  0  0
   40.5400   32.1120   44.8280 H   0  0  0  0  0  0  0  0  0  0  0  0
   38.6046   32.8147   43.7234 H   0  0  0  0  0  0  0  0  0  0  0  0
   36.1388   33.1407   43.6332 H   0  0  0  0  0  0  0  0  0  0  0  0
   34.8099   32.3933   45.5424 H   0  0  0  0  0  0  0  0  0  0  0  0
   35.8714   31.4067   47.4567 H   0  0  0  0  0  0  0  0  0  0  0  0
  2  1  2  0
  3  2  1  0
  4  3  2  0
  4  5  1  0
  5  6  2  0
  6  1  1  0
  7  5  1  0
  1  8  1  0
  2  9  1  0
  7 10  1  0
  7 11  1  0
 12 13  2  0
 13 14  1  0
 13 15  1  0
 15 16  2  0
 16 17  1  0
 17 18  2  0
 18 19  1  0
 19 20  2  0
 20 21  1  0
 21 22  2  0
 22 12  1  0
 22 17  1  0
 15 23  1  0
 16 24  1  0
 18 25  1  0
 19 26  1  0
 20 27  1  0
 21 28  1  0
  3 12  1  0
M  ISO  3   8  14   9  14  14  15
M  END
>  <DihAtoms>  (1) 
1,2,11,12

>  <DihDeg>  (1) 
-144.5638883325183

$$$$
