
 OpenBabel03272503233D

 32 35  0  0  1  0  0  0  0  0999 V2000
   36.3650   30.2840   48.6620 N   0  0  0  0  0  0  0  0  0  0  0  0
   36.8840   31.3970   47.8780 C   0  0  1  0  0  0  0  0  0  0  0  0
   37.5410   32.2520   48.9280 C   0  0  0  0  0  0  0  0  0  0  0  0
   37.2400   31.6040   50.2770 C   0  0  0  0  0  0  0  0  0  0  0  0
   37.1600   30.1620   49.8740 C   0  0  0  0  0  0  0  0  0  0  0  0
   35.9880   31.9410   47.5490 H   0  0  0  0  0  0  0  0  0  0  0  0
   37.1340   33.2810   48.9980 H   0  0  0  0  0  0  0  0  0  0  0  0
   38.6290   32.3490   48.7580 H   0  0  0  0  0  0  0  0  0  0  0  0
   36.3220   31.9510   50.7430 H   0  0  0  0  0  0  0  0  0  0  0  0
   38.1640   31.7230   50.8840 H   0  0  0  0  0  0  0  0  0  0  0  0
   38.0840   29.6200   49.7850 H   0  0  0  0  0  0  0  0  0  0  0  0
   36.5590   29.6530   50.6700 H   0  0  0  0  0  0  0  0  0  0  0  0
   37.7270   30.9960   46.7680 C   0  0  0  0  0  0  0  0  0  0  0  0
   39.1030   30.8910   46.7860 C   0  0  0  0  0  0  0  0  0  0  0  0
   39.6260   31.1290   47.7020 H   0  0  0  0  0  0  0  0  0  0  0  0
   39.9050   30.5030   45.7330 C   0  0  0  0  0  3  0  0  0  0  0  0
   39.3060   30.1850   44.5430 C   0  0  0  0  0  3  0  0  0  0  0  0
   37.9330   30.2640   44.4420 C   0  0  0  0  0  0  0  0  0  0  0  0
   37.3970   29.9360   43.2300 C   0  0  0  0  0  3  0  0  0  0  0  0
   36.0320   29.9930   43.0490 C   0  0  0  0  0  3  0  0  0  0  0  0
   35.2240   30.3810   44.1010 C   0  0  0  0  0  3  0  0  0  0  0  0
   35.8280   30.6970   45.2890 C   0  0  0  0  0  3  0  0  0  0  0  0
   37.1850   30.6620   45.5370 C   0  0  0  0  0  0  0  0  0  0  0  0
   35.2710   29.4390   48.3540 C   0  0  0  0  0  0  0  0  0  0  0  0
   34.2200   30.0280   47.6360 C   0  0  0  0  0  0  0  0  0  0  0  0
   33.1000   29.2640   47.3000 C   0  0  0  0  0  0  0  0  0  0  0  0
   33.1220   27.9450   47.7170 N   0  0  0  0  0  0  0  0  0  0  0  0
   34.1490   27.4180   48.4030 C   0  0  0  0  0  0  0  0  0  0  0  0
   35.2440   28.1680   48.7300 N   0  0  0  0  0  0  0  0  0  0  0  0
   34.1500   31.0440   47.2880 H   0  0  0  0  0  0  0  0  0  0  0  0
   32.2650   29.6380   46.7590 H   0  0  0  0  0  0  0  0  0  0  0  0
   34.0410   26.3840   48.6650 H   0  0  0  0  0  0  0  0  0  0  0  0
  1  5  1  0  0  0  0
  2  6  1  6  0  0  0
  2  1  1  0  0  0  0
  2  3  1  0  0  0  0
  3  7  1  0  0  0  0
  3  4  1  0  0  0  0
  4  9  1  0  0  0  0
  4 10  1  0  0  0  0
  5  4  1  0  0  0  0
  5 12  1  0  0  0  0
  8  3  1  0  0  0  0
 11  5  1  0  0  0  0
 13 14  1  0  0  0  0
 13  2  1  0  0  0  0
 14 15  1  0  0  0  0
 16 14  2  0  0  0  0
 17 16  1  0  0  0  0
 18 17  2  0  0  0  0
 18 23  1  0  0  0  0
 19 18  1  0  0  0  0
 20 19  2  0  0  0  0
 20 21  1  0  0  0  0
 21 22  2  0  0  0  0
 22 23  1  0  0  0  0
 23 13  2  0  0  0  0
 24  1  1  0  0  0  0
 24 29  1  0  0  0  0
 25 24  2  0  0  0  0
 26 25  1  0  0  0  0
 26 27  2  0  0  0  0
 27 28  1  0  0  0  0
 28 32  1  0  0  0  0
 28 29  2  0  0  0  0
 30 25  1  0  0  0  0
 31 26  1  0  0  0  0
M  END
>  <minimizedAffinity>
-4.76893377

>  <minimizedRMSD>
3.12079072

$$$$
