
 OpenBabel03272509343D

 43 48  0  0  1  0  0  0  0  0999 V2000
   37.4310   31.5490   46.4900 C   0  0  1  0  0  0  0  0  0  0  0  0
   38.8910   31.7320   46.4440 C   0  0  0  0  0  0  0  0  0  0  0  0
   38.2930   30.8840   45.3810 C   0  0  2  0  0  0  0  0  0  0  0  0
   36.7710   32.2790   46.0460 H   0  0  0  0  0  0  0  0  0  0  0  0
   39.1640   32.7770   46.4170 H   0  0  0  0  0  0  0  0  0  0  0  0
   39.4280   31.2070   47.3050 H   0  0  0  0  0  0  0  0  0  0  0  0
   38.0520   29.8430   45.3320 H   0  0  0  0  0  0  0  0  0  0  0  0
   38.3910   31.5540   44.0560 C   0  0  0  0  0  0  0  0  0  0  0  0
   39.2730   32.6430   44.1280 C   0  0  0  0  0  0  0  0  0  0  0  0
   39.6000   33.3730   43.0060 C   0  0  0  0  0  0  0  0  0  0  0  0
   39.0560   33.0430   41.7600 C   0  0  0  0  0  0  0  0  0  0  0  0
   38.1960   31.9700   41.7190 C   0  0  0  0  0  0  0  0  0  0  0  0
   37.5790   31.5460   40.5590 C   0  0  0  0  0  0  0  0  0  0  0  0
   36.7000   30.4760   40.5080 C   0  0  0  0  0  0  0  0  0  0  0  0
   36.4170   29.7850   41.6740 C   0  0  0  0  0  0  0  0  0  0  0  0
   37.0280   30.2010   42.8350 C   0  0  0  0  0  0  0  0  0  0  0  0
   37.8900   31.2640   42.8430 C   0  0  0  0  0  0  0  0  0  0  0  0
   39.8570   33.1350   44.8780 H   0  0  0  0  0  0  0  0  0  0  0  0
   40.2470   34.2240   42.8860 H   0  0  0  0  0  0  0  0  0  0  0  0
   39.2030   33.5060   40.7900 H   0  0  0  0  0  0  0  0  0  0  0  0
   37.7740   32.0600   39.6230 H   0  0  0  0  0  0  0  0  0  0  0  0
   36.2350   30.1730   39.5760 H   0  0  0  0  0  0  0  0  0  0  0  0
   35.7440   28.9430   41.7040 H   0  0  0  0  0  0  0  0  0  0  0  0
   36.7890   29.6350   43.7540 H   0  0  0  0  0  0  0  0  0  0  0  0
   35.0020   29.2850   48.2640 C   0  0  0  0  0  0  0  0  0  0  0  0
   35.5360   30.2100   47.3110 C   0  0  0  0  0  0  0  0  0  0  0  0
   36.8500   30.5930   47.4470 C   0  0  0  0  0  0  0  0  0  0  0  0
   37.5180   30.0500   48.4800 N   0  0  0  0  0  0  0  0  0  0  0  0
   37.0580   29.1930   49.3760 C   0  0  0  0  0  0  0  0  0  0  0  0
   35.7510   28.7960   49.2640 N   0  0  0  0  0  0  0  0  0  0  0  0
   33.9740   29.0230   48.1090 H   0  0  0  0  0  0  0  0  0  0  0  0
   34.9260   30.5920   46.5140 H   0  0  0  0  0  0  0  0  0  0  0  0
   37.7290   28.5700   50.4960 C   0  0  0  0  0  0  0  0  0  0  0  0
   38.4590   27.3890   50.3580 C   0  0  0  0  0  0  0  0  0  0  0  0
   38.5370   26.8980   49.3760 H   0  0  0  0  0  0  0  0  0  0  0  0
   39.1200   26.7430   51.3630 C   0  0  0  0  0  3  0  0  0  0  0  0
   39.0970   27.2570   52.6330 C   0  0  0  0  0  3  0  0  0  0  0  0
   38.4010   28.4200   52.8640 C   0  0  0  0  0  0  0  0  0  0  0  0
   38.3940   28.9170   54.1310 C   0  0  0  0  0  3  0  0  0  0  0  0
   37.7210   30.0820   54.4290 C   0  0  0  0  0  3  0  0  0  0  0  0
   37.0570   30.7170   53.3760 C   0  0  0  0  0  3  0  0  0  0  0  0
   37.1010   30.1650   52.1180 C   0  0  0  0  0  3  0  0  0  0  0  0
   37.7640   29.0070   51.7970 C   0  0  0  0  0  0  0  0  0  0  0  0
  1  4  1  6  0  0  0
  1 27  1  0  0  0  0
  2  1  1  0  0  0  0
  2  6  1  0  0  0  0
  3  7  1  1  0  0  0
  3  2  1  0  0  0  0
  3  1  1  0  0  0  0
  5  2  1  0  0  0  0
  8  9  1  0  0  0  0
  8  3  1  0  0  0  0
  9 18  1  0  0  0  0
 10  9  2  0  0  0  0
 11 10  1  0  0  0  0
 12 11  2  0  0  0  0
 12 17  1  0  0  0  0
 13 12  1  0  0  0  0
 14 13  2  0  0  0  0
 14 15  1  0  0  0  0
 15 23  1  0  0  0  0
 15 16  2  0  0  0  0
 16 17  1  0  0  0  0
 16 24  1  0  0  0  0
 17  8  2  0  0  0  0
 19 10  1  0  0  0  0
 20 11  1  0  0  0  0
 21 13  1  0  0  0  0
 22 14  1  0  0  0  0
 25 30  1  0  0  0  0
 26 27  1  0  0  0  0
 26 25  2  0  0  0  0
 27 28  2  0  0  0  0
 28 29  1  0  0  0  0
 29 33  1  0  0  0  0
 30 29  2  0  0  0  0
 31 25  1  0  0  0  0
 32 26  1  0  0  0  0
 33 43  1  0  0  0  0
 34 33  2  0  0  0  0
 34 36  1  0  0  0  0
 35 34  1  0  0  0  0
 36 37  2  0  0  0  0
 37 38  1  0  0  0  0
 38 39  1  0  0  0  0
 39 40  2  0  0  0  0
 41 40  1  0  0  0  0
 42 41  2  0  0  0  0
 43 42  1  0  0  0  0
 43 38  2  0  0  0  0
M  END
>  <minimizedAffinity>
6.21086884

>  <minimizedRMSD>
2.65860033

$$$$
