
     RDKit          3D

 33 35  0  0  0  0  0  0  0  0999 V2000
   37.3267   30.2285   51.4118 C   0  0  0  0  0  0  0  0  0  0  0  0
   38.0466   30.6689   50.3053 C   0  0  0  0  0  0  0  0  0  0  0  0
   37.6208   30.2832   49.0358 C   0  0  0  0  0  0  0  0  0  0  0  0
   36.5037   29.4849   48.9855 N   0  0  0  0  0  0  0  0  0  0  0  0
   35.8346   29.0790   50.0647 C   0  0  0  0  0  0  0  0  0  0  0  0
   36.2523   29.4556   51.2830 N   0  0  0  0  0  0  0  0  0  0  0  0
   34.7433   28.2821   49.7534 O   0  0  0  0  0  0  0  0  0  0  0  0
   34.1938   28.3948   48.4538 C   0  0  0  0  0  0  0  0  0  0  0  0
   33.8332   27.0541   47.9087 C   0  0  0  0  0  0  0  0  0  0  0  0
   37.6986   30.5549   52.3651 H   0  0  0  0  0  0  0  0  0  0  0  0
   38.9321   31.2974   50.2963 H   0  0  0  0  0  0  0  0  0  0  0  0
   38.1062   30.5673   48.0977 H   0  0  0  0  0  0  0  0  0  0  0  0
   33.3586   29.0880   48.4275 H   0  0  0  0  0  0  0  0  0  0  0  0
   34.9638   28.8258   47.7567 H   0  0  0  0  0  0  0  0  0  0  0  0
   34.6762   26.3457   47.9430 H   0  0  0  0  0  0  0  0  0  0  0  0
   33.0654   26.6046   48.6045 H   0  0  0  0  0  0  0  0  0  0  0  0
   33.2597   27.1760   46.5536 C   0  0  0  0  0  0  0  0  0  0  0  0
   33.3503   28.4107   45.9246 C   0  0  0  0  0  0  0  0  0  0  0  0
   33.8466   29.2327   46.4300 H   0  0  0  0  0  0  0  0  0  0  0  0
   32.8601   28.7223   44.6782 C   0  0  0  0  0  0  0  0  0  0  0  0
   32.2148   27.6816   44.0013 C   0  0  0  0  0  0  0  0  0  0  0  0
   32.1014   26.4365   44.5883 C   0  0  0  0  0  0  0  0  0  0  0  0
   31.4798   25.3729   43.9658 C   0  0  0  0  0  0  0  0  0  0  0  0
   31.3539   24.1152   44.5228 C   0  0  0  0  0  0  0  0  0  0  0  0
   31.8870   23.9363   45.7700 C   0  0  0  0  0  0  0  0  0  0  0  0
   32.5163   24.9487   46.4426 C   0  0  0  0  0  0  0  0  0  0  0  0
   32.6169   26.1827   45.8495 C   0  0  0  0  0  0  0  0  0  0  0  0
   32.9642   29.7032   44.2484 H   0  0  0  0  0  0  0  0  0  0  0  0
   31.8042   27.8480   43.0221 H   0  0  0  0  0  0  0  0  0  0  0  0
   31.0862   25.6080   42.9748 H   0  0  0  0  0  0  0  0  0  0  0  0
   30.8547   23.3658   43.9547 H   0  0  0  0  0  0  0  0  0  0  0  0
   31.8090   22.9695   46.2360 H   0  0  0  0  0  0  0  0  0  0  0  0
   32.9181   24.7314   47.4183 H   0  0  0  0  0  0  0  0  0  0  0  0
  2  1  2  0
  3  2  1  0
  4  3  2  0
  4  5  1  0
  5  6  2  0
  6  1  1  0
  7  5  1  0
  8  7  1  0
  9  8  1  0
  1 10  1  0
  2 11  1  0
  3 12  1  0
  8 13  1  0
  8 14  1  0
  9 15  1  0
  9 16  1  0
 17 18  2  0
 18 19  1  0
 18 20  1  0
 20 21  2  0
 21 22  1  0
 22 23  2  0
 23 24  1  0
 24 25  2  0
 25 26  1  0
 26 27  2  0
 27 17  1  0
 27 22  1  0
 20 28  1  0
 21 29  1  0
 23 30  1  0
 24 31  1  0
 25 32  1  0
 26 33  1  0
  9 17  1  0
M  ISO  8  10  14  11  14  12  14  13   8  14   8  15   8  16   8  19  15
M  END
>  <DihAtoms>  (1) 
7,8,16,17

>  <DihDeg>  (1) 
100.56932808006867

$$$$
