REMARK  Name = 
REMARK  1 active torsions:
REMARK  status: ('A' for Active; 'I' for Inactive)
REMARK    1  A    between atoms: C_2  and  C_22
REMARK                            x       y       z     vdW  Elec       q    Type
REMARK                         _______ _______ _______ _____ _____    ______ ____
ROOT
ATOM      1  C   UNL     1      38.089  33.147  49.503  0.00  0.00    +0.000 A 
ATOM      2  C   UNL     1      38.935  33.067  48.365  0.00  0.00    +0.000 A 
ATOM      3  C   UNL     1      38.705  32.054  47.435  0.00  0.00    +0.000 A 
ATOM      4  N   UNL     1      37.682  31.188  47.656  0.00  0.00    +0.000 NA
ATOM      5  C   UNL     1      36.895  31.281  48.736  0.00  0.00    +0.000 A 
ATOM      6  N   UNL     1      37.082  32.248  49.664  0.00  0.00    +0.000 NA
ATOM      7  N   UNL     1      35.833  30.343  48.915  0.00  0.00    +0.000 N 
ATOM      8  C   UNL     1      34.754  30.183  47.936  0.00  0.00    +0.000 C 
ATOM      9  C   UNL     1      34.014  28.973  48.371  0.00  0.00    +0.000 C 
ATOM     10  C   UNL     1      34.869  28.316  49.432  0.00  0.00    +0.000 C 
ATOM     11  C   UNL     1      35.645  29.441  50.025  0.00  0.00    +0.000 C 
ATOM     12  H   UNL     1      38.185  33.891  50.277  0.00  0.00    +0.000 HD
ATOM     13  H   UNL     1      39.376  32.031  46.602  0.00  0.00    +0.000 HD
ATOM     14  H   UNL     1      34.180  31.113  47.907  0.00  0.00    +0.000 HD
ATOM     15  H   UNL     1      35.183  30.018  46.914  0.00  0.00    +0.000 HD
ATOM     16  H   UNL     1      33.808  28.281  47.511  0.00  0.00    +0.000 HD
ATOM     17  H   UNL     1      33.051  29.304  48.817  0.00  0.00    +0.000 HD
ATOM     18  H   UNL     1      34.166  27.918  50.214  0.00  0.00    +0.000 HD
ATOM     19  H   UNL     1      35.481  27.530  48.983  0.00  0.00    +0.000 HD
ATOM     20  H   UNL     1      35.113  29.942  50.852  0.00  0.00    +0.000 HD
ATOM     21  H   UNL     1      36.632  29.019  50.357  0.00  0.00    +0.000 HD
ENDROOT
BRANCH   2  22
ATOM     22  C   UNL     1      39.951  34.090  48.367  0.00  0.00    +0.000 A 
ATOM     23  C   UNL     1      41.265  33.643  48.188  0.00  0.00    +0.000 A 
ATOM     24  H   UNL     1      41.484  32.570  48.076  0.00  0.00    +0.000 HD
ATOM     25  C   UNL     1      42.367  34.477  48.137  0.00  0.00    +0.000 A 
ATOM     26  C   UNL     1      42.125  35.849  48.276  0.00  0.00    +0.000 A 
ATOM     27  C   UNL     1      40.846  36.332  48.455  0.00  0.00    +0.000 A 
ATOM     28  C   UNL     1      40.636  37.681  48.596  0.00  0.00    +0.000 A 
ATOM     29  C   UNL     1      39.331  38.097  48.779  0.00  0.00    +0.000 A 
ATOM     30  C   UNL     1      38.238  37.233  48.828  0.00  0.00    +0.000 A 
ATOM     31  C   UNL     1      38.522  35.897  48.680  0.00  0.00    +0.000 A 
ATOM     32  C   UNL     1      39.808  35.447  48.495  0.00  0.00    +0.000 A 
ENDBRANCH   2  22
TORSDOF 1
