
 OpenBabel03272510283D

 47 52  0  0  1  0  0  0  0  0999 V2000
   39.4480   24.2190   33.2810 N   0  0  0  0  0  0  0  0  0  0  0  0
   39.5360   25.1080   32.1220 C   0  0  1  0  0  0  0  0  0  0  0  0
   40.4300   24.5350   31.1270 C   0  0  0  0  0  0  0  0  0  0  0  0
   41.7250   24.4510   31.6620 O   0  0  0  0  0  0  0  0  0  0  0  0
   41.8130   23.7720   32.8580 C   0  0  0  0  0  0  0  0  0  0  0  0
   40.7780   24.2640   33.8500 C   0  0  2  0  0  0  0  0  0  0  0  0
   39.3030   23.2450   33.0570 H   0  0  0  0  0  0  0  0  0  0  0  0
   39.9480   26.0560   32.5170 H   0  0  0  0  0  0  0  0  0  0  0  0
   40.5440   25.3040   30.3000 H   0  0  0  0  0  0  0  0  0  0  0  0
   40.2980   23.6030   30.6470 H   0  0  0  0  0  0  0  0  0  0  0  0
   42.8150   23.9530   33.2580 H   0  0  0  0  0  0  0  0  0  0  0  0
   41.5970   22.6970   32.6680 H   0  0  0  0  0  0  0  0  0  0  0  0
   40.9470   25.3510   34.0110 H   0  0  0  0  0  0  0  0  0  0  0  0
   40.7900   23.4590   35.0680 C   0  0  0  0  0  0  0  0  0  0  0  0
   41.6200   22.4130   35.3670 C   0  0  0  0  0  0  0  0  0  0  0  0
   42.3750   22.1100   34.6560 H   0  0  0  0  0  0  0  0  0  0  0  0
   41.6090   21.6620   36.5220 C   0  0  0  0  0  3  0  0  0  0  0  0
   40.6850   21.9620   37.5000 C   0  0  0  0  0  3  0  0  0  0  0  0
   39.8180   23.0080   37.2600 C   0  0  0  0  0  0  0  0  0  0  0  0
   38.9170   23.2680   38.2680 C   0  0  0  0  0  3  0  0  0  0  0  0
   38.0110   24.2980   38.1190 C   0  0  0  0  0  3  0  0  0  0  0  0
   38.0260   25.0480   36.9600 C   0  0  0  0  0  3  0  0  0  0  0  0
   38.9420   24.7380   36.0040 C   0  0  0  0  0  3  0  0  0  0  0  0
   39.8810   23.7300   36.0680 C   0  0  0  0  0  0  0  0  0  0  0  0
   38.2170   25.2310   31.6150 O   0  0  0  0  0  0  0  0  0  0  0  0
   35.2890   30.2240   32.7530 C   0  0  0  0  0  0  0  0  0  0  0  0
   35.4550   29.7950   34.0570 C   0  0  0  0  0  0  0  0  0  0  0  0
   36.1220   28.5940   34.3440 C   0  0  0  0  0  0  0  0  0  0  0  0
   36.5910   27.8870   33.2440 C   0  0  0  0  0  0  0  0  0  0  0  0
   37.2740   26.6960   33.2660 N   0  0  0  0  0  0  0  0  0  0  0  0
   37.5290   26.3880   31.9830 C   0  0  0  0  0  0  0  0  0  0  0  0
   37.0410   27.3210   31.1980 N   0  0  0  0  0  0  0  0  0  0  0  0
   36.4500   28.2740   31.9350 C   0  0  0  0  0  0  0  0  0  0  0  0
   35.7770   29.4790   31.6890 C   0  0  0  0  0  0  0  0  0  0  0  0
   34.7840   31.1390   32.4840 H   0  0  0  0  0  0  0  0  0  0  0  0
   36.2560   28.2500   35.3570 H   0  0  0  0  0  0  0  0  0  0  0  0
   37.5330   26.1500   34.1280 H   0  0  0  0  0  0  0  0  0  0  0  0
   35.6630   29.7900   30.6590 H   0  0  0  0  0  0  0  0  0  0  0  0
   34.9840   32.2180   36.8990 C   0  0  0  0  0  0  0  0  0  0  0  0
   35.6360   31.5000   35.9000 C   0  0  0  0  0  0  0  0  0  0  0  0
   34.9260   30.6130   35.1300 C   0  0  0  0  0  0  0  0  0  0  0  0
   33.5790   30.4850   35.3980 N   0  0  0  0  0  0  0  0  0  0  0  0
   32.9570   31.1850   36.3670 C   0  0  0  0  0  0  0  0  0  0  0  0
   33.6510   32.0340   37.1000 N   0  0  0  0  0  0  0  0  0  0  0  0
   35.5750   32.9060   37.4850 H   0  0  0  0  0  0  0  0  0  0  0  0
   36.6810   31.6000   35.6940 H   0  0  0  0  0  0  0  0  0  0  0  0
   31.8910   31.0110   36.4980 H   0  0  0  0  0  0  0  0  0  0  0  0
  1  6  1  0  0  0  0
  2  8  1  1  0  0  0
  2  1  1  0  0  0  0
  3  4  1  0  0  0  0
  3  2  1  0  0  0  0
  4  5  1  0  0  0  0
  5 11  1  0  0  0  0
  5  6  1  0  0  0  0
  6 13  1  1  0  0  0
  6 14  1  0  0  0  0
  7  1  1  0  0  0  0
  9  3  1  0  0  0  0
 10  3  1  0  0  0  0
 12  5  1  0  0  0  0
 14 15  2  0  0  0  0
 14 24  1  0  0  0  0
 15 17  1  0  0  0  0
 16 15  1  0  0  0  0
 17 18  2  0  0  0  0
 19 18  1  0  0  0  0
 19 20  1  0  0  0  0
 21 20  2  0  0  0  0
 22 21  1  0  0  0  0
 23 24  1  0  0  0  0
 23 22  2  0  0  0  0
 24 19  2  0  0  0  0
 25 31  1  0  0  0  0
 25  2  1  0  0  0  0
 26 27  1  0  0  0  0
 27 28  2  0  0  0  0
 27 41  1  0  0  0  0
 28 36  1  0  0  0  0
 29 30  1  0  0  0  0
 29 28  1  0  0  0  0
 30 37  1  0  0  0  0
 31 30  1  0  0  0  0
 32 33  1  0  0  0  0
 32 31  2  0  0  0  0
 33 29  2  0  0  0  0
 34 33  1  0  0  0  0
 34 26  2  0  0  0  0
 35 26  1  0  0  0  0
 38 34  1  0  0  0  0
 39 44  1  0  0  0  0
 39 45  1  0  0  0  0
 40 39  2  0  0  0  0
 41 42  2  0  0  0  0
 41 40  1  0  0  0  0
 42 43  1  0  0  0  0
 43 47  1  0  0  0  0
 43 44  2  0  0  0  0
 46 40  1  0  0  0  0
M  END
>  <minimizedAffinity>
-7.45307875

$$$$

 OpenBabel03272510283D

 47 52  0  0  1  0  0  0  0  0999 V2000
   36.3380   29.7160   31.8890 N   0  0  0  0  0  0  0  0  0  0  0  0
   36.1950   29.3650   30.4760 C   0  0  1  0  0  0  0  0  0  0  0  0
   37.0180   30.2480   29.6620 C   0  0  0  0  0  0  0  0  0  0  0  0
   36.5530   31.5660   29.7930 O   0  0  0  0  0  0  0  0  0  0  0  0
   36.4690   32.0230   31.0910 C   0  0  0  0  0  0  0  0  0  0  0  0
   35.7420   31.0320   31.9790 C   0  0  2  0  0  0  0  0  0  0  0  0
   37.2910   29.8500   32.1980 H   0  0  0  0  0  0  0  0  0  0  0  0
   35.1230   29.5140   30.2490 H   0  0  0  0  0  0  0  0  0  0  0  0
   36.7950   30.0050   28.5770 H   0  0  0  0  0  0  0  0  0  0  0  0
   38.0680   30.3460   29.7320 H   0  0  0  0  0  0  0  0  0  0  0  0
   35.9130   32.9640   31.0650 H   0  0  0  0  0  0  0  0  0  0  0  0
   37.5000   32.1250   31.4950 H   0  0  0  0  0  0  0  0  0  0  0  0
   34.7250   30.8770   31.5580 H   0  0  0  0  0  0  0  0  0  0  0  0
   35.7650   31.4590   33.3750 C   0  0  0  0  0  0  0  0  0  0  0  0
   35.1990   30.8260   34.4480 C   0  0  0  0  0  0  0  0  0  0  0  0
   34.6660   29.8980   34.3010 H   0  0  0  0  0  0  0  0  0  0  0  0
   35.2260   31.2510   35.7580 C   0  0  0  0  0  3  0  0  0  0  0  0
   35.8800   32.4260   36.0610 C   0  0  0  0  0  3  0  0  0  0  0  0
   36.4740   33.1130   35.0220 C   0  0  0  0  0  0  0  0  0  0  0  0
   37.1160   34.2780   35.3770 C   0  0  0  0  0  3  0  0  0  0  0  0
   37.7410   35.0320   34.4050 C   0  0  0  0  0  3  0  0  0  0  0  0
   37.7100   34.6020   33.0940 C   0  0  0  0  0  3  0  0  0  0  0  0
   37.0590   33.4420   32.8110 C   0  0  0  0  0  3  0  0  0  0  0  0
   36.4090   32.6290   33.7150 C   0  0  0  0  0  0  0  0  0  0  0  0
   36.6190   28.0170   30.3560 O   0  0  0  0  0  0  0  0  0  0  0  0
   40.0820   26.1140   34.7350 C   0  0  0  0  0  0  0  0  0  0  0  0
   38.9370   25.4190   35.0780 C   0  0  0  0  0  0  0  0  0  0  0  0
   37.7650   25.5350   34.3150 C   0  0  0  0  0  0  0  0  0  0  0  0
   37.8430   26.3810   33.2160 C   0  0  0  0  0  0  0  0  0  0  0  0
   36.8380   26.6540   32.3190 N   0  0  0  0  0  0  0  0  0  0  0  0
   37.3590   27.5140   31.4270 C   0  0  0  0  0  0  0  0  0  0  0  0
   38.6090   27.7700   31.7350 N   0  0  0  0  0  0  0  0  0  0  0  0
   38.9560   27.0880   32.8380 C   0  0  0  0  0  0  0  0  0  0  0  0
   40.1070   26.9480   33.6260 C   0  0  0  0  0  0  0  0  0  0  0  0
   41.0060   26.0570   35.2910 H   0  0  0  0  0  0  0  0  0  0  0  0
   36.8660   24.9980   34.5730 H   0  0  0  0  0  0  0  0  0  0  0  0
   35.8640   26.2580   32.3470 H   0  0  0  0  0  0  0  0  0  0  0  0
   40.9880   27.5030   33.3340 H   0  0  0  0  0  0  0  0  0  0  0  0
   39.7190   22.7650   37.6290 C   0  0  0  0  0  0  0  0  0  0  0  0
   39.8100   23.4970   36.4490 C   0  0  0  0  0  0  0  0  0  0  0  0
   38.9680   24.5610   36.2460 C   0  0  0  0  0  0  0  0  0  0  0  0
   38.0630   24.8480   37.2470 N   0  0  0  0  0  0  0  0  0  0  0  0
   37.9820   24.1330   38.3860 C   0  0  0  0  0  0  0  0  0  0  0  0
   38.7980   23.1120   38.5680 N   0  0  0  0  0  0  0  0  0  0  0  0
   40.3970   21.9330   37.7540 H   0  0  0  0  0  0  0  0  0  0  0  0
   40.5120   23.2730   35.6740 H   0  0  0  0  0  0  0  0  0  0  0  0
   37.2340   24.4410   39.1130 H   0  0  0  0  0  0  0  0  0  0  0  0
  1  6  1  0  0  0  0
  1  7  1  0  0  0  0
  2  8  1  6  0  0  0
  2  1  1  0  0  0  0
  3 10  1  0  0  0  0
  3  4  1  0  0  0  0
  3  2  1  0  0  0  0
  4  5  1  0  0  0  0
  5 12  1  0  0  0  0
  5  6  1  0  0  0  0
  6 13  1  6  0  0  0
  6 14  1  0  0  0  0
  9  3  1  0  0  0  0
 11  5  1  0  0  0  0
 14 24  2  0  0  0  0
 14 15  1  0  0  0  0
 15 17  2  0  0  0  0
 16 15  1  0  0  0  0
 17 18  1  0  0  0  0
 19 20  1  0  0  0  0
 19 18  2  0  0  0  0
 21 20  2  0  0  0  0
 22 21  1  0  0  0  0
 23 22  2  0  0  0  0
 23 24  1  0  0  0  0
 24 19  1  0  0  0  0
 25  2  1  0  0  0  0
 25 31  1  0  0  0  0
 26 27  1  0  0  0  0
 26 35  1  0  0  0  0
 27 41  1  0  0  0  0
 28 36  1  0  0  0  0
 28 27  2  0  0  0  0
 29 28  1  0  0  0  0
 30 37  1  0  0  0  0
 30 29  1  0  0  0  0
 31 32  2  0  0  0  0
 31 30  1  0  0  0  0
 32 33  1  0  0  0  0
 33 29  2  0  0  0  0
 33 34  1  0  0  0  0
 34 26  2  0  0  0  0
 38 34  1  0  0  0  0
 39 45  1  0  0  0  0
 39 44  1  0  0  0  0
 40 39  2  0  0  0  0
 41 40  1  0  0  0  0
 41 42  2  0  0  0  0
 42 43  1  0  0  0  0
 43 44  2  0  0  0  0
 43 47  1  0  0  0  0
 46 40  1  0  0  0  0
M  END
>  <minimizedAffinity>
-7.2515645

$$$$

 OpenBabel03272510283D

 47 52  0  0  1  0  0  0  0  0999 V2000
   35.8110   29.8230   32.3200 N   0  0  0  0  0  0  0  0  0  0  0  0
   35.7900   29.6370   30.8690 C   0  0  1  0  0  0  0  0  0  0  0  0
   36.6900   30.5910   30.2370 C   0  0  0  0  0  0  0  0  0  0  0  0
   36.2270   31.8940   30.4780 O   0  0  0  0  0  0  0  0  0  0  0  0
   36.0340   32.2020   31.8070 C   0  0  0  0  0  0  0  0  0  0  0  0
   35.2220   31.1310   32.5090 C   0  0  2  0  0  0  0  0  0  0  0  0
   36.7340   29.9020   32.7230 H   0  0  0  0  0  0  0  0  0  0  0  0
   34.7430   29.8320   30.5690 H   0  0  0  0  0  0  0  0  0  0  0  0
   36.5610   30.4770   29.1150 H   0  0  0  0  0  0  0  0  0  0  0  0
   37.7300   30.6600   30.4080 H   0  0  0  0  0  0  0  0  0  0  0  0
   35.4910   33.1510   31.8420 H   0  0  0  0  0  0  0  0  0  0  0  0
   37.0260   32.2380   32.3080 H   0  0  0  0  0  0  0  0  0  0  0  0
   34.2440   31.0450   31.9870 H   0  0  0  0  0  0  0  0  0  0  0  0
   35.1250   31.3960   33.9420 C   0  0  0  0  0  0  0  0  0  0  0  0
   36.0630   31.9860   34.7440 C   0  0  0  0  0  0  0  0  0  0  0  0
   36.9980   32.3180   34.3180 H   0  0  0  0  0  0  0  0  0  0  0  0
   35.9540   32.2200   36.0980 C   0  0  0  0  0  3  0  0  0  0  0  0
   34.7990   31.8360   36.7460 C   0  0  0  0  0  3  0  0  0  0  0  0
   33.8130   31.2340   35.9920 C   0  0  0  0  0  0  0  0  0  0  0  0
   32.6800   30.8720   36.6860 C   0  0  0  0  0  3  0  0  0  0  0  0
   31.6390   30.2650   36.0150 C   0  0  0  0  0  3  0  0  0  0  0  0
   31.7530   30.0340   34.6590 C   0  0  0  0  0  3  0  0  0  0  0  0
   32.8990   30.4160   34.0350 C   0  0  0  0  0  3  0  0  0  0  0  0
   33.9860   31.0250   34.6230 C   0  0  0  0  0  0  0  0  0  0  0  0
   36.2090   28.3040   30.6320 O   0  0  0  0  0  0  0  0  0  0  0  0
   39.9610   26.1030   34.6170 C   0  0  0  0  0  0  0  0  0  0  0  0
   38.8100   25.4880   35.0740 C   0  0  0  0  0  0  0  0  0  0  0  0
   37.5770   25.6970   34.4380 C   0  0  0  0  0  0  0  0  0  0  0  0
   37.6010   26.5490   33.3410 C   0  0  0  0  0  0  0  0  0  0  0  0
   36.5320   26.9050   32.5560 N   0  0  0  0  0  0  0  0  0  0  0  0
   37.0180   27.7360   31.6170 C   0  0  0  0  0  0  0  0  0  0  0  0
   38.3080   27.8970   31.7940 N   0  0  0  0  0  0  0  0  0  0  0  0
   38.7180   27.1790   32.8520 C   0  0  0  0  0  0  0  0  0  0  0  0
   39.9310   26.9460   33.5150 C   0  0  0  0  0  0  0  0  0  0  0  0
   40.9310   25.9720   35.0720 H   0  0  0  0  0  0  0  0  0  0  0  0
   36.6730   25.2240   34.7860 H   0  0  0  0  0  0  0  0  0  0  0  0
   35.5390   26.5800   32.6830 H   0  0  0  0  0  0  0  0  0  0  0  0
   40.8150   27.4400   33.1340 H   0  0  0  0  0  0  0  0  0  0  0  0
   39.7240   22.8080   37.5530 C   0  0  0  0  0  0  0  0  0  0  0  0
   39.7570   23.5560   36.3800 C   0  0  0  0  0  0  0  0  0  0  0  0
   38.9000   24.6160   36.2280 C   0  0  0  0  0  0  0  0  0  0  0  0
   38.0390   24.8840   37.2720 N   0  0  0  0  0  0  0  0  0  0  0  0
   38.0140   24.1540   38.4050 C   0  0  0  0  0  0  0  0  0  0  0  0
   38.8440   23.1370   38.5380 N   0  0  0  0  0  0  0  0  0  0  0  0
   40.4130   21.9800   37.6370 H   0  0  0  0  0  0  0  0  0  0  0  0
   40.4250   23.3460   35.5710 H   0  0  0  0  0  0  0  0  0  0  0  0
   37.2980   24.4470   39.1690 H   0  0  0  0  0  0  0  0  0  0  0  0
  1  6  1  0  0  0  0
  1  7  1  0  0  0  0
  2  8  1  6  0  0  0
  2  1  1  0  0  0  0
  3 10  1  0  0  0  0
  3  4  1  0  0  0  0
  3  2  1  0  0  0  0
  4  5  1  0  0  0  0
  5 11  1  0  0  0  0
  5 12  1  0  0  0  0
  5  6  1  0  0  0  0
  6 13  1  6  0  0  0
  6 14  1  0  0  0  0
  9  3  1  0  0  0  0
 14 24  2  0  0  0  0
 14 15  1  0  0  0  0
 15 17  2  0  0  0  0
 16 15  1  0  0  0  0
 17 18  1  0  0  0  0
 19 20  1  0  0  0  0
 19 18  2  0  0  0  0
 21 20  2  0  0  0  0
 22 21  1  0  0  0  0
 23 24  1  0  0  0  0
 23 22  2  0  0  0  0
 24 19  1  0  0  0  0
 25  2  1  0  0  0  0
 25 31  1  0  0  0  0
 26 35  1  0  0  0  0
 26 27  1  0  0  0  0
 27 41  1  0  0  0  0
 28 36  1  0  0  0  0
 28 27  2  0  0  0  0
 29 28  1  0  0  0  0
 30 37  1  0  0  0  0
 30 29  1  0  0  0  0
 31 32  2  0  0  0  0
 31 30  1  0  0  0  0
 32 33  1  0  0  0  0
 33 29  2  0  0  0  0
 33 34  1  0  0  0  0
 34 26  2  0  0  0  0
 38 34  1  0  0  0  0
 39 45  1  0  0  0  0
 39 44  1  0  0  0  0
 40 39  2  0  0  0  0
 41 40  1  0  0  0  0
 41 42  2  0  0  0  0
 42 43  1  0  0  0  0
 43 44  2  0  0  0  0
 43 47  1  0  0  0  0
 46 40  1  0  0  0  0
M  END
>  <minimizedAffinity>
-7.21126699

$$$$

 OpenBabel03272510283D

 47 52  0  0  1  0  0  0  0  0999 V2000
   34.3830   29.6560   32.9410 N   0  0  0  0  0  0  0  0  0  0  0  0
   34.8980   29.7880   31.5780 C   0  0  1  0  0  0  0  0  0  0  0  0
   34.5760   31.1080   31.0550 C   0  0  0  0  0  0  0  0  0  0  0  0
   33.1820   31.2440   30.9680 O   0  0  0  0  0  0  0  0  0  0  0  0
   32.5030   30.9970   32.1420 C   0  0  0  0  0  0  0  0  0  0  0  0
   32.9460   29.6920   32.7720 C   0  0  2  0  0  0  0  0  0  0  0  0
   34.5850   30.4390   33.5480 H   0  0  0  0  0  0  0  0  0  0  0  0
   34.3800   29.0020   30.9970 H   0  0  0  0  0  0  0  0  0  0  0  0
   34.9030   31.1240   29.9690 H   0  0  0  0  0  0  0  0  0  0  0  0
   34.8910   32.0270   31.4700 H   0  0  0  0  0  0  0  0  0  0  0  0
   31.4400   30.9380   31.8930 H   0  0  0  0  0  0  0  0  0  0  0  0
   32.7470   31.8070   32.8660 H   0  0  0  0  0  0  0  0  0  0  0  0
   32.7590   28.8770   32.0390 H   0  0  0  0  0  0  0  0  0  0  0  0
   32.3190   29.4940   34.0750 C   0  0  0  0  0  0  0  0  0  0  0  0
   31.3410   28.5960   34.4010 C   0  0  0  0  0  0  0  0  0  0  0  0
   30.9550   27.9280   33.6450 H   0  0  0  0  0  0  0  0  0  0  0  0
   30.7570   28.4310   35.6390 C   0  0  0  0  0  3  0  0  0  0  0  0
   31.1740   29.2330   36.6800 C   0  0  0  0  0  3  0  0  0  0  0  0
   32.1600   30.1600   36.4170 C   0  0  0  0  0  0  0  0  0  0  0  0
   32.5420   30.9340   37.4910 C   0  0  0  0  0  3  0  0  0  0  0  0
   33.5250   31.8870   37.3240 C   0  0  0  0  0  3  0  0  0  0  0  0
   34.1060   32.0480   36.0830 C   0  0  0  0  0  3  0  0  0  0  0  0
   33.6820   31.2520   35.0650 C   0  0  0  0  0  3  0  0  0  0  0  0
   32.7110   30.2770   35.1400 C   0  0  0  0  0  0  0  0  0  0  0  0
   36.3010   29.6000   31.6620 O   0  0  0  0  0  0  0  0  0  0  0  0
   38.0450   24.3720   33.7680 C   0  0  0  0  0  0  0  0  0  0  0  0
   38.0530   25.0740   34.9590 C   0  0  0  0  0  0  0  0  0  0  0  0
   37.7010   26.4310   35.0020 C   0  0  0  0  0  0  0  0  0  0  0  0
   37.3500   27.0020   33.7850 C   0  0  0  0  0  0  0  0  0  0  0  0
   36.9650   28.3020   33.5690 N   0  0  0  0  0  0  0  0  0  0  0  0
   36.7200   28.4060   32.2520 C   0  0  0  0  0  0  0  0  0  0  0  0
   36.9350   27.2490   31.6690 N   0  0  0  0  0  0  0  0  0  0  0  0
   37.3260   26.3450   32.5800 C   0  0  0  0  0  0  0  0  0  0  0  0
   37.6870   24.9900   32.5780 C   0  0  0  0  0  0  0  0  0  0  0  0
   38.3080   23.3290   33.6860 H   0  0  0  0  0  0  0  0  0  0  0  0
   37.7040   26.9880   35.9250 H   0  0  0  0  0  0  0  0  0  0  0  0
   36.8860   29.0510   34.3050 H   0  0  0  0  0  0  0  0  0  0  0  0
   37.6700   24.4670   31.6310 H   0  0  0  0  0  0  0  0  0  0  0  0
   38.2880   23.7260   38.4650 C   0  0  0  0  0  0  0  0  0  0  0  0
   37.8010   24.4590   37.3870 C   0  0  0  0  0  0  0  0  0  0  0  0
   38.4340   24.3780   36.1730 C   0  0  0  0  0  0  0  0  0  0  0  0
   39.5400   23.5570   36.0920 N   0  0  0  0  0  0  0  0  0  0  0  0
   40.0040   22.8510   37.1420 C   0  0  0  0  0  0  0  0  0  0  0  0
   39.3850   22.9380   38.3040 N   0  0  0  0  0  0  0  0  0  0  0  0
   37.7640   23.8140   39.4060 H   0  0  0  0  0  0  0  0  0  0  0  0
   36.9440   25.0950   37.4510 H   0  0  0  0  0  0  0  0  0  0  0  0
   40.8830   22.2320   36.9740 H   0  0  0  0  0  0  0  0  0  0  0  0
  1  7  1  0  0  0  0
  2  8  1  6  0  0  0
  2 25  1  0  0  0  0
  2  1  1  0  0  0  0
  3 10  1  0  0  0  0
  3  2  1  0  0  0  0
  4  3  1  0  0  0  0
  4  5  1  0  0  0  0
  5  6  1  0  0  0  0
  5 12  1  0  0  0  0
  6 13  1  6  0  0  0
  6  1  1  0  0  0  0
  6 14  1  0  0  0  0
  9  3  1  0  0  0  0
 11  5  1  0  0  0  0
 14 15  2  0  0  0  0
 14 24  1  0  0  0  0
 15 17  1  0  0  0  0
 16 15  1  0  0  0  0
 17 18  2  0  0  0  0
 19 18  1  0  0  0  0
 19 20  1  0  0  0  0
 21 20  2  0  0  0  0
 22 21  1  0  0  0  0
 23 24  1  0  0  0  0
 23 22  2  0  0  0  0
 24 19  2  0  0  0  0
 25 31  1  0  0  0  0
 26 27  1  0  0  0  0
 27 28  2  0  0  0  0
 27 41  1  0  0  0  0
 28 36  1  0  0  0  0
 29 28  1  0  0  0  0
 30 29  1  0  0  0  0
 30 37  1  0  0  0  0
 31 30  1  0  0  0  0
 32 31  2  0  0  0  0
 32 33  1  0  0  0  0
 33 29  2  0  0  0  0
 34 33  1  0  0  0  0
 34 26  2  0  0  0  0
 35 26  1  0  0  0  0
 38 34  1  0  0  0  0
 39 45  1  0  0  0  0
 40 46  1  0  0  0  0
 40 39  2  0  0  0  0
 41 40  1  0  0  0  0
 42 41  2  0  0  0  0
 42 43  1  0  0  0  0
 43 44  2  0  0  0  0
 44 39  1  0  0  0  0
 47 43  1  0  0  0  0
M  END
>  <minimizedAffinity>
-7.18222237

$$$$

 OpenBabel03272510283D

 47 52  0  0  1  0  0  0  0  0999 V2000
   35.4370   29.1230   33.0760 N   0  0  0  0  0  0  0  0  0  0  0  0
   36.0500   28.8850   31.7690 C   0  0  1  0  0  0  0  0  0  0  0  0
   36.2170   30.1470   31.0660 C   0  0  0  0  0  0  0  0  0  0  0  0
   34.9550   30.7090   30.8160 O   0  0  0  0  0  0  0  0  0  0  0  0
   34.1610   30.8650   31.9320 C   0  0  0  0  0  0  0  0  0  0  0  0
   34.1060   29.5910   32.7520 C   0  0  2  0  0  0  0  0  0  0  0  0
   35.8480   29.8790   33.6060 H   0  0  0  0  0  0  0  0  0  0  0  0
   35.3380   28.2300   31.2320 H   0  0  0  0  0  0  0  0  0  0  0  0
   36.5970   29.9010   30.0250 H   0  0  0  0  0  0  0  0  0  0  0  0
   36.7920   30.9670   31.4030 H   0  0  0  0  0  0  0  0  0  0  0  0
   33.1560   31.1130   31.5790 H   0  0  0  0  0  0  0  0  0  0  0  0
   34.6130   31.6490   32.5780 H   0  0  0  0  0  0  0  0  0  0  0  0
   33.7050   28.7820   32.1030 H   0  0  0  0  0  0  0  0  0  0  0  0
   33.3690   29.7960   33.9960 C   0  0  0  0  0  0  0  0  0  0  0  0
   32.1700   29.2430   34.3530 C   0  0  0  0  0  0  0  0  0  0  0  0
   31.6690   28.5680   33.6750 H   0  0  0  0  0  0  0  0  0  0  0  0
   31.4870   29.4560   35.5310 C   0  0  0  0  0  3  0  0  0  0  0  0
   32.0350   30.3030   36.4710 C   0  0  0  0  0  3  0  0  0  0  0  0
   33.2460   30.8920   36.1720 C   0  0  0  0  0  0  0  0  0  0  0  0
   33.7510   31.7270   37.1440 C   0  0  0  0  0  3  0  0  0  0  0  0
   34.9590   32.3590   36.9350 C   0  0  0  0  0  3  0  0  0  0  0  0
   35.6380   32.1420   35.7530 C   0  0  0  0  0  3  0  0  0  0  0  0
   35.0840   31.3060   34.8350 C   0  0  0  0  0  3  0  0  0  0  0  0
   33.8860   30.6350   34.9590 C   0  0  0  0  0  0  0  0  0  0  0  0
   37.3030   28.2710   32.0240 O   0  0  0  0  0  0  0  0  0  0  0  0
   37.9590   22.5820   30.6060 C   0  0  0  0  0  0  0  0  0  0  0  0
   36.8460   22.4540   31.4160 C   0  0  0  0  0  0  0  0  0  0  0  0
   36.2670   23.5720   32.0340 C   0  0  0  0  0  0  0  0  0  0  0  0
   36.8840   24.7900   31.7750 C   0  0  0  0  0  0  0  0  0  0  0  0
   36.5050   26.0190   32.2560 N   0  0  0  0  0  0  0  0  0  0  0  0
   37.3780   26.9050   31.7480 C   0  0  0  0  0  0  0  0  0  0  0  0
   38.2540   26.2810   30.9940 N   0  0  0  0  0  0  0  0  0  0  0  0
   37.9870   24.9660   30.9790 C   0  0  0  0  0  0  0  0  0  0  0  0
   38.5380   23.8240   30.3800 C   0  0  0  0  0  0  0  0  0  0  0  0
   38.4380   21.7520   30.1100 H   0  0  0  0  0  0  0  0  0  0  0  0
   35.4000   23.4830   32.6680 H   0  0  0  0  0  0  0  0  0  0  0  0
   35.6900   26.2060   32.8960 H   0  0  0  0  0  0  0  0  0  0  0  0
   39.4080   23.9550   29.7510 H   0  0  0  0  0  0  0  0  0  0  0  0
   34.5880   19.5230   32.1060 C   0  0  0  0  0  0  0  0  0  0  0  0
   34.9820   20.8480   31.9480 C   0  0  0  0  0  0  0  0  0  0  0  0
   36.2820   21.1330   31.6160 C   0  0  0  0  0  0  0  0  0  0  0  0
   37.1390   20.0650   31.4540 N   0  0  0  0  0  0  0  0  0  0  0  0
   36.7490   18.7840   31.6080 C   0  0  0  0  0  0  0  0  0  0  0  0
   35.4950   18.5240   31.9280 N   0  0  0  0  0  0  0  0  0  0  0  0
   33.5570   19.3360   32.3670 H   0  0  0  0  0  0  0  0  0  0  0  0
   34.3160   21.6750   32.0740 H   0  0  0  0  0  0  0  0  0  0  0  0
   37.5020   18.0140   31.4580 H   0  0  0  0  0  0  0  0  0  0  0  0
  1  7  1  0  0  0  0
  2  8  1  6  0  0  0
  2 25  1  0  0  0  0
  2  1  1  0  0  0  0
  3 10  1  0  0  0  0
  3  2  1  0  0  0  0
  4  3  1  0  0  0  0
  4  5  1  0  0  0  0
  5 12  1  0  0  0  0
  5  6  1  0  0  0  0
  6 13  1  6  0  0  0
  6  1  1  0  0  0  0
  6 14  1  0  0  0  0
  9  3  1  0  0  0  0
 11  5  1  0  0  0  0
 14 15  2  0  0  0  0
 14 24  1  0  0  0  0
 15 17  1  0  0  0  0
 16 15  1  0  0  0  0
 17 18  2  0  0  0  0
 19 18  1  0  0  0  0
 19 20  1  0  0  0  0
 21 20  2  0  0  0  0
 22 21  1  0  0  0  0
 23 24  1  0  0  0  0
 23 22  2  0  0  0  0
 24 19  2  0  0  0  0
 26 27  1  0  0  0  0
 27 41  1  0  0  0  0
 27 28  2  0  0  0  0
 28 36  1  0  0  0  0
 29 28  1  0  0  0  0
 29 30  1  0  0  0  0
 30 37  1  0  0  0  0
 31 25  1  0  0  0  0
 31 30  1  0  0  0  0
 32 31  2  0  0  0  0
 33 32  1  0  0  0  0
 33 29  2  0  0  0  0
 34 26  2  0  0  0  0
 34 33  1  0  0  0  0
 35 26  1  0  0  0  0
 38 34  1  0  0  0  0
 39 45  1  0  0  0  0
 40 46  1  0  0  0  0
 40 39  1  0  0  0  0
 41 40  2  0  0  0  0
 42 43  2  0  0  0  0
 42 41  1  0  0  0  0
 43 44  1  0  0  0  0
 44 39  2  0  0  0  0
 47 43  1  0  0  0  0
M  END
>  <minimizedAffinity>
-7.15441704

$$$$

 OpenBabel03272510283D

 47 52  0  0  1  0  0  0  0  0999 V2000
   38.4770   24.7920   33.4300 N   0  0  0  0  0  0  0  0  0  0  0  0
   38.3510   24.7450   31.9740 C   0  0  1  0  0  0  0  0  0  0  0  0
   37.0680   24.1630   31.6080 C   0  0  0  0  0  0  0  0  0  0  0  0
   37.0200   22.8330   32.0540 O   0  0  0  0  0  0  0  0  0  0  0  0
   37.2750   22.6640   33.3980 C   0  0  0  0  0  0  0  0  0  0  0  0
   38.5340   23.3980   33.8170 C   0  0  2  0  0  0  0  0  0  0  0  0
   37.6670   25.1540   33.9140 H   0  0  0  0  0  0  0  0  0  0  0  0
   39.1830   24.1000   31.6330 H   0  0  0  0  0  0  0  0  0  0  0  0
   37.0620   24.0540   30.4790 H   0  0  0  0  0  0  0  0  0  0  0  0
   36.1210   24.5490   31.8720 H   0  0  0  0  0  0  0  0  0  0  0  0
   37.4060   21.5920   33.5680 H   0  0  0  0  0  0  0  0  0  0  0  0
   36.4340   23.1070   33.9740 H   0  0  0  0  0  0  0  0  0  0  0  0
   39.3790   23.0030   33.2100 H   0  0  0  0  0  0  0  0  0  0  0  0
   38.7330   23.3230   35.2610 C   0  0  0  0  0  0  0  0  0  0  0  0
   37.9250   23.8320   36.2400 C   0  0  0  0  0  0  0  0  0  0  0  0
   37.0210   24.3560   35.9680 H   0  0  0  0  0  0  0  0  0  0  0  0
   38.1370   23.7560   37.6000 C   0  0  0  0  0  3  0  0  0  0  0  0
   39.2640   23.1090   38.0600 C   0  0  0  0  0  3  0  0  0  0  0  0
   40.1200   22.5710   37.1220 C   0  0  0  0  0  0  0  0  0  0  0  0
   41.2290   21.9340   37.6330 C   0  0  0  0  0  3  0  0  0  0  0  0
   42.1410   21.3640   36.7710 C   0  0  0  0  0  3  0  0  0  0  0  0
   41.9250   21.4430   35.4100 C   0  0  0  0  0  3  0  0  0  0  0  0
   40.8100   22.0870   34.9710 C   0  0  0  0  0  3  0  0  0  0  0  0
   39.8490   22.6840   35.7580 C   0  0  0  0  0  0  0  0  0  0  0  0
   38.4510   26.0860   31.5220 O   0  0  0  0  0  0  0  0  0  0  0  0
   34.1510   29.7600   33.2000 C   0  0  0  0  0  0  0  0  0  0  0  0
   34.9310   29.8400   34.3380 C   0  0  0  0  0  0  0  0  0  0  0  0
   36.1260   29.1150   34.4500 C   0  0  0  0  0  0  0  0  0  0  0  0
   36.4580   28.3280   33.3540 C   0  0  0  0  0  0  0  0  0  0  0  0
   37.5720   27.5350   33.2220 N   0  0  0  0  0  0  0  0  0  0  0  0
   37.4830   26.9650   32.0080 C   0  0  0  0  0  0  0  0  0  0  0  0
   36.3860   27.3690   31.4090 N   0  0  0  0  0  0  0  0  0  0  0  0
   35.7170   28.2180   32.2050 C   0  0  0  0  0  0  0  0  0  0  0  0
   34.5280   28.9570   32.1320 C   0  0  0  0  0  0  0  0  0  0  0  0
   33.2250   30.2980   33.0680 H   0  0  0  0  0  0  0  0  0  0  0  0
   36.7420   29.1700   35.3340 H   0  0  0  0  0  0  0  0  0  0  0  0
   38.3300   27.4120   33.9420 H   0  0  0  0  0  0  0  0  0  0  0  0
   33.9390   28.8740   31.2280 H   0  0  0  0  0  0  0  0  0  0  0  0
   34.6780   32.3870   37.0980 C   0  0  0  0  0  0  0  0  0  0  0  0
   35.2460   31.6400   36.0700 C   0  0  0  0  0  0  0  0  0  0  0  0
   34.4900   30.6960   35.4230 C   0  0  0  0  0  0  0  0  0  0  0  0
   33.1840   30.5410   35.8380 N   0  0  0  0  0  0  0  0  0  0  0  0
   32.6430   31.2700   36.8340 C   0  0  0  0  0  0  0  0  0  0  0  0
   33.3810   32.1750   37.4490 N   0  0  0  0  0  0  0  0  0  0  0  0
   35.3030   33.1210   37.5850 H   0  0  0  0  0  0  0  0  0  0  0  0
   36.2590   31.7610   35.7500 H   0  0  0  0  0  0  0  0  0  0  0  0
   31.6030   31.0720   37.0860 H   0  0  0  0  0  0  0  0  0  0  0  0
  1  6  1  0  0  0  0
  1  7  1  0  0  0  0
  2  8  1  6  0  0  0
  2  1  1  0  0  0  0
  3 10  1  0  0  0  0
  3  2  1  0  0  0  0
  3  4  1  0  0  0  0
  4  5  1  0  0  0  0
  5 11  1  0  0  0  0
  5  6  1  0  0  0  0
  5 12  1  0  0  0  0
  6 13  1  6  0  0  0
  6 14  1  0  0  0  0
  9  3  1  0  0  0  0
 14 24  2  0  0  0  0
 14 15  1  0  0  0  0
 15 17  2  0  0  0  0
 16 15  1  0  0  0  0
 17 18  1  0  0  0  0
 19 20  1  0  0  0  0
 19 18  2  0  0  0  0
 21 20  2  0  0  0  0
 22 21  1  0  0  0  0
 23 22  2  0  0  0  0
 23 24  1  0  0  0  0
 24 19  1  0  0  0  0
 25  2  1  0  0  0  0
 25 31  1  0  0  0  0
 26 27  1  0  0  0  0
 27 28  2  0  0  0  0
 27 41  1  0  0  0  0
 28 36  1  0  0  0  0
 29 28  1  0  0  0  0
 30 29  1  0  0  0  0
 30 37  1  0  0  0  0
 31 30  1  0  0  0  0
 32 31  2  0  0  0  0
 32 33  1  0  0  0  0
 33 29  2  0  0  0  0
 34 33  1  0  0  0  0
 34 26  2  0  0  0  0
 35 26  1  0  0  0  0
 38 34  1  0  0  0  0
 39 44  1  0  0  0  0
 39 45  1  0  0  0  0
 40 39  2  0  0  0  0
 41 42  2  0  0  0  0
 41 40  1  0  0  0  0
 42 43  1  0  0  0  0
 43 47  1  0  0  0  0
 43 44  2  0  0  0  0
 46 40  1  0  0  0  0
M  END
>  <minimizedAffinity>
-7.09416866

$$$$

 OpenBabel03272510283D

 47 52  0  0  1  0  0  0  0  0999 V2000
   36.1100   30.3230   32.5350 N   0  0  0  0  0  0  0  0  0  0  0  0
   35.9920   29.9270   31.1320 C   0  0  1  0  0  0  0  0  0  0  0  0
   35.9050   31.1120   30.2910 C   0  0  0  0  0  0  0  0  0  0  0  0
   34.7330   31.8180   30.6050 O   0  0  0  0  0  0  0  0  0  0  0  0
   34.5940   32.1440   31.9370 C   0  0  0  0  0  0  0  0  0  0  0  0
   34.8350   30.9410   32.8280 C   0  0  2  0  0  0  0  0  0  0  0  0
   36.7890   31.0490   32.7150 H   0  0  0  0  0  0  0  0  0  0  0  0
   35.0550   29.3400   31.0760 H   0  0  0  0  0  0  0  0  0  0  0  0
   35.7120   30.7550   29.2320 H   0  0  0  0  0  0  0  0  0  0  0  0
   36.6400   31.8690   30.2180 H   0  0  0  0  0  0  0  0  0  0  0  0
   33.5700   32.5000   32.0760 H   0  0  0  0  0  0  0  0  0  0  0  0
   35.3680   32.9000   32.1960 H   0  0  0  0  0  0  0  0  0  0  0  0
   34.1020   30.1540   32.5450 H   0  0  0  0  0  0  0  0  0  0  0  0
   34.8110   31.3150   34.2390 C   0  0  0  0  0  0  0  0  0  0  0  0
   35.7650   32.0110   34.9310 C   0  0  0  0  0  0  0  0  0  0  0  0
   36.6540   32.3500   34.4210 H   0  0  0  0  0  0  0  0  0  0  0  0
   35.7250   32.3480   36.2660 C   0  0  0  0  0  3  0  0  0  0  0  0
   34.6330   31.9650   37.0160 C   0  0  0  0  0  3  0  0  0  0  0  0
   33.6350   31.2600   36.3750 C   0  0  0  0  0  0  0  0  0  0  0  0
   32.5660   30.9030   37.1670 C   0  0  0  0  0  3  0  0  0  0  0  0
   31.5180   30.1980   36.6130 C   0  0  0  0  0  3  0  0  0  0  0  0
   31.5620   29.8630   35.2750 C   0  0  0  0  0  3  0  0  0  0  0  0
   32.6470   30.2460   34.5500 C   0  0  0  0  0  3  0  0  0  0  0  0
   33.7350   30.9500   35.0190 C   0  0  0  0  0  0  0  0  0  0  0  0
   37.1540   29.1710   30.8320 O   0  0  0  0  0  0  0  0  0  0  0  0
   37.4080   23.7290   33.0940 C   0  0  0  0  0  0  0  0  0  0  0  0
   36.6620   23.4360   31.9670 C   0  0  0  0  0  0  0  0  0  0  0  0
   36.3090   24.4400   31.0520 C   0  0  0  0  0  0  0  0  0  0  0  0
   36.7560   25.7190   31.3580 C   0  0  0  0  0  0  0  0  0  0  0  0
   36.5450   26.8590   30.6220 N   0  0  0  0  0  0  0  0  0  0  0  0
   37.1570   27.8530   31.2890 C   0  0  0  0  0  0  0  0  0  0  0  0
   37.7180   27.3770   32.3760 N   0  0  0  0  0  0  0  0  0  0  0  0
   37.4980   26.0550   32.4620 C   0  0  0  0  0  0  0  0  0  0  0  0
   37.8300   25.0250   33.3540 C   0  0  0  0  0  0  0  0  0  0  0  0
   37.7030   22.9920   33.8250 H   0  0  0  0  0  0  0  0  0  0  0  0
   35.7270   24.2230   30.1700 H   0  0  0  0  0  0  0  0  0  0  0  0
   36.0080   26.9180   29.7190 H   0  0  0  0  0  0  0  0  0  0  0  0
   38.4140   25.2840   34.2260 H   0  0  0  0  0  0  0  0  0  0  0  0
   34.8830   20.1190   31.9760 C   0  0  0  0  0  0  0  0  0  0  0  0
   35.1490   21.4500   32.2870 C   0  0  0  0  0  0  0  0  0  0  0  0
   36.2490   22.0640   31.7440 C   0  0  0  0  0  0  0  0  0  0  0  0
   37.0420   21.3100   30.9040 N   0  0  0  0  0  0  0  0  0  0  0  0
   36.7760   20.0230   30.6090 C   0  0  0  0  0  0  0  0  0  0  0  0
   35.7150   19.4430   31.1370 N   0  0  0  0  0  0  0  0  0  0  0  0
   34.0090   19.6680   32.4210 H   0  0  0  0  0  0  0  0  0  0  0  0
   34.5340   22.0320   32.9390 H   0  0  0  0  0  0  0  0  0  0  0  0
   37.4630   19.5160   29.9350 H   0  0  0  0  0  0  0  0  0  0  0  0
  1  7  1  0  0  0  0
  1  6  1  0  0  0  0
  2  8  1  6  0  0  0
  2  1  1  0  0  0  0
  3  4  1  0  0  0  0
  3  2  1  0  0  0  0
  4  5  1  0  0  0  0
  5 11  1  0  0  0  0
  5 12  1  0  0  0  0
  5  6  1  0  0  0  0
  6 13  1  6  0  0  0
  6 14  1  0  0  0  0
  9  3  1  0  0  0  0
 10  3  1  0  0  0  0
 14 15  2  0  0  0  0
 14 24  1  0  0  0  0
 15 17  1  0  0  0  0
 16 15  1  0  0  0  0
 17 18  2  0  0  0  0
 19 18  1  0  0  0  0
 19 20  1  0  0  0  0
 21 20  2  0  0  0  0
 22 21  1  0  0  0  0
 23 24  1  0  0  0  0
 23 22  2  0  0  0  0
 24 19  2  0  0  0  0
 25  2  1  0  0  0  0
 25 31  1  0  0  0  0
 26 34  1  0  0  0  0
 26 35  1  0  0  0  0
 27 26  2  0  0  0  0
 28 29  2  0  0  0  0
 28 27  1  0  0  0  0
 29 33  1  0  0  0  0
 30 31  1  0  0  0  0
 30 29  1  0  0  0  0
 31 32  2  0  0  0  0
 32 33  1  0  0  0  0
 33 34  2  0  0  0  0
 34 38  1  0  0  0  0
 36 28  1  0  0  0  0
 37 30  1  0  0  0  0
 39 40  1  0  0  0  0
 39 45  1  0  0  0  0
 40 46  1  0  0  0  0
 41 27  1  0  0  0  0
 41 40  2  0  0  0  0
 42 41  1  0  0  0  0
 43 42  2  0  0  0  0
 43 44  1  0  0  0  0
 44 39  2  0  0  0  0
 47 43  1  0  0  0  0
M  END
>  <minimizedAffinity>
-7.04053497

$$$$

 OpenBabel03272510283D

 47 52  0  0  1  0  0  0  0  0999 V2000
   36.4130   29.6860   33.0630 N   0  0  0  0  0  0  0  0  0  0  0  0
   36.3740   28.9020   31.8290 C   0  0  1  0  0  0  0  0  0  0  0  0
   36.1400   29.7810   30.6930 C   0  0  0  0  0  0  0  0  0  0  0  0
   34.8770   30.3790   30.8240 O   0  0  0  0  0  0  0  0  0  0  0  0
   34.6720   31.0420   32.0150 C   0  0  0  0  0  0  0  0  0  0  0  0
   35.0600   30.1810   33.2000 C   0  0  2  0  0  0  0  0  0  0  0  0
   36.9830   30.5190   33.0180 H   0  0  0  0  0  0  0  0  0  0  0  0
   35.5290   28.2000   31.9600 H   0  0  0  0  0  0  0  0  0  0  0  0
   36.0160   29.1200   29.7800 H   0  0  0  0  0  0  0  0  0  0  0  0
   36.7640   30.5800   30.3950 H   0  0  0  0  0  0  0  0  0  0  0  0
   33.6060   31.2800   32.0720 H   0  0  0  0  0  0  0  0  0  0  0  0
   35.3290   31.9390   32.0350 H   0  0  0  0  0  0  0  0  0  0  0  0
   34.4480   29.2530   33.1650 H   0  0  0  0  0  0  0  0  0  0  0  0
   34.9620   30.9270   34.4510 C   0  0  0  0  0  0  0  0  0  0  0  0
   35.8180   31.8870   34.9160 C   0  0  0  0  0  0  0  0  0  0  0  0
   36.6800   32.1660   34.3280 H   0  0  0  0  0  0  0  0  0  0  0  0
   35.7100   32.5760   36.1050 C   0  0  0  0  0  3  0  0  0  0  0  0
   34.6450   32.3000   36.9370 C   0  0  0  0  0  3  0  0  0  0  0  0
   33.7440   31.3410   36.5240 C   0  0  0  0  0  0  0  0  0  0  0  0
   32.6990   31.1040   37.3890 C   0  0  0  0  0  3  0  0  0  0  0  0
   31.7460   30.1630   37.0600 C   0  0  0  0  0  3  0  0  0  0  0  0
   31.8590   29.4760   35.8680 C   0  0  0  0  0  3  0  0  0  0  0  0
   32.9160   29.7580   35.0590 C   0  0  0  0  0  3  0  0  0  0  0  0
   33.9110   30.6780   35.3070 C   0  0  0  0  0  0  0  0  0  0  0  0
   37.6340   28.2590   31.7260 O   0  0  0  0  0  0  0  0  0  0  0  0
   38.5330   24.5000   36.1830 C   0  0  0  0  0  0  0  0  0  0  0  0
   39.7190   24.2850   35.5050 C   0  0  0  0  0  0  0  0  0  0  0  0
   40.0070   24.9700   34.3150 C   0  0  0  0  0  0  0  0  0  0  0  0
   39.0330   25.8600   33.8820 C   0  0  0  0  0  0  0  0  0  0  0  0
   39.0830   26.6460   32.7560 N   0  0  0  0  0  0  0  0  0  0  0  0
   37.9350   27.3450   32.7370 C   0  0  0  0  0  0  0  0  0  0  0  0
   37.2040   27.0240   33.7790 N   0  0  0  0  0  0  0  0  0  0  0  0
   37.8440   26.1060   34.5210 C   0  0  0  0  0  0  0  0  0  0  0  0
   37.5920   25.4010   35.7060 C   0  0  0  0  0  0  0  0  0  0  0  0
   38.2680   23.9970   37.1000 H   0  0  0  0  0  0  0  0  0  0  0  0
   40.9290   24.8100   33.7790 H   0  0  0  0  0  0  0  0  0  0  0  0
   39.8740   26.6780   32.0620 H   0  0  0  0  0  0  0  0  0  0  0  0
   36.6560   25.5900   36.2140 H   0  0  0  0  0  0  0  0  0  0  0  0
   41.4130   21.4960   37.3810 C   0  0  0  0  0  0  0  0  0  0  0  0
   40.3900   22.3350   36.9490 C   0  0  0  0  0  0  0  0  0  0  0  0
   40.6670   23.3330   36.0500 C   0  0  0  0  0  0  0  0  0  0  0  0
   41.9720   23.4460   35.6170 N   0  0  0  0  0  0  0  0  0  0  0  0
   42.9560   22.6290   36.0410 C   0  0  0  0  0  0  0  0  0  0  0  0
   42.6760   21.6730   36.9060 N   0  0  0  0  0  0  0  0  0  0  0  0
   41.1580   20.7220   38.0900 H   0  0  0  0  0  0  0  0  0  0  0  0
   39.3790   22.2460   37.2860 H   0  0  0  0  0  0  0  0  0  0  0  0
   43.9520   22.8010   35.6390 H   0  0  0  0  0  0  0  0  0  0  0  0
  1  6  1  0  0  0  0
  2  8  1  1  0  0  0
  2  1  1  0  0  0  0
  3  4  1  0  0  0  0
  3  2  1  0  0  0  0
  4  5  1  0  0  0  0
  5 12  1  0  0  0  0
  5 11  1  0  0  0  0
  5  6  1  0  0  0  0
  6 13  1  1  0  0  0
  6 14  1  0  0  0  0
  7  1  1  0  0  0  0
  9  3  1  0  0  0  0
 10  3  1  0  0  0  0
 14 15  2  0  0  0  0
 14 24  1  0  0  0  0
 15 17  1  0  0  0  0
 16 15  1  0  0  0  0
 17 18  2  0  0  0  0
 19 18  1  0  0  0  0
 19 20  1  0  0  0  0
 21 20  2  0  0  0  0
 22 21  1  0  0  0  0
 23 24  1  0  0  0  0
 23 22  2  0  0  0  0
 24 19  2  0  0  0  0
 25  2  1  0  0  0  0
 25 31  1  0  0  0  0
 26 35  1  0  0  0  0
 27 41  1  0  0  0  0
 27 26  2  0  0  0  0
 28 27  1  0  0  0  0
 29 28  2  0  0  0  0
 29 33  1  0  0  0  0
 30 29  1  0  0  0  0
 31 30  1  0  0  0  0
 31 32  2  0  0  0  0
 32 33  1  0  0  0  0
 33 34  2  0  0  0  0
 34 26  1  0  0  0  0
 34 38  1  0  0  0  0
 36 28  1  0  0  0  0
 37 30  1  0  0  0  0
 39 45  1  0  0  0  0
 40 46  1  0  0  0  0
 40 39  1  0  0  0  0
 41 40  2  0  0  0  0
 42 43  2  0  0  0  0
 42 41  1  0  0  0  0
 43 44  1  0  0  0  0
 44 39  2  0  0  0  0
 47 43  1  0  0  0  0
M  END
>  <minimizedAffinity>
-7.03823376

$$$$

 OpenBabel03272510283D

 47 52  0  0  1  0  0  0  0  0999 V2000
   34.6600   29.5890   32.6430 N   0  0  0  0  0  0  0  0  0  0  0  0
   35.2760   29.9050   31.3540 C   0  0  1  0  0  0  0  0  0  0  0  0
   35.2390   31.3430   31.1300 C   0  0  0  0  0  0  0  0  0  0  0  0
   33.9030   31.7650   31.0470 O   0  0  0  0  0  0  0  0  0  0  0  0
   33.1170   31.4110   32.1230 C   0  0  0  0  0  0  0  0  0  0  0  0
   33.2690   29.9400   32.4570 C   0  0  2  0  0  0  0  0  0  0  0  0
   34.9650   30.1690   33.4120 H   0  0  0  0  0  0  0  0  0  0  0  0
   34.6580   29.3780   30.6030 H   0  0  0  0  0  0  0  0  0  0  0  0
   35.6310   31.5260   30.0810 H   0  0  0  0  0  0  0  0  0  0  0  0
   35.6930   32.0720   31.7460 H   0  0  0  0  0  0  0  0  0  0  0  0
   32.0800   31.6160   31.8440 H   0  0  0  0  0  0  0  0  0  0  0  0
   33.4610   31.9830   33.0120 H   0  0  0  0  0  0  0  0  0  0  0  0
   32.9790   29.3530   31.5580 H   0  0  0  0  0  0  0  0  0  0  0  0
   32.5350   29.5960   33.6710 C   0  0  0  0  0  0  0  0  0  0  0  0
   31.5520   28.6540   33.8100 C   0  0  0  0  0  0  0  0  0  0  0  0
   31.2490   28.0670   32.9560 H   0  0  0  0  0  0  0  0  0  0  0  0
   30.8660   28.3500   34.9670 C   0  0  0  0  0  3  0  0  0  0  0  0
   31.1720   29.0410   36.1200 C   0  0  0  0  0  3  0  0  0  0  0  0
   32.1570   30.0040   36.0460 C   0  0  0  0  0  0  0  0  0  0  0  0
   32.4260   30.6630   37.2250 C   0  0  0  0  0  3  0  0  0  0  0  0
   33.3970   31.6420   37.2490 C   0  0  0  0  0  3  0  0  0  0  0  0
   34.0810   31.9420   36.0880 C   0  0  0  0  0  3  0  0  0  0  0  0
   33.7660   31.2550   34.9580 C   0  0  0  0  0  3  0  0  0  0  0  0
   32.8140   30.2650   34.8430 C   0  0  0  0  0  0  0  0  0  0  0  0
   36.6100   29.4320   31.4240 O   0  0  0  0  0  0  0  0  0  0  0  0
   37.5550   23.8350   33.0300 C   0  0  0  0  0  0  0  0  0  0  0  0
   36.5830   23.6020   32.0750 C   0  0  0  0  0  0  0  0  0  0  0  0
   35.9980   24.6600   31.3640 C   0  0  0  0  0  0  0  0  0  0  0  0
   36.4600   25.9300   31.6860 C   0  0  0  0  0  0  0  0  0  0  0  0
   36.0490   27.1170   31.1300 N   0  0  0  0  0  0  0  0  0  0  0  0
   36.7620   28.0810   31.7380 C   0  0  0  0  0  0  0  0  0  0  0  0
   37.5710   27.5430   32.6210 N   0  0  0  0  0  0  0  0  0  0  0  0
   37.4210   26.2090   32.6240 C   0  0  0  0  0  0  0  0  0  0  0  0
   37.9810   25.1250   33.3150 C   0  0  0  0  0  0  0  0  0  0  0  0
   38.0330   23.0540   33.6020 H   0  0  0  0  0  0  0  0  0  0  0  0
   35.2390   24.4890   30.6170 H   0  0  0  0  0  0  0  0  0  0  0  0
   35.3190   27.2260   30.3790 H   0  0  0  0  0  0  0  0  0  0  0  0
   38.7390   25.3380   34.0560 H   0  0  0  0  0  0  0  0  0  0  0  0
   34.8400   20.2660   32.0230 C   0  0  0  0  0  0  0  0  0  0  0  0
   35.1020   21.5880   32.3730 C   0  0  0  0  0  0  0  0  0  0  0  0
   36.1770   22.2340   31.8170 C   0  0  0  0  0  0  0  0  0  0  0  0
   36.9490   21.5190   30.9250 N   0  0  0  0  0  0  0  0  0  0  0  0
   36.6870   20.2400   30.5920 C   0  0  0  0  0  0  0  0  0  0  0  0
   35.6500   19.6300   31.1350 N   0  0  0  0  0  0  0  0  0  0  0  0
   33.9850   19.7890   32.4810 H   0  0  0  0  0  0  0  0  0  0  0  0
   34.5030   22.1400   33.0650 H   0  0  0  0  0  0  0  0  0  0  0  0
   37.3570   19.7650   29.8790 H   0  0  0  0  0  0  0  0  0  0  0  0
  1  7  1  0  0  0  0
  2  8  1  6  0  0  0
  2 25  1  0  0  0  0
  2  1  1  0  0  0  0
  3  2  1  0  0  0  0
  3 10  1  0  0  0  0
  4  3  1  0  0  0  0
  4  5  1  0  0  0  0
  5  6  1  0  0  0  0
  5 12  1  0  0  0  0
  6 13  1  6  0  0  0
  6  1  1  0  0  0  0
  6 14  1  0  0  0  0
  9  3  1  0  0  0  0
 11  5  1  0  0  0  0
 14 15  2  0  0  0  0
 14 24  1  0  0  0  0
 15 17  1  0  0  0  0
 16 15  1  0  0  0  0
 17 18  2  0  0  0  0
 19 18  1  0  0  0  0
 19 20  1  0  0  0  0
 20 21  2  0  0  0  0
 22 21  1  0  0  0  0
 23 22  2  0  0  0  0
 24 23  1  0  0  0  0
 24 19  2  0  0  0  0
 25 31  1  0  0  0  0
 26 34  1  0  0  0  0
 26 35  1  0  0  0  0
 27 26  2  0  0  0  0
 28 29  2  0  0  0  0
 28 27  1  0  0  0  0
 29 33  1  0  0  0  0
 30 29  1  0  0  0  0
 30 31  1  0  0  0  0
 31 32  2  0  0  0  0
 32 33  1  0  0  0  0
 33 34  2  0  0  0  0
 34 38  1  0  0  0  0
 36 28  1  0  0  0  0
 37 30  1  0  0  0  0
 39 40  1  0  0  0  0
 39 45  1  0  0  0  0
 40 46  1  0  0  0  0
 41 27  1  0  0  0  0
 41 40  2  0  0  0  0
 42 41  1  0  0  0  0
 43 42  2  0  0  0  0
 43 44  1  0  0  0  0
 44 39  2  0  0  0  0
 47 43  1  0  0  0  0
M  END
>  <minimizedAffinity>
-6.99719572

$$$$
