
 OpenBabel03272505173D

 44 48  0  0  1  0  0  0  0  0999 V2000
   40.1690   24.6540   32.0650 N   0  0  0  0  0  0  0  0  0  0  0  0
   41.0950   24.3780   30.9830 C   0  0  0  0  0  0  0  0  0  0  0  0
   42.4900   24.4570   31.5370 C   0  0  0  0  0  0  0  0  0  0  0  0
   42.5410   23.6410   32.7090 N   0  0  0  0  0  0  0  0  0  0  0  0
   41.7150   24.0850   33.7790 C   0  0  0  0  0  0  0  0  0  0  0  0
   40.7580   25.1650   33.2610 C   0  0  2  0  0  0  0  0  0  0  0  0
   40.9610   25.1190   30.1510 H   0  0  0  0  0  0  0  0  0  0  0  0
   40.9480   23.3260   30.6220 H   0  0  0  0  0  0  0  0  0  0  0  0
   43.1240   23.9020   30.7750 H   0  0  0  0  0  0  0  0  0  0  0  0
   42.9420   25.4400   31.5870 H   0  0  0  0  0  0  0  0  0  0  0  0
   43.5500   23.5350   32.9930 H   0  0  0  0  0  0  0  0  0  0  0  0
   42.2750   24.5320   34.6310 H   0  0  0  0  0  0  0  0  0  0  0  0
   41.1840   23.2100   34.1630 H   0  0  0  0  0  0  0  0  0  0  0  0
   41.5260   25.9140   32.9390 H   0  0  0  0  0  0  0  0  0  0  0  0
   39.8980   25.6310   34.3310 C   0  0  0  0  0  0  0  0  0  0  0  0
   39.5500   26.9610   34.4540 C   0  0  0  0  0  0  0  0  0  0  0  0
   39.8770   27.7370   33.8140 H   0  0  0  0  0  0  0  0  0  0  0  0
   38.6910   27.4510   35.4450 C   0  0  0  0  0  3  0  0  0  0  0  0
   38.1390   26.5970   36.3680 C   0  0  0  0  0  3  0  0  0  0  0  0
   38.4490   25.2770   36.2910 C   0  0  0  0  0  0  0  0  0  0  0  0
   37.8970   24.4180   37.2190 C   0  0  0  0  0  3  0  0  0  0  0  0
   38.1720   23.0690   37.2020 C   0  0  0  0  0  3  0  0  0  0  0  0
   39.0340   22.5960   36.2050 C   0  0  0  0  0  3  0  0  0  0  0  0
   39.5600   23.4920   35.3000 C   0  0  0  0  0  3  0  0  0  0  0  0
   39.2930   24.8460   35.3050 C   0  0  0  0  0  0  0  0  0  0  0  0
   39.3190   21.8450   32.3900 Cl  0  0  0  0  0  0  0  0  0  0  0  0
   38.2250   23.1630   32.0650 C   0  0  0  0  0  0  0  0  0  0  0  0
   36.9000   22.9130   31.9520 C   0  0  0  0  0  0  0  0  0  0  0  0
   36.0930   24.0310   31.7450 C   0  0  0  0  0  0  0  0  0  0  0  0
   36.5470   25.3120   31.6540 C   0  0  0  0  0  0  0  0  0  0  0  0
   37.9000   25.5140   31.7740 C   0  0  0  0  0  0  0  0  0  0  0  0
   38.7600   24.4500   31.9800 C   0  0  0  0  0  0  0  0  0  0  0  0
   35.0180   23.8780   31.6470 H   0  0  0  0  0  0  0  0  0  0  0  0
   35.8620   26.1400   31.4920 H   0  0  0  0  0  0  0  0  0  0  0  0
   38.2870   26.5220   31.7050 H   0  0  0  0  0  0  0  0  0  0  0  0
   35.4040   19.7290   33.2800 C   0  0  0  0  0  0  0  0  0  0  0  0
   35.8920   21.0400   33.2270 C   0  0  0  0  0  0  0  0  0  0  0  0
   36.4040   21.5650   32.0380 C   0  0  0  0  0  0  0  0  0  0  0  0
   36.3980   20.7340   30.9650 N   0  0  0  0  0  0  0  0  0  0  0  0
   35.9340   19.4740   31.0050 C   0  0  0  0  0  0  0  0  0  0  0  0
   35.4350   18.9660   32.1650 N   0  0  0  0  0  0  0  0  0  0  0  0
   34.9920   19.2480   34.1520 H   0  0  0  0  0  0  0  0  0  0  0  0
   35.8270   21.4880   34.1990 H   0  0  0  0  0  0  0  0  0  0  0  0
   36.0180   18.9760   30.0500 H   0  0  0  0  0  0  0  0  0  0  0  0
  1  6  1  0  0  0  0
  2  3  1  0  0  0  0
  2  1  1  0  0  0  0
  3 10  1  0  0  0  0
  3  4  1  0  0  0  0
  4 11  1  0  0  0  0
  4  5  1  0  0  0  0
  5 13  1  0  0  0  0
  5 12  1  0  0  0  0
  6 14  1  6  0  0  0
  6  5  1  0  0  0  0
  6 15  1  0  0  0  0
  7  2  1  0  0  0  0
  8  2  1  0  0  0  0
  9  3  1  0  0  0  0
 15 16  2  0  0  0  0
 15 25  1  0  0  0  0
 16 18  1  0  0  0  0
 17 16  1  0  0  0  0
 18 19  2  0  0  0  0
 20 19  1  0  0  0  0
 20 21  1  0  0  0  0
 22 21  2  0  0  0  0
 23 22  1  0  0  0  0
 24 25  1  0  0  0  0
 24 23  2  0  0  0  0
 25 20  2  0  0  0  0
 27 26  1  0  0  0  0
 28 38  1  0  0  0  0
 28 27  2  0  0  0  0
 29 28  1  0  0  0  0
 30 29  2  0  0  0  0
 30 31  1  0  0  0  0
 31 32  2  0  0  0  0
 32  1  1  0  0  0  0
 32 27  1  0  0  0  0
 33 29  1  0  0  0  0
 34 30  1  0  0  0  0
 35 31  1  0  0  0  0
 36 42  1  0  0  0  0
 37 36  1  0  0  0  0
 37 43  1  0  0  0  0
 38 37  2  0  0  0  0
 39 40  2  0  0  0  0
 39 38  1  0  0  0  0
 40 41  1  0  0  0  0
 41 36  2  0  0  0  0
 44 40  1  0  0  0  0
M  END
>  <minimizedAffinity>
-6.41769886

$$$$

 OpenBabel03272505173D

 44 48  0  0  1  0  0  0  0  0999 V2000
   38.0690   23.6190   32.9380 N   0  0  0  0  0  0  0  0  0  0  0  0
   37.2080   23.5480   31.7720 C   0  0  0  0  0  0  0  0  0  0  0  0
   36.7140   22.1350   31.6470 C   0  0  0  0  0  0  0  0  0  0  0  0
   36.1830   21.7450   32.9150 N   0  0  0  0  0  0  0  0  0  0  0  0
   37.1380   21.6880   33.9670 C   0  0  0  0  0  0  0  0  0  0  0  0
   38.4360   22.3610   33.5060 C   0  0  2  0  0  0  0  0  0  0  0  0
   37.7710   23.8490   30.8490 H   0  0  0  0  0  0  0  0  0  0  0  0
   36.3060   24.1960   31.9310 H   0  0  0  0  0  0  0  0  0  0  0  0
   35.8040   22.2170   30.9710 H   0  0  0  0  0  0  0  0  0  0  0  0
   37.3590   21.4340   31.1330 H   0  0  0  0  0  0  0  0  0  0  0  0
   35.6630   20.8370   32.7900 H   0  0  0  0  0  0  0  0  0  0  0  0
   37.4050   20.6540   34.2840 H   0  0  0  0  0  0  0  0  0  0  0  0
   36.6970   22.1880   34.8330 H   0  0  0  0  0  0  0  0  0  0  0  0
   38.6670   21.6830   32.6450 H   0  0  0  0  0  0  0  0  0  0  0  0
   39.4270   22.3240   34.5630 C   0  0  0  0  0  0  0  0  0  0  0  0
   40.7450   22.0010   34.3090 C   0  0  0  0  0  0  0  0  0  0  0  0
   41.1380   21.7450   33.3620 H   0  0  0  0  0  0  0  0  0  0  0  0
   41.7440   21.9910   35.2910 C   0  0  0  0  0  3  0  0  0  0  0  0
   41.4430   22.3150   36.5900 C   0  0  0  0  0  3  0  0  0  0  0  0
   40.1590   22.6410   36.8930 C   0  0  0  0  0  0  0  0  0  0  0  0
   39.8550   22.9630   38.1990 C   0  0  0  0  0  3  0  0  0  0  0  0
   38.5740   23.2990   38.5760 C   0  0  0  0  0  3  0  0  0  0  0  0
   37.5870   23.3030   37.5830 C   0  0  0  0  0  3  0  0  0  0  0  0
   37.9390   22.9730   36.2930 C   0  0  0  0  0  3  0  0  0  0  0  0
   39.2190   22.6360   35.9010 C   0  0  0  0  0  0  0  0  0  0  0  0
   40.6940   24.5070   31.9180 Cl  0  0  0  0  0  0  0  0  0  0  0  0
   39.7930   25.3450   33.1530 C   0  0  0  0  0  0  0  0  0  0  0  0
   40.3020   26.4770   33.6930 C   0  0  0  0  0  0  0  0  0  0  0  0
   39.4920   27.1110   34.6340 C   0  0  0  0  0  0  0  0  0  0  0  0
   38.2630   26.6730   35.0240 C   0  0  0  0  0  0  0  0  0  0  0  0
   37.7900   25.5190   34.4470 C   0  0  0  0  0  0  0  0  0  0  0  0
   38.5420   24.8370   33.5070 C   0  0  0  0  0  0  0  0  0  0  0  0
   39.8610   28.0270   35.0960 H   0  0  0  0  0  0  0  0  0  0  0  0
   37.6820   27.2170   35.7630 H   0  0  0  0  0  0  0  0  0  0  0  0
   36.8170   25.1490   34.7400 H   0  0  0  0  0  0  0  0  0  0  0  0
   44.0120   27.0840   33.5950 C   0  0  0  0  0  0  0  0  0  0  0  0
   42.7590   26.6180   34.0090 C   0  0  0  0  0  0  0  0  0  0  0  0
   41.6030   26.9510   33.2980 C   0  0  0  0  0  0  0  0  0  0  0  0
   41.7760   27.7390   32.2070 N   0  0  0  0  0  0  0  0  0  0  0  0
   42.9740   28.1930   31.8020 C   0  0  0  0  0  0  0  0  0  0  0  0
   44.0980   27.8660   32.4960 N   0  0  0  0  0  0  0  0  0  0  0  0
   44.9510   26.8750   34.0820 H   0  0  0  0  0  0  0  0  0  0  0  0
   42.8650   26.0470   34.9090 H   0  0  0  0  0  0  0  0  0  0  0  0
   42.9020   28.8060   30.9160 H   0  0  0  0  0  0  0  0  0  0  0  0
  1  6  1  0  0  0  0
  1 32  1  0  0  0  0
  2  8  1  0  0  0  0
  2  1  1  0  0  0  0
  3  2  1  0  0  0  0
  3  4  1  0  0  0  0
  4  5  1  0  0  0  0
  5 12  1  0  0  0  0
  5 13  1  0  0  0  0
  6 14  1  6  0  0  0
  6  5  1  0  0  0  0
  6 15  1  0  0  0  0
  7  2  1  0  0  0  0
  9  3  1  0  0  0  0
 10  3  1  0  0  0  0
 11  4  1  0  0  0  0
 15 25  1  0  0  0  0
 16 15  2  0  0  0  0
 16 18  1  0  0  0  0
 17 16  1  0  0  0  0
 18 19  2  0  0  0  0
 19 20  1  0  0  0  0
 20 21  1  0  0  0  0
 21 22  2  0  0  0  0
 23 22  1  0  0  0  0
 24 23  2  0  0  0  0
 25 24  1  0  0  0  0
 25 20  2  0  0  0  0
 26 27  1  0  0  0  0
 27 32  2  0  0  0  0
 27 28  1  0  0  0  0
 28 29  2  0  0  0  0
 29 30  1  0  0  0  0
 29 33  1  0  0  0  0
 30 34  1  0  0  0  0
 31 35  1  0  0  0  0
 31 30  2  0  0  0  0
 32 31  1  0  0  0  0
 36 37  1  0  0  0  0
 36 42  1  0  0  0  0
 37 43  1  0  0  0  0
 38 28  1  0  0  0  0
 38 37  2  0  0  0  0
 39 38  1  0  0  0  0
 40 39  2  0  0  0  0
 40 41  1  0  0  0  0
 41 36  2  0  0  0  0
 44 40  1  0  0  0  0
M  END
>  <minimizedAffinity>
-6.23017263

$$$$

 OpenBabel03272505173D

 44 48  0  0  1  0  0  0  0  0999 V2000
   41.1950   24.7360   33.5360 N   0  0  0  0  0  0  0  0  0  0  0  0
   42.4580   24.3180   32.9580 C   0  0  0  0  0  0  0  0  0  0  0  0
   43.3020   25.5450   32.7560 C   0  0  0  0  0  0  0  0  0  0  0  0
   43.3190   26.2700   33.9870 N   0  0  0  0  0  0  0  0  0  0  0  0
   42.0550   26.7800   34.3930 C   0  0  0  0  0  0  0  0  0  0  0  0
   40.9560   26.1430   33.5340 C   0  0  2  0  0  0  0  0  0  0  0  0
   42.2890   23.7940   31.9800 H   0  0  0  0  0  0  0  0  0  0  0  0
   43.0060   23.6620   33.6850 H   0  0  0  0  0  0  0  0  0  0  0  0
   44.3600   25.1410   32.6500 H   0  0  0  0  0  0  0  0  0  0  0  0
   43.1430   26.1040   31.8430 H   0  0  0  0  0  0  0  0  0  0  0  0
   44.0550   27.0210   33.9180 H   0  0  0  0  0  0  0  0  0  0  0  0
   41.9520   27.8840   34.2820 H   0  0  0  0  0  0  0  0  0  0  0  0
   41.9370   26.5490   35.4550 H   0  0  0  0  0  0  0  0  0  0  0  0
   41.2980   26.5190   32.5370 H   0  0  0  0  0  0  0  0  0  0  0  0
   39.6530   26.6400   33.9320 C   0  0  0  0  0  0  0  0  0  0  0  0
   39.3590   26.9290   35.2490 C   0  0  0  0  0  0  0  0  0  0  0  0
   40.0230   26.8070   36.0620 H   0  0  0  0  0  0  0  0  0  0  0  0
   38.1290   27.4480   35.6730 C   0  0  0  0  0  3  0  0  0  0  0  0
   37.1320   27.7000   34.7650 C   0  0  0  0  0  3  0  0  0  0  0  0
   37.3710   27.4330   33.4540 C   0  0  0  0  0  0  0  0  0  0  0  0
   36.3680   27.6830   32.5400 C   0  0  0  0  0  3  0  0  0  0  0  0
   36.5410   27.4310   31.1980 C   0  0  0  0  0  3  0  0  0  0  0  0
   37.7760   26.9120   30.7900 C   0  0  0  0  0  3  0  0  0  0  0  0
   38.7460   26.6790   31.7400 C   0  0  0  0  0  3  0  0  0  0  0  0
   38.5870   26.9270   33.0880 C   0  0  0  0  0  0  0  0  0  0  0  0
   39.5560   23.3420   31.5130 Cl  0  0  0  0  0  0  0  0  0  0  0  0
   39.3530   23.1500   33.2330 C   0  0  0  0  0  0  0  0  0  0  0  0
   38.3950   22.3150   33.6990 C   0  0  0  0  0  0  0  0  0  0  0  0
   38.3360   22.1800   35.0850 C   0  0  0  0  0  0  0  0  0  0  0  0
   39.1600   22.8170   35.9640 C   0  0  0  0  0  0  0  0  0  0  0  0
   40.1160   23.6540   35.4430 C   0  0  0  0  0  0  0  0  0  0  0  0
   40.2290   23.8360   34.0760 C   0  0  0  0  0  0  0  0  0  0  0  0
   37.5790   21.5180   35.5070 H   0  0  0  0  0  0  0  0  0  0  0  0
   39.0610   22.6660   37.0360 H   0  0  0  0  0  0  0  0  0  0  0  0
   40.7820   24.1730   36.1190 H   0  0  0  0  0  0  0  0  0  0  0  0
   35.4890   21.5490   31.4370 C   0  0  0  0  0  0  0  0  0  0  0  0
   36.3250   22.2250   32.3350 C   0  0  0  0  0  0  0  0  0  0  0  0
   37.5110   21.6400   32.7850 C   0  0  0  0  0  0  0  0  0  0  0  0
   37.7880   20.4010   32.3050 N   0  0  0  0  0  0  0  0  0  0  0  0
   36.9940   19.7430   31.4440 C   0  0  0  0  0  0  0  0  0  0  0  0
   35.8390   20.3170   31.0070 N   0  0  0  0  0  0  0  0  0  0  0  0
   34.5610   21.9260   31.0390 H   0  0  0  0  0  0  0  0  0  0  0  0
   35.8850   23.1650   32.5990 H   0  0  0  0  0  0  0  0  0  0  0  0
   37.3870   18.7730   31.1830 H   0  0  0  0  0  0  0  0  0  0  0  0
  1 32  1  0  0  0  0
  2  1  1  0  0  0  0
  2  8  1  0  0  0  0
  3  2  1  0  0  0  0
  3  4  1  0  0  0  0
  4  5  1  0  0  0  0
  5 13  1  0  0  0  0
  6 14  1  6  0  0  0
  6  1  1  0  0  0  0
  6 15  1  0  0  0  0
  6  5  1  0  0  0  0
  7  2  1  0  0  0  0
  9  3  1  0  0  0  0
 10  3  1  0  0  0  0
 11  4  1  0  0  0  0
 12  5  1  0  0  0  0
 15 16  1  0  0  0  0
 16 18  2  0  0  0  0
 16 17  1  0  0  0  0
 19 18  1  0  0  0  0
 20 19  2  0  0  0  0
 21 20  1  0  0  0  0
 22 21  2  0  0  0  0
 23 22  1  0  0  0  0
 23 24  2  0  0  0  0
 24 25  1  0  0  0  0
 25 20  1  0  0  0  0
 25 15  2  0  0  0  0
 26 27  1  0  0  0  0
 27 28  2  0  0  0  0
 27 32  1  0  0  0  0
 28 29  1  0  0  0  0
 29 33  1  0  0  0  0
 29 30  2  0  0  0  0
 30 34  1  0  0  0  0
 31 30  1  0  0  0  0
 31 35  1  0  0  0  0
 32 31  2  0  0  0  0
 36 37  1  0  0  0  0
 37 43  1  0  0  0  0
 37 38  2  0  0  0  0
 38 28  1  0  0  0  0
 39 38  1  0  0  0  0
 40 39  2  0  0  0  0
 41 36  2  0  0  0  0
 41 40  1  0  0  0  0
 42 36  1  0  0  0  0
 44 40  1  0  0  0  0
M  END
>  <minimizedAffinity>
-6.17599249

$$$$

 OpenBabel03272505173D

 44 48  0  0  1  0  0  0  0  0999 V2000
   38.5880   25.3580   30.7190 N   0  0  0  0  0  0  0  0  0  0  0  0
   39.4320   25.0750   29.5730 C   0  0  0  0  0  0  0  0  0  0  0  0
   40.8010   25.6250   29.8600 C   0  0  0  0  0  0  0  0  0  0  0  0
   41.2040   25.1430   31.1440 N   0  0  0  0  0  0  0  0  0  0  0  0
   40.4080   25.6060   32.2280 C   0  0  0  0  0  0  0  0  0  0  0  0
   39.1380   26.2640   31.6760 C   0  0  2  0  0  0  0  0  0  0  0  0
   39.0080   25.5440   28.6460 H   0  0  0  0  0  0  0  0  0  0  0  0
   39.5450   23.9650   29.4550 H   0  0  0  0  0  0  0  0  0  0  0  0
   41.4780   25.0810   29.1270 H   0  0  0  0  0  0  0  0  0  0  0  0
   40.9640   26.6720   29.6400 H   0  0  0  0  0  0  0  0  0  0  0  0
   42.2270   25.3600   31.2700 H   0  0  0  0  0  0  0  0  0  0  0  0
   40.9110   26.3640   32.8710 H   0  0  0  0  0  0  0  0  0  0  0  0
   40.1860   24.7420   32.8600 H   0  0  0  0  0  0  0  0  0  0  0  0
   39.6270   27.0830   31.0900 H   0  0  0  0  0  0  0  0  0  0  0  0
   38.3030   26.7390   32.7620 C   0  0  0  0  0  0  0  0  0  0  0  0
   38.3150   26.1360   34.0030 C   0  0  0  0  0  0  0  0  0  0  0  0
   38.8980   25.2940   34.2650 H   0  0  0  0  0  0  0  0  0  0  0  0
   37.5560   26.5840   35.0910 C   0  0  0  0  0  3  0  0  0  0  0  0
   36.7420   27.6820   34.9640 C   0  0  0  0  0  3  0  0  0  0  0  0
   36.6940   28.3130   33.7610 C   0  0  0  0  0  0  0  0  0  0  0  0
   35.8740   29.4150   33.6310 C   0  0  0  0  0  3  0  0  0  0  0  0
   35.7740   30.0990   32.4400 C   0  0  0  0  0  3  0  0  0  0  0  0
   36.5380   29.6370   31.3620 C   0  0  0  0  0  3  0  0  0  0  0  0
   37.3430   28.5330   31.5410 C   0  0  0  0  0  3  0  0  0  0  0  0
   37.4530   27.8380   32.7280 C   0  0  0  0  0  0  0  0  0  0  0  0
   38.5940   22.5790   31.7160 Cl  0  0  0  0  0  0  0  0  0  0  0  0
   37.1480   23.4740   31.3310 C   0  0  0  0  0  0  0  0  0  0  0  0
   35.9410   22.8840   31.4910 C   0  0  0  0  0  0  0  0  0  0  0  0
   34.8370   23.6880   31.2110 C   0  0  0  0  0  0  0  0  0  0  0  0
   34.9040   24.9860   30.8010 C   0  0  0  0  0  0  0  0  0  0  0  0
   36.1530   25.5390   30.6520 C   0  0  0  0  0  0  0  0  0  0  0  0
   37.2920   24.7970   30.9120 C   0  0  0  0  0  0  0  0  0  0  0  0
   33.8420   23.2560   31.3270 H   0  0  0  0  0  0  0  0  0  0  0  0
   34.0020   25.5580   30.6010 H   0  0  0  0  0  0  0  0  0  0  0  0
   36.2330   26.5670   30.3270 H   0  0  0  0  0  0  0  0  0  0  0  0
   35.8560   19.1250   31.4560 C   0  0  0  0  0  0  0  0  0  0  0  0
   35.9340   20.4500   31.0130 C   0  0  0  0  0  0  0  0  0  0  0  0
   35.8510   21.5120   31.9170 C   0  0  0  0  0  0  0  0  0  0  0  0
   35.6910   21.1760   33.2220 N   0  0  0  0  0  0  0  0  0  0  0  0
   35.6120   19.9080   33.6580 C   0  0  0  0  0  0  0  0  0  0  0  0
   35.6950   18.8760   32.7750 N   0  0  0  0  0  0  0  0  0  0  0  0
   35.9130   18.2490   30.8290 H   0  0  0  0  0  0  0  0  0  0  0  0
   36.0240   20.4690   29.9450 H   0  0  0  0  0  0  0  0  0  0  0  0
   35.4830   19.8500   34.7290 H   0  0  0  0  0  0  0  0  0  0  0  0
  1 32  1  0  0  0  0
  1  6  1  0  0  0  0
  2  3  1  0  0  0  0
  2  1  1  0  0  0  0
  3  4  1  0  0  0  0
  4 11  1  0  0  0  0
  4  5  1  0  0  0  0
  5 13  1  0  0  0  0
  5 12  1  0  0  0  0
  6 14  1  6  0  0  0
  6  5  1  0  0  0  0
  6 15  1  0  0  0  0
  7  2  1  0  0  0  0
  8  2  1  0  0  0  0
  9  3  1  0  0  0  0
 10  3  1  0  0  0  0
 15 16  1  0  0  0  0
 16 17  1  0  0  0  0
 16 18  2  0  0  0  0
 19 18  1  0  0  0  0
 20 19  2  0  0  0  0
 21 20  1  0  0  0  0
 22 21  2  0  0  0  0
 23 24  2  0  0  0  0
 23 22  1  0  0  0  0
 24 25  1  0  0  0  0
 25 15  2  0  0  0  0
 25 20  1  0  0  0  0
 27 28  1  0  0  0  0
 27 26  1  0  0  0  0
 28 38  1  0  0  0  0
 29 33  1  0  0  0  0
 29 28  2  0  0  0  0
 30 29  1  0  0  0  0
 31 30  2  0  0  0  0
 31 32  1  0  0  0  0
 32 27  2  0  0  0  0
 34 30  1  0  0  0  0
 35 31  1  0  0  0  0
 36 41  1  0  0  0  0
 37 36  2  0  0  0  0
 37 38  1  0  0  0  0
 38 39  2  0  0  0  0
 39 40  1  0  0  0  0
 40 44  1  0  0  0  0
 41 40  2  0  0  0  0
 42 36  1  0  0  0  0
 43 37  1  0  0  0  0
M  END
>  <minimizedAffinity>
-6.14809608

$$$$

 OpenBabel03272505173D

 44 48  0  0  1  0  0  0  0  0999 V2000
   40.4780   24.1980   31.1290 N   0  0  0  0  0  0  0  0  0  0  0  0
   41.8220   23.8560   30.7020 C   0  0  0  0  0  0  0  0  0  0  0  0
   41.7350   23.2780   29.3180 C   0  0  0  0  0  0  0  0  0  0  0  0
   40.9700   24.1800   28.5160 N   0  0  0  0  0  0  0  0  0  0  0  0
   39.6140   24.3290   28.9170 C   0  0  0  0  0  0  0  0  0  0  0  0
   39.4270   23.6970   30.3020 C   0  0  2  0  0  0  0  0  0  0  0  0
   42.2820   23.1150   31.4070 H   0  0  0  0  0  0  0  0  0  0  0  0
   42.4410   24.7890   30.6270 H   0  0  0  0  0  0  0  0  0  0  0  0
   42.7930   23.3650   28.9120 H   0  0  0  0  0  0  0  0  0  0  0  0
   41.5110   22.2220   29.2410 H   0  0  0  0  0  0  0  0  0  0  0  0
   41.0650   23.8870   27.5080 H   0  0  0  0  0  0  0  0  0  0  0  0
   38.8810   23.8380   28.2370 H   0  0  0  0  0  0  0  0  0  0  0  0
   39.3900   25.3990   28.9160 H   0  0  0  0  0  0  0  0  0  0  0  0
   39.7100   22.6470   30.0350 H   0  0  0  0  0  0  0  0  0  0  0  0
   38.0530   23.8400   30.7410 C   0  0  0  0  0  0  0  0  0  0  0  0
   37.4050   25.0590   30.7110 C   0  0  0  0  0  0  0  0  0  0  0  0
   37.8370   25.9700   30.3920 H   0  0  0  0  0  0  0  0  0  0  0  0
   36.0680   25.2370   31.0870 C   0  0  0  0  0  3  0  0  0  0  0  0
   35.3200   24.1690   31.5150 C   0  0  0  0  0  3  0  0  0  0  0  0
   35.9100   22.9460   31.5630 C   0  0  0  0  0  0  0  0  0  0  0  0
   35.1600   21.8720   31.9960 C   0  0  0  0  0  3  0  0  0  0  0  0
   35.6960   20.6070   32.0730 C   0  0  0  0  0  3  0  0  0  0  0  0
   37.0350   20.4450   31.6940 C   0  0  0  0  0  3  0  0  0  0  0  0
   37.7430   21.5480   31.2690 C   0  0  0  0  0  3  0  0  0  0  0  0
   37.2180   22.8220   31.1860 C   0  0  0  0  0  0  0  0  0  0  0  0
   40.0330   22.6120   33.5800 Cl  0  0  0  0  0  0  0  0  0  0  0  0
   39.9000   24.3490   33.5040 C   0  0  0  0  0  0  0  0  0  0  0  0
   39.5770   25.0390   34.6220 C   0  0  0  0  0  0  0  0  0  0  0  0
   39.5450   26.4260   34.4850 C   0  0  0  0  0  0  0  0  0  0  0  0
   39.8120   27.0990   33.3320 C   0  0  0  0  0  0  0  0  0  0  0  0
   40.1340   26.3540   32.2240 C   0  0  0  0  0  0  0  0  0  0  0  0
   40.1830   24.9730   32.2880 C   0  0  0  0  0  0  0  0  0  0  0  0
   39.2890   27.0240   35.3610 H   0  0  0  0  0  0  0  0  0  0  0  0
   39.7700   28.1850   33.2930 H   0  0  0  0  0  0  0  0  0  0  0  0
   40.3490   26.8650   31.2950 H   0  0  0  0  0  0  0  0  0  0  0  0
   37.8040   23.7980   37.6990 C   0  0  0  0  0  0  0  0  0  0  0  0
   38.0660   24.4960   36.5130 C   0  0  0  0  0  0  0  0  0  0  0  0
   39.2850   24.3430   35.8490 C   0  0  0  0  0  0  0  0  0  0  0  0
   40.1760   23.4930   36.4190 N   0  0  0  0  0  0  0  0  0  0  0  0
   39.9360   22.8200   37.5560 C   0  0  0  0  0  0  0  0  0  0  0  0
   38.7470   22.9700   38.2010 N   0  0  0  0  0  0  0  0  0  0  0  0
   36.8930   23.8560   38.2720 H   0  0  0  0  0  0  0  0  0  0  0  0
   37.2350   25.1290   36.2770 H   0  0  0  0  0  0  0  0  0  0  0  0
   40.7690   22.1970   37.8470 H   0  0  0  0  0  0  0  0  0  0  0  0
  1 32  1  0  0  0  0
  2  1  1  0  0  0  0
  2  7  1  0  0  0  0
  3  2  1  0  0  0  0
  4  5  1  0  0  0  0
  4  3  1  0  0  0  0
  5  6  1  0  0  0  0
  6 14  1  6  0  0  0
  6 15  1  0  0  0  0
  6  1  1  0  0  0  0
  8  2  1  0  0  0  0
  9  3  1  0  0  0  0
 10  3  1  0  0  0  0
 11  4  1  0  0  0  0
 12  5  1  0  0  0  0
 13  5  1  0  0  0  0
 15 25  1  0  0  0  0
 16 15  2  0  0  0  0
 16 18  1  0  0  0  0
 17 16  1  0  0  0  0
 18 19  2  0  0  0  0
 19 20  1  0  0  0  0
 20 21  1  0  0  0  0
 21 22  2  0  0  0  0
 23 22  1  0  0  0  0
 24 23  2  0  0  0  0
 25 24  1  0  0  0  0
 25 20  2  0  0  0  0
 27 26  1  0  0  0  0
 27 28  1  0  0  0  0
 28 38  1  0  0  0  0
 29 28  2  0  0  0  0
 29 33  1  0  0  0  0
 30 29  1  0  0  0  0
 31 32  1  0  0  0  0
 31 30  2  0  0  0  0
 32 27  2  0  0  0  0
 34 30  1  0  0  0  0
 35 31  1  0  0  0  0
 36 41  1  0  0  0  0
 36 42  1  0  0  0  0
 37 36  2  0  0  0  0
 38 39  2  0  0  0  0
 38 37  1  0  0  0  0
 39 40  1  0  0  0  0
 40 44  1  0  0  0  0
 40 41  2  0  0  0  0
 43 37  1  0  0  0  0
M  END
>  <minimizedAffinity>
-6.10467577

$$$$

 OpenBabel03272505173D

 44 48  0  0  1  0  0  0  0  0999 V2000
   39.8970   25.0960   30.9800 N   0  0  0  0  0  0  0  0  0  0  0  0
   40.9760   24.6450   30.1220 C   0  0  0  0  0  0  0  0  0  0  0  0
   41.6330   25.8600   29.5290 C   0  0  0  0  0  0  0  0  0  0  0  0
   41.9370   26.7570   30.5990 N   0  0  0  0  0  0  0  0  0  0  0  0
   40.8020   27.2740   31.2820 C   0  0  0  0  0  0  0  0  0  0  0  0
   39.5590   26.4780   30.8650 C   0  0  2  0  0  0  0  0  0  0  0  0
   40.5820   23.9780   29.3100 H   0  0  0  0  0  0  0  0  0  0  0  0
   41.7540   24.1230   30.7390 H   0  0  0  0  0  0  0  0  0  0  0  0
   42.6470   25.4840   29.1760 H   0  0  0  0  0  0  0  0  0  0  0  0
   41.1830   26.2740   28.6360 H   0  0  0  0  0  0  0  0  0  0  0  0
   42.5650   27.5160   30.2240 H   0  0  0  0  0  0  0  0  0  0  0  0
   40.5870   28.3450   31.0640 H   0  0  0  0  0  0  0  0  0  0  0  0
   41.0040   27.1950   32.3530 H   0  0  0  0  0  0  0  0  0  0  0  0
   39.5790   26.7170   29.7710 H   0  0  0  0  0  0  0  0  0  0  0  0
   38.3850   26.9790   31.5520 C   0  0  0  0  0  0  0  0  0  0  0  0
   37.2120   27.2530   30.8790 C   0  0  0  0  0  0  0  0  0  0  0  0
   37.0680   27.1420   29.8370 H   0  0  0  0  0  0  0  0  0  0  0  0
   36.0420   27.6990   31.5060 C   0  0  0  0  0  3  0  0  0  0  0  0
   36.0130   27.8890   32.8650 C   0  0  0  0  0  3  0  0  0  0  0  0
   37.1430   27.6340   33.5760 C   0  0  0  0  0  0  0  0  0  0  0  0
   37.1160   27.8280   34.9420 C   0  0  0  0  0  3  0  0  0  0  0  0
   38.2260   27.5920   35.7220 C   0  0  0  0  0  3  0  0  0  0  0  0
   39.3880   27.1470   35.0790 C   0  0  0  0  0  3  0  0  0  0  0  0
   39.3650   26.9690   33.7130 C   0  0  0  0  0  3  0  0  0  0  0  0
   38.2600   27.2000   32.9190 C   0  0  0  0  0  0  0  0  0  0  0  0
   41.3430   24.5160   33.4890 Cl  0  0  0  0  0  0  0  0  0  0  0  0
   39.7810   23.8530   33.0870 C   0  0  0  0  0  0  0  0  0  0  0  0
   39.1690   23.0210   33.9610 C   0  0  0  0  0  0  0  0  0  0  0  0
   37.9010   22.5800   33.5860 C   0  0  0  0  0  0  0  0  0  0  0  0
   37.2680   22.9270   32.4310 C   0  0  0  0  0  0  0  0  0  0  0  0
   37.9300   23.7740   31.5760 C   0  0  0  0  0  0  0  0  0  0  0  0
   39.1920   24.2490   31.8850 C   0  0  0  0  0  0  0  0  0  0  0  0
   37.3700   21.9070   34.2590 H   0  0  0  0  0  0  0  0  0  0  0  0
   36.2770   22.5480   32.1980 H   0  0  0  0  0  0  0  0  0  0  0  0
   37.4490   24.0650   30.6510 H   0  0  0  0  0  0  0  0  0  0  0  0
   40.0060   22.6410   37.6080 C   0  0  0  0  0  0  0  0  0  0  0  0
   39.3530   23.0380   36.4350 C   0  0  0  0  0  0  0  0  0  0  0  0
   39.8270   22.6370   35.1840 C   0  0  0  0  0  0  0  0  0  0  0  0
   40.9380   21.8570   35.1840 N   0  0  0  0  0  0  0  0  0  0  0  0
   41.5730   21.4720   36.3040 C   0  0  0  0  0  0  0  0  0  0  0  0
   41.1080   21.8630   37.5220 N   0  0  0  0  0  0  0  0  0  0  0  0
   39.7080   22.9020   38.6110 H   0  0  0  0  0  0  0  0  0  0  0  0
   38.5270   23.6750   36.6800 H   0  0  0  0  0  0  0  0  0  0  0  0
   42.4350   20.8570   36.0940 H   0  0  0  0  0  0  0  0  0  0  0  0
  1 32  1  0  0  0  0
  2  8  1  0  0  0  0
  2  1  1  0  0  0  0
  3  2  1  0  0  0  0
  3  4  1  0  0  0  0
  4  5  1  0  0  0  0
  5 13  1  0  0  0  0
  6 14  1  6  0  0  0
  6  1  1  0  0  0  0
  6  5  1  0  0  0  0
  6 15  1  0  0  0  0
  7  2  1  0  0  0  0
  9  3  1  0  0  0  0
 10  3  1  0  0  0  0
 11  4  1  0  0  0  0
 12  5  1  0  0  0  0
 15 25  1  0  0  0  0
 16 18  1  0  0  0  0
 16 15  2  0  0  0  0
 17 16  1  0  0  0  0
 18 19  2  0  0  0  0
 19 20  1  0  0  0  0
 20 21  1  0  0  0  0
 21 22  2  0  0  0  0
 23 22  1  0  0  0  0
 24 23  2  0  0  0  0
 25 20  2  0  0  0  0
 25 24  1  0  0  0  0
 27 26  1  0  0  0  0
 27 28  1  0  0  0  0
 28 38  1  0  0  0  0
 29 28  2  0  0  0  0
 29 33  1  0  0  0  0
 30 29  1  0  0  0  0
 31 32  1  0  0  0  0
 31 30  2  0  0  0  0
 32 27  2  0  0  0  0
 34 30  1  0  0  0  0
 35 31  1  0  0  0  0
 36 42  1  0  0  0  0
 37 43  1  0  0  0  0
 37 36  2  0  0  0  0
 38 39  2  0  0  0  0
 38 37  1  0  0  0  0
 39 40  1  0  0  0  0
 40 41  2  0  0  0  0
 41 36  1  0  0  0  0
 44 40  1  0  0  0  0
M  END
>  <minimizedAffinity>
-6.10195351

$$$$

 OpenBabel03272505173D

 44 48  0  0  1  0  0  0  0  0999 V2000
   41.0130   24.6830   32.4340 N   0  0  0  0  0  0  0  0  0  0  0  0
   42.1490   24.3340   31.6020 C   0  0  0  0  0  0  0  0  0  0  0  0
   43.2970   23.9910   32.5080 C   0  0  0  0  0  0  0  0  0  0  0  0
   42.8290   23.0360   33.4630 N   0  0  0  0  0  0  0  0  0  0  0  0
   41.8230   23.5210   34.3440 C   0  0  0  0  0  0  0  0  0  0  0  0
   41.3010   24.8640   33.8210 C   0  0  2  0  0  0  0  0  0  0  0  0
   42.4230   25.1910   30.9310 H   0  0  0  0  0  0  0  0  0  0  0  0
   41.9130   23.4100   31.0110 H   0  0  0  0  0  0  0  0  0  0  0  0
   44.0100   23.4030   31.8450 H   0  0  0  0  0  0  0  0  0  0  0  0
   43.8980   24.8140   32.8720 H   0  0  0  0  0  0  0  0  0  0  0  0
   43.6630   22.6460   33.9750 H   0  0  0  0  0  0  0  0  0  0  0  0
   42.1760   23.6960   35.3860 H   0  0  0  0  0  0  0  0  0  0  0  0
   41.0390   22.7620   34.3910 H   0  0  0  0  0  0  0  0  0  0  0  0
   42.2630   25.4370   33.8700 H   0  0  0  0  0  0  0  0  0  0  0  0
   40.2680   25.3800   34.6970 C   0  0  0  0  0  0  0  0  0  0  0  0
   40.0690   26.7360   34.8640 C   0  0  0  0  0  0  0  0  0  0  0  0
   40.6380   27.4960   34.4000 H   0  0  0  0  0  0  0  0  0  0  0  0
   39.0590   27.2790   35.6680 C   0  0  0  0  0  3  0  0  0  0  0  0
   38.1940   26.4560   36.3450 C   0  0  0  0  0  3  0  0  0  0  0  0
   38.3470   25.1120   36.2150 C   0  0  0  0  0  0  0  0  0  0  0  0
   37.4800   24.2840   36.8970 C   0  0  0  0  0  3  0  0  0  0  0  0
   37.5800   22.9140   36.8130 C   0  0  0  0  0  3  0  0  0  0  0  0
   38.5960   22.3870   36.0070 C   0  0  0  0  0  3  0  0  0  0  0  0
   39.4370   23.2540   35.3440 C   0  0  0  0  0  3  0  0  0  0  0  0
   39.3470   24.6290   35.4190 C   0  0  0  0  0  0  0  0  0  0  0  0
   40.3930   27.4040   31.4680 Cl  0  0  0  0  0  0  0  0  0  0  0  0
   39.2420   26.0950   31.5010 C   0  0  0  0  0  0  0  0  0  0  0  0
   37.9800   26.3090   31.0620 C   0  0  0  0  0  0  0  0  0  0  0  0
   37.1410   25.1960   31.0730 C   0  0  0  0  0  0  0  0  0  0  0  0
   37.5080   23.9510   31.4870 C   0  0  0  0  0  0  0  0  0  0  0  0
   38.7990   23.7840   31.9260 C   0  0  0  0  0  0  0  0  0  0  0  0
   39.6850   24.8460   31.9420 C   0  0  0  0  0  0  0  0  0  0  0  0
   36.1150   25.3210   30.7270 H   0  0  0  0  0  0  0  0  0  0  0  0
   36.8030   23.1240   31.4700 H   0  0  0  0  0  0  0  0  0  0  0  0
   39.1140   22.8050   32.2610 H   0  0  0  0  0  0  0  0  0  0  0  0
   36.5020   29.7670   31.0200 C   0  0  0  0  0  0  0  0  0  0  0  0
   36.8750   28.4930   31.4650 C   0  0  0  0  0  0  0  0  0  0  0  0
   37.5740   27.6210   30.6270 C   0  0  0  0  0  0  0  0  0  0  0  0
   37.8570   28.0820   29.3830 N   0  0  0  0  0  0  0  0  0  0  0  0
   37.5030   29.3020   28.9450 C   0  0  0  0  0  0  0  0  0  0  0  0
   36.8230   30.1500   29.7640 N   0  0  0  0  0  0  0  0  0  0  0  0
   35.9650   30.5010   31.5990 H   0  0  0  0  0  0  0  0  0  0  0  0
   36.5140   28.3400   32.4620 H   0  0  0  0  0  0  0  0  0  0  0  0
   37.8180   29.4800   27.9280 H   0  0  0  0  0  0  0  0  0  0  0  0
  1  6  1  0  0  0  0
  2  1  1  0  0  0  0
  2  3  1  0  0  0  0
  3 10  1  0  0  0  0
  3  4  1  0  0  0  0
  4 11  1  0  0  0  0
  4  5  1  0  0  0  0
  5 13  1  0  0  0  0
  5 12  1  0  0  0  0
  6 14  1  1  0  0  0
  6  5  1  0  0  0  0
  6 15  1  0  0  0  0
  7  2  1  0  0  0  0
  8  2  1  0  0  0  0
  9  3  1  0  0  0  0
 15 16  2  0  0  0  0
 15 25  1  0  0  0  0
 16 18  1  0  0  0  0
 17 16  1  0  0  0  0
 18 19  2  0  0  0  0
 20 19  1  0  0  0  0
 20 21  1  0  0  0  0
 22 21  2  0  0  0  0
 23 22  1  0  0  0  0
 24 25  1  0  0  0  0
 24 23  2  0  0  0  0
 25 20  2  0  0  0  0
 26 27  1  0  0  0  0
 27 32  1  0  0  0  0
 28 29  1  0  0  0  0
 28 27  2  0  0  0  0
 29 30  2  0  0  0  0
 30 31  1  0  0  0  0
 31 32  2  0  0  0  0
 31 35  1  0  0  0  0
 32  1  1  0  0  0  0
 33 29  1  0  0  0  0
 34 30  1  0  0  0  0
 36 37  1  0  0  0  0
 36 42  1  0  0  0  0
 37 43  1  0  0  0  0
 38 28  1  0  0  0  0
 38 37  2  0  0  0  0
 39 38  1  0  0  0  0
 40 39  2  0  0  0  0
 40 41  1  0  0  0  0
 41 36  2  0  0  0  0
 44 40  1  0  0  0  0
M  END
>  <minimizedAffinity>
-6.04622221

$$$$

 OpenBabel03272505173D

 44 48  0  0  1  0  0  0  0  0999 V2000
   39.2480   23.3410   31.8080 N   0  0  0  0  0  0  0  0  0  0  0  0
   40.1830   23.1330   30.7180 C   0  0  0  0  0  0  0  0  0  0  0  0
   41.3280   22.3130   31.2420 C   0  0  0  0  0  0  0  0  0  0  0  0
   40.7810   21.1710   31.9030 N   0  0  0  0  0  0  0  0  0  0  0  0
   40.0070   21.4670   33.0590 C   0  0  0  0  0  0  0  0  0  0  0  0
   39.7240   22.9730   33.1030 C   0  0  2  0  0  0  0  0  0  0  0  0
   40.5530   24.1160   30.3240 H   0  0  0  0  0  0  0  0  0  0  0  0
   39.6910   22.5270   29.9120 H   0  0  0  0  0  0  0  0  0  0  0  0
   41.8200   21.8930   30.3080 H   0  0  0  0  0  0  0  0  0  0  0  0
   42.1270   22.8490   31.7390 H   0  0  0  0  0  0  0  0  0  0  0  0
   41.5660   20.4970   32.1030 H   0  0  0  0  0  0  0  0  0  0  0  0
   40.5050   21.2040   34.0200 H   0  0  0  0  0  0  0  0  0  0  0  0
   39.0900   20.8750   32.9970 H   0  0  0  0  0  0  0  0  0  0  0  0
   40.7840   23.3310   33.1620 H   0  0  0  0  0  0  0  0  0  0  0  0
   38.9290   23.3040   34.2700 C   0  0  0  0  0  0  0  0  0  0  0  0
   38.1510   22.3590   34.9080 C   0  0  0  0  0  0  0  0  0  0  0  0
   38.0520   21.3500   34.6100 H   0  0  0  0  0  0  0  0  0  0  0  0
   37.3990   22.6230   36.0590 C   0  0  0  0  0  3  0  0  0  0  0  0
   37.4060   23.8750   36.6210 C   0  0  0  0  0  3  0  0  0  0  0  0
   38.1570   24.8420   36.0310 C   0  0  0  0  0  0  0  0  0  0  0  0
   38.1630   26.1020   36.5930 C   0  0  0  0  0  3  0  0  0  0  0  0
   38.8980   27.1290   36.0450 C   0  0  0  0  0  3  0  0  0  0  0  0
   39.6440   26.8500   34.8930 C   0  0  0  0  0  3  0  0  0  0  0  0
   39.6060   25.5760   34.3690 C   0  0  0  0  0  3  0  0  0  0  0  0
   38.8740   24.5370   34.9080 C   0  0  0  0  0  0  0  0  0  0  0  0
   39.1640   26.2640   31.3980 Cl  0  0  0  0  0  0  0  0  0  0  0  0
   37.7480   25.2520   31.4910 C   0  0  0  0  0  0  0  0  0  0  0  0
   36.5230   25.8120   31.3690 C   0  0  0  0  0  0  0  0  0  0  0  0
   35.4490   24.9240   31.4020 C   0  0  0  0  0  0  0  0  0  0  0  0
   35.5610   23.5740   31.5440 C   0  0  0  0  0  0  0  0  0  0  0  0
   36.8260   23.0530   31.6650 C   0  0  0  0  0  0  0  0  0  0  0  0
   37.9370   23.8770   31.6420 C   0  0  0  0  0  0  0  0  0  0  0  0
   34.4410   25.3300   31.3070 H   0  0  0  0  0  0  0  0  0  0  0  0
   34.6810   22.9360   31.5610 H   0  0  0  0  0  0  0  0  0  0  0  0
   36.9420   21.9830   31.7800 H   0  0  0  0  0  0  0  0  0  0  0  0
   35.7630   29.4250   32.0880 C   0  0  0  0  0  0  0  0  0  0  0  0
   35.8760   28.0390   32.2500 C   0  0  0  0  0  0  0  0  0  0  0  0
   36.3850   27.2380   31.2250 C   0  0  0  0  0  0  0  0  0  0  0  0
   36.7530   27.8820   30.0880 N   0  0  0  0  0  0  0  0  0  0  0  0
   36.6480   29.2100   29.9200 C   0  0  0  0  0  0  0  0  0  0  0  0
   36.1520   29.9880   30.9220 N   0  0  0  0  0  0  0  0  0  0  0  0
   35.3850   30.1140   32.8250 H   0  0  0  0  0  0  0  0  0  0  0  0
   35.4930   27.7570   33.2100 H   0  0  0  0  0  0  0  0  0  0  0  0
   36.9910   29.5290   28.9470 H   0  0  0  0  0  0  0  0  0  0  0  0
  1  6  1  0  0  0  0
  2  3  1  0  0  0  0
  2  1  1  0  0  0  0
  3 10  1  0  0  0  0
  3  4  1  0  0  0  0
  4 11  1  0  0  0  0
  4  5  1  0  0  0  0
  5  6  1  0  0  0  0
  5 12  1  0  0  0  0
  6 14  1  1  0  0  0
  6 15  1  0  0  0  0
  7  2  1  0  0  0  0
  8  2  1  0  0  0  0
  9  3  1  0  0  0  0
 13  5  1  0  0  0  0
 15 16  2  0  0  0  0
 15 25  1  0  0  0  0
 16 18  1  0  0  0  0
 17 16  1  0  0  0  0
 18 19  2  0  0  0  0
 20 21  1  0  0  0  0
 20 19  1  0  0  0  0
 22 21  2  0  0  0  0
 23 22  1  0  0  0  0
 24 23  2  0  0  0  0
 24 25  1  0  0  0  0
 25 20  2  0  0  0  0
 26 27  1  0  0  0  0
 27 32  1  0  0  0  0
 28 29  1  0  0  0  0
 28 27  2  0  0  0  0
 29 30  2  0  0  0  0
 30 34  1  0  0  0  0
 30 31  1  0  0  0  0
 31 35  1  0  0  0  0
 32 31  2  0  0  0  0
 32  1  1  0  0  0  0
 33 29  1  0  0  0  0
 36 37  1  0  0  0  0
 36 42  1  0  0  0  0
 37 43  1  0  0  0  0
 38 28  1  0  0  0  0
 38 37  2  0  0  0  0
 39 38  1  0  0  0  0
 40 39  2  0  0  0  0
 40 41  1  0  0  0  0
 41 36  2  0  0  0  0
 44 40  1  0  0  0  0
M  END
>  <minimizedAffinity>
-6.01181507

$$$$

 OpenBabel03272505173D

 44 48  0  0  1  0  0  0  0  0999 V2000
   38.7850   24.5220   35.6560 N   0  0  0  0  0  0  0  0  0  0  0  0
   38.1160   24.8420   36.9030 C   0  0  0  0  0  0  0  0  0  0  0  0
   37.8150   23.5500   37.6100 C   0  0  0  0  0  0  0  0  0  0  0  0
   39.0220   22.7870   37.6560 N   0  0  0  0  0  0  0  0  0  0  0  0
   39.5170   22.3810   36.3860 C   0  0  0  0  0  0  0  0  0  0  0  0
   38.7680   23.1430   35.2870 C   0  0  2  0  0  0  0  0  0  0  0  0
   37.1680   25.4100   36.7070 H   0  0  0  0  0  0  0  0  0  0  0  0
   38.8110   25.4210   37.5660 H   0  0  0  0  0  0  0  0  0  0  0  0
   37.6320   23.8590   38.6890 H   0  0  0  0  0  0  0  0  0  0  0  0
   36.9040   23.0380   37.3270 H   0  0  0  0  0  0  0  0  0  0  0  0
   38.8740   21.9750   38.3120 H   0  0  0  0  0  0  0  0  0  0  0  0
   39.3880   21.2960   36.1720 H   0  0  0  0  0  0  0  0  0  0  0  0
   40.5900   22.5880   36.3750 H   0  0  0  0  0  0  0  0  0  0  0  0
   37.7360   22.7700   35.5120 H   0  0  0  0  0  0  0  0  0  0  0  0
   39.2580   22.7540   33.9790 C   0  0  0  0  0  0  0  0  0  0  0  0
   40.6050   22.7610   33.6790 C   0  0  0  0  0  0  0  0  0  0  0  0
   41.3750   23.0530   34.3420 H   0  0  0  0  0  0  0  0  0  0  0  0
   41.1270   22.3570   32.4440 C   0  0  0  0  0  3  0  0  0  0  0  0
   40.2910   21.9200   31.4470 C   0  0  0  0  0  3  0  0  0  0  0  0
   38.9540   21.8940   31.6920 C   0  0  0  0  0  0  0  0  0  0  0  0
   38.1120   21.4580   30.6890 C   0  0  0  0  0  3  0  0  0  0  0  0
   36.7480   21.4100   30.8680 C   0  0  0  0  0  3  0  0  0  0  0  0
   36.2420   21.8190   32.1080 C   0  0  0  0  0  3  0  0  0  0  0  0
   37.1230   22.2460   33.0780 C   0  0  0  0  0  3  0  0  0  0  0  0
   38.4920   22.2990   32.9130 C   0  0  0  0  0  0  0  0  0  0  0  0
   37.0510   25.6700   33.5590 Cl  0  0  0  0  0  0  0  0  0  0  0  0
   38.7350   26.0730   33.7610 C   0  0  0  0  0  0  0  0  0  0  0  0
   39.3080   26.9650   32.9200 C   0  0  0  0  0  0  0  0  0  0  0  0
   40.6430   27.2690   33.1850 C   0  0  0  0  0  0  0  0  0  0  0  0
   41.3730   26.7380   34.2050 C   0  0  0  0  0  0  0  0  0  0  0  0
   40.7470   25.8370   35.0300 C   0  0  0  0  0  0  0  0  0  0  0  0
   39.4240   25.4880   34.8240 C   0  0  0  0  0  0  0  0  0  0  0  0
   41.1470   27.9840   32.5340 H   0  0  0  0  0  0  0  0  0  0  0  0
   42.4120   27.0200   34.3570 H   0  0  0  0  0  0  0  0  0  0  0  0
   41.3050   25.4000   35.8480 H   0  0  0  0  0  0  0  0  0  0  0  0
   38.1820   27.9200   29.4610 C   0  0  0  0  0  0  0  0  0  0  0  0
   38.9410   27.3680   30.5000 C   0  0  0  0  0  0  0  0  0  0  0  0
   38.5530   27.5310   31.8320 C   0  0  0  0  0  0  0  0  0  0  0  0
   37.4180   28.2440   32.0440 N   0  0  0  0  0  0  0  0  0  0  0  0
   36.6830   28.7790   31.0550 C   0  0  0  0  0  0  0  0  0  0  0  0
   37.0630   28.6180   29.7580 N   0  0  0  0  0  0  0  0  0  0  0  0
   38.4060   27.8410   28.4100 H   0  0  0  0  0  0  0  0  0  0  0  0
   39.8060   26.8830   30.0960 H   0  0  0  0  0  0  0  0  0  0  0  0
   35.8200   29.3100   31.4270 H   0  0  0  0  0  0  0  0  0  0  0  0
  1  2  1  0  0  0  0
  2  8  1  0  0  0  0
  2  3  1  0  0  0  0
  3  4  1  0  0  0  0
  3  9  1  0  0  0  0
  4 11  1  0  0  0  0
  5  4  1  0  0  0  0
  6 14  1  1  0  0  0
  6  1  1  0  0  0  0
  6  5  1  0  0  0  0
  7  2  1  0  0  0  0
 10  3  1  0  0  0  0
 12  5  1  0  0  0  0
 13  5  1  0  0  0  0
 15  6  1  0  0  0  0
 16 15  1  0  0  0  0
 16 17  1  0  0  0  0
 18 16  2  0  0  0  0
 19 20  2  0  0  0  0
 19 18  1  0  0  0  0
 20 25  1  0  0  0  0
 21 22  2  0  0  0  0
 21 20  1  0  0  0  0
 22 23  1  0  0  0  0
 23 24  2  0  0  0  0
 25 24  1  0  0  0  0
 25 15  2  0  0  0  0
 26 27  1  0  0  0  0
 27 32  1  0  0  0  0
 28 29  1  0  0  0  0
 28 27  2  0  0  0  0
 29 30  2  0  0  0  0
 30 34  1  0  0  0  0
 30 31  1  0  0  0  0
 31 35  1  0  0  0  0
 32 31  2  0  0  0  0
 32  1  1  0  0  0  0
 33 29  1  0  0  0  0
 36 41  2  0  0  0  0
 36 37  1  0  0  0  0
 37 38  2  0  0  0  0
 38 39  1  0  0  0  0
 38 28  1  0  0  0  0
 40 44  1  0  0  0  0
 40 39  2  0  0  0  0
 41 40  1  0  0  0  0
 42 36  1  0  0  0  0
 43 37  1  0  0  0  0
M  END
>  <minimizedAffinity>
-5.97684193

$$$$
