
     RDKit          3D

 51 55  0  0  0  0  0  0  0  0999 V2000
   37.3254   30.1757   51.5146 C   0  0  0  0  0  0  0  0  0  0  0  0
   38.0709   30.8665   50.5176 C   0  0  0  0  0  0  0  0  0  0  0  0
   37.7084   30.6507   49.2045 C   0  0  0  0  0  0  0  0  0  0  0  0
   36.6677   29.7943   48.9773 N   0  0  0  0  0  0  0  0  0  0  0  0
   35.9890   29.1623   49.9309 C   0  0  0  0  0  0  0  0  0  0  0  0
   36.3269   29.3594   51.2166 N   0  0  0  0  0  0  0  0  0  0  0  0
   38.9457   33.2584   49.0096 F   0  0  0  0  0  0  0  0  0  0  0  0
   38.9205   32.4701   47.9338 C   0  0  0  0  0  0  0  0  0  0  0  0
   38.3409   31.2603   48.0503 C   0  0  0  0  0  0  0  0  0  0  0  0
   38.3720   30.5209   46.8604 C   0  0  0  0  0  0  0  0  0  0  0  0
   38.9362   30.9847   45.6965 C   0  0  0  0  0  0  0  0  0  0  0  0
   39.5099   32.2210   45.6381 C   0  0  0  0  0  0  0  0  0  0  0  0
   39.5004   32.9830   46.7908 C   0  0  0  0  0  0  0  0  0  0  0  0
   35.0009   28.3673   49.4432 O   0  0  0  0  0  0  0  0  0  0  0  0
   34.4479   28.6596   48.1539 C   0  0  0  0  0  0  0  0  0  0  0  0
   33.5677   27.5478   47.6934 C   0  0  0  0  0  0  0  0  0  0  0  0
   32.1203   27.9050   47.7177 C   0  0  0  0  0  0  0  0  0  0  0  0
   31.3528   27.5106   48.7879 C   0  0  0  0  0  0  0  0  0  0  0  0
   30.0296   27.8006   48.8521 C   0  0  0  0  0  0  0  0  0  0  0  0
   29.4590   28.4715   47.8777 N   0  0  0  0  0  0  0  0  0  0  0  0
   30.1861   28.8766   46.8078 C   0  0  0  0  0  0  0  0  0  0  0  0
   31.5097   28.5874   46.7422 N   0  0  0  0  0  0  0  0  0  0  0  0
   37.6347   30.3658   52.5473 H   0  0  0  0  0  0  0  0  0  0  0  0
   38.8852   31.5356   50.7100 H   0  0  0  0  0  0  0  0  0  0  0  0
   37.9418   29.5194   46.7949 H   0  0  0  0  0  0  0  0  0  0  0  0
   38.9447   30.3899   44.7932 H   0  0  0  0  0  0  0  0  0  0  0  0
   39.9538   32.6010   44.7442 H   0  0  0  0  0  0  0  0  0  0  0  0
   39.9452   33.9621   46.7765 H   0  0  0  0  0  0  0  0  0  0  0  0
   35.2184   28.9546   47.4227 H   0  0  0  0  0  0  0  0  0  0  0  0
   33.7983   29.5511   48.3185 H   0  0  0  0  0  0  0  0  0  0  0  0
   33.8091   27.3319   46.6293 H   0  0  0  0  0  0  0  0  0  0  0  0
   33.7252   26.5988   48.2413 H   0  0  0  0  0  0  0  0  0  0  0  0
   31.8344   26.9625   49.5767 H   0  0  0  0  0  0  0  0  0  0  0  0
   29.3899   27.5095   49.6752 H   0  0  0  0  0  0  0  0  0  0  0  0
   29.7784   29.6312   45.6080 C   0  0  0  0  0  0  0  0  0  0  0  0
   29.8028   31.0069   45.5082 C   0  0  0  0  0  0  0  0  0  0  0  0
   30.1492   31.5830   46.3810 H   0  0  0  0  0  0  0  0  0  0  0  0
   29.4265   31.7135   44.3995 C   0  0  0  0  0  0  0  0  0  0  0  0
   28.9854   31.0533   43.2796 C   0  0  0  0  0  0  0  0  0  0  0  0
   28.9382   29.6818   43.3170 C   0  0  0  0  0  0  0  0  0  0  0  0
   28.4882   29.0748   42.1662 C   0  0  0  0  0  0  0  0  0  0  0  0
   28.4079   27.7005   42.1134 C   0  0  0  0  0  0  0  0  0  0  0  0
   28.7952   26.9941   43.2523 C   0  0  0  0  0  0  0  0  0  0  0  0
   29.2335   27.6703   44.3628 C   0  0  0  0  0  0  0  0  0  0  0  0
   29.3264   29.0378   44.4503 C   0  0  0  0  0  0  0  0  0  0  0  0
   29.4910   32.7898   44.4452 H   0  0  0  0  0  0  0  0  0  0  0  0
   28.7114   31.6962   42.4567 H   0  0  0  0  0  0  0  0  0  0  0  0
   28.1925   29.6397   41.2939 H   0  0  0  0  0  0  0  0  0  0  0  0
   28.0544   27.2359   41.2082 H   0  0  0  0  0  0  0  0  0  0  0  0
   28.7076   25.9227   43.1432 H   0  0  0  0  0  0  0  0  0  0  0  0
   29.4889   26.9994   45.1383 H   0  0  0  0  0  0  0  0  0  0  0  0
  2  1  2  0
  3  2  1  0
  4  3  2  0
  4  5  1  0
  5  6  2  0
  6  1  1  0
  8  9  2  0
  8  7  1  0
  9  3  1  0
 10  9  1  0
 11 10  2  0
 12 11  1  0
 12 13  2  0
 13  8  1  0
 14  5  1  0
 15 14  1  0
 16 15  1  0
 17 16  1  0
 17 18  2  0
 18 19  1  0
 20 19  2  0
 21 20  1  0
 22 21  2  0
 22 17  1  0
  1 23  1  0
  2 24  1  0
 10 25  1  0
 11 26  1  0
 12 27  1  0
 13 28  1  0
 15 29  1  0
 15 30  1  0
 16 31  1  0
 16 32  1  0
 18 33  1  0
 19 34  1  0
 35 36  2  0
 36 37  1  0
 36 38  1  0
 38 39  2  0
 39 40  1  0
 40 41  2  0
 41 42  1  0
 42 43  2  0
 43 44  1  0
 44 45  2  0
 45 35  1  0
 45 40  1  0
 38 46  1  0
 39 47  1  0
 41 48  1  0
 42 49  1  0
 43 50  1  0
 44 51  1  0
 21 35  1  0
M  ISO  8  23  14  24  14  25  14  26  14  27  14  28  14  29   8  30   8
M  ISO  5  31   8  32   8  33  14  34  14  37  15
M  END
>  <DihAtoms>  (1) 
19,20,34,35

>  <DihDeg>  (1) 
179.97586528762767

$$$$
