
     RDKit          3D

 28 30  0  0  0  0  0  0  0  0999 V2000
   37.3100   30.2163   51.4204 C   0  0  0  0  0  0  0  0  0  0  0  0
   38.0754   30.7372   50.3814 C   0  0  0  0  0  0  0  0  0  0  0  0
   37.7500   30.4268   49.0582 C   0  0  0  0  0  0  0  0  0  0  0  0
   36.6638   29.6101   48.9153 N   0  0  0  0  0  0  0  0  0  0  0  0
   35.9335   29.1146   49.9129 C   0  0  0  0  0  0  0  0  0  0  0  0
   36.2631   29.4225   51.1770 N   0  0  0  0  0  0  0  0  0  0  0  0
   34.8452   28.2844   49.5348 N   0  0  0  0  0  0  0  0  0  0  0  0
   37.5635   30.4557   52.4439 H   0  0  0  0  0  0  0  0  0  0  0  0
   38.8484   31.3838   50.6532 H   0  0  0  0  0  0  0  0  0  0  0  0
   35.0191   27.2593   49.4800 H   0  0  0  0  0  0  0  0  0  0  0  0
   33.9986   28.8818   49.3644 H   0  0  0  0  0  0  0  0  0  0  0  0
   38.3626   30.9166   47.8475 C   0  0  0  0  0  0  0  0  0  0  0  0
   38.7097   32.2789   47.8701 C   0  0  0  0  0  0  0  0  0  0  0  0
   38.5239   32.8963   48.7584 H   0  0  0  0  0  0  0  0  0  0  0  0
   39.2954   32.9425   46.8151 C   0  0  0  0  0  0  0  0  0  0  0  0
   39.5729   32.2739   45.6551 C   0  0  0  0  0  0  0  0  0  0  0  0
   39.2503   30.9445   45.5832 C   0  0  0  0  0  0  0  0  0  0  0  0
   39.4855   30.2502   44.4171 C   0  0  0  0  0  0  0  0  0  0  0  0
   39.1486   28.9152   44.2713 C   0  0  0  0  0  0  0  0  0  0  0  0
   38.5507   28.3098   45.3838 C   0  0  0  0  0  0  0  0  0  0  0  0
   38.3329   29.0248   46.5228 C   0  0  0  0  0  0  0  0  0  0  0  0
   38.6682   30.3337   46.6631 C   0  0  0  0  0  0  0  0  0  0  0  0
   39.5430   33.9898   46.8846 H   0  0  0  0  0  0  0  0  0  0  0  0
   40.0258   32.7740   44.8356 H   0  0  0  0  0  0  0  0  0  0  0  0
   39.9570   30.7973   43.5916 H   0  0  0  0  0  0  0  0  0  0  0  0
   39.3485   28.3972   43.3382 H   0  0  0  0  0  0  0  0  0  0  0  0
   38.2997   27.2709   45.2358 H   0  0  0  0  0  0  0  0  0  0  0  0
   37.8446   28.4685   47.2664 H   0  0  0  0  0  0  0  0  0  0  0  0
  2  1  2  0
  3  2  1  0
  4  3  2  0
  4  5  1  0
  5  6  2  0
  6  1  1  0
  7  5  1  0
  1  8  1  0
  2  9  1  0
  7 10  1  0
  7 11  1  0
 12 13  2  0
 13 14  1  0
 13 15  1  0
 15 16  2  0
 16 17  1  0
 17 18  2  0
 18 19  1  0
 19 20  2  0
 20 21  1  0
 21 22  2  0
 22 12  1  0
 22 17  1  0
 15 23  1  0
 16 24  1  0
 18 25  1  0
 19 26  1  0
 20 27  1  0
 21 28  1  0
  3 12  1  0
M  ISO  3   8  14   9  14  14  15
M  END
>  <DihAtoms>  (1) 
1,2,11,12

>  <DihDeg>  (1) 
-144.5638883325183

$$$$
