
 OpenBabel03272501533D

 34 37  0  0  1  0  0  0  0  0999 V2000
   38.4060   23.0740   34.5640 N   0  0  0  0  0  0  0  0  0  0  0  0
   38.2630   21.8050   33.8250 C   0  0  0  0  0  0  0  0  0  0  0  0
   39.0120   21.7470   32.5530 C   0  0  0  0  0  0  0  0  0  0  0  0
   39.3180   22.9590   31.8810 N   0  0  0  0  0  0  0  0  0  0  0  0
   39.5680   24.0810   32.7850 C   0  0  0  0  0  0  0  0  0  0  0  0
   38.3370   24.1570   33.6770 C   0  0  2  0  0  0  0  0  0  0  0  0
   37.1600   21.5900   33.7160 H   0  0  0  0  0  0  0  0  0  0  0  0
   38.6610   21.0240   34.5010 H   0  0  0  0  0  0  0  0  0  0  0  0
   39.9440   21.1290   32.6520 H   0  0  0  0  0  0  0  0  0  0  0  0
   38.3800   21.1420   31.8390 H   0  0  0  0  0  0  0  0  0  0  0  0
   40.1910   22.8250   31.3210 H   0  0  0  0  0  0  0  0  0  0  0  0
   40.5000   23.9710   33.3590 H   0  0  0  0  0  0  0  0  0  0  0  0
   39.5450   24.9810   32.1250 H   0  0  0  0  0  0  0  0  0  0  0  0
   37.4820   23.9810   32.9240 H   0  0  0  0  0  0  0  0  0  0  0  0
   38.0800   25.5030   34.1730 C   0  0  0  0  0  0  0  0  0  0  0  0
   38.6250   26.0940   35.3250 C   0  0  0  0  0  0  0  0  0  0  0  0
   39.2890   25.4590   35.9010 H   0  0  0  0  0  0  0  0  0  0  0  0
   38.3570   27.3850   35.7260 C   0  0  0  0  0  3  0  0  0  0  0  0
   37.5120   28.1750   34.9830 C   0  0  0  0  0  3  0  0  0  0  0  0
   36.9520   27.6390   33.8410 C   0  0  0  0  0  0  0  0  0  0  0  0
   36.1210   28.4830   33.1450 C   0  0  0  0  0  3  0  0  0  0  0  0
   35.5210   28.0380   31.9930 C   0  0  0  0  0  3  0  0  0  0  0  0
   35.7630   26.7600   31.5610 C   0  0  0  0  0  3  0  0  0  0  0  0
   36.6050   25.9580   32.3000 C   0  0  0  0  0  3  0  0  0  0  0  0
   37.2380   26.3430   33.4630 C   0  0  0  0  0  0  0  0  0  0  0  0
   38.5810   23.0670   35.9700 C   0  0  0  0  0  0  0  0  0  0  0  0
   39.8220   22.8680   36.5610 C   0  0  0  0  0  0  0  0  0  0  0  0
   39.9730   22.8740   37.9360 C   0  0  0  0  0  0  0  0  0  0  0  0
   38.8340   23.0830   38.6760 N   0  0  0  0  0  0  0  0  0  0  0  0
   37.6220   23.2750   38.0670 C   0  0  0  0  0  0  0  0  0  0  0  0
   37.4960   23.2670   36.7410 N   0  0  0  0  0  0  0  0  0  0  0  0
   40.7270   22.6930   36.0210 H   0  0  0  0  0  0  0  0  0  0  0  0
   40.9090   22.7270   38.4540 H   0  0  0  0  0  0  0  0  0  0  0  0
   36.7990   23.4290   38.7560 H   0  0  0  0  0  0  0  0  0  0  0  0
  1 26  1  0  0  0  0
  2  8  1  0  0  0  0
  2  1  1  0  0  0  0
  3  9  1  0  0  0  0
  3  2  1  0  0  0  0
  4  3  1  0  0  0  0
  4  5  1  0  0  0  0
  5 12  1  0  0  0  0
  5  6  1  0  0  0  0
  6 14  1  6  0  0  0
  6 15  1  0  0  0  0
  6  1  1  0  0  0  0
  7  2  1  0  0  0  0
 10  3  1  0  0  0  0
 11  4  1  0  0  0  0
 13  5  1  0  0  0  0
 15 16  1  0  0  0  0
 16 18  2  0  0  0  0
 16 17  1  0  0  0  0
 19 18  1  0  0  0  0
 20 19  2  0  0  0  0
 21 20  1  0  0  0  0
 22 21  2  0  0  0  0
 23 22  1  0  0  0  0
 23 24  2  0  0  0  0
 24 25  1  0  0  0  0
 25 20  1  0  0  0  0
 25 15  2  0  0  0  0
 26 27  2  0  0  0  0
 26 31  1  0  0  0  0
 27 28  1  0  0  0  0
 28 33  1  0  0  0  0
 28 29  2  0  0  0  0
 30 29  1  0  0  0  0
 30 34  1  0  0  0  0
 31 30  2  0  0  0  0
 32 27  1  0  0  0  0
M  END
>  <minimizedAffinity>
-5.73537731

$$$$

 OpenBabel03272501533D

 34 37  0  0  1  0  0  0  0  0999 V2000
   38.4740   24.1280   36.1430 N   0  0  0  0  0  0  0  0  0  0  0  0
   37.9770   24.3410   37.5150 C   0  0  0  0  0  0  0  0  0  0  0  0
   38.7400   23.6320   38.5620 C   0  0  0  0  0  0  0  0  0  0  0  0
   39.4550   22.4570   38.2140 N   0  0  0  0  0  0  0  0  0  0  0  0
   39.9980   22.4850   36.8560 C   0  0  0  0  0  0  0  0  0  0  0  0
   38.8060   22.7800   35.9560 C   0  0  2  0  0  0  0  0  0  0  0  0
   36.8720   24.1130   37.5220 H   0  0  0  0  0  0  0  0  0  0  0  0
   38.0650   25.4300   37.6950 H   0  0  0  0  0  0  0  0  0  0  0  0
   39.4190   24.3310   39.1210 H   0  0  0  0  0  0  0  0  0  0  0  0
   37.9900   23.3230   39.3480 H   0  0  0  0  0  0  0  0  0  0  0  0
   40.2700   22.3520   38.8600 H   0  0  0  0  0  0  0  0  0  0  0  0
   40.8110   23.2160   36.7330 H   0  0  0  0  0  0  0  0  0  0  0  0
   40.3010   21.4300   36.6550 H   0  0  0  0  0  0  0  0  0  0  0  0
   37.9850   22.1160   36.4180 H   0  0  0  0  0  0  0  0  0  0  0  0
   38.9630   22.2360   34.6130 C   0  0  0  0  0  0  0  0  0  0  0  0
   40.1130   22.3040   33.8070 C   0  0  0  0  0  0  0  0  0  0  0  0
   40.9520   22.8360   34.2410 H   0  0  0  0  0  0  0  0  0  0  0  0
   40.2030   21.7460   32.5500 C   0  0  0  0  0  3  0  0  0  0  0  0
   39.1290   21.0750   32.0160 C   0  0  0  0  0  3  0  0  0  0  0  0
   37.9770   20.9810   32.7700 C   0  0  0  0  0  0  0  0  0  0  0  0
   36.9450   20.2950   32.1790 C   0  0  0  0  0  3  0  0  0  0  0  0
   35.7590   20.1460   32.8550 C   0  0  0  0  0  3  0  0  0  0  0  0
   35.6300   20.6860   34.1080 C   0  0  0  0  0  3  0  0  0  0  0  0
   36.6990   21.3640   34.6520 C   0  0  0  0  0  3  0  0  0  0  0  0
   37.9140   21.5490   34.0260 C   0  0  0  0  0  0  0  0  0  0  0  0
   38.5570   25.2130   35.2360 C   0  0  0  0  0  0  0  0  0  0  0  0
   39.7280   25.9350   35.0480 C   0  0  0  0  0  0  0  0  0  0  0  0
   39.7900   26.9850   34.1500 C   0  0  0  0  0  0  0  0  0  0  0  0
   38.6350   27.2720   33.4640 N   0  0  0  0  0  0  0  0  0  0  0  0
   37.4920   26.5460   33.6690 C   0  0  0  0  0  0  0  0  0  0  0  0
   37.4510   25.5360   34.5380 N   0  0  0  0  0  0  0  0  0  0  0  0
   40.6430   25.7480   35.5690 H   0  0  0  0  0  0  0  0  0  0  0  0
   40.6690   27.5820   33.9590 H   0  0  0  0  0  0  0  0  0  0  0  0
   36.6470   26.8680   33.0710 H   0  0  0  0  0  0  0  0  0  0  0  0
  1  2  1  0  0  0  0
  2  7  1  0  0  0  0
  2  8  1  0  0  0  0
  2  3  1  0  0  0  0
  3  9  1  0  0  0  0
  3 10  1  0  0  0  0
  4  3  1  0  0  0  0
  4 11  1  0  0  0  0
  5  4  1  0  0  0  0
  6  1  1  0  0  0  0
  6 14  1  1  0  0  0
  6  5  1  0  0  0  0
 12  5  1  0  0  0  0
 13  5  1  0  0  0  0
 15  6  1  0  0  0  0
 16 17  1  0  0  0  0
 16 15  2  0  0  0  0
 18 16  1  0  0  0  0
 19 18  2  0  0  0  0
 19 20  1  0  0  0  0
 20 25  1  0  0  0  0
 21 20  2  0  0  0  0
 21 22  1  0  0  0  0
 22 23  2  0  0  0  0
 23 24  1  0  0  0  0
 25 15  1  0  0  0  0
 25 24  2  0  0  0  0
 26  1  1  0  0  0  0
 27 26  1  0  0  0  0
 27 32  1  0  0  0  0
 28 27  2  0  0  0  0
 29 30  2  0  0  0  0
 29 28  1  0  0  0  0
 30 31  1  0  0  0  0
 31 26  2  0  0  0  0
 33 28  1  0  0  0  0
 34 30  1  0  0  0  0
M  END
>  <minimizedAffinity>
-5.7045908

$$$$

 OpenBabel03272501533D

 34 37  0  0  1  0  0  0  0  0999 V2000
   38.3220   24.0910   36.2030 N   0  0  0  0  0  0  0  0  0  0  0  0
   37.8530   23.9720   37.5960 C   0  0  0  0  0  0  0  0  0  0  0  0
   38.8110   23.3200   38.5140 C   0  0  0  0  0  0  0  0  0  0  0  0
   39.7660   22.4170   37.9800 N   0  0  0  0  0  0  0  0  0  0  0  0
   40.2230   22.7760   36.6380 C   0  0  0  0  0  0  0  0  0  0  0  0
   38.9550   22.9060   35.8050 C   0  0  2  0  0  0  0  0  0  0  0  0
   36.8350   23.4860   37.5790 H   0  0  0  0  0  0  0  0  0  0  0  0
   37.6890   25.0110   37.9430 H   0  0  0  0  0  0  0  0  0  0  0  0
   39.3300   24.0710   39.1680 H   0  0  0  0  0  0  0  0  0  0  0  0
   38.1920   22.7260   39.2490 H   0  0  0  0  0  0  0  0  0  0  0  0
   40.6120   22.4170   38.5940 H   0  0  0  0  0  0  0  0  0  0  0  0
   40.8340   23.6920   36.6220 H   0  0  0  0  0  0  0  0  0  0  0  0
   40.7580   21.8670   36.2730 H   0  0  0  0  0  0  0  0  0  0  0  0
   38.3360   22.0030   36.1670 H   0  0  0  0  0  0  0  0  0  0  0  0
   39.1740   22.6220   34.3930 C   0  0  0  0  0  0  0  0  0  0  0  0
   40.3350   22.8940   33.6510 C   0  0  0  0  0  0  0  0  0  0  0  0
   41.1320   23.3820   34.2000 H   0  0  0  0  0  0  0  0  0  0  0  0
   40.4860   22.5770   32.3170 C   0  0  0  0  0  3  0  0  0  0  0  0
   39.4640   21.9580   31.6370 C   0  0  0  0  0  3  0  0  0  0  0  0
   38.3030   21.6690   32.3240 C   0  0  0  0  0  0  0  0  0  0  0  0
   37.3260   21.0480   31.5870 C   0  0  0  0  0  3  0  0  0  0  0  0
   36.1360   20.7170   32.1870 C   0  0  0  0  0  3  0  0  0  0  0  0
   35.9470   21.0150   33.5120 C   0  0  0  0  0  3  0  0  0  0  0  0
   36.9620   21.6400   34.2020 C   0  0  0  0  0  3  0  0  0  0  0  0
   38.1790   21.9980   33.6590 C   0  0  0  0  0  0  0  0  0  0  0  0
   38.1030   25.2870   35.4750 C   0  0  0  0  0  0  0  0  0  0  0  0
   37.5840   25.2850   34.1870 C   0  0  0  0  0  0  0  0  0  0  0  0
   37.3690   26.4640   33.4970 C   0  0  0  0  0  0  0  0  0  0  0  0
   37.6980   27.6260   34.1520 N   0  0  0  0  0  0  0  0  0  0  0  0
   38.2100   27.6000   35.4220 C   0  0  0  0  0  0  0  0  0  0  0  0
   38.4090   26.4540   36.0730 N   0  0  0  0  0  0  0  0  0  0  0  0
   37.3250   24.4030   33.6410 H   0  0  0  0  0  0  0  0  0  0  0  0
   36.9680   26.5280   32.4960 H   0  0  0  0  0  0  0  0  0  0  0  0
   38.4310   28.5790   35.8320 H   0  0  0  0  0  0  0  0  0  0  0  0
  1  2  1  0  0  0  0
  2  8  1  0  0  0  0
  2  3  1  0  0  0  0
  3  9  1  0  0  0  0
  3 10  1  0  0  0  0
  4  3  1  0  0  0  0
  4 11  1  0  0  0  0
  5  4  1  0  0  0  0
  6 14  1  1  0  0  0
  6  1  1  0  0  0  0
  6  5  1  0  0  0  0
  7  2  1  0  0  0  0
 12  5  1  0  0  0  0
 13  5  1  0  0  0  0
 15  6  1  0  0  0  0
 16 17  1  0  0  0  0
 16 15  2  0  0  0  0
 18 16  1  0  0  0  0
 19 18  2  0  0  0  0
 19 20  1  0  0  0  0
 20 25  1  0  0  0  0
 21 22  1  0  0  0  0
 21 20  2  0  0  0  0
 22 23  2  0  0  0  0
 23 24  1  0  0  0  0
 25 24  2  0  0  0  0
 25 15  1  0  0  0  0
 26 31  1  0  0  0  0
 26  1  1  0  0  0  0
 27 26  2  0  0  0  0
 28 29  2  0  0  0  0
 28 27  1  0  0  0  0
 29 30  1  0  0  0  0
 30 34  1  0  0  0  0
 30 31  2  0  0  0  0
 32 27  1  0  0  0  0
 33 28  1  0  0  0  0
M  END
>  <minimizedAffinity>
-5.4171319

$$$$

 OpenBabel03272501533D

 34 37  0  0  1  0  0  0  0  0999 V2000
   40.7660   24.3080   34.6390 N   0  0  0  0  0  0  0  0  0  0  0  0
   42.1180   23.8870   35.0530 C   0  0  0  0  0  0  0  0  0  0  0  0
   43.0210   24.9960   35.4210 C   0  0  0  0  0  0  0  0  0  0  0  0
   42.7900   26.2830   34.8680 N   0  0  0  0  0  0  0  0  0  0  0  0
   41.3730   26.5800   34.6550 C   0  0  0  0  0  0  0  0  0  0  0  0
   40.8470   25.4320   33.8060 C   0  0  2  0  0  0  0  0  0  0  0  0
   42.5300   23.2090   34.2520 H   0  0  0  0  0  0  0  0  0  0  0  0
   41.9670   23.2490   35.9460 H   0  0  0  0  0  0  0  0  0  0  0  0
   43.1340   25.0840   36.5350 H   0  0  0  0  0  0  0  0  0  0  0  0
   44.0550   24.6900   35.0840 H   0  0  0  0  0  0  0  0  0  0  0  0
   43.1510   27.0060   35.5290 H   0  0  0  0  0  0  0  0  0  0  0  0
   40.8140   26.7010   35.5950 H   0  0  0  0  0  0  0  0  0  0  0  0
   41.3740   27.4880   34.0060 H   0  0  0  0  0  0  0  0  0  0  0  0
   41.7010   25.2830   33.0460 H   0  0  0  0  0  0  0  0  0  0  0  0
   39.7160   25.8170   32.9720 C   0  0  0  0  0  0  0  0  0  0  0  0
   39.5000   25.4580   31.6300 C   0  0  0  0  0  0  0  0  0  0  0  0
   40.2750   24.8470   31.1830 H   0  0  0  0  0  0  0  0  0  0  0  0
   38.3920   25.8380   30.9030 C   0  0  0  0  0  3  0  0  0  0  0  0
   37.4180   26.6140   31.4870 C   0  0  0  0  0  3  0  0  0  0  0  0
   37.5860   26.9910   32.8040 C   0  0  0  0  0  0  0  0  0  0  0  0
   36.5750   27.7610   33.3250 C   0  0  0  0  0  3  0  0  0  0  0  0
   36.6530   28.1810   34.6300 C   0  0  0  0  0  3  0  0  0  0  0  0
   37.7380   27.8230   35.3870 C   0  0  0  0  0  3  0  0  0  0  0  0
   38.7220   27.0500   34.8110 C   0  0  0  0  0  3  0  0  0  0  0  0
   38.7050   26.5960   33.5080 C   0  0  0  0  0  0  0  0  0  0  0  0
   39.6270   23.5950   35.0860 C   0  0  0  0  0  0  0  0  0  0  0  0
   39.0280   23.8490   36.3130 C   0  0  0  0  0  0  0  0  0  0  0  0
   37.9110   23.1470   36.7270 C   0  0  0  0  0  0  0  0  0  0  0  0
   37.4320   22.1930   35.8630 N   0  0  0  0  0  0  0  0  0  0  0  0
   38.0420   21.9610   34.6580 C   0  0  0  0  0  0  0  0  0  0  0  0
   39.1180   22.6480   34.2760 N   0  0  0  0  0  0  0  0  0  0  0  0
   39.3760   24.5750   37.0160 H   0  0  0  0  0  0  0  0  0  0  0  0
   37.4000   23.2990   37.6670 H   0  0  0  0  0  0  0  0  0  0  0  0
   37.5740   21.1840   34.0650 H   0  0  0  0  0  0  0  0  0  0  0  0
  1  2  1  0  0  0  0
  1 26  1  0  0  0  0
  2  3  1  0  0  0  0
  2  8  1  0  0  0  0
  3  9  1  0  0  0  0
  4  3  1  0  0  0  0
  4 11  1  0  0  0  0
  5  4  1  0  0  0  0
  5 12  1  0  0  0  0
  6 14  1  6  0  0  0
  6  1  1  0  0  0  0
  6  5  1  0  0  0  0
  7  2  1  0  0  0  0
 10  3  1  0  0  0  0
 13  5  1  0  0  0  0
 15 25  1  0  0  0  0
 15  6  1  0  0  0  0
 16 15  2  0  0  0  0
 17 16  1  0  0  0  0
 18 19  2  0  0  0  0
 18 16  1  0  0  0  0
 19 20  1  0  0  0  0
 20 21  2  0  0  0  0
 20 25  1  0  0  0  0
 21 22  1  0  0  0  0
 22 23  2  0  0  0  0
 24 23  1  0  0  0  0
 25 24  2  0  0  0  0
 26 27  1  0  0  0  0
 27 28  2  0  0  0  0
 27 32  1  0  0  0  0
 28 33  1  0  0  0  0
 29 28  1  0  0  0  0
 30 29  2  0  0  0  0
 31 30  1  0  0  0  0
 31 26  2  0  0  0  0
 34 30  1  0  0  0  0
M  END
>  <minimizedAffinity>
-5.3863883

$$$$

 OpenBabel03272501533D

 34 37  0  0  1  0  0  0  0  0999 V2000
   39.1630   25.3250   31.4150 N   0  0  0  0  0  0  0  0  0  0  0  0
   40.0070   25.3110   30.2060 C   0  0  0  0  0  0  0  0  0  0  0  0
   41.1840   24.4230   30.2890 C   0  0  0  0  0  0  0  0  0  0  0  0
   41.7240   24.1160   31.5660 N   0  0  0  0  0  0  0  0  0  0  0  0
   40.7150   24.0340   32.6220 C   0  0  0  0  0  0  0  0  0  0  0  0
   39.9670   25.3590   32.5620 C   0  0  2  0  0  0  0  0  0  0  0  0
   40.2580   26.3790   29.9450 H   0  0  0  0  0  0  0  0  0  0  0  0
   39.3500   24.9440   29.3920 H   0  0  0  0  0  0  0  0  0  0  0  0
   41.0260   23.4720   29.7130 H   0  0  0  0  0  0  0  0  0  0  0  0
   42.0100   24.9350   29.7130 H   0  0  0  0  0  0  0  0  0  0  0  0
   42.1880   23.1810   31.5220 H   0  0  0  0  0  0  0  0  0  0  0  0
   40.0470   23.1670   32.5110 H   0  0  0  0  0  0  0  0  0  0  0  0
   41.3030   24.0380   33.5700 H   0  0  0  0  0  0  0  0  0  0  0  0
   40.8240   26.1130   32.4060 H   0  0  0  0  0  0  0  0  0  0  0  0
   39.4040   25.7490   33.8490 C   0  0  0  0  0  0  0  0  0  0  0  0
   39.3130   27.0530   34.3660 C   0  0  0  0  0  0  0  0  0  0  0  0
   39.7260   27.8310   33.7350 H   0  0  0  0  0  0  0  0  0  0  0  0
   38.7460   27.3570   35.5850 C   0  0  0  0  0  3  0  0  0  0  0  0
   38.2260   26.3550   36.3710 C   0  0  0  0  0  3  0  0  0  0  0  0
   38.2910   25.0580   35.9050 C   0  0  0  0  0  0  0  0  0  0  0  0
   37.7520   24.1090   36.7380 C   0  0  0  0  0  3  0  0  0  0  0  0
   37.7670   22.7910   36.3570 C   0  0  0  0  0  3  0  0  0  0  0  0
   38.3220   22.4470   35.1510 C   0  0  0  0  0  3  0  0  0  0  0  0
   38.8490   23.4420   34.3570 C   0  0  0  0  0  3  0  0  0  0  0  0
   38.8650   24.7820   34.6810 C   0  0  0  0  0  0  0  0  0  0  0  0
   37.7500   25.3070   31.3020 C   0  0  0  0  0  0  0  0  0  0  0  0
   37.0260   24.1230   31.2530 C   0  0  0  0  0  0  0  0  0  0  0  0
   35.6470   24.1270   31.1520 C   0  0  0  0  0  0  0  0  0  0  0  0
   35.0410   25.3590   31.1010 N   0  0  0  0  0  0  0  0  0  0  0  0
   35.7790   26.5120   31.1490 C   0  0  0  0  0  0  0  0  0  0  0  0
   37.1070   26.4890   31.2480 N   0  0  0  0  0  0  0  0  0  0  0  0
   37.4620   23.1470   31.2800 H   0  0  0  0  0  0  0  0  0  0  0  0
   35.0290   23.2430   31.1100 H   0  0  0  0  0  0  0  0  0  0  0  0
   35.1880   27.4200   31.1000 H   0  0  0  0  0  0  0  0  0  0  0  0
  1  6  1  0  0  0  0
  2  3  1  0  0  0  0
  2  1  1  0  0  0  0
  3  4  1  0  0  0  0
  4  5  1  0  0  0  0
  5 13  1  0  0  0  0
  6 14  1  6  0  0  0
  6  5  1  0  0  0  0
  6 15  1  0  0  0  0
  7  2  1  0  0  0  0
  8  2  1  0  0  0  0
  9  3  1  0  0  0  0
 10  3  1  0  0  0  0
 11  4  1  0  0  0  0
 12  5  1  0  0  0  0
 15 16  2  0  0  0  0
 15 25  1  0  0  0  0
 16 18  1  0  0  0  0
 17 16  1  0  0  0  0
 18 19  2  0  0  0  0
 20 19  1  0  0  0  0
 20 21  1  0  0  0  0
 22 21  2  0  0  0  0
 23 22  1  0  0  0  0
 24 25  1  0  0  0  0
 24 23  2  0  0  0  0
 25 20  2  0  0  0  0
 26  1  1  0  0  0  0
 27 32  1  0  0  0  0
 27 26  1  0  0  0  0
 28 27  2  0  0  0  0
 29 30  2  0  0  0  0
 29 28  1  0  0  0  0
 30 31  1  0  0  0  0
 31 26  2  0  0  0  0
 33 28  1  0  0  0  0
 34 30  1  0  0  0  0
M  END
>  <minimizedAffinity>
-5.35270071

$$$$

 OpenBabel03272501533D

 34 37  0  0  1  0  0  0  0  0999 V2000
   34.1430   30.9200   35.0430 N   0  0  0  0  0  0  0  0  0  0  0  0
   34.1790   31.3990   36.4370 C   0  0  0  0  0  0  0  0  0  0  0  0
   35.0590   32.5640   36.6650 C   0  0  0  0  0  0  0  0  0  0  0  0
   36.1520   32.7800   35.7850 N   0  0  0  0  0  0  0  0  0  0  0  0
   35.8810   32.3710   34.4070 C   0  0  0  0  0  0  0  0  0  0  0  0
   35.4360   30.9180   34.5020 C   0  0  2  0  0  0  0  0  0  0  0  0
   34.4080   30.5170   37.1020 H   0  0  0  0  0  0  0  0  0  0  0  0
   33.1380   31.6970   36.6740 H   0  0  0  0  0  0  0  0  0  0  0  0
   34.4680   33.5130   36.7670 H   0  0  0  0  0  0  0  0  0  0  0  0
   35.5050   32.4290   37.6930 H   0  0  0  0  0  0  0  0  0  0  0  0
   36.3660   33.8030   35.7570 H   0  0  0  0  0  0  0  0  0  0  0  0
   35.1370   33.0090   33.9070 H   0  0  0  0  0  0  0  0  0  0  0  0
   36.8830   32.3700   33.9150 H   0  0  0  0  0  0  0  0  0  0  0  0
   36.1740   30.4900   35.2770 H   0  0  0  0  0  0  0  0  0  0  0  0
   35.7320   30.1550   33.2970 C   0  0  0  0  0  0  0  0  0  0  0  0
   35.5880   30.5920   31.9680 C   0  0  0  0  0  0  0  0  0  0  0  0
   35.1980   31.5960   31.8510 H   0  0  0  0  0  0  0  0  0  0  0  0
   35.9110   29.8250   30.8690 C   0  0  0  0  0  3  0  0  0  0  0  0
   36.4050   28.5530   31.0380 C   0  0  0  0  0  3  0  0  0  0  0  0
   36.5640   28.0800   32.3240 C   0  0  0  0  0  0  0  0  0  0  0  0
   37.0650   26.8050   32.4210 C   0  0  0  0  0  3  0  0  0  0  0  0
   37.2620   26.2500   33.6610 C   0  0  0  0  0  3  0  0  0  0  0  0
   36.9550   26.9810   34.7790 C   0  0  0  0  0  3  0  0  0  0  0  0
   36.4550   28.2550   34.6220 C   0  0  0  0  0  3  0  0  0  0  0  0
   36.2340   28.8690   33.4070 C   0  0  0  0  0  0  0  0  0  0  0  0
   32.9140   30.5430   34.4480 C   0  0  0  0  0  0  0  0  0  0  0  0
   32.3450   29.2930   34.6510 C   0  0  0  0  0  0  0  0  0  0  0  0
   31.1400   28.9480   34.0680 C   0  0  0  0  0  0  0  0  0  0  0  0
   30.5450   29.9030   33.2800 N   0  0  0  0  0  0  0  0  0  0  0  0
   31.1280   31.1290   33.0950 C   0  0  0  0  0  0  0  0  0  0  0  0
   32.2900   31.4440   33.6660 N   0  0  0  0  0  0  0  0  0  0  0  0
   32.7810   28.5200   35.2480 H   0  0  0  0  0  0  0  0  0  0  0  0
   30.6460   27.9940   34.1880 H   0  0  0  0  0  0  0  0  0  0  0  0
   30.5640   31.7960   32.4530 H   0  0  0  0  0  0  0  0  0  0  0  0
  1  2  1  0  0  0  0
  2  3  1  0  0  0  0
  2  8  1  0  0  0  0
  2  7  1  0  0  0  0
  3  9  1  0  0  0  0
  3 10  1  0  0  0  0
  4  3  1  0  0  0  0
  5  6  1  0  0  0  0
  5  4  1  0  0  0  0
  6  1  1  0  0  0  0
  6 14  1  1  0  0  0
 11  4  1  0  0  0  0
 12  5  1  0  0  0  0
 13  5  1  0  0  0  0
 15 25  1  0  0  0  0
 15  6  1  0  0  0  0
 16 15  2  0  0  0  0
 17 16  1  0  0  0  0
 18 19  2  0  0  0  0
 18 16  1  0  0  0  0
 19 20  1  0  0  0  0
 20 21  2  0  0  0  0
 20 25  1  0  0  0  0
 21 22  1  0  0  0  0
 22 23  2  0  0  0  0
 24 23  1  0  0  0  0
 25 24  2  0  0  0  0
 26 27  1  0  0  0  0
 26  1  1  0  0  0  0
 27 32  1  0  0  0  0
 28 33  1  0  0  0  0
 28 27  2  0  0  0  0
 29 28  1  0  0  0  0
 30 29  2  0  0  0  0
 30 31  1  0  0  0  0
 31 26  2  0  0  0  0
 34 30  1  0  0  0  0
M  END
>  <minimizedAffinity>
-5.33754444

$$$$

 OpenBabel03272501533D

 34 37  0  0  1  0  0  0  0  0999 V2000
   37.8150   24.5040   32.8620 N   0  0  0  0  0  0  0  0  0  0  0  0
   36.8090   25.5180   32.4930 C   0  0  0  0  0  0  0  0  0  0  0  0
   37.3670   26.8430   32.1540 C   0  0  0  0  0  0  0  0  0  0  0  0
   38.6230   27.2180   32.6970 N   0  0  0  0  0  0  0  0  0  0  0  0
   39.5470   26.0950   32.8620 C   0  0  0  0  0  0  0  0  0  0  0  0
   38.7870   25.0730   33.6960 C   0  0  2  0  0  0  0  0  0  0  0  0
   36.0300   25.5460   33.3090 H   0  0  0  0  0  0  0  0  0  0  0  0
   36.2980   25.1140   31.5970 H   0  0  0  0  0  0  0  0  0  0  0  0
   37.3730   27.0150   31.0440 H   0  0  0  0  0  0  0  0  0  0  0  0
   36.6220   27.6060   32.5260 H   0  0  0  0  0  0  0  0  0  0  0  0
   39.0860   27.8920   32.0470 H   0  0  0  0  0  0  0  0  0  0  0  0
   39.8970   25.6830   31.9040 H   0  0  0  0  0  0  0  0  0  0  0  0
   40.3620   26.4980   33.5090 H   0  0  0  0  0  0  0  0  0  0  0  0
   38.2720   25.7380   34.4840 H   0  0  0  0  0  0  0  0  0  0  0  0
   39.6660   24.2260   34.4910 C   0  0  0  0  0  0  0  0  0  0  0  0
   40.8810   23.6530   34.0780 C   0  0  0  0  0  0  0  0  0  0  0  0
   41.1660   23.8600   33.0530 H   0  0  0  0  0  0  0  0  0  0  0  0
   41.6800   22.8770   34.8920 C   0  0  0  0  0  3  0  0  0  0  0  0
   41.3020   22.6260   36.1900 C   0  0  0  0  0  3  0  0  0  0  0  0
   40.1160   23.1680   36.6420 C   0  0  0  0  0  0  0  0  0  0  0  0
   39.8010   22.8810   37.9470 C   0  0  0  0  0  3  0  0  0  0  0  0
   38.6410   23.3800   38.4860 C   0  0  0  0  0  3  0  0  0  0  0  0
   37.8200   24.1570   37.7100 C   0  0  0  0  0  3  0  0  0  0  0  0
   38.1870   24.4110   36.4070 C   0  0  0  0  0  3  0  0  0  0  0  0
   39.3360   23.9410   35.8060 C   0  0  0  0  0  0  0  0  0  0  0  0
   37.7030   23.1770   32.3780 C   0  0  0  0  0  0  0  0  0  0  0  0
   37.0750   22.1740   33.1050 C   0  0  0  0  0  0  0  0  0  0  0  0
   36.9690   20.8870   32.6110 C   0  0  0  0  0  0  0  0  0  0  0  0
   37.5180   20.6590   31.3720 N   0  0  0  0  0  0  0  0  0  0  0  0
   38.1340   21.6660   30.6770 C   0  0  0  0  0  0  0  0  0  0  0  0
   38.2250   22.9010   31.1680 N   0  0  0  0  0  0  0  0  0  0  0  0
   36.6450   22.3090   34.0740 H   0  0  0  0  0  0  0  0  0  0  0  0
   36.4930   20.0660   33.1250 H   0  0  0  0  0  0  0  0  0  0  0  0
   38.5280   21.3640   29.7130 H   0  0  0  0  0  0  0  0  0  0  0  0
  1  6  1  0  0  0  0
  2  1  1  0  0  0  0
  2  7  1  0  0  0  0
  3  2  1  0  0  0  0
  3 10  1  0  0  0  0
  3  4  1  0  0  0  0
  4  5  1  0  0  0  0
  5 13  1  0  0  0  0
  5  6  1  0  0  0  0
  6 14  1  1  0  0  0
  6 15  1  0  0  0  0
  8  2  1  0  0  0  0
  9  3  1  0  0  0  0
 11  4  1  0  0  0  0
 12  5  1  0  0  0  0
 15 25  1  0  0  0  0
 16 15  2  0  0  0  0
 16 18  1  0  0  0  0
 17 16  1  0  0  0  0
 18 19  2  0  0  0  0
 19 20  1  0  0  0  0
 20 21  1  0  0  0  0
 21 22  2  0  0  0  0
 23 22  1  0  0  0  0
 24 23  2  0  0  0  0
 25 24  1  0  0  0  0
 25 20  2  0  0  0  0
 26  1  1  0  0  0  0
 26 27  1  0  0  0  0
 27 32  1  0  0  0  0
 28 27  2  0  0  0  0
 28 33  1  0  0  0  0
 29 28  1  0  0  0  0
 30 31  1  0  0  0  0
 30 29  2  0  0  0  0
 31 26  2  0  0  0  0
 34 30  1  0  0  0  0
M  END
>  <minimizedAffinity>
-5.22670746

$$$$

 OpenBabel03272501533D

 34 37  0  0  1  0  0  0  0  0999 V2000
   38.8700   25.3150   31.0770 N   0  0  0  0  0  0  0  0  0  0  0  0
   39.3290   25.3670   29.6760 C   0  0  0  0  0  0  0  0  0  0  0  0
   40.7680   25.6570   29.5110 C   0  0  0  0  0  0  0  0  0  0  0  0
   41.4460   26.3710   30.5340 N   0  0  0  0  0  0  0  0  0  0  0  0
   40.9440   26.0840   31.8770 C   0  0  0  0  0  0  0  0  0  0  0  0
   39.4480   26.3600   31.8110 C   0  0  2  0  0  0  0  0  0  0  0  0
   38.6530   26.0760   29.1160 H   0  0  0  0  0  0  0  0  0  0  0  0
   39.1260   24.3600   29.2610 H   0  0  0  0  0  0  0  0  0  0  0  0
   41.3490   24.7310   29.2550 H   0  0  0  0  0  0  0  0  0  0  0  0
   40.8610   26.2840   28.5760 H   0  0  0  0  0  0  0  0  0  0  0  0
   42.4550   26.0970   30.5270 H   0  0  0  0  0  0  0  0  0  0  0  0
   41.1700   25.0610   32.2120 H   0  0  0  0  0  0  0  0  0  0  0  0
   41.3910   26.8810   32.5180 H   0  0  0  0  0  0  0  0  0  0  0  0
   39.4080   27.3300   31.1900 H   0  0  0  0  0  0  0  0  0  0  0  0
   38.8880   26.7570   33.0960 C   0  0  0  0  0  0  0  0  0  0  0  0
   39.4110   26.4660   34.3680 C   0  0  0  0  0  0  0  0  0  0  0  0
   40.3140   25.8670   34.3710 H   0  0  0  0  0  0  0  0  0  0  0  0
   38.8430   26.8950   35.5480 C   0  0  0  0  0  3  0  0  0  0  0  0
   37.6970   27.6550   35.5250 C   0  0  0  0  0  3  0  0  0  0  0  0
   37.1460   27.9680   34.2990 C   0  0  0  0  0  0  0  0  0  0  0  0
   36.0060   28.7310   34.3480 C   0  0  0  0  0  3  0  0  0  0  0  0
   35.3880   29.0960   33.1770 C   0  0  0  0  0  3  0  0  0  0  0  0
   35.9220   28.6900   31.9820 C   0  0  0  0  0  3  0  0  0  0  0  0
   37.0680   27.9250   31.9940 C   0  0  0  0  0  3  0  0  0  0  0  0
   37.7360   27.5250   33.1320 C   0  0  0  0  0  0  0  0  0  0  0  0
   37.9710   24.3040   31.4970 C   0  0  0  0  0  0  0  0  0  0  0  0
   36.6340   24.2990   31.1230 C   0  0  0  0  0  0  0  0  0  0  0  0
   35.7750   23.2980   31.5380 C   0  0  0  0  0  0  0  0  0  0  0  0
   36.3150   22.3190   32.3350 N   0  0  0  0  0  0  0  0  0  0  0  0
   37.6380   22.3480   32.6910 C   0  0  0  0  0  0  0  0  0  0  0  0
   38.4510   23.3200   32.2810 N   0  0  0  0  0  0  0  0  0  0  0  0
   36.1740   25.0470   30.5130 H   0  0  0  0  0  0  0  0  0  0  0  0
   34.7280   23.2380   31.2800 H   0  0  0  0  0  0  0  0  0  0  0  0
   37.9460   21.5220   33.3230 H   0  0  0  0  0  0  0  0  0  0  0  0
  1 26  1  0  0  0  0
  1  6  1  0  0  0  0
  2  1  1  0  0  0  0
  3  2  1  0  0  0  0
  3  4  1  0  0  0  0
  4  5  1  0  0  0  0
  5 12  1  0  0  0  0
  5 13  1  0  0  0  0
  6 14  1  6  0  0  0
  6  5  1  0  0  0  0
  6 15  1  0  0  0  0
  7  2  1  0  0  0  0
  8  2  1  0  0  0  0
  9  3  1  0  0  0  0
 10  3  1  0  0  0  0
 11  4  1  0  0  0  0
 15 25  2  0  0  0  0
 15 16  1  0  0  0  0
 16 17  1  0  0  0  0
 16 18  2  0  0  0  0
 19 18  1  0  0  0  0
 20 21  1  0  0  0  0
 20 19  2  0  0  0  0
 22 21  2  0  0  0  0
 23 24  2  0  0  0  0
 23 22  1  0  0  0  0
 24 25  1  0  0  0  0
 25 20  1  0  0  0  0
 26 31  1  0  0  0  0
 27 26  2  0  0  0  0
 27 28  1  0  0  0  0
 28 29  2  0  0  0  0
 29 30  1  0  0  0  0
 30 34  1  0  0  0  0
 31 30  2  0  0  0  0
 32 27  1  0  0  0  0
 33 28  1  0  0  0  0
M  END
>  <minimizedAffinity>
-5.20462704

$$$$

 OpenBabel03272501533D

 34 37  0  0  1  0  0  0  0  0999 V2000
   37.8600   25.9870   32.1060 N   0  0  0  0  0  0  0  0  0  0  0  0
   38.3400   27.2890   31.6050 C   0  0  0  0  0  0  0  0  0  0  0  0
   37.3310   28.0700   30.8600 C   0  0  0  0  0  0  0  0  0  0  0  0
   36.2670   27.3840   30.2200 N   0  0  0  0  0  0  0  0  0  0  0  0
   35.8280   26.1870   30.9380 C   0  0  0  0  0  0  0  0  0  0  0  0
   37.0870   25.3510   31.1260 C   0  0  2  0  0  0  0  0  0  0  0  0
   39.2940   27.1090   31.0300 H   0  0  0  0  0  0  0  0  0  0  0  0
   38.6300   27.8630   32.5070 H   0  0  0  0  0  0  0  0  0  0  0  0
   36.9150   28.9070   31.4830 H   0  0  0  0  0  0  0  0  0  0  0  0
   37.8900   28.6150   30.0440 H   0  0  0  0  0  0  0  0  0  0  0  0
   35.4390   28.0190   30.1640 H   0  0  0  0  0  0  0  0  0  0  0  0
   35.3280   26.4170   31.8910 H   0  0  0  0  0  0  0  0  0  0  0  0
   35.1850   25.6430   30.2070 H   0  0  0  0  0  0  0  0  0  0  0  0
   37.6030   25.4590   30.1010 H   0  0  0  0  0  0  0  0  0  0  0  0
   36.8090   23.9230   31.2150 C   0  0  0  0  0  0  0  0  0  0  0  0
   35.6670   23.3220   31.7700 C   0  0  0  0  0  0  0  0  0  0  0  0
   34.9380   24.0080   32.1860 H   0  0  0  0  0  0  0  0  0  0  0  0
   35.4540   21.9600   31.8010 C   0  0  0  0  0  3  0  0  0  0  0  0
   36.3900   21.1050   31.2680 C   0  0  0  0  0  3  0  0  0  0  0  0
   37.5290   21.6490   30.7100 C   0  0  0  0  0  0  0  0  0  0  0  0
   38.4190   20.7400   30.1930 C   0  0  0  0  0  3  0  0  0  0  0  0
   39.5800   21.1880   29.6130 C   0  0  0  0  0  3  0  0  0  0  0  0
   39.8280   22.5350   29.5620 C   0  0  0  0  0  3  0  0  0  0  0  0
   38.8990   23.4010   30.0970 C   0  0  0  0  0  3  0  0  0  0  0  0
   37.7160   23.0160   30.6920 C   0  0  0  0  0  0  0  0  0  0  0  0
   38.2030   25.5530   33.4100 C   0  0  0  0  0  0  0  0  0  0  0  0
   39.2880   24.7210   33.6530 C   0  0  0  0  0  0  0  0  0  0  0  0
   39.6100   24.3150   34.9350 C   0  0  0  0  0  0  0  0  0  0  0  0
   38.8010   24.7770   35.9450 N   0  0  0  0  0  0  0  0  0  0  0  0
   37.7360   25.5950   35.6780 C   0  0  0  0  0  0  0  0  0  0  0  0
   37.4410   25.9770   34.4360 N   0  0  0  0  0  0  0  0  0  0  0  0
   39.9340   24.3340   32.8940 H   0  0  0  0  0  0  0  0  0  0  0  0
   40.4400   23.6720   35.1880 H   0  0  0  0  0  0  0  0  0  0  0  0
   37.1720   25.8910   36.5560 H   0  0  0  0  0  0  0  0  0  0  0  0
  1 26  1  0  0  0  0
  2  1  1  0  0  0  0
  2  8  1  0  0  0  0
  3  9  1  0  0  0  0
  3  2  1  0  0  0  0
  4  3  1  0  0  0  0
  4  5  1  0  0  0  0
  5  6  1  0  0  0  0
  5 12  1  0  0  0  0
  6 14  1  6  0  0  0
  6 15  1  0  0  0  0
  6  1  1  0  0  0  0
  7  2  1  0  0  0  0
 10  3  1  0  0  0  0
 11  4  1  0  0  0  0
 13  5  1  0  0  0  0
 15 16  1  0  0  0  0
 16 18  2  0  0  0  0
 16 17  1  0  0  0  0
 19 18  1  0  0  0  0
 20 19  2  0  0  0  0
 21 20  1  0  0  0  0
 22 21  2  0  0  0  0
 23 22  1  0  0  0  0
 23 24  2  0  0  0  0
 24 25  1  0  0  0  0
 25 20  1  0  0  0  0
 25 15  2  0  0  0  0
 26 27  2  0  0  0  0
 26 31  1  0  0  0  0
 27 28  1  0  0  0  0
 28 33  1  0  0  0  0
 28 29  2  0  0  0  0
 30 29  1  0  0  0  0
 30 34  1  0  0  0  0
 31 30  2  0  0  0  0
 32 27  1  0  0  0  0
M  END
>  <minimizedAffinity>
-5.17449188

$$$$
