REMARK  Name = 
REMARK  5 active torsions:
REMARK  status: ('A' for Active; 'I' for Inactive)
REMARK    1  A    between atoms: C_1  and  C_24
REMARK    2  A    between atoms: C_5  and  C_8
REMARK    3  A    between atoms: C_7  and  S_13
REMARK    4  A    between atoms: S_13  and  C_16
REMARK    5  A    between atoms: C_22  and  C_34
REMARK                            x       y       z     vdW  Elec       q    Type
REMARK                         _______ _______ _______ _____ _____    ______ ____
ROOT
ATOM      1  C   UNL     1      35.678  29.808  48.503  0.00  0.00    +0.000 A 
ATOM      2  C   UNL     1      35.466  28.880  49.449  0.00  0.00    +0.000 A 
ATOM      3  C   UNL     1      34.672  27.827  49.224  0.00  0.00    +0.000 A 
ATOM      4  N   UNL     1      34.076  27.711  48.010  0.00  0.00    +0.000 NA
ATOM      5  C   UNL     1      34.290  28.631  47.079  0.00  0.00    +0.000 A 
ATOM      6  N   UNL     1      35.085  29.686  47.302  0.00  0.00    +0.000 NA
ATOM      7  H   UNL     1      35.940  28.971  50.418  0.00  0.00    +0.000 HD
ATOM      8  H   UNL     1      34.508  27.081  50.000  0.00  0.00    +0.000 HD
ENDROOT
BRANCH   5  10
ATOM      9  C   UNL     1      32.262  28.075  45.806  0.00  0.00    +0.000 A 
ATOM     10  C   UNL     1      33.625  28.387  45.824  0.00  0.00    +0.000 A 
ATOM     11  C   UNL     1      34.417  28.457  44.691  0.00  0.00    +0.000 A 
ATOM     12  C   UNL     1      33.846  28.206  43.460  0.00  0.00    +0.000 A 
ATOM     13  C   UNL     1      32.510  27.890  43.349  0.00  0.00    +0.000 A 
ATOM     14  C   UNL     1      31.811  27.845  44.514  0.00  0.00    +0.000 A 
ATOM     15  H   UNL     1      35.468  28.703  44.754  0.00  0.00    +0.000 HD
ATOM     16  H   UNL     1      34.456  28.257  42.562  0.00  0.00    +0.000 HD
ATOM     17  H   UNL     1      32.047  27.691  42.403  0.00  0.00    +0.000 HD
ATOM     18  H   UNL     1      30.750  27.593  44.419  0.00  0.00    +0.000 HD
BRANCH   9  19
ATOM     19  S   UNL     1      31.278  28.009  47.149  0.00  0.00    +0.000 S 
ATOM     20  O   UNL     1      30.471  26.739  46.720  0.00  0.00    +0.000 OA
ATOM     21  O   UNL     1      30.355  29.199  47.086  0.00  0.00    +0.000 OA
BRANCH  19  22
ATOM     22  C   UNL     1      30.975  27.619  48.666  0.00  0.00    +0.000 C 
ATOM     23  F   UNL     1      30.547  26.346  49.106  0.00  0.00    +0.000 F 
ATOM     24  F   UNL     1      29.684  28.189  49.083  0.00  0.00    +0.000 F 
ATOM     25  F   UNL     1      31.545  28.343  49.753  0.00  0.00    +0.000 F 
ENDBRANCH  19  22
ENDBRANCH   9  19
ENDBRANCH   5  10
BRANCH   1  30
ATOM     26  C   UNL     1      37.317  32.753  49.960  0.00  0.00    +0.000 A 
ATOM     27  C   UNL     1      38.251  33.099  48.982  0.00  0.00    +0.000 A 
ATOM     28  C   UNL     1      38.310  32.328  47.831  0.00  0.00    +0.000 A 
ATOM     29  N   UNL     1      37.437  31.278  47.755  0.00  0.00    +0.000 NA
ATOM     30  C   UNL     1      36.547  30.964  48.712  0.00  0.00    +0.000 A 
ATOM     31  N   UNL     1      36.502  31.715  49.808  0.00  0.00    +0.000 NA
ATOM     32  H   UNL     1      37.267  33.353  50.859  0.00  0.00    +0.000 HD
ATOM     33  H   UNL     1      38.893  33.899  49.180  0.00  0.00    +0.000 HD
BRANCH  28  34
ATOM     34  C   UNL     1      39.221  32.431  46.716  0.00  0.00    +0.000 A 
ATOM     35  C   UNL     1      40.099  33.528  46.722  0.00  0.00    +0.000 A 
ATOM     36  H   UNL     1      40.055  34.249  47.542  0.00  0.00    +0.000 HD
ATOM     37  C   UNL     1      41.041  33.780  45.751  0.00  0.00    +0.000 A 
ATOM     38  C   UNL     1      41.161  32.920  44.684  0.00  0.00    +0.000 A 
ATOM     39  C   UNL     1      40.331  31.824  44.622  0.00  0.00    +0.000 A 
ATOM     40  C   UNL     1      40.452  30.925  43.585  0.00  0.00    +0.000 A 
ATOM     41  C   UNL     1      39.662  29.773  43.490  0.00  0.00    +0.000 A 
ATOM     42  C   UNL     1      38.747  29.607  44.526  0.00  0.00    +0.000 A 
ATOM     43  C   UNL     1      38.646  30.519  45.548  0.00  0.00    +0.000 A 
ATOM     44  C   UNL     1      39.416  31.633  45.624  0.00  0.00    +0.000 A 
ENDBRANCH  28  34
ENDBRANCH   1  30
TORSDOF 5
