
 OpenBabel03272500523D

 47 53  0  0  1  0  0  0  0  0999 V2000
   37.2990   27.1720   33.4790 C   0  0  0  0  0  0  0  0  0  0  0  0
   37.2040   26.8150   32.1460 C   0  0  0  0  0  0  0  0  0  0  0  0
   36.2090   27.5520   31.5870 N   0  0  0  0  0  0  0  0  0  0  0  0
   35.6790   28.3630   32.5430 C   0  0  0  0  0  0  0  0  0  0  0  0
   36.3510   28.1230   33.6880 N   0  0  0  0  0  0  0  0  0  0  0  0
   37.7800   26.0970   31.6000 H   0  0  0  0  0  0  0  0  0  0  0  0
   35.8440   27.5630   30.6060 H   0  0  0  0  0  0  0  0  0  0  0  0
   37.7630   26.0120   35.7170 C   0  0  1  0  0  0  0  0  0  0  0  0
   38.5790   27.3580   35.7170 C   0  0  0  0  0  0  0  0  0  0  0  0
   38.2590   26.5890   34.4690 C   0  0  2  0  0  0  0  0  0  0  0  0
   36.6860   26.1430   35.9740 H   0  0  0  0  0  0  0  0  0  0  0  0
   37.9930   28.2720   35.8770 H   0  0  0  0  0  0  0  0  0  0  0  0
   39.6060   27.2470   36.1110 H   0  0  0  0  0  0  0  0  0  0  0  0
   39.1210   26.0610   33.9750 H   0  0  0  0  0  0  0  0  0  0  0  0
   39.8190   23.1850   36.5670 C   0  0  0  0  0  0  0  0  0  0  0  0
   38.9660   23.2050   37.6490 C   0  0  0  0  0  0  0  0  0  0  0  0
   38.0710   24.2800   37.4730 C   0  0  0  0  0  0  0  0  0  0  0  0
   38.4070   24.8620   36.3130 N   0  0  0  0  0  0  0  0  0  0  0  0
   39.4210   24.1970   35.8240 N   0  0  0  0  0  0  0  0  0  0  0  0
   38.8880   22.5770   38.5330 H   0  0  0  0  0  0  0  0  0  0  0  0
   37.2730   24.5740   38.1430 H   0  0  0  0  0  0  0  0  0  0  0  0
   41.4740   21.5410   37.5140 C   0  0  0  0  0  0  0  0  0  0  0  0
   40.8760   22.2200   36.3970 C   0  0  0  0  0  0  0  0  0  0  0  0
   41.3530   21.9110   35.1500 C   0  0  0  0  0  0  0  0  0  0  0  0
   42.3550   20.9890   35.0400 N   0  0  0  0  0  0  0  0  0  0  0  0
   42.8840   20.3800   36.1150 C   0  0  0  0  0  0  0  0  0  0  0  0
   42.4510   20.6470   37.3710 N   0  0  0  0  0  0  0  0  0  0  0  0
   41.0800   21.8030   38.4930 H   0  0  0  0  0  0  0  0  0  0  0  0
   40.9550   22.3780   34.2600 H   0  0  0  0  0  0  0  0  0  0  0  0
   43.6730   19.6670   35.9130 H   0  0  0  0  0  0  0  0  0  0  0  0
   34.5630   29.3410   32.3820 C   0  0  0  0  0  0  0  0  0  0  0  0
   34.6830   30.4640   31.5620 C   0  0  0  0  0  0  0  0  0  0  0  0
   33.0420   31.2590   31.7690 S   0  0  0  0  0  0  0  0  0  0  0  0
   32.4770   29.9060   32.9490 C   0  0  0  0  0  0  0  0  0  0  0  0
   33.3960   29.2750   32.9590 N   0  0  0  0  0  0  0  0  0  0  0  0
   35.5400   30.7640   30.9670 H   0  0  0  0  0  0  0  0  0  0  0  0
   31.0840   30.1000   33.4530 C   0  0  0  0  0  0  0  0  0  0  0  0
   30.1140   30.7760   32.7570 C   0  0  0  0  0  0  0  0  0  0  0  0
   30.3030   31.2040   31.8050 H   0  0  0  0  0  0  0  0  0  0  0  0
   28.8330   30.9400   33.2500 C   0  0  0  0  0  3  0  0  0  0  0  0
   28.5210   30.4070   34.4820 C   0  0  0  0  0  3  0  0  0  0  0  0
   29.4560   29.7310   35.2010 C   0  0  0  0  0  0  0  0  0  0  0  0
   29.1160   29.2090   36.4290 C   0  0  0  0  0  3  0  0  0  0  0  0
   30.0790   28.5150   37.1670 C   0  0  0  0  0  3  0  0  0  0  0  0
   31.3540   28.3880   36.6040 C   0  0  0  0  0  3  0  0  0  0  0  0
   31.6590   28.9190   35.3820 C   0  0  0  0  0  3  0  0  0  0  0  0
   30.6980   29.6000   34.6690 C   0  0  0  0  0  0  0  0  0  0  0  0
  1  5  1  0  0  0  0
  1 10  1  0  0  0  0
  2  1  2  0  0  0  0
  3  2  1  0  0  0  0
  3  4  1  0  0  0  0
  4  5  2  0  0  0  0
  6  2  1  0  0  0  0
  7  3  1  0  0  0  0
  8  9  1  0  0  0  0
  8 11  1  1  0  0  0
  8 18  1  0  0  0  0
  9 12  1  0  0  0  0
  9 13  1  0  0  0  0
 10 14  1  6  0  0  0
 10  8  1  0  0  0  0
 10  9  1  0  0  0  0
 15 16  1  0  0  0  0
 16 20  1  0  0  0  0
 17 16  2  0  0  0  0
 17 21  1  0  0  0  0
 18 17  1  0  0  0  0
 19 18  1  0  0  0  0
 19 15  2  0  0  0  0
 22 28  1  0  0  0  0
 23 15  1  0  0  0  0
 23 22  2  0  0  0  0
 24 23  1  0  0  0  0
 25 24  2  0  0  0  0
 25 26  1  0  0  0  0
 26 27  2  0  0  0  0
 27 22  1  0  0  0  0
 29 24  1  0  0  0  0
 30 26  1  0  0  0  0
 31  4  1  0  0  0  0
 31 35  1  0  0  0  0
 32 33  1  0  0  0  0
 32 31  2  0  0  0  0
 33 34  1  0  0  0  0
 34 35  2  0  0  0  0
 34 37  1  0  0  0  0
 36 32  1  0  0  0  0
 37 47  1  0  0  0  0
 38 40  1  0  0  0  0
 38 37  2  0  0  0  0
 39 38  1  0  0  0  0
 40 41  2  0  0  0  0
 41 42  1  0  0  0  0
 42 43  1  0  0  0  0
 43 44  2  0  0  0  0
 45 44  1  0  0  0  0
 46 45  2  0  0  0  0
 47 42  2  0  0  0  0
 47 46  1  0  0  0  0
M  END
>  <minimizedAffinity>
-7.24489784

$$$$

 OpenBabel03272500523D

 47 53  0  0  1  0  0  0  0  0999 V2000
   36.1510   28.6170   32.1710 C   0  0  0  0  0  0  0  0  0  0  0  0
   36.2310   28.3250   30.8210 C   0  0  0  0  0  0  0  0  0  0  0  0
   36.6320   27.0320   30.6980 N   0  0  0  0  0  0  0  0  0  0  0  0
   36.8050   26.5090   31.9430 C   0  0  0  0  0  0  0  0  0  0  0  0
   36.5090   27.4830   32.8290 N   0  0  0  0  0  0  0  0  0  0  0  0
   36.0280   28.9590   29.9840 H   0  0  0  0  0  0  0  0  0  0  0  0
   36.8040   26.4560   29.8410 H   0  0  0  0  0  0  0  0  0  0  0  0
   34.6820   30.0200   33.7340 C   0  0  1  0  0  0  0  0  0  0  0  0
   34.5000   30.6020   32.2830 C   0  0  0  0  0  0  0  0  0  0  0  0
   35.7620   29.9400   32.7530 C   0  0  2  0  0  0  0  0  0  0  0  0
   34.0700   29.1080   33.9290 H   0  0  0  0  0  0  0  0  0  0  0  0
   33.8740   30.0090   31.6050 H   0  0  0  0  0  0  0  0  0  0  0  0
   34.5090   31.7070   32.2510 H   0  0  0  0  0  0  0  0  0  0  0  0
   36.6470   30.6160   32.9180 H   0  0  0  0  0  0  0  0  0  0  0  0
   34.0610   32.5380   36.2270 C   0  0  0  0  0  0  0  0  0  0  0  0
   35.3740   32.2280   36.5090 C   0  0  0  0  0  0  0  0  0  0  0  0
   35.7870   31.2320   35.6020 C   0  0  0  0  0  0  0  0  0  0  0  0
   34.7300   30.9780   34.8180 N   0  0  0  0  0  0  0  0  0  0  0  0
   33.7560   31.7540   35.2140 N   0  0  0  0  0  0  0  0  0  0  0  0
   36.0710   32.6020   37.2550 H   0  0  0  0  0  0  0  0  0  0  0  0
   36.7630   30.7670   35.5520 H   0  0  0  0  0  0  0  0  0  0  0  0
   33.8960   34.3820   37.9320 C   0  0  0  0  0  0  0  0  0  0  0  0
   33.2950   33.5200   36.9520 C   0  0  0  0  0  0  0  0  0  0  0  0
   31.9510   33.6700   36.7300 C   0  0  0  0  0  0  0  0  0  0  0  0
   31.2690   34.6160   37.4410 N   0  0  0  0  0  0  0  0  0  0  0  0
   31.8750   35.4000   38.3490 C   0  0  0  0  0  0  0  0  0  0  0  0
   33.2010   35.2950   38.6090 N   0  0  0  0  0  0  0  0  0  0  0  0
   34.9630   34.2450   38.0920 H   0  0  0  0  0  0  0  0  0  0  0  0
   31.4260   33.0590   36.0080 H   0  0  0  0  0  0  0  0  0  0  0  0
   31.2390   36.1150   38.8550 H   0  0  0  0  0  0  0  0  0  0  0  0
   37.2410   25.1250   32.2890 C   0  0  0  0  0  0  0  0  0  0  0  0
   36.7390   24.0080   31.6200 C   0  0  0  0  0  0  0  0  0  0  0  0
   37.6170   22.6360   32.4660 S   0  0  0  0  0  0  0  0  0  0  0  0
   38.5220   23.8410   33.5930 C   0  0  0  0  0  0  0  0  0  0  0  0
   38.0990   24.8000   33.2150 N   0  0  0  0  0  0  0  0  0  0  0  0
   36.0160   23.9870   30.8110 H   0  0  0  0  0  0  0  0  0  0  0  0
   39.4450   23.1730   34.5590 C   0  0  0  0  0  0  0  0  0  0  0  0
   40.5350   22.4320   34.1770 C   0  0  0  0  0  0  0  0  0  0  0  0
   40.7870   22.2920   33.1560 H   0  0  0  0  0  0  0  0  0  0  0  0
   41.3720   21.8240   35.0950 C   0  0  0  0  0  3  0  0  0  0  0  0
   41.1000   21.9670   36.4380 C   0  0  0  0  0  3  0  0  0  0  0  0
   40.0290   22.6930   36.8560 C   0  0  0  0  0  0  0  0  0  0  0  0
   39.7830   22.8180   38.2040 C   0  0  0  0  0  3  0  0  0  0  0  0
   38.6800   23.5650   38.6310 C   0  0  0  0  0  3  0  0  0  0  0  0
   37.8790   24.1510   37.6450 C   0  0  0  0  0  3  0  0  0  0  0  0
   38.1510   24.0070   36.3130 C   0  0  0  0  0  3  0  0  0  0  0  0
   39.2410   23.2680   35.9110 C   0  0  0  0  0  0  0  0  0  0  0  0
  1 10  1  0  0  0  0
  1  5  1  0  0  0  0
  2  1  2  0  0  0  0
  3  2  1  0  0  0  0
  3  4  1  0  0  0  0
  4 31  1  0  0  0  0
  4  5  2  0  0  0  0
  6  2  1  0  0  0  0
  7  3  1  0  0  0  0
  8 11  1  1  0  0  0
  8 18  1  0  0  0  0
  9 10  1  0  0  0  0
  9  8  1  0  0  0  0
 10 14  1  1  0  0  0
 10  8  1  0  0  0  0
 12  9  1  0  0  0  0
 13  9  1  0  0  0  0
 15 16  1  0  0  0  0
 15 23  1  0  0  0  0
 16 20  1  0  0  0  0
 17 16  2  0  0  0  0
 18 19  1  0  0  0  0
 18 17  1  0  0  0  0
 19 15  2  0  0  0  0
 21 17  1  0  0  0  0
 22 28  1  0  0  0  0
 22 27  1  0  0  0  0
 23 22  2  0  0  0  0
 24 23  1  0  0  0  0
 24 25  2  0  0  0  0
 25 26  1  0  0  0  0
 26 27  2  0  0  0  0
 26 30  1  0  0  0  0
 29 24  1  0  0  0  0
 31 35  1  0  0  0  0
 32 31  2  0  0  0  0
 32 33  1  0  0  0  0
 33 34  1  0  0  0  0
 34 37  1  0  0  0  0
 35 34  2  0  0  0  0
 36 32  1  0  0  0  0
 37 47  1  0  0  0  0
 38 37  2  0  0  0  0
 38 40  1  0  0  0  0
 39 38  1  0  0  0  0
 40 41  2  0  0  0  0
 41 42  1  0  0  0  0
 42 43  1  0  0  0  0
 43 44  2  0  0  0  0
 45 44  1  0  0  0  0
 46 45  2  0  0  0  0
 47 46  1  0  0  0  0
 47 42  2  0  0  0  0
M  END
>  <minimizedAffinity>
-7.19076443

$$$$

 OpenBabel03272500523D

 47 53  0  0  1  0  0  0  0  0999 V2000
   37.9280   24.7850   33.7700 C   0  0  0  0  0  0  0  0  0  0  0  0
   37.9410   24.7820   32.3870 C   0  0  0  0  0  0  0  0  0  0  0  0
   37.4400   25.9720   31.9620 N   0  0  0  0  0  0  0  0  0  0  0  0
   37.1120   26.7190   33.0520 C   0  0  0  0  0  0  0  0  0  0  0  0
   37.4140   25.9870   34.1440 N   0  0  0  0  0  0  0  0  0  0  0  0
   38.2730   24.0140   31.7200 H   0  0  0  0  0  0  0  0  0  0  0  0
   37.2930   26.3370   30.9930 H   0  0  0  0  0  0  0  0  0  0  0  0
   39.5540   22.8700   34.2780 C   0  0  1  0  0  0  0  0  0  0  0  0
   38.1110   22.2460   34.2190 C   0  0  0  0  0  0  0  0  0  0  0  0
   38.3800   23.6590   34.6460 C   0  0  2  0  0  0  0  0  0  0  0  0
   40.0120   23.0320   33.2740 H   0  0  0  0  0  0  0  0  0  0  0  0
   37.6830   22.1250   33.2160 H   0  0  0  0  0  0  0  0  0  0  0  0
   37.9150   21.5190   35.0280 H   0  0  0  0  0  0  0  0  0  0  0  0
   38.2440   23.8820   35.7410 H   0  0  0  0  0  0  0  0  0  0  0  0
   42.1280   21.2340   36.1860 C   0  0  0  0  0  0  0  0  0  0  0  0
   41.4380   21.8690   37.1950 C   0  0  0  0  0  0  0  0  0  0  0  0
   40.3690   22.5760   36.6080 C   0  0  0  0  0  0  0  0  0  0  0  0
   40.4470   22.3480   35.2890 N   0  0  0  0  0  0  0  0  0  0  0  0
   41.4780   21.5680   35.0910 N   0  0  0  0  0  0  0  0  0  0  0  0
   41.5810   21.9040   38.2720 H   0  0  0  0  0  0  0  0  0  0  0  0
   39.6320   23.1810   37.1220 H   0  0  0  0  0  0  0  0  0  0  0  0
   43.1980   19.1030   36.9920 C   0  0  0  0  0  0  0  0  0  0  0  0
   43.2910   20.4110   36.4050 C   0  0  0  0  0  0  0  0  0  0  0  0
   44.5410   20.8520   36.0570 C   0  0  0  0  0  0  0  0  0  0  0  0
   45.6120   20.0370   36.2840 N   0  0  0  0  0  0  0  0  0  0  0  0
   45.4760   18.8190   36.8370 C   0  0  0  0  0  0  0  0  0  0  0  0
   44.2650   18.3320   37.2000 N   0  0  0  0  0  0  0  0  0  0  0  0
   42.1970   18.7740   37.2590 H   0  0  0  0  0  0  0  0  0  0  0  0
   44.6930   21.8260   35.6110 H   0  0  0  0  0  0  0  0  0  0  0  0
   46.3920   18.2570   36.9720 H   0  0  0  0  0  0  0  0  0  0  0  0
   36.5260   28.0920   33.0640 C   0  0  0  0  0  0  0  0  0  0  0  0
   36.4410   28.8630   31.9040 C   0  0  0  0  0  0  0  0  0  0  0  0
   35.6610   30.4020   32.5320 S   0  0  0  0  0  0  0  0  0  0  0  0
   35.5880   29.7120   34.2820 C   0  0  0  0  0  0  0  0  0  0  0  0
   36.0470   28.7120   34.1050 N   0  0  0  0  0  0  0  0  0  0  0  0
   36.7630   28.5960   30.9020 H   0  0  0  0  0  0  0  0  0  0  0  0
   34.9840   30.6570   35.2680 C   0  0  0  0  0  0  0  0  0  0  0  0
   35.6870   31.6630   35.8810 C   0  0  0  0  0  0  0  0  0  0  0  0
   36.7160   31.8290   35.6840 H   0  0  0  0  0  0  0  0  0  0  0  0
   35.1010   32.5240   36.7920 C   0  0  0  0  0  3  0  0  0  0  0  0
   33.7660   32.3630   37.0920 C   0  0  0  0  0  3  0  0  0  0  0  0
   33.0360   31.3780   36.5060 C   0  0  0  0  0  0  0  0  0  0  0  0
   31.7040   31.2420   36.8250 C   0  0  0  0  0  3  0  0  0  0  0  0
   30.9560   30.2280   36.2200 C   0  0  0  0  0  3  0  0  0  0  0  0
   31.6170   29.3960   35.3100 C   0  0  0  0  0  3  0  0  0  0  0  0
   32.9420   29.5580   35.0140 C   0  0  0  0  0  3  0  0  0  0  0  0
   33.6630   30.5620   35.6190 C   0  0  0  0  0  0  0  0  0  0  0  0
  1  5  1  0  0  0  0
  1 10  1  0  0  0  0
  2  1  2  0  0  0  0
  3  2  1  0  0  0  0
  3  4  1  0  0  0  0
  4 31  1  0  0  0  0
  4  5  2  0  0  0  0
  6  2  1  0  0  0  0
  7  3  1  0  0  0  0
  8 11  1  6  0  0  0
  8 10  1  0  0  0  0
  8 18  1  0  0  0  0
  9  8  1  0  0  0  0
  9 10  1  0  0  0  0
  9 13  1  0  0  0  0
 10 14  1  1  0  0  0
 12  9  1  0  0  0  0
 15 23  1  0  0  0  0
 15 16  1  0  0  0  0
 16 20  1  0  0  0  0
 17 21  1  0  0  0  0
 17 16  2  0  0  0  0
 18 17  1  0  0  0  0
 19 18  1  0  0  0  0
 19 15  2  0  0  0  0
 22 27  1  0  0  0  0
 22 28  1  0  0  0  0
 23 22  2  0  0  0  0
 24 25  2  0  0  0  0
 24 23  1  0  0  0  0
 25 26  1  0  0  0  0
 26 30  1  0  0  0  0
 26 27  2  0  0  0  0
 29 24  1  0  0  0  0
 31 35  1  0  0  0  0
 32 33  1  0  0  0  0
 32 31  2  0  0  0  0
 33 34  1  0  0  0  0
 34 37  1  0  0  0  0
 35 34  2  0  0  0  0
 36 32  1  0  0  0  0
 37 47  2  0  0  0  0
 37 38  1  0  0  0  0
 38 40  2  0  0  0  0
 39 38  1  0  0  0  0
 40 41  1  0  0  0  0
 42 43  1  0  0  0  0
 42 41  2  0  0  0  0
 44 43  2  0  0  0  0
 45 44  1  0  0  0  0
 46 45  2  0  0  0  0
 46 47  1  0  0  0  0
 47 42  1  0  0  0  0
M  END
>  <minimizedAffinity>
-6.91956139

$$$$

 OpenBabel03272500523D

 47 53  0  0  1  0  0  0  0  0999 V2000
   36.0440   28.8790   32.5200 C   0  0  0  0  0  0  0  0  0  0  0  0
   36.1730   28.4940   31.1980 C   0  0  0  0  0  0  0  0  0  0  0  0
   36.6270   27.2130   31.1800 N   0  0  0  0  0  0  0  0  0  0  0  0
   36.7870   26.7900   32.4640 C   0  0  0  0  0  0  0  0  0  0  0  0
   36.4290   27.8120   33.2680 N   0  0  0  0  0  0  0  0  0  0  0  0
   35.9670   29.0560   30.3110 H   0  0  0  0  0  0  0  0  0  0  0  0
   36.8450   26.5840   30.3720 H   0  0  0  0  0  0  0  0  0  0  0  0
   34.6760   30.3310   34.1300 C   0  0  1  0  0  0  0  0  0  0  0  0
   34.1940   30.6780   32.6720 C   0  0  0  0  0  0  0  0  0  0  0  0
   35.5880   30.2250   32.9930 C   0  0  2  0  0  0  0  0  0  0  0  0
   34.2230   29.3970   34.5390 H   0  0  0  0  0  0  0  0  0  0  0  0
   33.5480   29.9310   32.1920 H   0  0  0  0  0  0  0  0  0  0  0  0
   34.0570   31.7610   32.5030 H   0  0  0  0  0  0  0  0  0  0  0  0
   36.3940   31.0060   32.9170 H   0  0  0  0  0  0  0  0  0  0  0  0
   34.1380   33.0350   36.4400 C   0  0  0  0  0  0  0  0  0  0  0  0
   35.5160   33.0230   36.3880 C   0  0  0  0  0  0  0  0  0  0  0  0
   35.9060   31.9960   35.5060 C   0  0  0  0  0  0  0  0  0  0  0  0
   34.7730   31.4330   35.0620 N   0  0  0  0  0  0  0  0  0  0  0  0
   33.7770   32.0650   35.6270 N   0  0  0  0  0  0  0  0  0  0  0  0
   36.2730   33.6290   36.8800 H   0  0  0  0  0  0  0  0  0  0  0  0
   36.9180   31.7190   35.2410 H   0  0  0  0  0  0  0  0  0  0  0  0
   33.9600   34.6760   38.3410 C   0  0  0  0  0  0  0  0  0  0  0  0
   33.3750   33.9560   37.2430 C   0  0  0  0  0  0  0  0  0  0  0  0
   32.0470   34.1810   36.9870 C   0  0  0  0  0  0  0  0  0  0  0  0
   31.3660   35.0630   37.7760 N   0  0  0  0  0  0  0  0  0  0  0  0
   31.9570   35.7130   38.7930 C   0  0  0  0  0  0  0  0  0  0  0  0
   33.2660   35.5290   39.0920 N   0  0  0  0  0  0  0  0  0  0  0  0
   35.0140   34.4810   38.5260 H   0  0  0  0  0  0  0  0  0  0  0  0
   31.5350   33.6770   36.1780 H   0  0  0  0  0  0  0  0  0  0  0  0
   31.3230   36.3880   39.3530 H   0  0  0  0  0  0  0  0  0  0  0  0
   37.2680   25.4540   32.9220 C   0  0  0  0  0  0  0  0  0  0  0  0
   36.9950   24.2900   32.2030 C   0  0  0  0  0  0  0  0  0  0  0  0
   37.8150   23.0100   33.2320 S   0  0  0  0  0  0  0  0  0  0  0  0
   38.3910   24.3030   34.4730 C   0  0  0  0  0  0  0  0  0  0  0  0
   37.9650   25.2170   33.9970 N   0  0  0  0  0  0  0  0  0  0  0  0
   36.4380   24.1950   31.2760 H   0  0  0  0  0  0  0  0  0  0  0  0
   39.1730   23.7300   35.6090 C   0  0  0  0  0  0  0  0  0  0  0  0
   38.6060   23.3310   36.7930 C   0  0  0  0  0  0  0  0  0  0  0  0
   37.5630   23.4070   36.9690 H   0  0  0  0  0  0  0  0  0  0  0  0
   39.3560   22.8030   37.8290 C   0  0  0  0  0  3  0  0  0  0  0  0
   40.7190   22.6770   37.6640 C   0  0  0  0  0  3  0  0  0  0  0  0
   41.3160   23.0620   36.5060 C   0  0  0  0  0  0  0  0  0  0  0  0
   42.6790   22.9230   36.3700 C   0  0  0  0  0  3  0  0  0  0  0  0
   43.2910   23.3210   35.1770 C   0  0  0  0  0  3  0  0  0  0  0  0
   42.4680   23.8450   34.1750 C   0  0  0  0  0  3  0  0  0  0  0  0
   41.1170   23.9690   34.3410 C   0  0  0  0  0  3  0  0  0  0  0  0
   40.5310   23.5730   35.5220 C   0  0  0  0  0  0  0  0  0  0  0  0
  1 10  1  0  0  0  0
  1  5  1  0  0  0  0
  2  1  2  0  0  0  0
  3  2  1  0  0  0  0
  3  4  1  0  0  0  0
  4 31  1  0  0  0  0
  4  5  2  0  0  0  0
  6  2  1  0  0  0  0
  7  3  1  0  0  0  0
  8 11  1  1  0  0  0
  8 18  1  0  0  0  0
  9 10  1  0  0  0  0
  9  8  1  0  0  0  0
 10 14  1  6  0  0  0
 10  8  1  0  0  0  0
 12  9  1  0  0  0  0
 13  9  1  0  0  0  0
 15 23  1  0  0  0  0
 16 15  1  0  0  0  0
 16 20  1  0  0  0  0
 17 16  2  0  0  0  0
 18 17  1  0  0  0  0
 18 19  1  0  0  0  0
 19 15  2  0  0  0  0
 21 17  1  0  0  0  0
 22 28  1  0  0  0  0
 22 27  1  0  0  0  0
 23 22  2  0  0  0  0
 24 23  1  0  0  0  0
 24 25  2  0  0  0  0
 25 26  1  0  0  0  0
 26 27  2  0  0  0  0
 26 30  1  0  0  0  0
 29 24  1  0  0  0  0
 31 35  1  0  0  0  0
 32 31  2  0  0  0  0
 32 33  1  0  0  0  0
 33 34  1  0  0  0  0
 34 37  1  0  0  0  0
 35 34  2  0  0  0  0
 36 32  1  0  0  0  0
 37 38  1  0  0  0  0
 38 39  1  0  0  0  0
 38 40  2  0  0  0  0
 41 40  1  0  0  0  0
 42 41  2  0  0  0  0
 43 42  1  0  0  0  0
 44 43  2  0  0  0  0
 45 46  2  0  0  0  0
 45 44  1  0  0  0  0
 46 47  1  0  0  0  0
 47 37  2  0  0  0  0
 47 42  1  0  0  0  0
M  END
>  <minimizedAffinity>
-6.69892406

$$$$

 OpenBabel03272500523D

 47 53  0  0  1  0  0  0  0  0999 V2000
   39.1690   26.1560   32.8900 C   0  0  0  0  0  0  0  0  0  0  0  0
   39.0450   26.0260   31.5190 C   0  0  0  0  0  0  0  0  0  0  0  0
   38.0440   26.8510   31.1110 N   0  0  0  0  0  0  0  0  0  0  0  0
   37.5400   27.4940   32.2010 C   0  0  0  0  0  0  0  0  0  0  0  0
   38.2330   27.0630   33.2750 N   0  0  0  0  0  0  0  0  0  0  0  0
   39.6040   25.4070   30.8490 H   0  0  0  0  0  0  0  0  0  0  0  0
   37.6600   27.0270   30.1540 H   0  0  0  0  0  0  0  0  0  0  0  0
   39.8040   25.0900   35.1330 C   0  0  1  0  0  0  0  0  0  0  0  0
   40.9110   26.1570   34.8000 C   0  0  0  0  0  0  0  0  0  0  0  0
   40.1440   25.4110   33.7490 C   0  0  2  0  0  0  0  0  0  0  0  0
   38.8770   25.5300   35.5710 H   0  0  0  0  0  0  0  0  0  0  0  0
   40.6230   27.2060   34.9460 H   0  0  0  0  0  0  0  0  0  0  0  0
   41.9380   25.8010   35.0030 H   0  0  0  0  0  0  0  0  0  0  0  0
   40.7170   24.6310   33.1740 H   0  0  0  0  0  0  0  0  0  0  0  0
   41.4560   22.0390   36.0860 C   0  0  0  0  0  0  0  0  0  0  0  0
   40.4700   22.0980   37.0460 C   0  0  0  0  0  0  0  0  0  0  0  0
   39.7100   23.2620   36.8160 C   0  0  0  0  0  0  0  0  0  0  0  0
   40.2530   23.8570   35.7430 N   0  0  0  0  0  0  0  0  0  0  0  0
   41.2570   23.1160   35.3550 N   0  0  0  0  0  0  0  0  0  0  0  0
   40.2150   21.4430   37.8760 H   0  0  0  0  0  0  0  0  0  0  0  0
   38.8590   23.6050   37.3900 H   0  0  0  0  0  0  0  0  0  0  0  0
   43.0570   20.6190   34.7600 C   0  0  0  0  0  0  0  0  0  0  0  0
   42.4320   20.9830   36.0020 C   0  0  0  0  0  0  0  0  0  0  0  0
   42.8030   20.2770   37.1160 C   0  0  0  0  0  0  0  0  0  0  0  0
   43.7320   19.2840   36.9870 N   0  0  0  0  0  0  0  0  0  0  0  0
   44.2900   18.9810   35.8020 C   0  0  0  0  0  0  0  0  0  0  0  0
   43.9600   19.6450   34.6680 N   0  0  0  0  0  0  0  0  0  0  0  0
   42.7470   21.1920   33.8890 H   0  0  0  0  0  0  0  0  0  0  0  0
   42.3780   20.4900   38.0880 H   0  0  0  0  0  0  0  0  0  0  0  0
   45.0140   18.1760   35.8140 H   0  0  0  0  0  0  0  0  0  0  0  0
   36.4290   28.4900   32.2280 C   0  0  0  0  0  0  0  0  0  0  0  0
   36.1860   29.3480   31.1550 C   0  0  0  0  0  0  0  0  0  0  0  0
   34.7440   30.3100   31.7610 S   0  0  0  0  0  0  0  0  0  0  0  0
   34.7300   29.3620   33.3870 C   0  0  0  0  0  0  0  0  0  0  0  0
   35.5920   28.6780   33.2090 N   0  0  0  0  0  0  0  0  0  0  0  0
   36.7260   29.4080   30.2160 H   0  0  0  0  0  0  0  0  0  0  0  0
   33.6500   29.8000   34.3210 C   0  0  0  0  0  0  0  0  0  0  0  0
   32.3600   29.3360   34.2590 C   0  0  0  0  0  0  0  0  0  0  0  0
   32.0550   28.6260   33.5330 H   0  0  0  0  0  0  0  0  0  0  0  0
   31.3810   29.7600   35.1390 C   0  0  0  0  0  3  0  0  0  0  0  0
   31.7130   30.6820   36.1080 C   0  0  0  0  0  3  0  0  0  0  0  0
   32.9790   31.1660   36.2000 C   0  0  0  0  0  0  0  0  0  0  0  0
   33.2820   32.0860   37.1790 C   0  0  0  0  0  3  0  0  0  0  0  0
   34.5860   32.5820   37.2710 C   0  0  0  0  0  3  0  0  0  0  0  0
   35.5230   32.1060   36.3480 C   0  0  0  0  0  3  0  0  0  0  0  0
   35.1900   31.1920   35.3880 C   0  0  0  0  0  3  0  0  0  0  0  0
   33.9010   30.7140   35.3110 C   0  0  0  0  0  0  0  0  0  0  0  0
  1  5  1  0  0  0  0
  1 10  1  0  0  0  0
  2  1  2  0  0  0  0
  3  2  1  0  0  0  0
  3  4  1  0  0  0  0
  4 31  1  0  0  0  0
  4  5  2  0  0  0  0
  6  2  1  0  0  0  0
  7  3  1  0  0  0  0
  8 11  1  1  0  0  0
  8 18  1  0  0  0  0
  9 12  1  0  0  0  0
  9 13  1  0  0  0  0
  9  8  1  0  0  0  0
 10 14  1  6  0  0  0
 10  9  1  0  0  0  0
 10  8  1  0  0  0  0
 15 16  1  0  0  0  0
 16 20  1  0  0  0  0
 17 16  2  0  0  0  0
 17 21  1  0  0  0  0
 18 17  1  0  0  0  0
 19 18  1  0  0  0  0
 19 15  2  0  0  0  0
 22 23  1  0  0  0  0
 23 15  1  0  0  0  0
 23 24  2  0  0  0  0
 24 29  1  0  0  0  0
 25 24  1  0  0  0  0
 26 30  1  0  0  0  0
 26 25  2  0  0  0  0
 27 22  2  0  0  0  0
 27 26  1  0  0  0  0
 28 22  1  0  0  0  0
 31 35  1  0  0  0  0
 32 33  1  0  0  0  0
 32 31  2  0  0  0  0
 33 34  1  0  0  0  0
 34 37  1  0  0  0  0
 35 34  2  0  0  0  0
 36 32  1  0  0  0  0
 37 47  1  0  0  0  0
 38 37  2  0  0  0  0
 38 40  1  0  0  0  0
 39 38  1  0  0  0  0
 40 41  2  0  0  0  0
 41 42  1  0  0  0  0
 42 43  1  0  0  0  0
 43 44  2  0  0  0  0
 45 44  1  0  0  0  0
 46 45  2  0  0  0  0
 47 46  1  0  0  0  0
 47 42  2  0  0  0  0
M  END
>  <minimizedAffinity>
-6.68557453

$$$$

 OpenBabel03272500523D

 47 53  0  0  1  0  0  0  0  0999 V2000
   36.7600   27.9340   32.6570 C   0  0  0  0  0  0  0  0  0  0  0  0
   37.5230   27.7050   31.5270 C   0  0  0  0  0  0  0  0  0  0  0  0
   37.9420   26.4130   31.5600 N   0  0  0  0  0  0  0  0  0  0  0  0
   37.4570   25.8280   32.6900 C   0  0  0  0  0  0  0  0  0  0  0  0
   36.7410   26.7630   33.3480 N   0  0  0  0  0  0  0  0  0  0  0  0
   37.7720   28.3830   30.7360 H   0  0  0  0  0  0  0  0  0  0  0  0
   38.5340   25.8760   30.8850 H   0  0  0  0  0  0  0  0  0  0  0  0
   35.0610   29.2710   34.0350 C   0  0  1  0  0  0  0  0  0  0  0  0
   34.7370   29.5350   32.5180 C   0  0  0  0  0  0  0  0  0  0  0  0
   36.1160   29.2350   33.0240 C   0  0  2  0  0  0  0  0  0  0  0  0
   34.6550   28.3050   34.4160 H   0  0  0  0  0  0  0  0  0  0  0  0
   34.2340   28.7170   31.9870 H   0  0  0  0  0  0  0  0  0  0  0  0
   34.5160   30.5960   32.2960 H   0  0  0  0  0  0  0  0  0  0  0  0
   36.8450   30.0930   33.0220 H   0  0  0  0  0  0  0  0  0  0  0  0
   33.9820   32.0330   36.0700 C   0  0  0  0  0  0  0  0  0  0  0  0
   35.3290   32.0220   36.3620 C   0  0  0  0  0  0  0  0  0  0  0  0
   35.9200   30.9730   35.6300 C   0  0  0  0  0  0  0  0  0  0  0  0
   34.9300   30.3970   34.9340 N   0  0  0  0  0  0  0  0  0  0  0  0
   33.8280   31.0410   35.2180 N   0  0  0  0  0  0  0  0  0  0  0  0
   35.9440   32.6410   37.0100 H   0  0  0  0  0  0  0  0  0  0  0  0
   36.9660   30.6910   35.6310 H   0  0  0  0  0  0  0  0  0  0  0  0
   31.6260   32.8080   36.5020 C   0  0  0  0  0  0  0  0  0  0  0  0
   33.0470   32.9730   36.6360 C   0  0  0  0  0  0  0  0  0  0  0  0
   33.4850   34.0710   37.3290 C   0  0  0  0  0  0  0  0  0  0  0  0
   32.5610   34.9330   37.8470 N   0  0  0  0  0  0  0  0  0  0  0  0
   31.2400   34.7360   37.6960 C   0  0  0  0  0  0  0  0  0  0  0  0
   30.7510   33.6680   37.0200 N   0  0  0  0  0  0  0  0  0  0  0  0
   31.3020   31.9300   35.9480 H   0  0  0  0  0  0  0  0  0  0  0  0
   34.5390   34.2650   37.4730 H   0  0  0  0  0  0  0  0  0  0  0  0
   30.5970   35.4820   38.1470 H   0  0  0  0  0  0  0  0  0  0  0  0
   37.6670   24.4210   33.1400 C   0  0  0  0  0  0  0  0  0  0  0  0
   38.5720   24.1020   34.1530 C   0  0  0  0  0  0  0  0  0  0  0  0
   38.3960   22.2770   34.2540 S   0  0  0  0  0  0  0  0  0  0  0  0
   37.1060   22.2740   32.8840 C   0  0  0  0  0  0  0  0  0  0  0  0
   37.0650   23.3660   32.6670 N   0  0  0  0  0  0  0  0  0  0  0  0
   39.2050   24.7790   34.7170 H   0  0  0  0  0  0  0  0  0  0  0  0
   36.5930   20.9100   32.5540 C   0  0  0  0  0  0  0  0  0  0  0  0
   35.6820   20.2360   33.3270 C   0  0  0  0  0  0  0  0  0  0  0  0
   35.2830   20.6540   34.2160 H   0  0  0  0  0  0  0  0  0  0  0  0
   35.2250   18.9730   32.9950 C   0  0  0  0  0  3  0  0  0  0  0  0
   35.7030   18.3730   31.8510 C   0  0  0  0  0  3  0  0  0  0  0  0
   36.6070   19.0090   31.0600 C   0  0  0  0  0  0  0  0  0  0  0  0
   37.0670   18.3850   29.9220 C   0  0  0  0  0  3  0  0  0  0  0  0
   37.9970   19.0420   29.1110 C   0  0  0  0  0  3  0  0  0  0  0  0
   38.4130   20.3170   29.5090 C   0  0  0  0  0  3  0  0  0  0  0  0
   37.9360   20.9090   30.6460 C   0  0  0  0  0  3  0  0  0  0  0  0
   37.0210   20.2480   31.4330 C   0  0  0  0  0  0  0  0  0  0  0  0
  1 10  1  0  0  0  0
  1  5  1  0  0  0  0
  2  3  1  0  0  0  0
  2  1  2  0  0  0  0
  3  4  1  0  0  0  0
  4 31  1  0  0  0  0
  4  5  2  0  0  0  0
  6  2  1  0  0  0  0
  7  3  1  0  0  0  0
  8 11  1  1  0  0  0
  8 18  1  0  0  0  0
  9 10  1  0  0  0  0
  9  8  1  0  0  0  0
 10 14  1  1  0  0  0
 10  8  1  0  0  0  0
 12  9  1  0  0  0  0
 13  9  1  0  0  0  0
 15 16  1  0  0  0  0
 15 23  1  0  0  0  0
 16 20  1  0  0  0  0
 17 21  1  0  0  0  0
 17 16  2  0  0  0  0
 18 19  1  0  0  0  0
 18 17  1  0  0  0  0
 19 15  2  0  0  0  0
 22 23  2  0  0  0  0
 22 27  1  0  0  0  0
 23 24  1  0  0  0  0
 24 29  1  0  0  0  0
 24 25  2  0  0  0  0
 26 25  1  0  0  0  0
 26 30  1  0  0  0  0
 27 26  2  0  0  0  0
 28 22  1  0  0  0  0
 31 32  2  0  0  0  0
 32 33  1  0  0  0  0
 32 36  1  0  0  0  0
 34 33  1  0  0  0  0
 35 34  2  0  0  0  0
 35 31  1  0  0  0  0
 37 34  1  0  0  0  0
 37 38  1  0  0  0  0
 38 39  1  0  0  0  0
 40 38  2  0  0  0  0
 41 40  1  0  0  0  0
 42 47  1  0  0  0  0
 42 41  2  0  0  0  0
 43 42  1  0  0  0  0
 44 45  1  0  0  0  0
 44 43  2  0  0  0  0
 45 46  2  0  0  0  0
 46 47  1  0  0  0  0
 47 37  2  0  0  0  0
M  END
>  <minimizedAffinity>
-6.65851402

$$$$

 OpenBabel03272500523D

 47 53  0  0  1  0  0  0  0  0999 V2000
   36.6130   28.1800   31.8870 C   0  0  0  0  0  0  0  0  0  0  0  0
   36.8700   27.9610   30.5460 C   0  0  0  0  0  0  0  0  0  0  0  0
   37.5820   26.8080   30.4410 N   0  0  0  0  0  0  0  0  0  0  0  0
   37.7760   26.3020   31.6900 C   0  0  0  0  0  0  0  0  0  0  0  0
   37.1820   27.1450   32.5600 N   0  0  0  0  0  0  0  0  0  0  0  0
   36.5850   28.5540   29.7020 H   0  0  0  0  0  0  0  0  0  0  0  0
   37.9570   26.3200   29.5950 H   0  0  0  0  0  0  0  0  0  0  0  0
   34.4270   29.2590   32.6820 C   0  0  1  0  0  0  0  0  0  0  0  0
   35.0060   30.1750   31.5390 C   0  0  0  0  0  0  0  0  0  0  0  0
   35.8670   29.3510   32.4500 C   0  0  2  0  0  0  0  0  0  0  0  0
   33.8820   28.3640   32.3020 H   0  0  0  0  0  0  0  0  0  0  0  0
   34.8910   29.7930   30.5170 H   0  0  0  0  0  0  0  0  0  0  0  0
   34.9420   31.2540   31.7690 H   0  0  0  0  0  0  0  0  0  0  0  0
   36.4680   29.9180   33.2140 H   0  0  0  0  0  0  0  0  0  0  0  0
   32.2300   30.7860   35.0860 C   0  0  0  0  0  0  0  0  0  0  0  0
   33.4490   31.0000   35.6930 C   0  0  0  0  0  0  0  0  0  0  0  0
   34.4470   30.4500   34.8640 C   0  0  0  0  0  0  0  0  0  0  0  0
   33.8090   29.9320   33.8030 N   0  0  0  0  0  0  0  0  0  0  0  0
   32.5320   30.1490   33.9740 N   0  0  0  0  0  0  0  0  0  0  0  0
   33.7280   31.4830   36.6260 H   0  0  0  0  0  0  0  0  0  0  0  0
   35.5130   30.4480   35.0480 H   0  0  0  0  0  0  0  0  0  0  0  0
   30.5350   32.5800   35.5820 C   0  0  0  0  0  0  0  0  0  0  0  0
   30.9710   31.2120   35.6430 C   0  0  0  0  0  0  0  0  0  0  0  0
   30.1350   30.3180   36.2590 C   0  0  0  0  0  0  0  0  0  0  0  0
   28.9530   30.7690   36.7720 N   0  0  0  0  0  0  0  0  0  0  0  0
   28.5870   32.0610   36.6900 C   0  0  0  0  0  0  0  0  0  0  0  0
   29.3750   32.9870   36.0930 N   0  0  0  0  0  0  0  0  0  0  0  0
   31.2150   33.2710   35.0890 H   0  0  0  0  0  0  0  0  0  0  0  0
   30.3920   29.2710   36.3460 H   0  0  0  0  0  0  0  0  0  0  0  0
   27.6300   32.3090   37.1300 H   0  0  0  0  0  0  0  0  0  0  0  0
   38.5070   25.0530   32.0550 C   0  0  0  0  0  0  0  0  0  0  0  0
   38.8180   24.0810   31.1050 C   0  0  0  0  0  0  0  0  0  0  0  0
   39.6850   22.8230   32.1230 S   0  0  0  0  0  0  0  0  0  0  0  0
   39.4670   23.8580   33.6800 C   0  0  0  0  0  0  0  0  0  0  0  0
   38.9230   24.7290   33.2470 N   0  0  0  0  0  0  0  0  0  0  0  0
   38.5930   24.0920   30.0430 H   0  0  0  0  0  0  0  0  0  0  0  0
   40.0490   23.2240   34.9010 C   0  0  0  0  0  0  0  0  0  0  0  0
   41.1740   22.4390   34.8840 C   0  0  0  0  0  0  0  0  0  0  0  0
   41.7020   22.2360   33.9860 H   0  0  0  0  0  0  0  0  0  0  0  0
   41.6900   21.8650   36.0310 C   0  0  0  0  0  3  0  0  0  0  0  0
   41.0510   22.0900   37.2320 C   0  0  0  0  0  3  0  0  0  0  0  0
   39.9340   22.8620   37.2880 C   0  0  0  0  0  0  0  0  0  0  0  0
   39.3170   23.0690   38.5020 C   0  0  0  0  0  3  0  0  0  0  0  0
   38.1680   23.8640   38.5570 C   0  0  0  0  0  3  0  0  0  0  0  0
   37.7040   24.4110   37.3560 C   0  0  0  0  0  3  0  0  0  0  0  0
   38.3410   24.1850   36.1670 C   0  0  0  0  0  3  0  0  0  0  0  0
   39.4710   23.4010   36.1310 C   0  0  0  0  0  0  0  0  0  0  0  0
  1 10  1  0  0  0  0
  1  5  1  0  0  0  0
  2  1  2  0  0  0  0
  3  2  1  0  0  0  0
  3  4  1  0  0  0  0
  4 31  1  0  0  0  0
  4  5  2  0  0  0  0
  6  2  1  0  0  0  0
  7  3  1  0  0  0  0
  8 11  1  6  0  0  0
  8 18  1  0  0  0  0
  9 13  1  0  0  0  0
  9 10  1  0  0  0  0
  9  8  1  0  0  0  0
 10  8  1  0  0  0  0
 10 14  1  1  0  0  0
 12  9  1  0  0  0  0
 15 23  1  0  0  0  0
 15 16  1  0  0  0  0
 16 20  1  0  0  0  0
 17 21  1  0  0  0  0
 17 16  2  0  0  0  0
 18 19  1  0  0  0  0
 18 17  1  0  0  0  0
 19 15  2  0  0  0  0
 22 23  2  0  0  0  0
 22 27  1  0  0  0  0
 23 24  1  0  0  0  0
 24 29  1  0  0  0  0
 24 25  2  0  0  0  0
 26 25  1  0  0  0  0
 26 30  1  0  0  0  0
 27 26  2  0  0  0  0
 28 22  1  0  0  0  0
 31 35  1  0  0  0  0
 32 31  2  0  0  0  0
 32 33  1  0  0  0  0
 33 34  1  0  0  0  0
 34 37  1  0  0  0  0
 35 34  2  0  0  0  0
 36 32  1  0  0  0  0
 37 47  1  0  0  0  0
 38 37  2  0  0  0  0
 38 40  1  0  0  0  0
 39 38  1  0  0  0  0
 40 41  2  0  0  0  0
 41 42  1  0  0  0  0
 42 43  1  0  0  0  0
 43 44  2  0  0  0  0
 45 44  1  0  0  0  0
 46 45  2  0  0  0  0
 47 46  1  0  0  0  0
 47 42  2  0  0  0  0
M  END
>  <minimizedAffinity>
-6.6390934

$$$$

 OpenBabel03272500523D

 47 53  0  0  1  0  0  0  0  0999 V2000
   38.1760   25.3050   32.3000 C   0  0  0  0  0  0  0  0  0  0  0  0
   37.1160   24.9740   31.4770 C   0  0  0  0  0  0  0  0  0  0  0  0
   36.2820   26.0450   31.4190 N   0  0  0  0  0  0  0  0  0  0  0  0
   36.8000   27.0410   32.1900 C   0  0  0  0  0  0  0  0  0  0  0  0
   37.9510   26.5780   32.7200 N   0  0  0  0  0  0  0  0  0  0  0  0
   36.9310   24.0580   30.9550 H   0  0  0  0  0  0  0  0  0  0  0  0
   35.3820   26.1750   30.9020 H   0  0  0  0  0  0  0  0  0  0  0  0
   40.6160   24.9720   33.0150 C   0  0  1  0  0  0  0  0  0  0  0  0
   40.4230   24.2010   31.6560 C   0  0  0  0  0  0  0  0  0  0  0  0
   39.3190   24.4040   32.6520 C   0  0  2  0  0  0  0  0  0  0  0  0
   40.7720   26.0690   32.8860 H   0  0  0  0  0  0  0  0  0  0  0  0
   40.3730   24.8250   30.7550 H   0  0  0  0  0  0  0  0  0  0  0  0
   40.8980   23.2030   31.6480 H   0  0  0  0  0  0  0  0  0  0  0  0
   38.9900   23.4920   33.2220 H   0  0  0  0  0  0  0  0  0  0  0  0
   43.1220   24.0510   35.4250 C   0  0  0  0  0  0  0  0  0  0  0  0
   42.3170   22.9320   35.4640 C   0  0  0  0  0  0  0  0  0  0  0  0
   41.2580   23.1310   34.5550 C   0  0  0  0  0  0  0  0  0  0  0  0
   41.4550   24.3390   34.0080 N   0  0  0  0  0  0  0  0  0  0  0  0
   42.5420   24.8340   34.5390 N   0  0  0  0  0  0  0  0  0  0  0  0
   42.3720   22.0090   36.0350 H   0  0  0  0  0  0  0  0  0  0  0  0
   40.4500   22.4430   34.3430 H   0  0  0  0  0  0  0  0  0  0  0  0
   45.4810   23.4050   36.0180 C   0  0  0  0  0  0  0  0  0  0  0  0
   44.3100   24.2120   36.2240 C   0  0  0  0  0  0  0  0  0  0  0  0
   44.3660   25.1500   37.2210 C   0  0  0  0  0  0  0  0  0  0  0  0
   45.5140   25.2650   37.9520 N   0  0  0  0  0  0  0  0  0  0  0  0
   46.5860   24.4870   37.7220 C   0  0  0  0  0  0  0  0  0  0  0  0
   46.5860   23.5430   36.7500 N   0  0  0  0  0  0  0  0  0  0  0  0
   45.4140   22.6670   35.2220 H   0  0  0  0  0  0  0  0  0  0  0  0
   43.5260   25.7950   37.4390 H   0  0  0  0  0  0  0  0  0  0  0  0
   47.4420   24.6630   38.3600 H   0  0  0  0  0  0  0  0  0  0  0  0
   36.2210   28.3960   32.4250 C   0  0  0  0  0  0  0  0  0  0  0  0
   36.0730   29.3200   31.3900 C   0  0  0  0  0  0  0  0  0  0  0  0
   35.3360   30.7540   32.2670 S   0  0  0  0  0  0  0  0  0  0  0  0
   35.3610   29.8300   33.9070 C   0  0  0  0  0  0  0  0  0  0  0  0
   35.8050   28.8660   33.5670 N   0  0  0  0  0  0  0  0  0  0  0  0
   36.3350   29.1950   30.3440 H   0  0  0  0  0  0  0  0  0  0  0  0
   34.8180   30.6280   35.0470 C   0  0  0  0  0  0  0  0  0  0  0  0
   35.5670   31.5240   35.7680 C   0  0  0  0  0  0  0  0  0  0  0  0
   36.5890   31.7040   35.5500 H   0  0  0  0  0  0  0  0  0  0  0  0
   35.0370   32.2490   36.8200 C   0  0  0  0  0  3  0  0  0  0  0  0
   33.7130   32.0630   37.1540 C   0  0  0  0  0  3  0  0  0  0  0  0
   32.9400   31.1840   36.4640 C   0  0  0  0  0  0  0  0  0  0  0  0
   31.6210   31.0190   36.8220 C   0  0  0  0  0  3  0  0  0  0  0  0
   30.8290   30.1130   36.1100 C   0  0  0  0  0  3  0  0  0  0  0  0
   31.4330   29.4160   35.0580 C   0  0  0  0  0  3  0  0  0  0  0  0
   32.7460   29.6030   34.7290 C   0  0  0  0  0  3  0  0  0  0  0  0
   33.5120   30.4980   35.4410 C   0  0  0  0  0  0  0  0  0  0  0  0
  1 10  1  0  0  0  0
  1  5  1  0  0  0  0
  2  1  2  0  0  0  0
  3  2  1  0  0  0  0
  3  4  1  0  0  0  0
  4 31  1  0  0  0  0
  4  5  2  0  0  0  0
  6  2  1  0  0  0  0
  7  3  1  0  0  0  0
  8 11  1  6  0  0  0
  8 18  1  0  0  0  0
  9 10  1  0  0  0  0
  9  8  1  0  0  0  0
 10  8  1  0  0  0  0
 10 14  1  1  0  0  0
 12  9  1  0  0  0  0
 13  9  1  0  0  0  0
 15 16  1  0  0  0  0
 15 23  1  0  0  0  0
 16 20  1  0  0  0  0
 17 16  2  0  0  0  0
 18 19  1  0  0  0  0
 18 17  1  0  0  0  0
 19 15  2  0  0  0  0
 21 17  1  0  0  0  0
 22 23  2  0  0  0  0
 22 27  1  0  0  0  0
 23 24  1  0  0  0  0
 24 29  1  0  0  0  0
 24 25  2  0  0  0  0
 26 25  1  0  0  0  0
 26 30  1  0  0  0  0
 27 26  2  0  0  0  0
 28 22  1  0  0  0  0
 31 35  1  0  0  0  0
 32 33  1  0  0  0  0
 32 31  2  0  0  0  0
 33 34  1  0  0  0  0
 34 37  1  0  0  0  0
 35 34  2  0  0  0  0
 36 32  1  0  0  0  0
 37 47  2  0  0  0  0
 37 38  1  0  0  0  0
 38 40  2  0  0  0  0
 39 38  1  0  0  0  0
 40 41  1  0  0  0  0
 42 43  1  0  0  0  0
 42 41  2  0  0  0  0
 44 43  2  0  0  0  0
 45 44  1  0  0  0  0
 46 45  2  0  0  0  0
 46 47  1  0  0  0  0
 47 42  1  0  0  0  0
M  END
>  <minimizedAffinity>
-6.62646627

$$$$

 OpenBabel03272500523D

 47 53  0  0  1  0  0  0  0  0999 V2000
   37.6040   28.2460   30.3650 C   0  0  0  0  0  0  0  0  0  0  0  0
   37.4000   28.8970   29.1620 C   0  0  0  0  0  0  0  0  0  0  0  0
   36.8060   30.0890   29.4280 N   0  0  0  0  0  0  0  0  0  0  0  0
   36.6330   30.1980   30.7740 C   0  0  0  0  0  0  0  0  0  0  0  0
   37.1220   29.0710   31.3320 N   0  0  0  0  0  0  0  0  0  0  0  0
   37.6450   28.5710   28.1720 H   0  0  0  0  0  0  0  0  0  0  0  0
   36.5000   30.8520   28.7800 H   0  0  0  0  0  0  0  0  0  0  0  0
   37.6660   25.9470   31.4980 C   0  0  1  0  0  0  0  0  0  0  0  0
   39.0730   26.6150   31.7300 C   0  0  0  0  0  0  0  0  0  0  0  0
   38.2180   26.8910   30.5280 C   0  0  2  0  0  0  0  0  0  0  0  0
   36.8800   26.3060   32.2030 H   0  0  0  0  0  0  0  0  0  0  0  0
   39.1050   27.4110   32.4850 H   0  0  0  0  0  0  0  0  0  0  0  0
   39.9180   25.9180   31.5810 H   0  0  0  0  0  0  0  0  0  0  0  0
   38.5780   26.4600   29.5520 H   0  0  0  0  0  0  0  0  0  0  0  0
   37.1170   22.3930   31.4090 C   0  0  0  0  0  0  0  0  0  0  0  0
   38.0570   22.5240   30.4100 C   0  0  0  0  0  0  0  0  0  0  0  0
   38.3930   23.8890   30.3080 C   0  0  0  0  0  0  0  0  0  0  0  0
   37.6580   24.5250   31.2320 N   0  0  0  0  0  0  0  0  0  0  0  0
   36.9360   23.6230   31.8440 N   0  0  0  0  0  0  0  0  0  0  0  0
   38.5330   21.8000   29.7520 H   0  0  0  0  0  0  0  0  0  0  0  0
   39.1020   24.3320   29.6210 H   0  0  0  0  0  0  0  0  0  0  0  0
   35.9840   20.9270   33.1130 C   0  0  0  0  0  0  0  0  0  0  0  0
   36.5340   21.1350   31.8020 C   0  0  0  0  0  0  0  0  0  0  0  0
   36.4820   20.0800   30.9290 C   0  0  0  0  0  0  0  0  0  0  0  0
   35.9190   18.9080   31.3460 N   0  0  0  0  0  0  0  0  0  0  0  0
   35.4170   18.7600   32.5850 C   0  0  0  0  0  0  0  0  0  0  0  0
   35.4420   19.7690   33.4890 N   0  0  0  0  0  0  0  0  0  0  0  0
   36.0360   21.7770   33.7880 H   0  0  0  0  0  0  0  0  0  0  0  0
   36.8750   20.1580   29.9240 H   0  0  0  0  0  0  0  0  0  0  0  0
   34.9960   17.7890   32.8100 H   0  0  0  0  0  0  0  0  0  0  0  0
   36.0180   31.3370   31.5170 C   0  0  0  0  0  0  0  0  0  0  0  0
   35.7300   32.5510   30.8920 C   0  0  0  0  0  0  0  0  0  0  0  0
   35.0160   33.5260   32.2740 S   0  0  0  0  0  0  0  0  0  0  0  0
   35.2390   32.0900   33.4700 C   0  0  0  0  0  0  0  0  0  0  0  0
   35.6920   31.3430   32.7790 N   0  0  0  0  0  0  0  0  0  0  0  0
   35.8970   32.8200   29.8540 H   0  0  0  0  0  0  0  0  0  0  0  0
   34.7720   32.3930   34.8570 C   0  0  0  0  0  0  0  0  0  0  0  0
   35.1980   33.4800   35.5780 C   0  0  0  0  0  0  0  0  0  0  0  0
   35.8930   34.1770   35.1830 H   0  0  0  0  0  0  0  0  0  0  0  0
   34.7480   33.7350   36.8610 C   0  0  0  0  0  3  0  0  0  0  0  0
   33.8420   32.8680   37.4320 C   0  0  0  0  0  3  0  0  0  0  0  0
   33.3980   31.7800   36.7490 C   0  0  0  0  0  0  0  0  0  0  0  0
   32.4930   30.9310   37.3450 C   0  0  0  0  0  3  0  0  0  0  0  0
   32.0370   29.8130   36.6400 C   0  0  0  0  0  3  0  0  0  0  0  0
   32.5360   29.6200   35.3470 C   0  0  0  0  0  3  0  0  0  0  0  0
   33.4350   30.4830   34.7840 C   0  0  0  0  0  3  0  0  0  0  0  0
   33.8730   31.5780   35.4930 C   0  0  0  0  0  0  0  0  0  0  0  0
  1 10  1  0  0  0  0
  1  5  1  0  0  0  0
  2  3  1  0  0  0  0
  2  1  2  0  0  0  0
  3  4  1  0  0  0  0
  4  5  2  0  0  0  0
  4 31  1  0  0  0  0
  6  2  1  0  0  0  0
  7  3  1  0  0  0  0
  8  9  1  0  0  0  0
  8 11  1  1  0  0  0
  9 12  1  0  0  0  0
 10 14  1  6  0  0  0
 10  8  1  0  0  0  0
 10  9  1  0  0  0  0
 13  9  1  0  0  0  0
 15 23  1  0  0  0  0
 15 19  2  0  0  0  0
 16 15  1  0  0  0  0
 17 16  2  0  0  0  0
 17 18  1  0  0  0  0
 18  8  1  0  0  0  0
 18 19  1  0  0  0  0
 20 16  1  0  0  0  0
 21 17  1  0  0  0  0
 22 27  1  0  0  0  0
 22 28  1  0  0  0  0
 23 22  2  0  0  0  0
 24 25  2  0  0  0  0
 24 23  1  0  0  0  0
 25 26  1  0  0  0  0
 26 30  1  0  0  0  0
 26 27  2  0  0  0  0
 29 24  1  0  0  0  0
 31 35  1  0  0  0  0
 32 31  2  0  0  0  0
 32 33  1  0  0  0  0
 33 34  1  0  0  0  0
 34 37  1  0  0  0  0
 35 34  2  0  0  0  0
 36 32  1  0  0  0  0
 37 47  2  0  0  0  0
 37 38  1  0  0  0  0
 38 40  2  0  0  0  0
 39 38  1  0  0  0  0
 40 41  1  0  0  0  0
 42 43  1  0  0  0  0
 42 41  2  0  0  0  0
 44 43  2  0  0  0  0
 45 44  1  0  0  0  0
 46 45  2  0  0  0  0
 46 47  1  0  0  0  0
 47 42  1  0  0  0  0
M  END
>  <minimizedAffinity>
-6.57888365

$$$$
