
 OpenBabel03262523103D

 23 24  0  0  0  0  0  0  0  0999 V2000
   34.2050   29.1550   46.6810 C   0  0  0  0  0  0  0  0  0  0  0  0
   34.8180   29.3310   47.9030 C   0  0  0  0  0  0  0  0  0  0  0  0
   34.2380   28.7910   49.0330 C   0  0  0  0  0  0  0  0  0  0  0  0
   34.6690   28.8910   50.0360 H   0  0  0  0  0  0  0  0  0  0  0  0
   33.0490   28.0690   48.9920 C   0  0  0  0  0  0  0  0  0  0  0  0
   32.6080   27.6530   49.8900 H   0  0  0  0  0  0  0  0  0  0  0  0
   32.4100   27.8760   47.7850 C   0  0  0  0  0  0  0  0  0  0  0  0
   33.0260   28.4360   46.6750 C   0  0  0  0  0  0  0  0  0  0  0  0
   37.9280   30.7640   49.3010 C   0  0  0  0  0  0  0  0  0  0  0  0
   38.4250   31.5210   48.2190 C   0  0  0  0  0  0  0  0  0  0  0  0
   37.6610   31.5080   47.0390 C   0  0  0  0  0  0  0  0  0  0  0  0
   36.5110   30.7790   47.0150 N   0  0  0  0  0  0  0  0  0  0  0  0
   36.0670   30.0690   48.0630 C   0  0  0  0  0  0  0  0  0  0  0  0
   36.7850   30.0770   49.1840 N   0  0  0  0  0  0  0  0  0  0  0  0
   39.3410   32.0600   48.3450 H   0  0  0  0  0  0  0  0  0  0  0  0
   38.0190   32.0750   46.2060 H   0  0  0  0  0  0  0  0  0  0  0  0
   38.6150   30.7000   50.5520 N   0  0  0  0  0  0  0  0  0  0  0  0
   38.7290   31.6110   51.0470 H   0  0  0  0  0  0  0  0  0  0  0  0
   39.0380   29.9490   51.1020 H   0  0  0  0  0  0  0  0  0  0  0  0
   36.1000   30.4710   45.5360 H   0  0  0  0  0  0  0  0  0  0  0  0
   34.9110   29.8230   45.2480 S   0  0  0  0  0  0  0  0  0  0  0  0
   33.9890   30.7050   44.4650 O   0  0  0  0  0  0  0  0  0  0  0  0
   35.2410   28.6650   44.3210 O   0  0  0  0  0  0  0  0  0  0  0  0
  1  2  1  0  0  0  0
  2 13  1  0  0  0  0
  2  3  2  0  0  0  0
  3  4  1  0  0  0  0
  5  3  1  0  0  0  0
  5  6  1  0  0  0  0
  7  5  2  0  0  0  0
  8  1  2  0  0  0  0
  8  7  1  0  0  0  0
  9 17  1  0  0  0  0
 10 15  1  0  0  0  0
 10  9  2  0  0  0  0
 11 10  1  0  0  0  0
 12 11  2  0  0  0  0
 12 13  1  0  0  0  0
 13 14  2  0  0  0  0
 14  9  1  0  0  0  0
 16 11  1  0  0  0  0
 17 18  1  0  0  0  0
 17 19  1  0  0  0  0
 21 20  1  0  0  0  0
 21  1  1  0  0  0  0
 22 21  2  0  0  0  0
 23 21  2  0  0  0  0
M  END
>  <minimizedAffinity>
-4.70791101

>  <minimizedRMSD>
1.54400802

$$$$
