
     RDKit          3D

 36 38  0  0  0  0  0  0  0  0999 V2000
   37.4187   30.2827   50.0347 C   0  0  0  0  0  0  0  0  0  0  0  0
   38.3098   31.3508   50.1593 C   0  0  0  0  0  0  0  0  0  0  0  0
   38.5399   32.1374   49.0220 C   0  0  0  0  0  0  0  0  0  0  0  0
   37.8814   31.8060   47.8823 N   0  0  0  0  0  0  0  0  0  0  0  0
   37.0279   30.7685   47.7969 C   0  0  0  0  0  0  0  0  0  0  0  0
   36.8032   30.0125   48.8787 N   0  0  0  0  0  0  0  0  0  0  0  0
   36.3550   30.4745   46.5487 C   0  0  0  0  0  0  0  0  0  0  0  0
   35.0956   29.9372   46.5070 C   0  0  0  0  0  0  0  0  0  0  0  0
   34.4770   29.6743   45.3146 C   0  0  0  0  0  0  0  0  0  0  0  0
   35.0860   29.9357   44.0838 C   0  0  0  0  0  0  0  0  0  0  0  0
   36.3662   30.4817   44.0964 C   0  0  0  0  0  0  0  0  0  0  0  0
   36.9256   30.7188   45.3279 C   0  0  0  0  0  0  0  0  0  0  0  0
   37.1680   29.4344   51.2586 C   0  0  0  0  0  0  0  0  0  0  0  0
   35.7918   29.2025   51.3854 F   0  0  0  0  0  0  0  0  0  0  0  0
   37.8892   28.2996   51.1386 F   0  0  0  0  0  0  0  0  0  0  0  0
   37.5278   30.1945   52.3731 F   0  0  0  0  0  0  0  0  0  0  0  0
   38.8289   31.6121   51.0586 H   0  0  0  0  0  0  0  0  0  0  0  0
   39.2232   32.9804   49.0626 H   0  0  0  0  0  0  0  0  0  0  0  0
   34.5453   29.7015   47.4070 H   0  0  0  0  0  0  0  0  0  0  0  0
   33.4702   29.2449   45.2802 H   0  0  0  0  0  0  0  0  0  0  0  0
   34.5745   29.7192   43.1553 H   0  0  0  0  0  0  0  0  0  0  0  0
   36.8277   30.6797   43.1516 H   0  0  0  0  0  0  0  0  0  0  0  0
   35.9980   33.1024   43.8340 H   0  0  0  0  0  0  0  0  0  0  0  0
   37.0683   32.6310   43.1183 S   0  0  0  0  0  0  0  0  0  0  0  0
   37.5518   33.6841   42.1718 O   0  0  0  0  0  0  0  0  0  0  0  0
   36.6351   31.4222   42.3362 O   0  0  0  0  0  0  0  0  0  0  0  0
   38.4070   32.2132   44.1898 C   0  0  0  0  0  0  0  0  0  0  0  0
   38.2826   31.2969   45.2244 C   0  0  0  0  0  0  0  0  0  0  0  0
   39.3613   31.0113   46.0287 C   0  0  0  0  0  0  0  0  0  0  0  0
   39.1795   30.2962   46.7997 H   0  0  0  0  0  0  0  0  0  0  0  0
   40.5716   31.6343   45.8106 C   0  0  0  0  0  0  0  0  0  0  0  0
   41.4038   31.3907   46.4583 H   0  0  0  0  0  0  0  0  0  0  0  0
   40.7612   32.5582   44.7948 C   0  0  0  0  0  0  0  0  0  0  0  0
   39.6632   32.8075   44.0255 C   0  0  0  0  0  0  0  0  0  0  0  0
   41.7028   33.0628   44.6013 H   0  0  0  0  0  0  0  0  0  0  0  0
   39.7709   33.5261   43.2182 H   0  0  0  0  0  0  0  0  0  0  0  0
  1  2  2  0
  1 13  1  0
  3  2  1  0
  4  3  2  0
  5  4  1  0
  5  6  2  0
  6  1  1  0
  7  5  1  0
  8  7  2  0
  9  8  1  0
 10 11  1  0
 10  9  2  0
 11 12  2  0
 12  7  1  0
 13 14  1  0
 13 16  1  0
 15 13  1  0
  2 17  1  0
  3 18  1  0
  8 19  1  0
  9 20  1  0
 10 21  1  0
 11 22  1  0
 23 24  1  0
 24 25  2  0
 24 26  2  0
 24 27  1  0
 27 28  2  0
 28 29  1  0
 29 30  1  0
 29 31  2  0
 31 32  1  0
 31 33  1  0
 33 34  2  0
 34 27  1  0
 33 35  1  0
 34 36  1  0
 12 28  1  0
M  ISO  8  17  14  18  14  19  14  20  14  21  14  22  14  23  12  30  15
M  ISO  1  32  16
M  END
>  <DihAtoms>  (1) 
10,11,27,26

>  <DihDeg>  (1) 
-81.563643809155

$$$$
