
     RDKit          3D

 31 33  0  0  0  0  0  0  0  0999 V2000
   37.5243   31.3982   49.3262 C   0  0  0  0  0  0  0  0  0  0  0  0
   38.1521   32.6409   49.4063 C   0  0  0  0  0  0  0  0  0  0  0  0
   38.9496   32.9922   48.3027 C   0  0  0  0  0  0  0  0  0  0  0  0
   39.0597   32.1161   47.2421 N   0  0  0  0  0  0  0  0  0  0  0  0
   38.4279   30.9223   47.2177 C   0  0  0  0  0  0  0  0  0  0  0  0
   37.6475   30.5573   48.2775 N   0  0  0  0  0  0  0  0  0  0  0  0
   36.6490   31.0438   50.4931 C   0  0  1  0  0  0  0  0  0  0  0  0
   36.1413   29.6689   50.6435 C   0  0  2  0  0  0  0  0  0  0  0  0
   37.3336   30.1001   51.4843 C   0  0  0  0  0  0  0  0  0  0  0  0
   36.3910   28.7481   49.6857 O   0  0  0  0  0  0  0  0  0  0  0  0
   38.0316   33.2896   50.2623 H   0  0  0  0  0  0  0  0  0  0  0  0
   39.4666   33.9406   48.2952 H   0  0  0  0  0  0  0  0  0  0  0  0
   38.5682   30.2958   46.3473 H   0  0  0  0  0  0  0  0  0  0  0  0
   36.1595   31.9347   50.9424 H   0  0  0  0  0  0  0  0  0  0  0  0
   35.1458   29.6254   51.1575 H   0  0  0  0  0  0  0  0  0  0  0  0
   37.0928   30.2821   52.5392 H   0  0  0  0  0  0  0  0  0  0  0  0
   38.3143   29.6875   51.2223 H   0  0  0  0  0  0  0  0  0  0  0  0
   35.8144   29.6361   46.6814 H   0  0  0  0  0  0  0  0  0  0  0  0
   34.7206   28.9306   47.0426 S   0  0  0  0  0  0  0  0  0  0  0  0
   33.6866   29.7868   47.7351 O   0  0  0  0  0  0  0  0  0  0  0  0
   34.0537   28.5203   45.7337 O   0  0  0  0  0  0  0  0  0  0  0  0
   35.1031   27.5002   47.9354 C   0  0  0  0  0  0  0  0  0  0  0  0
   35.8517   27.7215   49.0553 C   0  0  0  0  0  0  0  0  0  0  0  0
   36.1707   26.5629   49.7875 C   0  0  0  0  0  0  0  0  0  0  0  0
   36.7530   26.4520   50.7159 H   0  0  0  0  0  0  0  0  0  0  0  0
   35.7632   25.2908   49.4125 C   0  0  0  0  0  0  0  0  0  0  0  0
   35.9460   24.3492   49.8884 H   0  0  0  0  0  0  0  0  0  0  0  0
   35.0052   25.1760   48.2566 C   0  0  0  0  0  0  0  0  0  0  0  0
   34.6659   26.2776   47.5042 C   0  0  0  0  0  0  0  0  0  0  0  0
   34.6391   24.2355   47.8785 H   0  0  0  0  0  0  0  0  0  0  0  0
   34.0766   26.2287   46.5975 H   0  0  0  0  0  0  0  0  0  0  0  0
  1  2  2  0
  1  7  1  0
  3  2  1  0
  4  3  2  0
  5  4  1  0
  5  6  2  0
  6  1  1  0
  7  8  1  0
  7  9  1  0
  8  9  1  0
 10  8  1  0
  2 11  1  0
  3 12  1  0
  5 13  1  0
  7 14  1  1
  8 15  1  1
  9 16  1  0
  9 17  1  0
 18 19  1  0
 19 20  2  0
 19 21  2  0
 19 22  1  0
 22 23  2  0
 23 24  1  0
 24 25  1  0
 24 26  2  0
 26 27  1  0
 26 28  1  0
 28 29  2  0
 29 22  1  0
 28 30  1  0
 29 31  1  0
 10 23  1  0
M  ISO  8  11  14  12  14  13  14  14  13  15  13  16  13  17  13  18  12
M  ISO  2  25  15  27  16
M  END
>  <DihAtoms>  (1) 
7,9,22,21

>  <DihDeg>  (1) 
0.3099922424873639

$$$$
