
 OpenBabel03272509533D

 46 49  0  0  0  0  0  0  0  0999 V2000
   34.1190   29.3340   48.1740 C   0  0  0  0  0  0  0  0  0  0  0  0
   33.3520   29.6700   47.4510 H   0  0  0  0  0  0  0  0  0  0  0  0
   35.0930   29.2650   47.6270 H   0  0  0  0  0  0  0  0  0  0  0  0
   33.8560   27.9800   48.7430 C   0  0  0  0  0  0  0  0  0  0  0  0
   33.9270   28.0300   49.8400 H   0  0  0  0  0  0  0  0  0  0  0  0
   34.6130   27.2200   48.4110 H   0  0  0  0  0  0  0  0  0  0  0  0
   32.5240   27.4360   48.3570 C   0  0  0  0  0  0  0  0  0  0  0  0
   32.4240   26.6940   47.1970 C   0  0  0  0  0  0  0  0  0  0  0  0
   31.2450   26.1620   46.7730 C   0  0  0  0  0  0  0  0  0  0  0  0
   30.1610   26.3600   47.4920 N   0  0  0  0  0  0  0  0  0  0  0  0
   30.2290   27.0850   48.6350 C   0  0  0  0  0  0  0  0  0  0  0  0
   31.3960   27.6170   49.0640 N   0  0  0  0  0  0  0  0  0  0  0  0
   33.3190   26.5340   46.6100 H   0  0  0  0  0  0  0  0  0  0  0  0
   31.1980   25.5800   45.8540 H   0  0  0  0  0  0  0  0  0  0  0  0
   27.9120   27.9170   48.9100 C   0  0  0  0  0  0  0  0  0  0  0  0
   29.0380   27.3270   49.4640 C   0  0  0  0  0  0  0  0  0  0  0  0
   29.0150   26.9750   50.8180 C   0  0  0  0  0  0  0  0  0  0  0  0
   29.9040   26.5130   51.2420 H   0  0  0  0  0  0  0  0  0  0  0  0
   27.9180   27.1870   51.6230 C   0  0  0  0  0  0  0  0  0  0  0  0
   27.9610   26.8910   52.6670 H   0  0  0  0  0  0  0  0  0  0  0  0
   26.7950   27.7630   51.1140 C   0  0  0  0  0  0  0  0  0  0  0  0
   26.8320   28.1060   49.7800 C   0  0  0  0  0  0  0  0  0  0  0  0
   28.5490   27.6080   46.4060 H   0  0  0  0  0  0  0  0  0  0  0  0
   27.8320   28.3930   47.2510 S   0  0  0  0  0  0  0  0  0  0  0  0
   26.3690   28.4980   46.8580 O   0  0  0  0  0  0  0  0  0  0  0  0
   28.4010   29.7970   47.1390 O   0  0  0  0  0  0  0  0  0  0  0  0
   34.3460   30.2720   49.2140 O   0  0  0  0  0  0  0  0  0  0  0  0
   37.2850   29.9710   51.3020 C   0  0  0  0  0  0  0  0  0  0  0  0
   38.2000   30.7380   50.5370 C   0  0  0  0  0  0  0  0  0  0  0  0
   37.7550   31.3030   49.3660 C   0  0  0  0  0  0  0  0  0  0  0  0
   36.4410   31.0700   49.0380 N   0  0  0  0  0  0  0  0  0  0  0  0
   35.5930   30.3490   49.7610 C   0  0  0  0  0  0  0  0  0  0  0  0
   36.0270   29.7930   50.9120 N   0  0  0  0  0  0  0  0  0  0  0  0
   37.6900   29.5490   52.2150 H   0  0  0  0  0  0  0  0  0  0  0  0
   39.2150   30.9180   50.7920 H   0  0  0  0  0  0  0  0  0  0  0  0
   38.9440   33.8920   49.8500 F   0  0  0  0  0  0  0  0  0  0  0  0
   39.1130   33.3160   48.6660 C   0  0  0  0  0  0  0  0  0  0  0  0
   38.5460   32.1080   48.4720 C   0  0  0  0  0  0  0  0  0  0  0  0
   38.7850   31.5880   47.1890 C   0  0  0  0  0  0  0  0  0  0  0  0
   39.5240   32.2510   46.2360 C   0  0  0  0  0  0  0  0  0  0  0  0
   40.0700   33.4680   46.4940 C   0  0  0  0  0  0  0  0  0  0  0  0
   39.8590   34.0120   47.7380 C   0  0  0  0  0  0  0  0  0  0  0  0
   38.3940   30.6210   46.8780 H   0  0  0  0  0  0  0  0  0  0  0  0
   39.6920   31.8240   45.2530 H   0  0  0  0  0  0  0  0  0  0  0  0
   40.6510   34.0030   45.7650 H   0  0  0  0  0  0  0  0  0  0  0  0
   40.2810   34.9790   47.9740 H   0  0  0  0  0  0  0  0  0  0  0  0
  1  4  1  0  0  0  0
  1 27  1  0  0  0  0
  2  1  1  0  0  0  0
  3  1  1  0  0  0  0
  4  5  1  0  0  0  0
  6  4  1  0  0  0  0
  7  4  1  0  0  0  0
  7 12  1  0  0  0  0
  8  7  2  0  0  0  0
  9  8  1  0  0  0  0
  9 10  2  0  0  0  0
 10 11  1  0  0  0  0
 11 12  2  0  0  0  0
 11 16  1  0  0  0  0
 13  8  1  0  0  0  0
 14  9  1  0  0  0  0
 15 16  2  0  0  0  0
 15 22  1  0  0  0  0
 16 17  1  0  0  0  0
 17 18  1  0  0  0  0
 17 19  2  0  0  0  0
 19 20  1  0  0  0  0
 21 19  1  0  0  0  0
 22 21  2  0  0  0  0
 23 24  1  0  0  0  0
 24 15  1  0  0  0  0
 25 24  2  0  0  0  0
 26 24  2  0  0  0  0
 27 32  1  0  0  0  0
 28 34  1  0  0  0  0
 29 35  1  0  0  0  0
 29 28  2  0  0  0  0
 30 29  1  0  0  0  0
 31 30  2  0  0  0  0
 31 32  1  0  0  0  0
 32 33  2  0  0  0  0
 33 28  1  0  0  0  0
 37 36  1  0  0  0  0
 38 37  1  0  0  0  0
 38 30  1  0  0  0  0
 39 38  2  0  0  0  0
 40 41  2  0  0  0  0
 40 39  1  0  0  0  0
 41 42  1  0  0  0  0
 42 46  1  0  0  0  0
 42 37  2  0  0  0  0
 43 39  1  0  0  0  0
 44 40  1  0  0  0  0
 45 41  1  0  0  0  0
M  END
>  <minimizedAffinity>
-8.06891537

>  <minimizedRMSD>
3.66982985

$$$$
