
 OpenBabel03272510013D

 24 25  0  0  0  0  0  0  0  0999 V2000
   37.9680   31.3130   49.8000 C   0  0  0  0  0  0  0  0  0  0  0  0
   38.6130   31.7940   48.6390 C   0  0  0  0  0  0  0  0  0  0  0  0
   37.9740   31.6450   47.4190 C   0  0  0  0  0  0  0  0  0  0  0  0
   36.7640   31.0400   47.4460 N   0  0  0  0  0  0  0  0  0  0  0  0
   36.1630   30.5890   48.5480 C   0  0  0  0  0  0  0  0  0  0  0  0
   36.7690   30.7290   49.7210 N   0  0  0  0  0  0  0  0  0  0  0  0
   38.3990   31.3920   50.7690 H   0  0  0  0  0  0  0  0  0  0  0  0
   39.5790   32.2610   48.7270 H   0  0  0  0  0  0  0  0  0  0  0  0
   38.0790   31.6730   44.9650 C   0  0  0  0  0  0  0  0  0  0  0  0
   38.5600   32.1090   46.1700 C   0  0  0  0  0  0  0  0  0  0  0  0
   39.6070   32.9920   46.1300 C   0  0  0  0  0  0  0  0  0  0  0  0
   40.0560   33.3940   47.0270 H   0  0  0  0  0  0  0  0  0  0  0  0
   40.1960   33.4620   44.9760 C   0  0  0  0  0  0  0  0  0  0  0  0
   41.0190   34.1570   44.9610 H   0  0  0  0  0  0  0  0  0  0  0  0
   39.7170   33.0260   43.7590 C   0  0  0  0  0  3  0  0  0  0  0  0
   38.6640   32.1380   43.7860 C   0  0  0  0  0  3  0  0  0  0  0  0
   36.2380   30.1940   46.0510 H   0  0  0  0  0  0  0  0  0  0  0  0
   36.7480   30.5450   44.8440 S   0  0  0  0  0  0  0  0  0  0  0  0
   37.1450   29.3380   44.0040 O   0  0  0  0  0  0  0  0  0  0  0  0
   35.6090   31.1800   44.0780 O   0  0  0  0  0  0  0  0  0  0  0  0
   34.8350   29.9520   48.3980 C   0  0  0  0  0  0  0  0  0  0  0  0
   34.1150   29.9420   49.5910 F   0  0  0  0  0  0  0  0  0  0  0  0
   34.0310   30.6550   47.4860 F   0  0  0  0  0  0  0  0  0  0  0  0
   34.8640   28.6650   47.9530 F   0  0  0  0  0  0  0  0  0  0  0  0
  1  7  1  0  0  0  0
  2  8  1  0  0  0  0
  2  1  2  0  0  0  0
  3  4  2  0  0  0  0
  3  2  1  0  0  0  0
  4  5  1  0  0  0  0
  5  6  2  0  0  0  0
  6  1  1  0  0  0  0
  9 10  1  0  0  0  0
 10  3  1  0  0  0  0
 11 10  2  0  0  0  0
 11 12  1  0  0  0  0
 13 11  1  0  0  0  0
 14 13  1  0  0  0  0
 15 16  1  0  0  0  0
 15 13  2  0  0  0  0
 16  9  2  0  0  0  0
 18  9  1  0  0  0  0
 18 17  1  0  0  0  0
 19 18  2  0  0  0  0
 20 18  2  0  0  0  0
 21  5  1  0  0  0  0
 21 22  1  0  0  0  0
 23 21  1  0  0  0  0
 24 21  1  0  0  0  0
M  END
>  <minimizedAffinity>
-5.2901969

>  <minimizedRMSD>
2.18795204

$$$$
