
     RDKit          3D

 45 49  0  0  0  0  0  0  0  0999 V2000
   35.8495   29.1350   49.8132 C   0  0  0  0  0  0  0  0  0  0  0  0
   34.8225   29.6250   50.5419 C   0  0  0  0  0  0  0  0  0  0  0  0
   33.6462   29.0434   50.0478 C   0  0  0  0  0  0  0  0  0  0  0  0
   34.0620   28.2059   49.0098 C   0  0  0  0  0  0  0  0  0  0  0  0
   35.3511   28.3193   48.9424 O   0  0  0  0  0  0  0  0  0  0  0  0
   33.5348   26.4397   47.3376 C   0  0  0  0  0  0  0  0  0  0  0  0
   33.1210   27.4030   48.2211 C   0  0  0  0  0  0  0  0  0  0  0  0
   31.7910   27.6724   48.4279 C   0  0  0  0  0  0  0  0  0  0  0  0
   30.8638   26.9408   47.7168 C   0  0  0  0  0  0  0  0  0  0  0  0
   29.5131   26.9781   47.7133 N   0  0  0  0  0  0  0  0  0  0  0  0
   29.0883   26.0600   46.8496 N   0  0  0  0  0  0  0  0  0  0  0  0
   30.1405   25.4441   46.3077 C   0  0  0  0  0  0  0  0  0  0  0  0
   31.3027   25.9804   46.8377 C   0  0  0  0  0  0  0  0  0  0  0  0
   32.6388   25.6973   46.6174 C   0  0  0  0  0  0  0  0  0  0  0  0
   37.2295   29.5246   50.0512 C   0  0  0  0  0  0  0  0  0  0  0  0
   37.8792   28.9552   50.9662 O   0  0  0  0  0  0  0  0  0  0  0  0
   37.7807   30.5580   49.2102 C   0  0  0  0  0  0  0  0  0  0  0  0
   38.1236   31.7649   49.8267 C   0  0  0  0  0  0  0  0  0  0  0  0
   38.6604   32.7928   49.0611 C   0  0  0  0  0  0  0  0  0  0  0  0
   38.8166   32.5389   47.7271 N   0  0  0  0  0  0  0  0  0  0  0  0
   38.4838   31.3801   47.1539 C   0  0  0  0  0  0  0  0  0  0  0  0
   37.9700   30.3993   47.8924 N   0  0  0  0  0  0  0  0  0  0  0  0
   34.8622   30.3417   51.3690 H   0  0  0  0  0  0  0  0  0  0  0  0
   32.6731   29.2650   50.4562 H   0  0  0  0  0  0  0  0  0  0  0  0
   34.6004   26.2585   47.2034 H   0  0  0  0  0  0  0  0  0  0  0  0
   31.3789   28.4280   49.1170 H   0  0  0  0  0  0  0  0  0  0  0  0
   28.8905   27.6171   48.2886 H   0  0  0  0  0  0  0  0  0  0  0  0
   30.0647   24.6409   45.5605 H   0  0  0  0  0  0  0  0  0  0  0  0
   32.9388   24.9276   45.9107 H   0  0  0  0  0  0  0  0  0  0  0  0
   37.9963   31.9506   50.8717 H   0  0  0  0  0  0  0  0  0  0  0  0
   38.9457   33.7410   49.4611 H   0  0  0  0  0  0  0  0  0  0  0  0
   36.0542   29.8982   46.2224 H   0  0  0  0  0  0  0  0  0  0  0  0
   36.1238   30.8606   45.2687 S   0  0  0  0  0  0  0  0  0  0  0  0
   35.2454   30.4370   44.1134 O   0  0  0  0  0  0  0  0  0  0  0  0
   35.5602   32.1283   45.8221 O   0  0  0  0  0  0  0  0  0  0  0  0
   37.7690   31.0753   44.7640 C   0  0  0  0  0  0  0  0  0  0  0  0
   38.7300   31.3036   45.7207 C   0  0  0  0  0  0  0  0  0  0  0  0
   40.0067   31.4635   45.2308 C   0  0  0  0  0  0  0  0  0  0  0  0
   40.8687   31.6516   45.8854 H   0  0  0  0  0  0  0  0  0  0  0  0
   40.3181   31.4021   43.8775 C   0  0  0  0  0  0  0  0  0  0  0  0
   41.3228   31.5308   43.5287 H   0  0  0  0  0  0  0  0  0  0  0  0
   39.3303   31.1718   42.9488 C   0  0  0  0  0  0  0  0  0  0  0  0
   38.0470   31.0099   43.4252 C   0  0  0  0  0  0  0  0  0  0  0  0
   39.5916   31.1283   41.9118 H   0  0  0  0  0  0  0  0  0  0  0  0
   37.2809   30.8296   42.6830 H   0  0  0  0  0  0  0  0  0  0  0  0
  1 15  1  0
  1  2  2  0
  3  2  1  0
  4  3  2  0
  5  4  1  0
  5  1  1  0
  6  7  2  0
  7  8  1  0
  7  4  1  0
  9  8  2  0
 10  9  1  0
 11 10  1  0
 12 13  1  0
 12 11  2  0
 13  9  1  0
 14 13  2  0
 14  6  1  0
 15 16  2  0
 17 18  2  0
 17 15  1  0
 19 18  1  0
 20 19  2  0
 21 20  1  0
 21 22  2  0
 22 17  1  0
  2 23  1  0
  3 24  1  0
  6 25  1  0
  8 26  1  0
 10 27  1  0
 12 28  1  0
 14 29  1  0
 18 30  1  0
 19 31  1  0
 32 33  1  0
 33 34  2  0
 33 35  2  0
 33 36  1  0
 36 37  2  0
 37 38  1  0
 38 39  1  0
 38 40  2  0
 40 41  1  0
 40 42  1  0
 42 43  2  0
 43 36  1  0
 42 44  1  0
 43 45  1  0
 21 37  1  0
M  ISO  8  23  14  24  14  25  14  26  14  27   9  28  14  29  14  30  14
M  ISO  4  31  14  32  12  39  15  41  16
M  END
>  <DihAtoms>  (1) 
19,20,36,35

>  <DihDeg>  (1) 
179.8255737157175

$$$$
