
 OpenBabel03272507473D

 49 53  0  0  1  0  0  0  0  0999 V2000
   31.7080   28.2410   47.2760 N   0  0  0  0  0  0  0  0  0  0  0  0
   31.9730   27.7870   48.5930 C   0  0  0  0  0  0  0  0  0  0  0  0
   33.2450   28.2280   49.2110 C   0  0  0  0  0  0  0  0  0  0  0  0
   34.4180   28.2800   48.3380 C   0  0  1  0  0  0  0  0  0  0  0  0
   34.0580   28.7020   46.9030 C   0  0  0  0  0  0  0  0  0  0  0  0
   32.8500   27.8500   46.4750 C   0  0  0  0  0  0  0  0  0  0  0  0
   32.0090   26.6580   48.5620 H   0  0  0  0  0  0  0  0  0  0  0  0
   31.1460   28.0110   49.2860 H   0  0  0  0  0  0  0  0  0  0  0  0
   33.4270   27.6550   50.1350 H   0  0  0  0  0  0  0  0  0  0  0  0
   33.0030   29.3080   49.4900 H   0  0  0  0  0  0  0  0  0  0  0  0
   34.8860   27.2780   48.2030 H   0  0  0  0  0  0  0  0  0  0  0  0
   33.7080   29.7550   46.8850 H   0  0  0  0  0  0  0  0  0  0  0  0
   34.9270   28.4930   46.2840 H   0  0  0  0  0  0  0  0  0  0  0  0
   33.0550   26.7730   46.5270 H   0  0  0  0  0  0  0  0  0  0  0  0
   32.5780   28.0740   45.4280 H   0  0  0  0  0  0  0  0  0  0  0  0
   35.8830   29.1870   50.0840 C   0  0  0  0  0  0  0  0  0  0  0  0
   35.4700   29.2360   48.7610 C   0  0  0  0  0  0  0  0  0  0  0  0
   35.9600   30.1280   47.8460 C   0  0  0  0  0  0  0  0  0  0  0  0
   36.9260   31.0330   48.2770 C   0  0  0  0  0  0  0  0  0  0  0  0
   37.3360   30.9870   49.5880 C   0  0  0  0  0  0  0  0  0  0  0  0
   36.8430   30.0840   50.5230 C   0  0  0  0  0  0  0  0  0  0  0  0
   38.3040   31.9710   49.8310 O   0  0  0  0  0  0  0  0  0  0  0  0
   38.7180   32.3910   48.5320 C   0  0  0  0  0  0  0  0  0  0  0  0
   37.6570   32.0670   47.6770 O   0  0  0  0  0  0  0  0  0  0  0  0
   35.5790   28.5260   50.8840 H   0  0  0  0  0  0  0  0  0  0  0  0
   35.6280   30.1460   46.8360 H   0  0  0  0  0  0  0  0  0  0  0  0
   37.2160   30.1010   51.5600 H   0  0  0  0  0  0  0  0  0  0  0  0
   38.7790   33.4980   48.5930 H   0  0  0  0  0  0  0  0  0  0  0  0
   39.6810   31.9070   48.2550 H   0  0  0  0  0  0  0  0  0  0  0  0
   30.5640   28.9370   46.7910 C   0  0  0  0  0  0  0  0  0  0  0  0
   30.4880   29.5990   45.5690 C   0  0  0  0  0  0  0  0  0  0  0  0
   29.2740   30.2120   45.2540 C   0  0  0  0  0  0  0  0  0  0  0  0
   28.2370   30.1310   46.1550 N   0  0  0  0  0  0  0  0  0  0  0  0
   28.3720   29.4760   47.3230 C   0  0  0  0  0  0  0  0  0  0  0  0
   29.5030   28.8960   47.6310 N   0  0  0  0  0  0  0  0  0  0  0  0
   31.3630   29.5860   44.9680 H   0  0  0  0  0  0  0  0  0  0  0  0
   29.2240   30.7160   44.3190 H   0  0  0  0  0  0  0  0  0  0  0  0
   26.6570   28.5310   48.9300 C   0  0  0  0  0  0  0  0  0  0  0  0
   27.1380   29.5130   48.0990 C   0  0  0  0  0  0  0  0  0  0  0  0
   26.2960   30.6060   48.0580 C   0  0  0  0  0  0  0  0  0  0  0  0
   26.5100   31.4810   47.4550 H   0  0  0  0  0  0  0  0  0  0  0  0
   25.1130   30.7190   48.7560 C   0  0  0  0  0  0  0  0  0  0  0  0
   24.4750   31.5890   48.7030 H   0  0  0  0  0  0  0  0  0  0  0  0
   24.7010   29.6900   49.5690 C   0  0  0  0  0  0  0  0  0  0  0  0
   25.4990   28.5730   49.6500 C   0  0  0  0  0  0  0  0  0  0  0  0
   28.9270   27.4820   48.9380 H   0  0  0  0  0  0  0  0  0  0  0  0
   27.6140   27.0780   49.1120 S   0  0  0  0  0  0  0  0  0  0  0  0
   27.4960   26.4940   50.4950 O   0  0  0  0  0  0  0  0  0  0  0  0
   27.2620   26.0860   48.0730 O   0  0  0  0  0  0  0  0  0  0  0  0
  1  2  1  0  0  0  0
  2  3  1  0  0  0  0
  2  8  1  0  0  0  0
  3 10  1  0  0  0  0
  3  9  1  0  0  0  0
  4 11  1  6  0  0  0
  4 17  1  0  0  0  0
  4  3  1  0  0  0  0
  5  4  1  0  0  0  0
  6 14  1  0  0  0  0
  6  5  1  0  0  0  0
  6  1  1  0  0  0  0
  7  2  1  0  0  0  0
 12  5  1  0  0  0  0
 13  5  1  0  0  0  0
 15  6  1  0  0  0  0
 16 21  1  0  0  0  0
 16 25  1  0  0  0  0
 17 16  2  0  0  0  0
 18 19  2  0  0  0  0
 18 17  1  0  0  0  0
 19 20  1  0  0  0  0
 20 22  1  0  0  0  0
 20 21  2  0  0  0  0
 21 27  1  0  0  0  0
 23 28  1  0  0  0  0
 23 22  1  0  0  0  0
 24 19  1  0  0  0  0
 24 23  1  0  0  0  0
 26 18  1  0  0  0  0
 29 23  1  0  0  0  0
 30  1  1  0  0  0  0
 30 35  1  0  0  0  0
 31 30  2  0  0  0  0
 32 31  1  0  0  0  0
 32 33  2  0  0  0  0
 33 34  1  0  0  0  0
 34 35  2  0  0  0  0
 34 39  1  0  0  0  0
 36 31  1  0  0  0  0
 37 32  1  0  0  0  0
 38 47  1  0  0  0  0
 38 45  1  0  0  0  0
 39 38  2  0  0  0  0
 40 39  1  0  0  0  0
 40 42  2  0  0  0  0
 41 40  1  0  0  0  0
 42 44  1  0  0  0  0
 43 42  1  0  0  0  0
 44 45  2  0  0  0  0
 46 47  1  0  0  0  0
 47 48  2  0  0  0  0
 49 47  2  0  0  0  0
M  END
>  <minimizedAffinity>
-8.18030453

>  <minimizedRMSD>
1.92428744

$$$$
