REMARK  Name = 
REMARK  3 active torsions:
REMARK  status: ('A' for Active; 'I' for Inactive)
REMARK    1  A    between atoms: C_3  and  C_18
REMARK    2  A    between atoms: C_5  and  C_7
REMARK    3  A    between atoms: S_14  and  C_17
REMARK                            x       y       z     vdW  Elec       q    Type
REMARK                         _______ _______ _______ _____ _____    ______ ____
ROOT
ATOM      1  C   UNL     1      38.301  31.246  50.123  0.00  0.00    +0.000 A 
ATOM      2  C   UNL     1      38.280  31.614  48.759  0.00  0.00    +0.000 A 
ATOM      3  C   UNL     1      37.200  31.221  47.986  0.00  0.00    +0.000 A 
ATOM      4  N   UNL     1      36.241  30.504  48.616  0.00  0.00    +0.000 NA
ATOM      5  C   UNL     1      36.270  30.161  49.905  0.00  0.00    +0.000 A 
ATOM      6  N   UNL     1      37.302  30.535  50.652  0.00  0.00    +0.000 NA
ATOM      7  H   UNL     1      39.097  31.512  50.775  0.00  0.00    +0.000 HD
ATOM      8  H   UNL     1      39.096  32.187  48.354  0.00  0.00    +0.000 HD
ENDROOT
BRANCH   3  10
ATOM      9  C   UNL     1      38.209  31.704  45.799  0.00  0.00    +0.000 A 
ATOM     10  C   UNL     1      37.090  31.553  46.573  0.00  0.00    +0.000 A 
ATOM     11  C   UNL     1      35.883  31.731  45.949  0.00  0.00    +0.000 A 
ATOM     12  H   UNL     1      34.943  31.633  46.474  0.00  0.00    +0.000 HD
ATOM     13  C   UNL     1      35.725  32.046  44.616  0.00  0.00    +0.000 A 
ATOM     14  H   UNL     1      34.769  32.182  44.140  0.00  0.00    +0.000 HD
ATOM     15  C   UNL     1      36.848  32.199  43.831  0.00  0.00    +0.000 A 
ATOM     16  C   UNL     1      38.068  32.023  44.447  0.00  0.00    +0.000 A 
BRANCH   9  18
ATOM     17  H   UNL     1      40.024  30.298  47.017  0.00  0.00    +0.000 HD
ATOM     18  S   UNL     1      39.824  31.511  46.443  0.00  0.00    +0.000 S 
ATOM     19  O   UNL     1      40.167  32.665  47.376  0.00  0.00    +0.000 OA
ATOM     20  O   UNL     1      40.836  31.617  45.324  0.00  0.00    +0.000 OA
ENDBRANCH   9  18
ENDBRANCH   3  10
BRANCH   5  21
ATOM     21  C   UNL     1      35.134  29.374  50.435  0.00  0.00    +0.000 C 
ATOM     22  F   UNL     1      35.260  29.116  51.798  0.00  0.00    +0.000 F 
ATOM     23  F   UNL     1      33.922  30.072  50.301  0.00  0.00    +0.000 F 
ATOM     24  F   UNL     1      34.938  28.170  49.829  0.00  0.00    +0.000 F 
ENDBRANCH   5  21
TORSDOF 3
