
 OpenBabel03272500033D

 31 33  0  0  0  0  0  0  0  0999 V2000
   39.8690   25.7530   35.4400 C   0  0  0  0  0  0  0  0  0  0  0  0
   39.4010   24.4210   35.3670 C   0  0  0  0  0  0  0  0  0  0  0  0
   38.2100   24.2040   34.6810 C   0  0  0  0  0  0  0  0  0  0  0  0
   37.5700   25.2690   34.1260 N   0  0  0  0  0  0  0  0  0  0  0  0
   38.0320   26.5230   34.2070 C   0  0  0  0  0  0  0  0  0  0  0  0
   39.1800   26.7620   34.8640 N   0  0  0  0  0  0  0  0  0  0  0  0
   40.7950   26.0160   35.9590 H   0  0  0  0  0  0  0  0  0  0  0  0
   37.8440   23.1830   34.6210 H   0  0  0  0  0  0  0  0  0  0  0  0
   40.1680   23.4060   35.9910 N   0  0  0  0  0  0  0  0  0  0  0  0
   41.3100   22.9520   35.4380 C   0  0  0  0  0  0  0  0  0  0  0  0
   42.0470   21.9520   36.0730 C   0  0  0  0  0  0  0  0  0  0  0  0
   41.4910   21.5200   37.2580 C   0  0  0  0  0  0  0  0  0  0  0  0
   42.1480   20.6040   37.8560 O   0  0  0  0  0  0  0  0  0  0  0  0
   40.3610   21.9500   37.8290 N   0  0  0  0  0  0  0  0  0  0  0  0
   39.6970   22.9220   37.1600 C   0  0  0  0  0  0  0  0  0  0  0  0
   38.6310   23.3440   37.6770 O   0  0  0  0  0  0  0  0  0  0  0  0
   41.6860   23.3440   34.5000 H   0  0  0  0  0  0  0  0  0  0  0  0
   42.9680   21.5420   35.6910 H   0  0  0  0  0  0  0  0  0  0  0  0
   40.0460   21.5420   38.7280 H   0  0  0  0  0  0  0  0  0  0  0  0
   37.4020   27.9110   32.2430 C   0  0  0  0  0  0  0  0  0  0  0  0
   37.2600   27.5860   33.5730 C   0  0  0  0  0  0  0  0  0  0  0  0
   36.3590   28.2830   34.3510 C   0  0  0  0  0  0  0  0  0  0  0  0
   36.2190   28.0540   35.4110 H   0  0  0  0  0  0  0  0  0  0  0  0
   35.5650   29.3120   33.8810 C   0  0  0  0  0  0  0  0  0  0  0  0
   34.8640   29.8610   34.4670 H   0  0  0  0  0  0  0  0  0  0  0  0
   35.6940   29.6510   32.5510 C   0  0  0  0  0  3  0  0  0  0  0  0
   36.5930   28.9550   31.7780 C   0  0  0  0  0  3  0  0  0  0  0  0
   39.7130   26.8280   31.8720 H   0  0  0  0  0  0  0  0  0  0  0  0
   38.5240   27.0560   31.2410 S   0  0  0  0  0  0  0  0  0  0  0  0
   37.9640   25.7620   30.7120 O   0  0  0  0  0  0  0  0  0  0  0  0
   38.7520   27.9230   30.0100 O   0  0  0  0  0  0  0  0  0  0  0  0
  1  7  1  0  0  0  0
  2  1  1  0  0  0  0
  2  9  1  0  0  0  0
  3  2  2  0  0  0  0
  4  5  2  0  0  0  0
  4  3  1  0  0  0  0
  5  6  1  0  0  0  0
  6  1  2  0  0  0  0
  8  3  1  0  0  0  0
  9 15  1  0  0  0  0
 10  9  1  0  0  0  0
 10 11  2  0  0  0  0
 11 12  1  0  0  0  0
 12 14  1  0  0  0  0
 12 13  2  0  0  0  0
 14 19  1  0  0  0  0
 15 16  2  0  0  0  0
 15 14  1  0  0  0  0
 17 10  1  0  0  0  0
 18 11  1  0  0  0  0
 20 21  1  0  0  0  0
 21  5  1  0  0  0  0
 21 22  2  0  0  0  0
 22 23  1  0  0  0  0
 24 22  1  0  0  0  0
 24 25  1  0  0  0  0
 26 24  2  0  0  0  0
 27 20  2  0  0  0  0
 27 26  1  0  0  0  0
 29 28  1  0  0  0  0
 29 20  1  0  0  0  0
 30 29  2  0  0  0  0
 31 29  2  0  0  0  0
M  END
>  <minimizedAffinity>
-5.75293922

$$$$

 OpenBabel03272500033D

 31 33  0  0  0  0  0  0  0  0999 V2000
   37.7300   25.2050   34.3780 C   0  0  0  0  0  0  0  0  0  0  0  0
   38.5500   25.4900   35.4930 C   0  0  0  0  0  0  0  0  0  0  0  0
   38.5790   26.8090   35.9370 C   0  0  0  0  0  0  0  0  0  0  0  0
   37.8270   27.7360   35.2850 N   0  0  0  0  0  0  0  0  0  0  0  0
   37.0570   27.4430   34.2300 C   0  0  0  0  0  0  0  0  0  0  0  0
   37.0100   26.1770   33.7790 N   0  0  0  0  0  0  0  0  0  0  0  0
   37.6460   24.1970   33.9610 H   0  0  0  0  0  0  0  0  0  0  0  0
   39.2070   27.0350   36.7940 H   0  0  0  0  0  0  0  0  0  0  0  0
   39.2810   24.4260   36.0770 N   0  0  0  0  0  0  0  0  0  0  0  0
   38.8060   23.7550   37.1450 C   0  0  0  0  0  0  0  0  0  0  0  0
   39.5450   22.7110   37.7020 C   0  0  0  0  0  0  0  0  0  0  0  0
   40.7430   22.4740   37.0600 C   0  0  0  0  0  0  0  0  0  0  0  0
   41.4360   21.5230   37.5530 O   0  0  0  0  0  0  0  0  0  0  0  0
   41.2390   23.1230   36.0020 N   0  0  0  0  0  0  0  0  0  0  0  0
   40.4690   24.1240   35.5120 C   0  0  0  0  0  0  0  0  0  0  0  0
   40.9130   24.7500   34.5160 O   0  0  0  0  0  0  0  0  0  0  0  0
   37.8510   23.9990   37.5950 H   0  0  0  0  0  0  0  0  0  0  0  0
   39.2290   22.1300   38.5530 H   0  0  0  0  0  0  0  0  0  0  0  0
   42.1570   22.8490   35.6090 H   0  0  0  0  0  0  0  0  0  0  0  0
   36.1000   28.6020   32.2490 C   0  0  0  0  0  0  0  0  0  0  0  0
   36.2950   28.5210   33.6100 C   0  0  0  0  0  0  0  0  0  0  0  0
   35.7550   29.4880   34.4320 C   0  0  0  0  0  0  0  0  0  0  0  0
   35.8880   29.4570   35.5170 H   0  0  0  0  0  0  0  0  0  0  0  0
   35.0130   30.5630   33.9790 C   0  0  0  0  0  0  0  0  0  0  0  0
   34.5880   31.3190   34.5990 H   0  0  0  0  0  0  0  0  0  0  0  0
   34.8090   30.6590   32.6200 C   0  0  0  0  0  3  0  0  0  0  0  0
   35.3470   29.6940   31.8020 C   0  0  0  0  0  3  0  0  0  0  0  0
   37.8440   26.7720   31.7370 H   0  0  0  0  0  0  0  0  0  0  0  0
   36.7640   27.4050   31.1910 S   0  0  0  0  0  0  0  0  0  0  0  0
   35.7440   26.3920   30.7440 O   0  0  0  0  0  0  0  0  0  0  0  0
   37.1830   28.1340   29.9210 O   0  0  0  0  0  0  0  0  0  0  0  0
  1  2  1  0  0  0  0
  2  3  2  0  0  0  0
  2  9  1  0  0  0  0
  3  8  1  0  0  0  0
  4  3  1  0  0  0  0
  5  4  2  0  0  0  0
  6  5  1  0  0  0  0
  6  1  2  0  0  0  0
  7  1  1  0  0  0  0
  9 10  1  0  0  0  0
 10 17  1  0  0  0  0
 10 11  2  0  0  0  0
 11 18  1  0  0  0  0
 12 13  2  0  0  0  0
 12 11  1  0  0  0  0
 14 12  1  0  0  0  0
 15 14  1  0  0  0  0
 15  9  1  0  0  0  0
 16 15  2  0  0  0  0
 19 14  1  0  0  0  0
 20 21  1  0  0  0  0
 21  5  1  0  0  0  0
 21 22  2  0  0  0  0
 22 23  1  0  0  0  0
 24 22  1  0  0  0  0
 24 25  1  0  0  0  0
 26 24  2  0  0  0  0
 27 20  2  0  0  0  0
 27 26  1  0  0  0  0
 29 28  1  0  0  0  0
 29 20  1  0  0  0  0
 30 29  2  0  0  0  0
 31 29  2  0  0  0  0
M  END
>  <minimizedAffinity>
-5.58332205

$$$$

 OpenBabel03272500033D

 31 33  0  0  0  0  0  0  0  0999 V2000
   38.0340   25.2170   33.3690 C   0  0  0  0  0  0  0  0  0  0  0  0
   38.3340   26.5870   33.5390 C   0  0  0  0  0  0  0  0  0  0  0  0
   39.3180   26.9090   34.4700 C   0  0  0  0  0  0  0  0  0  0  0  0
   39.9280   25.9030   35.1530 N   0  0  0  0  0  0  0  0  0  0  0  0
   39.6270   24.6100   34.9740 C   0  0  0  0  0  0  0  0  0  0  0  0
   38.6810   24.2700   34.0830 N   0  0  0  0  0  0  0  0  0  0  0  0
   37.2750   24.8720   32.6600 H   0  0  0  0  0  0  0  0  0  0  0  0
   39.5550   27.9600   34.6060 H   0  0  0  0  0  0  0  0  0  0  0  0
   37.6220   27.5320   32.7610 N   0  0  0  0  0  0  0  0  0  0  0  0
   37.9690   27.7920   31.4850 C   0  0  0  0  0  0  0  0  0  0  0  0
   37.2500   28.7270   30.7390 C   0  0  0  0  0  0  0  0  0  0  0  0
   36.2100   29.3090   31.4330 C   0  0  0  0  0  0  0  0  0  0  0  0
   35.5390   30.1690   30.7710 O   0  0  0  0  0  0  0  0  0  0  0  0
   35.8440   29.0720   32.6970 N   0  0  0  0  0  0  0  0  0  0  0  0
   36.5840   28.1530   33.3610 C   0  0  0  0  0  0  0  0  0  0  0  0
   36.2590   27.9120   34.5520 O   0  0  0  0  0  0  0  0  0  0  0  0
   38.8010   27.2900   31.0060 H   0  0  0  0  0  0  0  0  0  0  0  0
   37.4690   28.9850   29.7160 H   0  0  0  0  0  0  0  0  0  0  0  0
   35.0390   29.5780   33.1070 H   0  0  0  0  0  0  0  0  0  0  0  0
   39.8090   23.0380   36.8920 C   0  0  0  0  0  0  0  0  0  0  0  0
   40.3470   23.6180   35.7640 C   0  0  0  0  0  0  0  0  0  0  0  0
   41.6130   23.2570   35.3530 C   0  0  0  0  0  0  0  0  0  0  0  0
   42.0730   23.6960   34.4630 H   0  0  0  0  0  0  0  0  0  0  0  0
   42.4050   22.3320   36.0060 C   0  0  0  0  0  0  0  0  0  0  0  0
   43.3850   22.0410   35.7030 H   0  0  0  0  0  0  0  0  0  0  0  0
   41.8830   21.7420   37.1370 C   0  0  0  0  0  3  0  0  0  0  0  0
   40.6200   22.1020   37.5450 C   0  0  0  0  0  3  0  0  0  0  0  0
   37.9590   24.7970   37.2580 H   0  0  0  0  0  0  0  0  0  0  0  0
   38.2240   23.4680   37.4350 S   0  0  0  0  0  0  0  0  0  0  0  0
   37.1430   22.6370   36.7950 O   0  0  0  0  0  0  0  0  0  0  0  0
   38.1650   23.1240   38.9170 O   0  0  0  0  0  0  0  0  0  0  0  0
  1  2  2  0  0  0  0
  1  6  1  0  0  0  0
  2  3  1  0  0  0  0
  3  8  1  0  0  0  0
  3  4  2  0  0  0  0
  5  4  1  0  0  0  0
  5 21  1  0  0  0  0
  6  5  2  0  0  0  0
  7  1  1  0  0  0  0
  9 15  1  0  0  0  0
  9  2  1  0  0  0  0
 10  9  1  0  0  0  0
 11 12  1  0  0  0  0
 11 10  2  0  0  0  0
 12 14  1  0  0  0  0
 13 12  2  0  0  0  0
 14 19  1  0  0  0  0
 14 15  1  0  0  0  0
 15 16  2  0  0  0  0
 17 10  1  0  0  0  0
 18 11  1  0  0  0  0
 20 29  1  0  0  0  0
 20 27  1  0  0  0  0
 21 20  2  0  0  0  0
 22 21  1  0  0  0  0
 22 24  2  0  0  0  0
 23 22  1  0  0  0  0
 24 26  1  0  0  0  0
 25 24  1  0  0  0  0
 26 27  2  0  0  0  0
 28 29  1  0  0  0  0
 29 31  2  0  0  0  0
 30 29  2  0  0  0  0
M  END
>  <minimizedAffinity>
-5.56009436

$$$$

 OpenBabel03272500033D

 31 33  0  0  0  0  0  0  0  0999 V2000
   38.9760   27.0110   34.5800 C   0  0  0  0  0  0  0  0  0  0  0  0
   38.0350   26.6220   33.6000 C   0  0  0  0  0  0  0  0  0  0  0  0
   37.8720   25.2570   33.3850 C   0  0  0  0  0  0  0  0  0  0  0  0
   38.6140   24.3850   34.1190 N   0  0  0  0  0  0  0  0  0  0  0  0
   39.4990   24.7760   35.0440 C   0  0  0  0  0  0  0  0  0  0  0  0
   39.6790   26.0890   35.2730 N   0  0  0  0  0  0  0  0  0  0  0  0
   39.1700   28.0620   34.8150 H   0  0  0  0  0  0  0  0  0  0  0  0
   37.1500   24.9510   32.6330 H   0  0  0  0  0  0  0  0  0  0  0  0
   37.3290   27.6370   32.9080 N   0  0  0  0  0  0  0  0  0  0  0  0
   36.2700   28.2560   33.4640 C   0  0  0  0  0  0  0  0  0  0  0  0
   35.5920   29.2530   32.7620 C   0  0  0  0  0  0  0  0  0  0  0  0
   36.1140   29.5030   31.5100 C   0  0  0  0  0  0  0  0  0  0  0  0
   35.5090   30.4110   30.8490 O   0  0  0  0  0  0  0  0  0  0  0  0
   37.1610   28.9050   30.9330 N   0  0  0  0  0  0  0  0  0  0  0  0
   37.7720   27.9490   31.6710 C   0  0  0  0  0  0  0  0  0  0  0  0
   38.7610   27.3710   31.1510 O   0  0  0  0  0  0  0  0  0  0  0  0
   35.9180   28.0050   34.4580 H   0  0  0  0  0  0  0  0  0  0  0  0
   34.7390   29.7910   33.1420 H   0  0  0  0  0  0  0  0  0  0  0  0
   37.4580   29.1840   29.9810 H   0  0  0  0  0  0  0  0  0  0  0  0
   39.7250   23.1080   36.8750 C   0  0  0  0  0  0  0  0  0  0  0  0
   40.2390   23.7500   35.7700 C   0  0  0  0  0  0  0  0  0  0  0  0
   41.5010   23.4220   35.3210 C   0  0  0  0  0  0  0  0  0  0  0  0
   41.9420   23.9090   34.4470 H   0  0  0  0  0  0  0  0  0  0  0  0
   42.3110   22.4700   35.9120 C   0  0  0  0  0  0  0  0  0  0  0  0
   43.2870   22.2040   35.5780 H   0  0  0  0  0  0  0  0  0  0  0  0
   41.8120   21.8190   37.0190 C   0  0  0  0  0  3  0  0  0  0  0  0
   40.5540   22.1480   37.4660 C   0  0  0  0  0  3  0  0  0  0  0  0
   37.8480   24.8220   37.3140 H   0  0  0  0  0  0  0  0  0  0  0  0
   38.1460   23.4980   37.4650 S   0  0  0  0  0  0  0  0  0  0  0  0
   37.0660   22.6520   36.8420 O   0  0  0  0  0  0  0  0  0  0  0  0
   38.1330   23.1320   38.9430 O   0  0  0  0  0  0  0  0  0  0  0  0
  1  7  1  0  0  0  0
  1  6  1  0  0  0  0
  2  1  2  0  0  0  0
  3  2  1  0  0  0  0
  3  4  2  0  0  0  0
  4  5  1  0  0  0  0
  5  6  2  0  0  0  0
  5 21  1  0  0  0  0
  8  3  1  0  0  0  0
  9 10  1  0  0  0  0
  9  2  1  0  0  0  0
 10 17  1  0  0  0  0
 11 18  1  0  0  0  0
 11 10  2  0  0  0  0
 12 11  1  0  0  0  0
 13 12  2  0  0  0  0
 14 12  1  0  0  0  0
 14 15  1  0  0  0  0
 15  9  1  0  0  0  0
 16 15  2  0  0  0  0
 19 14  1  0  0  0  0
 20 29  1  0  0  0  0
 20 27  1  0  0  0  0
 21 20  2  0  0  0  0
 22 21  1  0  0  0  0
 22 24  2  0  0  0  0
 23 22  1  0  0  0  0
 24 26  1  0  0  0  0
 25 24  1  0  0  0  0
 26 27  2  0  0  0  0
 28 29  1  0  0  0  0
 29 31  2  0  0  0  0
 30 29  2  0  0  0  0
M  END
>  <minimizedAffinity>
-5.44004965

$$$$

 OpenBabel03272500033D

 31 33  0  0  0  0  0  0  0  0999 V2000
   36.4480   28.5850   31.9610 C   0  0  0  0  0  0  0  0  0  0  0  0
   36.9830   27.4140   32.5450 C   0  0  0  0  0  0  0  0  0  0  0  0
   36.8780   27.2890   33.9270 C   0  0  0  0  0  0  0  0  0  0  0  0
   36.2740   28.2850   34.6300 N   0  0  0  0  0  0  0  0  0  0  0  0
   35.7730   29.3860   34.0560 C   0  0  0  0  0  0  0  0  0  0  0  0
   35.8610   29.5340   32.7230 N   0  0  0  0  0  0  0  0  0  0  0  0
   36.4870   28.7670   30.8840 H   0  0  0  0  0  0  0  0  0  0  0  0
   37.2870   26.3920   34.3820 H   0  0  0  0  0  0  0  0  0  0  0  0
   37.5860   26.4560   31.6930 N   0  0  0  0  0  0  0  0  0  0  0  0
   38.8890   26.5380   31.3580 C   0  0  0  0  0  0  0  0  0  0  0  0
   39.4590   25.5810   30.5180 C   0  0  0  0  0  0  0  0  0  0  0  0
   38.5730   24.6080   30.1050 C   0  0  0  0  0  0  0  0  0  0  0  0
   39.0730   23.7210   29.3350 O   0  0  0  0  0  0  0  0  0  0  0  0
   37.2780   24.5010   30.4200 N   0  0  0  0  0  0  0  0  0  0  0  0
   36.7920   25.4630   31.2390 C   0  0  0  0  0  0  0  0  0  0  0  0
   35.5760   25.3850   31.5520 O   0  0  0  0  0  0  0  0  0  0  0  0
   39.5240   27.3360   31.7250 H   0  0  0  0  0  0  0  0  0  0  0  0
   40.4910   25.5830   30.2080 H   0  0  0  0  0  0  0  0  0  0  0  0
   36.7160   23.7180   30.0430 H   0  0  0  0  0  0  0  0  0  0  0  0
   33.7830   30.4780   35.0720 C   0  0  0  0  0  0  0  0  0  0  0  0
   35.1480   30.3880   34.9120 C   0  0  0  0  0  0  0  0  0  0  0  0
   35.9690   31.2730   35.5790 C   0  0  0  0  0  0  0  0  0  0  0  0
   37.0570   31.2320   35.4780 H   0  0  0  0  0  0  0  0  0  0  0  0
   35.5120   32.2700   36.4200 C   0  0  0  0  0  0  0  0  0  0  0  0
   36.1310   32.9620   36.9430 H   0  0  0  0  0  0  0  0  0  0  0  0
   34.1480   32.3750   36.5900 C   0  0  0  0  0  3  0  0  0  0  0  0
   33.3320   31.4920   35.9240 C   0  0  0  0  0  3  0  0  0  0  0  0
   33.2810   28.1470   34.0870 H   0  0  0  0  0  0  0  0  0  0  0  0
   32.7250   29.3840   34.2480 S   0  0  0  0  0  0  0  0  0  0  0  0
   31.3790   29.2620   34.9140 O   0  0  0  0  0  0  0  0  0  0  0  0
   32.4390   30.0010   32.8850 O   0  0  0  0  0  0  0  0  0  0  0  0
  1  2  2  0  0  0  0
  1  6  1  0  0  0  0
  2  3  1  0  0  0  0
  3  8  1  0  0  0  0
  3  4  2  0  0  0  0
  5  4  1  0  0  0  0
  5 21  1  0  0  0  0
  6  5  2  0  0  0  0
  7  1  1  0  0  0  0
  9  2  1  0  0  0  0
 10  9  1  0  0  0  0
 10 17  1  0  0  0  0
 11 10  2  0  0  0  0
 12 14  1  0  0  0  0
 12 11  1  0  0  0  0
 13 12  2  0  0  0  0
 14 15  1  0  0  0  0
 15 16  2  0  0  0  0
 15  9  1  0  0  0  0
 18 11  1  0  0  0  0
 19 14  1  0  0  0  0
 20 27  1  0  0  0  0
 21 20  2  0  0  0  0
 21 22  1  0  0  0  0
 22 24  2  0  0  0  0
 23 22  1  0  0  0  0
 24 26  1  0  0  0  0
 24 25  1  0  0  0  0
 27 26  2  0  0  0  0
 28 29  1  0  0  0  0
 29 30  2  0  0  0  0
 29 20  1  0  0  0  0
 31 29  2  0  0  0  0
M  END
>  <minimizedAffinity>
-5.37775517

$$$$

 OpenBabel03272500033D

 31 33  0  0  0  0  0  0  0  0999 V2000
   37.5770   25.5660   32.8380 C   0  0  0  0  0  0  0  0  0  0  0  0
   38.3470   26.7300   32.6180 C   0  0  0  0  0  0  0  0  0  0  0  0
   39.2370   27.1000   33.6220 C   0  0  0  0  0  0  0  0  0  0  0  0
   39.3170   26.3320   34.7420 N   0  0  0  0  0  0  0  0  0  0  0  0
   38.5770   25.2320   34.9290 C   0  0  0  0  0  0  0  0  0  0  0  0
   37.7080   24.8510   33.9760 N   0  0  0  0  0  0  0  0  0  0  0  0
   36.8530   25.2010   32.1040 H   0  0  0  0  0  0  0  0  0  0  0  0
   39.8330   27.9940   33.4600 H   0  0  0  0  0  0  0  0  0  0  0  0
   38.1640   27.4370   31.4030 N   0  0  0  0  0  0  0  0  0  0  0  0
   37.3520   28.5100   31.3340 C   0  0  0  0  0  0  0  0  0  0  0  0
   37.1890   29.1890   30.1260 C   0  0  0  0  0  0  0  0  0  0  0  0
   37.9180   28.6520   29.0850 C   0  0  0  0  0  0  0  0  0  0  0  0
   37.7840   29.2580   27.9700 O   0  0  0  0  0  0  0  0  0  0  0  0
   38.7300   27.5910   29.1250 N   0  0  0  0  0  0  0  0  0  0  0  0
   38.8420   26.9810   30.3280 C   0  0  0  0  0  0  0  0  0  0  0  0
   39.6000   25.9790   30.3920 O   0  0  0  0  0  0  0  0  0  0  0  0
   36.8100   28.8740   32.1990 H   0  0  0  0  0  0  0  0  0  0  0  0
   36.5580   30.0530   29.9960 H   0  0  0  0  0  0  0  0  0  0  0  0
   39.2250   27.2850   28.2690 H   0  0  0  0  0  0  0  0  0  0  0  0
   39.6640   23.4680   36.3050 C   0  0  0  0  0  0  0  0  0  0  0  0
   38.7470   24.4870   36.1720 C   0  0  0  0  0  0  0  0  0  0  0  0
   37.9510   24.8290   37.2450 C   0  0  0  0  0  0  0  0  0  0  0  0
   37.2130   25.6330   37.1770 H   0  0  0  0  0  0  0  0  0  0  0  0
   38.0060   24.2080   38.4780 C   0  0  0  0  0  0  0  0  0  0  0  0
   37.4000   24.4590   39.3180 H   0  0  0  0  0  0  0  0  0  0  0  0
   38.9180   23.1860   38.6290 C   0  0  0  0  0  3  0  0  0  0  0  0
   39.7100   22.8470   37.5580 C   0  0  0  0  0  3  0  0  0  0  0  0
   41.0070   24.0800   34.1900 H   0  0  0  0  0  0  0  0  0  0  0  0
   40.6760   23.0140   34.9770 S   0  0  0  0  0  0  0  0  0  0  0  0
   41.9220   22.2910   35.4160 O   0  0  0  0  0  0  0  0  0  0  0  0
   39.8920   21.9960   34.1620 O   0  0  0  0  0  0  0  0  0  0  0  0
  1  6  1  0  0  0  0
  2  1  2  0  0  0  0
  2  3  1  0  0  0  0
  3  4  2  0  0  0  0
  4  5  1  0  0  0  0
  5 21  1  0  0  0  0
  6  5  2  0  0  0  0
  7  1  1  0  0  0  0
  8  3  1  0  0  0  0
  9  2  1  0  0  0  0
 10  9  1  0  0  0  0
 10 17  1  0  0  0  0
 11 10  2  0  0  0  0
 12 14  1  0  0  0  0
 12 11  1  0  0  0  0
 13 12  2  0  0  0  0
 14 15  1  0  0  0  0
 15 16  2  0  0  0  0
 15  9  1  0  0  0  0
 18 11  1  0  0  0  0
 19 14  1  0  0  0  0
 20 27  1  0  0  0  0
 21 20  2  0  0  0  0
 21 22  1  0  0  0  0
 22 24  2  0  0  0  0
 23 22  1  0  0  0  0
 24 26  1  0  0  0  0
 24 25  1  0  0  0  0
 27 26  2  0  0  0  0
 28 29  1  0  0  0  0
 29 30  2  0  0  0  0
 29 20  1  0  0  0  0
 31 29  2  0  0  0  0
M  END
>  <minimizedAffinity>
-5.37526274

$$$$

 OpenBabel03272500033D

 31 33  0  0  0  0  0  0  0  0999 V2000
   39.3210   26.4430   34.7710 C   0  0  0  0  0  0  0  0  0  0  0  0
   38.9120   25.0960   34.6500 C   0  0  0  0  0  0  0  0  0  0  0  0
   37.9200   24.8170   33.7150 C   0  0  0  0  0  0  0  0  0  0  0  0
   37.4060   25.8400   32.9800 N   0  0  0  0  0  0  0  0  0  0  0  0
   37.8090   27.1100   33.1120 C   0  0  0  0  0  0  0  0  0  0  0  0
   38.7660   27.4090   34.0070 N   0  0  0  0  0  0  0  0  0  0  0  0
   40.0940   26.7540   35.4800 H   0  0  0  0  0  0  0  0  0  0  0  0
   37.6000   23.7830   33.6160 H   0  0  0  0  0  0  0  0  0  0  0  0
   39.5330   24.1290   35.4790 N   0  0  0  0  0  0  0  0  0  0  0  0
   40.7640   23.6560   35.2010 C   0  0  0  0  0  0  0  0  0  0  0  0
   41.3530   22.7040   36.0350 C   0  0  0  0  0  0  0  0  0  0  0  0
   40.5630   22.3380   37.1040 C   0  0  0  0  0  0  0  0  0  0  0  0
   41.0830   21.4670   37.8800 O   0  0  0  0  0  0  0  0  0  0  0  0
   39.3410   22.7890   37.4030 N   0  0  0  0  0  0  0  0  0  0  0  0
   38.8300   23.7110   36.5540 C   0  0  0  0  0  0  0  0  0  0  0  0
   37.6810   24.1520   36.8130 O   0  0  0  0  0  0  0  0  0  0  0  0
   41.3250   23.9950   34.3390 H   0  0  0  0  0  0  0  0  0  0  0  0
   42.3320   22.2820   35.8760 H   0  0  0  0  0  0  0  0  0  0  0  0
   38.8480   22.4330   38.2410 H   0  0  0  0  0  0  0  0  0  0  0  0
   36.2120   28.9790   32.7380 C   0  0  0  0  0  0  0  0  0  0  0  0
   37.1850   28.1240   32.2700 C   0  0  0  0  0  0  0  0  0  0  0  0
   37.5960   28.2180   30.9560 C   0  0  0  0  0  0  0  0  0  0  0  0
   38.3660   27.5560   30.5490 H   0  0  0  0  0  0  0  0  0  0  0  0
   37.0900   29.1300   30.0500 C   0  0  0  0  0  0  0  0  0  0  0  0
   37.3960   29.2170   29.0320 H   0  0  0  0  0  0  0  0  0  0  0  0
   36.1160   29.9930   30.5020 C   0  0  0  0  0  3  0  0  0  0  0  0
   35.7080   29.8990   31.8110 C   0  0  0  0  0  3  0  0  0  0  0  0
   35.8200   27.6350   34.9040 H   0  0  0  0  0  0  0  0  0  0  0  0
   35.6740   28.8880   34.3800 S   0  0  0  0  0  0  0  0  0  0  0  0
   36.3450   29.9010   35.2700 O   0  0  0  0  0  0  0  0  0  0  0  0
   34.2020   29.2760   34.3760 O   0  0  0  0  0  0  0  0  0  0  0  0
  1  7  1  0  0  0  0
  2  1  1  0  0  0  0
  2  9  1  0  0  0  0
  3  2  2  0  0  0  0
  4  5  2  0  0  0  0
  4  3  1  0  0  0  0
  5  6  1  0  0  0  0
  6  1  2  0  0  0  0
  8  3  1  0  0  0  0
  9 15  1  0  0  0  0
 10  9  1  0  0  0  0
 10 11  2  0  0  0  0
 11 12  1  0  0  0  0
 12 14  1  0  0  0  0
 12 13  2  0  0  0  0
 14 19  1  0  0  0  0
 15 16  2  0  0  0  0
 15 14  1  0  0  0  0
 17 10  1  0  0  0  0
 18 11  1  0  0  0  0
 20 29  1  0  0  0  0
 21 20  1  0  0  0  0
 21  5  1  0  0  0  0
 22 21  2  0  0  0  0
 23 22  1  0  0  0  0
 24 26  2  0  0  0  0
 24 22  1  0  0  0  0
 25 24  1  0  0  0  0
 26 27  1  0  0  0  0
 27 20  2  0  0  0  0
 29 28  1  0  0  0  0
 29 30  2  0  0  0  0
 31 29  2  0  0  0  0
M  END
>  <minimizedAffinity>
-5.2639761

$$$$

 OpenBabel03272500033D

 31 33  0  0  0  0  0  0  0  0999 V2000
   37.1150   24.9200   32.5570 C   0  0  0  0  0  0  0  0  0  0  0  0
   36.2310   24.2350   31.6920 C   0  0  0  0  0  0  0  0  0  0  0  0
   35.3340   25.0080   30.9610 C   0  0  0  0  0  0  0  0  0  0  0  0
   35.3560   26.3600   31.1160 N   0  0  0  0  0  0  0  0  0  0  0  0
   36.2030   26.9880   31.9410 C   0  0  0  0  0  0  0  0  0  0  0  0
   37.0800   26.2660   32.6600 N   0  0  0  0  0  0  0  0  0  0  0  0
   37.8520   24.3940   33.1690 H   0  0  0  0  0  0  0  0  0  0  0  0
   34.6520   24.4890   30.2930 H   0  0  0  0  0  0  0  0  0  0  0  0
   36.3170   22.8230   31.6270 N   0  0  0  0  0  0  0  0  0  0  0  0
   35.4180   22.0380   32.2540 C   0  0  0  0  0  0  0  0  0  0  0  0
   35.5240   20.6490   32.1740 C   0  0  0  0  0  0  0  0  0  0  0  0
   36.5950   20.2160   31.4210 C   0  0  0  0  0  0  0  0  0  0  0  0
   36.7110   18.9480   31.3350 O   0  0  0  0  0  0  0  0  0  0  0  0
   37.5010   20.9700   30.7900 N   0  0  0  0  0  0  0  0  0  0  0  0
   37.3380   22.3090   30.9090 C   0  0  0  0  0  0  0  0  0  0  0  0
   38.1770   23.0400   30.3230 O   0  0  0  0  0  0  0  0  0  0  0  0
   34.5990   22.4540   32.8290 H   0  0  0  0  0  0  0  0  0  0  0  0
   34.8430   19.9600   32.6480 H   0  0  0  0  0  0  0  0  0  0  0  0
   38.2640   20.5220   30.2520 H   0  0  0  0  0  0  0  0  0  0  0  0
   36.6660   29.2660   31.0590 C   0  0  0  0  0  0  0  0  0  0  0  0
   36.1350   28.4420   32.0260 C   0  0  0  0  0  0  0  0  0  0  0  0
   35.5110   28.9980   33.1230 C   0  0  0  0  0  0  0  0  0  0  0  0
   35.0760   28.3760   33.9110 H   0  0  0  0  0  0  0  0  0  0  0  0
   35.3750   30.3580   33.3300 C   0  0  0  0  0  0  0  0  0  0  0  0
   34.8960   30.8040   34.1720 H   0  0  0  0  0  0  0  0  0  0  0  0
   35.9020   31.1970   32.3730 C   0  0  0  0  0  3  0  0  0  0  0  0
   36.5240   30.6400   31.2800 C   0  0  0  0  0  3  0  0  0  0  0  0
   36.8870   27.4280   29.2630 H   0  0  0  0  0  0  0  0  0  0  0  0
   37.4560   28.6010   29.6710 S   0  0  0  0  0  0  0  0  0  0  0  0
   37.5240   29.5690   28.5190 O   0  0  0  0  0  0  0  0  0  0  0  0
   38.9050   28.3580   30.0710 O   0  0  0  0  0  0  0  0  0  0  0  0
  1  6  1  0  0  0  0
  1  7  1  0  0  0  0
  2  1  2  0  0  0  0
  3  4  2  0  0  0  0
  3  2  1  0  0  0  0
  4  5  1  0  0  0  0
  5 21  1  0  0  0  0
  5  6  2  0  0  0  0
  8  3  1  0  0  0  0
  9  2  1  0  0  0  0
  9 10  1  0  0  0  0
 10 17  1  0  0  0  0
 11 10  2  0  0  0  0
 11 18  1  0  0  0  0
 12 11  1  0  0  0  0
 13 12  2  0  0  0  0
 14 15  1  0  0  0  0
 14 12  1  0  0  0  0
 15  9  1  0  0  0  0
 16 15  2  0  0  0  0
 19 14  1  0  0  0  0
 20 27  2  0  0  0  0
 20 21  1  0  0  0  0
 21 22  2  0  0  0  0
 22 24  1  0  0  0  0
 22 23  1  0  0  0  0
 24 25  1  0  0  0  0
 26 24  2  0  0  0  0
 27 26  1  0  0  0  0
 28 29  1  0  0  0  0
 29 31  2  0  0  0  0
 29 20  1  0  0  0  0
 30 29  2  0  0  0  0
M  END
>  <minimizedAffinity>
-5.19365597

$$$$

 OpenBabel03272500033D

 31 33  0  0  0  0  0  0  0  0999 V2000
   36.5530   28.1760   34.5660 C   0  0  0  0  0  0  0  0  0  0  0  0
   35.9130   29.3070   34.0110 C   0  0  0  0  0  0  0  0  0  0  0  0
   35.9910   29.4660   32.6310 C   0  0  0  0  0  0  0  0  0  0  0  0
   36.6680   28.5390   31.9020 N   0  0  0  0  0  0  0  0  0  0  0  0
   37.2680   27.4740   32.4490 C   0  0  0  0  0  0  0  0  0  0  0  0
   37.2090   27.2950   33.7800 N   0  0  0  0  0  0  0  0  0  0  0  0
   36.5440   27.9720   35.6400 H   0  0  0  0  0  0  0  0  0  0  0  0
   35.5010   30.3340   32.1970 H   0  0  0  0  0  0  0  0  0  0  0  0
   35.2410   30.1950   34.8880 N   0  0  0  0  0  0  0  0  0  0  0  0
   35.9200   31.0860   35.6370 C   0  0  0  0  0  0  0  0  0  0  0  0
   35.2350   31.9490   36.4920 C   0  0  0  0  0  0  0  0  0  0  0  0
   33.8660   31.7820   36.4700 C   0  0  0  0  0  0  0  0  0  0  0  0
   33.2180   32.5620   37.2450 O   0  0  0  0  0  0  0  0  0  0  0  0
   33.1670   30.9080   35.7390 N   0  0  0  0  0  0  0  0  0  0  0  0
   33.8950   30.1020   34.9310 C   0  0  0  0  0  0  0  0  0  0  0  0
   33.2600   29.2710   34.2320 O   0  0  0  0  0  0  0  0  0  0  0  0
   37.0010   31.1580   35.5990 H   0  0  0  0  0  0  0  0  0  0  0  0
   35.7100   32.6860   37.1200 H   0  0  0  0  0  0  0  0  0  0  0  0
   32.1340   30.8800   35.8120 H   0  0  0  0  0  0  0  0  0  0  0  0
   37.3820   25.3920   31.0940 C   0  0  0  0  0  0  0  0  0  0  0  0
   37.9660   26.5450   31.5670 C   0  0  0  0  0  0  0  0  0  0  0  0
   39.2620   26.8490   31.2030 C   0  0  0  0  0  0  0  0  0  0  0  0
   39.7590   27.7560   31.5580 H   0  0  0  0  0  0  0  0  0  0  0  0
   40.0380   26.0600   30.3760 C   0  0  0  0  0  0  0  0  0  0  0  0
   41.0400   26.2790   30.0850 H   0  0  0  0  0  0  0  0  0  0  0  0
   39.4690   24.9010   29.8950 C   0  0  0  0  0  3  0  0  0  0  0  0
   38.1780   24.6000   30.2580 C   0  0  0  0  0  3  0  0  0  0  0  0
   35.3950   25.5210   32.7340 H   0  0  0  0  0  0  0  0  0  0  0  0
   35.7590   24.9810   31.5330 S   0  0  0  0  0  0  0  0  0  0  0  0
   34.7570   25.3570   30.4730 O   0  0  0  0  0  0  0  0  0  0  0  0
   35.7030   23.4620   31.6130 O   0  0  0  0  0  0  0  0  0  0  0  0
  1  7  1  0  0  0  0
  2  1  1  0  0  0  0
  2  9  1  0  0  0  0
  3  2  2  0  0  0  0
  4  5  2  0  0  0  0
  4  3  1  0  0  0  0
  5  6  1  0  0  0  0
  6  1  2  0  0  0  0
  8  3  1  0  0  0  0
  9 15  1  0  0  0  0
  9 10  1  0  0  0  0
 10 11  2  0  0  0  0
 11 18  1  0  0  0  0
 12 11  1  0  0  0  0
 12 13  2  0  0  0  0
 14 19  1  0  0  0  0
 14 12  1  0  0  0  0
 15 14  1  0  0  0  0
 16 15  2  0  0  0  0
 17 10  1  0  0  0  0
 20 29  1  0  0  0  0
 20 21  1  0  0  0  0
 21  5  1  0  0  0  0
 22 23  1  0  0  0  0
 22 21  2  0  0  0  0
 24 22  1  0  0  0  0
 25 24  1  0  0  0  0
 26 27  1  0  0  0  0
 26 24  2  0  0  0  0
 27 20  2  0  0  0  0
 29 31  2  0  0  0  0
 29 28  1  0  0  0  0
 30 29  2  0  0  0  0
M  END
>  <minimizedAffinity>
-5.1763196

$$$$
