REMARK  Name = 
REMARK  4 active torsions:
REMARK  status: ('A' for Active; 'I' for Inactive)
REMARK    1  A    between atoms: C_3  and  N_7
REMARK    2  A    between atoms: C_9  and  C_28
REMARK    3  A    between atoms: N_12  and  C_15
REMARK    4  A    between atoms: S_24  and  C_27
REMARK                            x       y       z     vdW  Elec       q    Type
REMARK                         _______ _______ _______ _____ _____    ______ ____
ROOT
ATOM      1  N   UNL     1      37.446  31.135  47.051  0.00  0.00    +0.000 N 
ATOM      2  C   UNL     1      36.806  30.800  45.898  0.00  0.00    +0.000 A 
ATOM      3  C   UNL     1      37.234  31.261  44.661  0.00  0.00    +0.000 A 
ATOM      4  C   UNL     1      38.366  32.097  44.640  0.00  0.00    +0.000 A 
ATOM      5  O   UNL     1      38.783  32.534  43.544  0.00  0.00    +0.000 OA
ATOM      6  N   UNL     1      39.001  32.427  45.799  0.00  0.00    +0.000 N 
ATOM      7  C   UNL     1      38.496  31.922  46.931  0.00  0.00    +0.000 A 
ATOM      8  O   UNL     1      39.104  32.249  47.971  0.00  0.00    +0.000 OA
ATOM      9  H   UNL     1      35.935  30.152  45.955  0.00  0.00    +0.000 HD
ENDROOT
BRANCH   1  12
ATOM     10  C   UNL     1      37.404  29.935  50.566  0.00  0.00    +0.000 A 
ATOM     11  C   UNL     1      37.866  30.398  49.324  0.00  0.00    +0.000 A 
ATOM     12  C   UNL     1      37.003  30.666  48.292  0.00  0.00    +0.000 A 
ATOM     13  N   UNL     1      35.670  30.464  48.516  0.00  0.00    +0.000 NA
ATOM     14  C   UNL     1      35.197  30.014  49.715  0.00  0.00    +0.000 A 
ATOM     15  N   UNL     1      36.075  29.754  50.730  0.00  0.00    +0.000 NA
ATOM     16  H   UNL     1      38.021  29.709  51.408  0.00  0.00    +0.000 HD
ATOM     17  H   UNL     1      38.937  30.485  49.331  0.00  0.00    +0.000 HD
ATOM     18  H   UNL     1      34.123  29.868  49.846  0.00  0.00    +0.000 HD
ENDBRANCH   1  12
BRANCH   3  20
ATOM     19  C   UNL     1      36.360  29.624  42.932  0.00  0.00    +0.000 A 
ATOM     20  C   UNL     1      36.544  30.900  43.427  0.00  0.00    +0.000 A 
ATOM     21  C   UNL     1      36.038  31.986  42.709  0.00  0.00    +0.000 A 
ATOM     22  H   UNL     1      36.123  33.023  43.000  0.00  0.00    +0.000 HD
ATOM     23  C   UNL     1      35.365  31.797  41.527  0.00  0.00    +0.000 A 
ATOM     24  H   UNL     1      34.953  32.608  40.934  0.00  0.00    +0.000 HD
ATOM     25  C   UNL     1      35.177  30.522  41.027  0.00  0.00    +0.000 A 
ATOM     26  C   UNL     1      35.678  29.442  41.736  0.00  0.00    +0.000 A 
BRANCH  19  28
ATOM     27  H   UNL     1      36.742  27.104  43.273  0.00  0.00    +0.000 HD
ATOM     28  S   UNL     1      37.018  28.322  43.880  0.00  0.00    +0.000 S 
ATOM     29  O   UNL     1      38.503  28.449  43.930  0.00  0.00    +0.000 OA
ATOM     30  O   UNL     1      36.421  28.250  45.252  0.00  0.00    +0.000 OA
ENDBRANCH  19  28
ENDBRANCH   3  20
BRANCH   6  31
ATOM     31  C   UNL     1      40.170  33.286  45.780  0.00  0.00    +0.000 C 
ATOM     32  F   UNL     1      40.042  34.221  44.805  0.00  0.00    +0.000 F 
ATOM     33  F   UNL     1      41.340  32.595  45.502  0.00  0.00    +0.000 F 
ATOM     34  F   UNL     1      40.275  33.936  47.003  0.00  0.00    +0.000 F 
ENDBRANCH   6  31
TORSDOF 4
