
 OpenBabel03272510123D

 38 41  0  0  0  0  0  0  0  0999 V2000
   34.5960   28.0220   49.4160 O   0  0  0  0  0  0  0  0  0  0  0  0
   31.4000   26.3880   47.2040 C   0  0  0  0  0  0  0  0  0  0  0  0
   31.1870   27.3130   48.1730 C   0  0  0  0  0  0  0  0  0  0  0  0
   32.1780   27.8920   48.9360 C   0  0  0  0  0  0  0  0  0  0  0  0
   33.4820   27.5380   48.7360 C   0  0  0  0  0  0  0  0  0  0  0  0
   33.7120   26.5810   47.7360 C   0  0  0  0  0  0  0  0  0  0  0  0
   32.7100   26.0430   47.0150 N   0  0  0  0  0  0  0  0  0  0  0  0
   30.1830   27.6480   48.3950 H   0  0  0  0  0  0  0  0  0  0  0  0
   31.9970   28.6250   49.7020 H   0  0  0  0  0  0  0  0  0  0  0  0
   34.7000   26.2210   47.4840 H   0  0  0  0  0  0  0  0  0  0  0  0
   29.1870   26.4290   46.0520 C   0  0  0  0  0  0  0  0  0  0  0  0
   30.3780   25.7810   46.4110 C   0  0  0  0  0  0  0  0  0  0  0  0
   30.5210   24.4980   45.9560 C   0  0  0  0  0  0  0  0  0  0  0  0
   29.5330   23.9170   45.1970 N   0  0  0  0  0  0  0  0  0  0  0  0
   28.4040   24.6050   44.8890 C   0  0  0  0  0  0  0  0  0  0  0  0
   28.2180   25.8580   45.3080 N   0  0  0  0  0  0  0  0  0  0  0  0
   29.0200   27.4460   46.3840 H   0  0  0  0  0  0  0  0  0  0  0  0
   31.4340   23.9610   46.2140 H   0  0  0  0  0  0  0  0  0  0  0  0
   27.7750   23.9590   44.2910 H   0  0  0  0  0  0  0  0  0  0  0  0
   35.3170   29.1190   48.9490 C   0  0  0  0  0  0  0  0  0  0  0  0
   34.9480   30.3150   49.5660 C   0  0  0  0  0  0  0  0  0  0  0  0
   35.7380   31.3160   49.0110 C   0  0  0  0  0  0  0  0  0  0  0  0
   36.5390   30.7160   48.1020 N   0  0  0  0  0  0  0  0  0  0  0  0
   36.2860   29.4330   48.0740 N   0  0  0  0  0  0  0  0  0  0  0  0
   34.2430   30.6450   50.3220 H   0  0  0  0  0  0  0  0  0  0  0  0
   35.7930   32.3820   49.1860 H   0  0  0  0  0  0  0  0  0  0  0  0
   38.4390   32.2580   47.7990 C   0  0  0  0  0  0  0  0  0  0  0  0
   37.5200   31.3400   47.2820 C   0  0  0  0  0  0  0  0  0  0  0  0
   37.5280   31.0020   45.9440 C   0  0  0  0  0  0  0  0  0  0  0  0
   36.8220   30.2940   45.5390 H   0  0  0  0  0  0  0  0  0  0  0  0
   38.4660   31.5790   45.0890 C   0  0  0  0  0  0  0  0  0  0  0  0
   38.5300   31.3600   44.0290 H   0  0  0  0  0  0  0  0  0  0  0  0
   39.3670   32.4840   45.6100 C   0  0  0  0  0  3  0  0  0  0  0  0
   39.3740   32.8320   46.9360 C   0  0  0  0  0  3  0  0  0  0  0  0
   37.0730   32.8860   49.9160 H   0  0  0  0  0  0  0  0  0  0  0  0
   38.3700   32.6410   49.5070 S   0  0  0  0  0  0  0  0  0  0  0  0
   39.2780   33.7990   49.8510 O   0  0  0  0  0  0  0  0  0  0  0  0
   38.8300   31.4270   50.2700 O   0  0  0  0  0  0  0  0  0  0  0  0
  2  3  1  0  0  0  0
  3  8  1  0  0  0  0
  3  4  2  0  0  0  0
  4  9  1  0  0  0  0
  5  4  1  0  0  0  0
  5  1  1  0  0  0  0
  6  5  2  0  0  0  0
  7  2  2  0  0  0  0
  7  6  1  0  0  0  0
 10  6  1  0  0  0  0
 11 17  1  0  0  0  0
 11 12  1  0  0  0  0
 12  2  1  0  0  0  0
 13 18  1  0  0  0  0
 13 12  2  0  0  0  0
 14 13  1  0  0  0  0
 15 14  2  0  0  0  0
 15 16  1  0  0  0  0
 16 11  2  0  0  0  0
 19 15  1  0  0  0  0
 20  1  1  0  0  0  0
 20 21  1  0  0  0  0
 21 25  1  0  0  0  0
 22 26  1  0  0  0  0
 22 21  2  0  0  0  0
 23 22  1  0  0  0  0
 24 23  1  0  0  0  0
 24 20  2  0  0  0  0
 27 36  1  0  0  0  0
 28 27  1  0  0  0  0
 28 23  1  0  0  0  0
 29 28  2  0  0  0  0
 30 29  1  0  0  0  0
 31 33  2  0  0  0  0
 31 29  1  0  0  0  0
 32 31  1  0  0  0  0
 33 34  1  0  0  0  0
 34 27  2  0  0  0  0
 36 37  2  0  0  0  0
 36 35  1  0  0  0  0
 36 38  2  0  0  0  0
M  END
>  <minimizedAffinity>
-5.3658061

>  <minimizedRMSD>
3.71564102

$$$$
