
 OpenBabel03272509573D

 49 52  0  0  0  0  0  0  0  0999 V2000
   33.6170   27.4210   47.8220 C   0  0  0  0  0  0  0  0  0  0  0  0
   33.7470   26.5260   48.4460 H   0  0  0  0  0  0  0  0  0  0  0  0
   33.9240   27.1170   46.7950 H   0  0  0  0  0  0  0  0  0  0  0  0
   32.1800   27.8310   47.7950 C   0  0  0  0  0  0  0  0  0  0  0  0
   31.3880   27.4340   48.8550 C   0  0  0  0  0  0  0  0  0  0  0  0
   30.0600   27.7680   48.9060 C   0  0  0  0  0  0  0  0  0  0  0  0
   29.5230   28.4800   47.9280 N   0  0  0  0  0  0  0  0  0  0  0  0
   30.3060   28.8730   46.8790 C   0  0  0  0  0  0  0  0  0  0  0  0
   31.6050   28.5500   46.8240 N   0  0  0  0  0  0  0  0  0  0  0  0
   31.8080   26.8580   49.6530 H   0  0  0  0  0  0  0  0  0  0  0  0
   29.4200   27.4620   49.7360 H   0  0  0  0  0  0  0  0  0  0  0  0
   29.6660   29.6750   45.8070 C   0  0  0  0  0  0  0  0  0  0  0  0
   29.4370   30.6830   46.2640 H   0  0  0  0  0  0  0  0  0  0  0  0
   30.4420   29.9300   45.0320 H   0  0  0  0  0  0  0  0  0  0  0  0
   27.2400   29.7360   45.1420 C   0  0  0  0  0  0  0  0  0  0  0  0
   28.4450   29.0810   45.2450 C   0  0  0  0  0  0  0  0  0  0  0  0
   28.5120   27.7620   44.7800 C   0  0  0  0  0  0  0  0  0  0  0  0
   29.4510   27.2340   44.8540 H   0  0  0  0  0  0  0  0  0  0  0  0
   27.4370   27.0940   44.2280 C   0  0  0  0  0  0  0  0  0  0  0  0
   27.5470   26.0660   43.8820 H   0  0  0  0  0  0  0  0  0  0  0  0
   26.2240   27.7350   44.1170 C   0  0  0  0  0  0  0  0  0  0  0  0
   26.1650   29.0370   44.5790 C   0  0  0  0  0  0  0  0  0  0  0  0
   28.2330   32.0940   45.5550 H   0  0  0  0  0  0  0  0  0  0  0  0
   27.0630   31.3690   45.6950 S   0  0  0  0  0  0  0  0  0  0  0  0
   26.4410   31.5050   47.0350 O   0  0  0  0  0  0  0  0  0  0  0  0
   26.0950   32.0450   44.7250 O   0  0  0  0  0  0  0  0  0  0  0  0
   34.5240   28.5530   48.2400 C   0  0  0  0  0  0  0  0  0  0  0  0
   35.3370   28.7360   47.5360 H   0  0  0  0  0  0  0  0  0  0  0  0
   33.9150   29.4810   48.3050 H   0  0  0  0  0  0  0  0  0  0  0  0
   35.0250   28.3390   49.5530 O   0  0  0  0  0  0  0  0  0  0  0  0
   37.3700   30.1940   51.5710 C   0  0  0  0  0  0  0  0  0  0  0  0
   38.0810   30.8810   50.5630 C   0  0  0  0  0  0  0  0  0  0  0  0
   37.7020   30.6580   49.2460 C   0  0  0  0  0  0  0  0  0  0  0  0
   36.6650   29.7840   49.0450 N   0  0  0  0  0  0  0  0  0  0  0  0
   36.0070   29.1450   50.0160 C   0  0  0  0  0  0  0  0  0  0  0  0
   36.3730   29.3610   51.2870 N   0  0  0  0  0  0  0  0  0  0  0  0
   37.6820   30.3840   52.5890 H   0  0  0  0  0  0  0  0  0  0  0  0
   38.8970   31.5690   50.7370 H   0  0  0  0  0  0  0  0  0  0  0  0
   38.9640   33.2630   49.0410 F   0  0  0  0  0  0  0  0  0  0  0  0
   38.9040   32.4790   47.9710 C   0  0  0  0  0  0  0  0  0  0  0  0
   38.3150   31.2740   48.0870 C   0  0  0  0  0  0  0  0  0  0  0  0
   38.3040   30.5240   46.9020 C   0  0  0  0  0  0  0  0  0  0  0  0
   38.8530   30.9950   45.7340 C   0  0  0  0  0  0  0  0  0  0  0  0
   39.4420   32.2260   45.6580 C   0  0  0  0  0  0  0  0  0  0  0  0
   39.4510   32.9480   46.8040 C   0  0  0  0  0  0  0  0  0  0  0  0
   37.8480   29.5300   46.8920 H   0  0  0  0  0  0  0  0  0  0  0  0
   38.8060   30.3550   44.8510 H   0  0  0  0  0  0  0  0  0  0  0  0
   39.8570   32.5430   44.7140 H   0  0  0  0  0  0  0  0  0  0  0  0
   39.9190   33.9460   46.7800 H   0  0  0  0  0  0  0  0  0  0  0  0
  1 27  1  0  0  0  0
  1  2  1  0  0  0  0
  3  1  1  0  0  0  0
  4  1  1  0  0  0  0
  4  5  1  0  0  0  0
  5  6  2  0  0  0  0
  5 10  1  0  0  0  0
  6 11  1  0  0  0  0
  7  6  1  0  0  0  0
  8  7  2  0  0  0  0
  9  8  1  0  0  0  0
  9  4  2  0  0  0  0
 12 13  1  0  0  0  0
 12  8  1  0  0  0  0
 14 12  1  0  0  0  0
 15 16  1  0  0  0  0
 15 24  1  0  0  0  0
 16 12  1  0  0  0  0
 17 18  1  0  0  0  0
 17 16  2  0  0  0  0
 19 17  1  0  0  0  0
 20 19  1  0  0  0  0
 21 19  2  0  0  0  0
 21 22  1  0  0  0  0
 22 15  2  0  0  0  0
 23 24  1  0  0  0  0
 24 25  2  0  0  0  0
 26 24  2  0  0  0  0
 27 29  1  0  0  0  0
 27 30  1  0  0  0  0
 28 27  1  0  0  0  0
 30 35  1  0  0  0  0
 31 37  1  0  0  0  0
 32 38  1  0  0  0  0
 32 31  2  0  0  0  0
 33 32  1  0  0  0  0
 34 33  2  0  0  0  0
 34 35  1  0  0  0  0
 35 36  2  0  0  0  0
 36 31  1  0  0  0  0
 40 41  1  0  0  0  0
 40 39  1  0  0  0  0
 41 33  1  0  0  0  0
 42 41  2  0  0  0  0
 43 42  1  0  0  0  0
 44 43  2  0  0  0  0
 44 45  1  0  0  0  0
 45 40  2  0  0  0  0
 46 42  1  0  0  0  0
 47 43  1  0  0  0  0
 48 44  1  0  0  0  0
 49 45  1  0  0  0  0
M  END
>  <minimizedAffinity>
-6.92849112

>  <minimizedRMSD>
0.803934157

$$$$
