
 OpenBabel03272507593D

 35 37  0  0  0  0  0  0  0  0999 V2000
   39.6850   24.7960   34.8540 C   0  0  0  0  0  0  0  0  0  0  0  0
   40.5060   25.9080   34.8040 C   0  0  0  0  0  0  0  0  0  0  0  0
   40.2070   26.9400   33.9290 C   0  0  0  0  0  0  0  0  0  0  0  0
   39.0870   26.8420   33.1140 C   0  0  0  0  0  0  0  0  0  0  0  0
   38.2870   25.7270   33.1820 C   0  0  0  0  0  0  0  0  0  0  0  0
   38.6270   24.7680   34.0430 N   0  0  0  0  0  0  0  0  0  0  0  0
   41.4030   26.0820   35.4020 H   0  0  0  0  0  0  0  0  0  0  0  0
   40.8350   27.8360   33.8630 H   0  0  0  0  0  0  0  0  0  0  0  0
   38.8960   27.6540   32.4590 H   0  0  0  0  0  0  0  0  0  0  0  0
   39.8890   22.6340   37.9140 C   0  0  0  0  0  0  0  0  0  0  0  0
   39.4160   23.6120   36.9910 C   0  0  0  0  0  0  0  0  0  0  0  0
   40.1380   23.8060   35.8190 C   0  0  0  0  0  0  0  0  0  0  0  0
   41.2590   23.0540   35.6110 N   0  0  0  0  0  0  0  0  0  0  0  0
   41.6700   22.1290   36.5260 C   0  0  0  0  0  0  0  0  0  0  0  0
   41.0010   21.9200   37.6570 N   0  0  0  0  0  0  0  0  0  0  0  0
   42.8500   21.4790   36.0860 N   0  0  0  0  0  0  0  0  0  0  0  0
   39.3320   22.4750   38.8320 H   0  0  0  0  0  0  0  0  0  0  0  0
   43.7620   21.5220   36.5620 H   0  0  0  0  0  0  0  0  0  0  0  0
   42.8210   20.9010   35.2120 H   0  0  0  0  0  0  0  0  0  0  0  0
   38.1790   24.3700   37.3310 C   0  0  0  0  0  0  0  0  0  0  0  0
   37.0900   23.8980   36.6290 F   0  0  0  0  0  0  0  0  0  0  0  0
   37.9300   24.1910   38.6750 F   0  0  0  0  0  0  0  0  0  0  0  0
   38.2810   25.7180   37.0970 F   0  0  0  0  0  0  0  0  0  0  0  0
   36.2950   26.6570   32.0730 C   0  0  0  0  0  0  0  0  0  0  0  0
   37.1010   25.5730   32.3500 C   0  0  0  0  0  0  0  0  0  0  0  0
   36.7390   24.3550   31.8110 C   0  0  0  0  0  0  0  0  0  0  0  0
   37.3080   23.4650   31.9750 H   0  0  0  0  0  0  0  0  0  0  0  0
   35.6290   24.1760   31.0220 C   0  0  0  0  0  0  0  0  0  0  0  0
   35.3430   23.2170   30.5980 H   0  0  0  0  0  0  0  0  0  0  0  0
   34.8090   25.2340   30.7320 C   0  0  0  0  0  3  0  0  0  0  0  0
   35.1670   26.4530   31.2680 C   0  0  0  0  0  3  0  0  0  0  0  0
   37.9670   28.4590   32.8520 H   0  0  0  0  0  0  0  0  0  0  0  0
   36.6230   28.2550   32.6840 S   0  0  0  0  0  0  0  0  0  0  0  0
   36.0290   28.3820   34.0790 O   0  0  0  0  0  0  0  0  0  0  0  0
   35.9800   29.3410   31.8660 O   0  0  0  0  0  0  0  0  0  0  0  0
  1 12  1  0  0  0  0
  2  1  1  0  0  0  0
  2  7  1  0  0  0  0
  3  2  2  0  0  0  0
  4  5  2  0  0  0  0
  4  3  1  0  0  0  0
  5  6  1  0  0  0  0
  6  1  2  0  0  0  0
  8  3  1  0  0  0  0
  9  4  1  0  0  0  0
 10 17  1  0  0  0  0
 11 20  1  0  0  0  0
 11 10  2  0  0  0  0
 12 11  1  0  0  0  0
 13 12  2  0  0  0  0
 13 14  1  0  0  0  0
 14 15  2  0  0  0  0
 15 10  1  0  0  0  0
 16 14  1  0  0  0  0
 16 18  1  0  0  0  0
 19 16  1  0  0  0  0
 20 22  1  0  0  0  0
 21 20  1  0  0  0  0
 23 20  1  0  0  0  0
 24 25  1  0  0  0  0
 24 33  1  0  0  0  0
 25  5  1  0  0  0  0
 26 27  1  0  0  0  0
 26 25  2  0  0  0  0
 28 26  1  0  0  0  0
 29 28  1  0  0  0  0
 30 28  2  0  0  0  0
 30 31  1  0  0  0  0
 31 24  2  0  0  0  0
 33 32  1  0  0  0  0
 33 34  2  0  0  0  0
 35 33  2  0  0  0  0
M  END
>  <minimizedAffinity>
-6.243402

$$$$

 OpenBabel03272507593D

 35 37  0  0  0  0  0  0  0  0999 V2000
   40.4510   26.1410   33.7860 C   0  0  0  0  0  0  0  0  0  0  0  0
   41.4860   27.0560   33.7230 C   0  0  0  0  0  0  0  0  0  0  0  0
   42.6870   26.7740   34.3560 C   0  0  0  0  0  0  0  0  0  0  0  0
   42.8320   25.5770   35.0450 C   0  0  0  0  0  0  0  0  0  0  0  0
   41.7900   24.6850   35.0930 C   0  0  0  0  0  0  0  0  0  0  0  0
   40.6600   25.0120   34.4660 N   0  0  0  0  0  0  0  0  0  0  0  0
   41.4740   28.0180   33.2070 H   0  0  0  0  0  0  0  0  0  0  0  0
   43.5290   27.4760   34.3260 H   0  0  0  0  0  0  0  0  0  0  0  0
   43.7680   25.4040   35.5140 H   0  0  0  0  0  0  0  0  0  0  0  0
   37.0490   27.5480   33.0630 C   0  0  0  0  0  0  0  0  0  0  0  0
   38.1980   27.1220   33.7910 C   0  0  0  0  0  0  0  0  0  0  0  0
   39.2630   26.5870   33.0760 C   0  0  0  0  0  0  0  0  0  0  0  0
   39.1560   26.4970   31.7170 N   0  0  0  0  0  0  0  0  0  0  0  0
   38.0350   26.9200   31.0660 C   0  0  0  0  0  0  0  0  0  0  0  0
   36.9980   27.4360   31.7220 N   0  0  0  0  0  0  0  0  0  0  0  0
   38.1630   26.7250   29.6680 N   0  0  0  0  0  0  0  0  0  0  0  0
   36.2120   27.9680   33.6120 H   0  0  0  0  0  0  0  0  0  0  0  0
   37.5710   26.1030   29.1000 H   0  0  0  0  0  0  0  0  0  0  0  0
   38.9100   27.2440   29.1450 H   0  0  0  0  0  0  0  0  0  0  0  0
   38.1940   27.2720   35.2730 C   0  0  0  0  0  0  0  0  0  0  0  0
   37.4800   28.3860   35.6650 F   0  0  0  0  0  0  0  0  0  0  0  0
   37.5810   26.1610   35.8110 F   0  0  0  0  0  0  0  0  0  0  0  0
   39.4500   27.3640   35.8180 F   0  0  0  0  0  0  0  0  0  0  0  0
   40.7960   22.8980   36.4640 C   0  0  0  0  0  0  0  0  0  0  0  0
   41.8880   23.4160   35.8020 C   0  0  0  0  0  0  0  0  0  0  0  0
   43.0610   22.6890   35.8410 C   0  0  0  0  0  0  0  0  0  0  0  0
   43.9550   23.0180   35.3550 H   0  0  0  0  0  0  0  0  0  0  0  0
   43.1870   21.4900   36.4990 C   0  0  0  0  0  0  0  0  0  0  0  0
   44.1100   20.9180   36.5300 H   0  0  0  0  0  0  0  0  0  0  0  0
   42.1180   20.9510   37.1650 C   0  0  0  0  0  3  0  0  0  0  0  0
   40.9450   21.6740   37.1290 C   0  0  0  0  0  3  0  0  0  0  0  0
   39.3700   25.0300   36.1910 H   0  0  0  0  0  0  0  0  0  0  0  0
   39.2500   23.7010   36.5040 S   0  0  0  0  0  0  0  0  0  0  0  0
   38.7200   23.6800   37.9310 O   0  0  0  0  0  0  0  0  0  0  0  0
   38.2060   23.0120   35.6710 O   0  0  0  0  0  0  0  0  0  0  0  0
  1  6  1  0  0  0  0
  2  1  2  0  0  0  0
  2  3  1  0  0  0  0
  3  4  2  0  0  0  0
  4  5  1  0  0  0  0
  4  9  1  0  0  0  0
  5 25  1  0  0  0  0
  6  5  2  0  0  0  0
  7  2  1  0  0  0  0
  8  3  1  0  0  0  0
 10 17  1  0  0  0  0
 10 11  1  0  0  0  0
 11 20  1  0  0  0  0
 12  1  1  0  0  0  0
 12 11  2  0  0  0  0
 13 12  1  0  0  0  0
 14 13  2  0  0  0  0
 14 15  1  0  0  0  0
 15 10  2  0  0  0  0
 16 14  1  0  0  0  0
 18 16  1  0  0  0  0
 19 16  1  0  0  0  0
 20 21  1  0  0  0  0
 20 22  1  0  0  0  0
 20 23  1  0  0  0  0
 24 33  1  0  0  0  0
 24 31  1  0  0  0  0
 25 26  1  0  0  0  0
 25 24  2  0  0  0  0
 26 28  2  0  0  0  0
 27 26  1  0  0  0  0
 28 29  1  0  0  0  0
 28 30  1  0  0  0  0
 31 30  2  0  0  0  0
 32 33  1  0  0  0  0
 33 34  2  0  0  0  0
 35 33  2  0  0  0  0
M  END
>  <minimizedAffinity>
-6.027493

$$$$

 OpenBabel03272507593D

 35 37  0  0  0  0  0  0  0  0999 V2000
   36.6450   27.5800   32.6390 C   0  0  0  0  0  0  0  0  0  0  0  0
   36.9840   28.1720   31.4360 C   0  0  0  0  0  0  0  0  0  0  0  0
   36.7070   29.5150   31.2330 C   0  0  0  0  0  0  0  0  0  0  0  0
   36.0920   30.2460   32.2410 C   0  0  0  0  0  0  0  0  0  0  0  0
   35.7650   29.6360   33.4270 C   0  0  0  0  0  0  0  0  0  0  0  0
   36.0560   28.3420   33.5630 N   0  0  0  0  0  0  0  0  0  0  0  0
   37.4700   27.6880   30.5870 H   0  0  0  0  0  0  0  0  0  0  0  0
   36.9620   30.0160   30.2920 H   0  0  0  0  0  0  0  0  0  0  0  0
   35.8980   31.2700   32.0420 H   0  0  0  0  0  0  0  0  0  0  0  0
   38.4280   24.3810   33.4530 C   0  0  0  0  0  0  0  0  0  0  0  0
   38.1100   25.7710   33.4250 C   0  0  0  0  0  0  0  0  0  0  0  0
   36.9990   26.1710   32.6920 C   0  0  0  0  0  0  0  0  0  0  0  0
   36.2710   25.2180   32.0390 N   0  0  0  0  0  0  0  0  0  0  0  0
   36.6160   23.8990   32.0980 C   0  0  0  0  0  0  0  0  0  0  0  0
   37.6740   23.4840   32.7910 N   0  0  0  0  0  0  0  0  0  0  0  0
   35.7110   23.1090   31.3450 N   0  0  0  0  0  0  0  0  0  0  0  0
   39.2940   24.0580   34.0230 H   0  0  0  0  0  0  0  0  0  0  0  0
   35.9610   22.5530   30.5160 H   0  0  0  0  0  0  0  0  0  0  0  0
   34.7040   23.0690   31.6340 H   0  0  0  0  0  0  0  0  0  0  0  0
   38.9830   26.7140   34.1790 C   0  0  0  0  0  0  0  0  0  0  0  0
   38.2730   27.3930   35.1470 F   0  0  0  0  0  0  0  0  0  0  0  0
   39.9620   25.9750   34.8070 F   0  0  0  0  0  0  0  0  0  0  0  0
   39.6030   27.6430   33.3810 F   0  0  0  0  0  0  0  0  0  0  0  0
   33.7480   30.3310   34.6550 C   0  0  0  0  0  0  0  0  0  0  0  0
   35.1190   30.3560   34.5160 C   0  0  0  0  0  0  0  0  0  0  0  0
   35.8410   31.0830   35.4420 C   0  0  0  0  0  0  0  0  0  0  0  0
   36.9070   31.1550   35.4070 H   0  0  0  0  0  0  0  0  0  0  0  0
   35.2630   31.7720   36.4800 C   0  0  0  0  0  0  0  0  0  0  0  0
   35.8310   32.3440   37.2080 H   0  0  0  0  0  0  0  0  0  0  0  0
   33.9030   31.7650   36.6430 C   0  0  0  0  0  3  0  0  0  0  0  0
   33.1790   31.0400   35.7200 C   0  0  0  0  0  3  0  0  0  0  0  0
   33.3280   28.3450   33.0650 H   0  0  0  0  0  0  0  0  0  0  0  0
   32.7060   29.4580   33.5650 S   0  0  0  0  0  0  0  0  0  0  0  0
   32.4250   30.3290   32.3490 O   0  0  0  0  0  0  0  0  0  0  0  0
   31.3630   29.1420   34.1600 O   0  0  0  0  0  0  0  0  0  0  0  0
  1 12  1  0  0  0  0
  1  6  1  0  0  0  0
  2  1  2  0  0  0  0
  3  2  1  0  0  0  0
  3  4  2  0  0  0  0
  4  5  1  0  0  0  0
  5  6  2  0  0  0  0
  5 25  1  0  0  0  0
  7  2  1  0  0  0  0
  8  3  1  0  0  0  0
  9  4  1  0  0  0  0
 10 17  1  0  0  0  0
 11 10  1  0  0  0  0
 11 20  1  0  0  0  0
 12 11  2  0  0  0  0
 13 14  2  0  0  0  0
 13 12  1  0  0  0  0
 14 15  1  0  0  0  0
 15 10  2  0  0  0  0
 16 19  1  0  0  0  0
 16 14  1  0  0  0  0
 18 16  1  0  0  0  0
 20 22  1  0  0  0  0
 20 21  1  0  0  0  0
 23 20  1  0  0  0  0
 24 31  1  0  0  0  0
 25 24  2  0  0  0  0
 25 26  1  0  0  0  0
 26 28  2  0  0  0  0
 27 26  1  0  0  0  0
 28 30  1  0  0  0  0
 28 29  1  0  0  0  0
 31 30  2  0  0  0  0
 32 33  1  0  0  0  0
 33 35  2  0  0  0  0
 33 24  1  0  0  0  0
 34 33  2  0  0  0  0
M  END
>  <minimizedAffinity>
-6.01807833

$$$$

 OpenBabel03272507593D

 35 37  0  0  0  0  0  0  0  0999 V2000
   37.7400   22.5130   32.4350 C   0  0  0  0  0  0  0  0  0  0  0  0
   37.6760   23.7240   31.7710 C   0  0  0  0  0  0  0  0  0  0  0  0
   37.8780   24.9010   32.4730 C   0  0  0  0  0  0  0  0  0  0  0  0
   38.1420   24.8480   33.8350 C   0  0  0  0  0  0  0  0  0  0  0  0
   38.2000   23.6330   34.4730 C   0  0  0  0  0  0  0  0  0  0  0  0
   37.9970   22.5360   33.7450 N   0  0  0  0  0  0  0  0  0  0  0  0
   37.4790   23.8730   30.7070 H   0  0  0  0  0  0  0  0  0  0  0  0
   37.8350   25.8790   31.9780 H   0  0  0  0  0  0  0  0  0  0  0  0
   38.2890   25.7730   34.3330 H   0  0  0  0  0  0  0  0  0  0  0  0
   36.0670   19.6350   30.7050 C   0  0  0  0  0  0  0  0  0  0  0  0
   36.2650   20.7450   31.5770 C   0  0  0  0  0  0  0  0  0  0  0  0
   37.5020   21.3780   31.5590 C   0  0  0  0  0  0  0  0  0  0  0  0
   38.4630   20.9060   30.7100 N   0  0  0  0  0  0  0  0  0  0  0  0
   38.2240   19.8390   29.8940 C   0  0  0  0  0  0  0  0  0  0  0  0
   37.0510   19.2120   29.8880 N   0  0  0  0  0  0  0  0  0  0  0  0
   39.3670   19.5410   29.1100 N   0  0  0  0  0  0  0  0  0  0  0  0
   35.1040   19.1340   30.7120 H   0  0  0  0  0  0  0  0  0  0  0  0
   39.9040   18.6640   29.1560 H   0  0  0  0  0  0  0  0  0  0  0  0
   39.7150   20.2510   28.4210 H   0  0  0  0  0  0  0  0  0  0  0  0
   35.1380   21.1650   32.4570 C   0  0  0  0  0  0  0  0  0  0  0  0
   34.8230   22.4960   32.2720 F   0  0  0  0  0  0  0  0  0  0  0  0
   34.0340   20.4140   32.1190 F   0  0  0  0  0  0  0  0  0  0  0  0
   35.3860   20.9730   33.7930 F   0  0  0  0  0  0  0  0  0  0  0  0
   39.6490   22.9540   36.3450 C   0  0  0  0  0  0  0  0  0  0  0  0
   38.4730   23.5200   35.9000 C   0  0  0  0  0  0  0  0  0  0  0  0
   37.5800   23.9670   36.8530 C   0  0  0  0  0  0  0  0  0  0  0  0
   36.6460   24.4170   36.5950 H   0  0  0  0  0  0  0  0  0  0  0  0
   37.8070   23.8750   38.2050 C   0  0  0  0  0  0  0  0  0  0  0  0
   37.1040   24.2260   38.9550 H   0  0  0  0  0  0  0  0  0  0  0  0
   38.9660   23.3170   38.6750 C   0  0  0  0  0  3  0  0  0  0  0  0
   39.8610   22.8700   37.7260 C   0  0  0  0  0  3  0  0  0  0  0  0
   40.3190   21.5790   34.2680 H   0  0  0  0  0  0  0  0  0  0  0  0
   40.8700   22.3450   35.2610 S   0  0  0  0  0  0  0  0  0  0  0  0
   41.7810   21.3970   36.0270 O   0  0  0  0  0  0  0  0  0  0  0  0
   41.7660   23.4230   34.7180 O   0  0  0  0  0  0  0  0  0  0  0  0
  1  6  1  0  0  0  0
  2  1  2  0  0  0  0
  2  3  1  0  0  0  0
  3  4  2  0  0  0  0
  4  9  1  0  0  0  0
  4  5  1  0  0  0  0
  5 25  1  0  0  0  0
  6  5  2  0  0  0  0
  7  2  1  0  0  0  0
  8  3  1  0  0  0  0
 10 17  1  0  0  0  0
 10 11  1  0  0  0  0
 11 20  1  0  0  0  0
 12 11  2  0  0  0  0
 12  1  1  0  0  0  0
 13 12  1  0  0  0  0
 14 13  2  0  0  0  0
 15 14  1  0  0  0  0
 15 10  2  0  0  0  0
 16 18  1  0  0  0  0
 16 14  1  0  0  0  0
 19 16  1  0  0  0  0
 20 23  1  0  0  0  0
 21 20  1  0  0  0  0
 22 20  1  0  0  0  0
 24 31  1  0  0  0  0
 25 24  2  0  0  0  0
 25 26  1  0  0  0  0
 26 28  2  0  0  0  0
 27 26  1  0  0  0  0
 28 30  1  0  0  0  0
 28 29  1  0  0  0  0
 31 30  2  0  0  0  0
 32 33  1  0  0  0  0
 33 34  2  0  0  0  0
 33 24  1  0  0  0  0
 35 33  2  0  0  0  0
M  END
>  <minimizedAffinity>
-5.93895817

$$$$

 OpenBabel03272507593D

 35 37  0  0  0  0  0  0  0  0999 V2000
   35.2390   29.1640   33.5800 C   0  0  0  0  0  0  0  0  0  0  0  0
   35.3100   29.6870   32.3020 C   0  0  0  0  0  0  0  0  0  0  0  0
   36.3180   29.2690   31.4480 C   0  0  0  0  0  0  0  0  0  0  0  0
   37.2430   28.3320   31.8890 C   0  0  0  0  0  0  0  0  0  0  0  0
   37.1510   27.8280   33.1630 C   0  0  0  0  0  0  0  0  0  0  0  0
   36.1600   28.2680   33.9380 N   0  0  0  0  0  0  0  0  0  0  0  0
   34.6340   30.4220   31.8610 H   0  0  0  0  0  0  0  0  0  0  0  0
   36.4050   29.6630   30.4280 H   0  0  0  0  0  0  0  0  0  0  0  0
   37.9980   28.0410   31.2020 H   0  0  0  0  0  0  0  0  0  0  0  0
   33.2570   31.2140   36.0190 C   0  0  0  0  0  0  0  0  0  0  0  0
   34.3680   30.7060   35.2840 C   0  0  0  0  0  0  0  0  0  0  0  0
   34.1290   29.7070   34.3480 C   0  0  0  0  0  0  0  0  0  0  0  0
   32.8480   29.2630   34.1800 N   0  0  0  0  0  0  0  0  0  0  0  0
   31.8180   29.7820   34.9080 C   0  0  0  0  0  0  0  0  0  0  0  0
   32.0130   30.7390   35.8120 N   0  0  0  0  0  0  0  0  0  0  0  0
   30.5920   29.1650   34.5550 N   0  0  0  0  0  0  0  0  0  0  0  0
   33.4320   31.9950   36.7530 H   0  0  0  0  0  0  0  0  0  0  0  0
   30.0090   28.6020   35.1890 H   0  0  0  0  0  0  0  0  0  0  0  0
   30.2270   29.2750   33.5780 H   0  0  0  0  0  0  0  0  0  0  0  0
   35.7180   31.2720   35.5590 C   0  0  0  0  0  0  0  0  0  0  0  0
   36.1820   32.0100   34.4900 F   0  0  0  0  0  0  0  0  0  0  0  0
   35.6120   32.1140   36.6450 F   0  0  0  0  0  0  0  0  0  0  0  0
   36.6610   30.3200   35.8550 F   0  0  0  0  0  0  0  0  0  0  0  0
   38.0200   25.5270   33.2730 C   0  0  0  0  0  0  0  0  0  0  0  0
   38.0940   26.8430   33.6760 C   0  0  0  0  0  0  0  0  0  0  0  0
   39.0870   27.1790   34.5750 C   0  0  0  0  0  0  0  0  0  0  0  0
   39.2150   28.1760   34.9390 H   0  0  0  0  0  0  0  0  0  0  0  0
   39.9920   26.2760   35.0770 C   0  0  0  0  0  0  0  0  0  0  0  0
   40.7730   26.5410   35.7840 H   0  0  0  0  0  0  0  0  0  0  0  0
   39.9420   24.9620   34.6940 C   0  0  0  0  0  3  0  0  0  0  0  0
   38.9520   24.6210   33.7960 C   0  0  0  0  0  3  0  0  0  0  0  0
   35.6020   25.5320   32.3760 H   0  0  0  0  0  0  0  0  0  0  0  0
   36.8220   24.9530   32.1460 S   0  0  0  0  0  0  0  0  0  0  0  0
   36.5990   23.4650   32.3780 O   0  0  0  0  0  0  0  0  0  0  0  0
   37.2530   25.0830   30.7110 O   0  0  0  0  0  0  0  0  0  0  0  0
  1  6  1  0  0  0  0
  1 12  1  0  0  0  0
  2  1  2  0  0  0  0
  3  4  2  0  0  0  0
  3  2  1  0  0  0  0
  4  5  1  0  0  0  0
  5 25  1  0  0  0  0
  5  6  2  0  0  0  0
  7  2  1  0  0  0  0
  8  3  1  0  0  0  0
  9  4  1  0  0  0  0
 10 17  1  0  0  0  0
 11 20  1  0  0  0  0
 11 10  2  0  0  0  0
 12 11  1  0  0  0  0
 13 12  2  0  0  0  0
 13 14  1  0  0  0  0
 14 15  2  0  0  0  0
 15 10  1  0  0  0  0
 16 14  1  0  0  0  0
 16 18  1  0  0  0  0
 19 16  1  0  0  0  0
 20 23  1  0  0  0  0
 20 22  1  0  0  0  0
 21 20  1  0  0  0  0
 24 25  2  0  0  0  0
 24 31  1  0  0  0  0
 25 26  1  0  0  0  0
 26 27  1  0  0  0  0
 26 28  2  0  0  0  0
 28 29  1  0  0  0  0
 30 28  1  0  0  0  0
 31 30  2  0  0  0  0
 33 32  1  0  0  0  0
 33 34  2  0  0  0  0
 33 24  1  0  0  0  0
 35 33  2  0  0  0  0
M  END
>  <minimizedAffinity>
-5.90708542

$$$$

 OpenBabel03272507593D

 35 37  0  0  0  0  0  0  0  0999 V2000
   36.8600   26.6990   31.9170 C   0  0  0  0  0  0  0  0  0  0  0  0
   37.9020   26.8980   31.0300 C   0  0  0  0  0  0  0  0  0  0  0  0
   38.5460   25.8040   30.4750 C   0  0  0  0  0  0  0  0  0  0  0  0
   38.1370   24.5230   30.8190 C   0  0  0  0  0  0  0  0  0  0  0  0
   37.1000   24.3500   31.7030 C   0  0  0  0  0  0  0  0  0  0  0  0
   36.5200   25.4400   32.2030 N   0  0  0  0  0  0  0  0  0  0  0  0
   38.2950   27.8600   30.6940 H   0  0  0  0  0  0  0  0  0  0  0  0
   39.3760   25.9260   29.7680 H   0  0  0  0  0  0  0  0  0  0  0  0
   38.6590   23.7150   30.3710 H   0  0  0  0  0  0  0  0  0  0  0  0
   35.9400   29.5470   34.1800 C   0  0  0  0  0  0  0  0  0  0  0  0
   36.5100   28.3190   33.7310 C   0  0  0  0  0  0  0  0  0  0  0  0
   36.2950   27.9440   32.4100 C   0  0  0  0  0  0  0  0  0  0  0  0
   35.5520   28.7670   31.6110 N   0  0  0  0  0  0  0  0  0  0  0  0
   35.0280   29.9320   32.0890 C   0  0  0  0  0  0  0  0  0  0  0  0
   35.2160   30.3200   33.3480 N   0  0  0  0  0  0  0  0  0  0  0  0
   34.3020   30.6090   31.0760 N   0  0  0  0  0  0  0  0  0  0  0  0
   36.1020   29.8490   35.2100 H   0  0  0  0  0  0  0  0  0  0  0  0
   33.2920   30.8050   31.1030 H   0  0  0  0  0  0  0  0  0  0  0  0
   34.8090   30.9470   30.2230 H   0  0  0  0  0  0  0  0  0  0  0  0
   37.3020   27.5090   34.6980 C   0  0  0  0  0  0  0  0  0  0  0  0
   38.4970   27.0930   34.1490 F   0  0  0  0  0  0  0  0  0  0  0  0
   37.5870   28.3070   35.7860 F   0  0  0  0  0  0  0  0  0  0  0  0
   36.6380   26.3980   35.1540 F   0  0  0  0  0  0  0  0  0  0  0  0
   37.1970   22.3780   33.1740 C   0  0  0  0  0  0  0  0  0  0  0  0
   36.6310   23.0290   32.0980 C   0  0  0  0  0  0  0  0  0  0  0  0
   35.6160   22.3800   31.4230 C   0  0  0  0  0  0  0  0  0  0  0  0
   35.1240   22.8130   30.5780 H   0  0  0  0  0  0  0  0  0  0  0  0
   35.1510   21.1360   31.7700 C   0  0  0  0  0  0  0  0  0  0  0  0
   34.3520   20.6250   31.2390 H   0  0  0  0  0  0  0  0  0  0  0  0
   35.6940   20.4660   32.8340 C   0  0  0  0  0  3  0  0  0  0  0  0
   36.7080   21.1100   33.5110 C   0  0  0  0  0  3  0  0  0  0  0  0
   39.2560   23.9190   33.3710 H   0  0  0  0  0  0  0  0  0  0  0  0
   38.4860   23.0700   34.1210 S   0  0  0  0  0  0  0  0  0  0  0  0
   39.4320   21.9580   34.5510 O   0  0  0  0  0  0  0  0  0  0  0  0
   38.0040   23.7100   35.3930 O   0  0  0  0  0  0  0  0  0  0  0  0
  1  6  1  0  0  0  0
  1 12  1  0  0  0  0
  2  1  2  0  0  0  0
  3  4  2  0  0  0  0
  3  2  1  0  0  0  0
  4  5  1  0  0  0  0
  5 25  1  0  0  0  0
  5  6  2  0  0  0  0
  7  2  1  0  0  0  0
  8  3  1  0  0  0  0
  9  4  1  0  0  0  0
 10 17  1  0  0  0  0
 11 10  1  0  0  0  0
 11 20  1  0  0  0  0
 12 11  2  0  0  0  0
 13 14  2  0  0  0  0
 13 12  1  0  0  0  0
 14 15  1  0  0  0  0
 15 10  2  0  0  0  0
 16 18  1  0  0  0  0
 16 14  1  0  0  0  0
 19 16  1  0  0  0  0
 20 23  1  0  0  0  0
 20 22  1  0  0  0  0
 21 20  1  0  0  0  0
 24 31  1  0  0  0  0
 24 33  1  0  0  0  0
 25 24  2  0  0  0  0
 26 28  2  0  0  0  0
 26 25  1  0  0  0  0
 27 26  1  0  0  0  0
 28 30  1  0  0  0  0
 29 28  1  0  0  0  0
 30 31  2  0  0  0  0
 32 33  1  0  0  0  0
 33 34  2  0  0  0  0
 33 35  2  0  0  0  0
M  END
>  <minimizedAffinity>
-5.87718201

$$$$

 OpenBabel03272507593D

 35 37  0  0  0  0  0  0  0  0999 V2000
   37.5740   25.3200   32.6000 C   0  0  0  0  0  0  0  0  0  0  0  0
   36.7220   24.3650   32.0770 C   0  0  0  0  0  0  0  0  0  0  0  0
   36.8460   23.0450   32.4770 C   0  0  0  0  0  0  0  0  0  0  0  0
   37.8260   22.6990   33.3990 C   0  0  0  0  0  0  0  0  0  0  0  0
   38.6610   23.6650   33.9040 C   0  0  0  0  0  0  0  0  0  0  0  0
   38.4930   24.9180   33.4800 N   0  0  0  0  0  0  0  0  0  0  0  0
   35.9210   24.5340   31.3530 H   0  0  0  0  0  0  0  0  0  0  0  0
   36.1870   22.2610   32.0830 H   0  0  0  0  0  0  0  0  0  0  0  0
   37.8860   21.6770   33.6760 H   0  0  0  0  0  0  0  0  0  0  0  0
   36.8500   28.9970   32.4120 C   0  0  0  0  0  0  0  0  0  0  0  0
   37.1010   27.7050   32.9590 C   0  0  0  0  0  0  0  0  0  0  0  0
   37.3160   26.6520   32.0770 C   0  0  0  0  0  0  0  0  0  0  0  0
   37.2750   26.9070   30.7360 N   0  0  0  0  0  0  0  0  0  0  0  0
   37.0310   28.1620   30.2610 C   0  0  0  0  0  0  0  0  0  0  0  0
   36.8220   29.1910   31.0790 N   0  0  0  0  0  0  0  0  0  0  0  0
   37.0410   28.1740   28.8440 N   0  0  0  0  0  0  0  0  0  0  0  0
   36.6810   29.8260   33.0920 H   0  0  0  0  0  0  0  0  0  0  0  0
   36.2340   28.4060   28.2480 H   0  0  0  0  0  0  0  0  0  0  0  0
   37.9260   27.9330   28.3360 H   0  0  0  0  0  0  0  0  0  0  0  0
   37.1200   27.5540   34.4410 C   0  0  0  0  0  0  0  0  0  0  0  0
   38.4100   27.4760   34.9240 F   0  0  0  0  0  0  0  0  0  0  0  0
   36.5270   28.6710   34.9880 F   0  0  0  0  0  0  0  0  0  0  0  0
   36.4350   26.4520   34.8890 F   0  0  0  0  0  0  0  0  0  0  0  0
   39.4360   23.3840   36.2240 C   0  0  0  0  0  0  0  0  0  0  0  0
   39.7050   23.3570   34.8720 C   0  0  0  0  0  0  0  0  0  0  0  0
   40.9890   23.0310   34.4840 C   0  0  0  0  0  0  0  0  0  0  0  0
   41.2830   22.9880   33.4580 H   0  0  0  0  0  0  0  0  0  0  0  0
   41.9960   22.7360   35.3710 C   0  0  0  0  0  0  0  0  0  0  0  0
   43.0060   22.4800   35.0660 H   0  0  0  0  0  0  0  0  0  0  0  0
   41.7570   22.7550   36.7200 C   0  0  0  0  0  3  0  0  0  0  0  0
   40.4760   23.0800   37.1110 C   0  0  0  0  0  3  0  0  0  0  0  0
   37.2890   24.8120   36.1730 H   0  0  0  0  0  0  0  0  0  0  0  0
   37.8640   23.7780   36.8630 S   0  0  0  0  0  0  0  0  0  0  0  0
   38.0260   24.2990   38.2850 O   0  0  0  0  0  0  0  0  0  0  0  0
   36.9540   22.5860   36.9670 O   0  0  0  0  0  0  0  0  0  0  0  0
  1  6  1  0  0  0  0
  2  3  1  0  0  0  0
  2  1  2  0  0  0  0
  3  4  2  0  0  0  0
  4  9  1  0  0  0  0
  4  5  1  0  0  0  0
  5 25  1  0  0  0  0
  6  5  2  0  0  0  0
  7  2  1  0  0  0  0
  8  3  1  0  0  0  0
 10 11  1  0  0  0  0
 10 17  1  0  0  0  0
 11 20  1  0  0  0  0
 12  1  1  0  0  0  0
 12 11  2  0  0  0  0
 13 12  1  0  0  0  0
 14 13  2  0  0  0  0
 14 15  1  0  0  0  0
 15 10  2  0  0  0  0
 16 14  1  0  0  0  0
 18 16  1  0  0  0  0
 19 16  1  0  0  0  0
 20 23  1  0  0  0  0
 20 21  1  0  0  0  0
 20 22  1  0  0  0  0
 24 33  1  0  0  0  0
 24 31  1  0  0  0  0
 25 24  2  0  0  0  0
 26 25  1  0  0  0  0
 26 28  2  0  0  0  0
 27 26  1  0  0  0  0
 28 30  1  0  0  0  0
 29 28  1  0  0  0  0
 30 31  2  0  0  0  0
 32 33  1  0  0  0  0
 33 35  2  0  0  0  0
 33 34  2  0  0  0  0
M  END
>  <minimizedAffinity>
-5.77432919

$$$$

 OpenBabel03272507593D

 35 37  0  0  0  0  0  0  0  0999 V2000
   35.1140   29.8070   33.1240 C   0  0  0  0  0  0  0  0  0  0  0  0
   35.7350   30.6870   32.2570 C   0  0  0  0  0  0  0  0  0  0  0  0
   36.5210   30.1930   31.2290 C   0  0  0  0  0  0  0  0  0  0  0  0
   36.6750   28.8200   31.0840 C   0  0  0  0  0  0  0  0  0  0  0  0
   36.0480   27.9670   31.9580 C   0  0  0  0  0  0  0  0  0  0  0  0
   35.3060   28.5020   32.9270 N   0  0  0  0  0  0  0  0  0  0  0  0
   35.6760   31.7770   32.2830 H   0  0  0  0  0  0  0  0  0  0  0  0
   37.0290   30.8620   30.5220 H   0  0  0  0  0  0  0  0  0  0  0  0
   37.2860   28.4870   30.2840 H   0  0  0  0  0  0  0  0  0  0  0  0
   32.2180   31.2670   35.0110 C   0  0  0  0  0  0  0  0  0  0  0  0
   32.9540   30.5970   33.9900 C   0  0  0  0  0  0  0  0  0  0  0  0
   34.3310   30.4830   34.1460 C   0  0  0  0  0  0  0  0  0  0  0  0
   34.9070   31.0160   35.2640 N   0  0  0  0  0  0  0  0  0  0  0  0
   34.1580   31.6480   36.2130 C   0  0  0  0  0  0  0  0  0  0  0  0
   32.8390   31.7730   36.0940 N   0  0  0  0  0  0  0  0  0  0  0  0
   34.9770   32.1110   37.2730 N   0  0  0  0  0  0  0  0  0  0  0  0
   31.1420   31.3610   34.8990 H   0  0  0  0  0  0  0  0  0  0  0  0
   35.1090   33.0990   37.5310 H   0  0  0  0  0  0  0  0  0  0  0  0
   35.5010   31.4150   37.8570 H   0  0  0  0  0  0  0  0  0  0  0  0
   32.2110   30.0580   32.8170 C   0  0  0  0  0  0  0  0  0  0  0  0
   32.3540   28.6900   32.7150 F   0  0  0  0  0  0  0  0  0  0  0  0
   30.8730   30.3350   32.9990 F   0  0  0  0  0  0  0  0  0  0  0  0
   32.5970   30.6130   31.6230 F   0  0  0  0  0  0  0  0  0  0  0  0
   37.1570   25.8500   32.5530 C   0  0  0  0  0  0  0  0  0  0  0  0
   36.1750   26.5190   31.8530 C   0  0  0  0  0  0  0  0  0  0  0  0
   35.3330   25.7660   31.0600 C   0  0  0  0  0  0  0  0  0  0  0  0
   34.5460   26.2050   30.4840 H   0  0  0  0  0  0  0  0  0  0  0  0
   35.4250   24.4020   30.9390 C   0  0  0  0  0  0  0  0  0  0  0  0
   34.7620   23.8090   30.3150 H   0  0  0  0  0  0  0  0  0  0  0  0
   36.3910   23.7110   31.6220 C   0  0  0  0  0  3  0  0  0  0  0  0
   37.2350   24.4590   32.4160 C   0  0  0  0  0  3  0  0  0  0  0  0
   37.7280   27.7600   34.1900 H   0  0  0  0  0  0  0  0  0  0  0  0
   38.2940   26.6650   33.5920 S   0  0  0  0  0  0  0  0  0  0  0  0
   39.4260   27.2240   32.7420 O   0  0  0  0  0  0  0  0  0  0  0  0
   38.9460   25.7450   34.5870 O   0  0  0  0  0  0  0  0  0  0  0  0
  1 12  1  0  0  0  0
  2  7  1  0  0  0  0
  2  1  2  0  0  0  0
  3  2  1  0  0  0  0
  4  3  2  0  0  0  0
  4  5  1  0  0  0  0
  5  6  2  0  0  0  0
  6  1  1  0  0  0  0
  8  3  1  0  0  0  0
  9  4  1  0  0  0  0
 10 15  1  0  0  0  0
 11 12  1  0  0  0  0
 11 10  2  0  0  0  0
 12 13  2  0  0  0  0
 13 14  1  0  0  0  0
 14 16  1  0  0  0  0
 15 14  2  0  0  0  0
 16 18  1  0  0  0  0
 16 19  1  0  0  0  0
 17 10  1  0  0  0  0
 20 22  1  0  0  0  0
 20 11  1  0  0  0  0
 21 20  1  0  0  0  0
 23 20  1  0  0  0  0
 24 33  1  0  0  0  0
 25  5  1  0  0  0  0
 25 24  2  0  0  0  0
 26 25  1  0  0  0  0
 27 26  1  0  0  0  0
 28 26  2  0  0  0  0
 28 30  1  0  0  0  0
 29 28  1  0  0  0  0
 30 31  2  0  0  0  0
 31 24  1  0  0  0  0
 33 32  1  0  0  0  0
 33 35  2  0  0  0  0
 34 33  2  0  0  0  0
M  END
>  <minimizedAffinity>
-5.7567935

$$$$

 OpenBabel03272507593D

 35 37  0  0  0  0  0  0  0  0999 V2000
   34.5630   29.7130   32.6500 C   0  0  0  0  0  0  0  0  0  0  0  0
   35.1230   30.5710   31.7210 C   0  0  0  0  0  0  0  0  0  0  0  0
   36.0130   30.0750   30.7820 C   0  0  0  0  0  0  0  0  0  0  0  0
   36.3310   28.7240   30.7880 C   0  0  0  0  0  0  0  0  0  0  0  0
   35.7630   27.8920   31.7210 C   0  0  0  0  0  0  0  0  0  0  0  0
   34.9140   28.4270   32.5990 N   0  0  0  0  0  0  0  0  0  0  0  0
   34.9370   31.6430   31.6310 H   0  0  0  0  0  0  0  0  0  0  0  0
   36.4750   30.7270   30.0310 H   0  0  0  0  0  0  0  0  0  0  0  0
   37.0170   28.3880   30.0520 H   0  0  0  0  0  0  0  0  0  0  0  0
   33.2380   31.6190   35.5980 C   0  0  0  0  0  0  0  0  0  0  0  0
   34.1560   30.9650   34.7250 C   0  0  0  0  0  0  0  0  0  0  0  0
   33.6560   30.3880   33.5640 C   0  0  0  0  0  0  0  0  0  0  0  0
   32.3150   30.4760   33.3180 N   0  0  0  0  0  0  0  0  0  0  0  0
   31.4770   31.1130   34.1860 C   0  0  0  0  0  0  0  0  0  0  0  0
   31.9240   31.6750   35.3050 N   0  0  0  0  0  0  0  0  0  0  0  0
   30.1400   31.0720   33.7140 N   0  0  0  0  0  0  0  0  0  0  0  0
   33.6190   32.0730   36.5080 H   0  0  0  0  0  0  0  0  0  0  0  0
   29.3580   30.6030   34.1910 H   0  0  0  0  0  0  0  0  0  0  0  0
   29.9010   31.5500   32.8110 H   0  0  0  0  0  0  0  0  0  0  0  0
   35.5970   30.9370   35.1040 C   0  0  0  0  0  0  0  0  0  0  0  0
   36.1340   29.6760   34.9510 F   0  0  0  0  0  0  0  0  0  0  0  0
   36.2730   31.7930   34.2610 F   0  0  0  0  0  0  0  0  0  0  0  0
   35.8320   31.3430   36.3930 F   0  0  0  0  0  0  0  0  0  0  0  0
   37.0770   25.9940   32.5760 C   0  0  0  0  0  0  0  0  0  0  0  0
   36.0610   26.4670   31.7730 C   0  0  0  0  0  0  0  0  0  0  0  0
   35.3520   25.5430   31.0310 C   0  0  0  0  0  0  0  0  0  0  0  0
   34.5500   25.8250   30.3830 H   0  0  0  0  0  0  0  0  0  0  0  0
   35.6080   24.1940   31.0580 C   0  0  0  0  0  0  0  0  0  0  0  0
   35.0500   23.4670   30.4740 H   0  0  0  0  0  0  0  0  0  0  0  0
   36.6110   23.6960   31.8460 C   0  0  0  0  0  3  0  0  0  0  0  0
   37.3220   24.6150   32.5880 C   0  0  0  0  0  3  0  0  0  0  0  0
   37.5820   28.3220   33.5630 H   0  0  0  0  0  0  0  0  0  0  0  0
   38.0590   27.0380   33.5660 S   0  0  0  0  0  0  0  0  0  0  0  0
   39.4490   27.1340   32.9540 O   0  0  0  0  0  0  0  0  0  0  0  0
   38.2620   26.5090   34.9590 O   0  0  0  0  0  0  0  0  0  0  0  0
  1 12  1  0  0  0  0
  2  1  2  0  0  0  0
  3  4  2  0  0  0  0
  3  2  1  0  0  0  0
  4  5  1  0  0  0  0
  5 25  1  0  0  0  0
  5  6  2  0  0  0  0
  6  1  1  0  0  0  0
  7  2  1  0  0  0  0
  8  3  1  0  0  0  0
  9  4  1  0  0  0  0
 10 17  1  0  0  0  0
 11 20  1  0  0  0  0
 11 10  2  0  0  0  0
 12 11  1  0  0  0  0
 13 12  2  0  0  0  0
 13 14  1  0  0  0  0
 14 15  2  0  0  0  0
 15 10  1  0  0  0  0
 16 14  1  0  0  0  0
 16 18  1  0  0  0  0
 19 16  1  0  0  0  0
 20 23  1  0  0  0  0
 21 20  1  0  0  0  0
 22 20  1  0  0  0  0
 24 31  1  0  0  0  0
 24 33  1  0  0  0  0
 25 24  2  0  0  0  0
 26 28  2  0  0  0  0
 26 25  1  0  0  0  0
 27 26  1  0  0  0  0
 28 30  1  0  0  0  0
 29 28  1  0  0  0  0
 30 31  2  0  0  0  0
 32 33  1  0  0  0  0
 33 35  2  0  0  0  0
 34 33  2  0  0  0  0
M  END
>  <minimizedAffinity>
-5.63080072

$$$$
