
 OpenBabel03272501133D

 31 33  0  0  1  0  0  0  0  0999 V2000
   39.3600   24.9960   34.7120 C   0  0  1  0  0  0  0  0  0  0  0  0
   38.6500   26.2120   34.3840 C   0  0  1  0  0  0  0  0  0  0  0  0
   40.0620   26.3450   34.8470 C   0  0  0  0  0  0  0  0  0  0  0  0
   39.7820   24.3170   33.9250 H   0  0  0  0  0  0  0  0  0  0  0  0
   37.8850   26.5330   35.1590 H   0  0  0  0  0  0  0  0  0  0  0  0
   40.2670   26.7410   35.8650 H   0  0  0  0  0  0  0  0  0  0  0  0
   40.8810   26.5100   34.1220 H   0  0  0  0  0  0  0  0  0  0  0  0
   39.1670   24.3260   36.0630 C   0  0  0  0  0  0  0  0  0  0  0  0
   38.0750   24.7730   36.8060 C   0  0  0  0  0  0  0  0  0  0  0  0
   37.9270   24.1570   38.0540 C   0  0  0  0  0  0  0  0  0  0  0  0
   38.8030   23.1980   38.4790 N   0  0  0  0  0  0  0  0  0  0  0  0
   39.8480   22.8090   37.7010 C   0  0  0  0  0  0  0  0  0  0  0  0
   40.0310   23.3830   36.4760 N   0  0  0  0  0  0  0  0  0  0  0  0
   37.3960   25.5330   36.4490 H   0  0  0  0  0  0  0  0  0  0  0  0
   37.1030   24.4430   38.7040 H   0  0  0  0  0  0  0  0  0  0  0  0
   40.5680   22.0570   37.9900 H   0  0  0  0  0  0  0  0  0  0  0  0
   38.2790   26.4340   32.9320 C   0  0  0  0  0  0  0  0  0  0  0  0
   39.2250   26.6110   32.3530 H   0  0  0  0  0  0  0  0  0  0  0  0
   37.7460   25.5490   32.5200 H   0  0  0  0  0  0  0  0  0  0  0  0
   37.1420   28.4080   31.7510 C   0  0  0  0  0  0  0  0  0  0  0  0
   37.3860   27.6040   32.8230 C   0  0  0  0  0  0  0  0  0  0  0  0
   36.6980   27.9590   33.9940 C   0  0  0  0  0  0  0  0  0  0  0  0
   36.8270   27.3780   34.9020 H   0  0  0  0  0  0  0  0  0  0  0  0
   35.8350   29.0220   34.1190 C   0  0  0  0  0  0  0  0  0  0  0  0
   35.3340   29.2460   35.0470 H   0  0  0  0  0  0  0  0  0  0  0  0
   35.5960   29.8270   33.0300 C   0  0  0  0  0  3  0  0  0  0  0  0
   36.2620   29.4900   31.8780 C   0  0  0  0  0  3  0  0  0  0  0  0
   37.7870   26.7270   30.0050 H   0  0  0  0  0  0  0  0  0  0  0  0
   37.8880   28.1000   30.2160 S   0  0  0  0  0  0  0  0  0  0  0  0
   39.3390   28.4020   30.1870 O   0  0  0  0  0  0  0  0  0  0  0  0
   37.1050   28.8140   29.1420 O   0  0  0  0  0  0  0  0  0  0  0  0
  1  4  1  6  0  0  0
  1  3  1  0  0  0  0
  1  8  1  0  0  0  0
  2  1  1  0  0  0  0
  2  3  1  0  0  0  0
  2  5  1  1  0  0  0
  3  6  1  0  0  0  0
  7  3  1  0  0  0  0
  8 13  2  0  0  0  0
  8  9  1  0  0  0  0
  9 10  2  0  0  0  0
 10 11  1  0  0  0  0
 10 15  1  0  0  0  0
 12 16  1  0  0  0  0
 12 11  2  0  0  0  0
 13 12  1  0  0  0  0
 14  9  1  0  0  0  0
 17  2  1  0  0  0  0
 18 17  1  0  0  0  0
 19 17  1  0  0  0  0
 20 27  2  0  0  0  0
 20 21  1  0  0  0  0
 21 17  1  0  0  0  0
 21 22  2  0  0  0  0
 22 24  1  0  0  0  0
 22 23  1  0  0  0  0
 24 25  1  0  0  0  0
 26 24  2  0  0  0  0
 27 26  1  0  0  0  0
 28 29  1  0  0  0  0
 29 20  1  0  0  0  0
 30 29  2  0  0  0  0
 31 29  2  0  0  0  0
M  END
>  <minimizedAffinity>
-4.95863247

$$$$

 OpenBabel03272501133D

 31 33  0  0  1  0  0  0  0  0999 V2000
   36.2950   27.9580   33.4030 C   0  0  1  0  0  0  0  0  0  0  0  0
   35.8400   29.3130   33.6200 C   0  0  1  0  0  0  0  0  0  0  0  0
   36.4180   28.9890   32.2830 C   0  0  0  0  0  0  0  0  0  0  0  0
   35.5860   27.1130   33.1950 H   0  0  0  0  0  0  0  0  0  0  0  0
   36.5260   29.9400   34.2720 H   0  0  0  0  0  0  0  0  0  0  0  0
   37.4270   29.3720   32.0190 H   0  0  0  0  0  0  0  0  0  0  0  0
   35.7610   28.8030   31.4140 H   0  0  0  0  0  0  0  0  0  0  0  0
   37.6580   27.5070   33.9040 C   0  0  0  0  0  0  0  0  0  0  0  0
   37.8190   27.5040   35.2890 C   0  0  0  0  0  0  0  0  0  0  0  0
   39.0870   27.1050   35.7280 C   0  0  0  0  0  0  0  0  0  0  0  0
   40.0650   26.7540   34.8410 N   0  0  0  0  0  0  0  0  0  0  0  0
   39.8390   26.7810   33.5010 C   0  0  0  0  0  0  0  0  0  0  0  0
   38.6170   27.1630   33.0280 N   0  0  0  0  0  0  0  0  0  0  0  0
   37.0300   27.7870   35.9700 H   0  0  0  0  0  0  0  0  0  0  0  0
   39.3040   27.0730   36.7930 H   0  0  0  0  0  0  0  0  0  0  0  0
   40.5780   26.5130   32.7590 H   0  0  0  0  0  0  0  0  0  0  0  0
   34.3520   29.5310   33.7960 C   0  0  0  0  0  0  0  0  0  0  0  0
   33.9660   30.0620   32.8850 H   0  0  0  0  0  0  0  0  0  0  0  0
   33.8210   28.5600   33.9170 H   0  0  0  0  0  0  0  0  0  0  0  0
   33.0010   30.4110   35.7930 C   0  0  0  0  0  0  0  0  0  0  0  0
   34.1100   30.3430   35.0030 C   0  0  0  0  0  0  0  0  0  0  0  0
   35.1620   31.1870   35.3940 C   0  0  0  0  0  0  0  0  0  0  0  0
   36.0870   31.2040   34.8270 H   0  0  0  0  0  0  0  0  0  0  0  0
   35.1400   32.0390   36.4720 C   0  0  0  0  0  0  0  0  0  0  0  0
   35.9810   32.6660   36.7220 H   0  0  0  0  0  0  0  0  0  0  0  0
   34.0160   32.1000   37.2610 C   0  0  0  0  0  3  0  0  0  0  0  0
   32.9800   31.2780   36.8910 C   0  0  0  0  0  3  0  0  0  0  0  0
   31.6430   29.1450   34.1050 H   0  0  0  0  0  0  0  0  0  0  0  0
   31.6150   29.4170   35.4710 S   0  0  0  0  0  0  0  0  0  0  0  0
   30.3220   30.1010   35.7160 O   0  0  0  0  0  0  0  0  0  0  0  0
   31.7620   28.1200   36.2270 O   0  0  0  0  0  0  0  0  0  0  0  0
  1  4  1  6  0  0  0
  1  2  1  0  0  0  0
  1  8  1  0  0  0  0
  2 17  1  0  0  0  0
  2  5  1  1  0  0  0
  3  1  1  0  0  0  0
  3  2  1  0  0  0  0
  6  3  1  0  0  0  0
  7  3  1  0  0  0  0
  8  9  1  0  0  0  0
  9 10  2  0  0  0  0
  9 14  1  0  0  0  0
 10 15  1  0  0  0  0
 11 10  1  0  0  0  0
 12 11  2  0  0  0  0
 13 12  1  0  0  0  0
 13  8  2  0  0  0  0
 16 12  1  0  0  0  0
 17 19  1  0  0  0  0
 17 21  1  0  0  0  0
 18 17  1  0  0  0  0
 20 27  1  0  0  0  0
 21 22  1  0  0  0  0
 21 20  2  0  0  0  0
 22 24  2  0  0  0  0
 23 22  1  0  0  0  0
 24 25  1  0  0  0  0
 24 26  1  0  0  0  0
 27 26  2  0  0  0  0
 28 29  1  0  0  0  0
 29 30  2  0  0  0  0
 29 20  1  0  0  0  0
 29 31  2  0  0  0  0
M  END
>  <minimizedAffinity>
-4.93844652

$$$$

 OpenBabel03272501133D

 31 33  0  0  1  0  0  0  0  0999 V2000
   39.6070   25.3690   34.5080 C   0  0  1  0  0  0  0  0  0  0  0  0
   38.7460   26.4260   34.0240 C   0  0  1  0  0  0  0  0  0  0  0  0
   39.9430   26.8250   34.8200 C   0  0  0  0  0  0  0  0  0  0  0  0
   40.3420   24.8430   33.8440 H   0  0  0  0  0  0  0  0  0  0  0  0
   37.7670   26.5300   34.5900 H   0  0  0  0  0  0  0  0  0  0  0  0
   39.8070   27.1930   35.8600 H   0  0  0  0  0  0  0  0  0  0  0  0
   40.8530   27.2030   34.3200 H   0  0  0  0  0  0  0  0  0  0  0  0
   39.2500   24.5930   35.7660 C   0  0  0  0  0  0  0  0  0  0  0  0
   40.1200   23.5550   36.1000 C   0  0  0  0  0  0  0  0  0  0  0  0
   39.7620   22.8410   37.2500 C   0  0  0  0  0  0  0  0  0  0  0  0
   38.6420   23.1630   37.9630 N   0  0  0  0  0  0  0  0  0  0  0  0
   37.8370   24.1890   37.5790 C   0  0  0  0  0  0  0  0  0  0  0  0
   38.1480   24.9130   36.4650 N   0  0  0  0  0  0  0  0  0  0  0  0
   40.9990   23.3190   35.5190 H   0  0  0  0  0  0  0  0  0  0  0  0
   40.3820   22.0130   37.5850 H   0  0  0  0  0  0  0  0  0  0  0  0
   36.9420   24.4840   38.1080 H   0  0  0  0  0  0  0  0  0  0  0  0
   38.6920   26.6520   32.5280 C   0  0  0  0  0  0  0  0  0  0  0  0
   38.6900   27.7590   32.3410 H   0  0  0  0  0  0  0  0  0  0  0  0
   39.5690   26.1880   32.0250 H   0  0  0  0  0  0  0  0  0  0  0  0
   36.2890   26.6260   31.6250 C   0  0  0  0  0  0  0  0  0  0  0  0
   37.4670   26.0390   31.9790 C   0  0  0  0  0  0  0  0  0  0  0  0
   37.5030   24.6460   31.8100 C   0  0  0  0  0  0  0  0  0  0  0  0
   38.3980   24.0870   32.0640 H   0  0  0  0  0  0  0  0  0  0  0  0
   36.4700   23.8740   31.3350 C   0  0  0  0  0  0  0  0  0  0  0  0
   36.5560   22.8050   31.2270 H   0  0  0  0  0  0  0  0  0  0  0  0
   35.2860   24.4780   30.9820 C   0  0  0  0  0  3  0  0  0  0  0  0
   35.2370   25.8410   31.1410 C   0  0  0  0  0  3  0  0  0  0  0  0
   37.0670   28.7960   32.6160 H   0  0  0  0  0  0  0  0  0  0  0  0
   36.0780   28.3440   31.7450 S   0  0  0  0  0  0  0  0  0  0  0  0
   34.7900   28.7450   32.3610 O   0  0  0  0  0  0  0  0  0  0  0  0
   36.3110   28.9580   30.3870 O   0  0  0  0  0  0  0  0  0  0  0  0
  1  4  1  6  0  0  0
  1  3  1  0  0  0  0
  1  8  1  0  0  0  0
  2  1  1  0  0  0  0
  2  5  1  1  0  0  0
  2  3  1  0  0  0  0
  3  6  1  0  0  0  0
  7  3  1  0  0  0  0
  8  9  2  0  0  0  0
  8 13  1  0  0  0  0
  9 10  1  0  0  0  0
 10 15  1  0  0  0  0
 10 11  2  0  0  0  0
 12 11  1  0  0  0  0
 12 16  1  0  0  0  0
 13 12  2  0  0  0  0
 14  9  1  0  0  0  0
 17  2  1  0  0  0  0
 18 17  1  0  0  0  0
 19 17  1  0  0  0  0
 20 29  1  0  0  0  0
 20 21  1  0  0  0  0
 21 17  1  0  0  0  0
 22 21  2  0  0  0  0
 22 23  1  0  0  0  0
 24 22  1  0  0  0  0
 25 24  1  0  0  0  0
 26 27  1  0  0  0  0
 26 24  2  0  0  0  0
 27 20  2  0  0  0  0
 29 30  2  0  0  0  0
 29 28  1  0  0  0  0
 31 29  2  0  0  0  0
M  END
>  <minimizedAffinity>
-4.89459467

$$$$

 OpenBabel03272501133D

 31 33  0  0  1  0  0  0  0  0999 V2000
   37.8220   26.4430   35.0630 C   0  0  1  0  0  0  0  0  0  0  0  0
   39.2100   26.1810   34.7500 C   0  0  1  0  0  0  0  0  0  0  0  0
   38.9140   27.3340   35.6490 C   0  0  0  0  0  0  0  0  0  0  0  0
   37.2520   25.8340   35.8140 H   0  0  0  0  0  0  0  0  0  0  0  0
   39.5210   26.4890   33.7030 H   0  0  0  0  0  0  0  0  0  0  0  0
   39.0240   28.3700   35.2610 H   0  0  0  0  0  0  0  0  0  0  0  0
   39.0420   27.2440   36.7440 H   0  0  0  0  0  0  0  0  0  0  0  0
   36.9380   27.2050   34.0900 C   0  0  0  0  0  0  0  0  0  0  0  0
   36.8880   26.6910   32.7940 C   0  0  0  0  0  0  0  0  0  0  0  0
   36.0830   27.4190   31.9090 C   0  0  0  0  0  0  0  0  0  0  0  0
   35.4150   28.5390   32.3170 N   0  0  0  0  0  0  0  0  0  0  0  0
   35.5090   28.9840   33.5980 C   0  0  0  0  0  0  0  0  0  0  0  0
   36.2820   28.3050   34.4950 N   0  0  0  0  0  0  0  0  0  0  0  0
   37.4260   25.8040   32.4950 H   0  0  0  0  0  0  0  0  0  0  0  0
   35.9860   27.0930   30.8760 H   0  0  0  0  0  0  0  0  0  0  0  0
   35.0020   29.8620   33.9700 H   0  0  0  0  0  0  0  0  0  0  0  0
   39.8190   24.9040   35.2910 C   0  0  0  0  0  0  0  0  0  0  0  0
   40.7920   24.7280   34.7580 H   0  0  0  0  0  0  0  0  0  0  0  0
   40.0010   24.9850   36.3860 H   0  0  0  0  0  0  0  0  0  0  0  0
   38.2530   22.9840   35.9590 C   0  0  0  0  0  0  0  0  0  0  0  0
   38.8960   23.7780   35.0570 C   0  0  0  0  0  0  0  0  0  0  0  0
   38.6520   23.4560   33.7120 C   0  0  0  0  0  0  0  0  0  0  0  0
   39.1190   24.0310   32.9190 H   0  0  0  0  0  0  0  0  0  0  0  0
   37.8440   22.4350   33.2720 C   0  0  0  0  0  0  0  0  0  0  0  0
   37.6950   22.2350   32.2230 H   0  0  0  0  0  0  0  0  0  0  0  0
   37.2010   21.6410   34.1920 C   0  0  0  0  0  3  0  0  0  0  0  0
   37.4300   21.9460   35.5110 C   0  0  0  0  0  3  0  0  0  0  0  0
   37.5380   22.3740   38.2850 H   0  0  0  0  0  0  0  0  0  0  0  0
   38.4200   23.2560   37.6650 S   0  0  0  0  0  0  0  0  0  0  0  0
   37.9990   24.6110   38.0970 O   0  0  0  0  0  0  0  0  0  0  0  0
   39.8280   22.9040   38.0770 O   0  0  0  0  0  0  0  0  0  0  0  0
  1  3  1  0  0  0  0
  1  4  1  1  0  0  0
  2  5  1  6  0  0  0
  2  1  1  0  0  0  0
  2 17  1  0  0  0  0
  2  3  1  0  0  0  0
  3  7  1  0  0  0  0
  6  3  1  0  0  0  0
  8 13  1  0  0  0  0
  8  1  1  0  0  0  0
  9  8  2  0  0  0  0
 10 11  2  0  0  0  0
 10  9  1  0  0  0  0
 11 12  1  0  0  0  0
 12 16  1  0  0  0  0
 12 13  2  0  0  0  0
 14  9  1  0  0  0  0
 15 10  1  0  0  0  0
 17 19  1  0  0  0  0
 18 17  1  0  0  0  0
 20 29  1  0  0  0  0
 21 17  1  0  0  0  0
 21 20  2  0  0  0  0
 22 21  1  0  0  0  0
 23 22  1  0  0  0  0
 24 22  2  0  0  0  0
 24 26  1  0  0  0  0
 25 24  1  0  0  0  0
 26 27  2  0  0  0  0
 27 20  1  0  0  0  0
 29 31  2  0  0  0  0
 29 30  2  0  0  0  0
 29 28  1  0  0  0  0
M  END
>  <minimizedAffinity>
-4.83213425

$$$$

 OpenBabel03272501133D

 31 33  0  0  1  0  0  0  0  0999 V2000
   36.8810   28.0250   32.7020 C   0  0  1  0  0  0  0  0  0  0  0  0
   35.7540   28.6450   33.3650 C   0  0  1  0  0  0  0  0  0  0  0  0
   36.7530   27.9410   34.2210 C   0  0  0  0  0  0  0  0  0  0  0  0
   37.7580   28.6170   32.3300 H   0  0  0  0  0  0  0  0  0  0  0  0
   34.7750   28.0820   33.2520 H   0  0  0  0  0  0  0  0  0  0  0  0
   36.4850   26.9650   34.6810 H   0  0  0  0  0  0  0  0  0  0  0  0
   37.5210   28.5100   34.7770 H   0  0  0  0  0  0  0  0  0  0  0  0
   36.7410   26.6590   32.0500 C   0  0  0  0  0  0  0  0  0  0  0  0
   37.9070   25.8960   31.9950 C   0  0  0  0  0  0  0  0  0  0  0  0
   37.7600   24.6500   31.3730 C   0  0  0  0  0  0  0  0  0  0  0  0
   36.5550   24.2470   30.8710 N   0  0  0  0  0  0  0  0  0  0  0  0
   35.4570   25.0430   30.9590 C   0  0  0  0  0  0  0  0  0  0  0  0
   35.5530   26.2660   31.5580 N   0  0  0  0  0  0  0  0  0  0  0  0
   38.8490   26.2370   32.3980 H   0  0  0  0  0  0  0  0  0  0  0  0
   38.6180   23.9870   31.2830 H   0  0  0  0  0  0  0  0  0  0  0  0
   34.4820   24.7720   30.5790 H   0  0  0  0  0  0  0  0  0  0  0  0
   35.6750   30.1570   33.3390 C   0  0  0  0  0  0  0  0  0  0  0  0
   36.7220   30.5620   33.3430 H   0  0  0  0  0  0  0  0  0  0  0  0
   35.1390   30.5100   32.4300 H   0  0  0  0  0  0  0  0  0  0  0  0
   33.6110   30.5230   34.8200 C   0  0  0  0  0  0  0  0  0  0  0  0
   34.9370   30.6330   34.5250 C   0  0  0  0  0  0  0  0  0  0  0  0
   35.6980   31.3190   35.4850 C   0  0  0  0  0  0  0  0  0  0  0  0
   36.7650   31.4580   35.3380 H   0  0  0  0  0  0  0  0  0  0  0  0
   35.2100   31.8610   36.6490 C   0  0  0  0  0  0  0  0  0  0  0  0
   35.8460   32.3780   37.3500 H   0  0  0  0  0  0  0  0  0  0  0  0
   33.8700   31.7440   36.9370 C   0  0  0  0  0  3  0  0  0  0  0  0
   33.1140   31.0750   36.0060 C   0  0  0  0  0  3  0  0  0  0  0  0
   33.1950   28.5300   33.3540 H   0  0  0  0  0  0  0  0  0  0  0  0
   32.5260   29.6840   33.7570 S   0  0  0  0  0  0  0  0  0  0  0  0
   32.2230   30.4260   32.5090 O   0  0  0  0  0  0  0  0  0  0  0  0
   31.2960   29.2860   34.5330 O   0  0  0  0  0  0  0  0  0  0  0  0
  1  4  1  6  0  0  0
  1  2  1  0  0  0  0
  1  3  1  0  0  0  0
  2  5  1  6  0  0  0
  2  3  1  0  0  0  0
  3  6  1  0  0  0  0
  3  7  1  0  0  0  0
  8  1  1  0  0  0  0
  9  8  1  0  0  0  0
  9 14  1  0  0  0  0
 10  9  2  0  0  0  0
 11 12  2  0  0  0  0
 11 10  1  0  0  0  0
 12 13  1  0  0  0  0
 13  8  2  0  0  0  0
 15 10  1  0  0  0  0
 16 12  1  0  0  0  0
 17 18  1  0  0  0  0
 17  2  1  0  0  0  0
 17 21  1  0  0  0  0
 19 17  1  0  0  0  0
 20 27  1  0  0  0  0
 21 20  2  0  0  0  0
 21 22  1  0  0  0  0
 22 24  2  0  0  0  0
 23 22  1  0  0  0  0
 24 26  1  0  0  0  0
 24 25  1  0  0  0  0
 27 26  2  0  0  0  0
 28 29  1  0  0  0  0
 29 31  2  0  0  0  0
 29 20  1  0  0  0  0
 30 29  2  0  0  0  0
M  END
>  <minimizedAffinity>
-4.82342386

$$$$

 OpenBabel03272501133D

 31 33  0  0  1  0  0  0  0  0999 V2000
   38.3410   26.2890   33.1040 C   0  0  1  0  0  0  0  0  0  0  0  0
   38.1900   25.1990   34.0430 C   0  0  1  0  0  0  0  0  0  0  0  0
   37.6370   25.0050   32.6710 C   0  0  0  0  0  0  0  0  0  0  0  0
   39.3110   26.4990   32.5800 H   0  0  0  0  0  0  0  0  0  0  0  0
   37.3950   25.3680   34.8350 H   0  0  0  0  0  0  0  0  0  0  0  0
   36.5360   25.0250   32.5200 H   0  0  0  0  0  0  0  0  0  0  0  0
   38.1880   24.4110   31.9190 H   0  0  0  0  0  0  0  0  0  0  0  0
   37.3870   27.4720   33.1290 C   0  0  0  0  0  0  0  0  0  0  0  0
   36.8180   27.7600   34.3690 C   0  0  0  0  0  0  0  0  0  0  0  0
   35.9280   28.8400   34.3660 C   0  0  0  0  0  0  0  0  0  0  0  0
   35.6610   29.5340   33.2190 N   0  0  0  0  0  0  0  0  0  0  0  0
   36.2530   29.1990   32.0430 C   0  0  0  0  0  0  0  0  0  0  0  0
   37.1280   28.1520   31.9990 N   0  0  0  0  0  0  0  0  0  0  0  0
   37.0440   27.1950   35.2620 H   0  0  0  0  0  0  0  0  0  0  0  0
   35.4350   29.1360   35.2890 H   0  0  0  0  0  0  0  0  0  0  0  0
   36.0770   29.7140   31.1100 H   0  0  0  0  0  0  0  0  0  0  0  0
   39.4470   24.4810   34.4870 C   0  0  0  0  0  0  0  0  0  0  0  0
   39.5960   23.5910   33.8190 H   0  0  0  0  0  0  0  0  0  0  0  0
   40.3320   25.1520   34.4200 H   0  0  0  0  0  0  0  0  0  0  0  0
   40.0300   23.1400   36.5960 C   0  0  0  0  0  0  0  0  0  0  0  0
   39.3010   24.0480   35.8900 C   0  0  0  0  0  0  0  0  0  0  0  0
   38.2460   24.6390   36.6050 C   0  0  0  0  0  0  0  0  0  0  0  0
   37.6080   25.3760   36.1280 H   0  0  0  0  0  0  0  0  0  0  0  0
   37.9200   24.3670   37.9120 C   0  0  0  0  0  0  0  0  0  0  0  0
   37.0960   24.8530   38.4090 H   0  0  0  0  0  0  0  0  0  0  0  0
   38.6630   23.4480   38.6150 C   0  0  0  0  0  3  0  0  0  0  0  0
   39.6990   22.8630   37.9270 C   0  0  0  0  0  3  0  0  0  0  0  0
   40.9450   21.8590   34.6430 H   0  0  0  0  0  0  0  0  0  0  0  0
   41.3870   22.3320   35.8770 S   0  0  0  0  0  0  0  0  0  0  0  0
   41.8330   21.1330   36.6270 O   0  0  0  0  0  0  0  0  0  0  0  0
   42.4860   23.3390   35.6460 O   0  0  0  0  0  0  0  0  0  0  0  0
  1  4  1  6  0  0  0
  1  8  1  0  0  0  0
  1  2  1  0  0  0  0
  2 17  1  0  0  0  0
  2  5  1  1  0  0  0
  3  1  1  0  0  0  0
  3  2  1  0  0  0  0
  6  3  1  0  0  0  0
  7  3  1  0  0  0  0
  8  9  1  0  0  0  0
  9 14  1  0  0  0  0
 10  9  2  0  0  0  0
 10 15  1  0  0  0  0
 11 10  1  0  0  0  0
 12 11  2  0  0  0  0
 13 12  1  0  0  0  0
 13  8  2  0  0  0  0
 16 12  1  0  0  0  0
 17 21  1  0  0  0  0
 18 17  1  0  0  0  0
 19 17  1  0  0  0  0
 20 27  1  0  0  0  0
 21 20  2  0  0  0  0
 21 22  1  0  0  0  0
 22 24  2  0  0  0  0
 23 22  1  0  0  0  0
 24 25  1  0  0  0  0
 24 26  1  0  0  0  0
 27 26  2  0  0  0  0
 28 29  1  0  0  0  0
 29 20  1  0  0  0  0
 29 30  2  0  0  0  0
 31 29  2  0  0  0  0
M  END
>  <minimizedAffinity>
-4.77341175

$$$$

 OpenBabel03272501133D

 31 33  0  0  1  0  0  0  0  0999 V2000
   35.9340   29.1280   34.1180 C   0  0  1  0  0  0  0  0  0  0  0  0
   35.6080   30.4810   34.5100 C   0  0  1  0  0  0  0  0  0  0  0  0
   34.4810   29.5100   34.3890 C   0  0  0  0  0  0  0  0  0  0  0  0
   36.3720   28.3850   34.8360 H   0  0  0  0  0  0  0  0  0  0  0  0
   35.6490   31.2380   33.6660 H   0  0  0  0  0  0  0  0  0  0  0  0
   33.7820   29.5930   33.5290 H   0  0  0  0  0  0  0  0  0  0  0  0
   34.0430   29.0390   35.2870 H   0  0  0  0  0  0  0  0  0  0  0  0
   36.1600   28.7780   32.6560 C   0  0  0  0  0  0  0  0  0  0  0  0
   36.3650   29.8610   31.8020 C   0  0  0  0  0  0  0  0  0  0  0  0
   36.5510   29.5170   30.4580 C   0  0  0  0  0  0  0  0  0  0  0  0
   36.5280   28.2130   30.0510 N   0  0  0  0  0  0  0  0  0  0  0  0
   36.3230   27.2050   30.9390 C   0  0  0  0  0  0  0  0  0  0  0  0
   36.1370   27.4930   32.2600 N   0  0  0  0  0  0  0  0  0  0  0  0
   36.3780   30.8840   32.1480 H   0  0  0  0  0  0  0  0  0  0  0  0
   36.7160   30.2980   29.7190 H   0  0  0  0  0  0  0  0  0  0  0  0
   36.2960   26.1590   30.6690 H   0  0  0  0  0  0  0  0  0  0  0  0
   36.0910   30.9510   35.8670 C   0  0  0  0  0  0  0  0  0  0  0  0
   35.8560   30.1500   36.6180 H   0  0  0  0  0  0  0  0  0  0  0  0
   37.1870   31.1420   35.8520 H   0  0  0  0  0  0  0  0  0  0  0  0
   35.7830   33.4960   35.9890 C   0  0  0  0  0  0  0  0  0  0  0  0
   35.4080   32.2080   36.2270 C   0  0  0  0  0  0  0  0  0  0  0  0
   34.2040   32.0680   36.9360 C   0  0  0  0  0  0  0  0  0  0  0  0
   33.8210   31.0810   37.1740 H   0  0  0  0  0  0  0  0  0  0  0  0
   33.4200   33.1040   37.3850 C   0  0  0  0  0  0  0  0  0  0  0  0
   32.5030   32.9330   37.9260 H   0  0  0  0  0  0  0  0  0  0  0  0
   33.8090   34.3990   37.1390 C   0  0  0  0  0  3  0  0  0  0  0  0
   34.9840   34.5500   36.4450 C   0  0  0  0  0  3  0  0  0  0  0  0
   38.1890   32.9420   35.5430 H   0  0  0  0  0  0  0  0  0  0  0  0
   37.2320   33.8540   35.1030 S   0  0  0  0  0  0  0  0  0  0  0  0
   37.7940   35.1940   35.3970 O   0  0  0  0  0  0  0  0  0  0  0  0
   36.9750   33.6180   33.6360 O   0  0  0  0  0  0  0  0  0  0  0  0
  1  3  1  0  0  0  0
  1  2  1  0  0  0  0
  1  4  1  1  0  0  0
  2  5  1  6  0  0  0
  2 17  1  0  0  0  0
  3  2  1  0  0  0  0
  3  7  1  0  0  0  0
  6  3  1  0  0  0  0
  8  1  1  0  0  0  0
  9 14  1  0  0  0  0
  9  8  2  0  0  0  0
 10  9  1  0  0  0  0
 11 10  2  0  0  0  0
 11 12  1  0  0  0  0
 12 13  2  0  0  0  0
 13  8  1  0  0  0  0
 15 10  1  0  0  0  0
 16 12  1  0  0  0  0
 17 21  1  0  0  0  0
 17 18  1  0  0  0  0
 19 17  1  0  0  0  0
 20 21  2  0  0  0  0
 20 27  1  0  0  0  0
 21 22  1  0  0  0  0
 22 23  1  0  0  0  0
 22 24  2  0  0  0  0
 24 25  1  0  0  0  0
 26 24  1  0  0  0  0
 27 26  2  0  0  0  0
 29 30  2  0  0  0  0
 29 28  1  0  0  0  0
 29 20  1  0  0  0  0
 31 29  2  0  0  0  0
M  END
>  <minimizedAffinity>
-4.73027515

$$$$

 OpenBabel03272501133D

 31 33  0  0  1  0  0  0  0  0999 V2000
   35.5280   30.2890   33.0750 C   0  0  1  0  0  0  0  0  0  0  0  0
   35.4560   28.9060   33.4940 C   0  0  1  0  0  0  0  0  0  0  0  0
   34.2190   29.5170   32.9250 C   0  0  0  0  0  0  0  0  0  0  0  0
   36.0100   30.5980   32.1100 H   0  0  0  0  0  0  0  0  0  0  0  0
   35.4150   28.7570   34.6190 H   0  0  0  0  0  0  0  0  0  0  0  0
   33.3730   29.7640   33.6020 H   0  0  0  0  0  0  0  0  0  0  0  0
   33.9210   29.3180   31.8800 H   0  0  0  0  0  0  0  0  0  0  0  0
   35.4040   31.4140   34.0890 C   0  0  0  0  0  0  0  0  0  0  0  0
   35.7160   31.0740   35.4060 C   0  0  0  0  0  0  0  0  0  0  0  0
   35.5760   32.1190   36.3260 C   0  0  0  0  0  0  0  0  0  0  0  0
   35.1640   33.3610   35.9310 N   0  0  0  0  0  0  0  0  0  0  0  0
   34.8770   33.6230   34.6290 C   0  0  0  0  0  0  0  0  0  0  0  0
   34.9990   32.6330   33.6960 N   0  0  0  0  0  0  0  0  0  0  0  0
   36.0390   30.0850   35.6940 H   0  0  0  0  0  0  0  0  0  0  0  0
   35.7960   31.9460   37.3770 H   0  0  0  0  0  0  0  0  0  0  0  0
   34.5480   34.5850   34.2650 H   0  0  0  0  0  0  0  0  0  0  0  0
   36.2620   27.8940   32.7050 C   0  0  0  0  0  0  0  0  0  0  0  0
   35.6200   26.9870   32.5420 H   0  0  0  0  0  0  0  0  0  0  0  0
   36.5740   28.3150   31.7240 H   0  0  0  0  0  0  0  0  0  0  0  0
   38.6880   27.1100   33.0000 C   0  0  0  0  0  0  0  0  0  0  0  0
   37.4770   27.5320   33.4600 C   0  0  0  0  0  0  0  0  0  0  0  0
   37.3740   27.6120   34.8580 C   0  0  0  0  0  0  0  0  0  0  0  0
   36.4480   27.9390   35.3210 H   0  0  0  0  0  0  0  0  0  0  0  0
   38.3740   27.3030   35.7490 C   0  0  0  0  0  0  0  0  0  0  0  0
   38.2360   27.3840   36.8150 H   0  0  0  0  0  0  0  0  0  0  0  0
   39.5920   26.8780   35.2730 C   0  0  0  0  0  3  0  0  0  0  0  0
   39.7060   26.7960   33.9070 C   0  0  0  0  0  3  0  0  0  0  0  0
   40.3520   26.6730   31.1750 H   0  0  0  0  0  0  0  0  0  0  0  0
   38.9980   26.9780   31.2980 S   0  0  0  0  0  0  0  0  0  0  0  0
   38.8070   28.2470   30.5560 O   0  0  0  0  0  0  0  0  0  0  0  0
   38.1900   25.8300   30.7440 O   0  0  0  0  0  0  0  0  0  0  0  0
  1  4  1  6  0  0  0
  1  2  1  0  0  0  0
  1  8  1  0  0  0  0
  2  5  1  1  0  0  0
  3  1  1  0  0  0  0
  3  2  1  0  0  0  0
  3  6  1  0  0  0  0
  7  3  1  0  0  0  0
  8  9  1  0  0  0  0
  9 14  1  0  0  0  0
  9 10  2  0  0  0  0
 10 15  1  0  0  0  0
 11 10  1  0  0  0  0
 12 11  2  0  0  0  0
 13  8  2  0  0  0  0
 13 12  1  0  0  0  0
 16 12  1  0  0  0  0
 17 21  1  0  0  0  0
 17  2  1  0  0  0  0
 18 17  1  0  0  0  0
 19 17  1  0  0  0  0
 20 21  2  0  0  0  0
 20 27  1  0  0  0  0
 21 22  1  0  0  0  0
 22 23  1  0  0  0  0
 22 24  2  0  0  0  0
 24 25  1  0  0  0  0
 26 24  1  0  0  0  0
 27 26  2  0  0  0  0
 28 29  1  0  0  0  0
 29 20  1  0  0  0  0
 30 29  2  0  0  0  0
 31 29  2  0  0  0  0
M  END
>  <minimizedAffinity>
-4.70847845

$$$$

 OpenBabel03272501133D

 31 33  0  0  1  0  0  0  0  0999 V2000
   38.7460   26.2400   34.7640 C   0  0  1  0  0  0  0  0  0  0  0  0
   37.4380   26.8290   34.5780 C   0  0  1  0  0  0  0  0  0  0  0  0
   38.3320   27.4470   35.6010 C   0  0  0  0  0  0  0  0  0  0  0  0
   39.5930   26.4230   34.0520 H   0  0  0  0  0  0  0  0  0  0  0  0
   36.5850   26.2280   35.0230 H   0  0  0  0  0  0  0  0  0  0  0  0
   38.1090   27.2990   36.6790 H   0  0  0  0  0  0  0  0  0  0  0  0
   38.8900   28.3750   35.3760 H   0  0  0  0  0  0  0  0  0  0  0  0
   38.9220   24.9960   35.6210 C   0  0  0  0  0  0  0  0  0  0  0  0
   37.8380   24.6690   36.4350 C   0  0  0  0  0  0  0  0  0  0  0  0
   38.0280   23.5320   37.2300 C   0  0  0  0  0  0  0  0  0  0  0  0
   39.1960   22.8240   37.1850 N   0  0  0  0  0  0  0  0  0  0  0  0
   40.2130   23.2010   36.3660 C   0  0  0  0  0  0  0  0  0  0  0  0
   40.0720   24.3030   35.5730 N   0  0  0  0  0  0  0  0  0  0  0  0
   36.9250   25.2450   36.4530 H   0  0  0  0  0  0  0  0  0  0  0  0
   37.2360   23.2020   37.8980 H   0  0  0  0  0  0  0  0  0  0  0  0
   41.1550   22.6770   36.2940 H   0  0  0  0  0  0  0  0  0  0  0  0
   37.1660   27.5200   33.2580 C   0  0  0  0  0  0  0  0  0  0  0  0
   36.0620   27.4680   33.0570 H   0  0  0  0  0  0  0  0  0  0  0  0
   37.4890   28.5840   33.2940 H   0  0  0  0  0  0  0  0  0  0  0  0
   37.5710   25.7530   31.4430 C   0  0  0  0  0  0  0  0  0  0  0  0
   37.9150   26.8450   32.1810 C   0  0  0  0  0  0  0  0  0  0  0  0
   39.1740   27.3860   31.8800 C   0  0  0  0  0  0  0  0  0  0  0  0
   39.5370   28.2580   32.4150 H   0  0  0  0  0  0  0  0  0  0  0  0
   40.0420   26.9030   30.9300 C   0  0  0  0  0  0  0  0  0  0  0  0
   40.9990   27.3620   30.7430 H   0  0  0  0  0  0  0  0  0  0  0  0
   39.6850   25.8000   30.1910 C   0  0  0  0  0  3  0  0  0  0  0  0
   38.4540   25.2610   30.4750 C   0  0  0  0  0  3  0  0  0  0  0  0
   35.6120   25.3130   32.9470 H   0  0  0  0  0  0  0  0  0  0  0  0
   36.0380   24.9710   31.6650 S   0  0  0  0  0  0  0  0  0  0  0  0
   36.1170   23.4900   31.6530 O   0  0  0  0  0  0  0  0  0  0  0  0
   35.0580   25.5280   30.6630 O   0  0  0  0  0  0  0  0  0  0  0  0
  1  4  1  6  0  0  0
  1  3  1  0  0  0  0
  1  8  1  0  0  0  0
  2  1  1  0  0  0  0
  2  5  1  1  0  0  0
  2  3  1  0  0  0  0
  3  6  1  0  0  0  0
  7  3  1  0  0  0  0
  8  9  1  0  0  0  0
  9 14  1  0  0  0  0
  9 10  2  0  0  0  0
 10 15  1  0  0  0  0
 11 10  1  0  0  0  0
 12 11  2  0  0  0  0
 13  8  2  0  0  0  0
 13 12  1  0  0  0  0
 16 12  1  0  0  0  0
 17 19  1  0  0  0  0
 17  2  1  0  0  0  0
 18 17  1  0  0  0  0
 20 29  1  0  0  0  0
 20 21  1  0  0  0  0
 21 17  1  0  0  0  0
 22 21  2  0  0  0  0
 22 23  1  0  0  0  0
 24 22  1  0  0  0  0
 25 24  1  0  0  0  0
 26 27  1  0  0  0  0
 26 24  2  0  0  0  0
 27 20  2  0  0  0  0
 29 28  1  0  0  0  0
 30 29  2  0  0  0  0
 31 29  2  0  0  0  0
M  END
>  <minimizedAffinity>
-4.67540503

$$$$
