
 OpenBabel03272510023D

 24 25  0  0  0  0  0  0  0  0999 V2000
   37.6670   32.2600   49.5210 C   0  0  0  0  0  0  0  0  0  0  0  0
   37.8270   32.1110   48.1250 C   0  0  0  0  0  0  0  0  0  0  0  0
   37.1530   31.0810   47.4900 C   0  0  0  0  0  0  0  0  0  0  0  0
   36.3860   30.2910   48.2770 N   0  0  0  0  0  0  0  0  0  0  0  0
   36.2410   30.4400   49.5950 C   0  0  0  0  0  0  0  0  0  0  0  0
   36.8840   31.4260   50.2100 N   0  0  0  0  0  0  0  0  0  0  0  0
   38.1540   33.0260   50.0740 H   0  0  0  0  0  0  0  0  0  0  0  0
   38.4630   32.7940   47.5900 H   0  0  0  0  0  0  0  0  0  0  0  0
   38.4190   31.1110   45.3840 C   0  0  0  0  0  0  0  0  0  0  0  0
   37.2550   30.8480   46.0570 C   0  0  0  0  0  0  0  0  0  0  0  0
   36.2120   30.3630   45.3120 C   0  0  0  0  0  0  0  0  0  0  0  0
   35.2530   30.1250   45.7510 H   0  0  0  0  0  0  0  0  0  0  0  0
   36.2570   30.1260   43.9550 C   0  0  0  0  0  0  0  0  0  0  0  0
   35.4280   29.7430   43.3840 H   0  0  0  0  0  0  0  0  0  0  0  0
   37.4260   30.3880   43.2720 C   0  0  0  0  0  3  0  0  0  0  0  0
   38.4820   30.8770   44.0090 C   0  0  0  0  0  3  0  0  0  0  0  0
   39.8170   31.5480   47.5310 H   0  0  0  0  0  0  0  0  0  0  0  0
   39.8410   31.7340   46.1870 S   0  0  0  0  0  0  0  0  0  0  0  0
   40.0770   33.1900   45.8030 O   0  0  0  0  0  0  0  0  0  0  0  0
   41.0700   31.0080   45.6870 O   0  0  0  0  0  0  0  0  0  0  0  0
   35.3590   29.4860   50.3040 C   0  0  0  0  0  0  0  0  0  0  0  0
   35.7410   29.3000   51.6310 F   0  0  0  0  0  0  0  0  0  0  0  0
   34.0370   29.9580   50.3610 F   0  0  0  0  0  0  0  0  0  0  0  0
   35.2870   28.2470   49.7440 F   0  0  0  0  0  0  0  0  0  0  0  0
  1  7  1  0  0  0  0
  1  6  1  0  0  0  0
  2  1  2  0  0  0  0
  3  2  1  0  0  0  0
  3  4  2  0  0  0  0
  4  5  1  0  0  0  0
  5  6  2  0  0  0  0
  5 21  1  0  0  0  0
  8  2  1  0  0  0  0
  9 10  1  0  0  0  0
  9 18  1  0  0  0  0
 10  3  1  0  0  0  0
 11 12  1  0  0  0  0
 11 10  2  0  0  0  0
 13 11  1  0  0  0  0
 14 13  1  0  0  0  0
 15 13  2  0  0  0  0
 15 16  1  0  0  0  0
 16  9  2  0  0  0  0
 18 17  1  0  0  0  0
 19 18  2  0  0  0  0
 20 18  2  0  0  0  0
 21 23  1  0  0  0  0
 21 22  1  0  0  0  0
 24 21  1  0  0  0  0
M  END
>  <minimizedAffinity>
-5.61815596

>  <minimizedRMSD>
1.82281697

$$$$
