
 OpenBabel03272500223D

 40 42  0  0  0  0  0  0  0  0999 V2000
   35.4800   29.1590   50.3920 C   0  0  0  0  0  0  0  0  0  0  0  0
   36.3140   30.0690   49.6980 C   0  0  0  0  0  0  0  0  0  0  0  0
   36.2140   30.1700   48.3120 C   0  0  0  0  0  0  0  0  0  0  0  0
   35.2950   29.3650   47.6840 N   0  0  0  0  0  0  0  0  0  0  0  0
   34.5230   28.5200   48.3410 C   0  0  0  0  0  0  0  0  0  0  0  0
   34.5970   28.4000   49.6930 N   0  0  0  0  0  0  0  0  0  0  0  0
   35.5780   29.1010   51.4670 H   0  0  0  0  0  0  0  0  0  0  0  0
   32.6040   30.0290   46.5570 Cl  0  0  0  0  0  0  0  0  0  0  0  0
   32.6220   28.2770   46.7430 C   0  0  0  0  0  0  0  0  0  0  0  0
   33.5610   27.6900   47.6020 C   0  0  0  0  0  0  0  0  0  0  0  0
   33.6200   26.3130   47.7860 C   0  0  0  0  0  0  0  0  0  0  0  0
   32.6930   25.5490   47.0720 C   0  0  0  0  0  0  0  0  0  0  0  0
   31.7690   26.1120   46.2280 C   0  0  0  0  0  0  0  0  0  0  0  0
   30.6660   25.0410   45.3930 Cl  0  0  0  0  0  0  0  0  0  0  0  0
   31.7440   27.4870   46.0720 C   0  0  0  0  0  0  0  0  0  0  0  0
   34.3470   25.8740   48.4490 H   0  0  0  0  0  0  0  0  0  0  0  0
   32.7930   24.4820   47.2610 H   0  0  0  0  0  0  0  0  0  0  0  0
   30.7460   28.1040   45.1620 C   0  0  0  0  0  0  0  0  0  0  0  0
   29.7620   27.1680   44.8070 F   0  0  0  0  0  0  0  0  0  0  0  0
   31.3200   28.6500   44.0530 F   0  0  0  0  0  0  0  0  0  0  0  0
   30.0860   29.1190   45.8120 F   0  0  0  0  0  0  0  0  0  0  0  0
   37.2710   30.8870   50.5130 C   0  0  0  0  0  0  0  0  0  0  0  0
   38.5520   30.8180   49.9890 F   0  0  0  0  0  0  0  0  0  0  0  0
   36.8710   32.2100   50.4230 F   0  0  0  0  0  0  0  0  0  0  0  0
   37.2840   30.5490   51.8380 F   0  0  0  0  0  0  0  0  0  0  0  0
   37.0730   31.1060   47.5980 C   0  0  0  0  0  0  0  0  0  0  0  0
   38.1250   31.1690   47.9750 H   0  0  0  0  0  0  0  0  0  0  0  0
   36.6740   32.1290   47.7700 H   0  0  0  0  0  0  0  0  0  0  0  0
   38.4010   31.0210   45.5010 C   0  0  0  0  0  0  0  0  0  0  0  0
   37.2020   30.8140   46.1520 C   0  0  0  0  0  0  0  0  0  0  0  0
   36.0760   30.3310   45.4900 C   0  0  0  0  0  0  0  0  0  0  0  0
   35.1540   30.1850   46.0500 H   0  0  0  0  0  0  0  0  0  0  0  0
   36.1180   30.0380   44.1500 C   0  0  0  0  0  0  0  0  0  0  0  0
   35.2130   29.6650   43.6880 H   0  0  0  0  0  0  0  0  0  0  0  0
   37.3000   30.2300   43.4580 C   0  0  0  0  0  3  0  0  0  0  0  0
   38.3930   30.7120   44.1500 C   0  0  0  0  0  3  0  0  0  0  0  0
   40.0190   31.0080   47.5230 H   0  0  0  0  0  0  0  0  0  0  0  0
   39.8030   31.6180   46.2910 S   0  0  0  0  0  0  0  0  0  0  0  0
   41.0180   31.1780   45.4790 O   0  0  0  0  0  0  0  0  0  0  0  0
   39.9200   33.0900   46.3910 O   0  0  0  0  0  0  0  0  0  0  0  0
  1  7  1  0  0  0  0
  2  1  1  0  0  0  0
  2 22  1  0  0  0  0
  3  2  2  0  0  0  0
  4  3  1  0  0  0  0
  4  5  2  0  0  0  0
  5  6  1  0  0  0  0
  6  1  2  0  0  0  0
  8  9  1  0  0  0  0
  9 10  1  0  0  0  0
 10 11  2  0  0  0  0
 10  5  1  0  0  0  0
 11 16  1  0  0  0  0
 12 17  1  0  0  0  0
 12 11  1  0  0  0  0
 13 12  2  0  0  0  0
 14 13  1  0  0  0  0
 15 13  1  0  0  0  0
 15  9  2  0  0  0  0
 18 21  1  0  0  0  0
 18 15  1  0  0  0  0
 19 18  1  0  0  0  0
 20 18  1  0  0  0  0
 22 25  1  0  0  0  0
 23 22  1  0  0  0  0
 24 22  1  0  0  0  0
 26 28  1  0  0  0  0
 26 27  1  0  0  0  0
 26  3  1  0  0  0  0
 29 30  1  0  0  0  0
 29 38  1  0  0  0  0
 30 26  1  0  0  0  0
 31 32  1  0  0  0  0
 31 30  2  0  0  0  0
 33 31  1  0  0  0  0
 34 33  1  0  0  0  0
 35 36  1  0  0  0  0
 35 33  2  0  0  0  0
 36 29  2  0  0  0  0
 38 40  2  0  0  0  0
 38 37  1  0  0  0  0
 39 38  2  0  0  0  0
M  END
>  <minimizedAffinity>
-6.68084812

>  <minimizedRMSD>
0.580568612

$$$$
