
 OpenBabel03272507243D

 33 35  0  0  1  0  0  0  0  0999 V2000
   36.6080   23.7230   31.1980 C   0  0  0  0  0  0  0  0  0  0  0  0
   36.5820   24.7680   32.1500 C   0  0  0  0  0  0  0  0  0  0  0  0
   37.6240   24.8280   33.0660 C   0  0  0  0  0  0  0  0  0  0  0  0
   38.5710   23.8830   32.9670 N   0  0  0  0  0  0  0  0  0  0  0  0
   38.6020   22.8860   32.0620 C   0  0  0  0  0  0  0  0  0  0  0  0
   37.5960   22.8200   31.1710 N   0  0  0  0  0  0  0  0  0  0  0  0
   37.7020   25.8210   34.0550 N   0  0  0  0  0  0  0  0  0  0  0  0
   37.1420   27.1670   33.9040 C   0  0  0  0  0  0  0  0  0  0  0  0
   37.5230   27.9070   35.1550 C   0  0  0  0  0  0  0  0  0  0  0  0
   38.7570   27.1690   35.5690 C   0  0  0  0  0  0  0  0  0  0  0  0
   38.2910   25.7480   35.3330 C   0  0  2  0  0  0  0  0  0  0  0  0
   35.7820   23.7030   30.4980 H   0  0  0  0  0  0  0  0  0  0  0  0
   35.7850   25.5000   32.1740 H   0  0  0  0  0  0  0  0  0  0  0  0
   39.4310   22.1900   32.0980 H   0  0  0  0  0  0  0  0  0  0  0  0
   36.0690   27.1540   33.6960 H   0  0  0  0  0  0  0  0  0  0  0  0
   37.6490   27.6550   33.0400 H   0  0  0  0  0  0  0  0  0  0  0  0
   37.8140   28.9610   34.9470 H   0  0  0  0  0  0  0  0  0  0  0  0
   36.7510   27.9160   35.9350 H   0  0  0  0  0  0  0  0  0  0  0  0
   39.6370   27.4390   34.9840 H   0  0  0  0  0  0  0  0  0  0  0  0
   38.9560   27.2820   36.6690 H   0  0  0  0  0  0  0  0  0  0  0  0
   37.4710   25.5430   36.0640 H   0  0  0  0  0  0  0  0  0  0  0  0
   39.2500   23.6420   36.2890 C   0  0  0  0  0  0  0  0  0  0  0  0
   39.3940   24.7900   35.5300 C   0  0  0  0  0  0  0  0  0  0  0  0
   40.6660   24.9330   35.0310 C   0  0  0  0  0  0  0  0  0  0  0  0
   40.9140   25.8060   34.4280 H   0  0  0  0  0  0  0  0  0  0  0  0
   41.7140   24.0740   35.2240 C   0  0  0  0  0  0  0  0  0  0  0  0
   42.7010   24.2460   34.7980 H   0  0  0  0  0  0  0  0  0  0  0  0
   41.5010   22.9450   35.9930 C   0  0  0  0  0  3  0  0  0  0  0  0
   40.2530   22.7390   36.5250 C   0  0  0  0  0  3  0  0  0  0  0  0
   36.8230   24.3980   36.8290 H   0  0  0  0  0  0  0  0  0  0  0  0
   37.6660   23.3140   37.0060 S   0  0  0  0  0  0  0  0  0  0  0  0
   37.1210   22.1100   36.2690 O   0  0  0  0  0  0  0  0  0  0  0  0
   37.7810   23.0630   38.4610 O   0  0  0  0  0  0  0  0  0  0  0  0
  1  2  1  0  0  0  0
  2 13  1  0  0  0  0
  2  3  2  0  0  0  0
  3  7  1  0  0  0  0
  4  3  1  0  0  0  0
  5 14  1  0  0  0  0
  5  4  2  0  0  0  0
  6  1  2  0  0  0  0
  6  5  1  0  0  0  0
  7 11  1  0  0  0  0
  8  7  1  0  0  0  0
  8  9  1  0  0  0  0
  9 10  1  0  0  0  0
  9 18  1  0  0  0  0
 10 20  1  0  0  0  0
 11 23  1  0  0  0  0
 11 10  1  0  0  0  0
 11 21  1  1  0  0  0
 12  1  1  0  0  0  0
 15  8  1  0  0  0  0
 16  8  1  0  0  0  0
 17  9  1  0  0  0  0
 19 10  1  0  0  0  0
 22 29  1  0  0  0  0
 22 31  1  0  0  0  0
 23 22  2  0  0  0  0
 24 26  2  0  0  0  0
 24 23  1  0  0  0  0
 25 24  1  0  0  0  0
 26 28  1  0  0  0  0
 27 26  1  0  0  0  0
 28 29  2  0  0  0  0
 30 31  1  0  0  0  0
 31 33  2  0  0  0  0
 32 31  2  0  0  0  0
M  END
>  <minimizedAffinity>
-5.22350836

$$$$

 OpenBabel03272507243D

 33 35  0  0  1  0  0  0  0  0999 V2000
   36.5980   22.6510   31.8130 C   0  0  0  0  0  0  0  0  0  0  0  0
   37.3600   23.3660   32.7640 C   0  0  0  0  0  0  0  0  0  0  0  0
   37.1680   24.7390   32.8420 C   0  0  0  0  0  0  0  0  0  0  0  0
   36.2680   25.2720   32.0020 N   0  0  0  0  0  0  0  0  0  0  0  0
   35.5380   24.5960   31.0940 C   0  0  0  0  0  0  0  0  0  0  0  0
   35.7190   23.2660   31.0110 N   0  0  0  0  0  0  0  0  0  0  0  0
   37.8700   25.5490   33.7490 N   0  0  0  0  0  0  0  0  0  0  0  0
   38.3680   25.0780   35.0450 C   0  0  0  0  0  0  0  0  0  0  0  0
   38.9760   26.2820   35.7060 C   0  0  0  0  0  0  0  0  0  0  0  0
   38.2140   27.3930   35.0540 C   0  0  0  0  0  0  0  0  0  0  0  0
   38.2340   26.9040   33.6210 C   0  0  2  0  0  0  0  0  0  0  0  0
   36.7710   21.5830   31.7750 H   0  0  0  0  0  0  0  0  0  0  0  0
   38.0720   22.8720   33.4130 H   0  0  0  0  0  0  0  0  0  0  0  0
   34.8450   25.1570   30.4780 H   0  0  0  0  0  0  0  0  0  0  0  0
   39.0440   24.2250   34.9500 H   0  0  0  0  0  0  0  0  0  0  0  0
   37.4910   24.7510   35.6510 H   0  0  0  0  0  0  0  0  0  0  0  0
   38.7560   26.3180   36.7970 H   0  0  0  0  0  0  0  0  0  0  0  0
   40.0610   26.3780   35.5760 H   0  0  0  0  0  0  0  0  0  0  0  0
   37.2080   27.5180   35.4550 H   0  0  0  0  0  0  0  0  0  0  0  0
   38.7840   28.3610   35.0900 H   0  0  0  0  0  0  0  0  0  0  0  0
   39.2980   26.9290   33.2780 H   0  0  0  0  0  0  0  0  0  0  0  0
   37.7840   28.1050   31.4720 C   0  0  0  0  0  0  0  0  0  0  0  0
   37.4050   27.7630   32.7570 C   0  0  0  0  0  0  0  0  0  0  0  0
   36.2120   28.3380   33.1240 C   0  0  0  0  0  0  0  0  0  0  0  0
   35.8110   28.1590   34.1200 H   0  0  0  0  0  0  0  0  0  0  0  0
   35.4390   29.1620   32.3520 C   0  0  0  0  0  0  0  0  0  0  0  0
   34.5000   29.5860   32.7020 H   0  0  0  0  0  0  0  0  0  0  0  0
   35.8770   29.4620   31.0740 C   0  0  0  0  0  3  0  0  0  0  0  0
   37.0620   28.9220   30.6430 C   0  0  0  0  0  3  0  0  0  0  0  0
   40.1570   27.1330   31.8940 H   0  0  0  0  0  0  0  0  0  0  0  0
   39.3030   27.4430   30.8500 S   0  0  0  0  0  0  0  0  0  0  0  0
   38.9280   26.1850   30.0980 O   0  0  0  0  0  0  0  0  0  0  0  0
   39.9920   28.4210   29.9770 O   0  0  0  0  0  0  0  0  0  0  0  0
  1  2  1  0  0  0  0
  2  3  2  0  0  0  0
  2 13  1  0  0  0  0
  3  7  1  0  0  0  0
  4  3  1  0  0  0  0
  5  4  2  0  0  0  0
  6  5  1  0  0  0  0
  6  1  2  0  0  0  0
  7  8  1  0  0  0  0
  8 16  1  0  0  0  0
  8  9  1  0  0  0  0
  9 17  1  0  0  0  0
 10 20  1  0  0  0  0
 10 19  1  0  0  0  0
 10  9  1  0  0  0  0
 11 21  1  6  0  0  0
 11  7  1  0  0  0  0
 11 10  1  0  0  0  0
 12  1  1  0  0  0  0
 14  5  1  0  0  0  0
 15  8  1  0  0  0  0
 18  9  1  0  0  0  0
 22 23  1  0  0  0  0
 23 24  2  0  0  0  0
 23 11  1  0  0  0  0
 24 25  1  0  0  0  0
 26 27  1  0  0  0  0
 26 24  1  0  0  0  0
 28 26  2  0  0  0  0
 29 28  1  0  0  0  0
 29 22  2  0  0  0  0
 31 22  1  0  0  0  0
 31 30  1  0  0  0  0
 32 31  2  0  0  0  0
 33 31  2  0  0  0  0
M  END
>  <minimizedAffinity>
-4.9186759

$$$$

 OpenBabel03272507243D

 33 35  0  0  1  0  0  0  0  0999 V2000
   39.4740   24.1480   35.3330 C   0  0  0  0  0  0  0  0  0  0  0  0
   38.7710   24.7560   34.2680 C   0  0  0  0  0  0  0  0  0  0  0  0
   37.8510   23.9780   33.5780 C   0  0  0  0  0  0  0  0  0  0  0  0
   37.7070   22.7090   33.9840 N   0  0  0  0  0  0  0  0  0  0  0  0
   38.3720   22.1230   34.9990 C   0  0  0  0  0  0  0  0  0  0  0  0
   39.2660   22.8690   35.6720 N   0  0  0  0  0  0  0  0  0  0  0  0
   37.0960   24.4780   32.5040 N   0  0  0  0  0  0  0  0  0  0  0  0
   36.7090   25.8850   32.3650 C   0  0  0  0  0  0  0  0  0  0  0  0
   35.8560   25.9490   31.1300 C   0  0  0  0  0  0  0  0  0  0  0  0
   35.3190   24.5540   31.0690 C   0  0  0  0  0  0  0  0  0  0  0  0
   36.5840   23.7840   31.3900 C   0  0  2  0  0  0  0  0  0  0  0  0
   40.1840   24.7790   35.8520 H   0  0  0  0  0  0  0  0  0  0  0  0
   38.9360   25.7900   33.9910 H   0  0  0  0  0  0  0  0  0  0  0  0
   38.1560   21.0850   35.2190 H   0  0  0  0  0  0  0  0  0  0  0  0
   37.5690   26.5580   32.3550 H   0  0  0  0  0  0  0  0  0  0  0  0
   36.0770   26.1540   33.2430 H   0  0  0  0  0  0  0  0  0  0  0  0
   34.9890   26.6380   31.2540 H   0  0  0  0  0  0  0  0  0  0  0  0
   36.3920   26.2390   30.2180 H   0  0  0  0  0  0  0  0  0  0  0  0
   34.5110   24.3710   31.7780 H   0  0  0  0  0  0  0  0  0  0  0  0
   35.0100   24.2760   30.0250 H   0  0  0  0  0  0  0  0  0  0  0  0
   37.2950   23.9490   30.5430 H   0  0  0  0  0  0  0  0  0  0  0  0
   37.1580   21.3710   31.0580 C   0  0  0  0  0  0  0  0  0  0  0  0
   36.3040   22.3460   31.5410 C   0  0  0  0  0  0  0  0  0  0  0  0
   35.1820   21.8150   32.1300 C   0  0  0  0  0  0  0  0  0  0  0  0
   34.4210   22.4800   32.5370 H   0  0  0  0  0  0  0  0  0  0  0  0
   34.8850   20.4850   32.2570 C   0  0  0  0  0  0  0  0  0  0  0  0
   33.9750   20.1290   32.7360 H   0  0  0  0  0  0  0  0  0  0  0  0
   35.7840   19.5630   31.7520 C   0  0  0  0  0  3  0  0  0  0  0  0
   36.9270   20.0230   31.1490 C   0  0  0  0  0  3  0  0  0  0  0  0
   38.5130   23.1800   29.7740 H   0  0  0  0  0  0  0  0  0  0  0  0
   38.6530   21.8940   30.2680 S   0  0  0  0  0  0  0  0  0  0  0  0
   39.7190   21.8670   31.3420 O   0  0  0  0  0  0  0  0  0  0  0  0
   38.9940   21.0070   29.1320 O   0  0  0  0  0  0  0  0  0  0  0  0
  1  6  1  0  0  0  0
  1 12  1  0  0  0  0
  2  1  2  0  0  0  0
  3  4  2  0  0  0  0
  3  2  1  0  0  0  0
  4  5  1  0  0  0  0
  5 14  1  0  0  0  0
  5  6  2  0  0  0  0
  7  3  1  0  0  0  0
  8  7  1  0  0  0  0
  8 16  1  0  0  0  0
  9 17  1  0  0  0  0
  9  8  1  0  0  0  0
 10  9  1  0  0  0  0
 10 11  1  0  0  0  0
 10 19  1  0  0  0  0
 11 21  1  6  0  0  0
 11 23  1  0  0  0  0
 11  7  1  0  0  0  0
 13  2  1  0  0  0  0
 15  8  1  0  0  0  0
 18  9  1  0  0  0  0
 20 10  1  0  0  0  0
 22 29  2  0  0  0  0
 22 23  1  0  0  0  0
 23 24  2  0  0  0  0
 24 26  1  0  0  0  0
 24 25  1  0  0  0  0
 26 27  1  0  0  0  0
 28 26  2  0  0  0  0
 29 28  1  0  0  0  0
 30 31  1  0  0  0  0
 31 22  1  0  0  0  0
 31 32  2  0  0  0  0
 33 31  2  0  0  0  0
M  END
>  <minimizedAffinity>
-4.87814951

$$$$

 OpenBabel03272507243D

 33 35  0  0  1  0  0  0  0  0999 V2000
   39.8690   26.6840   32.7140 C   0  0  0  0  0  0  0  0  0  0  0  0
   39.2990   25.4060   32.5120 C   0  0  0  0  0  0  0  0  0  0  0  0
   38.9150   24.6890   33.6380 C   0  0  0  0  0  0  0  0  0  0  0  0
   39.1180   25.2750   34.8270 N   0  0  0  0  0  0  0  0  0  0  0  0
   39.6600   26.4930   35.0250 C   0  0  0  0  0  0  0  0  0  0  0  0
   40.0360   27.1940   33.9400 N   0  0  0  0  0  0  0  0  0  0  0  0
   38.3380   23.4110   33.5580 N   0  0  0  0  0  0  0  0  0  0  0  0
   37.5380   22.9480   32.4200 C   0  0  0  0  0  0  0  0  0  0  0  0
   37.0650   21.5710   32.7920 C   0  0  0  0  0  0  0  0  0  0  0  0
   37.0780   21.6490   34.2860 C   0  0  0  0  0  0  0  0  0  0  0  0
   38.4030   22.3560   34.4890 C   0  0  2  0  0  0  0  0  0  0  0  0
   40.1580   27.2180   31.8180 H   0  0  0  0  0  0  0  0  0  0  0  0
   39.1620   24.9910   31.5220 H   0  0  0  0  0  0  0  0  0  0  0  0
   39.7660   26.8440   36.0450 H   0  0  0  0  0  0  0  0  0  0  0  0
   38.0850   22.9980   31.4750 H   0  0  0  0  0  0  0  0  0  0  0  0
   36.6490   23.6140   32.3330 H   0  0  0  0  0  0  0  0  0  0  0  0
   36.0130   21.3900   32.4730 H   0  0  0  0  0  0  0  0  0  0  0  0
   37.6830   20.7530   32.4030 H   0  0  0  0  0  0  0  0  0  0  0  0
   36.2290   22.1960   34.6970 H   0  0  0  0  0  0  0  0  0  0  0  0
   37.1640   20.6300   34.7510 H   0  0  0  0  0  0  0  0  0  0  0  0
   39.2050   21.6590   34.1430 H   0  0  0  0  0  0  0  0  0  0  0  0
   39.8360   22.5670   36.5300 C   0  0  0  0  0  0  0  0  0  0  0  0
   38.6080   22.6980   35.9070 C   0  0  0  0  0  0  0  0  0  0  0  0
   37.6290   23.1420   36.7640 C   0  0  0  0  0  0  0  0  0  0  0  0
   36.6120   23.2730   36.3990 H   0  0  0  0  0  0  0  0  0  0  0  0
   37.7880   23.4390   38.0910 C   0  0  0  0  0  0  0  0  0  0  0  0
   36.9690   23.7880   38.7170 H   0  0  0  0  0  0  0  0  0  0  0  0
   39.0430   23.2850   38.6500 C   0  0  0  0  0  3  0  0  0  0  0  0
   40.0680   22.8440   37.8510 C   0  0  0  0  0  3  0  0  0  0  0  0
   40.7550   21.2500   34.4860 H   0  0  0  0  0  0  0  0  0  0  0  0
   41.2030   22.0010   35.5590 S   0  0  0  0  0  0  0  0  0  0  0  0
   41.8990   23.2490   35.0600 O   0  0  0  0  0  0  0  0  0  0  0  0
   42.1110   21.1490   36.3600 O   0  0  0  0  0  0  0  0  0  0  0  0
  1  6  1  0  0  0  0
  2  1  2  0  0  0  0
  2  3  1  0  0  0  0
  3  4  2  0  0  0  0
  4  5  1  0  0  0  0
  5 14  1  0  0  0  0
  6  5  2  0  0  0  0
  7  3  1  0  0  0  0
  7 11  1  0  0  0  0
  8  9  1  0  0  0  0
  8  7  1  0  0  0  0
  9 10  1  0  0  0  0
 10 11  1  0  0  0  0
 10 19  1  0  0  0  0
 10 20  1  0  0  0  0
 11 21  1  6  0  0  0
 11 23  1  0  0  0  0
 12  1  1  0  0  0  0
 13  2  1  0  0  0  0
 15  8  1  0  0  0  0
 16  8  1  0  0  0  0
 17  9  1  0  0  0  0
 18  9  1  0  0  0  0
 22 29  1  0  0  0  0
 23 22  2  0  0  0  0
 23 24  1  0  0  0  0
 24 26  2  0  0  0  0
 25 24  1  0  0  0  0
 26 28  1  0  0  0  0
 26 27  1  0  0  0  0
 29 28  2  0  0  0  0
 30 31  1  0  0  0  0
 31 33  2  0  0  0  0
 31 22  1  0  0  0  0
 32 31  2  0  0  0  0
M  END
>  <minimizedAffinity>
-4.82773161

$$$$

 OpenBabel03272507243D

 33 35  0  0  1  0  0  0  0  0999 V2000
   38.4730   22.4390   36.1890 C   0  0  0  0  0  0  0  0  0  0  0  0
   37.4070   21.9230   35.4180 C   0  0  0  0  0  0  0  0  0  0  0  0
   37.5370   21.9610   34.0360 C   0  0  0  0  0  0  0  0  0  0  0  0
   38.6690   22.4880   33.5490 N   0  0  0  0  0  0  0  0  0  0  0  0
   39.6890   22.9800   34.2790 C   0  0  0  0  0  0  0  0  0  0  0  0
   39.5720   22.9470   35.6180 N   0  0  0  0  0  0  0  0  0  0  0  0
   36.5410   21.4770   33.1710 N   0  0  0  0  0  0  0  0  0  0  0  0
   35.6170   20.3930   33.5190 C   0  0  0  0  0  0  0  0  0  0  0  0
   34.7910   20.1550   32.2860 C   0  0  0  0  0  0  0  0  0  0  0  0
   35.7190   20.6320   31.2140 C   0  0  0  0  0  0  0  0  0  0  0  0
   36.2250   21.9020   31.8660 C   0  0  2  0  0  0  0  0  0  0  0  0
   38.3430   22.3950   37.2630 H   0  0  0  0  0  0  0  0  0  0  0  0
   36.5170   21.5100   35.8760 H   0  0  0  0  0  0  0  0  0  0  0  0
   40.5490   23.3770   33.7510 H   0  0  0  0  0  0  0  0  0  0  0  0
   35.0340   20.6110   34.4180 H   0  0  0  0  0  0  0  0  0  0  0  0
   36.2210   19.4780   33.7190 H   0  0  0  0  0  0  0  0  0  0  0  0
   34.6020   19.0720   32.1110 H   0  0  0  0  0  0  0  0  0  0  0  0
   33.8250   20.6750   32.2750 H   0  0  0  0  0  0  0  0  0  0  0  0
   36.5110   19.9200   30.9810 H   0  0  0  0  0  0  0  0  0  0  0  0
   35.1590   20.9290   30.2860 H   0  0  0  0  0  0  0  0  0  0  0  0
   35.3570   22.6010   31.9470 H   0  0  0  0  0  0  0  0  0  0  0  0
   37.4000   23.8870   30.8950 C   0  0  0  0  0  0  0  0  0  0  0  0
   37.2960   22.5180   31.0630 C   0  0  0  0  0  0  0  0  0  0  0  0
   38.2680   21.8300   30.3780 C   0  0  0  0  0  0  0  0  0  0  0  0
   38.2870   20.7420   30.4160 H   0  0  0  0  0  0  0  0  0  0  0  0
   39.2550   22.3770   29.6020 C   0  0  0  0  0  0  0  0  0  0  0  0
   39.9980   21.7740   29.0840 H   0  0  0  0  0  0  0  0  0  0  0  0
   39.3010   23.7540   29.4780 C   0  0  0  0  0  3  0  0  0  0  0  0
   38.3590   24.5040   30.1350 C   0  0  0  0  0  3  0  0  0  0  0  0
   35.1360   24.1640   32.1410 H   0  0  0  0  0  0  0  0  0  0  0  0
   36.2170   24.9170   31.7140 S   0  0  0  0  0  0  0  0  0  0  0  0
   36.9380   25.5070   32.9070 O   0  0  0  0  0  0  0  0  0  0  0  0
   35.7050   25.9690   30.8060 O   0  0  0  0  0  0  0  0  0  0  0  0
  1 12  1  0  0  0  0
  2 13  1  0  0  0  0
  2  1  2  0  0  0  0
  3  2  1  0  0  0  0
  4  3  2  0  0  0  0
  4  5  1  0  0  0  0
  5  6  2  0  0  0  0
  6  1  1  0  0  0  0
  7  8  1  0  0  0  0
  7  3  1  0  0  0  0
  8 16  1  0  0  0  0
  8 15  1  0  0  0  0
  9  8  1  0  0  0  0
 10 11  1  0  0  0  0
 10  9  1  0  0  0  0
 11 21  1  1  0  0  0
 11  7  1  0  0  0  0
 14  5  1  0  0  0  0
 17  9  1  0  0  0  0
 18  9  1  0  0  0  0
 19 10  1  0  0  0  0
 20 10  1  0  0  0  0
 22 23  1  0  0  0  0
 22 31  1  0  0  0  0
 23 11  1  0  0  0  0
 24 25  1  0  0  0  0
 24 23  2  0  0  0  0
 26 24  1  0  0  0  0
 27 26  1  0  0  0  0
 28 26  2  0  0  0  0
 28 29  1  0  0  0  0
 29 22  2  0  0  0  0
 31 30  1  0  0  0  0
 31 32  2  0  0  0  0
 33 31  2  0  0  0  0
M  END
>  <minimizedAffinity>
-4.81199551

$$$$

 OpenBabel03272507243D

 33 35  0  0  1  0  0  0  0  0999 V2000
   41.8230   27.2930   31.1920 C   0  0  0  0  0  0  0  0  0  0  0  0
   41.1290   27.4360   32.4140 C   0  0  0  0  0  0  0  0  0  0  0  0
   39.9170   26.7720   32.5470 C   0  0  0  0  0  0  0  0  0  0  0  0
   39.5070   26.0460   31.4970 N   0  0  0  0  0  0  0  0  0  0  0  0
   40.1640   25.9050   30.3290 C   0  0  0  0  0  0  0  0  0  0  0  0
   41.3380   26.5450   30.1920 N   0  0  0  0  0  0  0  0  0  0  0  0
   39.1420   26.8430   33.7170 N   0  0  0  0  0  0  0  0  0  0  0  0
   39.7040   27.0510   35.0550 C   0  0  0  0  0  0  0  0  0  0  0  0
   38.5370   26.9790   35.9990 C   0  0  0  0  0  0  0  0  0  0  0  0
   37.5860   26.1210   35.2260 C   0  0  0  0  0  0  0  0  0  0  0  0
   37.7440   26.7430   33.8540 C   0  0  2  0  0  0  0  0  0  0  0  0
   42.7640   27.8230   31.1180 H   0  0  0  0  0  0  0  0  0  0  0  0
   41.5180   28.0400   33.2250 H   0  0  0  0  0  0  0  0  0  0  0  0
   39.7140   25.2850   29.5630 H   0  0  0  0  0  0  0  0  0  0  0  0
   40.2860   27.9730   35.1260 H   0  0  0  0  0  0  0  0  0  0  0  0
   40.3880   26.1990   35.2760 H   0  0  0  0  0  0  0  0  0  0  0  0
   38.7910   26.4380   36.9380 H   0  0  0  0  0  0  0  0  0  0  0  0
   38.1080   27.9510   36.2710 H   0  0  0  0  0  0  0  0  0  0  0  0
   37.8420   25.0610   35.2520 H   0  0  0  0  0  0  0  0  0  0  0  0
   36.5230   26.2860   35.5520 H   0  0  0  0  0  0  0  0  0  0  0  0
   37.3430   27.7840   33.9150 H   0  0  0  0  0  0  0  0  0  0  0  0
   36.1910   26.5840   31.8970 C   0  0  0  0  0  0  0  0  0  0  0  0
   37.0030   25.9760   32.8370 C   0  0  0  0  0  0  0  0  0  0  0  0
   37.0020   24.6060   32.7240 C   0  0  0  0  0  0  0  0  0  0  0  0
   37.5910   24.0070   33.4170 H   0  0  0  0  0  0  0  0  0  0  0  0
   36.3010   23.8690   31.8080 C   0  0  0  0  0  0  0  0  0  0  0  0
   36.3430   22.7830   31.7710 H   0  0  0  0  0  0  0  0  0  0  0  0
   35.5080   24.5420   30.8960 C   0  0  0  0  0  3  0  0  0  0  0  0
   35.4610   25.9130   30.9520 C   0  0  0  0  0  3  0  0  0  0  0  0
   37.0740   28.8870   32.7170 H   0  0  0  0  0  0  0  0  0  0  0  0
   36.0840   28.3510   31.9120 S   0  0  0  0  0  0  0  0  0  0  0  0
   36.2900   28.7890   30.4780 O   0  0  0  0  0  0  0  0  0  0  0  0
   34.7760   28.8010   32.4420 O   0  0  0  0  0  0  0  0  0  0  0  0
  1  2  1  0  0  0  0
  2  3  2  0  0  0  0
  2 13  1  0  0  0  0
  3  7  1  0  0  0  0
  4  3  1  0  0  0  0
  5  4  2  0  0  0  0
  6  5  1  0  0  0  0
  6  1  2  0  0  0  0
  7 11  1  0  0  0  0
  7  8  1  0  0  0  0
  8 15  1  0  0  0  0
  8 16  1  0  0  0  0
  8  9  1  0  0  0  0
  9 18  1  0  0  0  0
  9 17  1  0  0  0  0
 10 19  1  0  0  0  0
 10 20  1  0  0  0  0
 10  9  1  0  0  0  0
 11 21  1  1  0  0  0
 11 10  1  0  0  0  0
 12  1  1  0  0  0  0
 14  5  1  0  0  0  0
 22 31  1  0  0  0  0
 22 23  1  0  0  0  0
 23 11  1  0  0  0  0
 24 23  2  0  0  0  0
 24 25  1  0  0  0  0
 26 24  1  0  0  0  0
 27 26  1  0  0  0  0
 28 29  1  0  0  0  0
 28 26  2  0  0  0  0
 29 22  2  0  0  0  0
 31 33  2  0  0  0  0
 31 30  1  0  0  0  0
 32 31  2  0  0  0  0
M  END
>  <minimizedAffinity>
-4.76960468

$$$$

 OpenBabel03272507243D

 33 35  0  0  1  0  0  0  0  0999 V2000
   37.5310   22.3620   30.9450 C   0  0  0  0  0  0  0  0  0  0  0  0
   38.1850   23.4970   30.4140 C   0  0  0  0  0  0  0  0  0  0  0  0
   38.5070   24.5230   31.2920 C   0  0  0  0  0  0  0  0  0  0  0  0
   38.1680   24.3480   32.5770 N   0  0  0  0  0  0  0  0  0  0  0  0
   37.5450   23.2690   33.0900 C   0  0  0  0  0  0  0  0  0  0  0  0
   37.2290   22.2700   32.2470 N   0  0  0  0  0  0  0  0  0  0  0  0
   39.1570   25.6970   30.8750 N   0  0  0  0  0  0  0  0  0  0  0  0
   40.0780   25.7570   29.7360 C   0  0  0  0  0  0  0  0  0  0  0  0
   40.5910   27.1690   29.7050 C   0  0  0  0  0  0  0  0  0  0  0  0
   40.4420   27.5680   31.1400 C   0  0  0  0  0  0  0  0  0  0  0  0
   39.0680   26.9930   31.4190 C   0  0  2  0  0  0  0  0  0  0  0  0
   37.2930   21.5790   30.2360 H   0  0  0  0  0  0  0  0  0  0  0  0
   38.4310   23.5750   29.3620 H   0  0  0  0  0  0  0  0  0  0  0  0
   37.3310   23.2610   34.1520 H   0  0  0  0  0  0  0  0  0  0  0  0
   39.6150   25.4240   28.8040 H   0  0  0  0  0  0  0  0  0  0  0  0
   40.9340   25.0770   29.9510 H   0  0  0  0  0  0  0  0  0  0  0  0
   41.6750   27.2150   29.4540 H   0  0  0  0  0  0  0  0  0  0  0  0
   40.0540   27.8360   29.0200 H   0  0  0  0  0  0  0  0  0  0  0  0
   41.2200   27.1590   31.7840 H   0  0  0  0  0  0  0  0  0  0  0  0
   40.3710   28.6840   31.2520 H   0  0  0  0  0  0  0  0  0  0  0  0
   38.3380   27.5640   30.7940 H   0  0  0  0  0  0  0  0  0  0  0  0
   37.4590   27.5000   33.2680 C   0  0  0  0  0  0  0  0  0  0  0  0
   38.7200   27.1210   32.8450 C   0  0  0  0  0  0  0  0  0  0  0  0
   39.5870   26.9210   33.8920 C   0  0  0  0  0  0  0  0  0  0  0  0
   40.6180   26.6350   33.6910 H   0  0  0  0  0  0  0  0  0  0  0  0
   39.2970   27.0620   35.2230 C   0  0  0  0  0  0  0  0  0  0  0  0
   40.0320   26.8880   36.0060 H   0  0  0  0  0  0  0  0  0  0  0  0
   38.0150   27.4430   35.5750 C   0  0  0  0  0  3  0  0  0  0  0  0
   37.0970   27.6600   34.5800 C   0  0  0  0  0  3  0  0  0  0  0  0
   36.7970   28.3560   30.9050 H   0  0  0  0  0  0  0  0  0  0  0  0
   36.2250   27.7980   32.0350 S   0  0  0  0  0  0  0  0  0  0  0  0
   35.6390   26.4430   31.7020 O   0  0  0  0  0  0  0  0  0  0  0  0
   35.1920   28.7360   32.5310 O   0  0  0  0  0  0  0  0  0  0  0  0
  1  6  1  0  0  0  0
  2  1  2  0  0  0  0
  2  3  1  0  0  0  0
  3  4  2  0  0  0  0
  4  5  1  0  0  0  0
  5 14  1  0  0  0  0
  6  5  2  0  0  0  0
  7  3  1  0  0  0  0
  7 11  1  0  0  0  0
  8 16  1  0  0  0  0
  8  7  1  0  0  0  0
  9  8  1  0  0  0  0
  9 10  1  0  0  0  0
 10 20  1  0  0  0  0
 10 11  1  0  0  0  0
 10 19  1  0  0  0  0
 11 21  1  6  0  0  0
 11 23  1  0  0  0  0
 12  1  1  0  0  0  0
 13  2  1  0  0  0  0
 15  8  1  0  0  0  0
 17  9  1  0  0  0  0
 18  9  1  0  0  0  0
 22 29  1  0  0  0  0
 23 22  2  0  0  0  0
 23 24  1  0  0  0  0
 24 26  2  0  0  0  0
 25 24  1  0  0  0  0
 26 28  1  0  0  0  0
 26 27  1  0  0  0  0
 29 28  2  0  0  0  0
 30 31  1  0  0  0  0
 31 33  2  0  0  0  0
 31 22  1  0  0  0  0
 32 31  2  0  0  0  0
M  END
>  <minimizedAffinity>
-4.75409174

$$$$

 OpenBabel03272507243D

 33 35  0  0  1  0  0  0  0  0999 V2000
   36.8580   22.3190   31.8760 C   0  0  0  0  0  0  0  0  0  0  0  0
   36.3710   23.6440   31.8290 C   0  0  0  0  0  0  0  0  0  0  0  0
   37.2800   24.6710   32.0510 C   0  0  0  0  0  0  0  0  0  0  0  0
   38.5490   24.3140   32.2920 N   0  0  0  0  0  0  0  0  0  0  0  0
   39.0200   23.0520   32.3380 C   0  0  0  0  0  0  0  0  0  0  0  0
   38.1470   22.0520   32.1250 N   0  0  0  0  0  0  0  0  0  0  0  0
   36.9080   26.0250   32.0270 N   0  0  0  0  0  0  0  0  0  0  0  0
   35.8020   26.5530   31.2220 C   0  0  0  0  0  0  0  0  0  0  0  0
   35.8160   28.0390   31.4400 C   0  0  0  0  0  0  0  0  0  0  0  0
   37.2520   28.2720   31.7900 C   0  0  0  0  0  0  0  0  0  0  0  0
   37.4730   27.1060   32.7320 C   0  0  2  0  0  0  0  0  0  0  0  0
   36.1270   21.5400   31.7000 H   0  0  0  0  0  0  0  0  0  0  0  0
   35.3300   23.8640   31.6280 H   0  0  0  0  0  0  0  0  0  0  0  0
   40.0740   22.9080   32.5450 H   0  0  0  0  0  0  0  0  0  0  0  0
   34.8480   26.0710   31.4530 H   0  0  0  0  0  0  0  0  0  0  0  0
   36.0320   26.3530   30.1500 H   0  0  0  0  0  0  0  0  0  0  0  0
   35.6020   28.6020   30.5040 H   0  0  0  0  0  0  0  0  0  0  0  0
   35.1260   28.3950   32.2150 H   0  0  0  0  0  0  0  0  0  0  0  0
   37.9140   28.2600   30.9240 H   0  0  0  0  0  0  0  0  0  0  0  0
   37.3830   29.2170   32.3840 H   0  0  0  0  0  0  0  0  0  0  0  0
   36.8350   27.2830   33.6330 H   0  0  0  0  0  0  0  0  0  0  0  0
   39.2770   26.6540   34.4070 C   0  0  0  0  0  0  0  0  0  0  0  0
   38.8890   27.0070   33.1280 C   0  0  0  0  0  0  0  0  0  0  0  0
   39.9610   27.2780   32.3110 C   0  0  0  0  0  0  0  0  0  0  0  0
   39.7880   27.5840   31.2800 H   0  0  0  0  0  0  0  0  0  0  0  0
   41.2820   27.2220   32.6620 C   0  0  0  0  0  0  0  0  0  0  0  0
   42.0860   27.4490   31.9650 H   0  0  0  0  0  0  0  0  0  0  0  0
   41.5990   26.8610   33.9590 C   0  0  0  0  0  3  0  0  0  0  0  0
   40.5780   26.5770   34.8300 C   0  0  0  0  0  3  0  0  0  0  0  0
   36.7880   26.7590   35.1490 H   0  0  0  0  0  0  0  0  0  0  0  0
   38.0100   26.2750   35.5840 S   0  0  0  0  0  0  0  0  0  0  0  0
   37.9660   24.7640   35.6700 O   0  0  0  0  0  0  0  0  0  0  0  0
   38.3000   26.8920   36.8980 O   0  0  0  0  0  0  0  0  0  0  0  0
  1  6  1  0  0  0  0
  2  1  2  0  0  0  0
  2  3  1  0  0  0  0
  3  4  2  0  0  0  0
  4  5  1  0  0  0  0
  5 14  1  0  0  0  0
  6  5  2  0  0  0  0
  7  3  1  0  0  0  0
  7 11  1  0  0  0  0
  8  9  1  0  0  0  0
  8 15  1  0  0  0  0
  8  7  1  0  0  0  0
  9 10  1  0  0  0  0
  9 18  1  0  0  0  0
 10 20  1  0  0  0  0
 10 11  1  0  0  0  0
 11 23  1  0  0  0  0
 11 21  1  1  0  0  0
 12  1  1  0  0  0  0
 13  2  1  0  0  0  0
 16  8  1  0  0  0  0
 17  9  1  0  0  0  0
 19 10  1  0  0  0  0
 22 29  1  0  0  0  0
 22 31  1  0  0  0  0
 23 22  2  0  0  0  0
 24 26  2  0  0  0  0
 24 23  1  0  0  0  0
 25 24  1  0  0  0  0
 26 28  1  0  0  0  0
 27 26  1  0  0  0  0
 28 29  2  0  0  0  0
 30 31  1  0  0  0  0
 31 32  2  0  0  0  0
 31 33  2  0  0  0  0
M  END
>  <minimizedAffinity>
-4.72205687

$$$$

 OpenBabel03272507243D

 33 35  0  0  1  0  0  0  0  0999 V2000
   41.3840   21.8030   36.5300 C   0  0  0  0  0  0  0  0  0  0  0  0
   42.0040   22.7750   35.7120 C   0  0  0  0  0  0  0  0  0  0  0  0
   41.3000   23.9450   35.4580 C   0  0  0  0  0  0  0  0  0  0  0  0
   40.0850   24.0520   36.0150 N   0  0  0  0  0  0  0  0  0  0  0  0
   39.4890   23.1300   36.7960 C   0  0  0  0  0  0  0  0  0  0  0  0
   40.1630   21.9940   37.0460 N   0  0  0  0  0  0  0  0  0  0  0  0
   41.8180   24.9780   34.6610 N   0  0  0  0  0  0  0  0  0  0  0  0
   43.2500   25.2600   34.5210 C   0  0  0  0  0  0  0  0  0  0  0  0
   43.3380   26.4820   33.6500 C   0  0  0  0  0  0  0  0  0  0  0  0
   42.0160   27.1300   33.9160 C   0  0  0  0  0  0  0  0  0  0  0  0
   41.1220   25.9080   33.8630 C   0  0  2  0  0  0  0  0  0  0  0  0
   41.9560   20.9020   36.7090 H   0  0  0  0  0  0  0  0  0  0  0  0
   42.9900   22.6240   35.2930 H   0  0  0  0  0  0  0  0  0  0  0  0
   38.4990   23.3500   37.1800 H   0  0  0  0  0  0  0  0  0  0  0  0
   43.8130   24.4000   34.1520 H   0  0  0  0  0  0  0  0  0  0  0  0
   43.6480   25.5190   35.5300 H   0  0  0  0  0  0  0  0  0  0  0  0
   44.1320   27.1840   33.9920 H   0  0  0  0  0  0  0  0  0  0  0  0
   43.5030   26.2740   32.5860 H   0  0  0  0  0  0  0  0  0  0  0  0
   41.9760   27.6520   34.8720 H   0  0  0  0  0  0  0  0  0  0  0  0
   41.7120   27.8080   33.0740 H   0  0  0  0  0  0  0  0  0  0  0  0
   41.1470   25.5260   32.8130 H   0  0  0  0  0  0  0  0  0  0  0  0
   38.6420   25.7610   33.5570 C   0  0  0  0  0  0  0  0  0  0  0  0
   39.7400   26.2470   34.2450 C   0  0  0  0  0  0  0  0  0  0  0  0
   39.3850   27.0850   35.2740 C   0  0  0  0  0  0  0  0  0  0  0  0
   40.1600   27.5470   35.8840 H   0  0  0  0  0  0  0  0  0  0  0  0
   38.1110   27.4390   35.6300 C   0  0  0  0  0  0  0  0  0  0  0  0
   37.8970   28.1100   36.4590 H   0  0  0  0  0  0  0  0  0  0  0  0
   37.0600   26.9160   34.8990 C   0  0  0  0  0  3  0  0  0  0  0  0
   37.3410   26.0710   33.8550 C   0  0  0  0  0  3  0  0  0  0  0  0
   40.1440   24.9560   31.5940 H   0  0  0  0  0  0  0  0  0  0  0  0
   38.9320   24.6660   32.1980 S   0  0  0  0  0  0  0  0  0  0  0  0
   38.9710   23.2740   32.7900 O   0  0  0  0  0  0  0  0  0  0  0  0
   37.8720   24.7970   31.1710 O   0  0  0  0  0  0  0  0  0  0  0  0
  1 12  1  0  0  0  0
  1  6  1  0  0  0  0
  2  1  2  0  0  0  0
  3  2  1  0  0  0  0
  3  4  2  0  0  0  0
  4  5  1  0  0  0  0
  5  6  2  0  0  0  0
  5 14  1  0  0  0  0
  7  3  1  0  0  0  0
  8  7  1  0  0  0  0
  8 16  1  0  0  0  0
  9 10  1  0  0  0  0
  9 17  1  0  0  0  0
  9  8  1  0  0  0  0
 10 19  1  0  0  0  0
 11 21  1  6  0  0  0
 11 10  1  0  0  0  0
 11 23  1  0  0  0  0
 11  7  1  0  0  0  0
 13  2  1  0  0  0  0
 15  8  1  0  0  0  0
 18  9  1  0  0  0  0
 20 10  1  0  0  0  0
 22 29  2  0  0  0  0
 22 23  1  0  0  0  0
 23 24  2  0  0  0  0
 24 26  1  0  0  0  0
 24 25  1  0  0  0  0
 26 27  1  0  0  0  0
 28 26  2  0  0  0  0
 29 28  1  0  0  0  0
 30 31  1  0  0  0  0
 31 32  2  0  0  0  0
 31 22  1  0  0  0  0
 33 31  2  0  0  0  0
M  END
>  <minimizedAffinity>
-4.7059927

$$$$
