
 OpenBabel03272504183D

 29 30  0  0  0  0  0  0  0  0999 V2000
   35.3690   29.9350   46.1890 O   0  0  0  0  0  0  0  0  0  0  0  0
   34.3870   29.7530   47.3040 P   0  0  1  0  0  0  0  0  0  0  0  0
   34.4140   28.1810   47.9400 O   0  0  0  0  0  0  0  0  0  0  0  0
   33.7370   28.1390   48.6480 H   0  0  0  0  0  0  0  0  0  0  0  0
   34.7250   30.8020   48.6340 O   0  0  0  0  0  0  0  0  0  0  0  0
   35.9210   30.7470   49.3340 C   0  0  0  0  0  0  0  0  0  0  0  0
   36.1770   29.9690   50.4520 C   0  0  0  0  0  0  0  0  0  0  0  0
   37.4260   30.0240   51.0400 C   0  0  0  0  0  0  0  0  0  0  0  0
   38.3770   30.8440   50.5010 N   0  0  0  0  0  0  0  0  0  0  0  0
   38.0950   31.6010   49.3940 C   0  0  0  0  0  0  0  0  0  0  0  0
   36.8650   31.5450   48.8160 N   0  0  0  0  0  0  0  0  0  0  0  0
   37.5710   29.4070   51.8970 H   0  0  0  0  0  0  0  0  0  0  0  0
   38.8670   32.2450   48.9830 H   0  0  0  0  0  0  0  0  0  0  0  0
   35.0980   29.1760   50.8900 N   0  0  0  0  0  0  0  0  0  0  0  0
   35.2850   28.2410   51.2910 H   0  0  0  0  0  0  0  0  0  0  0  0
   34.1070   29.5100   50.8190 H   0  0  0  0  0  0  0  0  0  0  0  0
   32.8770   30.1440   46.6640 O   0  0  0  0  0  0  0  0  0  0  0  0
   31.8860   30.3720   44.5750 C   0  0  0  0  0  0  0  0  0  0  0  0
   32.4400   29.4960   45.5160 C   0  0  0  0  0  0  0  0  0  0  0  0
   32.5070   28.1430   45.2550 C   0  0  0  0  0  0  0  0  0  0  0  0
   32.9480   27.5330   46.0330 H   0  0  0  0  0  0  0  0  0  0  0  0
   32.0340   27.6190   44.0680 C   0  0  0  0  0  0  0  0  0  0  0  0
   32.1080   26.5500   43.9040 H   0  0  0  0  0  0  0  0  0  0  0  0
   31.4760   28.4760   43.1110 C   0  0  0  0  0  3  0  0  0  0  0  0
   31.4180   29.8260   43.3910 C   0  0  0  0  0  3  0  0  0  0  0  0
   32.2280   32.5060   45.9990 H   0  0  0  0  0  0  0  0  0  0  0  0
   31.7470   32.0880   44.7910 S   0  0  0  0  0  0  0  0  0  0  0  0
   30.3240   32.5580   44.6650 O   0  0  0  0  0  0  0  0  0  0  0  0
   32.5280   32.8360   43.7190 O   0  0  0  0  0  0  0  0  0  0  0  0
  2  1  2  6  0  0  0
  2  3  1  0  0  0  0
  2  5  1  0  0  0  0
  3  4  1  0  0  0  0
  5  6  1  0  0  0  0
  6  7  1  0  0  0  0
  7 14  1  0  0  0  0
  7  8  2  0  0  0  0
  8 12  1  0  0  0  0
  9  8  1  0  0  0  0
 10  9  2  0  0  0  0
 11  6  2  0  0  0  0
 11 10  1  0  0  0  0
 13 10  1  0  0  0  0
 14 15  1  0  0  0  0
 16 14  1  0  0  0  0
 17  2  1  0  0  0  0
 18 27  1  0  0  0  0
 18 19  1  0  0  0  0
 19 17  1  0  0  0  0
 20 19  2  0  0  0  0
 20 21  1  0  0  0  0
 22 20  1  0  0  0  0
 23 22  1  0  0  0  0
 24 25  1  0  0  0  0
 24 22  2  0  0  0  0
 25 18  2  0  0  0  0
 27 26  1  0  0  0  0
 28 27  2  0  0  0  0
 29 27  2  0  0  0  0
M  END
>  <minimizedAffinity>
-3.84162784

>  <minimizedRMSD>
0.693152964

$$$$
