
 OpenBabel03272501443D

 37 40  0  0  0  0  0  0  0  0999 V2000
   35.3490   29.1200   48.8650 C   0  0  0  0  0  0  0  0  0  0  0  0
   35.3100   29.8870   47.6630 C   0  0  0  0  0  0  0  0  0  0  0  0
   34.1650   29.7910   46.8710 C   0  0  0  0  0  0  0  0  0  0  0  0
   33.1700   28.9810   47.2960 N   0  0  0  0  0  0  0  0  0  0  0  0
   33.2180   28.2670   48.4240 C   0  0  0  0  0  0  0  0  0  0  0  0
   34.3160   28.3440   49.2080 N   0  0  0  0  0  0  0  0  0  0  0  0
   36.1370   29.0630   49.5950 H   0  0  0  0  0  0  0  0  0  0  0  0
   34.1940   30.3850   45.9890 H   0  0  0  0  0  0  0  0  0  0  0  0
   37.2430   31.0960   48.5090 C   0  0  0  0  0  0  0  0  0  0  0  0
   36.4990   30.6780   47.4220 C   0  0  0  0  0  0  0  0  0  0  0  0
   36.9470   31.0490   46.1580 C   0  0  0  0  0  0  0  0  0  0  0  0
   38.1060   31.8140   46.0420 C   0  0  0  0  0  0  0  0  0  0  0  0
   38.7680   32.3140   44.9820 N   0  0  0  0  0  0  0  0  0  0  0  0
   39.8410   32.9890   45.3930 C   0  0  0  0  0  0  0  0  0  0  0  0
   39.8830   32.9320   46.7380 N   0  0  0  0  0  0  0  0  0  0  0  0
   38.8280   32.2160   47.1430 C   0  0  0  0  0  0  0  0  0  0  0  0
   38.3850   31.8500   48.3870 C   0  0  0  0  0  0  0  0  0  0  0  0
   37.0090   30.8820   49.5590 H   0  0  0  0  0  0  0  0  0  0  0  0
   36.3780   30.7320   45.2950 H   0  0  0  0  0  0  0  0  0  0  0  0
   38.4330   32.1560   44.0030 H   0  0  0  0  0  0  0  0  0  0  0  0
   40.5100   33.4710   44.6880 H   0  0  0  0  0  0  0  0  0  0  0  0
   38.9860   32.1890   49.2350 H   0  0  0  0  0  0  0  0  0  0  0  0
   32.0690   27.4160   48.7730 C   0  0  0  0  0  0  0  0  0  0  0  0
   32.4420   26.3660   48.9720 H   0  0  0  0  0  0  0  0  0  0  0  0
   31.5590   27.7650   49.7050 H   0  0  0  0  0  0  0  0  0  0  0  0
   31.2110   26.3550   46.6340 C   0  0  0  0  0  0  0  0  0  0  0  0
   31.1590   27.3190   47.6100 C   0  0  0  0  0  0  0  0  0  0  0  0
   30.1370   28.2580   47.4650 C   0  0  0  0  0  0  0  0  0  0  0  0
   30.0210   29.0660   48.2030 H   0  0  0  0  0  0  0  0  0  0  0  0
   29.2070   28.2870   46.4500 C   0  0  0  0  0  0  0  0  0  0  0  0
   28.4400   29.0460   46.4010 H   0  0  0  0  0  0  0  0  0  0  0  0
   29.2620   27.3230   45.4780 C   0  0  0  0  0  3  0  0  0  0  0  0
   30.2660   26.3830   45.6000 C   0  0  0  0  0  3  0  0  0  0  0  0
   32.1120   24.3030   45.4580 H   0  0  0  0  0  0  0  0  0  0  0  0
   32.3940   25.1020   46.5810 S   0  0  0  0  0  0  0  0  0  0  0  0
   33.7720   25.6210   46.3170 O   0  0  0  0  0  0  0  0  0  0  0  0
   32.3440   24.1780   47.7800 O   0  0  0  0  0  0  0  0  0  0  0  0
  1  6  1  0  0  0  0
  1  7  1  0  0  0  0
  2  1  2  0  0  0  0
  3  4  2  0  0  0  0
  3  2  1  0  0  0  0
  4  5  1  0  0  0  0
  5 23  1  0  0  0  0
  5  6  2  0  0  0  0
  8  3  1  0  0  0  0
  9 18  1  0  0  0  0
 10  2  1  0  0  0  0
 10  9  2  0  0  0  0
 11 10  1  0  0  0  0
 12 11  2  0  0  0  0
 12 16  1  0  0  0  0
 13 14  1  0  0  0  0
 13 12  1  0  0  0  0
 14 15  2  0  0  0  0
 15 16  1  0  0  0  0
 16 17  2  0  0  0  0
 17  9  1  0  0  0  0
 17 22  1  0  0  0  0
 19 11  1  0  0  0  0
 20 13  1  0  0  0  0
 21 14  1  0  0  0  0
 23 24  1  0  0  0  0
 23 25  1  0  0  0  0
 26 27  1  0  0  0  0
 27 23  1  0  0  0  0
 28 27  2  0  0  0  0
 28 29  1  0  0  0  0
 30 28  1  0  0  0  0
 31 30  1  0  0  0  0
 32 33  1  0  0  0  0
 32 30  2  0  0  0  0
 33 26  2  0  0  0  0
 34 35  1  0  0  0  0
 35 26  1  0  0  0  0
 35 37  2  0  0  0  0
 36 35  2  0  0  0  0
M  END
>  <minimizedAffinity>
-5.36041689

>  <minimizedRMSD>
2.50107384

$$$$
