
 OpenBabel03272505273D

 34 36  0  0  0  0  0  0  0  0999 V2000
   37.9340   30.8830   47.1290 N   0  0  0  0  0  0  0  0  0  0  0  0
   37.7120   30.1220   46.0240 C   0  0  0  0  0  0  0  0  0  0  0  0
   38.3430   30.3810   44.8160 C   0  0  0  0  0  0  0  0  0  0  0  0
   39.2320   31.4720   44.7730 C   0  0  0  0  0  0  0  0  0  0  0  0
   39.8210   31.7390   43.7010 O   0  0  0  0  0  0  0  0  0  0  0  0
   39.4490   32.2290   45.8840 N   0  0  0  0  0  0  0  0  0  0  0  0
   38.7820   31.8820   46.9920 C   0  0  0  0  0  0  0  0  0  0  0  0
   39.0060   32.6010   47.9880 O   0  0  0  0  0  0  0  0  0  0  0  0
   37.0180   29.2880   46.0960 H   0  0  0  0  0  0  0  0  0  0  0  0
   37.3050   29.9150   50.6600 C   0  0  0  0  0  0  0  0  0  0  0  0
   37.9670   30.1740   49.4490 C   0  0  0  0  0  0  0  0  0  0  0  0
   37.2890   30.6130   48.3410 C   0  0  0  0  0  0  0  0  0  0  0  0
   35.9380   30.7890   48.4560 N   0  0  0  0  0  0  0  0  0  0  0  0
   35.2730   30.5430   49.6220 C   0  0  0  0  0  0  0  0  0  0  0  0
   35.9690   30.1070   50.7150 N   0  0  0  0  0  0  0  0  0  0  0  0
   37.7730   29.5740   51.5570 H   0  0  0  0  0  0  0  0  0  0  0  0
   39.0170   29.9700   49.5450 H   0  0  0  0  0  0  0  0  0  0  0  0
   34.1930   30.6990   49.6650 H   0  0  0  0  0  0  0  0  0  0  0  0
   37.0690   29.7100   42.7270 C   0  0  0  0  0  0  0  0  0  0  0  0
   38.1010   29.5630   43.6320 C   0  0  0  0  0  0  0  0  0  0  0  0
   39.0330   28.5390   43.4380 C   0  0  0  0  0  0  0  0  0  0  0  0
   39.8770   28.3310   44.0800 H   0  0  0  0  0  0  0  0  0  0  0  0
   38.9310   27.6890   42.3650 C   0  0  0  0  0  0  0  0  0  0  0  0
   39.6290   26.8790   42.1710 H   0  0  0  0  0  0  0  0  0  0  0  0
   37.9000   27.8320   41.4560 C   0  0  0  0  0  3  0  0  0  0  0  0
   36.9740   28.8460   41.6450 C   0  0  0  0  0  3  0  0  0  0  0  0
   35.0750   31.1440   41.9630 H   0  0  0  0  0  0  0  0  0  0  0  0
   35.9480   31.0060   43.0330 S   0  0  0  0  0  0  0  0  0  0  0  0
   35.1180   30.6680   44.2250 O   0  0  0  0  0  0  0  0  0  0  0  0
   36.6300   32.3310   43.1900 O   0  0  0  0  0  0  0  0  0  0  0  0
   40.3660   33.3510   45.8440 C   0  0  0  0  0  0  0  0  0  0  0  0
   40.0000   34.2140   44.8630 F   0  0  0  0  0  0  0  0  0  0  0  0
   41.6690   32.9710   45.5580 F   0  0  0  0  0  0  0  0  0  0  0  0
   40.3180   34.0210   47.0600 F   0  0  0  0  0  0  0  0  0  0  0  0
  1 12  1  0  0  0  0
  2  9  1  0  0  0  0
  2  1  1  0  0  0  0
  3  2  2  0  0  0  0
  4  3  1  0  0  0  0
  4  6  1  0  0  0  0
  5  4  2  0  0  0  0
  6  7  1  0  0  0  0
  7  1  1  0  0  0  0
  7  8  2  0  0  0  0
 10 15  1  0  0  0  0
 10 16  1  0  0  0  0
 11 17  1  0  0  0  0
 11 10  2  0  0  0  0
 12 13  2  0  0  0  0
 12 11  1  0  0  0  0
 13 14  1  0  0  0  0
 14 18  1  0  0  0  0
 14 15  2  0  0  0  0
 19 28  1  0  0  0  0
 19 20  1  0  0  0  0
 20  3  1  0  0  0  0
 21 20  2  0  0  0  0
 21 22  1  0  0  0  0
 23 21  1  0  0  0  0
 24 23  1  0  0  0  0
 25 26  1  0  0  0  0
 25 23  2  0  0  0  0
 26 19  2  0  0  0  0
 27 28  1  0  0  0  0
 28 30  2  0  0  0  0
 28 29  2  0  0  0  0
 31  6  1  0  0  0  0
 31 34  1  0  0  0  0
 32 31  1  0  0  0  0
 33 31  1  0  0  0  0
M  END
>  <minimizedAffinity>
-6.00617838

>  <minimizedRMSD>
1.71380568

$$$$
