
 OpenBabel03272504223D

 42 44  0  0  1  0  0  0  0  0999 V2000
   38.7580   32.0430   47.8350 C   0  0  2  0  0  0  0  0  0  0  0  0
   38.0250   31.0310   48.6870 C   0  0  1  0  0  0  0  0  0  0  0  0
   38.4100   31.5780   50.0680 C   0  0  0  0  0  0  0  0  0  0  0  0
   38.0960   32.9220   49.9200 O   0  0  0  0  0  0  0  0  0  0  0  0
   38.5070   33.2990   48.6660 C   0  0  0  0  0  0  0  0  0  0  0  0
   39.8180   31.7780   47.8000 H   0  0  0  0  0  0  0  0  0  0  0  0
   38.3400   30.0010   48.5400 H   0  0  0  0  0  0  0  0  0  0  0  0
   39.4820   31.4400   50.2520 H   0  0  0  0  0  0  0  0  0  0  0  0
   37.7590   31.1360   50.8470 H   0  0  0  0  0  0  0  0  0  0  0  0
   37.8670   34.0350   48.1510 H   0  0  0  0  0  0  0  0  0  0  0  0
   39.4990   33.7890   48.7840 H   0  0  0  0  0  0  0  0  0  0  0  0
   36.6680   31.2490   48.4860 O   0  0  0  0  0  0  0  0  0  0  0  0
   35.7680   29.2480   47.0870 O   0  0  0  0  0  0  0  0  0  0  0  0
   35.7780   29.8260   48.4760 P   0  0  1  0  0  0  0  0  0  0  0  0
   36.5140   28.6760   49.5170 O   0  0  0  0  0  0  0  0  0  0  0  0
   36.8040   29.2170   50.3050 H   0  0  0  0  0  0  0  0  0  0  0  0
   34.1940   30.1230   49.0080 O   0  0  0  0  0  0  0  0  0  0  0  0
   33.8140   29.0390   49.7770 C   0  0  0  0  0  0  0  0  0  0  0  0
   33.2100   29.4010   50.6550 H   0  0  0  0  0  0  0  0  0  0  0  0
   34.6710   28.4550   50.1850 H   0  0  0  0  0  0  0  0  0  0  0  0
   32.9390   28.0850   49.0580 C   0  0  0  0  0  0  0  0  0  0  0  0
   33.5570   27.1860   48.2230 C   0  0  0  0  0  0  0  0  0  0  0  0
   32.7830   26.2610   47.5180 C   0  0  0  0  0  0  0  0  0  0  0  0
   31.4330   26.3100   47.7060 N   0  0  0  0  0  0  0  0  0  0  0  0
   30.8480   27.2040   48.5320 C   0  0  0  0  0  0  0  0  0  0  0  0
   31.6030   28.1000   49.2160 N   0  0  0  0  0  0  0  0  0  0  0  0
   34.6010   27.0720   48.0130 H   0  0  0  0  0  0  0  0  0  0  0  0
   33.1910   25.5200   46.8420 H   0  0  0  0  0  0  0  0  0  0  0  0
   29.7650   27.1940   48.6400 H   0  0  0  0  0  0  0  0  0  0  0  0
   38.1650   32.0860   46.5990 O   0  0  0  0  0  0  0  0  0  0  0  0
   38.0140   32.0660   44.2630 C   0  0  0  0  0  0  0  0  0  0  0  0
   38.6580   32.5070   45.4010 C   0  0  0  0  0  0  0  0  0  0  0  0
   39.7460   33.3350   45.2070 C   0  0  0  0  0  0  0  0  0  0  0  0
   40.2510   33.6800   46.1130 H   0  0  0  0  0  0  0  0  0  0  0  0
   40.1940   33.7240   43.9670 C   0  0  0  0  0  0  0  0  0  0  0  0
   41.0380   34.3670   43.8290 H   0  0  0  0  0  0  0  0  0  0  0  0
   39.5020   33.2460   42.8840 C   0  0  0  0  0  3  0  0  0  0  0  0
   38.3970   32.4080   42.9810 C   0  0  0  0  0  3  0  0  0  0  0  0
   36.1090   31.0520   45.6770 H   0  0  0  0  0  0  0  0  0  0  0  0
   36.6190   31.0090   44.3850 S   0  0  0  0  0  0  0  0  0  0  0  0
   35.5360   31.5230   43.4930 O   0  0  0  0  0  0  0  0  0  0  0  0
   36.9370   29.6060   44.0330 O   0  0  0  0  0  0  0  0  0  0  0  0
  1  6  1  6  0  0  0
  1  5  1  0  0  0  0
  1  2  1  0  0  0  0
  2  7  1  6  0  0  0
  2  3  1  0  0  0  0
  3  8  1  0  0  0  0
  3  9  1  0  0  0  0
  4  3  1  0  0  0  0
  5 11  1  0  0  0  0
  5  4  1  0  0  0  0
 10  5  1  0  0  0  0
 12  2  1  0  0  0  0
 14 13  2  6  0  0  0
 14 12  1  0  0  0  0
 14 17  1  0  0  0  0
 14 15  1  0  0  0  0
 15 16  1  0  0  0  0
 17 18  1  0  0  0  0
 18 20  1  0  0  0  0
 18 19  1  0  0  0  0
 21 26  1  0  0  0  0
 21 18  1  0  0  0  0
 22 21  2  0  0  0  0
 23 24  2  0  0  0  0
 23 22  1  0  0  0  0
 24 25  1  0  0  0  0
 25 29  1  0  0  0  0
 25 26  2  0  0  0  0
 27 22  1  0  0  0  0
 28 23  1  0  0  0  0
 30  1  1  0  0  0  0
 31 40  1  0  0  0  0
 31 32  1  0  0  0  0
 32 30  1  0  0  0  0
 33 32  2  0  0  0  0
 33 34  1  0  0  0  0
 35 33  1  0  0  0  0
 36 35  1  0  0  0  0
 37 38  1  0  0  0  0
 37 35  2  0  0  0  0
 38 31  2  0  0  0  0
 40 39  1  0  0  0  0
 41 40  2  0  0  0  0
 42 40  2  0  0  0  0
M  END
>  <minimizedAffinity>
-4.70897961

>  <minimizedRMSD>
1.44281888

$$$$
