
 OpenBabel03272509573D

 49 52  0  0  0  0  0  0  0  0999 V2000
   33.1360   28.0500   47.1840 C   0  0  0  0  0  0  0  0  0  0  0  0
   33.5160   27.0190   47.2190 H   0  0  0  0  0  0  0  0  0  0  0  0
   33.1540   28.3370   46.1070 H   0  0  0  0  0  0  0  0  0  0  0  0
   31.7260   28.1010   47.6760 C   0  0  0  0  0  0  0  0  0  0  0  0
   31.4580   27.5060   48.8930 C   0  0  0  0  0  0  0  0  0  0  0  0
   30.1900   27.5090   49.4140 C   0  0  0  0  0  0  0  0  0  0  0  0
   29.2060   28.0880   48.7460 N   0  0  0  0  0  0  0  0  0  0  0  0
   29.4710   28.6780   47.5410 C   0  0  0  0  0  0  0  0  0  0  0  0
   30.7080   28.6780   47.0270 N   0  0  0  0  0  0  0  0  0  0  0  0
   32.2430   27.0340   49.4440 H   0  0  0  0  0  0  0  0  0  0  0  0
   29.9610   27.0430   50.3740 H   0  0  0  0  0  0  0  0  0  0  0  0
   28.3400   29.3220   46.8280 C   0  0  0  0  0  0  0  0  0  0  0  0
   27.4880   29.3640   47.5680 H   0  0  0  0  0  0  0  0  0  0  0  0
   28.5820   30.4100   46.6710 H   0  0  0  0  0  0  0  0  0  0  0  0
   27.5400   29.2650   44.4420 C   0  0  0  0  0  0  0  0  0  0  0  0
   27.9180   28.6300   45.6020 C   0  0  0  0  0  0  0  0  0  0  0  0
   27.9010   27.2290   45.6110 C   0  0  0  0  0  0  0  0  0  0  0  0
   28.1960   26.7150   46.5150 H   0  0  0  0  0  0  0  0  0  0  0  0
   27.5280   26.4650   44.5260 C   0  0  0  0  0  0  0  0  0  0  0  0
   27.5340   25.3760   44.5900 H   0  0  0  0  0  0  0  0  0  0  0  0
   27.1470   27.0860   43.3570 C   0  0  0  0  0  3  0  0  0  0  0  0
   27.1660   28.4680   43.3540 C   0  0  0  0  0  3  0  0  0  0  0  0
   28.7450   31.5470   44.6890 H   0  0  0  0  0  0  0  0  0  0  0  0
   27.5250   30.9960   44.3400 S   0  0  0  0  0  0  0  0  0  0  0  0
   26.3710   31.6460   45.0080 O   0  0  0  0  0  0  0  0  0  0  0  0
   27.3820   31.3340   42.8560 O   0  0  0  0  0  0  0  0  0  0  0  0
   34.0320   29.0180   47.9170 C   0  0  0  0  0  0  0  0  0  0  0  0
   34.6420   29.6300   47.2510 H   0  0  0  0  0  0  0  0  0  0  0  0
   33.3890   29.7030   48.5130 H   0  0  0  0  0  0  0  0  0  0  0  0
   34.8400   28.3370   48.8680 O   0  0  0  0  0  0  0  0  0  0  0  0
   36.9110   29.8070   51.4300 C   0  0  0  0  0  0  0  0  0  0  0  0
   37.7370   30.6360   50.6410 C   0  0  0  0  0  0  0  0  0  0  0  0
   37.5240   30.6330   49.2690 C   0  0  0  0  0  0  0  0  0  0  0  0
   36.5240   29.8200   48.8050 N   0  0  0  0  0  0  0  0  0  0  0  0
   35.7540   29.0430   49.5710 C   0  0  0  0  0  0  0  0  0  0  0  0
   35.9600   29.0460   50.8960 N   0  0  0  0  0  0  0  0  0  0  0  0
   37.0940   29.8260   52.4960 H   0  0  0  0  0  0  0  0  0  0  0  0
   38.5230   31.2730   51.0220 H   0  0  0  0  0  0  0  0  0  0  0  0
   38.6140   33.3050   49.5770 F   0  0  0  0  0  0  0  0  0  0  0  0
   38.7860   32.6560   48.4300 C   0  0  0  0  0  0  0  0  0  0  0  0
   38.2740   31.4180   48.3090 C   0  0  0  0  0  0  0  0  0  0  0  0
   38.5100   30.8190   47.0620 C   0  0  0  0  0  0  0  0  0  0  0  0
   39.2070   31.4570   46.0660 C   0  0  0  0  0  0  0  0  0  0  0  0
   39.7120   32.7160   46.2300 C   0  0  0  0  0  0  0  0  0  0  0  0
   39.4820   33.2930   47.4350 C   0  0  0  0  0  0  0  0  0  0  0  0
   38.1330   29.8120   46.8630 H   0  0  0  0  0  0  0  0  0  0  0  0
   39.3510   30.9290   45.1210 H   0  0  0  0  0  0  0  0  0  0  0  0
   40.2510   33.1680   45.4120 H   0  0  0  0  0  0  0  0  0  0  0  0
   39.8750   34.3080   47.6030 H   0  0  0  0  0  0  0  0  0  0  0  0
  1  2  1  0  0  0  0
  1  4  1  0  0  0  0
  1 27  1  0  0  0  0
  3  1  1  0  0  0  0
  4  5  1  0  0  0  0
  5  6  2  0  0  0  0
  5 10  1  0  0  0  0
  6 11  1  0  0  0  0
  7  6  1  0  0  0  0
  8  7  2  0  0  0  0
  9  8  1  0  0  0  0
  9  4  2  0  0  0  0
 12  8  1  0  0  0  0
 12 13  1  0  0  0  0
 14 12  1  0  0  0  0
 15 16  1  0  0  0  0
 16 17  2  0  0  0  0
 16 12  1  0  0  0  0
 17 18  1  0  0  0  0
 19 20  1  0  0  0  0
 19 17  1  0  0  0  0
 21 19  2  0  0  0  0
 22 21  1  0  0  0  0
 22 15  2  0  0  0  0
 24 15  1  0  0  0  0
 24 23  1  0  0  0  0
 24 25  2  0  0  0  0
 26 24  2  0  0  0  0
 27 29  1  0  0  0  0
 27 30  1  0  0  0  0
 28 27  1  0  0  0  0
 30 35  1  0  0  0  0
 31 37  1  0  0  0  0
 32 38  1  0  0  0  0
 32 31  2  0  0  0  0
 33 32  1  0  0  0  0
 34 33  2  0  0  0  0
 34 35  1  0  0  0  0
 35 36  2  0  0  0  0
 36 31  1  0  0  0  0
 40 39  1  0  0  0  0
 41 40  1  0  0  0  0
 41 33  1  0  0  0  0
 42 41  2  0  0  0  0
 43 44  2  0  0  0  0
 43 42  1  0  0  0  0
 44 45  1  0  0  0  0
 45 49  1  0  0  0  0
 45 40  2  0  0  0  0
 46 42  1  0  0  0  0
 47 43  1  0  0  0  0
 48 44  1  0  0  0  0
M  END
>  <minimizedAffinity>
-6.59169674

>  <minimizedRMSD>
1.12467146

$$$$
