
     RDKit          3D

 44 47  0  0  0  0  0  0  0  0999 V2000
   36.0082   30.2804   48.7095 C   0  0  0  0  0  0  0  0  0  0  0  0
   35.9645   29.3470   49.6684 C   0  0  0  0  0  0  0  0  0  0  0  0
   34.9775   28.4280   49.7366 C   0  0  0  0  0  0  0  0  0  0  0  0
   33.9864   28.4459   48.7977 N   0  0  0  0  0  0  0  0  0  0  0  0
   34.0546   29.3958   47.8415 C   0  0  0  0  0  0  0  0  0  0  0  0
   35.0401   30.3061   47.7821 N   0  0  0  0  0  0  0  0  0  0  0  0
   38.1362   33.1903   49.4655 C   0  0  0  0  0  0  0  0  0  0  0  0
   39.0492   33.1842   48.4045 C   0  0  0  0  0  0  0  0  0  0  0  0
   38.9144   32.1680   47.4408 C   0  0  0  0  0  0  0  0  0  0  0  0
   37.9148   31.2584   47.5929 N   0  0  0  0  0  0  0  0  0  0  0  0
   37.0594   31.2910   48.6163 C   0  0  0  0  0  0  0  0  0  0  0  0
   37.1776   32.2641   49.5518 N   0  0  0  0  0  0  0  0  0  0  0  0
   31.9213   28.5229   47.0543 C   0  0  0  0  0  0  0  0  0  0  0  0
   32.9963   29.3861   46.8360 C   0  0  0  0  0  0  0  0  0  0  0  0
   33.0814   30.2099   45.7549 C   0  0  0  0  0  0  0  0  0  0  0  0
   32.0668   30.2068   44.8138 C   0  0  0  0  0  0  0  0  0  0  0  0
   30.9828   29.3734   44.9695 C   0  0  0  0  0  0  0  0  0  0  0  0
   30.9627   28.5671   46.0860 C   0  0  0  0  0  0  0  0  0  0  0  0
   31.6233   27.5226   48.3366 S   0  0  0  0  0  0  0  0  0  0  0  0
   31.9051   26.0449   47.9092 O   0  0  0  0  0  0  0  0  0  0  0  0
   31.0614   27.7730   49.5531 O   0  0  0  0  0  0  0  0  0  0  0  0
   36.7417   29.3024   50.4373 H   0  0  0  0  0  0  0  0  0  0  0  0
   34.9615   27.6828   50.5199 H   0  0  0  0  0  0  0  0  0  0  0  0
   38.2921   33.9839   50.1593 H   0  0  0  0  0  0  0  0  0  0  0  0
   39.8616   33.8353   48.1818 H   0  0  0  0  0  0  0  0  0  0  0  0
   39.5391   32.0327   46.5704 H   0  0  0  0  0  0  0  0  0  0  0  0
   33.9543   30.8427   45.6771 H   0  0  0  0  0  0  0  0  0  0  0  0
   32.2318   30.8931   44.0111 H   0  0  0  0  0  0  0  0  0  0  0  0
   30.2510   29.4421   44.1951 H   0  0  0  0  0  0  0  0  0  0  0  0
   30.0175   27.9893   45.9802 H   0  0  0  0  0  0  0  0  0  0  0  0
   30.0213   24.2542   45.9619 H   0  0  0  0  0  0  0  0  0  0  0  0
   30.4846   24.6478   47.2351 S   0  0  0  0  0  0  0  0  0  0  0  0
   30.2934   23.3814   48.0330 O   0  0  0  0  0  0  0  0  0  0  0  0
   31.8743   24.9264   47.0464 O   0  0  0  0  0  0  0  0  0  0  0  0
   29.3728   25.9005   47.7190 C   0  0  0  0  0  0  0  0  0  0  0  0
   29.8492   27.1880   48.1502 C   0  0  0  0  0  0  0  0  0  0  0  0
   28.9023   28.0263   48.4349 C   0  0  0  0  0  0  0  0  0  0  0  0
   29.1240   29.0329   48.7589 H   0  0  0  0  0  0  0  0  0  0  0  0
   27.5507   27.7565   48.3520 C   0  0  0  0  0  0  0  0  0  0  0  0
   26.8531   28.5343   48.6166 H   0  0  0  0  0  0  0  0  0  0  0  0
   27.1497   26.5181   47.9398 C   0  0  0  0  0  0  0  0  0  0  0  0
   28.0194   25.5149   47.5983 C   0  0  0  0  0  0  0  0  0  0  0  0
   26.0917   26.3209   47.8803 H   0  0  0  0  0  0  0  0  0  0  0  0
   27.7607   24.5287   47.2700 H   0  0  0  0  0  0  0  0  0  0  0  0
  1  2  2  0
  2  3  1  0
  4  3  2  0
  5  4  1  0
  6  5  2  0
  6  1  1  0
  7 12  2  0
  8  7  1  0
  9 10  1  0
  9  8  2  0
 10 11  2  0
 11  1  1  0
 11 12  1  0
 13 19  1  0
 14 13  1  0
 14  5  1  0
 15 14  2  0
 16 17  2  0
 16 15  1  0
 17 18  1  0
 18 13  2  0
 19 21  2  0
 20 19  2  0
  2 22  1  0
  3 23  1  0
  7 24  1  0
  8 25  1  0
  9 26  1  0
 15 27  1  0
 16 28  1  0
 17 29  1  0
 18 30  1  0
 31 32  1  0
 32 33  2  0
 32 34  2  0
 32 35  1  0
 35 36  2  0
 36 37  1  0
 37 38  1  0
 37 39  2  0
 39 40  1  0
 39 41  1  0
 41 42  2  0
 42 35  1  0
 41 43  1  0
 42 44  1  0
 19 36  1  0
M  ISO  8  22  14  23  14  24  14  25  14  26  14  27  14  28  14  29  14
M  ISO  4  30  14  31  12  38  15  40  16
M  END
>  <DihAtoms>  (1) 
12,18,35,34

>  <DihDeg>  (1) 
-56.840207147475084

$$$$
