REMARK  Name = 
REMARK  4 active torsions:
REMARK  status: ('A' for Active; 'I' for Inactive)
REMARK    1  A    between atoms: C_1  and  C_18
REMARK    2  A    between atoms: C_5  and  C_8
REMARK    3  A    between atoms: C_20  and  C_38
REMARK    4  A    between atoms: S_34  and  C_37
REMARK                            x       y       z     vdW  Elec       q    Type
REMARK                         _______ _______ _______ _____ _____    ______ ____
ROOT
ATOM      1  C   UNL     1      38.545  31.280  47.699  0.00  0.00    +0.000 A 
ATOM      2  C   UNL     1      38.994  32.581  47.675  0.00  0.00    +0.000 A 
ATOM      3  C   UNL     1      39.651  33.133  46.598  0.00  0.00    +0.000 A 
ATOM      4  C   UNL     1      39.884  32.378  45.483  0.00  0.00    +0.000 A 
ATOM      5  C   UNL     1      39.423  31.083  45.539  0.00  0.00    +0.000 A 
ATOM      6  N   UNL     1      38.790  30.552  46.579  0.00  0.00    +0.000 NA
ATOM      7  H   UNL     1      38.787  33.148  48.584  0.00  0.00    +0.000 HD
ATOM      8  H   UNL     1      39.954  34.168  46.701  0.00  0.00    +0.000 HD
ATOM      9  H   UNL     1      40.402  32.824  44.641  0.00  0.00    +0.000 HD
ENDROOT
BRANCH   5  11
ATOM     10  C   UNL     1      38.847  29.137  44.051  0.00  0.00    +0.000 A 
ATOM     11  C   UNL     1      39.640  30.226  44.382  0.00  0.00    +0.000 A 
ATOM     12  C   UNL     1      40.677  30.417  43.486  0.00  0.00    +0.000 A 
ATOM     13  C   UNL     1      40.936  29.647  42.378  0.00  0.00    +0.000 A 
ATOM     14  N   UNL     1      41.879  29.692  41.423  0.00  0.00    +0.000 N 
ATOM     15  C   UNL     1      41.657  28.684  40.570  0.00  0.00    +0.000 A 
ATOM     16  C   UNL     1      40.557  27.967  40.966  0.00  0.00    +0.000 A 
ATOM     17  C   UNL     1      40.108  28.592  42.119  0.00  0.00    +0.000 A 
ATOM     18  C   UNL     1      39.058  28.334  42.959  0.00  0.00    +0.000 A 
ATOM     19  H   UNL     1      37.997  28.909  44.709  0.00  0.00    +0.000 HD
ATOM     20  H   UNL     1      41.361  31.254  43.661  0.00  0.00    +0.000 HD
ATOM     21  H   UNL     1      42.657  30.408  41.368  0.00  0.00    +0.000 HD
ATOM     22  H   UNL     1      42.261  28.468  39.694  0.00  0.00    +0.000 HD
ATOM     23  H   UNL     1      40.130  27.095  40.477  0.00  0.00    +0.000 HD
ATOM     24  H   UNL     1      38.409  27.496  42.743  0.00  0.00    +0.000 HD
ENDBRANCH   5  11
BRANCH   1  27
ATOM     25  C   UNL     1      37.393  30.378  51.166  0.00  0.00    +0.000 A 
ATOM     26  C   UNL     1      38.142  31.006  50.167  0.00  0.00    +0.000 A 
ATOM     27  C   UNL     1      37.855  30.709  48.837  0.00  0.00    +0.000 A 
ATOM     28  N   UNL     1      36.859  29.821  48.605  0.00  0.00    +0.000 NA
ATOM     29  C   UNL     1      36.145  29.224  49.587  0.00  0.00    +0.000 A 
ATOM     30  N   UNL     1      36.423  29.512  50.863  0.00  0.00    +0.000 NA
ATOM     31  H   UNL     1      37.669  30.655  52.183  0.00  0.00    +0.000 HD
ATOM     32  H   UNL     1      38.948  31.725  50.361  0.00  0.00    +0.000 HD
BRANCH  29  34
ATOM     33  C   UNL     1      33.897  28.707  48.681  0.00  0.00    +0.000 A 
ATOM     34  C   UNL     1      35.097  28.285  49.194  0.00  0.00    +0.000 A 
ATOM     35  C   UNL     1      35.346  26.938  49.355  0.00  0.00    +0.000 A 
ATOM     36  H   UNL     1      36.261  26.519  49.750  0.00  0.00    +0.000 HD
ATOM     37  C   UNL     1      34.404  25.985  49.006  0.00  0.00    +0.000 A 
ATOM     38  H   UNL     1      34.538  24.906  49.108  0.00  0.00    +0.000 HD
ATOM     39  C   UNL     1      33.185  26.374  48.487  0.00  0.00    +0.000 A 
ATOM     40  C   UNL     1      32.969  27.719  48.340  0.00  0.00    +0.000 A 
BRANCH  33  42
ATOM     41  H   UNL     1      33.651  31.120  49.632  0.00  0.00    +0.000 HD
ATOM     42  S   UNL     1      33.562  30.406  48.470  0.00  0.00    +0.000 S 
ATOM     43  O   UNL     1      32.132  30.562  47.981  0.00  0.00    +0.000 OA
ATOM     44  O   UNL     1      34.417  30.969  47.366  0.00  0.00    +0.000 OA
ENDBRANCH  33  42
ENDBRANCH  29  34
ENDBRANCH   1  27
TORSDOF 4
