
     RDKit          3D

 31 32  0  0  0  0  0  0  0  0999 V2000
   35.9502   30.7999   49.6170 C   0  0  0  0  0  0  0  0  0  0  0  0
   36.2246   29.9062   50.6403 C   0  0  0  0  0  0  0  0  0  0  0  0
   37.4879   29.8897   51.1986 C   0  0  0  0  0  0  0  0  0  0  0  0
   38.4344   30.7556   50.7269 N   0  0  0  0  0  0  0  0  0  0  0  0
   38.1335   31.6279   49.7139 C   0  0  0  0  0  0  0  0  0  0  0  0
   36.8885   31.6435   49.1643 N   0  0  0  0  0  0  0  0  0  0  0  0
   35.1488   29.0790   51.0174 N   0  0  0  0  0  0  0  0  0  0  0  0
   34.7378   30.9379   48.9574 O   0  0  0  0  0  0  0  0  0  0  0  0
   35.5182   30.0991   46.5408 O   0  0  0  0  0  0  0  0  0  0  0  0
   34.3753   30.0693   47.5080 P   0  0  1  0  0  0  0  0  0  0  0  0
   33.9852   28.4944   48.0016 O   0  0  0  0  0  0  0  0  0  0  0  0
   33.0826   30.8186   46.7257 O   0  0  0  0  0  0  0  0  0  0  0  0
   37.6481   29.1845   51.9819 H   0  0  0  0  0  0  0  0  0  0  0  0
   38.9013   32.3073   49.3546 H   0  0  0  0  0  0  0  0  0  0  0  0
   35.3373   28.1048   51.3121 H   0  0  0  0  0  0  0  0  0  0  0  0
   34.1600   29.4248   51.0074 H   0  0  0  0  0  0  0  0  0  0  0  0
   33.2230   28.5592   48.6148 H   0  0  0  0  0  0  0  0  0  0  0  0
   33.5146   33.0034   45.4471 H   0  0  0  0  0  0  0  0  0  0  0  0
   32.6473   32.6235   44.4626 S   0  0  0  0  0  0  0  0  0  0  0  0
   31.4556   33.5404   44.5099 O   0  0  0  0  0  0  0  0  0  0  0  0
   33.3345   32.9018   43.1330 O   0  0  0  0  0  0  0  0  0  0  0  0
   32.1882   30.9545   44.5864 C   0  0  0  0  0  0  0  0  0  0  0  0
   32.4278   30.1452   45.7028 C   0  0  0  0  0  0  0  0  0  0  0  0
   32.0247   28.8255   45.7090 C   0  0  0  0  0  0  0  0  0  0  0  0
   32.2470   28.2680   46.6087 H   0  0  0  0  0  0  0  0  0  0  0  0
   31.3785   28.2711   44.6220 C   0  0  0  0  0  0  0  0  0  0  0  0
   31.0793   27.2304   44.6695 H   0  0  0  0  0  0  0  0  0  0  0  0
   31.1274   29.0605   43.4935 C   0  0  0  0  0  0  0  0  0  0  0  0
   31.5382   30.3775   43.5068 C   0  0  0  0  0  0  0  0  0  0  0  0
   30.6174   28.6075   42.6462 H   0  0  0  0  0  0  0  0  0  0  0  0
   31.3325   30.9839   42.6105 H   0  0  0  0  0  0  0  0  0  0  0  0
  1  2  2  0
  2  7  1  0
  2  3  1  0
  4  3  2  0
  5  4  1  0
  6  1  1  0
  6  5  2  0
  8  1  1  0
  9 10  2  0
 10 11  1  1
 10  8  1  0
 12 10  1  0
  3 13  1  0
  5 14  1  0
  7 15  1  0
  7 16  1  0
 11 17  1  0
 18 19  1  0
 19 20  2  0
 19 21  2  0
 19 22  1  0
 22 23  2  0
 23 24  1  0
 24 25  1  0
 24 26  2  0
 26 27  1  0
 26 28  1  0
 28 29  2  0
 29 22  1  0
 28 30  1  0
 29 31  1  0
 12 23  1  0
M  ISO  6  13  14  14  14  17   3  18  12  25  15  27  16
M  END
>  <DihAtoms>  (1) 
9,11,22,21

>  <DihDeg>  (1) 
-179.9991458187648

$$$$
