REMARK  Name = 
REMARK  10 active torsions:
REMARK  status: ('A' for Active; 'I' for Inactive)
REMARK    1  A    between atoms: P_2  and  O_3
REMARK    2  A    between atoms: P_2  and  O_4
REMARK    3  A    between atoms: P_2  and  O_14
REMARK    4  A    between atoms: O_4  and  C_5
REMARK    5  A    between atoms: C_5  and  C_7
REMARK    6  A    between atoms: C_6  and  C_12
REMARK    7  A    between atoms: O_14  and  C_16
REMARK    8  A    between atoms: C_15  and  S_21
REMARK    9  A    between atoms: S_21  and  C_41
REMARK   10  A    between atoms: S_37  and  C_40
REMARK                            x       y       z     vdW  Elec       q    Type
REMARK                         _______ _______ _______ _____ _____    ______ ____
ROOT
ATOM      1  C   UNL     1      27.192  28.417  49.370  0.00  0.00    +0.000 A 
ATOM      2  C   UNL     1      28.546  28.045  49.432  0.00  0.00    +0.000 A 
ATOM      3  C   UNL     1      29.065  27.387  50.526  0.00  0.00    +0.000 A 
ATOM      4  C   UNL     1      28.237  27.090  51.581  0.00  0.00    +0.000 A 
ATOM      5  C   UNL     1      26.921  27.450  51.525  0.00  0.00    +0.000 A 
ATOM      6  C   UNL     1      26.366  28.105  50.455  0.00  0.00    +0.000 A 
ATOM      7  H   UNL     1      30.118  27.137  50.493  0.00  0.00    +0.000 HD
ATOM      8  H   UNL     1      28.735  26.575  52.391  0.00  0.00    +0.000 HD
ATOM      9  H   UNL     1      26.338  27.172  52.412  0.00  0.00    +0.000 HD
ATOM     10  H   UNL     1      25.337  28.327  50.557  0.00  0.00    +0.000 HD
ENDROOT
BRANCH   1  11
ATOM     11  S   UNL     1      26.464  29.247  48.022  0.00  0.00    +0.000 S 
ATOM     12  O   UNL     1      27.166  30.515  47.726  0.00  0.00    +0.000 OA
ATOM     13  O   UNL     1      26.526  28.313  46.801  0.00  0.00    +0.000 OA
BRANCH  11  15
ATOM     14  C   UNL     1      24.265  30.560  47.481  0.00  0.00    +0.000 A 
ATOM     15  C   UNL     1      24.784  29.561  48.289  0.00  0.00    +0.000 A 
ATOM     16  C   UNL     1      23.985  28.899  49.194  0.00  0.00    +0.000 A 
ATOM     17  H   UNL     1      24.461  28.140  49.782  0.00  0.00    +0.000 HD
ATOM     18  C   UNL     1      22.636  29.200  49.336  0.00  0.00    +0.000 A 
ATOM     19  H   UNL     1      22.018  28.672  50.051  0.00  0.00    +0.000 HD
ATOM     20  C   UNL     1      22.101  30.193  48.539  0.00  0.00    +0.000 A 
ATOM     21  C   UNL     1      22.906  30.869  47.619  0.00  0.00    +0.000 A 
BRANCH  14  23
ATOM     22  H   UNL     1      26.337  31.242  46.067  0.00  0.00    +0.000 HD
ATOM     23  S   UNL     1      25.027  31.562  46.291  0.00  0.00    +0.000 S 
ATOM     24  O   UNL     1      24.256  31.590  44.999  0.00  0.00    +0.000 OA
ATOM     25  O   UNL     1      25.015  33.000  46.791  0.00  0.00    +0.000 OA
ENDBRANCH  14  23
ENDBRANCH  11  15
ENDBRANCH   1  11
BRANCH   2  26
ATOM     26  O   UNL     1      29.236  28.414  48.305  0.00  0.00    +0.000 OA
BRANCH  26  28
ATOM     27  O   UNL     1      30.366  26.199  47.441  0.00  0.00    +0.000 OA
ATOM     28  P   UNL     1      30.614  27.688  47.663  0.00  0.00    +0.000 P 
BRANCH  28  29
ATOM     29  O   UNL     1      31.083  28.456  46.224  0.00  0.00    +0.000 OA
ATOM     30  H   UNL     1      30.505  29.249  46.057  0.00  0.00    +0.000 HD
ENDBRANCH  28  29
BRANCH  28  31
ATOM     31  O   UNL     1      31.923  27.753  48.757  0.00  0.00    +0.000 OA
BRANCH  31  32
ATOM     32  C   UNL     1      33.075  27.327  48.080  0.00  0.00    +0.000 C 
ATOM     33  H   UNL     1      32.895  27.378  46.998  0.00  0.00    +0.000 HD
ATOM     34  H   UNL     1      33.266  26.264  48.332  0.00  0.00    +0.000 HD
BRANCH  32  36
ATOM     35  C   UNL     1      34.554  28.440  49.709  0.00  0.00    +0.000 C 
ATOM     36  C   UNL     1      34.276  28.099  48.479  0.00  0.00    +0.000 C 
BRANCH  35  41
ATOM     37  C   UNL     1      37.327  30.175  51.352  0.00  0.00    +0.000 A 
ATOM     38  C   UNL     1      38.076  30.627  50.256  0.00  0.00    +0.000 A 
ATOM     39  C   UNL     1      37.620  30.331  48.971  0.00  0.00    +0.000 A 
ATOM     40  N   UNL     1      36.453  29.608  48.915  0.00  0.00    +0.000 NA
ATOM     41  C   UNL     1      35.769  29.197  49.964  0.00  0.00    +0.000 A 
ATOM     42  N   UNL     1      36.212  29.484  51.183  0.00  0.00    +0.000 NA
ATOM     43  H   UNL     1      37.624  30.370  52.379  0.00  0.00    +0.000 HD
ATOM     44  H   UNL     1      38.996  31.198  50.434  0.00  0.00    +0.000 HD
ATOM     45  H   UNL     1      38.168  30.660  48.119  0.00  0.00    +0.000 HD
ENDBRANCH  35  41
ENDBRANCH  32  36
ENDBRANCH  31  32
ENDBRANCH  28  31
ENDBRANCH  26  28
ENDBRANCH   2  26
TORSDOF 10
