
     RDKit          3D

 44 46  0  0  0  0  0  0  0  0999 V2000
   36.0420   29.9421   46.9708 O   0  0  0  0  0  0  0  0  0  0  0  0
   36.0333   30.2286   48.4480 P   0  0  2  0  0  0  0  0  0  0  0  0
   36.7995   28.9151   49.2428 O   0  0  0  0  0  0  0  0  0  0  0  0
   34.4412   30.3698   49.0166 O   0  0  0  0  0  0  0  0  0  0  0  0
   34.1760   29.2376   49.7657 C   0  0  0  0  0  0  0  0  0  0  0  0
   33.3164   28.2572   49.0651 C   0  0  0  0  0  0  0  0  0  0  0  0
   33.9438   27.3787   48.2150 C   0  0  0  0  0  0  0  0  0  0  0  0
   33.1850   26.4296   47.5255 C   0  0  0  0  0  0  0  0  0  0  0  0
   31.8391   26.4354   47.7450 N   0  0  0  0  0  0  0  0  0  0  0  0
   31.2437   27.3077   48.5847 C   0  0  0  0  0  0  0  0  0  0  0  0
   31.9841   28.2281   49.2526 N   0  0  0  0  0  0  0  0  0  0  0  0
   36.8821   31.6463   48.7491 O   0  0  0  0  0  0  0  0  0  0  0  0
   38.8422   32.4764   47.8047 C   0  0  2  0  0  0  0  0  0  0  0  0
   38.2581   31.4549   48.7557 C   0  0  1  0  0  0  0  0  0  0  0  0
   38.8247   32.0163   50.0660 C   0  0  0  0  0  0  0  0  0  0  0  0
   38.4669   33.3535   49.9612 O   0  0  0  0  0  0  0  0  0  0  0  0
   38.6881   33.7307   48.6598 C   0  0  0  0  0  0  0  0  0  0  0  0
   38.0788   32.5012   46.6664 O   0  0  0  0  0  0  0  0  0  0  0  0
   37.0726   29.2951   50.1247 H   0  0  0  0  0  0  0  0  0  0  0  0
   33.6069   29.5307   50.6923 H   0  0  0  0  0  0  0  0  0  0  0  0
   35.0896   28.6948   50.0978 H   0  0  0  0  0  0  0  0  0  0  0  0
   34.9859   27.2996   47.9812 H   0  0  0  0  0  0  0  0  0  0  0  0
   33.6015   25.7042   46.8397 H   0  0  0  0  0  0  0  0  0  0  0  0
   30.1639   27.2629   48.7185 H   0  0  0  0  0  0  0  0  0  0  0  0
   39.8921   32.2306   47.6205 H   0  0  0  0  0  0  0  0  0  0  0  0
   38.5685   30.4295   48.5676 H   0  0  0  0  0  0  0  0  0  0  0  0
   39.9139   31.8989   50.0955 H   0  0  0  0  0  0  0  0  0  0  0  0
   38.3003   31.5655   50.9309 H   0  0  0  0  0  0  0  0  0  0  0  0
   37.9666   34.4518   48.2405 H   0  0  0  0  0  0  0  0  0  0  0  0
   39.6770   34.2410   48.6353 H   0  0  0  0  0  0  0  0  0  0  0  0
   39.7374   31.0543   47.6841 H   0  0  0  0  0  0  0  0  0  0  0  0
   40.2832   30.6154   46.4838 S   0  0  0  0  0  0  0  0  0  0  0  0
   40.0329   29.1434   46.4273 O   0  0  0  0  0  0  0  0  0  0  0  0
   41.7413   30.8765   46.4886 O   0  0  0  0  0  0  0  0  0  0  0  0
   39.4643   31.3900   45.1404 C   0  0  0  0  0  0  0  0  0  0  0  0
   38.4262   32.2704   45.3687 C   0  0  0  0  0  0  0  0  0  0  0  0
   37.8410   32.8319   44.2508 C   0  0  0  0  0  0  0  0  0  0  0  0
   37.0195   33.5281   44.4403 H   0  0  0  0  0  0  0  0  0  0  0  0
   38.2405   32.5558   42.9647 C   0  0  0  0  0  0  0  0  0  0  0  0
   37.7792   32.9970   42.1061 H   0  0  0  0  0  0  0  0  0  0  0  0
   39.2781   31.6716   42.8174 C   0  0  0  0  0  0  0  0  0  0  0  0
   39.9270   31.0581   43.8833 C   0  0  0  0  0  0  0  0  0  0  0  0
   39.5956   31.4517   41.8041 H   0  0  0  0  0  0  0  0  0  0  0  0
   40.7414   30.3670   43.7131 H   0  0  0  0  0  0  0  0  0  0  0  0
  2  1  2  0
  2 12  1  6
  2  4  1  0
  2  3  1  0
  4  5  1  0
  6 11  1  0
  6  5  1  0
  7  6  2  0
  8  9  2  0
  8  7  1  0
  9 10  1  0
 10 11  2  0
 13 18  1  0
 13 17  1  0
 13 14  1  0
 14 12  1  0
 14 15  1  0
 16 15  1  0
 17 16  1  0
  3 19  1  0
  5 20  1  0
  5 21  1  0
  7 22  1  0
  8 23  1  0
 10 24  1  0
 13 25  1  6
 14 26  1  6
 15 27  1  0
 15 28  1  0
 17 29  1  0
 17 30  1  0
 31 32  1  0
 32 33  2  0
 32 34  2  0
 32 35  1  0
 35 36  2  0
 36 37  1  0
 37 38  1  0
 37 39  2  0
 39 40  1  0
 39 41  1  0
 41 42  2  0
 42 35  1  0
 41 43  1  0
 42 44  1  0
 18 36  1  0
M  ISO  8  19   3  20   8  21   8  22  14  23  14  24  14  25  13  26  13
M  ISO  7  27  13  28  13  29  13  30  13  31  12  38  15  40  16
M  END
>  <DihAtoms>  (1) 
12,17,35,34

>  <DihDeg>  (1) 
-179.9960270799025

$$$$
