
 OpenBabel03272509243D

 27 28  0  0  0  0  0  0  0  0999 V2000
   37.4840   31.2240   46.8530 C   0  0  0  0  0  0  0  0  0  0  0  0
   37.0550   30.2810   46.5140 H   0  0  0  0  0  0  0  0  0  0  0  0
   36.6910   31.9300   47.1750 H   0  0  0  0  0  0  0  0  0  0  0  0
   37.8060   31.8420   44.4640 C   0  0  0  0  0  0  0  0  0  0  0  0
   38.2580   31.9420   45.7790 C   0  0  0  0  0  0  0  0  0  0  0  0
   39.3870   32.6950   46.0060 C   0  0  0  0  0  0  0  0  0  0  0  0
   39.7130   32.7560   47.0240 H   0  0  0  0  0  0  0  0  0  0  0  0
   40.0700   33.3340   45.0180 C   0  0  0  0  0  0  0  0  0  0  0  0
   40.9570   33.9200   45.2330 H   0  0  0  0  0  0  0  0  0  0  0  0
   39.6240   33.2350   43.7210 C   0  0  0  0  0  3  0  0  0  0  0  0
   38.4890   32.4890   43.4320 C   0  0  0  0  0  3  0  0  0  0  0  0
   35.5860   30.7800   45.2740 H   0  0  0  0  0  0  0  0  0  0  0  0
   36.3630   30.8840   44.1480 S   0  0  0  0  0  0  0  0  0  0  0  0
   36.8280   29.5220   43.6630 O   0  0  0  0  0  0  0  0  0  0  0  0
   35.5510   31.5700   43.0870 O   0  0  0  0  0  0  0  0  0  0  0  0
   38.4400   30.9520   48.0040 C   0  0  0  0  0  0  0  0  0  0  0  0
   39.1910   30.2110   47.6940 H   0  0  0  0  0  0  0  0  0  0  0  0
   38.9160   31.9060   48.3510 H   0  0  0  0  0  0  0  0  0  0  0  0
   37.2040   30.1420   51.4920 C   0  0  0  0  0  0  0  0  0  0  0  0
   38.0130   30.7200   50.4890 C   0  0  0  0  0  0  0  0  0  0  0  0
   37.6910   30.4270   49.1740 C   0  0  0  0  0  0  0  0  0  0  0  0
   36.6220   29.6060   48.9090 N   0  0  0  0  0  0  0  0  0  0  0  0
   35.8740   29.0740   49.9060 C   0  0  0  0  0  0  0  0  0  0  0  0
   36.1650   29.3420   51.1930 N   0  0  0  0  0  0  0  0  0  0  0  0
   37.4400   30.3600   52.5330 H   0  0  0  0  0  0  0  0  0  0  0  0
   38.8380   31.3540   50.6950 H   0  0  0  0  0  0  0  0  0  0  0  0
   35.0660   28.4480   49.5510 H   0  0  0  0  0  0  0  0  0  0  0  0
  1  3  1  0  0  0  0
  1 16  1  0  0  0  0
  2  1  1  0  0  0  0
  4  5  1  0  0  0  0
  5  6  2  0  0  0  0
  5  1  1  0  0  0  0
  6  7  1  0  0  0  0
  8  9  1  0  0  0  0
  8  6  1  0  0  0  0
 10  8  2  0  0  0  0
 11 10  1  0  0  0  0
 11  4  2  0  0  0  0
 13  4  1  0  0  0  0
 13 12  1  0  0  0  0
 14 13  2  0  0  0  0
 15 13  2  0  0  0  0
 16 18  1  0  0  0  0
 16 21  1  0  0  0  0
 17 16  1  0  0  0  0
 19 25  1  0  0  0  0
 20 26  1  0  0  0  0
 20 19  2  0  0  0  0
 21 20  1  0  0  0  0
 22 21  2  0  0  0  0
 22 23  1  0  0  0  0
 23 24  2  0  0  0  0
 24 19  1  0  0  0  0
 27 23  1  0  0  0  0
M  END
>  <minimizedAffinity>
-5.05913925

>  <minimizedRMSD>
2.38962936

$$$$
