
 OpenBabel03262521543D

 42 44  0  0  1  0  0  0  0  0999 V2000
   31.7450   26.7790   48.2460 C   0  0  1  0  0  0  0  0  0  0  0  0
   32.4960   28.0790   48.1680 C   0  0  2  0  0  0  0  0  0  0  0  0
   32.3940   28.5900   46.7750 C   0  0  0  0  0  0  0  0  0  0  0  0
   31.6880   27.7460   45.9310 O   0  0  0  0  0  0  0  0  0  0  0  0
   30.3840   27.5650   46.3800 C   0  0  0  0  0  0  0  0  0  0  0  0
   30.3130   27.0570   47.8010 C   0  0  2  0  0  0  0  0  0  0  0  0
   31.7510   26.3800   49.2800 H   0  0  0  0  0  0  0  0  0  0  0  0
   32.0250   28.7470   48.9350 H   0  0  0  0  0  0  0  0  0  0  0  0
   33.3290   28.8820   46.2990 H   0  0  0  0  0  0  0  0  0  0  0  0
   31.7840   29.5390   46.8270 H   0  0  0  0  0  0  0  0  0  0  0  0
   29.7820   28.4950   46.2900 H   0  0  0  0  0  0  0  0  0  0  0  0
   29.9180   26.8100   45.7190 H   0  0  0  0  0  0  0  0  0  0  0  0
   29.7840   26.0970   47.8780 H   0  0  0  0  0  0  0  0  0  0  0  0
   32.2560   25.8390   47.3300 O   0  0  0  0  0  0  0  0  0  0  0  0
   32.3590   24.9960   47.8230 H   0  0  0  0  0  0  0  0  0  0  0  0
   34.2200   27.8850   48.6840 S   0  0  0  0  0  0  0  0  0  0  0  0
   34.7140   29.2950   49.7180 C   0  0  0  0  0  0  0  0  0  0  0  0
   34.4090   30.2160   49.1900 H   0  0  0  0  0  0  0  0  0  0  0  0
   34.1050   29.2500   50.6490 H   0  0  0  0  0  0  0  0  0  0  0  0
   36.4390   29.2810   50.1740 S   0  0  0  0  0  0  0  0  0  0  0  0
   37.2840   30.5940   49.2990 C   0  0  0  0  0  0  0  0  0  0  0  0
   37.2400   31.8200   49.9300 C   0  0  0  0  0  0  0  0  0  0  0  0
   37.8720   32.9090   49.3240 C   0  0  0  0  0  0  0  0  0  0  0  0
   38.4980   32.6840   48.1320 N   0  0  0  0  0  0  0  0  0  0  0  0
   38.5100   31.4600   47.5560 C   0  0  0  0  0  0  0  0  0  0  0  0
   37.9130   30.4350   48.1310 N   0  0  0  0  0  0  0  0  0  0  0  0
   36.7540   32.0080   50.8620 H   0  0  0  0  0  0  0  0  0  0  0  0
   37.8650   33.8880   49.7810 H   0  0  0  0  0  0  0  0  0  0  0  0
   39.0250   31.3320   46.6030 H   0  0  0  0  0  0  0  0  0  0  0  0
   29.8700   28.0770   48.6270 O   0  0  0  0  0  0  0  0  0  0  0  0
   27.7840   28.5620   49.3580 C   0  0  0  0  0  0  0  0  0  0  0  0
   28.9460   27.8420   49.6220 C   0  0  0  0  0  0  0  0  0  0  0  0
   28.9830   27.0640   50.7560 C   0  0  0  0  0  0  0  0  0  0  0  0
   29.9060   26.5480   50.8810 H   0  0  0  0  0  0  0  0  0  0  0  0
   27.8890   27.0150   51.5930 C   0  0  0  0  0  0  0  0  0  0  0  0
   27.9800   26.3860   52.4690 H   0  0  0  0  0  0  0  0  0  0  0  0
   26.7200   27.7210   51.3580 C   0  0  0  0  0  3  0  0  0  0  0  0
   26.6830   28.5000   50.2210 C   0  0  0  0  0  3  0  0  0  0  0  0
   28.6720   29.9420   47.3550 H   0  0  0  0  0  0  0  0  0  0  0  0
   27.5030   29.6230   47.9740 S   0  0  0  0  0  0  0  0  0  0  0  0
   26.7460   30.8510   48.3770 O   0  0  0  0  0  0  0  0  0  0  0  0
   26.6330   28.8530   47.0050 O   0  0  0  0  0  0  0  0  0  0  0  0
  1  7  1  1  0  0  0
  2  1  1  0  0  0  0
  2 16  1  0  0  0  0
  2  8  1  1  0  0  0
  3 10  1  0  0  0  0
  3  2  1  0  0  0  0
  4  5  1  0  0  0  0
  4  3  1  0  0  0  0
  5  6  1  0  0  0  0
  6 13  1  1  0  0  0
  6  1  1  0  0  0  0
  6 30  1  0  0  0  0
  9  3  1  0  0  0  0
 11  5  1  0  0  0  0
 12  5  1  0  0  0  0
 14 15  1  0  0  0  0
 14  1  1  0  0  0  0
 16 17  1  0  0  0  0
 17 20  1  0  0  0  0
 17 19  1  0  0  0  0
 18 17  1  0  0  0  0
 21 22  1  0  0  0  0
 21 20  1  0  0  0  0
 22 27  1  0  0  0  0
 23 28  1  0  0  0  0
 23 22  2  0  0  0  0
 24 23  1  0  0  0  0
 25 26  1  0  0  0  0
 25 24  2  0  0  0  0
 26 21  2  0  0  0  0
 29 25  1  0  0  0  0
 30 32  1  0  0  0  0
 31 32  2  0  0  0  0
 31 38  1  0  0  0  0
 32 33  1  0  0  0  0
 33 34  1  0  0  0  0
 33 35  2  0  0  0  0
 35 36  1  0  0  0  0
 37 35  1  0  0  0  0
 38 37  2  0  0  0  0
 39 40  1  0  0  0  0
 40 41  2  0  0  0  0
 40 31  1  0  0  0  0
 42 40  2  0  0  0  0
M  END
>  <minimizedAffinity>
-6.29637289

>  <minimizedRMSD>
2.63785195

$$$$
