REMARK  Name = 
REMARK  6 active torsions:
REMARK  status: ('A' for Active; 'I' for Inactive)
REMARK    1  A    between atoms: C_1  and  C_16
REMARK    2  A    between atoms: C_3  and  C_4
REMARK    3  A    between atoms: C_18  and  C_20
REMARK    4  A    between atoms: C_20  and  C_21
REMARK    5  A    between atoms: C_21  and  C_44
REMARK    6  A    between atoms: S_40  and  C_43
REMARK                            x       y       z     vdW  Elec       q    Type
REMARK                         _______ _______ _______ _____ _____    ______ ____
ROOT
ATOM      1  C   UNL     1      34.430  28.761  48.382  0.00  0.00    +0.000 A 
ATOM      2  C   UNL     1      35.180  29.681  47.595  0.00  0.00    +0.000 A 
ATOM      3  C   UNL     1      36.164  30.412  48.187  0.00  0.00    +0.000 A 
ATOM      4  N   UNL     1      36.358  30.195  49.539  0.00  0.00    +0.000 NA
ATOM      5  C   UNL     1      35.646  29.328  50.265  0.00  0.00    +0.000 A 
ATOM      6  N   UNL     1      34.672  28.597  49.702  0.00  0.00    +0.000 NA
ATOM      7  H   UNL     1      33.646  28.174  47.919  0.00  0.00    +0.000 HD
ATOM      8  H   UNL     1      34.922  29.748  46.557  0.00  0.00    +0.000 HD
ENDROOT
BRANCH   3   9
ATOM      9  C   UNL     1      36.951  31.390  47.394  0.00  0.00    +0.000 C 
ATOM     10  C   UNL     1      38.139  31.993  48.052  0.00  0.00    +0.000 C 
ATOM     11  C   UNL     1      38.447  30.892  47.164  0.00  0.00    +0.000 C 
ATOM     12  H   UNL     1      36.482  31.757  46.492  0.00  0.00    +0.000 HD
ATOM     13  H   UNL     1      38.215  31.744  49.170  0.00  0.00    +0.000 HD
ATOM     14  H   UNL     1      38.136  33.066  47.901  0.00  0.00    +0.000 HD
ATOM     15  H   UNL     1      38.465  29.822  47.327  0.00  0.00    +0.000 HD
BRANCH  11  16
ATOM     16  C   UNL     1      39.123  31.374  45.913  0.00  0.00    +0.000 A 
ATOM     17  C   UNL     1      39.613  32.673  46.096  0.00  0.00    +0.000 A 
ATOM     18  C   UNL     1      40.356  33.269  45.110  0.00  0.00    +0.000 A 
ATOM     19  C   UNL     1      40.643  32.606  43.910  0.00  0.00    +0.000 A 
ATOM     20  C   UNL     1      40.142  31.321  43.766  0.00  0.00    +0.000 A 
ATOM     21  C   UNL     1      40.347  30.567  42.640  0.00  0.00    +0.000 A 
ATOM     22  C   UNL     1      39.856  29.296  42.475  0.00  0.00    +0.000 A 
ATOM     23  C   UNL     1      39.109  28.738  43.503  0.00  0.00    +0.000 A 
ATOM     24  C   UNL     1      38.902  29.494  44.637  0.00  0.00    +0.000 A 
ATOM     25  C   UNL     1      39.414  30.766  44.758  0.00  0.00    +0.000 A 
ATOM     26  H   UNL     1      39.586  33.413  46.868  0.00  0.00    +0.000 HD
ATOM     27  H   UNL     1      40.810  34.250  45.073  0.00  0.00    +0.000 HD
ATOM     28  H   UNL     1      41.212  32.957  43.057  0.00  0.00    +0.000 HD
ATOM     29  H   UNL     1      40.930  30.991  41.827  0.00  0.00    +0.000 HD
ATOM     30  H   UNL     1      40.050  28.744  41.560  0.00  0.00    +0.000 HD
ATOM     31  H   UNL     1      38.696  27.751  43.440  0.00  0.00    +0.000 HD
ATOM     32  H   UNL     1      38.305  29.032  45.443  0.00  0.00    +0.000 HD
ENDBRANCH  11  16
ENDBRANCH   3   9
BRANCH   5  33
ATOM     33  C   UNL     1      35.982  29.211  51.732  0.00  0.00    +0.000 C 
ATOM     34  H   UNL     1      35.206  29.610  52.382  0.00  0.00    +0.000 HD
ATOM     35  H   UNL     1      36.149  28.135  51.978  0.00  0.00    +0.000 HD
BRANCH  33  36
ATOM     36  C   UNL     1      37.347  29.895  51.934  0.00  0.00    +0.000 C 
ATOM     37  H   UNL     1      37.263  30.956  51.641  0.00  0.00    +0.000 HD
ATOM     38  H   UNL     1      38.068  29.439  51.252  0.00  0.00    +0.000 HD
BRANCH  36  40
ATOM     39  C   UNL     1      38.707  28.873  53.643  0.00  0.00    +0.000 A 
ATOM     40  C   UNL     1      37.745  29.822  53.366  0.00  0.00    +0.000 A 
ATOM     41  C   UNL     1      37.231  30.613  54.372  0.00  0.00    +0.000 A 
ATOM     42  H   UNL     1      36.477  31.344  54.101  0.00  0.00    +0.000 HD
ATOM     43  C   UNL     1      37.667  30.476  55.680  0.00  0.00    +0.000 A 
ATOM     44  H   UNL     1      37.248  31.114  56.470  0.00  0.00    +0.000 HD
ATOM     45  C   UNL     1      38.631  29.527  55.963  0.00  0.00    +0.000 A 
ATOM     46  C   UNL     1      39.151  28.727  54.949  0.00  0.00    +0.000 A 
BRANCH  39  48
ATOM     47  H   UNL     1      38.882  27.694  51.332  0.00  0.00    +0.000 HD
ATOM     48  S   UNL     1      39.495  27.768  52.547  0.00  0.00    +0.000 S 
ATOM     49  O   UNL     1      39.416  26.368  53.126  0.00  0.00    +0.000 OA
ATOM     50  O   UNL     1      40.977  28.064  52.404  0.00  0.00    +0.000 OA
ENDBRANCH  39  48
ENDBRANCH  36  40
ENDBRANCH  33  36
ENDBRANCH   5  33
TORSDOF 6
