
 OpenBabel03262520473D

 37 39  0  0  1  0  0  0  0  0999 V2000
   38.5370   32.3040   46.9890 C   0  0  1  0  0  0  0  0  0  0  0  0
   39.7930   33.0510   46.5150 C   0  0  0  0  0  0  0  0  0  0  0  0
   39.7530   31.5860   46.5670 C   0  0  2  0  0  0  0  0  0  0  0  0
   37.6870   32.3740   46.3030 H   0  0  0  0  0  0  0  0  0  0  0  0
   39.7220   33.5980   45.5590 H   0  0  0  0  0  0  0  0  0  0  0  0
   40.3880   33.6050   47.2730 H   0  0  0  0  0  0  0  0  0  0  0  0
   40.3340   31.1230   47.4160 H   0  0  0  0  0  0  0  0  0  0  0  0
   38.2320   32.5040   48.4570 C   0  0  0  0  0  0  0  0  0  0  0  0
   39.1810   32.7430   48.9830 H   0  0  0  0  0  0  0  0  0  0  0  0
   37.5560   33.3900   48.5230 H   0  0  0  0  0  0  0  0  0  0  0  0
   37.3820   29.8330   50.9390 C   0  0  0  0  0  0  0  0  0  0  0  0
   37.9750   30.9820   50.3340 C   0  0  0  0  0  0  0  0  0  0  0  0
   37.5950   31.3060   49.0510 C   0  0  0  0  0  0  0  0  0  0  0  0
   36.6840   30.5380   48.4150 N   0  0  0  0  0  0  0  0  0  0  0  0
   36.1340   29.4570   49.0010 C   0  0  0  0  0  0  0  0  0  0  0  0
   36.4840   29.1130   50.2550 N   0  0  0  0  0  0  0  0  0  0  0  0
   37.7050   29.6170   51.9340 H   0  0  0  0  0  0  0  0  0  0  0  0
   38.7040   31.5780   50.8700 H   0  0  0  0  0  0  0  0  0  0  0  0
   35.4060   28.8530   48.4750 H   0  0  0  0  0  0  0  0  0  0  0  0
   39.6030   30.7220   45.3420 C   0  0  0  0  0  0  0  0  0  0  0  0
   39.8070   29.6550   45.6340 H   0  0  0  0  0  0  0  0  0  0  0  0
   38.5660   30.7180   44.9880 H   0  0  0  0  0  0  0  0  0  0  0  0
   40.5990   31.0300   44.2600 C   0  0  0  0  0  0  0  0  0  0  0  0
   41.0750   30.0320   44.0140 H   0  0  0  0  0  0  0  0  0  0  0  0
   41.4570   31.6350   44.6090 H   0  0  0  0  0  0  0  0  0  0  0  0
   39.8150   30.6740   41.8990 C   0  0  0  0  0  0  0  0  0  0  0  0
   39.9650   31.4830   43.0200 C   0  0  0  0  0  0  0  0  0  0  0  0
   39.4530   32.7630   42.8480 C   0  0  0  0  0  0  0  0  0  0  0  0
   39.5660   33.4170   43.7290 H   0  0  0  0  0  0  0  0  0  0  0  0
   38.8380   33.3060   41.7430 C   0  0  0  0  0  0  0  0  0  0  0  0
   38.5000   34.3220   41.7790 H   0  0  0  0  0  0  0  0  0  0  0  0
   38.7210   32.4480   40.6620 C   0  0  0  0  0  0  0  0  0  0  0  0
   39.2020   31.1410   40.7300 C   0  0  0  0  0  0  0  0  0  0  0  0
   40.1330   28.5450   40.6240 H   0  0  0  0  0  0  0  0  0  0  0  0
   40.3840   29.0500   41.8990 S   0  0  0  0  0  0  0  0  0  0  0  0
   41.8980   28.9460   42.0170 O   0  0  0  0  0  0  0  0  0  0  0  0
   39.6970   28.1150   42.8160 O   0  0  0  0  0  0  0  0  0  0  0  0
  1  4  1  6  0  0  0
  1  8  1  0  0  0  0
  2  3  1  0  0  0  0
  2  1  1  0  0  0  0
  2  6  1  0  0  0  0
  3  1  1  0  0  0  0
  3  7  1  1  0  0  0
  5  2  1  0  0  0  0
  8 10  1  0  0  0  0
  8  9  1  0  0  0  0
  8 13  1  0  0  0  0
 11 17  1  0  0  0  0
 12 18  1  0  0  0  0
 12 11  1  0  0  0  0
 13 12  2  0  0  0  0
 14 15  2  0  0  0  0
 14 13  1  0  0  0  0
 15 16  1  0  0  0  0
 16 11  2  0  0  0  0
 19 15  1  0  0  0  0
 20 21  1  0  0  0  0
 20  3  1  0  0  0  0
 22 20  1  0  0  0  0
 23 25  1  0  0  0  0
 23 20  1  0  0  0  0
 24 23  1  0  0  0  0
 26 35  1  0  0  0  0
 26 27  1  0  0  0  0
 27 23  1  0  0  0  0
 28 27  2  0  0  0  0
 28 29  1  0  0  0  0
 30 31  1  0  0  0  0
 30 28  1  0  0  0  0
 32 33  1  0  0  0  0
 32 30  2  0  0  0  0
 33 26  2  0  0  0  0
 34 35  1  0  0  0  0
 35 36  2  0  0  0  0
 35 37  2  0  0  0  0
M  END
>  <minimizedAffinity>
-5.44264793

>  <minimizedRMSD>
1.91853333

$$$$
