
 OpenBabel03272505273D

 34 36  0  0  0  0  0  0  0  0999 V2000
   37.5170   31.2040   46.9300 N   0  0  0  0  0  0  0  0  0  0  0  0
   36.9870   30.8700   45.7220 C   0  0  0  0  0  0  0  0  0  0  0  0
   37.4970   31.3740   44.5340 C   0  0  0  0  0  0  0  0  0  0  0  0
   38.5940   32.2520   44.6220 C   0  0  0  0  0  0  0  0  0  0  0  0
   39.0820   32.7280   43.5730 O   0  0  0  0  0  0  0  0  0  0  0  0
   39.1180   32.5800   45.8360 N   0  0  0  0  0  0  0  0  0  0  0  0
   38.5420   32.0320   46.9120 C   0  0  0  0  0  0  0  0  0  0  0  0
   39.0490   32.3590   48.0050 O   0  0  0  0  0  0  0  0  0  0  0  0
   36.1410   30.1890   45.6950 H   0  0  0  0  0  0  0  0  0  0  0  0
   37.2380   29.5870   50.2630 C   0  0  0  0  0  0  0  0  0  0  0  0
   37.7800   30.0890   49.0690 C   0  0  0  0  0  0  0  0  0  0  0  0
   36.9920   30.6920   48.1210 C   0  0  0  0  0  0  0  0  0  0  0  0
   35.6540   30.7860   48.3810 N   0  0  0  0  0  0  0  0  0  0  0  0
   35.1040   30.3050   49.5340 C   0  0  0  0  0  0  0  0  0  0  0  0
   35.9080   29.7090   50.4650 N   0  0  0  0  0  0  0  0  0  0  0  0
   37.7940   29.1090   51.0390 H   0  0  0  0  0  0  0  0  0  0  0  0
   38.8400   29.9160   49.0360 H   0  0  0  0  0  0  0  0  0  0  0  0
   34.0290   30.4040   49.6960 H   0  0  0  0  0  0  0  0  0  0  0  0
   37.4110   30.0650   42.3630 C   0  0  0  0  0  0  0  0  0  0  0  0
   36.9250   31.0140   43.2400 C   0  0  0  0  0  0  0  0  0  0  0  0
   35.7740   31.7270   42.8990 C   0  0  0  0  0  0  0  0  0  0  0  0
   35.3060   32.4890   43.5060 H   0  0  0  0  0  0  0  0  0  0  0  0
   35.1270   31.4930   41.7100 C   0  0  0  0  0  0  0  0  0  0  0  0
   34.2300   32.0200   41.4010 H   0  0  0  0  0  0  0  0  0  0  0  0
   35.6090   30.5450   40.8280 C   0  0  0  0  0  0  0  0  0  0  0  0
   36.7510   29.8360   41.1620 C   0  0  0  0  0  0  0  0  0  0  0  0
   38.9460   28.0090   42.1800 H   0  0  0  0  0  0  0  0  0  0  0  0
   38.8490   29.2170   42.8550 S   0  0  0  0  0  0  0  0  0  0  0  0
   40.0490   30.0180   42.4740 O   0  0  0  0  0  0  0  0  0  0  0  0
   38.8480   28.8810   44.3150 O   0  0  0  0  0  0  0  0  0  0  0  0
   40.2500   33.4820   45.9290 C   0  0  0  0  0  0  0  0  0  0  0  0
   40.1260   34.4780   45.0160 F   0  0  0  0  0  0  0  0  0  0  0  0
   41.4590   32.8580   45.6590 F   0  0  0  0  0  0  0  0  0  0  0  0
   40.2750   34.0480   47.1980 F   0  0  0  0  0  0  0  0  0  0  0  0
  1 12  1  0  0  0  0
  2  1  1  0  0  0  0
  3  4  1  0  0  0  0
  3  2  2  0  0  0  0
  4  6  1  0  0  0  0
  5  4  2  0  0  0  0
  6 31  1  0  0  0  0
  6  7  1  0  0  0  0
  7  1  1  0  0  0  0
  7  8  2  0  0  0  0
  9  2  1  0  0  0  0
 10 15  1  0  0  0  0
 10 16  1  0  0  0  0
 11 10  2  0  0  0  0
 12 13  2  0  0  0  0
 12 11  1  0  0  0  0
 13 14  1  0  0  0  0
 14 18  1  0  0  0  0
 14 15  2  0  0  0  0
 17 11  1  0  0  0  0
 19 28  1  0  0  0  0
 19 20  1  0  0  0  0
 20  3  1  0  0  0  0
 21 20  2  0  0  0  0
 21 22  1  0  0  0  0
 23 21  1  0  0  0  0
 24 23  1  0  0  0  0
 25 26  1  0  0  0  0
 25 23  2  0  0  0  0
 26 19  2  0  0  0  0
 27 28  1  0  0  0  0
 28 30  2  0  0  0  0
 29 28  2  0  0  0  0
 31 34  1  0  0  0  0
 32 31  1  0  0  0  0
 33 31  1  0  0  0  0
M  END
>  <minimizedAffinity>
-6.10412073

>  <minimizedRMSD>
0.494599491

$$$$
