
 OpenBabel03272506073D

 33 35  0  0  0  0  0  0  0  0999 V2000
   36.5400   28.1870   33.6010 C   0  0  0  0  0  0  0  0  0  0  0  0
   36.3720   28.7160   32.2660 C   0  0  0  0  0  0  0  0  0  0  0  0
   35.4600   30.2100   32.5990 S   0  0  0  0  0  0  0  0  0  0  0  0
   35.4310   29.9210   34.4520 C   0  0  0  0  0  0  0  0  0  0  0  0
   36.0240   28.8900   34.5700 N   0  0  0  0  0  0  0  0  0  0  0  0
   36.7140   28.2980   31.3510 H   0  0  0  0  0  0  0  0  0  0  0  0
   33.4400   30.6680   35.6300 C   0  0  0  0  0  0  0  0  0  0  0  0
   34.7940   30.8350   35.4130 C   0  0  0  0  0  0  0  0  0  0  0  0
   35.5460   31.8000   36.0500 C   0  0  0  0  0  0  0  0  0  0  0  0
   36.6060   31.9090   35.8610 H   0  0  0  0  0  0  0  0  0  0  0  0
   34.9640   32.6580   36.9480 C   0  0  0  0  0  0  0  0  0  0  0  0
   35.4670   33.4430   37.4950 H   0  0  0  0  0  0  0  0  0  0  0  0
   33.6070   32.5030   37.1760 C   0  0  0  0  0  3  0  0  0  0  0  0
   32.8720   31.5300   36.5290 C   0  0  0  0  0  3  0  0  0  0  0  0
   33.4440   28.6310   34.0560 H   0  0  0  0  0  0  0  0  0  0  0  0
   32.5770   29.4130   34.7730 S   0  0  0  0  0  0  0  0  0  0  0  0
   31.4900   30.0000   33.9370 O   0  0  0  0  0  0  0  0  0  0  0  0
   31.8880   28.5140   35.7820 O   0  0  0  0  0  0  0  0  0  0  0  0
   37.2890   26.8910   33.7440 C   0  0  0  0  0  0  0  0  0  0  0  0
   36.6420   26.0420   33.4410 H   0  0  0  0  0  0  0  0  0  0  0  0
   38.1270   26.8970   33.0160 H   0  0  0  0  0  0  0  0  0  0  0  0
   37.7110   26.6670   35.1650 C   0  0  0  0  0  0  0  0  0  0  0  0
   36.8950   26.9480   35.8830 H   0  0  0  0  0  0  0  0  0  0  0  0
   38.5930   27.2340   35.4710 H   0  0  0  0  0  0  0  0  0  0  0  0
   38.2860   23.0290   34.6670 C   0  0  0  0  0  0  0  0  0  0  0  0
   38.2690   22.5340   35.9750 C   0  0  0  0  0  0  0  0  0  0  0  0
   38.0620   23.4550   37.0070 C   0  0  0  0  0  0  0  0  0  0  0  0
   37.8890   24.7580   36.6950 N   0  0  0  0  0  0  0  0  0  0  0  0
   37.9140   25.1860   35.4110 C   0  0  0  0  0  0  0  0  0  0  0  0
   38.1090   24.3420   34.3990 N   0  0  0  0  0  0  0  0  0  0  0  0
   38.4490   22.2980   33.8800 H   0  0  0  0  0  0  0  0  0  0  0  0
   38.4140   21.4750   36.1640 H   0  0  0  0  0  0  0  0  0  0  0  0
   38.0480   23.0800   38.0110 H   0  0  0  0  0  0  0  0  0  0  0  0
  1 19  1  0  0  0  0
  1  5  1  0  0  0  0
  2  3  1  0  0  0  0
  2  1  2  0  0  0  0
  3  4  1  0  0  0  0
  4  5  2  0  0  0  0
  4  8  1  0  0  0  0
  6  2  1  0  0  0  0
  7 14  1  0  0  0  0
  8  7  2  0  0  0  0
  8  9  1  0  0  0  0
  9 11  2  0  0  0  0
 10  9  1  0  0  0  0
 11 13  1  0  0  0  0
 11 12  1  0  0  0  0
 14 13  2  0  0  0  0
 15 16  1  0  0  0  0
 16  7  1  0  0  0  0
 16 18  2  0  0  0  0
 17 16  2  0  0  0  0
 19 22  1  0  0  0  0
 20 19  1  0  0  0  0
 21 19  1  0  0  0  0
 22 29  1  0  0  0  0
 22 24  1  0  0  0  0
 22 23  1  0  0  0  0
 25 26  1  0  0  0  0
 26 32  1  0  0  0  0
 26 27  2  0  0  0  0
 27 33  1  0  0  0  0
 28 27  1  0  0  0  0
 29 28  2  0  0  0  0
 30 25  2  0  0  0  0
 30 29  1  0  0  0  0
 31 25  1  0  0  0  0
M  END
>  <minimizedAffinity>
-5.27401257

$$$$

 OpenBabel03272506073D

 33 35  0  0  0  0  0  0  0  0999 V2000
   37.7850   24.2270   32.4270 C   0  0  0  0  0  0  0  0  0  0  0  0
   38.3780   25.5230   32.1890 C   0  0  0  0  0  0  0  0  0  0  0  0
   39.0120   25.9170   33.8060 S   0  0  0  0  0  0  0  0  0  0  0  0
   38.4020   24.3140   34.5670 C   0  0  0  0  0  0  0  0  0  0  0  0
   37.8770   23.7660   33.6430 N   0  0  0  0  0  0  0  0  0  0  0  0
   38.4100   26.0680   31.2770 H   0  0  0  0  0  0  0  0  0  0  0  0
   39.7290   23.2200   36.2840 C   0  0  0  0  0  0  0  0  0  0  0  0
   38.5980   23.9510   35.9780 C   0  0  0  0  0  0  0  0  0  0  0  0
   37.6750   24.3410   36.9260 C   0  0  0  0  0  0  0  0  0  0  0  0
   36.7960   24.9140   36.6590 H   0  0  0  0  0  0  0  0  0  0  0  0
   37.8460   24.0100   38.2450 C   0  0  0  0  0  0  0  0  0  0  0  0
   37.1810   24.2680   39.0580 H   0  0  0  0  0  0  0  0  0  0  0  0
   38.9760   23.2760   38.5670 C   0  0  0  0  0  3  0  0  0  0  0  0
   39.8880   22.8960   37.6040 C   0  0  0  0  0  3  0  0  0  0  0  0
   40.1880   22.6850   33.8080 H   0  0  0  0  0  0  0  0  0  0  0  0
   40.8400   22.7760   35.0100 S   0  0  0  0  0  0  0  0  0  0  0  0
   41.5800   21.5310   35.3680 O   0  0  0  0  0  0  0  0  0  0  0  0
   41.8910   23.8610   34.8730 O   0  0  0  0  0  0  0  0  0  0  0  0
   37.1280   23.5400   31.2630 C   0  0  0  0  0  0  0  0  0  0  0  0
   37.0550   24.2350   30.4020 H   0  0  0  0  0  0  0  0  0  0  0  0
   37.7990   22.7230   30.9250 H   0  0  0  0  0  0  0  0  0  0  0  0
   35.7420   23.0920   31.6150 C   0  0  0  0  0  0  0  0  0  0  0  0
   35.0340   23.2390   30.7570 H   0  0  0  0  0  0  0  0  0  0  0  0
   35.2990   23.6130   32.4670 H   0  0  0  0  0  0  0  0  0  0  0  0
   35.9520   19.4190   31.0860 C   0  0  0  0  0  0  0  0  0  0  0  0
   35.6810   18.9090   32.3600 C   0  0  0  0  0  0  0  0  0  0  0  0
   35.4310   19.8330   33.3810 C   0  0  0  0  0  0  0  0  0  0  0  0
   35.4620   21.1520   33.0910 N   0  0  0  0  0  0  0  0  0  0  0  0
   35.7290   21.5930   31.8390 C   0  0  0  0  0  0  0  0  0  0  0  0
   35.9730   20.7480   30.8390 N   0  0  0  0  0  0  0  0  0  0  0  0
   36.1430   18.6850   30.3080 H   0  0  0  0  0  0  0  0  0  0  0  0
   35.6690   17.8380   32.5330 H   0  0  0  0  0  0  0  0  0  0  0  0
   35.2230   19.4470   34.3590 H   0  0  0  0  0  0  0  0  0  0  0  0
  1  5  1  0  0  0  0
  2  1  2  0  0  0  0
  2  3  1  0  0  0  0
  3  4  1  0  0  0  0
  4  8  1  0  0  0  0
  5  4  2  0  0  0  0
  6  2  1  0  0  0  0
  7 14  1  0  0  0  0
  8  7  2  0  0  0  0
  8  9  1  0  0  0  0
  9 11  2  0  0  0  0
 10  9  1  0  0  0  0
 11 13  1  0  0  0  0
 11 12  1  0  0  0  0
 14 13  2  0  0  0  0
 15 16  1  0  0  0  0
 16 17  2  0  0  0  0
 16  7  1  0  0  0  0
 18 16  2  0  0  0  0
 19 22  1  0  0  0  0
 19  1  1  0  0  0  0
 20 19  1  0  0  0  0
 21 19  1  0  0  0  0
 22 29  1  0  0  0  0
 22 24  1  0  0  0  0
 23 22  1  0  0  0  0
 25 26  1  0  0  0  0
 26 32  1  0  0  0  0
 26 27  2  0  0  0  0
 27 33  1  0  0  0  0
 28 27  1  0  0  0  0
 29 28  2  0  0  0  0
 30 25  2  0  0  0  0
 30 29  1  0  0  0  0
 31 25  1  0  0  0  0
M  END
>  <minimizedAffinity>
-5.26288033

$$$$

 OpenBabel03272506073D

 33 35  0  0  0  0  0  0  0  0999 V2000
   37.7230   25.4710   33.3110 C   0  0  0  0  0  0  0  0  0  0  0  0
   38.0450   26.8430   33.6320 C   0  0  0  0  0  0  0  0  0  0  0  0
   39.2850   26.6230   34.8920 S   0  0  0  0  0  0  0  0  0  0  0  0
   39.2010   24.7500   34.8150 C   0  0  0  0  0  0  0  0  0  0  0  0
   38.3730   24.5560   33.9750 N   0  0  0  0  0  0  0  0  0  0  0  0
   37.6310   27.7260   33.2090 H   0  0  0  0  0  0  0  0  0  0  0  0
   39.4440   23.3860   36.8130 C   0  0  0  0  0  0  0  0  0  0  0  0
   40.0210   23.8590   35.6500 C   0  0  0  0  0  0  0  0  0  0  0  0
   41.3020   23.5310   35.2580 C   0  0  0  0  0  0  0  0  0  0  0  0
   41.7300   23.9160   34.3410 H   0  0  0  0  0  0  0  0  0  0  0  0
   42.0760   22.7010   36.0270 C   0  0  0  0  0  0  0  0  0  0  0  0
   43.0870   22.3880   35.8050 H   0  0  0  0  0  0  0  0  0  0  0  0
   41.5120   22.2200   37.1960 C   0  0  0  0  0  3  0  0  0  0  0  0
   40.2280   22.5590   37.5700 C   0  0  0  0  0  3  0  0  0  0  0  0
   37.3380   24.7860   36.3290 H   0  0  0  0  0  0  0  0  0  0  0  0
   37.8120   23.8600   37.2200 S   0  0  0  0  0  0  0  0  0  0  0  0
   37.7370   24.3210   38.6370 O   0  0  0  0  0  0  0  0  0  0  0  0
   36.9100   22.6430   37.1300 O   0  0  0  0  0  0  0  0  0  0  0  0
   36.6840   25.2320   32.2530 C   0  0  0  0  0  0  0  0  0  0  0  0
   35.8280   24.6700   32.6790 H   0  0  0  0  0  0  0  0  0  0  0  0
   36.2690   26.2160   31.9510 H   0  0  0  0  0  0  0  0  0  0  0  0
   37.2450   24.4280   31.1190 C   0  0  0  0  0  0  0  0  0  0  0  0
   38.3620   24.3500   31.1860 H   0  0  0  0  0  0  0  0  0  0  0  0
   37.0280   24.8290   30.1270 H   0  0  0  0  0  0  0  0  0  0  0  0
   35.2360   21.3940   31.8780 C   0  0  0  0  0  0  0  0  0  0  0  0
   36.0340   20.3630   31.3720 C   0  0  0  0  0  0  0  0  0  0  0  0
   37.2480   20.7230   30.7780 C   0  0  0  0  0  0  0  0  0  0  0  0
   37.5860   22.0300   30.7230 N   0  0  0  0  0  0  0  0  0  0  0  0
   36.7770   22.9900   31.2290 C   0  0  0  0  0  0  0  0  0  0  0  0
   35.6130   22.6900   31.8030 N   0  0  0  0  0  0  0  0  0  0  0  0
   34.2980   21.0930   32.3360 H   0  0  0  0  0  0  0  0  0  0  0  0
   35.7100   19.3300   31.4450 H   0  0  0  0  0  0  0  0  0  0  0  0
   37.8630   19.9370   30.3880 H   0  0  0  0  0  0  0  0  0  0  0  0
  1  2  2  0  0  0  0
  1  5  1  0  0  0  0
  2  3  1  0  0  0  0
  4  3  1  0  0  0  0
  4  8  1  0  0  0  0
  5  4  2  0  0  0  0
  6  2  1  0  0  0  0
  7 16  1  0  0  0  0
  7 14  1  0  0  0  0
  8  7  2  0  0  0  0
  9  8  1  0  0  0  0
  9 11  2  0  0  0  0
 10  9  1  0  0  0  0
 11 13  1  0  0  0  0
 12 11  1  0  0  0  0
 13 14  2  0  0  0  0
 15 16  1  0  0  0  0
 16 17  2  0  0  0  0
 18 16  2  0  0  0  0
 19 20  1  0  0  0  0
 19  1  1  0  0  0  0
 21 19  1  0  0  0  0
 22 23  1  0  0  0  0
 22 29  1  0  0  0  0
 22 19  1  0  0  0  0
 24 22  1  0  0  0  0
 25 31  1  0  0  0  0
 26 32  1  0  0  0  0
 26 25  2  0  0  0  0
 27 26  1  0  0  0  0
 28 27  2  0  0  0  0
 28 29  1  0  0  0  0
 29 30  2  0  0  0  0
 30 25  1  0  0  0  0
 33 27  1  0  0  0  0
M  END
>  <minimizedAffinity>
-5.12907743

$$$$

 OpenBabel03272506073D

 33 35  0  0  0  0  0  0  0  0999 V2000
   37.4830   25.1240   33.0570 C   0  0  0  0  0  0  0  0  0  0  0  0
   36.7230   25.9740   32.1690 C   0  0  0  0  0  0  0  0  0  0  0  0
   35.8660   24.7630   31.1820 S   0  0  0  0  0  0  0  0  0  0  0  0
   36.6350   23.3090   32.0840 C   0  0  0  0  0  0  0  0  0  0  0  0
   37.3360   23.8400   32.8940 N   0  0  0  0  0  0  0  0  0  0  0  0
   36.7030   27.0360   32.1390 H   0  0  0  0  0  0  0  0  0  0  0  0
   37.2680   21.2430   30.9700 C   0  0  0  0  0  0  0  0  0  0  0  0
   36.3490   21.9020   31.7630 C   0  0  0  0  0  0  0  0  0  0  0  0
   35.2060   21.3010   32.2500 C   0  0  0  0  0  0  0  0  0  0  0  0
   34.5030   21.8420   32.8690 H   0  0  0  0  0  0  0  0  0  0  0  0
   34.9290   19.9910   31.9580 C   0  0  0  0  0  0  0  0  0  0  0  0
   34.0630   19.4340   32.2910 H   0  0  0  0  0  0  0  0  0  0  0  0
   35.8410   19.3170   31.1630 C   0  0  0  0  0  3  0  0  0  0  0  0
   36.9790   19.9360   30.6870 C   0  0  0  0  0  3  0  0  0  0  0  0
   38.4590   23.4440   30.3650 H   0  0  0  0  0  0  0  0  0  0  0  0
   38.6860   22.0930   30.4040 S   0  0  0  0  0  0  0  0  0  0  0  0
   39.1450   21.5390   29.0970 O   0  0  0  0  0  0  0  0  0  0  0  0
   39.8240   21.8550   31.3800 O   0  0  0  0  0  0  0  0  0  0  0  0
   38.3600   25.7960   34.0770 C   0  0  0  0  0  0  0  0  0  0  0  0
   39.3530   25.3030   34.1090 H   0  0  0  0  0  0  0  0  0  0  0  0
   38.5580   26.8320   33.7290 H   0  0  0  0  0  0  0  0  0  0  0  0
   37.7560   25.7120   35.4460 C   0  0  0  0  0  0  0  0  0  0  0  0
   36.7030   25.3280   35.4060 H   0  0  0  0  0  0  0  0  0  0  0  0
   37.7120   26.6630   35.9820 H   0  0  0  0  0  0  0  0  0  0  0  0
   40.2060   23.1500   36.5640 C   0  0  0  0  0  0  0  0  0  0  0  0
   39.7290   22.8010   37.8320 C   0  0  0  0  0  0  0  0  0  0  0  0
   38.5750   23.4500   38.2840 C   0  0  0  0  0  0  0  0  0  0  0  0
   37.9860   24.3670   37.4860 N   0  0  0  0  0  0  0  0  0  0  0  0
   38.4890   24.6680   36.2650 C   0  0  0  0  0  0  0  0  0  0  0  0
   39.5860   24.0750   35.7970 N   0  0  0  0  0  0  0  0  0  0  0  0
   41.1030   22.6350   36.2320 H   0  0  0  0  0  0  0  0  0  0  0  0
   40.2450   22.0560   38.4280 H   0  0  0  0  0  0  0  0  0  0  0  0
   38.2050   23.1870   39.2550 H   0  0  0  0  0  0  0  0  0  0  0  0
  1 19  1  0  0  0  0
  2  1  2  0  0  0  0
  3  4  1  0  0  0  0
  3  2  1  0  0  0  0
  4  5  2  0  0  0  0
  5  1  1  0  0  0  0
  6  2  1  0  0  0  0
  7  8  1  0  0  0  0
  8  4  1  0  0  0  0
  8  9  2  0  0  0  0
  9 10  1  0  0  0  0
 11  9  1  0  0  0  0
 11 12  1  0  0  0  0
 13 11  2  0  0  0  0
 14  7  2  0  0  0  0
 14 13  1  0  0  0  0
 15 16  1  0  0  0  0
 16  7  1  0  0  0  0
 16 18  2  0  0  0  0
 17 16  2  0  0  0  0
 19 20  1  0  0  0  0
 19 22  1  0  0  0  0
 21 19  1  0  0  0  0
 22 24  1  0  0  0  0
 22 29  1  0  0  0  0
 23 22  1  0  0  0  0
 25 26  1  0  0  0  0
 26 27  2  0  0  0  0
 26 32  1  0  0  0  0
 27 33  1  0  0  0  0
 28 27  1  0  0  0  0
 29 28  2  0  0  0  0
 30 29  1  0  0  0  0
 30 25  2  0  0  0  0
 31 25  1  0  0  0  0
M  END
>  <minimizedAffinity>
-5.09375572

$$$$

 OpenBabel03272506073D

 33 35  0  0  0  0  0  0  0  0999 V2000
   36.3310   28.2810   32.9440 C   0  0  0  0  0  0  0  0  0  0  0  0
   36.2190   29.0440   31.7210 C   0  0  0  0  0  0  0  0  0  0  0  0
   35.3850   30.5080   32.3010 S   0  0  0  0  0  0  0  0  0  0  0  0
   35.3040   29.9030   34.0750 C   0  0  0  0  0  0  0  0  0  0  0  0
   35.8360   28.8340   34.0160 N   0  0  0  0  0  0  0  0  0  0  0  0
   36.5560   28.7730   30.7500 H   0  0  0  0  0  0  0  0  0  0  0  0
   33.3430   30.5080   35.3790 C   0  0  0  0  0  0  0  0  0  0  0  0
   34.7000   30.6710   35.1750 C   0  0  0  0  0  0  0  0  0  0  0  0
   35.4830   31.5040   35.9470 C   0  0  0  0  0  0  0  0  0  0  0  0
   36.5440   31.6120   35.7650 H   0  0  0  0  0  0  0  0  0  0  0  0
   34.9310   32.2240   36.9750 C   0  0  0  0  0  0  0  0  0  0  0  0
   35.4600   32.9010   37.6320 H   0  0  0  0  0  0  0  0  0  0  0  0
   33.5730   32.0720   37.1910 C   0  0  0  0  0  3  0  0  0  0  0  0
   32.8060   31.2330   36.4080 C   0  0  0  0  0  3  0  0  0  0  0  0
   33.2630   28.4800   33.7940 H   0  0  0  0  0  0  0  0  0  0  0  0
   32.4390   29.4270   34.3460 S   0  0  0  0  0  0  0  0  0  0  0  0
   31.6670   30.1960   33.3270 O   0  0  0  0  0  0  0  0  0  0  0  0
   31.4080   28.6940   35.1840 O   0  0  0  0  0  0  0  0  0  0  0  0
   37.0030   26.9390   32.8650 C   0  0  0  0  0  0  0  0  0  0  0  0
   38.1050   27.0650   32.8650 H   0  0  0  0  0  0  0  0  0  0  0  0
   36.7720   26.3850   33.7990 H   0  0  0  0  0  0  0  0  0  0  0  0
   36.6190   26.2170   31.6100 C   0  0  0  0  0  0  0  0  0  0  0  0
   37.4090   26.3210   30.8200 H   0  0  0  0  0  0  0  0  0  0  0  0
   35.6880   26.5620   31.1550 H   0  0  0  0  0  0  0  0  0  0  0  0
   35.7000   22.6180   31.4830 C   0  0  0  0  0  0  0  0  0  0  0  0
   36.5590   22.0480   32.4280 C   0  0  0  0  0  0  0  0  0  0  0  0
   37.4410   22.9070   33.0940 C   0  0  0  0  0  0  0  0  0  0  0  0
   37.4190   24.2250   32.7970 N   0  0  0  0  0  0  0  0  0  0  0  0
   36.5660   24.7250   31.8720 C   0  0  0  0  0  0  0  0  0  0  0  0
   35.7110   23.9430   31.2150 N   0  0  0  0  0  0  0  0  0  0  0  0
   35.0240   21.9340   30.9780 H   0  0  0  0  0  0  0  0  0  0  0  0
   36.5310   20.9820   32.6250 H   0  0  0  0  0  0  0  0  0  0  0  0
   38.1010   22.4750   33.8190 H   0  0  0  0  0  0  0  0  0  0  0  0
  1  5  1  0  0  0  0
  2  3  1  0  0  0  0
  2  1  2  0  0  0  0
  3  4  1  0  0  0  0
  4  8  1  0  0  0  0
  5  4  2  0  0  0  0
  6  2  1  0  0  0  0
  7 14  1  0  0  0  0
  8  7  2  0  0  0  0
  8  9  1  0  0  0  0
  9 11  2  0  0  0  0
 10  9  1  0  0  0  0
 11 13  1  0  0  0  0
 11 12  1  0  0  0  0
 14 13  2  0  0  0  0
 15 16  1  0  0  0  0
 16 18  2  0  0  0  0
 16  7  1  0  0  0  0
 17 16  2  0  0  0  0
 19 20  1  0  0  0  0
 19  1  1  0  0  0  0
 19 21  1  0  0  0  0
 22 29  1  0  0  0  0
 22 19  1  0  0  0  0
 23 22  1  0  0  0  0
 24 22  1  0  0  0  0
 25 26  1  0  0  0  0
 26 32  1  0  0  0  0
 26 27  2  0  0  0  0
 27 33  1  0  0  0  0
 28 27  1  0  0  0  0
 29 28  2  0  0  0  0
 30 25  2  0  0  0  0
 30 29  1  0  0  0  0
 31 25  1  0  0  0  0
M  END
>  <minimizedAffinity>
-5.0446372

$$$$

 OpenBabel03272506073D

 33 35  0  0  0  0  0  0  0  0999 V2000
   35.7050   29.5510   32.2010 C   0  0  0  0  0  0  0  0  0  0  0  0
   35.1510   30.4950   31.2570 C   0  0  0  0  0  0  0  0  0  0  0  0
   33.8400   31.2200   32.2210 S   0  0  0  0  0  0  0  0  0  0  0  0
   34.2110   30.1730   33.7330 C   0  0  0  0  0  0  0  0  0  0  0  0
   35.1380   29.5080   33.3740 N   0  0  0  0  0  0  0  0  0  0  0  0
   35.4660   30.6810   30.2600 H   0  0  0  0  0  0  0  0  0  0  0  0
   33.8430   31.2400   35.8850 C   0  0  0  0  0  0  0  0  0  0  0  0
   33.4580   30.2580   34.9930 C   0  0  0  0  0  0  0  0  0  0  0  0
   32.4190   29.3830   35.2380 C   0  0  0  0  0  0  0  0  0  0  0  0
   32.1390   28.6230   34.5210 H   0  0  0  0  0  0  0  0  0  0  0  0
   31.7090   29.4540   36.4090 C   0  0  0  0  0  0  0  0  0  0  0  0
   30.8830   28.8150   36.6910 H   0  0  0  0  0  0  0  0  0  0  0  0
   32.0840   30.4330   37.3130 C   0  0  0  0  0  3  0  0  0  0  0  0
   33.1250   31.2990   37.0490 C   0  0  0  0  0  3  0  0  0  0  0  0
   35.1380   32.6360   34.1520 H   0  0  0  0  0  0  0  0  0  0  0  0
   35.1710   32.3010   35.4800 S   0  0  0  0  0  0  0  0  0  0  0  0
   36.4700   31.7000   35.8990 O   0  0  0  0  0  0  0  0  0  0  0  0
   35.0320   33.5880   36.2730 O   0  0  0  0  0  0  0  0  0  0  0  0
   36.8710   28.7190   31.7470 C   0  0  0  0  0  0  0  0  0  0  0  0
   36.6620   28.2820   30.7490 H   0  0  0  0  0  0  0  0  0  0  0  0
   37.7370   29.3970   31.5950 H   0  0  0  0  0  0  0  0  0  0  0  0
   37.1330   27.5920   32.7000 C   0  0  0  0  0  0  0  0  0  0  0  0
   36.5800   27.7360   33.6650 H   0  0  0  0  0  0  0  0  0  0  0  0
   38.1830   27.4600   32.9690 H   0  0  0  0  0  0  0  0  0  0  0  0
   35.0160   25.1490   30.8660 C   0  0  0  0  0  0  0  0  0  0  0  0
   35.6040   23.9240   31.1970 C   0  0  0  0  0  0  0  0  0  0  0  0
   36.7170   23.9540   32.0440 C   0  0  0  0  0  0  0  0  0  0  0  0
   37.1630   25.1480   32.4950 N   0  0  0  0  0  0  0  0  0  0  0  0
   36.5570   26.3060   32.1430 C   0  0  0  0  0  0  0  0  0  0  0  0
   35.4950   26.3220   31.3390 N   0  0  0  0  0  0  0  0  0  0  0  0
   34.1530   25.1040   30.2070 H   0  0  0  0  0  0  0  0  0  0  0  0
   35.2010   22.9960   30.8040 H   0  0  0  0  0  0  0  0  0  0  0  0
   37.1710   23.0180   32.3010 H   0  0  0  0  0  0  0  0  0  0  0  0
  1  5  1  0  0  0  0
  2  1  2  0  0  0  0
  2  3  1  0  0  0  0
  3  4  1  0  0  0  0
  4  8  1  0  0  0  0
  5  4  2  0  0  0  0
  6  2  1  0  0  0  0
  7 14  1  0  0  0  0
  8  9  1  0  0  0  0
  8  7  2  0  0  0  0
  9 11  2  0  0  0  0
 10  9  1  0  0  0  0
 11 12  1  0  0  0  0
 11 13  1  0  0  0  0
 14 13  2  0  0  0  0
 15 16  1  0  0  0  0
 16  7  1  0  0  0  0
 16 17  2  0  0  0  0
 16 18  2  0  0  0  0
 19  1  1  0  0  0  0
 19 22  1  0  0  0  0
 20 19  1  0  0  0  0
 21 19  1  0  0  0  0
 22 24  1  0  0  0  0
 22 23  1  0  0  0  0
 25 26  2  0  0  0  0
 25 30  1  0  0  0  0
 26 27  1  0  0  0  0
 27 33  1  0  0  0  0
 27 28  2  0  0  0  0
 29 28  1  0  0  0  0
 29 22  1  0  0  0  0
 30 29  2  0  0  0  0
 31 25  1  0  0  0  0
 32 26  1  0  0  0  0
M  END
>  <minimizedAffinity>
-5.03685427

$$$$

 OpenBabel03272506073D

 33 35  0  0  0  0  0  0  0  0999 V2000
   37.5750   25.5160   32.7800 C   0  0  0  0  0  0  0  0  0  0  0  0
   38.2700   26.7830   32.7590 C   0  0  0  0  0  0  0  0  0  0  0  0
   39.0580   26.7710   34.3570 S   0  0  0  0  0  0  0  0  0  0  0  0
   38.3560   25.0950   34.8230 C   0  0  0  0  0  0  0  0  0  0  0  0
   37.7130   24.8000   33.8600 N   0  0  0  0  0  0  0  0  0  0  0  0
   38.2860   27.5060   31.9810 H   0  0  0  0  0  0  0  0  0  0  0  0
   39.6710   23.5270   36.1350 C   0  0  0  0  0  0  0  0  0  0  0  0
   38.6210   24.4240   36.1050 C   0  0  0  0  0  0  0  0  0  0  0  0
   37.8380   24.7050   37.2060 C   0  0  0  0  0  0  0  0  0  0  0  0
   37.0220   25.4130   37.1540 H   0  0  0  0  0  0  0  0  0  0  0  0
   38.0760   24.0860   38.4070 C   0  0  0  0  0  0  0  0  0  0  0  0
   37.5200   24.2390   39.3220 H   0  0  0  0  0  0  0  0  0  0  0  0
   39.1250   23.1840   38.4520 C   0  0  0  0  0  3  0  0  0  0  0  0
   39.8970   22.9180   37.3400 C   0  0  0  0  0  3  0  0  0  0  0  0
   39.9380   23.7040   33.5810 H   0  0  0  0  0  0  0  0  0  0  0  0
   40.6040   23.2430   34.6860 S   0  0  0  0  0  0  0  0  0  0  0  0
   40.9850   21.8040   34.5790 O   0  0  0  0  0  0  0  0  0  0  0  0
   41.9080   24.0130   34.7810 O   0  0  0  0  0  0  0  0  0  0  0  0
   36.7700   25.1470   31.5650 C   0  0  0  0  0  0  0  0  0  0  0  0
   35.7670   24.7850   31.8690 H   0  0  0  0  0  0  0  0  0  0  0  0
   36.5850   26.0740   30.9820 H   0  0  0  0  0  0  0  0  0  0  0  0
   37.4400   24.0550   30.7870 C   0  0  0  0  0  0  0  0  0  0  0  0
   38.5120   23.9330   31.0920 H   0  0  0  0  0  0  0  0  0  0  0  0
   37.4480   24.2080   29.7050 H   0  0  0  0  0  0  0  0  0  0  0  0
   35.1370   21.4420   32.0850 C   0  0  0  0  0  0  0  0  0  0  0  0
   35.7730   20.2560   31.7050 C   0  0  0  0  0  0  0  0  0  0  0  0
   36.9810   20.3700   31.0090 C   0  0  0  0  0  0  0  0  0  0  0  0
   37.4680   21.6020   30.7430 N   0  0  0  0  0  0  0  0  0  0  0  0
   36.8120   22.7200   31.1340 C   0  0  0  0  0  0  0  0  0  0  0  0
   35.6590   22.6560   31.7970 N   0  0  0  0  0  0  0  0  0  0  0  0
   34.2000   21.3320   32.6240 H   0  0  0  0  0  0  0  0  0  0  0  0
   35.3330   19.2940   31.9470 H   0  0  0  0  0  0  0  0  0  0  0  0
   37.4730   19.4640   30.7160 H   0  0  0  0  0  0  0  0  0  0  0  0
  1  5  1  0  0  0  0
  2  1  2  0  0  0  0
  2  3  1  0  0  0  0
  3  4  1  0  0  0  0
  4  8  1  0  0  0  0
  5  4  2  0  0  0  0
  6  2  1  0  0  0  0
  7 14  1  0  0  0  0
  8  7  2  0  0  0  0
  8  9  1  0  0  0  0
  9 11  2  0  0  0  0
 10  9  1  0  0  0  0
 11 13  1  0  0  0  0
 11 12  1  0  0  0  0
 14 13  2  0  0  0  0
 15 16  1  0  0  0  0
 16 18  2  0  0  0  0
 16  7  1  0  0  0  0
 17 16  2  0  0  0  0
 19 20  1  0  0  0  0
 19  1  1  0  0  0  0
 21 19  1  0  0  0  0
 22 23  1  0  0  0  0
 22 29  1  0  0  0  0
 22 19  1  0  0  0  0
 24 22  1  0  0  0  0
 25 31  1  0  0  0  0
 26 32  1  0  0  0  0
 26 25  2  0  0  0  0
 27 26  1  0  0  0  0
 28 27  2  0  0  0  0
 28 29  1  0  0  0  0
 29 30  2  0  0  0  0
 30 25  1  0  0  0  0
 33 27  1  0  0  0  0
M  END
>  <minimizedAffinity>
-5.00645494

$$$$

 OpenBabel03272506073D

 33 35  0  0  0  0  0  0  0  0999 V2000
   38.5220   25.7740   32.6520 C   0  0  0  0  0  0  0  0  0  0  0  0
   39.4240   26.8990   32.7520 C   0  0  0  0  0  0  0  0  0  0  0  0
   39.9760   26.7510   34.4390 S   0  0  0  0  0  0  0  0  0  0  0  0
   38.9370   25.2250   34.7710 C   0  0  0  0  0  0  0  0  0  0  0  0
   38.3870   25.0460   33.7250 N   0  0  0  0  0  0  0  0  0  0  0  0
   39.6690   27.6070   31.9990 H   0  0  0  0  0  0  0  0  0  0  0  0
   39.8350   23.5130   36.2450 C   0  0  0  0  0  0  0  0  0  0  0  0
   38.9070   24.5200   36.0620 C   0  0  0  0  0  0  0  0  0  0  0  0
   37.9820   24.8760   37.0220 C   0  0  0  0  0  0  0  0  0  0  0  0
   37.2660   25.6690   36.8510 H   0  0  0  0  0  0  0  0  0  0  0  0
   37.9440   24.2260   38.2290 C   0  0  0  0  0  0  0  0  0  0  0  0
   37.2600   24.4320   39.0410 H   0  0  0  0  0  0  0  0  0  0  0  0
   38.8680   23.2150   38.4270 C   0  0  0  0  0  3  0  0  0  0  0  0
   39.7860   22.8740   37.4540 C   0  0  0  0  0  3  0  0  0  0  0  0
   40.4770   23.5440   33.7520 H   0  0  0  0  0  0  0  0  0  0  0  0
   40.9660   23.1400   34.9670 S   0  0  0  0  0  0  0  0  0  0  0  0
   41.3340   21.6940   34.9970 O   0  0  0  0  0  0  0  0  0  0  0  0
   42.2540   23.9030   35.2110 O   0  0  0  0  0  0  0  0  0  0  0  0
   37.8360   25.5500   31.3340 C   0  0  0  0  0  0  0  0  0  0  0  0
   38.2980   26.1850   30.5510 H   0  0  0  0  0  0  0  0  0  0  0  0
   38.0330   24.5040   31.0180 H   0  0  0  0  0  0  0  0  0  0  0  0
   36.3820   25.9040   31.4170 C   0  0  0  0  0  0  0  0  0  0  0  0
   35.9680   25.6960   32.4390 H   0  0  0  0  0  0  0  0  0  0  0  0
   35.7420   25.3640   30.7150 H   0  0  0  0  0  0  0  0  0  0  0  0
   35.3210   29.4320   31.9130 C   0  0  0  0  0  0  0  0  0  0  0  0
   35.9700   30.0970   30.8680 C   0  0  0  0  0  0  0  0  0  0  0  0
   36.7620   29.3260   30.0100 C   0  0  0  0  0  0  0  0  0  0  0  0
   36.8590   27.9970   30.2280 N   0  0  0  0  0  0  0  0  0  0  0  0
   36.2090   27.4010   31.2560 C   0  0  0  0  0  0  0  0  0  0  0  0
   35.4460   28.0980   32.0960 N   0  0  0  0  0  0  0  0  0  0  0  0
   34.7120   30.0480   32.5670 H   0  0  0  0  0  0  0  0  0  0  0  0
   35.8550   31.1690   30.7420 H   0  0  0  0  0  0  0  0  0  0  0  0
   37.2620   29.8320   29.2080 H   0  0  0  0  0  0  0  0  0  0  0  0
  1  2  2  0  0  0  0
  1  5  1  0  0  0  0
  2  3  1  0  0  0  0
  3  4  1  0  0  0  0
  4  8  1  0  0  0  0
  5  4  2  0  0  0  0
  6  2  1  0  0  0  0
  7 14  1  0  0  0  0
  8  7  2  0  0  0  0
  8  9  1  0  0  0  0
  9 11  2  0  0  0  0
 10  9  1  0  0  0  0
 11 13  1  0  0  0  0
 11 12  1  0  0  0  0
 14 13  2  0  0  0  0
 15 16  1  0  0  0  0
 16 17  2  0  0  0  0
 16 18  2  0  0  0  0
 16  7  1  0  0  0  0
 19 22  1  0  0  0  0
 19  1  1  0  0  0  0
 20 19  1  0  0  0  0
 21 19  1  0  0  0  0
 22 23  1  0  0  0  0
 24 22  1  0  0  0  0
 25 30  1  0  0  0  0
 25 31  1  0  0  0  0
 26 25  2  0  0  0  0
 27 28  2  0  0  0  0
 27 26  1  0  0  0  0
 28 29  1  0  0  0  0
 29 22  1  0  0  0  0
 29 30  2  0  0  0  0
 32 26  1  0  0  0  0
 33 27  1  0  0  0  0
M  END
>  <minimizedAffinity>
-4.95257759

$$$$

 OpenBabel03272506073D

 33 35  0  0  0  0  0  0  0  0999 V2000
   39.3500   24.4340   33.8740 C   0  0  0  0  0  0  0  0  0  0  0  0
   40.6030   25.0240   34.2860 C   0  0  0  0  0  0  0  0  0  0  0  0
   40.1950   26.7580   34.2580 S   0  0  0  0  0  0  0  0  0  0  0  0
   38.4280   26.4550   33.7050 C   0  0  0  0  0  0  0  0  0  0  0  0
   38.3760   25.2640   33.6240 N   0  0  0  0  0  0  0  0  0  0  0  0
   41.5090   24.5260   34.5330 H   0  0  0  0  0  0  0  0  0  0  0  0
   37.3760   28.0340   32.1860 C   0  0  0  0  0  0  0  0  0  0  0  0
   37.4490   27.5270   33.4690 C   0  0  0  0  0  0  0  0  0  0  0  0
   36.6560   27.9790   34.5030 C   0  0  0  0  0  0  0  0  0  0  0  0
   36.7350   27.5630   35.4990 H   0  0  0  0  0  0  0  0  0  0  0  0
   35.7400   28.9770   34.2950 C   0  0  0  0  0  0  0  0  0  0  0  0
   35.0770   29.3970   35.0390 H   0  0  0  0  0  0  0  0  0  0  0  0
   35.6560   29.4960   33.0140 C   0  0  0  0  0  3  0  0  0  0  0  0
   36.4570   29.0300   31.9920 C   0  0  0  0  0  3  0  0  0  0  0  0
   39.6470   27.0600   31.4640 H   0  0  0  0  0  0  0  0  0  0  0  0
   38.4240   27.3920   30.9440 S   0  0  0  0  0  0  0  0  0  0  0  0
   38.5160   28.3380   29.7930 O   0  0  0  0  0  0  0  0  0  0  0  0
   37.8090   26.1200   30.3900 O   0  0  0  0  0  0  0  0  0  0  0  0
   39.2880   22.9350   33.7770 C   0  0  0  0  0  0  0  0  0  0  0  0
   39.0880   22.6300   32.7300 H   0  0  0  0  0  0  0  0  0  0  0  0
   40.2960   22.5350   34.0130 H   0  0  0  0  0  0  0  0  0  0  0  0
   38.1910   22.3850   34.6370 C   0  0  0  0  0  0  0  0  0  0  0  0
   38.1910   21.2630   34.6320 H   0  0  0  0  0  0  0  0  0  0  0  0
   37.1850   22.6890   34.3390 H   0  0  0  0  0  0  0  0  0  0  0  0
   37.8020   23.6560   38.1080 C   0  0  0  0  0  0  0  0  0  0  0  0
   39.0290   23.3280   38.6940 C   0  0  0  0  0  0  0  0  0  0  0  0
   39.9700   22.6750   37.8900 C   0  0  0  0  0  0  0  0  0  0  0  0
   39.6540   22.3990   36.6070 N   0  0  0  0  0  0  0  0  0  0  0  0
   38.4500   22.7390   36.0880 C   0  0  0  0  0  0  0  0  0  0  0  0
   37.5260   23.3600   36.8180 N   0  0  0  0  0  0  0  0  0  0  0  0
   37.0860   24.1620   38.7480 H   0  0  0  0  0  0  0  0  0  0  0  0
   39.2260   23.5760   39.7320 H   0  0  0  0  0  0  0  0  0  0  0  0
   40.9120   22.4220   38.3350 H   0  0  0  0  0  0  0  0  0  0  0  0
  1  2  2  0  0  0  0
  2  6  1  0  0  0  0
  3  2  1  0  0  0  0
  4  3  1  0  0  0  0
  5  4  2  0  0  0  0
  5  1  1  0  0  0  0
  7  8  1  0  0  0  0
  8  4  1  0  0  0  0
  8  9  2  0  0  0  0
  9 10  1  0  0  0  0
 11  9  1  0  0  0  0
 11 12  1  0  0  0  0
 13 11  2  0  0  0  0
 14  7  2  0  0  0  0
 14 13  1  0  0  0  0
 16 15  1  0  0  0  0
 16  7  1  0  0  0  0
 17 16  2  0  0  0  0
 18 16  2  0  0  0  0
 19  1  1  0  0  0  0
 19 21  1  0  0  0  0
 19 22  1  0  0  0  0
 20 19  1  0  0  0  0
 22 29  1  0  0  0  0
 23 22  1  0  0  0  0
 24 22  1  0  0  0  0
 25 26  1  0  0  0  0
 25 31  1  0  0  0  0
 26 32  1  0  0  0  0
 27 33  1  0  0  0  0
 27 26  2  0  0  0  0
 28 27  1  0  0  0  0
 29 28  2  0  0  0  0
 29 30  1  0  0  0  0
 30 25  2  0  0  0  0
M  END
>  <minimizedAffinity>
-4.91329288

$$$$
