REMARK  Name = 
REMARK  5 active torsions:
REMARK  status: ('A' for Active; 'I' for Inactive)
REMARK    1  A    between atoms: C_1  and  C_15
REMARK    2  A    between atoms: C_4  and  C_7
REMARK    3  A    between atoms: C_15  and  C_17
REMARK    4  A    between atoms: C_21  and  C_37
REMARK    5  A    between atoms: S_33  and  C_36
REMARK                            x       y       z     vdW  Elec       q    Type
REMARK                         _______ _______ _______ _____ _____    ______ ____
ROOT
ATOM      1  C   UNL     1      37.230  29.525  50.051  0.00  0.00    +0.000 C 
ATOM      2  O   UNL     1      37.879  28.955  50.966  0.00  0.00    +0.000 OA
ENDROOT
BRANCH   1   3
ATOM      3  C   UNL     1      37.781  30.558  49.210  0.00  0.00    +0.000 A 
ATOM      4  C   UNL     1      38.124  31.765  49.827  0.00  0.00    +0.000 A 
ATOM      5  C   UNL     1      38.660  32.793  49.061  0.00  0.00    +0.000 A 
ATOM      6  N   UNL     1      38.817  32.539  47.727  0.00  0.00    +0.000 NA
ATOM      7  C   UNL     1      38.484  31.380  47.154  0.00  0.00    +0.000 A 
ATOM      8  N   UNL     1      37.970  30.399  47.892  0.00  0.00    +0.000 NA
ATOM      9  H   UNL     1      37.996  31.951  50.872  0.00  0.00    +0.000 HD
ATOM     10  H   UNL     1      38.946  33.741  49.461  0.00  0.00    +0.000 HD
BRANCH   7  12
ATOM     11  C   UNL     1      37.769  31.075  44.764  0.00  0.00    +0.000 A 
ATOM     12  C   UNL     1      38.730  31.304  45.721  0.00  0.00    +0.000 A 
ATOM     13  C   UNL     1      40.007  31.463  45.231  0.00  0.00    +0.000 A 
ATOM     14  H   UNL     1      40.869  31.652  45.885  0.00  0.00    +0.000 HD
ATOM     15  C   UNL     1      40.318  31.402  43.877  0.00  0.00    +0.000 A 
ATOM     16  H   UNL     1      41.323  31.531  43.529  0.00  0.00    +0.000 HD
ATOM     17  C   UNL     1      39.330  31.172  42.949  0.00  0.00    +0.000 A 
ATOM     18  C   UNL     1      38.047  31.010  43.425  0.00  0.00    +0.000 A 
BRANCH  11  20
ATOM     19  H   UNL     1      36.054  29.898  46.222  0.00  0.00    +0.000 HD
ATOM     20  S   UNL     1      36.124  30.861  45.269  0.00  0.00    +0.000 S 
ATOM     21  O   UNL     1      35.245  30.437  44.113  0.00  0.00    +0.000 OA
ATOM     22  O   UNL     1      35.560  32.128  45.822  0.00  0.00    +0.000 OA
ENDBRANCH  11  20
ENDBRANCH   7  12
ENDBRANCH   1   3
BRANCH   1  23
ATOM     23  C   UNL     1      35.849  29.135  49.813  0.00  0.00    +0.000 A 
ATOM     24  C   UNL     1      34.822  29.625  50.542  0.00  0.00    +0.000 A 
ATOM     25  C   UNL     1      33.646  29.043  50.048  0.00  0.00    +0.000 A 
ATOM     26  C   UNL     1      34.062  28.206  49.010  0.00  0.00    +0.000 A 
ATOM     27  O   UNL     1      35.351  28.319  48.942  0.00  0.00    +0.000 OA
ATOM     28  H   UNL     1      34.862  30.342  51.369  0.00  0.00    +0.000 HD
ATOM     29  H   UNL     1      32.673  29.265  50.456  0.00  0.00    +0.000 HD
BRANCH  26  31
ATOM     30  C   UNL     1      33.535  26.440  47.338  0.00  0.00    +0.000 A 
ATOM     31  C   UNL     1      33.121  27.403  48.221  0.00  0.00    +0.000 A 
ATOM     32  C   UNL     1      31.791  27.672  48.428  0.00  0.00    +0.000 A 
ATOM     33  C   UNL     1      30.864  26.941  47.717  0.00  0.00    +0.000 A 
ATOM     34  N   UNL     1      29.513  26.978  47.713  0.00  0.00    +0.000 N 
ATOM     35  N   UNL     1      29.088  26.060  46.850  0.00  0.00    +0.000 NA
ATOM     36  C   UNL     1      30.140  25.444  46.308  0.00  0.00    +0.000 A 
ATOM     37  C   UNL     1      31.303  25.980  46.838  0.00  0.00    +0.000 A 
ATOM     38  C   UNL     1      32.639  25.697  46.617  0.00  0.00    +0.000 A 
ATOM     39  H   UNL     1      34.600  26.259  47.203  0.00  0.00    +0.000 HD
ATOM     40  H   UNL     1      31.379  28.428  49.117  0.00  0.00    +0.000 HD
ATOM     41  H   UNL     1      28.890  27.617  48.289  0.00  0.00    +0.000 HD
ATOM     42  H   UNL     1      30.065  24.641  45.560  0.00  0.00    +0.000 HD
ATOM     43  H   UNL     1      32.939  24.928  45.911  0.00  0.00    +0.000 HD
ENDBRANCH  26  31
ENDBRANCH   1  23
TORSDOF 5
