
 OpenBabel03272509463D

 28 29  0  0  0  0  0  0  0  0999 V2000
   32.9550   27.5720   48.4190 C   0  0  0  0  0  0  0  0  0  0  0  0
   33.3150   27.5470   47.3610 H   0  0  0  0  0  0  0  0  0  0  0  0
   33.1490   26.5560   48.8100 H   0  0  0  0  0  0  0  0  0  0  0  0
   31.0500   28.3250   47.2080 C   0  0  0  0  0  0  0  0  0  0  0  0
   31.4960   27.8310   48.4390 C   0  0  0  0  0  0  0  0  0  0  0  0
   30.5960   27.6490   49.4610 C   0  0  0  0  0  0  0  0  0  0  0  0
   31.0440   27.2640   50.3640 H   0  0  0  0  0  0  0  0  0  0  0  0
   29.2640   27.9470   49.2870 C   0  0  0  0  0  0  0  0  0  0  0  0
   28.5960   27.7810   50.1410 H   0  0  0  0  0  0  0  0  0  0  0  0
   28.7790   28.4360   48.0930 C   0  0  0  0  0  3  0  0  0  0  0  0
   29.6930   28.6230   47.0510 C   0  0  0  0  0  3  0  0  0  0  0  0
   33.1740   29.2230   46.0240 H   0  0  0  0  0  0  0  0  0  0  0  0
   31.9620   28.6480   45.7670 S   0  0  0  0  0  0  0  0  0  0  0  0
   32.1480   27.4240   44.9000 O   0  0  0  0  0  0  0  0  0  0  0  0
   31.1880   29.6890   44.9740 O   0  0  0  0  0  0  0  0  0  0  0  0
   33.7300   28.6020   49.1870 C   0  0  0  0  0  0  0  0  0  0  0  0
   33.8410   29.4830   48.4890 H   0  0  0  0  0  0  0  0  0  0  0  0
   33.1430   28.9850   50.0310 H   0  0  0  0  0  0  0  0  0  0  0  0
   35.0080   28.1130   49.5330 O   0  0  0  0  0  0  0  0  0  0  0  0
   37.2560   30.2580   51.3760 C   0  0  0  0  0  0  0  0  0  0  0  0
   37.9920   30.8100   50.3060 C   0  0  0  0  0  0  0  0  0  0  0  0
   37.6720   30.4120   49.0110 C   0  0  0  0  0  0  0  0  0  0  0  0
   36.6580   29.5050   48.8620 N   0  0  0  0  0  0  0  0  0  0  0  0
   35.9830   29.0060   49.9130 C   0  0  0  0  0  0  0  0  0  0  0  0
   36.2870   29.3870   51.1740 N   0  0  0  0  0  0  0  0  0  0  0  0
   37.4760   30.5430   52.3860 H   0  0  0  0  0  0  0  0  0  0  0  0
   38.7890   31.5260   50.4790 H   0  0  0  0  0  0  0  0  0  0  0  0
   38.1970   30.7950   48.1450 H   0  0  0  0  0  0  0  0  0  0  0  0
  1  5  1  0  0  0  0
  1  3  1  0  0  0  0
  1 16  1  0  0  0  0
  2  1  1  0  0  0  0
  4  5  1  0  0  0  0
  5  6  2  0  0  0  0
  6  7  1  0  0  0  0
  8  6  1  0  0  0  0
  8  9  1  0  0  0  0
 10  8  2  0  0  0  0
 11  4  2  0  0  0  0
 11 10  1  0  0  0  0
 13 12  1  0  0  0  0
 13  4  1  0  0  0  0
 14 13  2  0  0  0  0
 15 13  2  0  0  0  0
 16 19  1  0  0  0  0
 16 18  1  0  0  0  0
 17 16  1  0  0  0  0
 19 24  1  0  0  0  0
 20 26  1  0  0  0  0
 21 27  1  0  0  0  0
 21 20  2  0  0  0  0
 22 21  1  0  0  0  0
 23 22  2  0  0  0  0
 23 24  1  0  0  0  0
 24 25  2  0  0  0  0
 25 20  1  0  0  0  0
 28 22  1  0  0  0  0
M  END
>  <minimizedAffinity>
-4.48502684

>  <minimizedRMSD>
2.88406038

$$$$
