
 OpenBabel03272504183D

 29 30  0  0  0  0  0  0  0  0999 V2000
   36.8020   26.9510   35.0840 O   0  0  0  0  0  0  0  0  0  0  0  0
   38.0780   26.1780   34.9460 P   0  0  1  0  0  0  0  0  0  0  0  0
   39.4020   26.9850   35.6340 O   0  0  0  0  0  0  0  0  0  0  0  0
   40.1940   26.4260   35.4870 H   0  0  0  0  0  0  0  0  0  0  0  0
   37.9910   24.6500   35.7490 O   0  0  0  0  0  0  0  0  0  0  0  0
   39.1250   23.9740   36.1730 C   0  0  0  0  0  0  0  0  0  0  0  0
   39.2110   23.1330   37.2710 C   0  0  0  0  0  0  0  0  0  0  0  0
   40.4180   22.5300   37.5660 C   0  0  0  0  0  0  0  0  0  0  0  0
   41.4970   22.7780   36.7640 N   0  0  0  0  0  0  0  0  0  0  0  0
   41.3820   23.6130   35.6850 C   0  0  0  0  0  0  0  0  0  0  0  0
   40.1930   24.2070   35.3960 N   0  0  0  0  0  0  0  0  0  0  0  0
   40.4300   21.8920   38.4200 H   0  0  0  0  0  0  0  0  0  0  0  0
   42.2530   23.7960   35.0620 H   0  0  0  0  0  0  0  0  0  0  0  0
   38.0150   22.9760   37.9990 N   0  0  0  0  0  0  0  0  0  0  0  0
   37.7990   22.0600   38.4290 H   0  0  0  0  0  0  0  0  0  0  0  0
   37.3370   23.7660   38.1180 H   0  0  0  0  0  0  0  0  0  0  0  0
   38.2900   25.9200   33.2930 O   0  0  0  0  0  0  0  0  0  0  0  0
   36.5220   25.7870   31.7910 C   0  0  0  0  0  0  0  0  0  0  0  0
   37.4060   25.0860   32.6200 C   0  0  0  0  0  0  0  0  0  0  0  0
   37.3430   23.7100   32.7040 C   0  0  0  0  0  0  0  0  0  0  0  0
   38.0610   23.2440   33.3650 H   0  0  0  0  0  0  0  0  0  0  0  0
   36.4130   22.9920   31.9780 C   0  0  0  0  0  0  0  0  0  0  0  0
   36.4000   21.9130   32.0730 H   0  0  0  0  0  0  0  0  0  0  0  0
   35.5180   23.6710   31.1430 C   0  0  0  0  0  3  0  0  0  0  0  0
   35.5970   25.0470   31.0720 C   0  0  0  0  0  3  0  0  0  0  0  0
   37.5680   28.1170   32.2150 H   0  0  0  0  0  0  0  0  0  0  0  0
   36.5050   27.5130   31.6050 S   0  0  0  0  0  0  0  0  0  0  0  0
   35.2440   28.1260   32.1480 O   0  0  0  0  0  0  0  0  0  0  0  0
   36.5580   27.9010   30.1340 O   0  0  0  0  0  0  0  0  0  0  0  0
  2  1  2  1  0  0  0
  2  3  1  0  0  0  0
  2  5  1  0  0  0  0
  4  3  1  0  0  0  0
  5  6  1  0  0  0  0
  6  7  1  0  0  0  0
  7  8  2  0  0  0  0
  7 14  1  0  0  0  0
  8 12  1  0  0  0  0
  9  8  1  0  0  0  0
 10  9  2  0  0  0  0
 11 10  1  0  0  0  0
 11  6  2  0  0  0  0
 13 10  1  0  0  0  0
 14 16  1  0  0  0  0
 14 15  1  0  0  0  0
 17  2  1  0  0  0  0
 18 19  1  0  0  0  0
 19 20  2  0  0  0  0
 19 17  1  0  0  0  0
 20 21  1  0  0  0  0
 22 23  1  0  0  0  0
 22 20  1  0  0  0  0
 24 22  2  0  0  0  0
 25 24  1  0  0  0  0
 25 18  2  0  0  0  0
 27 18  1  0  0  0  0
 27 28  2  0  0  0  0
 27 26  1  0  0  0  0
 29 27  2  0  0  0  0
M  END
>  <minimizedAffinity>
-5.12281799

$$$$

 OpenBabel03272504183D

 29 30  0  0  0  0  0  0  0  0999 V2000
   39.5740   21.3380   33.0590 O   0  0  0  0  0  0  0  0  0  0  0  0
   38.9300   22.3780   33.9230 P   0  0  1  0  0  0  0  0  0  0  0  0
   37.4370   21.8690   34.5450 O   0  0  0  0  0  0  0  0  0  0  0  0
   37.0750   22.6060   35.0810 H   0  0  0  0  0  0  0  0  0  0  0  0
   39.9040   22.7640   35.2970 O   0  0  0  0  0  0  0  0  0  0  0  0
   39.3570   23.2350   36.4810 C   0  0  0  0  0  0  0  0  0  0  0  0
   39.6660   22.7900   37.7570 C   0  0  0  0  0  0  0  0  0  0  0  0
   39.0310   23.3630   38.8420 C   0  0  0  0  0  0  0  0  0  0  0  0
   38.1160   24.3550   38.6280 N   0  0  0  0  0  0  0  0  0  0  0  0
   37.8320   24.7750   37.3560 C   0  0  0  0  0  0  0  0  0  0  0  0
   38.4570   24.2100   36.2880 N   0  0  0  0  0  0  0  0  0  0  0  0
   39.3040   22.9850   39.8010 H   0  0  0  0  0  0  0  0  0  0  0  0
   37.1010   25.5650   37.2100 H   0  0  0  0  0  0  0  0  0  0  0  0
   40.6270   21.7630   37.8150 N   0  0  0  0  0  0  0  0  0  0  0  0
   41.2960   21.7380   38.6050 H   0  0  0  0  0  0  0  0  0  0  0  0
   40.6830   21.0190   37.0790 H   0  0  0  0  0  0  0  0  0  0  0  0
   38.7710   23.7520   32.9580 O   0  0  0  0  0  0  0  0  0  0  0  0
   37.2210   25.3330   32.2530 C   0  0  0  0  0  0  0  0  0  0  0  0
   37.5720   23.9780   32.2940 C   0  0  0  0  0  0  0  0  0  0  0  0
   36.7590   23.0270   31.7130 C   0  0  0  0  0  0  0  0  0  0  0  0
   37.1000   22.0040   31.7880 H   0  0  0  0  0  0  0  0  0  0  0  0
   35.5850   23.3830   31.0780 C   0  0  0  0  0  0  0  0  0  0  0  0
   34.9760   22.6040   30.6340 H   0  0  0  0  0  0  0  0  0  0  0  0
   35.2120   24.7320   31.0240 C   0  0  0  0  0  3  0  0  0  0  0  0
   36.0390   25.6670   31.6110 C   0  0  0  0  0  3  0  0  0  0  0  0
   39.4970   26.3330   32.9710 H   0  0  0  0  0  0  0  0  0  0  0  0
   38.1610   26.6160   32.9470 S   0  0  0  0  0  0  0  0  0  0  0  0
   37.7270   26.9370   34.3510 O   0  0  0  0  0  0  0  0  0  0  0  0
   37.9940   27.9040   32.1530 O   0  0  0  0  0  0  0  0  0  0  0  0
  2  1  2  6  0  0  0
  2  3  1  0  0  0  0
  2  5  1  0  0  0  0
  3  4  1  0  0  0  0
  5  6  1  0  0  0  0
  6  7  1  0  0  0  0
  7 14  1  0  0  0  0
  7  8  2  0  0  0  0
  8 12  1  0  0  0  0
  9  8  1  0  0  0  0
 10  9  2  0  0  0  0
 11  6  2  0  0  0  0
 11 10  1  0  0  0  0
 13 10  1  0  0  0  0
 14 15  1  0  0  0  0
 16 14  1  0  0  0  0
 17  2  1  0  0  0  0
 18 19  1  0  0  0  0
 18 27  1  0  0  0  0
 19 17  1  0  0  0  0
 20 21  1  0  0  0  0
 20 19  2  0  0  0  0
 22 20  1  0  0  0  0
 23 22  1  0  0  0  0
 24 22  2  0  0  0  0
 24 25  1  0  0  0  0
 25 18  2  0  0  0  0
 27 26  1  0  0  0  0
 27 28  2  0  0  0  0
 29 27  2  0  0  0  0
M  END
>  <minimizedAffinity>
-5.09951258

$$$$

 OpenBabel03272504183D

 29 30  0  0  0  0  0  0  0  0999 V2000
   36.7620   26.7980   35.0270 O   0  0  0  0  0  0  0  0  0  0  0  0
   38.0650   26.0610   35.0070 P   0  0  1  0  0  0  0  0  0  0  0  0
   39.3500   27.0000   35.5920 O   0  0  0  0  0  0  0  0  0  0  0  0
   40.1630   26.4560   35.5310 H   0  0  0  0  0  0  0  0  0  0  0  0
   38.0200   24.6530   36.0090 O   0  0  0  0  0  0  0  0  0  0  0  0
   39.1650   23.9410   36.3330 C   0  0  0  0  0  0  0  0  0  0  0  0
   39.3030   23.0530   37.3890 C   0  0  0  0  0  0  0  0  0  0  0  0
   40.5140   22.4180   37.5810 C   0  0  0  0  0  0  0  0  0  0  0  0
   41.5450   22.6810   36.7240 N   0  0  0  0  0  0  0  0  0  0  0  0
   41.3800   23.5630   35.6890 C   0  0  0  0  0  0  0  0  0  0  0  0
   40.1860   24.1880   35.5000 N   0  0  0  0  0  0  0  0  0  0  0  0
   40.5680   21.7450   38.4070 H   0  0  0  0  0  0  0  0  0  0  0  0
   42.2130   23.7560   35.0200 H   0  0  0  0  0  0  0  0  0  0  0  0
   38.1520   22.8870   38.1840 N   0  0  0  0  0  0  0  0  0  0  0  0
   37.9450   21.9570   38.5890 H   0  0  0  0  0  0  0  0  0  0  0  0
   37.4980   23.6820   38.3770 H   0  0  0  0  0  0  0  0  0  0  0  0
   38.3100   25.5900   33.4070 O   0  0  0  0  0  0  0  0  0  0  0  0
   36.8140   24.1900   32.3110 C   0  0  0  0  0  0  0  0  0  0  0  0
   37.2190   25.5080   32.5510 C   0  0  0  0  0  0  0  0  0  0  0  0
   36.5510   26.5620   31.9620 C   0  0  0  0  0  0  0  0  0  0  0  0
   36.9250   27.5490   32.1990 H   0  0  0  0  0  0  0  0  0  0  0  0
   35.4730   26.3480   31.1260 C   0  0  0  0  0  0  0  0  0  0  0  0
   34.9770   27.2050   30.6850 H   0  0  0  0  0  0  0  0  0  0  0  0
   35.0500   25.0370   30.8700 C   0  0  0  0  0  3  0  0  0  0  0  0
   35.7300   23.9970   31.4690 C   0  0  0  0  0  3  0  0  0  0  0  0
   37.7860   22.9050   34.3370 H   0  0  0  0  0  0  0  0  0  0  0  0
   37.5740   22.7860   32.9930 S   0  0  0  0  0  0  0  0  0  0  0  0
   38.8940   22.4850   32.3370 O   0  0  0  0  0  0  0  0  0  0  0  0
   36.7130   21.5470   32.7870 O   0  0  0  0  0  0  0  0  0  0  0  0
  2  1  2  1  0  0  0
  2  3  1  0  0  0  0
  2  5  1  0  0  0  0
  4  3  1  0  0  0  0
  5  6  1  0  0  0  0
  6  7  1  0  0  0  0
  7  8  2  0  0  0  0
  7 14  1  0  0  0  0
  8 12  1  0  0  0  0
  9  8  1  0  0  0  0
 10  9  2  0  0  0  0
 11 10  1  0  0  0  0
 11  6  2  0  0  0  0
 13 10  1  0  0  0  0
 14 16  1  0  0  0  0
 14 15  1  0  0  0  0
 17  2  1  0  0  0  0
 18 19  1  0  0  0  0
 18 27  1  0  0  0  0
 19 17  1  0  0  0  0
 20 21  1  0  0  0  0
 20 19  2  0  0  0  0
 22 20  1  0  0  0  0
 23 22  1  0  0  0  0
 24 22  2  0  0  0  0
 24 25  1  0  0  0  0
 25 18  2  0  0  0  0
 27 26  1  0  0  0  0
 28 27  2  0  0  0  0
 29 27  2  0  0  0  0
M  END
>  <minimizedAffinity>
-5.07821608

$$$$

 OpenBabel03272504183D

 29 30  0  0  0  0  0  0  0  0999 V2000
   40.6740   26.6080   35.1450 O   0  0  0  0  0  0  0  0  0  0  0  0
   39.2150   26.7710   34.8500 P   0  0  1  0  0  0  0  0  0  0  0  0
   38.4770   27.9250   35.8480 O   0  0  0  0  0  0  0  0  0  0  0  0
   37.5280   27.9590   35.6060 H   0  0  0  0  0  0  0  0  0  0  0  0
   38.9450   27.3100   33.2300 O   0  0  0  0  0  0  0  0  0  0  0  0
   37.8360   26.9170   32.4960 C   0  0  0  0  0  0  0  0  0  0  0  0
   37.6860   25.7130   31.8260 C   0  0  0  0  0  0  0  0  0  0  0  0
   36.5160   25.4680   31.1350 C   0  0  0  0  0  0  0  0  0  0  0  0
   35.5350   26.4190   31.1320 N   0  0  0  0  0  0  0  0  0  0  0  0
   35.7110   27.6000   31.8050 C   0  0  0  0  0  0  0  0  0  0  0  0
   36.8640   27.8400   32.4850 N   0  0  0  0  0  0  0  0  0  0  0  0
   36.4500   24.5270   30.6370 H   0  0  0  0  0  0  0  0  0  0  0  0
   34.9170   28.3410   31.7890 H   0  0  0  0  0  0  0  0  0  0  0  0
   38.7830   24.8340   31.9210 N   0  0  0  0  0  0  0  0  0  0  0  0
   38.6140   23.8140   31.9650 H   0  0  0  0  0  0  0  0  0  0  0  0
   39.7690   25.1880   31.9490 H   0  0  0  0  0  0  0  0  0  0  0  0
   38.5280   25.2430   35.0430 O   0  0  0  0  0  0  0  0  0  0  0  0
   39.4870   23.5350   36.2930 C   0  0  0  0  0  0  0  0  0  0  0  0
   38.6020   24.6190   36.2820 C   0  0  0  0  0  0  0  0  0  0  0  0
   37.9120   24.9700   37.4240 C   0  0  0  0  0  0  0  0  0  0  0  0
   37.2480   25.8190   37.3340 H   0  0  0  0  0  0  0  0  0  0  0  0
   38.0750   24.2660   38.6010 C   0  0  0  0  0  0  0  0  0  0  0  0
   37.5130   24.5760   39.4750 H   0  0  0  0  0  0  0  0  0  0  0  0
   38.9540   23.1760   38.6360 C   0  0  0  0  0  3  0  0  0  0  0  0
   39.6350   22.8420   37.4840 C   0  0  0  0  0  3  0  0  0  0  0  0
   41.1320   24.0080   34.3520 H   0  0  0  0  0  0  0  0  0  0  0  0
   40.4070   23.0010   34.9210 S   0  0  0  0  0  0  0  0  0  0  0  0
   39.5330   22.3960   33.8570 O   0  0  0  0  0  0  0  0  0  0  0  0
   41.3940   21.9120   35.3190 O   0  0  0  0  0  0  0  0  0  0  0  0
  2 17  1  0  0  0  0
  2  1  2  1  0  0  0
  2  3  1  0  0  0  0
  4  3  1  0  0  0  0
  5  2  1  0  0  0  0
  6  5  1  0  0  0  0
  7 14  1  0  0  0  0
  7  6  2  0  0  0  0
  8  7  1  0  0  0  0
  9  8  2  0  0  0  0
  9 10  1  0  0  0  0
 10 11  2  0  0  0  0
 11  6  1  0  0  0  0
 12  8  1  0  0  0  0
 13 10  1  0  0  0  0
 14 16  1  0  0  0  0
 14 15  1  0  0  0  0
 17 19  1  0  0  0  0
 18 25  1  0  0  0  0
 19 18  2  0  0  0  0
 19 20  1  0  0  0  0
 20 22  2  0  0  0  0
 21 20  1  0  0  0  0
 22 24  1  0  0  0  0
 22 23  1  0  0  0  0
 25 24  2  0  0  0  0
 26 27  1  0  0  0  0
 27 29  2  0  0  0  0
 27 18  1  0  0  0  0
 28 27  2  0  0  0  0
M  END
>  <minimizedAffinity>
-4.96731806

$$$$

 OpenBabel03272504183D

 29 30  0  0  0  0  0  0  0  0999 V2000
   40.0180   21.3380   33.3250 O   0  0  0  0  0  0  0  0  0  0  0  0
   39.1600   22.5570   33.4720 P   0  0  1  0  0  0  0  0  0  0  0  0
   38.9640   23.3920   32.0090 O   0  0  0  0  0  0  0  0  0  0  0  0
   38.4090   24.1790   32.1930 H   0  0  0  0  0  0  0  0  0  0  0  0
   37.5640   22.1580   34.0010 O   0  0  0  0  0  0  0  0  0  0  0  0
   36.7230   21.3410   33.2600 C   0  0  0  0  0  0  0  0  0  0  0  0
   35.7180   20.5320   33.7660 C   0  0  0  0  0  0  0  0  0  0  0  0
   34.9610   19.7730   32.8930 C   0  0  0  0  0  0  0  0  0  0  0  0
   35.2240   19.8420   31.5540 N   0  0  0  0  0  0  0  0  0  0  0  0
   36.2240   20.6520   31.0840 C   0  0  0  0  0  0  0  0  0  0  0  0
   36.9680   21.3990   31.9430 N   0  0  0  0  0  0  0  0  0  0  0  0
   34.2010   19.1680   33.3330 H   0  0  0  0  0  0  0  0  0  0  0  0
   36.4140   20.6910   30.0150 H   0  0  0  0  0  0  0  0  0  0  0  0
   35.5680   20.5680   35.1660 N   0  0  0  0  0  0  0  0  0  0  0  0
   34.6220   20.4870   35.5770 H   0  0  0  0  0  0  0  0  0  0  0  0
   36.3920   20.6730   35.8040 H   0  0  0  0  0  0  0  0  0  0  0  0
   39.9050   23.5130   34.6450 O   0  0  0  0  0  0  0  0  0  0  0  0
   40.0200   22.9280   36.8910 C   0  0  0  0  0  0  0  0  0  0  0  0
   39.3190   23.6240   35.8990 C   0  0  0  0  0  0  0  0  0  0  0  0
   38.1730   24.3260   36.2150 C   0  0  0  0  0  0  0  0  0  0  0  0
   37.6910   24.8370   35.3940 H   0  0  0  0  0  0  0  0  0  0  0  0
   37.6910   24.3600   37.5090 C   0  0  0  0  0  0  0  0  0  0  0  0
   36.7880   24.9230   37.7130 H   0  0  0  0  0  0  0  0  0  0  0  0
   38.3750   23.6700   38.5180 C   0  0  0  0  0  3  0  0  0  0  0  0
   39.5180   22.9750   38.1820 C   0  0  0  0  0  3  0  0  0  0  0  0
   41.4100   21.2710   35.4680 H   0  0  0  0  0  0  0  0  0  0  0  0
   41.4680   22.0120   36.6140 S   0  0  0  0  0  0  0  0  0  0  0  0
   41.7750   21.0830   37.7560 O   0  0  0  0  0  0  0  0  0  0  0  0
   42.6760   22.9310   36.4870 O   0  0  0  0  0  0  0  0  0  0  0  0
  2  1  2  6  0  0  0
  2  5  1  0  0  0  0
  2 17  1  0  0  0  0
  3  4  1  0  0  0  0
  3  2  1  0  0  0  0
  6  7  1  0  0  0  0
  6  5  1  0  0  0  0
  7 14  1  0  0  0  0
  8 12  1  0  0  0  0
  8  7  2  0  0  0  0
  9  8  1  0  0  0  0
 10  9  2  0  0  0  0
 10 11  1  0  0  0  0
 11  6  2  0  0  0  0
 13 10  1  0  0  0  0
 14 15  1  0  0  0  0
 14 16  1  0  0  0  0
 17 19  1  0  0  0  0
 18 25  1  0  0  0  0
 19 20  1  0  0  0  0
 19 18  2  0  0  0  0
 20 22  2  0  0  0  0
 21 20  1  0  0  0  0
 22 23  1  0  0  0  0
 22 24  1  0  0  0  0
 25 24  2  0  0  0  0
 26 27  1  0  0  0  0
 27 18  1  0  0  0  0
 27 28  2  0  0  0  0
 29 27  2  0  0  0  0
M  END
>  <minimizedAffinity>
-4.90628815

$$$$

 OpenBabel03272504183D

 29 30  0  0  0  0  0  0  0  0999 V2000
   39.5540   26.4300   35.3600 O   0  0  0  0  0  0  0  0  0  0  0  0
   38.3250   25.7560   34.8330 P   0  0  1  0  0  0  0  0  0  0  0  0
   36.9150   26.6480   35.1390 O   0  0  0  0  0  0  0  0  0  0  0  0
   36.1600   26.1350   34.7810 H   0  0  0  0  0  0  0  0  0  0  0  0
   38.3900   25.5550   33.1180 O   0  0  0  0  0  0  0  0  0  0  0  0
   37.2650   25.2430   32.3680 C   0  0  0  0  0  0  0  0  0  0  0  0
   36.7890   23.9680   32.1040 C   0  0  0  0  0  0  0  0  0  0  0  0
   35.6500   23.8210   31.3360 C   0  0  0  0  0  0  0  0  0  0  0  0
   35.0230   24.9370   30.8580 N   0  0  0  0  0  0  0  0  0  0  0  0
   35.5170   26.1840   31.1360 C   0  0  0  0  0  0  0  0  0  0  0  0
   36.6380   26.3280   31.8930 N   0  0  0  0  0  0  0  0  0  0  0  0
   35.3250   22.8200   31.1620 H   0  0  0  0  0  0  0  0  0  0  0  0
   35.0010   27.0560   30.7460 H   0  0  0  0  0  0  0  0  0  0  0  0
   37.5430   22.9190   32.6650 N   0  0  0  0  0  0  0  0  0  0  0  0
   37.0580   22.0700   33.0030 H   0  0  0  0  0  0  0  0  0  0  0  0
   38.5860   22.9760   32.7480 H   0  0  0  0  0  0  0  0  0  0  0  0
   38.2770   24.2370   35.5630 O   0  0  0  0  0  0  0  0  0  0  0  0
   39.5460   23.1490   37.1780 C   0  0  0  0  0  0  0  0  0  0  0  0
   39.4710   23.5860   35.8500 C   0  0  0  0  0  0  0  0  0  0  0  0
   40.5150   23.3560   34.9780 C   0  0  0  0  0  0  0  0  0  0  0  0
   40.3800   23.7250   33.9710 H   0  0  0  0  0  0  0  0  0  0  0  0
   41.6550   22.6930   35.3880 C   0  0  0  0  0  0  0  0  0  0  0  0
   42.4510   22.5330   34.6700 H   0  0  0  0  0  0  0  0  0  0  0  0
   41.7530   22.2460   36.7120 C   0  0  0  0  0  3  0  0  0  0  0  0
   40.6980   22.4850   37.5680 C   0  0  0  0  0  3  0  0  0  0  0  0
   38.6070   22.8130   39.5660 H   0  0  0  0  0  0  0  0  0  0  0  0
   38.2990   23.3800   38.3630 S   0  0  0  0  0  0  0  0  0  0  0  0
   36.9780   22.8220   37.9080 O   0  0  0  0  0  0  0  0  0  0  0  0
   38.0610   24.8620   38.6190 O   0  0  0  0  0  0  0  0  0  0  0  0
  2  3  1  0  0  0  0
  2  1  2  1  0  0  0
  2 17  1  0  0  0  0
  4  3  1  0  0  0  0
  5  2  1  0  0  0  0
  6  5  1  0  0  0  0
  7  6  1  0  0  0  0
  7 14  1  0  0  0  0
  8  7  2  0  0  0  0
  9 10  2  0  0  0  0
  9  8  1  0  0  0  0
 10 11  1  0  0  0  0
 11  6  2  0  0  0  0
 12  8  1  0  0  0  0
 13 10  1  0  0  0  0
 14 16  1  0  0  0  0
 14 15  1  0  0  0  0
 17 19  1  0  0  0  0
 18 25  1  0  0  0  0
 18 27  1  0  0  0  0
 19 18  2  0  0  0  0
 20 22  2  0  0  0  0
 20 19  1  0  0  0  0
 21 20  1  0  0  0  0
 22 24  1  0  0  0  0
 23 22  1  0  0  0  0
 24 25  2  0  0  0  0
 27 29  2  0  0  0  0
 27 26  1  0  0  0  0
 28 27  2  0  0  0  0
M  END
>  <minimizedAffinity>
-4.87034559

$$$$

 OpenBabel03272504183D

 29 30  0  0  0  0  0  0  0  0999 V2000
   39.5640   26.2410   33.4450 O   0  0  0  0  0  0  0  0  0  0  0  0
   38.3180   25.9150   34.2100 P   0  0  1  0  0  0  0  0  0  0  0  0
   38.0640   26.9670   35.5150 O   0  0  0  0  0  0  0  0  0  0  0  0
   37.2460   26.6780   35.9700 H   0  0  0  0  0  0  0  0  0  0  0  0
   36.9070   26.0450   33.2210 O   0  0  0  0  0  0  0  0  0  0  0  0
   36.6830   27.1360   32.3940 C   0  0  0  0  0  0  0  0  0  0  0  0
   36.8200   27.1570   31.0150 C   0  0  0  0  0  0  0  0  0  0  0  0
   36.5590   28.3270   30.3300 C   0  0  0  0  0  0  0  0  0  0  0  0
   36.1700   29.4340   31.0300 N   0  0  0  0  0  0  0  0  0  0  0  0
   36.0420   29.3840   32.3940 C   0  0  0  0  0  0  0  0  0  0  0  0
   36.3000   28.2300   33.0680 N   0  0  0  0  0  0  0  0  0  0  0  0
   36.6790   28.2900   29.2710 H   0  0  0  0  0  0  0  0  0  0  0  0
   35.7320   30.2760   32.9290 H   0  0  0  0  0  0  0  0  0  0  0  0
   37.2280   25.9390   30.4360 N   0  0  0  0  0  0  0  0  0  0  0  0
   36.8580   25.6700   29.5080 H   0  0  0  0  0  0  0  0  0  0  0  0
   37.8970   25.2960   30.9220 H   0  0  0  0  0  0  0  0  0  0  0  0
   38.4880   24.3150   34.7170 O   0  0  0  0  0  0  0  0  0  0  0  0
   39.6740   23.2710   36.4210 C   0  0  0  0  0  0  0  0  0  0  0  0
   38.5560   24.0410   36.0770 C   0  0  0  0  0  0  0  0  0  0  0  0
   37.6610   24.4450   37.0460 C   0  0  0  0  0  0  0  0  0  0  0  0
   36.8250   25.0360   36.7000 H   0  0  0  0  0  0  0  0  0  0  0  0
   37.8420   24.1050   38.3720 C   0  0  0  0  0  0  0  0  0  0  0  0
   37.1150   24.4440   39.1010 H   0  0  0  0  0  0  0  0  0  0  0  0
   38.9530   23.3350   38.7400 C   0  0  0  0  0  3  0  0  0  0  0  0
   39.8360   22.9410   37.7570 C   0  0  0  0  0  3  0  0  0  0  0  0
   41.8370   21.9540   35.8880 H   0  0  0  0  0  0  0  0  0  0  0  0
   40.8640   22.7040   35.2920 S   0  0  0  0  0  0  0  0  0  0  0  0
   41.5310   23.8370   34.5600 O   0  0  0  0  0  0  0  0  0  0  0  0
   40.2250   21.8330   34.2190 O   0  0  0  0  0  0  0  0  0  0  0  0
  2  1  2  6  0  0  0
  2 17  1  0  0  0  0
  2  3  1  0  0  0  0
  3  4  1  0  0  0  0
  5  2  1  0  0  0  0
  6 11  1  0  0  0  0
  6  5  1  0  0  0  0
  7  6  2  0  0  0  0
  8  7  1  0  0  0  0
  8  9  2  0  0  0  0
  9 10  1  0  0  0  0
 10 13  1  0  0  0  0
 10 11  2  0  0  0  0
 12  8  1  0  0  0  0
 14 16  1  0  0  0  0
 14  7  1  0  0  0  0
 15 14  1  0  0  0  0
 17 19  1  0  0  0  0
 18 25  1  0  0  0  0
 19 18  2  0  0  0  0
 19 20  1  0  0  0  0
 20 22  2  0  0  0  0
 21 20  1  0  0  0  0
 22 24  1  0  0  0  0
 22 23  1  0  0  0  0
 25 24  2  0  0  0  0
 27 26  1  0  0  0  0
 27 18  1  0  0  0  0
 28 27  2  0  0  0  0
 29 27  2  0  0  0  0
M  END
>  <minimizedAffinity>
-4.79938269

$$$$

 OpenBabel03272504183D

 29 30  0  0  0  0  0  0  0  0999 V2000
   39.5020   23.3500   32.3260 O   0  0  0  0  0  0  0  0  0  0  0  0
   38.4160   23.5030   33.3460 P   0  0  1  0  0  0  0  0  0  0  0  0
   37.0760   24.3510   32.7430 O   0  0  0  0  0  0  0  0  0  0  0  0
   36.4230   24.4220   33.4700 H   0  0  0  0  0  0  0  0  0  0  0  0
   37.8060   21.9730   33.8670 O   0  0  0  0  0  0  0  0  0  0  0  0
   36.8800   21.2550   33.1250 C   0  0  0  0  0  0  0  0  0  0  0  0
   35.7860   20.5680   33.6290 C   0  0  0  0  0  0  0  0  0  0  0  0
   34.9520   19.8970   32.7560 C   0  0  0  0  0  0  0  0  0  0  0  0
   35.2270   19.9290   31.4180 N   0  0  0  0  0  0  0  0  0  0  0  0
   36.3150   20.6170   30.9490 C   0  0  0  0  0  0  0  0  0  0  0  0
   37.1360   21.2780   31.8090 N   0  0  0  0  0  0  0  0  0  0  0  0
   34.1260   19.3840   33.1940 H   0  0  0  0  0  0  0  0  0  0  0  0
   36.5140   20.6290   29.8810 H   0  0  0  0  0  0  0  0  0  0  0  0
   35.6360   20.6270   35.0280 N   0  0  0  0  0  0  0  0  0  0  0  0
   34.6850   20.6570   35.4350 H   0  0  0  0  0  0  0  0  0  0  0  0
   36.4640   20.6410   35.6700 H   0  0  0  0  0  0  0  0  0  0  0  0
   39.1170   24.2930   34.6600 O   0  0  0  0  0  0  0  0  0  0  0  0
   39.3970   23.2980   36.7420 C   0  0  0  0  0  0  0  0  0  0  0  0
   39.9710   23.5850   35.4970 C   0  0  0  0  0  0  0  0  0  0  0  0
   41.2560   23.1730   35.2090 C   0  0  0  0  0  0  0  0  0  0  0  0
   41.6260   23.4340   34.2270 H   0  0  0  0  0  0  0  0  0  0  0  0
   42.0060   22.4710   36.1320 C   0  0  0  0  0  0  0  0  0  0  0  0
   43.0100   22.1670   35.8640 H   0  0  0  0  0  0  0  0  0  0  0  0
   41.4530   22.1730   37.3840 C   0  0  0  0  0  3  0  0  0  0  0  0
   40.1670   22.5930   37.6530 C   0  0  0  0  0  3  0  0  0  0  0  0
   37.3130   24.8120   36.4860 H   0  0  0  0  0  0  0  0  0  0  0  0
   37.7940   23.7630   37.2180 S   0  0  0  0  0  0  0  0  0  0  0  0
   37.7250   24.1380   38.6720 O   0  0  0  0  0  0  0  0  0  0  0  0
   36.8170   22.6100   37.0360 O   0  0  0  0  0  0  0  0  0  0  0  0
  2  1  2  6  0  0  0
  2  5  1  0  0  0  0
  2 17  1  0  0  0  0
  3  2  1  0  0  0  0
  3  4  1  0  0  0  0
  6  7  1  0  0  0  0
  6  5  1  0  0  0  0
  7 14  1  0  0  0  0
  8 12  1  0  0  0  0
  8  7  2  0  0  0  0
  9  8  1  0  0  0  0
 10  9  2  0  0  0  0
 10 11  1  0  0  0  0
 11  6  2  0  0  0  0
 13 10  1  0  0  0  0
 14 15  1  0  0  0  0
 14 16  1  0  0  0  0
 17 19  1  0  0  0  0
 18 27  1  0  0  0  0
 18 25  1  0  0  0  0
 19 18  2  0  0  0  0
 20 19  1  0  0  0  0
 20 22  2  0  0  0  0
 21 20  1  0  0  0  0
 22 24  1  0  0  0  0
 23 22  1  0  0  0  0
 24 25  2  0  0  0  0
 26 27  1  0  0  0  0
 27 28  2  0  0  0  0
 29 27  2  0  0  0  0
M  END
>  <minimizedAffinity>
-4.76665449

$$$$

 OpenBabel03272504183D

 29 30  0  0  0  0  0  0  0  0999 V2000
   40.4430   21.9540   32.8500 O   0  0  0  0  0  0  0  0  0  0  0  0
   39.2720   22.6360   33.4870 P   0  0  1  0  0  0  0  0  0  0  0  0
   38.4830   23.6970   32.4250 O   0  0  0  0  0  0  0  0  0  0  0  0
   37.7460   24.1120   32.9200 H   0  0  0  0  0  0  0  0  0  0  0  0
   38.0700   21.5040   33.9970 O   0  0  0  0  0  0  0  0  0  0  0  0
   37.0550   21.0750   33.1550 C   0  0  0  0  0  0  0  0  0  0  0  0
   35.8050   20.6220   33.5490 C   0  0  0  0  0  0  0  0  0  0  0  0
   34.8980   20.2280   32.5850 C   0  0  0  0  0  0  0  0  0  0  0  0
   35.2560   20.2970   31.2680 N   0  0  0  0  0  0  0  0  0  0  0  0
   36.4980   20.7510   30.9090 C   0  0  0  0  0  0  0  0  0  0  0  0
   37.3910   21.1390   31.8590 N   0  0  0  0  0  0  0  0  0  0  0  0
   33.9520   19.8870   32.9400 H   0  0  0  0  0  0  0  0  0  0  0  0
   36.7600   20.7980   29.8560 H   0  0  0  0  0  0  0  0  0  0  0  0
   35.5850   20.6080   34.9400 N   0  0  0  0  0  0  0  0  0  0  0  0
   34.6420   20.8240   35.3060 H   0  0  0  0  0  0  0  0  0  0  0  0
   36.3530   20.3830   35.6160 H   0  0  0  0  0  0  0  0  0  0  0  0
   39.8800   23.4390   34.8400 O   0  0  0  0  0  0  0  0  0  0  0  0
   38.6590   24.8500   36.2250 C   0  0  0  0  0  0  0  0  0  0  0  0
   39.4740   24.7430   35.0910 C   0  0  0  0  0  0  0  0  0  0  0  0
   39.7950   25.8650   34.3540 C   0  0  0  0  0  0  0  0  0  0  0  0
   40.4280   25.6980   33.4930 H   0  0  0  0  0  0  0  0  0  0  0  0
   39.3250   27.1130   34.7110 C   0  0  0  0  0  0  0  0  0  0  0  0
   39.6020   27.9670   34.1030 H   0  0  0  0  0  0  0  0  0  0  0  0
   38.5080   27.2450   35.8410 C   0  0  0  0  0  3  0  0  0  0  0  0
   38.1990   26.1120   36.5650 C   0  0  0  0  0  3  0  0  0  0  0  0
   39.1920   22.6030   37.3930 H   0  0  0  0  0  0  0  0  0  0  0  0
   38.1880   23.5140   37.2280 S   0  0  0  0  0  0  0  0  0  0  0  0
   36.9880   22.7930   36.6800 O   0  0  0  0  0  0  0  0  0  0  0  0
   37.7900   23.9920   38.6180 O   0  0  0  0  0  0  0  0  0  0  0  0
  2  1  2  6  0  0  0
  2  5  1  0  0  0  0
  2 17  1  0  0  0  0
  3  4  1  0  0  0  0
  3  2  1  0  0  0  0
  6  7  1  0  0  0  0
  6  5  1  0  0  0  0
  7 14  1  0  0  0  0
  8 12  1  0  0  0  0
  8  7  2  0  0  0  0
  9  8  1  0  0  0  0
 10  9  2  0  0  0  0
 10 11  1  0  0  0  0
 11  6  2  0  0  0  0
 13 10  1  0  0  0  0
 14 15  1  0  0  0  0
 14 16  1  0  0  0  0
 17 19  1  0  0  0  0
 18 25  1  0  0  0  0
 18 27  1  0  0  0  0
 19 18  2  0  0  0  0
 20 22  2  0  0  0  0
 20 19  1  0  0  0  0
 21 20  1  0  0  0  0
 22 24  1  0  0  0  0
 23 22  1  0  0  0  0
 24 25  2  0  0  0  0
 27 26  1  0  0  0  0
 27 29  2  0  0  0  0
 28 27  2  0  0  0  0
M  END
>  <minimizedAffinity>
-4.73821211

$$$$
