REMARK  Name = 
REMARK  6 active torsions:
REMARK  status: ('A' for Active; 'I' for Inactive)
REMARK    1  A    between atoms: C_3  and  C_10
REMARK    2  A    between atoms: C_7  and  N_16
REMARK    3  A    between atoms: C_14  and  C_18
REMARK    4  A    between atoms: C_25  and  O_26
REMARK    5  A    between atoms: O_26  and  C_43
REMARK    6  A    between atoms: S_39  and  C_42
REMARK                            x       y       z     vdW  Elec       q    Type
REMARK                         _______ _______ _______ _____ _____    ______ ____
ROOT
ATOM      1  C   UNL     1      39.191  32.191  42.558  0.00  0.00    +0.000 A 
ATOM      2  C   UNL     1      39.728  31.490  43.613  0.00  0.00    +0.000 A 
ATOM      3  C   UNL     1      40.615  30.471  43.458  0.00  0.00    +0.000 A 
ATOM      4  C   UNL     1      41.012  30.103  42.181  0.00  0.00    +0.000 A 
ATOM      5  N   UNL     1      41.848  29.165  41.724  0.00  0.00    +0.000 N 
ATOM      6  C   UNL     1      41.860  29.248  40.398  0.00  0.00    +0.000 A 
ATOM      7  N   UNL     1      41.028  30.245  40.003  0.00  0.00    +0.000 NA
ATOM      8  C   UNL     1      40.486  30.793  41.116  0.00  0.00    +0.000 A 
ATOM      9  C   UNL     1      39.572  31.845  41.256  0.00  0.00    +0.000 A 
ATOM     10  H   UNL     1      38.488  32.997  42.719  0.00  0.00    +0.000 HD
ATOM     11  H   UNL     1      41.014  29.943  44.309  0.00  0.00    +0.000 HD
ATOM     12  H   UNL     1      42.410  28.471  42.276  0.00  0.00    +0.000 HD
ATOM     13  H   UNL     1      42.411  28.661  39.672  0.00  0.00    +0.000 HD
ENDROOT
BRANCH   2  14
ATOM     14  C   UNL     1      39.295  31.895  44.941  0.00  0.00    +0.000 C 
ATOM     15  O   UNL     1      38.204  32.561  45.052  0.00  0.00    +0.000 OA
ATOM     16  N   UNL     1      39.971  31.624  46.154  0.00  0.00    +0.000 N 
ATOM     17  H   UNL     1      40.857  31.087  46.096  0.00  0.00    +0.000 HD
BRANCH  16  24
ATOM     18  F   UNL     1      38.129  30.147  47.489  0.00  0.00    +0.000 F 
ATOM     19  C   UNL     1      38.374  31.385  47.978  0.00  0.00    +0.000 A 
ATOM     20  C   UNL     1      37.713  31.832  49.083  0.00  0.00    +0.000 A 
ATOM     21  C   UNL     1      38.014  33.103  49.526  0.00  0.00    +0.000 A 
ATOM     22  C   UNL     1      38.937  33.906  48.896  0.00  0.00    +0.000 A 
ATOM     23  C   UNL     1      39.598  33.427  47.771  0.00  0.00    +0.000 A 
ATOM     24  C   UNL     1      39.305  32.150  47.314  0.00  0.00    +0.000 A 
ATOM     25  H   UNL     1      37.495  33.470  50.403  0.00  0.00    +0.000 HD
ATOM     26  H   UNL     1      39.157  34.897  49.259  0.00  0.00    +0.000 HD
ATOM     27  H   UNL     1      40.335  34.013  47.232  0.00  0.00    +0.000 HD
BRANCH  20  30
ATOM     28  C   UNL     1      36.088  29.366  51.446  0.00  0.00    +0.000 A 
ATOM     29  C   UNL     1      37.036  30.221  50.851  0.00  0.00    +0.000 A 
ATOM     30  C   UNL     1      36.742  30.940  49.715  0.00  0.00    +0.000 A 
ATOM     31  N   UNL     1      35.484  30.788  49.185  0.00  0.00    +0.000 NA
ATOM     32  C   UNL     1      34.581  29.976  49.748  0.00  0.00    +0.000 A 
ATOM     33  N   UNL     1      34.870  29.282  50.849  0.00  0.00    +0.000 NA
ATOM     34  H   UNL     1      36.434  28.858  52.330  0.00  0.00    +0.000 HD
ATOM     35  H   UNL     1      38.043  30.379  51.225  0.00  0.00    +0.000 HD
ATOM     36  H   UNL     1      33.585  29.852  49.334  0.00  0.00    +0.000 HD
ENDBRANCH  20  30
ENDBRANCH  16  24
ENDBRANCH   2  14
BRANCH   9  37
ATOM     37  O   UNL     1      39.048  32.533  40.186  0.00  0.00    +0.000 OA
BRANCH  37  39
ATOM     38  C   UNL     1      39.847  33.105  37.882  0.00  0.00    +0.000 A 
ATOM     39  C   UNL     1      39.754  33.249  39.250  0.00  0.00    +0.000 A 
ATOM     40  C   UNL     1      40.478  34.283  39.853  0.00  0.00    +0.000 A 
ATOM     41  H   UNL     1      40.502  34.517  40.921  0.00  0.00    +0.000 HD
ATOM     42  C   UNL     1      41.272  35.147  39.111  0.00  0.00    +0.000 A 
ATOM     43  H   UNL     1      41.843  35.953  39.542  0.00  0.00    +0.000 HD
ATOM     44  C   UNL     1      41.346  34.979  37.743  0.00  0.00    +0.000 A 
ATOM     45  C   UNL     1      40.635  33.961  37.143  0.00  0.00    +0.000 A 
BRANCH  38  47
ATOM     46  H   UNL     1      37.550  31.964  37.428  0.00  0.00    +0.000 HD
ATOM     47  S   UNL     1      38.895  31.778  37.258  0.00  0.00    +0.000 S 
ATOM     48  O   UNL     1      39.179  31.700  35.764  0.00  0.00    +0.000 OA
ATOM     49  O   UNL     1      39.365  30.471  37.832  0.00  0.00    +0.000 OA
ENDBRANCH  38  47
ENDBRANCH  37  39
ENDBRANCH   9  37
TORSDOF 6
