
 OpenBabel03272502253D

 33 35  0  0  0  0  0  0  0  0999 V2000
   36.8730   29.7090   50.0800 C   0  0  0  0  0  0  0  0  0  0  0  0
   37.5320   30.3340   48.9950 C   0  0  0  0  0  0  0  0  0  0  0  0
   36.8400   30.4380   47.7890 C   0  0  0  0  0  0  0  0  0  0  0  0
   35.6000   29.9360   47.7510 N   0  0  0  0  0  0  0  0  0  0  0  0
   34.9910   29.3450   48.7960 C   0  0  0  0  0  0  0  0  0  0  0  0
   35.6390   29.2370   49.9620 N   0  0  0  0  0  0  0  0  0  0  0  0
   37.4580   29.6550   50.9970 H   0  0  0  0  0  0  0  0  0  0  0  0
   38.5430   30.7290   49.0670 H   0  0  0  0  0  0  0  0  0  0  0  0
   37.4180   31.0640   46.6180 C   0  0  0  0  0  0  0  0  0  0  0  0
   36.8320   30.8770   45.3670 C   0  0  0  0  0  0  0  0  0  0  0  0
   37.3390   31.4550   44.2190 C   0  0  0  0  0  0  0  0  0  0  0  0
   38.4470   32.2320   44.3050 N   0  0  0  0  0  0  0  0  0  0  0  0
   38.9900   32.3950   45.5190 C   0  0  0  0  0  0  0  0  0  0  0  0
   38.5130   31.8430   46.6470 N   0  0  0  0  0  0  0  0  0  0  0  0
   35.9510   30.2510   45.3420 H   0  0  0  0  0  0  0  0  0  0  0  0
   36.8420   31.2750   43.2740 H   0  0  0  0  0  0  0  0  0  0  0  0
   40.2050   33.2430   45.6440 C   0  0  0  0  0  0  0  0  0  0  0  0
   40.2110   33.7990   46.9330 F   0  0  0  0  0  0  0  0  0  0  0  0
   41.3460   32.5130   45.4230 F   0  0  0  0  0  0  0  0  0  0  0  0
   40.1750   34.3190   44.7880 F   0  0  0  0  0  0  0  0  0  0  0  0
   33.7100   28.8910   48.5510 O   0  0  0  0  0  0  0  0  0  0  0  0
   32.6470   28.1420   46.6280 C   0  0  0  0  0  0  0  0  0  0  0  0
   33.4410   27.8240   47.7080 C   0  0  0  0  0  0  0  0  0  0  0  0
   33.9130   26.5670   47.9170 C   0  0  0  0  0  0  0  0  0  0  0  0
   34.5230   26.3850   48.7720 H   0  0  0  0  0  0  0  0  0  0  0  0
   33.6060   25.5530   47.0380 C   0  0  0  0  0  0  0  0  0  0  0  0
   33.9850   24.5470   47.2050 H   0  0  0  0  0  0  0  0  0  0  0  0
   32.8160   25.8060   45.9360 C   0  0  0  0  0  3  0  0  0  0  0  0
   32.3520   27.0920   45.7510 C   0  0  0  0  0  3  0  0  0  0  0  0
   31.1240   30.1940   47.1170 H   0  0  0  0  0  0  0  0  0  0  0  0
   31.9580   29.6720   46.1800 S   0  0  0  0  0  0  0  0  0  0  0  0
   33.0010   30.6620   45.6960 O   0  0  0  0  0  0  0  0  0  0  0  0
   31.0810   29.4500   44.9500 O   0  0  0  0  0  0  0  0  0  0  0  0
  1  7  1  0  0  0  0
  2  8  1  0  0  0  0
  2  1  2  0  0  0  0
  3  2  1  0  0  0  0
  4  3  2  0  0  0  0
  4  5  1  0  0  0  0
  5  6  2  0  0  0  0
  6  1  1  0  0  0  0
  9 14  1  0  0  0  0
  9  3  1  0  0  0  0
 10  9  2  0  0  0  0
 11 12  2  0  0  0  0
 11 10  1  0  0  0  0
 12 13  1  0  0  0  0
 13 17  1  0  0  0  0
 13 14  2  0  0  0  0
 15 10  1  0  0  0  0
 16 11  1  0  0  0  0
 17 18  1  0  0  0  0
 19 17  1  0  0  0  0
 20 17  1  0  0  0  0
 21  5  1  0  0  0  0
 22 23  1  0  0  0  0
 23 24  2  0  0  0  0
 23 21  1  0  0  0  0
 24 25  1  0  0  0  0
 26 27  1  0  0  0  0
 26 24  1  0  0  0  0
 28 26  2  0  0  0  0
 29 28  1  0  0  0  0
 29 22  2  0  0  0  0
 31 22  1  0  0  0  0
 31 30  1  0  0  0  0
 32 31  2  0  0  0  0
 33 31  2  0  0  0  0
M  END
>  <minimizedAffinity>
-5.84234953

>  <minimizedRMSD>
1.71613348

$$$$
