
 OpenBabel03272505523D

 47 50  0  0  1  0  0  0  0  0999 V2000
   35.1000   29.8490   45.4800 N   0  0  2  0  0  0  0  0  0  0  0  0
   36.4880   30.3190   45.6030 C   0  0  0  0  0  0  0  0  0  0  0  0
   36.9830   30.5670   44.2000 C   0  0  0  0  0  0  0  0  0  0  0  0
   35.7950   30.4220   43.3440 C   0  0  0  0  0  0  0  0  0  0  0  0
   34.6070   30.3950   44.2770 C   0  0  1  0  0  0  0  0  0  0  0  0
   37.0740   29.5040   46.0930 H   0  0  0  0  0  0  0  0  0  0  0  0
   36.4700   31.2520   46.2010 H   0  0  0  0  0  0  0  0  0  0  0  0
   37.4440   31.5980   44.1830 H   0  0  0  0  0  0  0  0  0  0  0  0
   37.7500   29.7900   43.9360 H   0  0  0  0  0  0  0  0  0  0  0  0
   35.8030   29.5970   42.6280 H   0  0  0  0  0  0  0  0  0  0  0  0
   35.7960   31.3300   42.6600 H   0  0  0  0  0  0  0  0  0  0  0  0
   34.4160   31.4790   44.3650 H   0  0  0  0  0  0  0  0  0  0  0  0
   37.2080   29.2400   50.3500 C   0  0  0  0  0  0  0  0  0  0  0  0
   37.2980   30.5730   50.7720 C   0  0  0  0  0  0  0  0  0  0  0  0
   36.4780   31.5030   50.1230 C   0  0  0  0  0  0  0  0  0  0  0  0
   35.6560   31.0570   49.1350 N   0  0  0  0  0  0  0  0  0  0  0  0
   35.6110   29.7650   48.7710 C   0  0  0  0  0  0  0  0  0  0  0  0
   36.3810   28.8650   49.3750 N   0  0  0  0  0  0  0  0  0  0  0  0
   34.7270   29.3760   47.7340 N   0  0  0  0  0  0  0  0  0  0  0  0
   34.1540   28.0490   47.6950 C   0  0  0  0  0  0  0  0  0  0  0  0
   32.6660   28.1210   47.5740 C   0  0  0  0  0  0  0  0  0  0  0  0
   32.1460   29.3320   47.2090 N   0  0  0  0  0  0  0  0  0  0  0  0
   32.9190   30.3260   46.5040 C   0  0  0  0  0  0  0  0  0  0  0  0
   34.3470   30.2780   46.6610 C   0  0  2  0  0  0  0  0  0  0  0  0
   37.8240   28.4910   50.8260 H   0  0  0  0  0  0  0  0  0  0  0  0
   37.9750   30.8570   51.5660 H   0  0  0  0  0  0  0  0  0  0  0  0
   36.5090   32.5400   50.4100 H   0  0  0  0  0  0  0  0  0  0  0  0
   34.3570   27.5870   48.7110 H   0  0  0  0  0  0  0  0  0  0  0  0
   34.6360   27.3750   46.9950 H   0  0  0  0  0  0  0  0  0  0  0  0
   32.1390   27.7380   48.4720 H   0  0  0  0  0  0  0  0  0  0  0  0
   32.3930   27.3600   46.7790 H   0  0  0  0  0  0  0  0  0  0  0  0
   31.2210   29.6280   47.5220 H   0  0  0  0  0  0  0  0  0  0  0  0
   32.3700   30.4460   45.6000 H   0  0  0  0  0  0  0  0  0  0  0  0
   32.5730   31.2680   47.0800 H   0  0  0  0  0  0  0  0  0  0  0  0
   34.7810   31.2830   46.9510 H   0  0  0  0  0  0  0  0  0  0  0  0
   33.5930   28.2940   43.4600 C   0  0  0  0  0  0  0  0  0  0  0  0
   33.5730   29.6730   43.5250 C   0  0  0  0  0  0  0  0  0  0  0  0
   32.5160   30.2800   42.8490 C   0  0  0  0  0  0  0  0  0  0  0  0
   32.4610   31.3630   42.8720 H   0  0  0  0  0  0  0  0  0  0  0  0
   31.5210   29.6460   42.1440 C   0  0  0  0  0  0  0  0  0  0  0  0
   30.7470   30.2060   41.6550 H   0  0  0  0  0  0  0  0  0  0  0  0
   31.5640   28.2690   42.0950 C   0  0  0  0  0  3  0  0  0  0  0  0
   32.5870   27.6200   42.7470 C   0  0  0  0  0  3  0  0  0  0  0  0
   35.5820   27.6500   45.0700 H   0  0  0  0  0  0  0  0  0  0  0  0
   34.7490   27.2540   44.1340 S   0  0  0  0  0  0  0  0  0  0  0  0
   35.6080   26.6810   43.0020 O   0  0  0  0  0  0  0  0  0  0  0  0
   34.0330   26.0120   44.6730 O   0  0  0  0  0  0  0  0  0  0  0  0
  1  2  1  1  0  0  0
  1 24  1  0  0  0  0
  2  6  1  0  0  0  0
  2  7  1  0  0  0  0
  3  2  1  0  0  0  0
  4  3  1  0  0  0  0
  4  5  1  0  0  0  0
  5 12  1  1  0  0  0
  5  1  1  0  0  0  0
  8  3  1  0  0  0  0
  9  3  1  0  0  0  0
 10  4  1  0  0  0  0
 11  4  1  0  0  0  0
 13 14  1  0  0  0  0
 13 25  1  0  0  0  0
 14 26  1  0  0  0  0
 15 27  1  0  0  0  0
 15 14  2  0  0  0  0
 16 15  1  0  0  0  0
 17 16  2  0  0  0  0
 17 18  1  0  0  0  0
 18 13  2  0  0  0  0
 19 17  1  0  0  0  0
 20 19  1  0  0  0  0
 20 28  1  0  0  0  0
 21 20  1  0  0  0  0
 21 30  1  0  0  0  0
 22 32  1  0  0  0  0
 22 21  1  0  0  0  0
 23 24  1  0  0  0  0
 23 34  1  0  0  0  0
 23 22  1  0  0  0  0
 24 35  1  1  0  0  0
 24 19  1  0  0  0  0
 29 20  1  0  0  0  0
 31 21  1  0  0  0  0
 33 23  1  0  0  0  0
 36 37  1  0  0  0  0
 36 45  1  0  0  0  0
 37  5  1  0  0  0  0
 38 39  1  0  0  0  0
 38 37  2  0  0  0  0
 40 38  1  0  0  0  0
 41 40  1  0  0  0  0
 42 40  2  0  0  0  0
 42 43  1  0  0  0  0
 43 36  2  0  0  0  0
 45 47  2  0  0  0  0
 45 44  1  0  0  0  0
 46 45  2  0  0  0  0
M  END
>  <minimizedAffinity>
-4.28364038

>  <minimizedRMSD>
1.34058988

$$$$
