
     RDKit          3D

 44 46  0  0  0  0  0  0  0  0999 V2000
   35.5187   29.8340   50.5198 C   0  0  0  0  0  0  0  0  0  0  0  0
   37.2661   30.1150   50.7493 S   0  0  0  0  0  0  0  0  0  0  0  0
   37.9117   30.9666   49.3133 C   0  0  0  0  0  0  0  0  0  0  0  0
   38.3421   32.2539   49.5592 C   0  0  0  0  0  0  0  0  0  0  0  0
   38.8634   33.0011   48.4995 C   0  0  0  0  0  0  0  0  0  0  0  0
   38.9121   32.3976   47.2747 N   0  0  0  0  0  0  0  0  0  0  0  0
   38.4760   31.1310   47.0885 C   0  0  0  0  0  0  0  0  0  0  0  0
   37.9853   30.4305   48.0908 N   0  0  0  0  0  0  0  0  0  0  0  0
   35.1410   28.3872   49.4879 S   0  0  0  0  0  0  0  0  0  0  0  0
   32.9561   27.3661   48.1738 C   0  0  1  0  0  0  0  0  0  0  0  0
   33.5920   28.6618   48.5927 C   0  0  2  0  0  0  0  0  0  0  0  0
   33.8008   29.4896   47.3753 C   0  0  0  0  0  0  0  0  0  0  0  0
   33.4027   28.8584   46.2069 O   0  0  0  0  0  0  0  0  0  0  0  0
   32.0480   28.5465   46.2424 C   0  0  0  0  0  0  0  0  0  0  0  0
   31.6638   27.7125   47.4412 C   0  0  2  0  0  0  0  0  0  0  0  0
   33.7578   26.6837   47.2376 O   0  0  0  0  0  0  0  0  0  0  0  0
   30.9443   28.4936   48.3290 O   0  0  0  0  0  0  0  0  0  0  0  0
   34.9904   30.7004   50.0833 H   0  0  0  0  0  0  0  0  0  0  0  0
   35.0591   29.6561   51.5179 H   0  0  0  0  0  0  0  0  0  0  0  0
   38.3091   32.7358   50.5111 H   0  0  0  0  0  0  0  0  0  0  0  0
   39.2130   34.0128   48.6428 H   0  0  0  0  0  0  0  0  0  0  0  0
   38.5368   30.6955   46.0914 H   0  0  0  0  0  0  0  0  0  0  0  0
   32.7354   26.7314   49.0550 H   0  0  0  0  0  0  0  0  0  0  0  0
   32.8894   29.1168   49.3387 H   0  0  0  0  0  0  0  0  0  0  0  0
   34.7984   29.9080   47.2422 H   0  0  0  0  0  0  0  0  0  0  0  0
   33.1208   30.3861   47.4769 H   0  0  0  0  0  0  0  0  0  0  0  0
   31.4115   29.4590   46.2085 H   0  0  0  0  0  0  0  0  0  0  0  0
   31.8276   27.9633   45.3286 H   0  0  0  0  0  0  0  0  0  0  0  0
   31.2153   26.7499   47.1572 H   0  0  0  0  0  0  0  0  0  0  0  0
   33.8025   25.7495   47.5371 H   0  0  0  0  0  0  0  0  0  0  0  0
   30.3501   30.8368   47.6365 H   0  0  0  0  0  0  0  0  0  0  0  0
   29.0991   30.7269   48.1626 S   0  0  0  0  0  0  0  0  0  0  0  0
   28.8554   31.7670   49.2129 O   0  0  0  0  0  0  0  0  0  0  0  0
   28.0863   30.9485   47.0615 O   0  0  0  0  0  0  0  0  0  0  0  0
   28.8156   29.1020   48.7962 C   0  0  0  0  0  0  0  0  0  0  0  0
   29.7435   28.0644   48.8512 C   0  0  0  0  0  0  0  0  0  0  0  0
   29.3395   26.8617   49.3813 C   0  0  0  0  0  0  0  0  0  0  0  0
   30.1096   26.1255   49.3853 H   0  0  0  0  0  0  0  0  0  0  0  0
   28.0477   26.7098   49.8393 C   0  0  0  0  0  0  0  0  0  0  0  0
   27.7914   25.7405   50.2447 H   0  0  0  0  0  0  0  0  0  0  0  0
   27.1026   27.7221   49.7981 C   0  0  0  0  0  0  0  0  0  0  0  0
   27.5081   28.9289   49.2663 C   0  0  0  0  0  0  0  0  0  0  0  0
   26.1242   27.5033   50.1798 H   0  0  0  0  0  0  0  0  0  0  0  0
   26.7460   29.6927   49.2506 H   0  0  0  0  0  0  0  0  0  0  0  0
  1  2  1  0
  3  4  2  0
  3  2  1  0
  5  4  1  0
  6  5  2  0
  7  6  1  0
  7  8  2  0
  8  3  1  0
  9  1  1  0
 10 16  1  0
 10 11  1  0
 11  9  1  0
 12 11  1  0
 13 14  1  0
 13 12  1  0
 14 15  1  0
 15 10  1  0
 15 17  1  0
  1 18  1  0
  1 19  1  0
  4 20  1  0
  5 21  1  0
  7 22  1  0
 10 23  1  1
 11 24  1  1
 12 25  1  0
 12 26  1  0
 14 27  1  0
 14 28  1  0
 15 29  1  6
 16 30  1  0
 31 32  1  0
 32 33  2  0
 32 34  2  0
 32 35  1  0
 35 36  2  0
 36 37  1  0
 37 38  1  0
 37 39  2  0
 39 40  1  0
 39 41  1  0
 41 42  2  0
 42 35  1  0
 41 43  1  0
 42 44  1  0
 17 36  1  0
M  ISO  8  18   8  19   8  20  14  21  14  22  14  23  13  24  13  25  13
M  ISO  8  26  13  27  13  28  13  29  13  30   3  31  12  38  15  40  16
M  END
>  <DihAtoms>  (1) 
14,16,35,34

>  <DihDeg>  (1) 
-179.83929453951026

$$$$
