REMARK  Name = 
REMARK  3 active torsions:
REMARK  status: ('A' for Active; 'I' for Inactive)
REMARK    1  A    between atoms: C_3  and  C_18
REMARK    2  A    between atoms: C_5  and  C_7
REMARK    3  A    between atoms: S_14  and  C_17
REMARK                            x       y       z     vdW  Elec       q    Type
REMARK                         _______ _______ _______ _____ _____    ______ ____
ROOT
ATOM      1  C   UNL     1      38.301  31.246  50.123  0.00  0.00    +0.000 A 
ATOM      2  C   UNL     1      38.280  31.614  48.759  0.00  0.00    +0.000 A 
ATOM      3  C   UNL     1      37.200  31.221  47.986  0.00  0.00    +0.000 A 
ATOM      4  N   UNL     1      36.241  30.504  48.616  0.00  0.00    +0.000 NA
ATOM      5  C   UNL     1      36.270  30.161  49.905  0.00  0.00    +0.000 A 
ATOM      6  N   UNL     1      37.302  30.535  50.652  0.00  0.00    +0.000 NA
ATOM      7  H   UNL     1      39.097  31.512  50.775  0.00  0.00    +0.000 HD
ATOM      8  H   UNL     1      39.096  32.187  48.354  0.00  0.00    +0.000 HD
ENDROOT
BRANCH   3  10
ATOM      9  C   UNL     1      38.162  31.408  45.733  0.00  0.00    +0.000 A 
ATOM     10  C   UNL     1      37.090  31.553  46.573  0.00  0.00    +0.000 A 
ATOM     11  C   UNL     1      35.930  32.021  46.014  0.00  0.00    +0.000 A 
ATOM     12  H   UNL     1      35.030  32.170  46.593  0.00  0.00    +0.000 HD
ATOM     13  C   UNL     1      35.775  32.350  44.684  0.00  0.00    +0.000 A 
ATOM     14  H   UNL     1      34.855  32.717  44.260  0.00  0.00    +0.000 HD
ATOM     15  C   UNL     1      36.849  32.206  43.832  0.00  0.00    +0.000 A 
ATOM     16  C   UNL     1      38.021  31.736  44.383  0.00  0.00    +0.000 A 
BRANCH   9  18
ATOM     17  H   UNL     1      39.638  29.605  46.884  0.00  0.00    +0.000 HD
ATOM     18  S   UNL     1      39.712  30.823  46.289  0.00  0.00    +0.000 S 
ATOM     19  O   UNL     1      40.391  31.864  47.170  0.00  0.00    +0.000 OA
ATOM     20  O   UNL     1      40.648  30.657  45.113  0.00  0.00    +0.000 OA
ENDBRANCH   9  18
ENDBRANCH   3  10
BRANCH   5  21
ATOM     21  C   UNL     1      35.134  29.374  50.435  0.00  0.00    +0.000 C 
ATOM     22  F   UNL     1      35.260  29.116  51.798  0.00  0.00    +0.000 F 
ATOM     23  F   UNL     1      33.922  30.072  50.301  0.00  0.00    +0.000 F 
ATOM     24  F   UNL     1      34.938  28.170  49.829  0.00  0.00    +0.000 F 
ENDBRANCH   5  21
TORSDOF 3
