
 OpenBabel03272506583D

 31 33  0  0  0  0  0  0  0  0999 V2000
   38.7310   32.2020   46.3490 C   0  0  0  0  0  0  0  0  0  0  0  0
   39.8340   32.9350   46.0140 C   0  0  0  0  0  0  0  0  0  0  0  0
   40.1640   33.4310   44.7760 C   0  0  0  0  0  0  0  0  0  0  0  0
   39.2670   33.1400   43.7970 N   0  0  0  0  0  0  0  0  0  0  0  0
   38.1550   32.4170   44.0640 C   0  0  0  0  0  0  0  0  0  0  0  0
   37.9020   31.9650   45.3130 N   0  0  0  0  0  0  0  0  0  0  0  0
   40.5520   33.1670   46.8050 H   0  0  0  0  0  0  0  0  0  0  0  0
   41.0550   34.0000   44.6030 H   0  0  0  0  0  0  0  0  0  0  0  0
   37.6670   30.0450   49.0710 C   0  0  0  0  0  0  0  0  0  0  0  0
   37.9650   30.7610   50.2330 C   0  0  0  0  0  0  0  0  0  0  0  0
   38.5510   32.0250   50.0420 C   0  0  0  0  0  0  0  0  0  0  0  0
   38.7900   32.4720   48.7880 N   0  0  0  0  0  0  0  0  0  0  0  0
   38.4730   31.7210   47.7060 C   0  0  0  0  0  0  0  0  0  0  0  0
   37.9030   30.4850   47.8020 N   0  0  0  0  0  0  0  0  0  0  0  0
   37.2140   29.0610   49.1290 H   0  0  0  0  0  0  0  0  0  0  0  0
   38.7750   32.5640   50.9370 H   0  0  0  0  0  0  0  0  0  0  0  0
   37.6670   30.1860   51.4860 N   0  0  0  0  0  0  0  0  0  0  0  0
   36.7170   30.2990   51.8890 H   0  0  0  0  0  0  0  0  0  0  0  0
   38.5390   29.7210   51.7870 H   0  0  0  0  0  0  0  0  0  0  0  0
   37.3290   30.9750   42.2310 C   0  0  0  0  0  0  0  0  0  0  0  0
   37.1880   32.1010   43.0150 C   0  0  0  0  0  0  0  0  0  0  0  0
   36.0910   32.9280   42.7740 C   0  0  0  0  0  0  0  0  0  0  0  0
   35.9800   33.8220   43.3980 H   0  0  0  0  0  0  0  0  0  0  0  0
   35.1410   32.6930   41.8030 C   0  0  0  0  0  0  0  0  0  0  0  0
   34.3130   33.3990   41.6870 H   0  0  0  0  0  0  0  0  0  0  0  0
   35.2710   31.5700   41.0130 C   0  0  0  0  0  0  0  0  0  0  0  0
   36.3530   30.7560   41.2530 C   0  0  0  0  0  0  0  0  0  0  0  0
   39.8550   30.4460   42.6010 H   0  0  0  0  0  0  0  0  0  0  0  0
   38.6430   29.8730   42.4310 S   0  0  0  0  0  0  0  0  0  0  0  0
   38.7590   29.0200   41.1810 O   0  0  0  0  0  0  0  0  0  0  0  0
   38.3720   28.9170   43.5530 O   0  0  0  0  0  0  0  0  0  0  0  0
  1 13  1  0  0  0  0
  2  1  1  0  0  0  0
  2  7  1  0  0  0  0
  3  2  2  0  0  0  0
  4  5  2  0  0  0  0
  4  3  1  0  0  0  0
  5  6  1  0  0  0  0
  6  1  2  0  0  0  0
  8  3  1  0  0  0  0
  9 15  1  0  0  0  0
  9 10  1  0  0  0  0
 10 17  1  0  0  0  0
 11 10  2  0  0  0  0
 11 16  1  0  0  0  0
 12 11  1  0  0  0  0
 13 14  1  0  0  0  0
 13 12  2  0  0  0  0
 14  9  2  0  0  0  0
 17 19  1  0  0  0  0
 17 18  1  0  0  0  0
 20 29  1  0  0  0  0
 20 21  1  0  0  0  0
 21  5  1  0  0  0  0
 22 21  2  0  0  0  0
 22 23  1  0  0  0  0
 24 22  1  0  0  0  0
 25 24  1  0  0  0  0
 26 27  1  0  0  0  0
 26 24  2  0  0  0  0
 27 20  2  0  0  0  0
 29 28  1  0  0  0  0
 29 31  2  0  0  0  0
 30 29  2  0  0  0  0
M  END
>  <minimizedAffinity>
-5.42698908

>  <minimizedRMSD>
2.6400342

$$$$
