
 OpenBabel03272504103D

 36 38  0  0  0  0  0  0  0  0999 V2000
   38.1820   25.5120   36.7370 C   0  0  0  0  0  0  0  0  0  0  0  0
   38.3940   24.9030   35.5150 C   0  0  0  0  0  0  0  0  0  0  0  0
   38.5370   23.4900   35.4430 C   0  0  0  0  0  0  0  0  0  0  0  0
   38.4540   22.8130   36.6020 N   0  0  0  0  0  0  0  0  0  0  0  0
   38.2410   23.4410   37.7990 C   0  0  0  0  0  0  0  0  0  0  0  0
   38.1090   24.7760   37.8510 N   0  0  0  0  0  0  0  0  0  0  0  0
   38.1640   22.6290   38.9730 N   0  0  0  0  0  0  0  0  0  0  0  0
   38.0730   26.6100   36.7630 H   0  0  0  0  0  0  0  0  0  0  0  0
   38.9340   22.1570   39.4610 H   0  0  0  0  0  0  0  0  0  0  0  0
   37.1320   22.6280   39.2150 H   0  0  0  0  0  0  0  0  0  0  0  0
   41.0650   25.6430   34.2530 Cl  0  0  0  0  0  0  0  0  0  0  0  0
   39.5490   26.2110   33.6180 C   0  0  0  0  0  0  0  0  0  0  0  0
   38.4590   25.7650   34.3150 C   0  0  0  0  0  0  0  0  0  0  0  0
   37.1930   26.1650   33.8660 C   0  0  0  0  0  0  0  0  0  0  0  0
   37.0170   26.9630   32.7910 C   0  0  0  0  0  0  0  0  0  0  0  0
   38.1390   27.4060   32.1000 C   0  0  0  0  0  0  0  0  0  0  0  0
   37.9760   28.4380   30.7040 Cl  0  0  0  0  0  0  0  0  0  0  0  0
   39.3680   27.0290   32.5170 C   0  0  0  0  0  0  0  0  0  0  0  0
   36.2580   25.8670   34.3210 H   0  0  0  0  0  0  0  0  0  0  0  0
   36.0590   27.3040   32.4010 H   0  0  0  0  0  0  0  0  0  0  0  0
   40.2980   27.3460   32.0140 H   0  0  0  0  0  0  0  0  0  0  0  0
   38.7410   22.8730   34.1360 C   0  0  0  0  0  0  0  0  0  0  0  0
   39.1410   23.6370   33.4430 H   0  0  0  0  0  0  0  0  0  0  0  0
   39.5630   22.1120   34.2260 H   0  0  0  0  0  0  0  0  0  0  0  0
   37.0570   22.4380   32.2600 C   0  0  0  0  0  0  0  0  0  0  0  0
   37.5270   22.2560   33.5450 C   0  0  0  0  0  0  0  0  0  0  0  0
   36.7860   21.3820   34.3340 C   0  0  0  0  0  0  0  0  0  0  0  0
   37.1300   21.2070   35.3660 H   0  0  0  0  0  0  0  0  0  0  0  0
   35.6560   20.7030   33.9460 C   0  0  0  0  0  0  0  0  0  0  0  0
   35.1600   20.0360   34.6700 H   0  0  0  0  0  0  0  0  0  0  0  0
   35.2000   20.9000   32.6510 C   0  0  0  0  0  3  0  0  0  0  0  0
   35.9270   21.7680   31.8550 C   0  0  0  0  0  3  0  0  0  0  0  0
   38.8610   24.1930   31.9270 H   0  0  0  0  0  0  0  0  0  0  0  0
   37.9070   23.5350   31.2190 S   0  0  0  0  0  0  0  0  0  0  0  0
   38.6350   22.7340   30.1420 O   0  0  0  0  0  0  0  0  0  0  0  0
   36.9880   24.4490   30.4580 O   0  0  0  0  0  0  0  0  0  0  0  0
  1  8  1  0  0  0  0
  1  6  1  0  0  0  0
  2  1  2  0  0  0  0
  3  2  1  0  0  0  0
  3  4  2  0  0  0  0
  4  5  1  0  0  0  0
  5  6  2  0  0  0  0
  5  7  1  0  0  0  0
  7 10  1  0  0  0  0
  7  9  1  0  0  0  0
 12 11  1  0  0  0  0
 12 13  1  0  0  0  0
 13  2  1  0  0  0  0
 14 13  2  0  0  0  0
 14 19  1  0  0  0  0
 15 14  1  0  0  0  0
 16 18  1  0  0  0  0
 16 15  2  0  0  0  0
 17 16  1  0  0  0  0
 18 12  2  0  0  0  0
 20 15  1  0  0  0  0
 21 18  1  0  0  0  0
 22 24  1  0  0  0  0
 22  3  1  0  0  0  0
 23 22  1  0  0  0  0
 25 26  1  0  0  0  0
 26 22  1  0  0  0  0
 26 27  2  0  0  0  0
 27 28  1  0  0  0  0
 29 27  1  0  0  0  0
 29 30  1  0  0  0  0
 31 29  2  0  0  0  0
 32 25  2  0  0  0  0
 32 31  1  0  0  0  0
 34 33  1  0  0  0  0
 34 25  1  0  0  0  0
 35 34  2  0  0  0  0
 36 34  2  0  0  0  0
M  END
>  <minimizedAffinity>
-5.94541693

$$$$

 OpenBabel03272504103D

 36 38  0  0  0  0  0  0  0  0999 V2000
   38.5190   23.8810   37.0790 C   0  0  0  0  0  0  0  0  0  0  0  0
   38.8100   23.8840   35.7270 C   0  0  0  0  0  0  0  0  0  0  0  0
   38.1300   22.9930   34.8540 C   0  0  0  0  0  0  0  0  0  0  0  0
   37.2170   22.1770   35.4120 N   0  0  0  0  0  0  0  0  0  0  0  0
   36.9460   22.1950   36.7530 C   0  0  0  0  0  0  0  0  0  0  0  0
   37.5980   23.0420   37.5650 N   0  0  0  0  0  0  0  0  0  0  0  0
   35.9540   21.2910   37.2440 N   0  0  0  0  0  0  0  0  0  0  0  0
   39.0610   24.5840   37.7330 H   0  0  0  0  0  0  0  0  0  0  0  0
   36.0380   20.2750   37.3680 H   0  0  0  0  0  0  0  0  0  0  0  0
   35.1210   21.9130   37.4470 H   0  0  0  0  0  0  0  0  0  0  0  0
   38.1180   26.8050   35.2160 Cl  0  0  0  0  0  0  0  0  0  0  0  0
   39.7150   26.1680   34.9480 C   0  0  0  0  0  0  0  0  0  0  0  0
   39.8320   24.8370   35.2430 C   0  0  0  0  0  0  0  0  0  0  0  0
   41.0890   24.2420   35.0670 C   0  0  0  0  0  0  0  0  0  0  0  0
   42.1650   24.9250   34.6230 C   0  0  0  0  0  0  0  0  0  0  0  0
   42.0210   26.2770   34.3280 C   0  0  0  0  0  0  0  0  0  0  0  0
   43.3750   27.2110   33.7520 Cl  0  0  0  0  0  0  0  0  0  0  0  0
   40.8170   26.8680   34.4930 C   0  0  0  0  0  0  0  0  0  0  0  0
   41.3120   23.2050   35.2800 H   0  0  0  0  0  0  0  0  0  0  0  0
   43.1620   24.5130   34.4680 H   0  0  0  0  0  0  0  0  0  0  0  0
   40.6370   27.9350   34.2770 H   0  0  0  0  0  0  0  0  0  0  0  0
   38.4440   23.0320   33.4290 C   0  0  0  0  0  0  0  0  0  0  0  0
   39.3510   23.6500   33.2850 H   0  0  0  0  0  0  0  0  0  0  0  0
   38.7470   22.0010   33.1020 H   0  0  0  0  0  0  0  0  0  0  0  0
   36.4240   22.7940   31.8770 C   0  0  0  0  0  0  0  0  0  0  0  0
   37.3520   23.5480   32.5670 C   0  0  0  0  0  0  0  0  0  0  0  0
   37.2100   24.9270   32.4450 C   0  0  0  0  0  0  0  0  0  0  0  0
   37.9290   25.5650   32.9820 H   0  0  0  0  0  0  0  0  0  0  0  0
   36.2450   25.5790   31.7150 C   0  0  0  0  0  0  0  0  0  0  0  0
   36.2400   26.6810   31.7010 H   0  0  0  0  0  0  0  0  0  0  0  0
   35.3220   24.8020   31.0300 C   0  0  0  0  0  3  0  0  0  0  0  0
   35.4520   23.4290   31.1410 C   0  0  0  0  0  3  0  0  0  0  0  0
   37.7410   20.7140   32.5010 H   0  0  0  0  0  0  0  0  0  0  0  0
   36.5480   21.0650   31.9520 S   0  0  0  0  0  0  0  0  0  0  0  0
   35.4630   20.5290   32.8830 O   0  0  0  0  0  0  0  0  0  0  0  0
   36.2780   20.4020   30.6310 O   0  0  0  0  0  0  0  0  0  0  0  0
  1  6  1  0  0  0  0
  1  8  1  0  0  0  0
  2  1  2  0  0  0  0
  3  4  2  0  0  0  0
  3  2  1  0  0  0  0
  4  5  1  0  0  0  0
  5  7  1  0  0  0  0
  5  6  2  0  0  0  0
  7  9  1  0  0  0  0
  7 10  1  0  0  0  0
 12 11  1  0  0  0  0
 12 13  1  0  0  0  0
 13  2  1  0  0  0  0
 14 13  2  0  0  0  0
 14 19  1  0  0  0  0
 15 14  1  0  0  0  0
 16 18  1  0  0  0  0
 16 15  2  0  0  0  0
 17 16  1  0  0  0  0
 18 12  2  0  0  0  0
 20 15  1  0  0  0  0
 21 18  1  0  0  0  0
 22  3  1  0  0  0  0
 23 22  1  0  0  0  0
 24 22  1  0  0  0  0
 25 34  1  0  0  0  0
 25 26  1  0  0  0  0
 26 22  1  0  0  0  0
 27 26  2  0  0  0  0
 27 28  1  0  0  0  0
 29 27  1  0  0  0  0
 30 29  1  0  0  0  0
 31 32  1  0  0  0  0
 31 29  2  0  0  0  0
 32 25  2  0  0  0  0
 34 33  1  0  0  0  0
 34 35  2  0  0  0  0
 36 34  2  0  0  0  0
M  END
>  <minimizedAffinity>
-5.75965118

$$$$

 OpenBabel03272504103D

 36 38  0  0  0  0  0  0  0  0999 V2000
   37.7820   28.4240   30.7670 C   0  0  0  0  0  0  0  0  0  0  0  0
   37.2210   28.1670   32.0050 C   0  0  0  0  0  0  0  0  0  0  0  0
   36.2120   29.0270   32.5180 C   0  0  0  0  0  0  0  0  0  0  0  0
   35.8530   30.0680   31.7460 N   0  0  0  0  0  0  0  0  0  0  0  0
   36.4230   30.3000   30.5230 C   0  0  0  0  0  0  0  0  0  0  0  0
   37.3750   29.4790   30.0530 N   0  0  0  0  0  0  0  0  0  0  0  0
   35.9660   31.4310   29.7790 N   0  0  0  0  0  0  0  0  0  0  0  0
   38.5620   27.7400   30.3930 H   0  0  0  0  0  0  0  0  0  0  0  0
   36.1670   32.4220   29.9580 H   0  0  0  0  0  0  0  0  0  0  0  0
   35.3760   31.0070   29.0080 H   0  0  0  0  0  0  0  0  0  0  0  0
   35.8980   25.4460   31.6580 Cl  0  0  0  0  0  0  0  0  0  0  0  0
   37.2400   25.6960   32.7370 C   0  0  0  0  0  0  0  0  0  0  0  0
   37.7040   26.9830   32.7490 C   0  0  0  0  0  0  0  0  0  0  0  0
   38.7920   27.2730   33.5830 C   0  0  0  0  0  0  0  0  0  0  0  0
   39.3850   26.3430   34.3610 C   0  0  0  0  0  0  0  0  0  0  0  0
   38.8960   25.0420   34.3330 C   0  0  0  0  0  0  0  0  0  0  0  0
   39.6200   23.7970   35.3150 Cl  0  0  0  0  0  0  0  0  0  0  0  0
   37.8470   24.7430   33.5340 C   0  0  0  0  0  0  0  0  0  0  0  0
   39.2570   28.2460   33.6690 H   0  0  0  0  0  0  0  0  0  0  0  0
   40.2310   26.5140   35.0260 H   0  0  0  0  0  0  0  0  0  0  0  0
   37.4120   23.7310   33.4670 H   0  0  0  0  0  0  0  0  0  0  0  0
   35.6250   28.7190   33.8190 C   0  0  0  0  0  0  0  0  0  0  0  0
   34.7920   28.0060   33.6700 H   0  0  0  0  0  0  0  0  0  0  0  0
   36.3810   28.1520   34.4250 H   0  0  0  0  0  0  0  0  0  0  0  0
   33.8310   30.3410   34.6520 C   0  0  0  0  0  0  0  0  0  0  0  0
   35.1360   29.9000   34.5730 C   0  0  0  0  0  0  0  0  0  0  0  0
   36.0610   30.6390   35.3050 C   0  0  0  0  0  0  0  0  0  0  0  0
   37.1140   30.3180   35.2710 H   0  0  0  0  0  0  0  0  0  0  0  0
   35.7850   31.7400   36.0790 C   0  0  0  0  0  0  0  0  0  0  0  0
   36.6120   32.2370   36.6130 H   0  0  0  0  0  0  0  0  0  0  0  0
   34.4670   32.1660   36.1450 C   0  0  0  0  0  3  0  0  0  0  0  0
   33.5360   31.4410   35.4210 C   0  0  0  0  0  3  0  0  0  0  0  0
   32.8690   28.1580   33.7820 H   0  0  0  0  0  0  0  0  0  0  0  0
   32.6180   29.4930   33.7450 S   0  0  0  0  0  0  0  0  0  0  0  0
   31.2610   29.7010   34.4140 O   0  0  0  0  0  0  0  0  0  0  0  0
   32.4440   30.0320   32.3540 O   0  0  0  0  0  0  0  0  0  0  0  0
  1  2  1  0  0  0  0
  2  3  2  0  0  0  0
  2 13  1  0  0  0  0
  3 22  1  0  0  0  0
  4  3  1  0  0  0  0
  5  4  2  0  0  0  0
  6  5  1  0  0  0  0
  6  1  2  0  0  0  0
  7  9  1  0  0  0  0
  7  5  1  0  0  0  0
  8  1  1  0  0  0  0
 10  7  1  0  0  0  0
 11 12  1  0  0  0  0
 12 13  2  0  0  0  0
 12 18  1  0  0  0  0
 13 14  1  0  0  0  0
 14 19  1  0  0  0  0
 14 15  2  0  0  0  0
 15 20  1  0  0  0  0
 16 15  1  0  0  0  0
 16 17  1  0  0  0  0
 18 16  2  0  0  0  0
 21 18  1  0  0  0  0
 22 24  1  0  0  0  0
 22 26  1  0  0  0  0
 23 22  1  0  0  0  0
 25 32  1  0  0  0  0
 26 25  2  0  0  0  0
 26 27  1  0  0  0  0
 27 29  2  0  0  0  0
 28 27  1  0  0  0  0
 29 31  1  0  0  0  0
 29 30  1  0  0  0  0
 32 31  2  0  0  0  0
 34 33  1  0  0  0  0
 34 35  2  0  0  0  0
 34 25  1  0  0  0  0
 36 34  2  0  0  0  0
M  END
>  <minimizedAffinity>
-5.67475891

$$$$

 OpenBabel03272504103D

 36 38  0  0  0  0  0  0  0  0999 V2000
   35.8210   22.6870   31.8390 C   0  0  0  0  0  0  0  0  0  0  0  0
   36.9330   23.2950   32.3910 C   0  0  0  0  0  0  0  0  0  0  0  0
   37.5760   22.7090   33.5140 C   0  0  0  0  0  0  0  0  0  0  0  0
   37.0480   21.5660   33.9870 N   0  0  0  0  0  0  0  0  0  0  0  0
   35.9460   20.9840   33.4220 C   0  0  0  0  0  0  0  0  0  0  0  0
   35.3500   21.5490   32.3610 N   0  0  0  0  0  0  0  0  0  0  0  0
   35.4670   19.7660   33.9960 N   0  0  0  0  0  0  0  0  0  0  0  0
   35.3430   23.1630   30.9660 H   0  0  0  0  0  0  0  0  0  0  0  0
   34.9620   19.6470   34.8830 H   0  0  0  0  0  0  0  0  0  0  0  0
   35.7560   19.0230   33.2980 H   0  0  0  0  0  0  0  0  0  0  0  0
   39.0890   23.2550   30.2400 Cl  0  0  0  0  0  0  0  0  0  0  0  0
   38.3720   24.7340   30.8080 C   0  0  0  0  0  0  0  0  0  0  0  0
   37.4160   24.5480   31.7690 C   0  0  0  0  0  0  0  0  0  0  0  0
   36.7760   25.6860   32.2780 C   0  0  0  0  0  0  0  0  0  0  0  0
   37.0680   26.9370   31.8600 C   0  0  0  0  0  0  0  0  0  0  0  0
   38.0440   27.1010   30.8830 C   0  0  0  0  0  0  0  0  0  0  0  0
   38.4630   28.6910   30.3030 Cl  0  0  0  0  0  0  0  0  0  0  0  0
   38.6710   26.0150   30.3810 C   0  0  0  0  0  0  0  0  0  0  0  0
   35.9950   25.6680   33.0260 H   0  0  0  0  0  0  0  0  0  0  0  0
   36.6020   27.8530   32.2200 H   0  0  0  0  0  0  0  0  0  0  0  0
   39.4530   26.0780   29.6060 H   0  0  0  0  0  0  0  0  0  0  0  0
   38.7610   23.3630   34.0630 C   0  0  0  0  0  0  0  0  0  0  0  0
   39.6600   22.8980   33.6150 H   0  0  0  0  0  0  0  0  0  0  0  0
   38.7800   24.4260   33.7030 H   0  0  0  0  0  0  0  0  0  0  0  0
   39.8970   22.7630   36.2760 C   0  0  0  0  0  0  0  0  0  0  0  0
   38.8650   23.3150   35.5430 C   0  0  0  0  0  0  0  0  0  0  0  0
   37.8490   23.9030   36.2900 C   0  0  0  0  0  0  0  0  0  0  0  0
   37.0090   24.3570   35.7440 H   0  0  0  0  0  0  0  0  0  0  0  0
   37.7940   23.9760   37.6620 C   0  0  0  0  0  0  0  0  0  0  0  0
   36.9310   24.4720   38.1350 H   0  0  0  0  0  0  0  0  0  0  0  0
   38.8410   23.4160   38.3790 C   0  0  0  0  0  3  0  0  0  0  0  0
   39.8580   22.8270   37.6480 C   0  0  0  0  0  3  0  0  0  0  0  0
   40.7030   21.3730   34.3100 H   0  0  0  0  0  0  0  0  0  0  0  0
   41.1900   21.9840   35.4210 S   0  0  0  0  0  0  0  0  0  0  0  0
   42.1770   23.0460   34.9390 O   0  0  0  0  0  0  0  0  0  0  0  0
   42.0060   21.0760   36.2960 O   0  0  0  0  0  0  0  0  0  0  0  0
  1  6  2  0  0  0  0
  1  2  1  0  0  0  0
  2  3  2  0  0  0  0
  3  4  1  0  0  0  0
  3 22  1  0  0  0  0
  5  4  2  0  0  0  0
  5  7  1  0  0  0  0
  6  5  1  0  0  0  0
  7  9  1  0  0  0  0
  8  1  1  0  0  0  0
 10  7  1  0  0  0  0
 11 12  1  0  0  0  0
 12 13  1  0  0  0  0
 13 14  2  0  0  0  0
 13  2  1  0  0  0  0
 14 19  1  0  0  0  0
 15 20  1  0  0  0  0
 15 14  1  0  0  0  0
 16 15  2  0  0  0  0
 17 16  1  0  0  0  0
 18 12  2  0  0  0  0
 18 16  1  0  0  0  0
 21 18  1  0  0  0  0
 22 26  1  0  0  0  0
 23 22  1  0  0  0  0
 24 22  1  0  0  0  0
 25 32  1  0  0  0  0
 26 25  2  0  0  0  0
 26 27  1  0  0  0  0
 27 29  2  0  0  0  0
 28 27  1  0  0  0  0
 29 30  1  0  0  0  0
 29 31  1  0  0  0  0
 32 31  2  0  0  0  0
 33 34  1  0  0  0  0
 34 25  1  0  0  0  0
 34 36  2  0  0  0  0
 35 34  2  0  0  0  0
M  END
>  <minimizedAffinity>
-5.6098032

$$$$

 OpenBabel03272504103D

 36 38  0  0  0  0  0  0  0  0999 V2000
   35.7410   22.6680   31.6540 C   0  0  0  0  0  0  0  0  0  0  0  0
   36.8020   23.3190   32.2550 C   0  0  0  0  0  0  0  0  0  0  0  0
   37.4280   22.7480   33.3960 C   0  0  0  0  0  0  0  0  0  0  0  0
   36.9360   21.5760   33.8340 N   0  0  0  0  0  0  0  0  0  0  0  0
   35.8850   20.9510   33.2210 C   0  0  0  0  0  0  0  0  0  0  0  0
   35.3030   21.5040   32.1440 N   0  0  0  0  0  0  0  0  0  0  0  0
   35.4410   19.7050   33.7620 N   0  0  0  0  0  0  0  0  0  0  0  0
   35.2740   23.1340   30.7690 H   0  0  0  0  0  0  0  0  0  0  0  0
   34.9090   19.5520   34.6270 H   0  0  0  0  0  0  0  0  0  0  0  0
   35.7910   18.9860   33.0670 H   0  0  0  0  0  0  0  0  0  0  0  0
   39.2080   23.4410   30.3920 Cl  0  0  0  0  0  0  0  0  0  0  0  0
   38.2990   24.8580   30.8290 C   0  0  0  0  0  0  0  0  0  0  0  0
   37.2490   24.6010   31.6680 C   0  0  0  0  0  0  0  0  0  0  0  0
   36.4540   25.6850   32.0640 C   0  0  0  0  0  0  0  0  0  0  0  0
   36.6880   26.9510   31.6550 C   0  0  0  0  0  0  0  0  0  0  0  0
   37.7610   27.1880   30.8040 C   0  0  0  0  0  0  0  0  0  0  0  0
   38.1120   28.8000   30.2410 Cl  0  0  0  0  0  0  0  0  0  0  0  0
   38.5380   26.1540   30.4100 C   0  0  0  0  0  0  0  0  0  0  0  0
   35.5900   25.6090   32.7100 H   0  0  0  0  0  0  0  0  0  0  0  0
   36.1030   27.8270   31.9320 H   0  0  0  0  0  0  0  0  0  0  0  0
   39.4040   26.2750   29.7370 H   0  0  0  0  0  0  0  0  0  0  0  0
   38.5590   23.4480   33.9980 C   0  0  0  0  0  0  0  0  0  0  0  0
   39.4560   22.8040   33.9190 H   0  0  0  0  0  0  0  0  0  0  0  0
   38.7990   24.3470   33.3680 H   0  0  0  0  0  0  0  0  0  0  0  0
   38.3850   25.1320   35.9160 C   0  0  0  0  0  0  0  0  0  0  0  0
   38.3600   23.8470   35.4140 C   0  0  0  0  0  0  0  0  0  0  0  0
   38.0940   22.8470   36.3440 C   0  0  0  0  0  0  0  0  0  0  0  0
   38.0630   21.8070   35.9840 H   0  0  0  0  0  0  0  0  0  0  0  0
   37.8580   23.0330   37.6860 C   0  0  0  0  0  0  0  0  0  0  0  0
   37.6560   22.1530   38.3190 H   0  0  0  0  0  0  0  0  0  0  0  0
   37.8870   24.3320   38.1690 C   0  0  0  0  0  3  0  0  0  0  0  0
   38.1520   25.3370   37.2550 C   0  0  0  0  0  3  0  0  0  0  0  0
   38.2620   26.1420   33.5900 H   0  0  0  0  0  0  0  0  0  0  0  0
   38.7390   26.4360   34.8280 S   0  0  0  0  0  0  0  0  0  0  0  0
   38.0010   27.6880   35.2960 O   0  0  0  0  0  0  0  0  0  0  0  0
   40.1900   26.8240   34.8340 O   0  0  0  0  0  0  0  0  0  0  0  0
  1  6  2  0  0  0  0
  1  2  1  0  0  0  0
  2  3  2  0  0  0  0
  3  4  1  0  0  0  0
  3 22  1  0  0  0  0
  5  7  1  0  0  0  0
  5  4  2  0  0  0  0
  6  5  1  0  0  0  0
  7  9  1  0  0  0  0
  8  1  1  0  0  0  0
 10  7  1  0  0  0  0
 11 12  1  0  0  0  0
 12 13  1  0  0  0  0
 13 14  2  0  0  0  0
 13  2  1  0  0  0  0
 14 19  1  0  0  0  0
 15 20  1  0  0  0  0
 15 14  1  0  0  0  0
 16 15  2  0  0  0  0
 17 16  1  0  0  0  0
 18 16  1  0  0  0  0
 18 12  2  0  0  0  0
 21 18  1  0  0  0  0
 22 26  1  0  0  0  0
 23 22  1  0  0  0  0
 24 22  1  0  0  0  0
 25 32  1  0  0  0  0
 26 25  2  0  0  0  0
 26 27  1  0  0  0  0
 27 29  2  0  0  0  0
 28 27  1  0  0  0  0
 29 31  1  0  0  0  0
 29 30  1  0  0  0  0
 32 31  2  0  0  0  0
 33 34  1  0  0  0  0
 34 36  2  0  0  0  0
 34 35  2  0  0  0  0
 34 25  1  0  0  0  0
M  END
>  <minimizedAffinity>
-5.58988333

$$$$

 OpenBabel03272504103D

 36 38  0  0  0  0  0  0  0  0999 V2000
   36.4940   23.2310   31.8250 C   0  0  0  0  0  0  0  0  0  0  0  0
   37.6120   23.6430   32.5280 C   0  0  0  0  0  0  0  0  0  0  0  0
   38.0660   22.8860   33.6420 C   0  0  0  0  0  0  0  0  0  0  0  0
   37.3610   21.7830   33.9530 N   0  0  0  0  0  0  0  0  0  0  0  0
   36.2590   21.3970   33.2410 C   0  0  0  0  0  0  0  0  0  0  0  0
   35.8420   22.1230   32.1910 N   0  0  0  0  0  0  0  0  0  0  0  0
   35.5840   20.2060   33.6510 N   0  0  0  0  0  0  0  0  0  0  0  0
   36.1650   23.8370   30.9640 H   0  0  0  0  0  0  0  0  0  0  0  0
   34.9830   20.0780   34.4730 H   0  0  0  0  0  0  0  0  0  0  0  0
   35.8490   19.4950   32.9120 H   0  0  0  0  0  0  0  0  0  0  0  0
   37.0640   26.3280   33.8550 Cl  0  0  0  0  0  0  0  0  0  0  0  0
   38.1800   26.1560   32.5320 C   0  0  0  0  0  0  0  0  0  0  0  0
   38.2990   24.8720   32.0760 C   0  0  0  0  0  0  0  0  0  0  0  0
   39.1860   24.6380   31.0160 C   0  0  0  0  0  0  0  0  0  0  0  0
   39.9120   25.6210   30.4410 C   0  0  0  0  0  0  0  0  0  0  0  0
   39.7740   26.9190   30.9200 C   0  0  0  0  0  0  0  0  0  0  0  0
   40.6850   28.2280   30.2180 Cl  0  0  0  0  0  0  0  0  0  0  0  0
   38.9240   27.1630   31.9420 C   0  0  0  0  0  0  0  0  0  0  0  0
   39.3780   23.6670   30.5790 H   0  0  0  0  0  0  0  0  0  0  0  0
   40.6130   25.4950   29.6170 H   0  0  0  0  0  0  0  0  0  0  0  0
   38.7680   28.1690   32.3680 H   0  0  0  0  0  0  0  0  0  0  0  0
   39.2600   23.3330   34.3530 C   0  0  0  0  0  0  0  0  0  0  0  0
   40.1070   22.6830   34.0640 H   0  0  0  0  0  0  0  0  0  0  0  0
   39.5400   24.3520   33.9720 H   0  0  0  0  0  0  0  0  0  0  0  0
   39.9970   22.7720   36.7370 C   0  0  0  0  0  0  0  0  0  0  0  0
   39.1310   23.3510   35.8310 C   0  0  0  0  0  0  0  0  0  0  0  0
   38.0540   24.0340   36.3870 C   0  0  0  0  0  0  0  0  0  0  0  0
   37.3410   24.5120   35.6980 H   0  0  0  0  0  0  0  0  0  0  0  0
   37.7930   24.1760   37.7290 C   0  0  0  0  0  0  0  0  0  0  0  0
   36.9020   24.7460   38.0410 H   0  0  0  0  0  0  0  0  0  0  0  0
   38.6760   23.5880   38.6220 C   0  0  0  0  0  3  0  0  0  0  0  0
   39.7520   22.9030   38.0830 C   0  0  0  0  0  3  0  0  0  0  0  0
   40.9950   21.2250   34.9880 H   0  0  0  0  0  0  0  0  0  0  0  0
   41.3520   21.8760   36.1260 S   0  0  0  0  0  0  0  0  0  0  0  0
   42.4610   22.8530   35.7420 O   0  0  0  0  0  0  0  0  0  0  0  0
   41.9740   20.9810   37.1600 O   0  0  0  0  0  0  0  0  0  0  0  0
  1  6  2  0  0  0  0
  1  2  1  0  0  0  0
  2  3  2  0  0  0  0
  3  4  1  0  0  0  0
  3 22  1  0  0  0  0
  5  7  1  0  0  0  0
  5  4  2  0  0  0  0
  6  5  1  0  0  0  0
  7  9  1  0  0  0  0
  8  1  1  0  0  0  0
 10  7  1  0  0  0  0
 12 11  1  0  0  0  0
 13  2  1  0  0  0  0
 13 12  1  0  0  0  0
 14 13  2  0  0  0  0
 15 16  2  0  0  0  0
 15 14  1  0  0  0  0
 16 18  1  0  0  0  0
 17 16  1  0  0  0  0
 18 21  1  0  0  0  0
 18 12  2  0  0  0  0
 19 14  1  0  0  0  0
 20 15  1  0  0  0  0
 22 26  1  0  0  0  0
 23 22  1  0  0  0  0
 24 22  1  0  0  0  0
 25 32  1  0  0  0  0
 26 27  1  0  0  0  0
 26 25  2  0  0  0  0
 27 29  2  0  0  0  0
 28 27  1  0  0  0  0
 29 30  1  0  0  0  0
 29 31  1  0  0  0  0
 32 31  2  0  0  0  0
 33 34  1  0  0  0  0
 34 25  1  0  0  0  0
 34 36  2  0  0  0  0
 35 34  2  0  0  0  0
M  END
>  <minimizedAffinity>
-5.54388285

$$$$

 OpenBabel03272504103D

 36 38  0  0  0  0  0  0  0  0999 V2000
   35.2680   24.7280   30.7950 C   0  0  0  0  0  0  0  0  0  0  0  0
   36.1870   24.1090   31.6210 C   0  0  0  0  0  0  0  0  0  0  0  0
   37.0160   24.8910   32.4710 C   0  0  0  0  0  0  0  0  0  0  0  0
   36.8490   26.2250   32.4180 N   0  0  0  0  0  0  0  0  0  0  0  0
   35.9310   26.8130   31.5920 C   0  0  0  0  0  0  0  0  0  0  0  0
   35.1560   26.0600   30.7950 N   0  0  0  0  0  0  0  0  0  0  0  0
   35.8300   28.2380   31.6150 N   0  0  0  0  0  0  0  0  0  0  0  0
   34.6370   24.0950   30.1470 H   0  0  0  0  0  0  0  0  0  0  0  0
   36.4870   28.9200   31.2180 H   0  0  0  0  0  0  0  0  0  0  0  0
   34.9250   28.4210   32.1350 H   0  0  0  0  0  0  0  0  0  0  0  0
   38.4500   22.6860   30.1620 Cl  0  0  0  0  0  0  0  0  0  0  0  0
   37.1840   21.8190   30.9830 C   0  0  0  0  0  0  0  0  0  0  0  0
   36.2640   22.6320   31.5860 C   0  0  0  0  0  0  0  0  0  0  0  0
   35.2120   22.0180   32.2810 C   0  0  0  0  0  0  0  0  0  0  0  0
   35.0790   20.6770   32.3700 C   0  0  0  0  0  0  0  0  0  0  0  0
   36.0260   19.8720   31.7470 C   0  0  0  0  0  0  0  0  0  0  0  0
   35.9080   18.1340   31.8270 Cl  0  0  0  0  0  0  0  0  0  0  0  0
   37.0480   20.4460   31.0730 C   0  0  0  0  0  0  0  0  0  0  0  0
   34.4340   22.5500   32.8110 H   0  0  0  0  0  0  0  0  0  0  0  0
   34.2840   20.1500   32.8950 H   0  0  0  0  0  0  0  0  0  0  0  0
   37.8300   19.8640   30.5580 H   0  0  0  0  0  0  0  0  0  0  0  0
   37.9640   24.2090   33.3470 C   0  0  0  0  0  0  0  0  0  0  0  0
   37.4480   23.9500   34.2910 H   0  0  0  0  0  0  0  0  0  0  0  0
   38.2260   23.2190   32.8850 H   0  0  0  0  0  0  0  0  0  0  0  0
   39.4230   25.7510   34.7730 C   0  0  0  0  0  0  0  0  0  0  0  0
   39.1940   24.9810   33.6510 C   0  0  0  0  0  0  0  0  0  0  0  0
   40.2470   24.9190   32.7430 C   0  0  0  0  0  0  0  0  0  0  0  0
   40.1050   24.3140   31.8350 H   0  0  0  0  0  0  0  0  0  0  0  0
   41.4640   25.5450   32.8740 C   0  0  0  0  0  0  0  0  0  0  0  0
   42.2180   25.4140   32.0800 H   0  0  0  0  0  0  0  0  0  0  0  0
   41.6740   26.3130   34.0090 C   0  0  0  0  0  3  0  0  0  0  0  0
   40.6350   26.3850   34.9200 C   0  0  0  0  0  3  0  0  0  0  0  0
   36.9450   25.8050   35.3220 H   0  0  0  0  0  0  0  0  0  0  0  0
   38.1500   25.9050   35.9420 S   0  0  0  0  0  0  0  0  0  0  0  0
   38.2350   24.7400   36.9250 O   0  0  0  0  0  0  0  0  0  0  0  0
   38.2850   27.1340   36.7950 O   0  0  0  0  0  0  0  0  0  0  0  0
  1  6  2  0  0  0  0
  1  2  1  0  0  0  0
  2  3  2  0  0  0  0
  3 22  1  0  0  0  0
  4  3  1  0  0  0  0
  5  7  1  0  0  0  0
  5  4  2  0  0  0  0
  6  5  1  0  0  0  0
  7 10  1  0  0  0  0
  8  1  1  0  0  0  0
  9  7  1  0  0  0  0
 11 12  1  0  0  0  0
 12 18  2  0  0  0  0
 12 13  1  0  0  0  0
 13  2  1  0  0  0  0
 13 14  2  0  0  0  0
 14 15  1  0  0  0  0
 14 19  1  0  0  0  0
 15 20  1  0  0  0  0
 16 17  1  0  0  0  0
 16 15  2  0  0  0  0
 18 16  1  0  0  0  0
 21 18  1  0  0  0  0
 22 26  1  0  0  0  0
 22 23  1  0  0  0  0
 24 22  1  0  0  0  0
 25 32  1  0  0  0  0
 25 34  1  0  0  0  0
 26 25  2  0  0  0  0
 27 29  2  0  0  0  0
 27 26  1  0  0  0  0
 28 27  1  0  0  0  0
 29 31  1  0  0  0  0
 30 29  1  0  0  0  0
 31 32  2  0  0  0  0
 33 34  1  0  0  0  0
 34 36  2  0  0  0  0
 34 35  2  0  0  0  0
M  END
>  <minimizedAffinity>
-5.51781702

$$$$

 OpenBabel03272504103D

 36 38  0  0  0  0  0  0  0  0999 V2000
   38.4160   27.0520   32.7580 C   0  0  0  0  0  0  0  0  0  0  0  0
   37.9060   25.7950   33.0220 C   0  0  0  0  0  0  0  0  0  0  0  0
   36.9520   25.2180   32.1400 C   0  0  0  0  0  0  0  0  0  0  0  0
   36.5940   25.9520   31.0710 N   0  0  0  0  0  0  0  0  0  0  0  0
   37.1150   27.1940   30.8320 C   0  0  0  0  0  0  0  0  0  0  0  0
   38.0150   27.7250   31.6750 N   0  0  0  0  0  0  0  0  0  0  0  0
   36.6720   27.8890   29.6650 N   0  0  0  0  0  0  0  0  0  0  0  0
   39.1560   27.4750   33.4590 H   0  0  0  0  0  0  0  0  0  0  0  0
   35.7640   28.3420   29.5120 H   0  0  0  0  0  0  0  0  0  0  0  0
   37.4960   27.8250   29.0020 H   0  0  0  0  0  0  0  0  0  0  0  0
   40.4510   24.1240   32.9550 Cl  0  0  0  0  0  0  0  0  0  0  0  0
   39.4900   24.2950   34.3960 C   0  0  0  0  0  0  0  0  0  0  0  0
   38.3890   25.0920   34.2310 C   0  0  0  0  0  0  0  0  0  0  0  0
   37.5620   25.2950   35.3440 C   0  0  0  0  0  0  0  0  0  0  0  0
   37.8100   24.7390   36.5490 C   0  0  0  0  0  0  0  0  0  0  0  0
   38.9330   23.9320   36.6920 C   0  0  0  0  0  0  0  0  0  0  0  0
   39.3050   23.1880   38.2240 Cl  0  0  0  0  0  0  0  0  0  0  0  0
   39.7430   23.7260   35.6300 C   0  0  0  0  0  0  0  0  0  0  0  0
   36.6750   25.9140   35.3440 H   0  0  0  0  0  0  0  0  0  0  0  0
   37.2020   24.8640   37.4440 H   0  0  0  0  0  0  0  0  0  0  0  0
   40.6480   23.0970   35.6780 H   0  0  0  0  0  0  0  0  0  0  0  0
   36.4450   23.8810   32.4340 C   0  0  0  0  0  0  0  0  0  0  0  0
   36.5980   23.6740   33.5110 H   0  0  0  0  0  0  0  0  0  0  0  0
   35.3290   23.8860   32.3010 H   0  0  0  0  0  0  0  0  0  0  0  0
   36.6300   21.4840   31.5590 C   0  0  0  0  0  0  0  0  0  0  0  0
   37.0570   22.7950   31.6300 C   0  0  0  0  0  0  0  0  0  0  0  0
   38.1580   23.1070   30.8380 C   0  0  0  0  0  0  0  0  0  0  0  0
   38.5290   24.1430   30.8630 H   0  0  0  0  0  0  0  0  0  0  0  0
   38.8320   22.2390   30.0120 C   0  0  0  0  0  0  0  0  0  0  0  0
   39.6920   22.6140   29.4330 H   0  0  0  0  0  0  0  0  0  0  0  0
   38.3860   20.9280   29.9560 C   0  0  0  0  0  3  0  0  0  0  0  0
   37.2920   20.6020   30.7400 C   0  0  0  0  0  3  0  0  0  0  0  0
   34.3790   22.0180   32.6060 H   0  0  0  0  0  0  0  0  0  0  0  0
   35.2800   21.0040   32.5390 S   0  0  0  0  0  0  0  0  0  0  0  0
   34.5700   19.8320   31.8650 O   0  0  0  0  0  0  0  0  0  0  0  0
   35.6930   20.4770   33.8840 O   0  0  0  0  0  0  0  0  0  0  0  0
  1  2  1  0  0  0  0
  1  8  1  0  0  0  0
  2 13  1  0  0  0  0
  3 22  1  0  0  0  0
  3  2  2  0  0  0  0
  4  3  1  0  0  0  0
  5  4  2  0  0  0  0
  5  6  1  0  0  0  0
  6  1  2  0  0  0  0
  7  5  1  0  0  0  0
  9  7  1  0  0  0  0
 10  7  1  0  0  0  0
 11 12  1  0  0  0  0
 12 18  1  0  0  0  0
 13 12  2  0  0  0  0
 13 14  1  0  0  0  0
 14 15  2  0  0  0  0
 15 16  1  0  0  0  0
 15 20  1  0  0  0  0
 16 17  1  0  0  0  0
 18 21  1  0  0  0  0
 18 16  2  0  0  0  0
 19 14  1  0  0  0  0
 22 23  1  0  0  0  0
 24 22  1  0  0  0  0
 25 26  1  0  0  0  0
 25 34  1  0  0  0  0
 26 22  1  0  0  0  0
 27 28  1  0  0  0  0
 27 26  2  0  0  0  0
 29 27  1  0  0  0  0
 30 29  1  0  0  0  0
 31 29  2  0  0  0  0
 31 32  1  0  0  0  0
 32 25  2  0  0  0  0
 34 33  1  0  0  0  0
 34 36  2  0  0  0  0
 35 34  2  0  0  0  0
M  END
>  <minimizedAffinity>
-5.51484489

$$$$

 OpenBabel03272504103D

 36 38  0  0  0  0  0  0  0  0999 V2000
   37.1130   28.6470   29.6750 C   0  0  0  0  0  0  0  0  0  0  0  0
   36.6750   28.3100   30.9430 C   0  0  0  0  0  0  0  0  0  0  0  0
   36.3310   29.3320   31.8680 C   0  0  0  0  0  0  0  0  0  0  0  0
   36.4550   30.6020   31.4430 N   0  0  0  0  0  0  0  0  0  0  0  0
   36.8890   30.9090   30.1820 C   0  0  0  0  0  0  0  0  0  0  0  0
   37.2110   29.9320   29.3190 N   0  0  0  0  0  0  0  0  0  0  0  0
   36.9810   32.2900   29.8270 N   0  0  0  0  0  0  0  0  0  0  0  0
   37.3720   27.8330   28.9770 H   0  0  0  0  0  0  0  0  0  0  0  0
   37.6840   32.9720   30.1360 H   0  0  0  0  0  0  0  0  0  0  0  0
   36.1580   32.4410   29.1770 H   0  0  0  0  0  0  0  0  0  0  0  0
   38.9430   26.8790   32.3860 Cl  0  0  0  0  0  0  0  0  0  0  0  0
   37.4830   26.0610   31.9090 C   0  0  0  0  0  0  0  0  0  0  0  0
   36.5790   26.8730   31.2800 C   0  0  0  0  0  0  0  0  0  0  0  0
   35.3680   26.3000   30.8700 C   0  0  0  0  0  0  0  0  0  0  0  0
   35.0710   24.9970   31.0680 C   0  0  0  0  0  0  0  0  0  0  0  0
   36.0060   24.1910   31.7070 C   0  0  0  0  0  0  0  0  0  0  0  0
   35.6800   22.5030   31.9910 Cl  0  0  0  0  0  0  0  0  0  0  0  0
   37.1790   24.7270   32.1110 C   0  0  0  0  0  0  0  0  0  0  0  0
   34.5690   26.8390   30.3790 H   0  0  0  0  0  0  0  0  0  0  0  0
   34.1480   24.5020   30.7700 H   0  0  0  0  0  0  0  0  0  0  0  0
   37.9630   24.1420   32.6220 H   0  0  0  0  0  0  0  0  0  0  0  0
   35.8540   28.9450   33.1930 C   0  0  0  0  0  0  0  0  0  0  0  0
   35.8120   27.8400   33.2440 H   0  0  0  0  0  0  0  0  0  0  0  0
   36.6310   29.2350   33.9500 H   0  0  0  0  0  0  0  0  0  0  0  0
   34.2950   30.5000   34.4960 C   0  0  0  0  0  0  0  0  0  0  0  0
   34.5320   29.5090   33.5650 C   0  0  0  0  0  0  0  0  0  0  0  0
   33.4060   29.0270   32.9050 C   0  0  0  0  0  0  0  0  0  0  0  0
   33.5520   28.2370   32.1530 H   0  0  0  0  0  0  0  0  0  0  0  0
   32.1120   29.4490   33.1010 C   0  0  0  0  0  0  0  0  0  0  0  0
   31.3050   28.9850   32.5100 H   0  0  0  0  0  0  0  0  0  0  0  0
   31.8960   30.4460   34.0400 C   0  0  0  0  0  3  0  0  0  0  0  0
   33.0080   30.9340   34.7050 C   0  0  0  0  0  3  0  0  0  0  0  0
   36.6240   30.1990   35.4620 H   0  0  0  0  0  0  0  0  0  0  0  0
   35.6430   31.1360   35.3840 S   0  0  0  0  0  0  0  0  0  0  0  0
   36.2290   32.3200   34.6180 O   0  0  0  0  0  0  0  0  0  0  0  0
   35.2490   31.7030   36.7180 O   0  0  0  0  0  0  0  0  0  0  0  0
  1  2  1  0  0  0  0
  2 13  1  0  0  0  0
  2  3  2  0  0  0  0
  3 22  1  0  0  0  0
  4  3  1  0  0  0  0
  5  4  2  0  0  0  0
  6  1  2  0  0  0  0
  6  5  1  0  0  0  0
  7  9  1  0  0  0  0
  7  5  1  0  0  0  0
  8  1  1  0  0  0  0
 10  7  1  0  0  0  0
 12 18  1  0  0  0  0
 12 11  1  0  0  0  0
 13 12  2  0  0  0  0
 14 15  2  0  0  0  0
 14 13  1  0  0  0  0
 15 16  1  0  0  0  0
 16 17  1  0  0  0  0
 16 18  2  0  0  0  0
 18 21  1  0  0  0  0
 19 14  1  0  0  0  0
 20 15  1  0  0  0  0
 22 23  1  0  0  0  0
 22 26  1  0  0  0  0
 22 24  1  0  0  0  0
 25 32  1  0  0  0  0
 25 34  1  0  0  0  0
 26 25  2  0  0  0  0
 27 29  2  0  0  0  0
 27 26  1  0  0  0  0
 28 27  1  0  0  0  0
 29 31  1  0  0  0  0
 30 29  1  0  0  0  0
 31 32  2  0  0  0  0
 34 33  1  0  0  0  0
 34 36  2  0  0  0  0
 35 34  2  0  0  0  0
M  END
>  <minimizedAffinity>
-5.42689991

$$$$
