
 OpenBabel03262523323D

 43 47  0  0  1  0  0  0  0  0999 V2000
   35.7210   29.3820   50.6180 C   0  0  0  0  0  0  0  0  0  0  0  0
   36.4830   30.1110   49.7280 C   0  0  0  0  0  0  0  0  0  0  0  0
   36.1930   30.0400   48.3670 C   0  0  0  0  0  0  0  0  0  0  0  0
   35.1520   29.2390   47.9610 N   0  0  0  0  0  0  0  0  0  0  0  0
   34.4360   28.5450   48.8680 C   0  0  0  0  0  0  0  0  0  0  0  0
   34.7000   28.6030   50.1680 N   0  0  0  0  0  0  0  0  0  0  0  0
   35.9230   29.4160   51.6870 H   0  0  0  0  0  0  0  0  0  0  0  0
   37.2970   30.7350   50.0680 H   0  0  0  0  0  0  0  0  0  0  0  0
   36.5620   30.5230   46.0220 C   0  0  0  0  0  0  0  0  0  0  0  0
   36.9330   30.7630   47.3580 C   0  0  0  0  0  0  0  0  0  0  0  0
   37.9480   31.6410   47.6220 C   0  0  0  0  0  0  0  0  0  0  0  0
   38.5900   32.2730   46.5880 C   0  0  0  0  0  0  0  0  0  0  0  0
   39.6050   33.1620   46.6200 N   0  0  0  0  0  0  0  0  0  0  0  0
   39.8900   33.4920   45.3600 C   0  0  0  0  0  0  0  0  0  0  0  0
   39.0850   32.8400   44.5190 N   0  0  0  0  0  0  0  0  0  0  0  0
   38.2570   32.0670   45.2570 C   0  0  0  0  0  0  0  0  0  0  0  0
   37.2370   31.1850   44.9890 C   0  0  0  0  0  0  0  0  0  0  0  0
   35.7790   29.8550   45.6800 H   0  0  0  0  0  0  0  0  0  0  0  0
   38.2400   31.8320   48.6390 H   0  0  0  0  0  0  0  0  0  0  0  0
   40.0930   33.5340   47.4690 H   0  0  0  0  0  0  0  0  0  0  0  0
   40.6660   34.1900   45.0680 H   0  0  0  0  0  0  0  0  0  0  0  0
   37.0000   31.0440   43.9520 H   0  0  0  0  0  0  0  0  0  0  0  0
   33.3380   27.7140   48.3770 C   0  0  0  0  0  0  0  0  0  0  0  0
   33.5180   26.5660   47.9030 O   0  0  0  0  0  0  0  0  0  0  0  0
   31.9240   28.2730   48.4490 C   0  0  1  0  0  0  0  0  0  0  0  0
   31.2330   28.4240   47.0870 C   0  0  0  0  0  0  0  0  0  0  0  0
   30.8100   27.3910   48.0820 C   0  0  2  0  0  0  0  0  0  0  0  0
   31.8300   29.2280   49.0010 H   0  0  0  0  0  0  0  0  0  0  0  0
   31.8240   28.0850   46.2190 H   0  0  0  0  0  0  0  0  0  0  0  0
   30.5130   29.2290   46.9200 H   0  0  0  0  0  0  0  0  0  0  0  0
   31.1250   26.3340   47.8240 H   0  0  0  0  0  0  0  0  0  0  0  0
   28.2450   27.8230   48.4450 C   0  0  0  0  0  0  0  0  0  0  0  0
   29.5330   27.4930   48.7680 C   0  0  0  0  0  0  0  0  0  0  0  0
   29.7240   27.1280   50.0950 C   0  0  0  0  0  0  0  0  0  0  0  0
   30.6270   26.8260   50.6150 H   0  0  0  0  0  0  0  0  0  0  0  0
   28.6880   27.0940   51.0410 C   0  0  0  0  0  0  0  0  0  0  0  0
   28.7350   26.8310   52.0690 H   0  0  0  0  0  0  0  0  0  0  0  0
   27.3940   27.4430   50.6410 C   0  0  0  0  0  0  0  0  0  0  0  0
   27.1910   27.8070   49.3280 C   0  0  0  0  0  0  0  0  0  0  0  0
   28.9530   27.6830   46.0220 H   0  0  0  0  0  0  0  0  0  0  0  0
   28.0050   28.3100   46.7880 S   0  0  0  0  0  0  0  0  0  0  0  0
   28.0280   29.7870   46.6690 O   0  0  0  0  0  0  0  0  0  0  0  0
   26.6280   27.8620   46.3480 O   0  0  0  0  0  0  0  0  0  0  0  0
  1  7  1  0  0  0  0
  2  8  1  0  0  0  0
  2  1  2  0  0  0  0
  3  2  1  0  0  0  0
  4  3  2  0  0  0  0
  4  5  1  0  0  0  0
  5  6  2  0  0  0  0
  6  1  1  0  0  0  0
  9 10  1  0  0  0  0
 10 11  2  0  0  0  0
 10  3  1  0  0  0  0
 11 19  1  0  0  0  0
 12 13  1  0  0  0  0
 12 11  1  0  0  0  0
 13 20  1  0  0  0  0
 14 13  1  0  0  0  0
 15 16  1  0  0  0  0
 15 14  2  0  0  0  0
 16 12  2  0  0  0  0
 17 16  1  0  0  0  0
 17  9  2  0  0  0  0
 18  9  1  0  0  0  0
 21 14  1  0  0  0  0
 22 17  1  0  0  0  0
 23 25  1  0  0  0  0
 23  5  1  0  0  0  0
 24 23  2  0  0  0  0
 25 28  1  1  0  0  0
 26 27  1  0  0  0  0
 26 25  1  0  0  0  0
 27 31  1  6  0  0  0
 27 25  1  0  0  0  0
 27 33  1  0  0  0  0
 29 26  1  0  0  0  0
 30 26  1  0  0  0  0
 32 33  2  0  0  0  0
 32 39  1  0  0  0  0
 33 34  1  0  0  0  0
 34 35  1  0  0  0  0
 34 36  2  0  0  0  0
 36 37  1  0  0  0  0
 38 36  1  0  0  0  0
 39 38  2  0  0  0  0
 40 41  1  0  0  0  0
 41 32  1  0  0  0  0
 42 41  2  0  0  0  0
 43 41  2  0  0  0  0
M  END
>  <minimizedAffinity>
-7.30297041

>  <minimizedRMSD>
1.054353

$$$$
