
 OpenBabel03272504563D

 36 38  0  0  1  0  0  0  0  0999 V2000
   37.0040   31.5260   48.6850 C   0  0  1  0  0  0  0  0  0  0  0  0
   36.1810   30.9480   47.6430 C   0  0  0  0  0  0  0  0  0  0  0  0
   37.1560   30.1070   48.3630 C   0  0  2  0  0  0  0  0  0  0  0  0
   36.6180   31.7100   49.7450 H   0  0  0  0  0  0  0  0  0  0  0  0
   36.4720   31.2130   46.5970 H   0  0  0  0  0  0  0  0  0  0  0  0
   35.1860   31.2780   47.8070 H   0  0  0  0  0  0  0  0  0  0  0  0
   37.8570   29.6500   47.6860 H   0  0  0  0  0  0  0  0  0  0  0  0
   38.1490   32.4290   48.3320 C   0  0  0  0  0  0  0  0  0  0  0  0
   38.5130   33.3730   49.3210 C   0  0  0  0  0  0  0  0  0  0  0  0
   39.5720   34.1830   48.9700 C   0  0  0  0  0  0  0  0  0  0  0  0
   40.1830   34.0400   47.7510 N   0  0  0  0  0  0  0  0  0  0  0  0
   39.7960   33.1240   46.8460 C   0  0  0  0  0  0  0  0  0  0  0  0
   38.7480   32.2980   47.1520 N   0  0  0  0  0  0  0  0  0  0  0  0
   40.4220   32.9560   45.6060 N   0  0  0  0  0  0  0  0  0  0  0  0
   38.0230   33.4740   50.2760 H   0  0  0  0  0  0  0  0  0  0  0  0
   39.9240   34.9440   49.6720 H   0  0  0  0  0  0  0  0  0  0  0  0
   40.9080   33.8170   45.2260 H   0  0  0  0  0  0  0  0  0  0  0  0
   40.3920   32.0340   45.1160 H   0  0  0  0  0  0  0  0  0  0  0  0
   36.6410   29.2030   49.2900 O   0  0  0  0  0  0  0  0  0  0  0  0
   34.6360   27.6810   49.7470 O   0  0  0  0  0  0  0  0  0  0  0  0
   34.9840   28.9620   49.0000 P   0  0  1  0  0  0  0  0  0  0  0  0
   34.1330   30.1660   49.8190 O   0  0  0  0  0  0  0  0  0  0  0  0
   34.4330   31.0640   49.7760 H   0  0  0  0  0  0  0  0  0  0  0  0
   34.7270   28.8930   47.3900 O   0  0  0  0  0  0  0  0  0  0  0  0
   33.6990   28.8320   45.1090 C   0  0  0  0  0  0  0  0  0  0  0  0
   33.8000   28.7570   46.4720 C   0  0  0  0  0  0  0  0  0  0  0  0
   32.5940   28.4480   47.1330 C   0  0  0  0  0  0  0  0  0  0  0  0
   32.3820   28.3260   48.1920 H   0  0  0  0  0  0  0  0  0  0  0  0
   31.3940   28.2380   46.4350 C   0  0  0  0  0  0  0  0  0  0  0  0
   30.4290   27.9990   46.8420 H   0  0  0  0  0  0  0  0  0  0  0  0
   31.4260   28.3430   45.0530 C   0  0  0  0  0  3  0  0  0  0  0  0
   32.5710   28.6420   44.3490 C   0  0  0  0  0  3  0  0  0  0  0  0
   36.2890   28.6920   44.8830 H   0  0  0  0  0  0  0  0  0  0  0  0
   35.1850   29.2110   44.3230 S   0  0  0  0  0  0  0  0  0  0  0  0
   35.1780   28.6970   42.8810 O   0  0  0  0  0  0  0  0  0  0  0  0
   35.2330   30.7230   44.1780 O   0  0  0  0  0  0  0  0  0  0  0  0
  1  4  1  1  0  0  0
  2  6  1  0  0  0  0
  2  3  1  0  0  0  0
  2  1  1  0  0  0  0
  3  7  1  6  0  0  0
  3  1  1  0  0  0  0
  3 19  1  0  0  0  0
  5  2  1  0  0  0  0
  8  1  1  0  0  0  0
  8  9  1  0  0  0  0
  9 15  1  0  0  0  0
 10  9  2  0  0  0  0
 10 16  1  0  0  0  0
 11 10  1  0  0  0  0
 12 13  1  0  0  0  0
 12 11  2  0  0  0  0
 13  8  2  0  0  0  0
 14 12  1  0  0  0  0
 17 14  1  0  0  0  0
 18 14  1  0  0  0  0
 21 19  1  0  0  0  0
 21 20  2  1  0  0  0
 21 22  1  0  0  0  0
 23 22  1  0  0  0  0
 24 21  1  0  0  0  0
 25 26  1  0  0  0  0
 26 27  2  0  0  0  0
 26 24  1  0  0  0  0
 27 28  1  0  0  0  0
 29 30  1  0  0  0  0
 29 27  1  0  0  0  0
 31 29  2  0  0  0  0
 32 31  1  0  0  0  0
 32 25  2  0  0  0  0
 34 33  1  0  0  0  0
 34 25  1  0  0  0  0
 35 34  2  0  0  0  0
 36 34  2  0  0  0  0
M  END
>  <minimizedAffinity>
-4.52492952

>  <minimizedRMSD>
0.41269049

$$$$
