
 OpenBabel03262523343D

 43 47  0  0  1  0  0  0  0  0999 V2000
   37.1240   28.8780   31.1670 C   0  0  0  0  0  0  0  0  0  0  0  0
   36.3640   29.6900   31.9830 C   0  0  0  0  0  0  0  0  0  0  0  0
   35.9550   29.2130   33.2260 C   0  0  0  0  0  0  0  0  0  0  0  0
   36.3270   27.9420   33.5940 N   0  0  0  0  0  0  0  0  0  0  0  0
   37.0710   27.1850   32.7640 C   0  0  0  0  0  0  0  0  0  0  0  0
   37.4690   27.6270   31.5750 N   0  0  0  0  0  0  0  0  0  0  0  0
   37.4590   29.2220   30.1900 H   0  0  0  0  0  0  0  0  0  0  0  0
   36.0820   30.6870   31.6750 H   0  0  0  0  0  0  0  0  0  0  0  0
   33.7640   29.9710   33.9340 C   0  0  0  0  0  0  0  0  0  0  0  0
   35.1550   29.9850   34.1510 C   0  0  0  0  0  0  0  0  0  0  0  0
   35.6620   30.7110   35.1940 C   0  0  0  0  0  0  0  0  0  0  0  0
   34.8130   31.4140   36.0110 C   0  0  0  0  0  0  0  0  0  0  0  0
   35.0950   32.1880   37.0800 N   0  0  0  0  0  0  0  0  0  0  0  0
   33.9390   32.6630   37.5470 C   0  0  0  0  0  0  0  0  0  0  0  0
   32.9240   32.2140   36.8060 N   0  0  0  0  0  0  0  0  0  0  0  0
   33.4380   31.4270   35.8350 C   0  0  0  0  0  0  0  0  0  0  0  0
   32.9260   30.6990   34.7870 C   0  0  0  0  0  0  0  0  0  0  0  0
   33.2390   29.4390   33.1480 H   0  0  0  0  0  0  0  0  0  0  0  0
   36.7220   30.7290   35.3680 H   0  0  0  0  0  0  0  0  0  0  0  0
   36.0390   32.3910   37.4840 H   0  0  0  0  0  0  0  0  0  0  0  0
   33.8460   33.3190   38.4050 H   0  0  0  0  0  0  0  0  0  0  0  0
   31.8600   30.7270   34.6740 H   0  0  0  0  0  0  0  0  0  0  0  0
   37.4410   25.8440   33.2110 C   0  0  0  0  0  0  0  0  0  0  0  0
   36.9190   24.8050   32.7390 O   0  0  0  0  0  0  0  0  0  0  0  0
   38.5030   25.7130   34.2940 C   0  0  1  0  0  0  0  0  0  0  0  0
   38.0700   26.2340   35.6720 C   0  0  0  0  0  0  0  0  0  0  0  0
   38.2570   24.7760   35.3960 C   0  0  2  0  0  0  0  0  0  0  0  0
   39.4830   26.1590   34.0390 H   0  0  0  0  0  0  0  0  0  0  0  0
   37.0360   26.6140   35.7270 H   0  0  0  0  0  0  0  0  0  0  0  0
   38.8050   26.6750   36.3490 H   0  0  0  0  0  0  0  0  0  0  0  0
   37.2940   24.1890   35.2960 H   0  0  0  0  0  0  0  0  0  0  0  0
   39.5730   23.3060   37.1310 C   0  0  0  0  0  0  0  0  0  0  0  0
   39.3570   24.0370   35.9940 C   0  0  0  0  0  0  0  0  0  0  0  0
   40.4450   24.1070   35.1330 C   0  0  0  0  0  0  0  0  0  0  0  0
   40.5500   24.6120   34.1780 H   0  0  0  0  0  0  0  0  0  0  0  0
   41.6750   23.4830   35.3920 C   0  0  0  0  0  0  0  0  0  0  0  0
   42.5560   23.4790   34.8010 H   0  0  0  0  0  0  0  0  0  0  0  0
   41.8250   22.7500   36.5740 C   0  0  0  0  0  3  0  0  0  0  0  0
   40.7540   22.6730   37.4370 C   0  0  0  0  0  3  0  0  0  0  0  0
   38.5450   22.3800   39.2460 H   0  0  0  0  0  0  0  0  0  0  0  0
   38.2200   23.2390   38.2290 S   0  0  0  0  0  0  0  0  0  0  0  0
   36.9810   22.8660   37.5090 O   0  0  0  0  0  0  0  0  0  0  0  0
   37.9910   24.6240   38.7960 O   0  0  0  0  0  0  0  0  0  0  0  0
  1  6  2  0  0  0  0
  1  2  1  0  0  0  0
  2  3  2  0  0  0  0
  3  4  1  0  0  0  0
  3 10  1  0  0  0  0
  5 23  1  0  0  0  0
  5  4  2  0  0  0  0
  6  5  1  0  0  0  0
  7  1  1  0  0  0  0
  8  2  1  0  0  0  0
  9 10  2  0  0  0  0
  9 17  1  0  0  0  0
 10 11  1  0  0  0  0
 11 19  1  0  0  0  0
 11 12  2  0  0  0  0
 12 13  1  0  0  0  0
 13 20  1  0  0  0  0
 13 14  1  0  0  0  0
 14 21  1  0  0  0  0
 15 14  2  0  0  0  0
 16 12  1  0  0  0  0
 16 15  1  0  0  0  0
 17 16  2  0  0  0  0
 18  9  1  0  0  0  0
 22 17  1  0  0  0  0
 23 25  1  0  0  0  0
 24 23  2  0  0  0  0
 25 28  1  6  0  0  0
 25 27  1  0  0  0  0
 25 26  1  0  0  0  0
 26 29  1  0  0  0  0
 26 30  1  0  0  0  0
 27 31  1  6  0  0  0
 27 26  1  0  0  0  0
 27 33  1  0  0  0  0
 32 39  1  0  0  0  0
 32 41  1  0  0  0  0
 33 32  2  0  0  0  0
 34 36  2  0  0  0  0
 34 33  1  0  0  0  0
 35 34  1  0  0  0  0
 36 38  1  0  0  0  0
 37 36  1  0  0  0  0
 38 39  2  0  0  0  0
 41 43  2  0  0  0  0
 41 40  1  0  0  0  0
 42 41  2  0  0  0  0
M  END
>  <minimizedAffinity>
-6.7324543

$$$$

 OpenBabel03262523343D

 43 47  0  0  1  0  0  0  0  0999 V2000
   35.4080   26.1130   31.2500 C   0  0  0  0  0  0  0  0  0  0  0  0
   35.3400   24.7370   31.1740 C   0  0  0  0  0  0  0  0  0  0  0  0
   36.3940   23.9750   31.6720 C   0  0  0  0  0  0  0  0  0  0  0  0
   37.4700   24.6280   32.2250 N   0  0  0  0  0  0  0  0  0  0  0  0
   37.4920   25.9750   32.2780 C   0  0  0  0  0  0  0  0  0  0  0  0
   36.4940   26.7150   31.8070 N   0  0  0  0  0  0  0  0  0  0  0  0
   34.6010   26.7360   30.8690 H   0  0  0  0  0  0  0  0  0  0  0  0
   34.4850   24.2430   30.7350 H   0  0  0  0  0  0  0  0  0  0  0  0
   37.4490   21.9420   30.8820 C   0  0  0  0  0  0  0  0  0  0  0  0
   36.4170   22.5300   31.6360 C   0  0  0  0  0  0  0  0  0  0  0  0
   35.5140   21.7250   32.2760 C   0  0  0  0  0  0  0  0  0  0  0  0
   35.6230   20.3610   32.1730 C   0  0  0  0  0  0  0  0  0  0  0  0
   34.8510   19.3940   32.7110 N   0  0  0  0  0  0  0  0  0  0  0  0
   35.3530   18.2200   32.3260 C   0  0  0  0  0  0  0  0  0  0  0  0
   36.4270   18.4080   31.5570 N   0  0  0  0  0  0  0  0  0  0  0  0
   36.6240   19.7400   31.4410 C   0  0  0  0  0  0  0  0  0  0  0  0
   37.5330   20.5470   30.7980 C   0  0  0  0  0  0  0  0  0  0  0  0
   38.2240   22.4640   30.3310 H   0  0  0  0  0  0  0  0  0  0  0  0
   34.7220   22.1640   32.8550 H   0  0  0  0  0  0  0  0  0  0  0  0
   34.0090   19.5220   33.3200 H   0  0  0  0  0  0  0  0  0  0  0  0
   34.9430   17.2550   32.6030 H   0  0  0  0  0  0  0  0  0  0  0  0
   38.2950   20.0400   30.2390 H   0  0  0  0  0  0  0  0  0  0  0  0
   38.6600   26.6140   32.8820 C   0  0  0  0  0  0  0  0  0  0  0  0
   39.4180   27.3810   32.2410 O   0  0  0  0  0  0  0  0  0  0  0  0
   38.9600   26.3300   34.3470 C   0  0  1  0  0  0  0  0  0  0  0  0
   38.1220   27.1520   35.3360 C   0  0  0  0  0  0  0  0  0  0  0  0
   37.9210   25.6810   35.1540 C   0  0  2  0  0  0  0  0  0  0  0  0
   40.0270   26.4200   34.6270 H   0  0  0  0  0  0  0  0  0  0  0  0
   37.3820   27.8290   34.8760 H   0  0  0  0  0  0  0  0  0  0  0  0
   38.5410   27.4470   36.3010 H   0  0  0  0  0  0  0  0  0  0  0  0
   36.9910   25.4030   34.5720 H   0  0  0  0  0  0  0  0  0  0  0  0
   38.9560   23.5560   36.3000 C   0  0  0  0  0  0  0  0  0  0  0  0
   38.2820   24.7430   36.2040 C   0  0  0  0  0  0  0  0  0  0  0  0
   37.8120   25.2430   37.4120 C   0  0  0  0  0  0  0  0  0  0  0  0
   37.2540   26.1490   37.6240 H   0  0  0  0  0  0  0  0  0  0  0  0
   38.0050   24.5950   38.6410 C   0  0  0  0  0  0  0  0  0  0  0  0
   37.6870   24.8960   39.6090 H   0  0  0  0  0  0  0  0  0  0  0  0
   38.7050   23.3840   38.6660 C   0  0  0  0  0  3  0  0  0  0  0  0
   39.1760   22.8770   37.4750 C   0  0  0  0  0  3  0  0  0  0  0  0
   39.7130   23.9580   33.9210 H   0  0  0  0  0  0  0  0  0  0  0  0
   39.5230   22.9090   34.7820 S   0  0  0  0  0  0  0  0  0  0  0  0
   38.5850   21.8820   34.2700 O   0  0  0  0  0  0  0  0  0  0  0  0
   40.8430   22.2090   35.0200 O   0  0  0  0  0  0  0  0  0  0  0  0
  1  6  1  0  0  0  0
  2  1  2  0  0  0  0
  2  3  1  0  0  0  0
  3  4  2  0  0  0  0
  4  5  1  0  0  0  0
  5 23  1  0  0  0  0
  6  5  2  0  0  0  0
  7  1  1  0  0  0  0
  8  2  1  0  0  0  0
  9 10  1  0  0  0  0
 10  3  1  0  0  0  0
 10 11  2  0  0  0  0
 11 19  1  0  0  0  0
 12 11  1  0  0  0  0
 12 13  1  0  0  0  0
 13 20  1  0  0  0  0
 14 21  1  0  0  0  0
 14 13  1  0  0  0  0
 15 14  2  0  0  0  0
 16 15  1  0  0  0  0
 16 12  2  0  0  0  0
 17  9  2  0  0  0  0
 17 16  1  0  0  0  0
 18  9  1  0  0  0  0
 22 17  1  0  0  0  0
 23 25  1  0  0  0  0
 24 23  2  0  0  0  0
 25 28  1  1  0  0  0
 25 27  1  0  0  0  0
 25 26  1  0  0  0  0
 26 30  1  0  0  0  0
 27 31  1  6  0  0  0
 27 26  1  0  0  0  0
 27 33  1  0  0  0  0
 29 26  1  0  0  0  0
 32 39  1  0  0  0  0
 33 32  2  0  0  0  0
 33 34  1  0  0  0  0
 34 35  1  0  0  0  0
 34 36  2  0  0  0  0
 36 38  1  0  0  0  0
 36 37  1  0  0  0  0
 39 38  2  0  0  0  0
 40 41  1  0  0  0  0
 41 43  2  0  0  0  0
 41 32  1  0  0  0  0
 42 41  2  0  0  0  0
M  END
>  <minimizedAffinity>
-6.71990442

$$$$

 OpenBabel03262523343D

 43 47  0  0  1  0  0  0  0  0999 V2000
   36.4430   28.5600   30.8110 C   0  0  0  0  0  0  0  0  0  0  0  0
   35.6910   29.2870   31.7120 C   0  0  0  0  0  0  0  0  0  0  0  0
   35.8910   29.0930   33.0770 C   0  0  0  0  0  0  0  0  0  0  0  0
   36.8360   28.1780   33.4770 N   0  0  0  0  0  0  0  0  0  0  0  0
   37.5470   27.4910   32.5600 C   0  0  0  0  0  0  0  0  0  0  0  0
   37.3680   27.6660   31.2550 N   0  0  0  0  0  0  0  0  0  0  0  0
   36.3110   28.6880   29.7390 H   0  0  0  0  0  0  0  0  0  0  0  0
   34.9540   30.0010   31.3770 H   0  0  0  0  0  0  0  0  0  0  0  0
   33.7750   29.5270   34.1750 C   0  0  0  0  0  0  0  0  0  0  0  0
   35.1530   29.8030   34.0970 C   0  0  0  0  0  0  0  0  0  0  0  0
   35.7040   30.7060   34.9640 C   0  0  0  0  0  0  0  0  0  0  0  0
   34.9120   31.3300   35.8950 C   0  0  0  0  0  0  0  0  0  0  0  0
   35.2420   32.2430   36.8320 N   0  0  0  0  0  0  0  0  0  0  0  0
   34.1300   32.5550   37.4980 C   0  0  0  0  0  0  0  0  0  0  0  0
   33.0940   31.8660   37.0140 N   0  0  0  0  0  0  0  0  0  0  0  0
   33.5510   31.0870   36.0070 C   0  0  0  0  0  0  0  0  0  0  0  0
   32.9940   30.1810   35.1360 C   0  0  0  0  0  0  0  0  0  0  0  0
   33.2190   28.8370   33.5500 H   0  0  0  0  0  0  0  0  0  0  0  0
   36.7550   30.9230   34.9140 H   0  0  0  0  0  0  0  0  0  0  0  0
   36.1910   32.6450   37.0170 H   0  0  0  0  0  0  0  0  0  0  0  0
   34.0810   33.2670   38.3140 H   0  0  0  0  0  0  0  0  0  0  0  0
   31.9410   30.0130   35.2460 H   0  0  0  0  0  0  0  0  0  0  0  0
   38.5410   26.5360   33.0450 C   0  0  0  0  0  0  0  0  0  0  0  0
   39.7210   26.5130   32.6200 O   0  0  0  0  0  0  0  0  0  0  0  0
   38.1170   25.5310   34.1070 C   0  0  1  0  0  0  0  0  0  0  0  0
   37.9030   24.1050   33.5810 C   0  0  0  0  0  0  0  0  0  0  0  0
   39.0560   24.4620   34.4650 C   0  0  2  0  0  0  0  0  0  0  0  0
   37.2280   25.8280   34.6970 H   0  0  0  0  0  0  0  0  0  0  0  0
   38.1080   23.9650   32.5060 H   0  0  0  0  0  0  0  0  0  0  0  0
   37.1520   23.4560   34.0380 H   0  0  0  0  0  0  0  0  0  0  0  0
   40.0530   24.5270   33.9320 H   0  0  0  0  0  0  0  0  0  0  0  0
   39.9350   23.1360   36.5550 C   0  0  0  0  0  0  0  0  0  0  0  0
   39.1290   23.9720   35.8310 C   0  0  0  0  0  0  0  0  0  0  0  0
   38.0970   24.5560   36.5560 C   0  0  0  0  0  0  0  0  0  0  0  0
   37.3230   25.2470   36.2390 H   0  0  0  0  0  0  0  0  0  0  0  0
   37.8850   24.3170   37.9220 C   0  0  0  0  0  0  0  0  0  0  0  0
   37.1310   24.7130   38.5570 H   0  0  0  0  0  0  0  0  0  0  0  0
   38.7490   23.4510   38.6010 C   0  0  0  0  0  3  0  0  0  0  0  0
   39.7760   22.8650   37.8930 C   0  0  0  0  0  3  0  0  0  0  0  0
   40.7130   22.0460   34.4110 H   0  0  0  0  0  0  0  0  0  0  0  0
   41.2140   22.3780   35.6430 S   0  0  0  0  0  0  0  0  0  0  0  0
   41.7730   21.2250   36.3870 O   0  0  0  0  0  0  0  0  0  0  0  0
   42.3410   23.3730   35.4750 O   0  0  0  0  0  0  0  0  0  0  0  0
  1  6  2  0  0  0  0
  1  2  1  0  0  0  0
  2  3  2  0  0  0  0
  3  4  1  0  0  0  0
  3 10  1  0  0  0  0
  5 23  1  0  0  0  0
  5  4  2  0  0  0  0
  6  5  1  0  0  0  0
  7  1  1  0  0  0  0
  8  2  1  0  0  0  0
  9 17  1  0  0  0  0
 10  9  2  0  0  0  0
 10 11  1  0  0  0  0
 11 12  2  0  0  0  0
 12 16  1  0  0  0  0
 12 13  1  0  0  0  0
 13 20  1  0  0  0  0
 13 14  1  0  0  0  0
 14 21  1  0  0  0  0
 15 14  2  0  0  0  0
 16 15  1  0  0  0  0
 17 22  1  0  0  0  0
 17 16  2  0  0  0  0
 18  9  1  0  0  0  0
 19 11  1  0  0  0  0
 23 25  1  0  0  0  0
 24 23  2  0  0  0  0
 25 27  1  0  0  0  0
 25 28  1  1  0  0  0
 26 30  1  0  0  0  0
 26 25  1  0  0  0  0
 26 27  1  0  0  0  0
 27 31  1  6  0  0  0
 27 33  1  0  0  0  0
 29 26  1  0  0  0  0
 32 39  1  0  0  0  0
 33 32  2  0  0  0  0
 33 34  1  0  0  0  0
 34 36  2  0  0  0  0
 35 34  1  0  0  0  0
 36 37  1  0  0  0  0
 36 38  1  0  0  0  0
 39 38  2  0  0  0  0
 40 41  1  0  0  0  0
 41 42  2  0  0  0  0
 41 32  1  0  0  0  0
 43 41  2  0  0  0  0
M  END
>  <minimizedAffinity>
-6.61083317

$$$$

 OpenBabel03262523343D

 43 47  0  0  1  0  0  0  0  0999 V2000
   36.8850   28.7270   31.2900 C   0  0  0  0  0  0  0  0  0  0  0  0
   36.1480   29.5310   32.1360 C   0  0  0  0  0  0  0  0  0  0  0  0
   35.9290   29.1160   33.4480 C   0  0  0  0  0  0  0  0  0  0  0  0
   36.4580   27.9140   33.8510 N   0  0  0  0  0  0  0  0  0  0  0  0
   37.1720   27.1620   32.9890 C   0  0  0  0  0  0  0  0  0  0  0  0
   37.3900   27.5450   31.7360 N   0  0  0  0  0  0  0  0  0  0  0  0
   37.0730   29.0230   30.2600 H   0  0  0  0  0  0  0  0  0  0  0  0
   35.7400   30.4730   31.7990 H   0  0  0  0  0  0  0  0  0  0  0  0
   33.7990   29.5790   34.5070 C   0  0  0  0  0  0  0  0  0  0  0  0
   35.1690   29.8850   34.4080 C   0  0  0  0  0  0  0  0  0  0  0  0
   35.6940   30.8680   35.2020 C   0  0  0  0  0  0  0  0  0  0  0  0
   34.8830   31.5410   36.0800 C   0  0  0  0  0  0  0  0  0  0  0  0
   35.1860   32.5340   36.9420 N   0  0  0  0  0  0  0  0  0  0  0  0
   34.0640   32.8680   37.5800 C   0  0  0  0  0  0  0  0  0  0  0  0
   33.0490   32.1160   37.1510 N   0  0  0  0  0  0  0  0  0  0  0  0
   33.5290   31.2730   36.2100 C   0  0  0  0  0  0  0  0  0  0  0  0
   32.9980   30.2850   35.4130 C   0  0  0  0  0  0  0  0  0  0  0  0
   33.2630   28.8270   33.9380 H   0  0  0  0  0  0  0  0  0  0  0  0
   36.7390   31.1080   35.1350 H   0  0  0  0  0  0  0  0  0  0  0  0
   36.1240   32.9750   37.0950 H   0  0  0  0  0  0  0  0  0  0  0  0
   33.9940   33.6410   38.3370 H   0  0  0  0  0  0  0  0  0  0  0  0
   31.9490   30.0990   35.5350 H   0  0  0  0  0  0  0  0  0  0  0  0
   37.7150   25.8960   33.4760 C   0  0  0  0  0  0  0  0  0  0  0  0
   37.2690   24.7820   33.1080 O   0  0  0  0  0  0  0  0  0  0  0  0
   38.8660   25.9400   34.4700 C   0  0  1  0  0  0  0  0  0  0  0  0
   38.4660   25.6260   35.9190 C   0  0  0  0  0  0  0  0  0  0  0  0
   39.2890   24.6840   35.0990 C   0  0  2  0  0  0  0  0  0  0  0  0
   39.4510   26.8800   34.4610 H   0  0  0  0  0  0  0  0  0  0  0  0
   37.4020   25.3760   36.0690 H   0  0  0  0  0  0  0  0  0  0  0  0
   38.9930   26.0970   36.7510 H   0  0  0  0  0  0  0  0  0  0  0  0
   38.7290   23.7720   34.7280 H   0  0  0  0  0  0  0  0  0  0  0  0
   41.4200   23.5350   36.1190 C   0  0  0  0  0  0  0  0  0  0  0  0
   40.6900   24.4500   35.4100 C   0  0  0  0  0  0  0  0  0  0  0  0
   41.4430   25.4320   34.7790 C   0  0  0  0  0  0  0  0  0  0  0  0
   41.1280   26.2670   34.1630 H   0  0  0  0  0  0  0  0  0  0  0  0
   42.8430   25.4950   34.8520 C   0  0  0  0  0  0  0  0  0  0  0  0
   43.5010   26.2000   34.4090 H   0  0  0  0  0  0  0  0  0  0  0  0
   43.5260   24.5250   35.5940 C   0  0  0  0  0  3  0  0  0  0  0  0
   42.7910   23.5460   36.2250 C   0  0  0  0  0  3  0  0  0  0  0  0
   39.6920   21.6940   36.0030 H   0  0  0  0  0  0  0  0  0  0  0  0
   40.4770   22.3170   36.9370 S   0  0  0  0  0  0  0  0  0  0  0  0
   39.7090   22.9150   38.0550 O   0  0  0  0  0  0  0  0  0  0  0  0
   41.4230   21.3090   37.5530 O   0  0  0  0  0  0  0  0  0  0  0  0
  1  6  2  0  0  0  0
  1  2  1  0  0  0  0
  2  3  2  0  0  0  0
  3  4  1  0  0  0  0
  3 10  1  0  0  0  0
  5 23  1  0  0  0  0
  5  4  2  0  0  0  0
  6  5  1  0  0  0  0
  7  1  1  0  0  0  0
  8  2  1  0  0  0  0
  9 17  1  0  0  0  0
 10  9  2  0  0  0  0
 10 11  1  0  0  0  0
 11 12  2  0  0  0  0
 12 16  1  0  0  0  0
 12 13  1  0  0  0  0
 13 20  1  0  0  0  0
 13 14  1  0  0  0  0
 14 21  1  0  0  0  0
 15 14  2  0  0  0  0
 16 15  1  0  0  0  0
 17 22  1  0  0  0  0
 17 16  2  0  0  0  0
 18  9  1  0  0  0  0
 19 11  1  0  0  0  0
 23 25  1  0  0  0  0
 24 23  2  0  0  0  0
 25 28  1  6  0  0  0
 25 27  1  0  0  0  0
 25 26  1  0  0  0  0
 26 29  1  0  0  0  0
 26 30  1  0  0  0  0
 27 31  1  6  0  0  0
 27 33  1  0  0  0  0
 27 26  1  0  0  0  0
 32 39  1  0  0  0  0
 32 41  1  0  0  0  0
 33 32  2  0  0  0  0
 34 36  2  0  0  0  0
 34 33  1  0  0  0  0
 35 34  1  0  0  0  0
 36 38  1  0  0  0  0
 37 36  1  0  0  0  0
 38 39  2  0  0  0  0
 40 41  1  0  0  0  0
 41 43  2  0  0  0  0
 41 42  2  0  0  0  0
M  END
>  <minimizedAffinity>
-6.53196144

$$$$

 OpenBabel03262523343D

 43 47  0  0  1  0  0  0  0  0999 V2000
   35.0010   25.8170   30.8460 C   0  0  0  0  0  0  0  0  0  0  0  0
   35.2940   24.4690   30.8310 C   0  0  0  0  0  0  0  0  0  0  0  0
   36.2880   23.9800   31.6760 C   0  0  0  0  0  0  0  0  0  0  0  0
   36.9430   24.8660   32.4980 N   0  0  0  0  0  0  0  0  0  0  0  0
   36.6220   26.1750   32.4780 C   0  0  0  0  0  0  0  0  0  0  0  0
   35.6760   26.6560   31.6780 N   0  0  0  0  0  0  0  0  0  0  0  0
   34.2300   26.2300   30.1980 H   0  0  0  0  0  0  0  0  0  0  0  0
   34.7680   23.7880   30.1780 H   0  0  0  0  0  0  0  0  0  0  0  0
   37.8450   22.2900   32.4470 C   0  0  0  0  0  0  0  0  0  0  0  0
   36.6690   22.5860   31.7320 C   0  0  0  0  0  0  0  0  0  0  0  0
   35.9710   21.5680   31.1430 C   0  0  0  0  0  0  0  0  0  0  0  0
   36.4230   20.2780   31.2530 C   0  0  0  0  0  0  0  0  0  0  0  0
   35.9000   19.1380   30.7560 N   0  0  0  0  0  0  0  0  0  0  0  0
   36.6980   18.1350   31.1260 C   0  0  0  0  0  0  0  0  0  0  0  0
   37.7180   18.6010   31.8480 N   0  0  0  0  0  0  0  0  0  0  0  0
   37.5760   19.9410   31.9480 C   0  0  0  0  0  0  0  0  0  0  0  0
   38.2800   20.9630   32.5410 C   0  0  0  0  0  0  0  0  0  0  0  0
   38.4870   23.0010   32.9570 H   0  0  0  0  0  0  0  0  0  0  0  0
   35.0710   21.7830   30.5960 H   0  0  0  0  0  0  0  0  0  0  0  0
   35.0300   19.0390   30.1820 H   0  0  0  0  0  0  0  0  0  0  0  0
   36.5340   17.0940   30.8720 H   0  0  0  0  0  0  0  0  0  0  0  0
   39.1660   20.6740   33.0700 H   0  0  0  0  0  0  0  0  0  0  0  0
   37.3480   27.0690   33.3770 C   0  0  0  0  0  0  0  0  0  0  0  0
   37.0700   28.2870   33.4900 O   0  0  0  0  0  0  0  0  0  0  0  0
   38.4870   26.4900   34.2040 C   0  0  1  0  0  0  0  0  0  0  0  0
   38.6500   27.1260   35.5920 C   0  0  0  0  0  0  0  0  0  0  0  0
   38.1490   25.7280   35.4120 C   0  0  2  0  0  0  0  0  0  0  0  0
   39.4720   26.4850   33.6990 H   0  0  0  0  0  0  0  0  0  0  0  0
   37.9110   27.9050   35.8420 H   0  0  0  0  0  0  0  0  0  0  0  0
   39.6400   27.2080   36.0470 H   0  0  0  0  0  0  0  0  0  0  0  0
   37.0370   25.6030   35.5820 H   0  0  0  0  0  0  0  0  0  0  0  0
   38.9590   23.6700   36.8290 C   0  0  0  0  0  0  0  0  0  0  0  0
   38.9560   24.5880   35.8150 C   0  0  0  0  0  0  0  0  0  0  0  0
   39.9640   24.4180   34.8740 C   0  0  0  0  0  0  0  0  0  0  0  0
   40.1940   24.9920   33.9830 H   0  0  0  0  0  0  0  0  0  0  0  0
   40.9170   23.3910   34.9440 C   0  0  0  0  0  0  0  0  0  0  0  0
   41.7190   23.1800   34.2790 H   0  0  0  0  0  0  0  0  0  0  0  0
   40.8600   22.4850   36.0090 C   0  0  0  0  0  3  0  0  0  0  0  0
   39.8650   22.6430   36.9480 C   0  0  0  0  0  3  0  0  0  0  0  0
   36.5410   24.1710   37.3720 H   0  0  0  0  0  0  0  0  0  0  0  0
   37.7130   23.8960   38.0280 S   0  0  0  0  0  0  0  0  0  0  0  0
   38.1080   24.9420   39.0000 O   0  0  0  0  0  0  0  0  0  0  0  0
   37.5600   22.6110   38.8130 O   0  0  0  0  0  0  0  0  0  0  0  0
  1  6  1  0  0  0  0
  2  1  2  0  0  0  0
  2  3  1  0  0  0  0
  3 10  1  0  0  0  0
  3  4  2  0  0  0  0
  5  4  1  0  0  0  0
  5 23  1  0  0  0  0
  6  5  2  0  0  0  0
  7  1  1  0  0  0  0
  8  2  1  0  0  0  0
  9 17  1  0  0  0  0
  9 18  1  0  0  0  0
 10  9  2  0  0  0  0
 11 12  2  0  0  0  0
 11 10  1  0  0  0  0
 12 16  1  0  0  0  0
 13 14  1  0  0  0  0
 13 12  1  0  0  0  0
 14 15  2  0  0  0  0
 15 16  1  0  0  0  0
 16 17  2  0  0  0  0
 17 22  1  0  0  0  0
 19 11  1  0  0  0  0
 20 13  1  0  0  0  0
 21 14  1  0  0  0  0
 23 24  2  0  0  0  0
 23 25  1  0  0  0  0
 25 28  1  6  0  0  0
 25 27  1  0  0  0  0
 25 26  1  0  0  0  0
 26 29  1  0  0  0  0
 26 30  1  0  0  0  0
 27 31  1  1  0  0  0
 27 26  1  0  0  0  0
 27 33  1  0  0  0  0
 32 39  1  0  0  0  0
 32 41  1  0  0  0  0
 33 32  2  0  0  0  0
 34 36  2  0  0  0  0
 34 33  1  0  0  0  0
 35 34  1  0  0  0  0
 36 38  1  0  0  0  0
 37 36  1  0  0  0  0
 38 39  2  0  0  0  0
 40 41  1  0  0  0  0
 41 43  2  0  0  0  0
 41 42  2  0  0  0  0
M  END
>  <minimizedAffinity>
-6.52566433

$$$$

 OpenBabel03262523343D

 43 47  0  0  1  0  0  0  0  0999 V2000
   36.7210   28.7910   31.2350 C   0  0  0  0  0  0  0  0  0  0  0  0
   36.0520   29.6100   32.1220 C   0  0  0  0  0  0  0  0  0  0  0  0
   35.9110   29.2050   33.4470 C   0  0  0  0  0  0  0  0  0  0  0  0
   36.4480   27.9970   33.8230 N   0  0  0  0  0  0  0  0  0  0  0  0
   37.0940   27.2310   32.9220 C   0  0  0  0  0  0  0  0  0  0  0  0
   37.2360   27.6030   31.6540 N   0  0  0  0  0  0  0  0  0  0  0  0
   36.8480   29.0790   30.1930 H   0  0  0  0  0  0  0  0  0  0  0  0
   35.6380   30.5560   31.8060 H   0  0  0  0  0  0  0  0  0  0  0  0
   36.0350   30.8140   35.2560 C   0  0  0  0  0  0  0  0  0  0  0  0
   35.2270   29.9900   34.4500 C   0  0  0  0  0  0  0  0  0  0  0  0
   33.8740   29.9750   34.6540 C   0  0  0  0  0  0  0  0  0  0  0  0
   33.3240   30.7570   35.6380 C   0  0  0  0  0  0  0  0  0  0  0  0
   32.0330   30.8910   36.0090 N   0  0  0  0  0  0  0  0  0  0  0  0
   31.9940   31.7650   37.0160 C   0  0  0  0  0  0  0  0  0  0  0  0
   33.2240   32.1960   37.3000 N   0  0  0  0  0  0  0  0  0  0  0  0
   34.0820   31.5830   36.4540 C   0  0  0  0  0  0  0  0  0  0  0  0
   35.4420   31.6000   36.2510 C   0  0  0  0  0  0  0  0  0  0  0  0
   37.1130   30.9170   35.1960 H   0  0  0  0  0  0  0  0  0  0  0  0
   33.2480   29.3500   34.0440 H   0  0  0  0  0  0  0  0  0  0  0  0
   31.2020   30.4060   35.5950 H   0  0  0  0  0  0  0  0  0  0  0  0
   31.0880   32.0750   37.5240 H   0  0  0  0  0  0  0  0  0  0  0  0
   36.0030   32.2470   36.8960 H   0  0  0  0  0  0  0  0  0  0  0  0
   37.6480   25.9580   33.3800 C   0  0  0  0  0  0  0  0  0  0  0  0
   37.2160   24.8500   32.9820 O   0  0  0  0  0  0  0  0  0  0  0  0
   38.7930   25.9910   34.3820 C   0  0  1  0  0  0  0  0  0  0  0  0
   38.3730   25.7230   35.8340 C   0  0  0  0  0  0  0  0  0  0  0  0
   39.1720   24.7370   35.0430 C   0  0  2  0  0  0  0  0  0  0  0  0
   39.4070   26.9120   34.3560 H   0  0  0  0  0  0  0  0  0  0  0  0
   37.3010   25.5090   35.9810 H   0  0  0  0  0  0  0  0  0  0  0  0
   38.9090   26.1970   36.6590 H   0  0  0  0  0  0  0  0  0  0  0  0
   38.5870   23.8340   34.6890 H   0  0  0  0  0  0  0  0  0  0  0  0
   41.2620   23.5290   36.0790 C   0  0  0  0  0  0  0  0  0  0  0  0
   40.5630   24.4680   35.3710 C   0  0  0  0  0  0  0  0  0  0  0  0
   41.3470   25.4390   34.7610 C   0  0  0  0  0  0  0  0  0  0  0  0
   41.0600   26.2880   34.1500 H   0  0  0  0  0  0  0  0  0  0  0  0
   42.7470   25.4690   34.8540 C   0  0  0  0  0  0  0  0  0  0  0  0
   43.4270   26.1640   34.4280 H   0  0  0  0  0  0  0  0  0  0  0  0
   43.3970   24.4760   35.5940 C   0  0  0  0  0  3  0  0  0  0  0  0
   42.6310   23.5070   36.2040 C   0  0  0  0  0  3  0  0  0  0  0  0
   41.1080   21.3170   37.2930 H   0  0  0  0  0  0  0  0  0  0  0  0
   40.2800   22.3240   36.8710 S   0  0  0  0  0  0  0  0  0  0  0  0
   39.1950   21.8630   35.9740 O   0  0  0  0  0  0  0  0  0  0  0  0
   39.6110   22.9600   38.0700 O   0  0  0  0  0  0  0  0  0  0  0  0
  1  6  2  0  0  0  0
  1  2  1  0  0  0  0
  2  3  2  0  0  0  0
  3  4  1  0  0  0  0
  3 10  1  0  0  0  0
  5 23  1  0  0  0  0
  5  4  2  0  0  0  0
  6  5  1  0  0  0  0
  7  1  1  0  0  0  0
  8  2  1  0  0  0  0
  9 17  1  0  0  0  0
 10 11  1  0  0  0  0
 10  9  2  0  0  0  0
 11 12  2  0  0  0  0
 12 13  1  0  0  0  0
 12 16  1  0  0  0  0
 13 14  1  0  0  0  0
 14 15  2  0  0  0  0
 14 21  1  0  0  0  0
 16 15  1  0  0  0  0
 17 16  2  0  0  0  0
 17 22  1  0  0  0  0
 18  9  1  0  0  0  0
 19 11  1  0  0  0  0
 20 13  1  0  0  0  0
 23 25  1  0  0  0  0
 24 23  2  0  0  0  0
 25 28  1  6  0  0  0
 25 27  1  0  0  0  0
 25 26  1  0  0  0  0
 26 29  1  0  0  0  0
 26 30  1  0  0  0  0
 27 31  1  6  0  0  0
 27 33  1  0  0  0  0
 27 26  1  0  0  0  0
 32 39  1  0  0  0  0
 32 41  1  0  0  0  0
 33 32  2  0  0  0  0
 34 36  2  0  0  0  0
 34 33  1  0  0  0  0
 35 34  1  0  0  0  0
 36 38  1  0  0  0  0
 37 36  1  0  0  0  0
 38 39  2  0  0  0  0
 41 40  1  0  0  0  0
 41 43  2  0  0  0  0
 42 41  2  0  0  0  0
M  END
>  <minimizedAffinity>
-6.46150208

$$$$

 OpenBabel03262523343D

 43 47  0  0  1  0  0  0  0  0999 V2000
   36.4560   29.2040   30.4840 C   0  0  0  0  0  0  0  0  0  0  0  0
   35.8130   29.8880   31.4950 C   0  0  0  0  0  0  0  0  0  0  0  0
   35.7210   29.3060   32.7570 C   0  0  0  0  0  0  0  0  0  0  0  0
   36.2790   28.0640   32.9480 N   0  0  0  0  0  0  0  0  0  0  0  0
   36.8980   27.4340   31.9300 C   0  0  0  0  0  0  0  0  0  0  0  0
   36.9940   27.9770   30.7210 N   0  0  0  0  0  0  0  0  0  0  0  0
   36.5440   29.6310   29.4870 H   0  0  0  0  0  0  0  0  0  0  0  0
   35.3810   30.8630   31.3240 H   0  0  0  0  0  0  0  0  0  0  0  0
   33.7130   29.6080   34.0800 C   0  0  0  0  0  0  0  0  0  0  0  0
   35.0650   29.9400   33.8790 C   0  0  0  0  0  0  0  0  0  0  0  0
   35.6700   30.8240   34.7310 C   0  0  0  0  0  0  0  0  0  0  0  0
   34.9550   31.3740   35.7640 C   0  0  0  0  0  0  0  0  0  0  0  0
   35.3470   32.2560   36.7080 N   0  0  0  0  0  0  0  0  0  0  0  0
   34.2970   32.4940   37.4950 C   0  0  0  0  0  0  0  0  0  0  0  0
   33.2420   31.7880   37.0830 N   0  0  0  0  0  0  0  0  0  0  0  0
   33.6210   31.0740   35.9990 C   0  0  0  0  0  0  0  0  0  0  0  0
   33.0110   30.1860   35.1450 C   0  0  0  0  0  0  0  0  0  0  0  0
   33.1200   28.9250   33.4800 H   0  0  0  0  0  0  0  0  0  0  0  0
   36.7030   31.0840   34.5870 H   0  0  0  0  0  0  0  0  0  0  0  0
   36.2950   32.6860   36.8170 H   0  0  0  0  0  0  0  0  0  0  0  0
   34.3060   33.1660   38.3450 H   0  0  0  0  0  0  0  0  0  0  0  0
   31.9800   29.9730   35.3500 H   0  0  0  0  0  0  0  0  0  0  0  0
   37.4770   26.1180   32.1940 C   0  0  0  0  0  0  0  0  0  0  0  0
   38.6820   25.9590   32.5020 O   0  0  0  0  0  0  0  0  0  0  0  0
   36.5720   24.8990   32.0870 C   0  0  1  0  0  0  0  0  0  0  0  0
   36.5320   24.2600   30.6910 C   0  0  0  0  0  0  0  0  0  0  0  0
   37.1950   23.5920   31.8540 C   0  0  2  0  0  0  0  0  0  0  0  0
   35.5320   25.0610   32.4310 H   0  0  0  0  0  0  0  0  0  0  0  0
   37.1820   24.7360   29.9380 H   0  0  0  0  0  0  0  0  0  0  0  0
   35.6210   23.7730   30.3340 H   0  0  0  0  0  0  0  0  0  0  0  0
   38.3260   23.6180   31.8270 H   0  0  0  0  0  0  0  0  0  0  0  0
   36.7490   21.7000   33.6210 C   0  0  0  0  0  0  0  0  0  0  0  0
   36.6300   22.3900   32.4460 C   0  0  0  0  0  0  0  0  0  0  0  0
   35.7210   21.8500   31.5450 C   0  0  0  0  0  0  0  0  0  0  0  0
   35.4340   22.1860   30.5540 H   0  0  0  0  0  0  0  0  0  0  0  0
   34.9740   20.6910   31.8050 C   0  0  0  0  0  0  0  0  0  0  0  0
   34.2610   20.2060   31.1850 H   0  0  0  0  0  0  0  0  0  0  0  0
   35.1440   20.0370   33.0300 C   0  0  0  0  0  3  0  0  0  0  0  0
   36.0440   20.5620   33.9320 C   0  0  0  0  0  3  0  0  0  0  0  0
   37.8270   23.7240   34.6860 H   0  0  0  0  0  0  0  0  0  0  0  0
   37.9110   22.3570   34.7440 S   0  0  0  0  0  0  0  0  0  0  0  0
   39.2670   21.8330   34.4580 O   0  0  0  0  0  0  0  0  0  0  0  0
   37.5510   21.8910   36.1380 O   0  0  0  0  0  0  0  0  0  0  0  0
  1  6  2  0  0  0  0
  1  2  1  0  0  0  0
  2  3  2  0  0  0  0
  3  4  1  0  0  0  0
  3 10  1  0  0  0  0
  5 23  1  0  0  0  0
  5  4  2  0  0  0  0
  6  5  1  0  0  0  0
  7  1  1  0  0  0  0
  8  2  1  0  0  0  0
  9 17  1  0  0  0  0
 10  9  2  0  0  0  0
 10 11  1  0  0  0  0
 11 12  2  0  0  0  0
 12 16  1  0  0  0  0
 12 13  1  0  0  0  0
 13 20  1  0  0  0  0
 13 14  1  0  0  0  0
 14 21  1  0  0  0  0
 15 14  2  0  0  0  0
 16 15  1  0  0  0  0
 17 22  1  0  0  0  0
 17 16  2  0  0  0  0
 18  9  1  0  0  0  0
 19 11  1  0  0  0  0
 23 24  2  0  0  0  0
 25 23  1  0  0  0  0
 25 28  1  1  0  0  0
 26 27  1  0  0  0  0
 26 25  1  0  0  0  0
 27 31  1  6  0  0  0
 27 25  1  0  0  0  0
 27 33  1  0  0  0  0
 29 26  1  0  0  0  0
 30 26  1  0  0  0  0
 32 39  1  0  0  0  0
 32 41  1  0  0  0  0
 33 32  2  0  0  0  0
 34 36  2  0  0  0  0
 34 33  1  0  0  0  0
 35 34  1  0  0  0  0
 36 38  1  0  0  0  0
 37 36  1  0  0  0  0
 38 39  2  0  0  0  0
 40 41  1  0  0  0  0
 41 43  2  0  0  0  0
 42 41  2  0  0  0  0
M  END
>  <minimizedAffinity>
-6.40548229

$$$$

 OpenBabel03262523343D

 43 47  0  0  1  0  0  0  0  0999 V2000
   37.0070   28.9270   30.4690 C   0  0  0  0  0  0  0  0  0  0  0  0
   36.5060   29.6640   31.5220 C   0  0  0  0  0  0  0  0  0  0  0  0
   35.6310   29.0590   32.4210 C   0  0  0  0  0  0  0  0  0  0  0  0
   35.2980   27.7400   32.2220 N   0  0  0  0  0  0  0  0  0  0  0  0
   35.8120   27.0590   31.1780 C   0  0  0  0  0  0  0  0  0  0  0  0
   36.6480   27.6240   30.3130 N   0  0  0  0  0  0  0  0  0  0  0  0
   37.6920   29.3710   29.7490 H   0  0  0  0  0  0  0  0  0  0  0  0
   36.7810   30.7000   31.6610 H   0  0  0  0  0  0  0  0  0  0  0  0
   33.6640   29.5990   33.7290 C   0  0  0  0  0  0  0  0  0  0  0  0
   35.0530   29.7460   33.5530 C   0  0  0  0  0  0  0  0  0  0  0  0
   35.7600   30.5130   34.4370 C   0  0  0  0  0  0  0  0  0  0  0  0
   35.1120   31.1280   35.4780 C   0  0  0  0  0  0  0  0  0  0  0  0
   35.6070   31.9210   36.4520 N   0  0  0  0  0  0  0  0  0  0  0  0
   34.5880   32.2810   37.2330 C   0  0  0  0  0  0  0  0  0  0  0  0
   33.4520   31.7390   36.7880 N   0  0  0  0  0  0  0  0  0  0  0  0
   33.7460   31.0100   35.6890 C   0  0  0  0  0  0  0  0  0  0  0  0
   33.0320   30.2390   34.8010 C   0  0  0  0  0  0  0  0  0  0  0  0
   32.9920   29.0220   33.1020 H   0  0  0  0  0  0  0  0  0  0  0  0
   36.8210   30.6320   34.3130 H   0  0  0  0  0  0  0  0  0  0  0  0
   36.6040   32.2130   36.5850 H   0  0  0  0  0  0  0  0  0  0  0  0
   34.6770   32.9220   38.1030 H   0  0  0  0  0  0  0  0  0  0  0  0
   31.9790   30.1650   34.9880 H   0  0  0  0  0  0  0  0  0  0  0  0
   35.4250   25.6590   31.0200 C   0  0  0  0  0  0  0  0  0  0  0  0
   34.5080   25.2930   30.2460 O   0  0  0  0  0  0  0  0  0  0  0  0
   36.1710   24.6100   31.8330 C   0  0  1  0  0  0  0  0  0  0  0  0
   37.3760   23.9890   31.1130 C   0  0  0  0  0  0  0  0  0  0  0  0
   37.5350   24.9160   32.2760 C   0  0  2  0  0  0  0  0  0  0  0  0
   35.5370   23.7930   32.2290 H   0  0  0  0  0  0  0  0  0  0  0  0
   37.5820   24.3920   30.1070 H   0  0  0  0  0  0  0  0  0  0  0  0
   37.6590   22.9510   31.3050 H   0  0  0  0  0  0  0  0  0  0  0  0
   37.8860   25.9570   32.0010 H   0  0  0  0  0  0  0  0  0  0  0  0
   38.3660   24.9670   34.7670 C   0  0  0  0  0  0  0  0  0  0  0  0
   38.0210   24.4300   33.5570 C   0  0  0  0  0  0  0  0  0  0  0  0
   38.1250   23.0470   33.4840 C   0  0  0  0  0  0  0  0  0  0  0  0
   37.9200   22.3720   32.6590 H   0  0  0  0  0  0  0  0  0  0  0  0
   38.5480   22.2480   34.5580 C   0  0  0  0  0  0  0  0  0  0  0  0
   38.6580   21.1930   34.5990 H   0  0  0  0  0  0  0  0  0  0  0  0
   38.8830   22.8650   35.7680 C   0  0  0  0  0  3  0  0  0  0  0  0
   38.7850   24.2360   35.8530 C   0  0  0  0  0  3  0  0  0  0  0  0
   38.6900   27.2140   33.6550 H   0  0  0  0  0  0  0  0  0  0  0  0
   38.2650   26.7060   34.8550 S   0  0  0  0  0  0  0  0  0  0  0  0
   39.0290   27.2160   36.0180 O   0  0  0  0  0  0  0  0  0  0  0  0
   36.8200   27.0950   35.0820 O   0  0  0  0  0  0  0  0  0  0  0  0
  1  2  1  0  0  0  0
  2  8  1  0  0  0  0
  2  3  2  0  0  0  0
  3 10  1  0  0  0  0
  4  3  1  0  0  0  0
  5  4  2  0  0  0  0
  6  1  2  0  0  0  0
  6  5  1  0  0  0  0
  7  1  1  0  0  0  0
  9 17  1  0  0  0  0
 10  9  2  0  0  0  0
 10 11  1  0  0  0  0
 11 12  2  0  0  0  0
 12 16  1  0  0  0  0
 12 13  1  0  0  0  0
 13 20  1  0  0  0  0
 13 14  1  0  0  0  0
 14 21  1  0  0  0  0
 15 14  2  0  0  0  0
 16 15  1  0  0  0  0
 17 22  1  0  0  0  0
 17 16  2  0  0  0  0
 18  9  1  0  0  0  0
 19 11  1  0  0  0  0
 23  5  1  0  0  0  0
 23 25  1  0  0  0  0
 24 23  2  0  0  0  0
 25 28  1  1  0  0  0
 25 27  1  0  0  0  0
 26 30  1  0  0  0  0
 26 25  1  0  0  0  0
 26 27  1  0  0  0  0
 27 31  1  6  0  0  0
 27 33  1  0  0  0  0
 29 26  1  0  0  0  0
 32 41  1  0  0  0  0
 32 39  1  0  0  0  0
 33 32  2  0  0  0  0
 34 33  1  0  0  0  0
 34 36  2  0  0  0  0
 35 34  1  0  0  0  0
 36 37  1  0  0  0  0
 36 38  1  0  0  0  0
 38 39  2  0  0  0  0
 40 41  1  0  0  0  0
 41 43  2  0  0  0  0
 41 42  2  0  0  0  0
M  END
>  <minimizedAffinity>
-6.38020754

$$$$

 OpenBabel03262523343D

 43 47  0  0  1  0  0  0  0  0999 V2000
   36.7840   25.7720   31.1640 C   0  0  0  0  0  0  0  0  0  0  0  0
   37.3240   25.0280   32.1920 C   0  0  0  0  0  0  0  0  0  0  0  0
   37.4630   25.6080   33.4520 C   0  0  0  0  0  0  0  0  0  0  0  0
   37.0520   26.9090   33.6220 N   0  0  0  0  0  0  0  0  0  0  0  0
   36.5290   27.5970   32.5870 C   0  0  0  0  0  0  0  0  0  0  0  0
   36.3910   27.0570   31.3810 N   0  0  0  0  0  0  0  0  0  0  0  0
   36.6630   25.3480   30.1690 H   0  0  0  0  0  0  0  0  0  0  0  0
   37.6410   24.0070   32.0380 H   0  0  0  0  0  0  0  0  0  0  0  0
   39.0150   23.9580   34.3130 C   0  0  0  0  0  0  0  0  0  0  0  0
   38.0190   24.9120   34.5900 C   0  0  0  0  0  0  0  0  0  0  0  0
   37.6380   25.1230   35.8870 C   0  0  0  0  0  0  0  0  0  0  0  0
   38.2270   24.4050   36.8970 C   0  0  0  0  0  0  0  0  0  0  0  0
   38.0050   24.4490   38.2270 N   0  0  0  0  0  0  0  0  0  0  0  0
   38.8200   23.5610   38.8000 C   0  0  0  0  0  0  0  0  0  0  0  0
   39.5600   22.9500   37.8730 N   0  0  0  0  0  0  0  0  0  0  0  0
   39.2130   23.4560   36.6680 C   0  0  0  0  0  0  0  0  0  0  0  0
   39.5980   23.2420   35.3650 C   0  0  0  0  0  0  0  0  0  0  0  0
   39.4050   23.6980   33.3340 H   0  0  0  0  0  0  0  0  0  0  0  0
   36.8780   25.8490   36.1110 H   0  0  0  0  0  0  0  0  0  0  0  0
   37.3220   25.0600   38.7340 H   0  0  0  0  0  0  0  0  0  0  0  0
   38.8680   23.3700   39.8660 H   0  0  0  0  0  0  0  0  0  0  0  0
   40.3610   22.5030   35.2180 H   0  0  0  0  0  0  0  0  0  0  0  0
   36.1060   28.9740   32.8290 C   0  0  0  0  0  0  0  0  0  0  0  0
   36.3690   29.9120   32.0380 O   0  0  0  0  0  0  0  0  0  0  0  0
   35.3150   29.2740   34.0950 C   0  0  1  0  0  0  0  0  0  0  0  0
   36.0070   30.2470   35.0590 C   0  0  0  0  0  0  0  0  0  0  0  0
   34.7890   30.6300   34.2800 C   0  0  2  0  0  0  0  0  0  0  0  0
   34.9960   28.3800   34.6640 H   0  0  0  0  0  0  0  0  0  0  0  0
   36.9780   30.6410   34.7130 H   0  0  0  0  0  0  0  0  0  0  0  0
   35.8570   30.1550   36.1370 H   0  0  0  0  0  0  0  0  0  0  0  0
   34.9890   31.3250   33.4080 H   0  0  0  0  0  0  0  0  0  0  0  0
   32.1870   30.7030   34.6360 C   0  0  0  0  0  0  0  0  0  0  0  0
   33.5130   30.8420   34.9440 C   0  0  0  0  0  0  0  0  0  0  0  0
   33.7670   31.2840   36.2360 C   0  0  0  0  0  0  0  0  0  0  0  0
   34.7100   31.4780   36.7370 H   0  0  0  0  0  0  0  0  0  0  0  0
   32.7550   31.5670   37.1660 C   0  0  0  0  0  0  0  0  0  0  0  0
   32.8480   31.9060   38.1680 H   0  0  0  0  0  0  0  0  0  0  0  0
   31.4190   31.4010   36.7840 C   0  0  0  0  0  3  0  0  0  0  0  0
   31.1550   30.9650   35.5050 C   0  0  0  0  0  3  0  0  0  0  0  0
   32.8130   30.7320   32.1870 H   0  0  0  0  0  0  0  0  0  0  0  0
   31.8630   30.1780   33.0050 S   0  0  0  0  0  0  0  0  0  0  0  0
   30.4740   30.5150   32.6140 O   0  0  0  0  0  0  0  0  0  0  0  0
   31.9730   28.6700   32.9530 O   0  0  0  0  0  0  0  0  0  0  0  0
  1  6  2  0  0  0  0
  1  2  1  0  0  0  0
  2  3  2  0  0  0  0
  3  4  1  0  0  0  0
  3 10  1  0  0  0  0
  5 23  1  0  0  0  0
  5  4  2  0  0  0  0
  6  5  1  0  0  0  0
  7  1  1  0  0  0  0
  8  2  1  0  0  0  0
  9 10  2  0  0  0  0
  9 17  1  0  0  0  0
 10 11  1  0  0  0  0
 11 19  1  0  0  0  0
 11 12  2  0  0  0  0
 12 13  1  0  0  0  0
 13 20  1  0  0  0  0
 13 14  1  0  0  0  0
 14 21  1  0  0  0  0
 15 14  2  0  0  0  0
 16 12  1  0  0  0  0
 16 15  1  0  0  0  0
 17 16  2  0  0  0  0
 18  9  1  0  0  0  0
 22 17  1  0  0  0  0
 23 25  1  0  0  0  0
 24 23  2  0  0  0  0
 25 27  1  0  0  0  0
 25 28  1  1  0  0  0
 25 26  1  0  0  0  0
 26 30  1  0  0  0  0
 27 31  1  6  0  0  0
 27 33  1  0  0  0  0
 27 26  1  0  0  0  0
 29 26  1  0  0  0  0
 32 33  2  0  0  0  0
 32 39  1  0  0  0  0
 33 34  1  0  0  0  0
 34 35  1  0  0  0  0
 34 36  2  0  0  0  0
 36 37  1  0  0  0  0
 38 36  1  0  0  0  0
 39 38  2  0  0  0  0
 40 41  1  0  0  0  0
 41 32  1  0  0  0  0
 42 41  2  0  0  0  0
 43 41  2  0  0  0  0
M  END
>  <minimizedAffinity>
-6.34419107

$$$$
