REMARK  Name = 
REMARK  2 active torsions:
REMARK  status: ('A' for Active; 'I' for Inactive)
REMARK    1  A    between atoms: C_11  and  C_27
REMARK    2  A    between atoms: S_23  and  C_26
REMARK                            x       y       z     vdW  Elec       q    Type
REMARK                         _______ _______ _______ _____ _____    ______ ____
ROOT
ATOM      1  C   UNL     1      37.315  30.178  51.414  0.00  0.00    +0.000 A 
ATOM      2  C   UNL     1      38.018  30.827  50.374  0.00  0.00    +0.000 A 
ATOM      3  C   UNL     1      37.609  30.580  49.070  0.00  0.00    +0.000 A 
ATOM      4  N   UNL     1      36.575  29.742  48.909  0.00  0.00    +0.000 NA
ATOM      5  C   UNL     1      35.900  29.121  49.896  0.00  0.00    +0.000 A 
ATOM      6  N   UNL     1      36.290  29.354  51.162  0.00  0.00    +0.000 NA
ATOM      7  N   UNL     1      38.234  31.170  47.959  0.00  0.00    +0.000 N 
ATOM      8  C   UNL     1      38.897  32.477  47.996  0.00  0.00    +0.000 C 
ATOM      9  C   UNL     1      39.347  32.742  46.587  0.00  0.00    +0.000 C 
ATOM     10  C   UNL     1      38.367  31.924  45.806  0.00  0.00    +0.000 C 
ATOM     11  C   UNL     1      38.361  30.666  46.650  0.00  0.00    +0.000 C 
ATOM     12  H   UNL     1      37.657  30.390  52.419  0.00  0.00    +0.000 HD
ATOM     13  H   UNL     1      38.847  31.494  50.574  0.00  0.00    +0.000 HD
ATOM     14  H   UNL     1      35.081  28.467  49.621  0.00  0.00    +0.000 HD
ATOM     15  H   UNL     1      39.695  32.522  48.741  0.00  0.00    +0.000 HD
ATOM     16  H   UNL     1      38.133  33.241  48.270  0.00  0.00    +0.000 HD
ATOM     17  H   UNL     1      39.205  33.807  46.295  0.00  0.00    +0.000 HD
ATOM     18  H   UNL     1      40.389  32.469  46.380  0.00  0.00    +0.000 HD
ATOM     19  H   UNL     1      37.386  32.392  45.721  0.00  0.00    +0.000 HD
ATOM     20  H   UNL     1      38.772  31.651  44.794  0.00  0.00    +0.000 HD
ATOM     21  H   UNL     1      39.378  30.209  46.569  0.00  0.00    +0.000 HD
ENDROOT
BRANCH  11  23
ATOM     22  C   UNL     1      37.571  28.849  45.120  0.00  0.00    +0.000 A 
ATOM     23  C   UNL     1      37.341  29.715  46.174  0.00  0.00    +0.000 A 
ATOM     24  C   UNL     1      36.068  29.599  46.680  0.00  0.00    +0.000 A 
ATOM     25  H   UNL     1      35.756  30.237  47.505  0.00  0.00    +0.000 HD
ATOM     26  C   UNL     1      35.095  28.744  46.237  0.00  0.00    +0.000 A 
ATOM     27  H   UNL     1      34.104  28.702  46.684  0.00  0.00    +0.000 HD
ATOM     28  C   UNL     1      35.394  27.906  45.179  0.00  0.00    +0.000 A 
ATOM     29  C   UNL     1      36.647  27.969  44.624  0.00  0.00    +0.000 A 
BRANCH  22  31
ATOM     30  H   UNL     1      39.507  30.171  43.997  0.00  0.00    +0.000 HD
ATOM     31  S   UNL     1      39.167  28.878  44.356  0.00  0.00    +0.000 S 
ATOM     32  O   UNL     1      40.133  28.361  45.399  0.00  0.00    +0.000 OA
ATOM     33  O   UNL     1      39.187  28.048  43.129  0.00  0.00    +0.000 OA
ENDBRANCH  22  31
ENDBRANCH  11  23
TORSDOF 2
