
 OpenBabel03272505523D

 47 50  0  0  1  0  0  0  0  0999 V2000
   29.4340   27.3920   42.2940 N   0  0  2  0  0  0  0  0  0  0  0  0
   29.7850   28.1130   41.0610 C   0  0  0  0  0  0  0  0  0  0  0  0
   30.6720   27.1910   40.2630 C   0  0  0  0  0  0  0  0  0  0  0  0
   30.6270   25.9050   40.9760 C   0  0  0  0  0  0  0  0  0  0  0  0
   29.5020   26.0200   41.9780 C   0  0  1  0  0  0  0  0  0  0  0  0
   30.3390   29.0360   41.3610 H   0  0  0  0  0  0  0  0  0  0  0  0
   28.8400   28.3360   40.5270 H   0  0  0  0  0  0  0  0  0  0  0  0
   30.2580   27.1530   39.2120 H   0  0  0  0  0  0  0  0  0  0  0  0
   31.7190   27.5970   40.2580 H   0  0  0  0  0  0  0  0  0  0  0  0
   31.5650   25.5540   41.4150 H   0  0  0  0  0  0  0  0  0  0  0  0
   30.4290   25.1180   40.1810 H   0  0  0  0  0  0  0  0  0  0  0  0
   28.6560   25.7020   41.3430 H   0  0  0  0  0  0  0  0  0  0  0  0
   28.6630   32.4030   43.9750 C   0  0  0  0  0  0  0  0  0  0  0  0
   27.7460   32.8680   43.0230 C   0  0  0  0  0  0  0  0  0  0  0  0
   27.0170   31.9040   42.3170 C   0  0  0  0  0  0  0  0  0  0  0  0
   27.2430   30.5920   42.5990 N   0  0  0  0  0  0  0  0  0  0  0  0
   28.1370   30.2040   43.5240 C   0  0  0  0  0  0  0  0  0  0  0  0
   28.8390   31.1030   44.2060 N   0  0  0  0  0  0  0  0  0  0  0  0
   28.3160   28.8180   43.7630 N   0  0  0  0  0  0  0  0  0  0  0  0
   28.7220   28.3290   45.0620 C   0  0  0  0  0  0  0  0  0  0  0  0
   27.7840   27.2700   45.5430 C   0  0  0  0  0  0  0  0  0  0  0  0
   26.9430   26.7340   44.6070 N   0  0  0  0  0  0  0  0  0  0  0  0
   27.2340   26.7720   43.1930 C   0  0  0  0  0  0  0  0  0  0  0  0
   28.1030   27.8200   42.7310 C   0  0  2  0  0  0  0  0  0  0  0  0
   29.2440   33.1160   44.5410 H   0  0  0  0  0  0  0  0  0  0  0  0
   27.6160   33.9270   42.8500 H   0  0  0  0  0  0  0  0  0  0  0  0
   26.3000   32.2080   41.5740 H   0  0  0  0  0  0  0  0  0  0  0  0
   28.6000   29.1970   45.7810 H   0  0  0  0  0  0  0  0  0  0  0  0
   29.7740   28.0710   45.1320 H   0  0  0  0  0  0  0  0  0  0  0  0
   27.2040   27.5780   46.4380 H   0  0  0  0  0  0  0  0  0  0  0  0
   28.4450   26.4430   45.9450 H   0  0  0  0  0  0  0  0  0  0  0  0
   26.0180   26.3850   44.8600 H   0  0  0  0  0  0  0  0  0  0  0  0
   27.2720   25.7390   42.9380 H   0  0  0  0  0  0  0  0  0  0  0  0
   26.1810   27.0420   42.7980 H   0  0  0  0  0  0  0  0  0  0  0  0
   27.6620   28.3870   41.8560 H   0  0  0  0  0  0  0  0  0  0  0  0
   29.5240   23.7190   42.8790 C   0  0  0  0  0  0  0  0  0  0  0  0
   29.8500   25.0520   43.0260 C   0  0  0  0  0  0  0  0  0  0  0  0
   30.5210   25.3690   44.2050 C   0  0  0  0  0  0  0  0  0  0  0  0
   30.7960   26.4060   44.3640 H   0  0  0  0  0  0  0  0  0  0  0  0
   30.8780   24.4960   45.2060 C   0  0  0  0  0  0  0  0  0  0  0  0
   31.3960   24.8400   46.0810 H   0  0  0  0  0  0  0  0  0  0  0  0
   30.5410   23.1710   45.0340 C   0  0  0  0  0  3  0  0  0  0  0  0
   29.8780   22.8050   43.8880 C   0  0  0  0  0  3  0  0  0  0  0  0
   29.2410   22.7990   40.4230 H   0  0  0  0  0  0  0  0  0  0  0  0
   28.6820   23.0060   41.5930 S   0  0  0  0  0  0  0  0  0  0  0  0
   27.4120   23.8230   41.3300 O   0  0  0  0  0  0  0  0  0  0  0  0
   28.1240   21.6600   42.0620 O   0  0  0  0  0  0  0  0  0  0  0  0
  1  2  1  6  0  0  0
  1 24  1  0  0  0  0
  2  6  1  0  0  0  0
  3  4  1  0  0  0  0
  3  2  1  0  0  0  0
  4 10  1  0  0  0  0
  4  5  1  0  0  0  0
  5 12  1  6  0  0  0
  5  1  1  0  0  0  0
  5 37  1  0  0  0  0
  7  2  1  0  0  0  0
  8  3  1  0  0  0  0
  9  3  1  0  0  0  0
 11  4  1  0  0  0  0
 13 18  1  0  0  0  0
 13 25  1  0  0  0  0
 14 13  2  0  0  0  0
 15 16  2  0  0  0  0
 15 14  1  0  0  0  0
 16 17  1  0  0  0  0
 17 19  1  0  0  0  0
 17 18  2  0  0  0  0
 19 20  1  0  0  0  0
 20 29  1  0  0  0  0
 20 21  1  0  0  0  0
 20 28  1  0  0  0  0
 21 31  1  0  0  0  0
 21 30  1  0  0  0  0
 22 32  1  0  0  0  0
 22 21  1  0  0  0  0
 23 22  1  0  0  0  0
 24 35  1  6  0  0  0
 24 23  1  0  0  0  0
 24 19  1  0  0  0  0
 26 14  1  0  0  0  0
 27 15  1  0  0  0  0
 33 23  1  0  0  0  0
 34 23  1  0  0  0  0
 36 37  2  0  0  0  0
 36 43  1  0  0  0  0
 37 38  1  0  0  0  0
 38 39  1  0  0  0  0
 38 40  2  0  0  0  0
 40 41  1  0  0  0  0
 42 40  1  0  0  0  0
 43 42  2  0  0  0  0
 44 45  1  0  0  0  0
 45 47  2  0  0  0  0
 45 36  1  0  0  0  0
 46 45  2  0  0  0  0
M  END
>  <minimizedAffinity>
-1.6469059

>  <minimizedRMSD>
8.08699322

$$$$
