
 OpenBabel03272502103D

 29 31  0  0  0  0  0  0  0  0999 V2000
   38.4640   31.4270   47.9890 C   0  0  0  0  0  0  0  0  0  0  0  0
   38.9980   32.6820   48.0980 C   0  0  0  0  0  0  0  0  0  0  0  0
   39.6280   33.3760   47.0630 C   0  0  0  0  0  0  0  0  0  0  0  0
   39.7060   32.7420   45.8720 N   0  0  0  0  0  0  0  0  0  0  0  0
   39.1830   31.4920   45.7310 C   0  0  0  0  0  0  0  0  0  0  0  0
   38.5980   30.8980   46.7690 N   0  0  0  0  0  0  0  0  0  0  0  0
   38.9570   33.2310   49.0430 H   0  0  0  0  0  0  0  0  0  0  0  0
   40.0390   34.3560   47.1690 H   0  0  0  0  0  0  0  0  0  0  0  0
   38.1460   30.9500   50.4280 C   0  0  0  0  0  0  0  0  0  0  0  0
   37.8290   30.7470   49.0650 C   0  0  0  0  0  0  0  0  0  0  0  0
   36.8360   29.8220   48.7940 C   0  0  0  0  0  0  0  0  0  0  0  0
   36.2270   29.1660   49.8170 N   0  0  0  0  0  0  0  0  0  0  0  0
   36.5610   29.3920   51.1060 C   0  0  0  0  0  0  0  0  0  0  0  0
   37.5210   30.2830   51.4050 N   0  0  0  0  0  0  0  0  0  0  0  0
   38.9260   31.6760   50.6450 H   0  0  0  0  0  0  0  0  0  0  0  0
   36.4780   29.5550   47.8120 H   0  0  0  0  0  0  0  0  0  0  0  0
   36.0150   28.8170   51.8450 H   0  0  0  0  0  0  0  0  0  0  0  0
   38.2460   30.4990   43.6340 C   0  0  0  0  0  0  0  0  0  0  0  0
   39.3170   30.8810   44.4140 C   0  0  0  0  0  0  0  0  0  0  0  0
   40.5540   30.6390   43.8530 C   0  0  0  0  0  0  0  0  0  0  0  0
   41.4430   30.9260   44.4320 H   0  0  0  0  0  0  0  0  0  0  0  0
   40.7870   30.0670   42.6220 C   0  0  0  0  0  0  0  0  0  0  0  0
   41.7720   29.9000   42.2300 H   0  0  0  0  0  0  0  0  0  0  0  0
   39.7040   29.6960   41.8670 C   0  0  0  0  0  3  0  0  0  0  0  0
   38.4600   29.9150   42.3810 C   0  0  0  0  0  3  0  0  0  0  0  0
   36.5800   31.1760   45.5130 H   0  0  0  0  0  0  0  0  0  0  0  0
   36.6200   30.7510   44.2320 S   0  0  0  0  0  0  0  0  0  0  0  0
   35.8970   29.4180   44.1580 O   0  0  0  0  0  0  0  0  0  0  0  0
   35.8780   31.6580   43.2750 O   0  0  0  0  0  0  0  0  0  0  0  0
  1  2  1  0  0  0  0
  1 10  1  0  0  0  0
  2  7  1  0  0  0  0
  3  8  1  0  0  0  0
  3  2  2  0  0  0  0
  4  3  1  0  0  0  0
  5  4  2  0  0  0  0
  5  6  1  0  0  0  0
  6  1  2  0  0  0  0
  9 15  1  0  0  0  0
  9 14  1  0  0  0  0
 10  9  2  0  0  0  0
 11 10  1  0  0  0  0
 11 12  2  0  0  0  0
 12 13  1  0  0  0  0
 13 14  2  0  0  0  0
 13 17  1  0  0  0  0
 16 11  1  0  0  0  0
 18 27  1  0  0  0  0
 18 19  1  0  0  0  0
 19  5  1  0  0  0  0
 20 19  2  0  0  0  0
 20 21  1  0  0  0  0
 22 20  1  0  0  0  0
 23 22  1  0  0  0  0
 24 25  1  0  0  0  0
 24 22  2  0  0  0  0
 25 18  2  0  0  0  0
 27 26  1  0  0  0  0
 28 27  2  0  0  0  0
 29 27  2  0  0  0  0
M  END
>  <minimizedAffinity>
-5.42994833

>  <minimizedRMSD>
2.58997965

$$$$
