REMARK  Name = 
REMARK  3 active torsions:
REMARK  status: ('A' for Active; 'I' for Inactive)
REMARK    1  A    between atoms: C_2  and  C_7
REMARK    2  A    between atoms: C_11  and  C_23
REMARK    3  A    between atoms: S_19  and  C_22
REMARK                            x       y       z     vdW  Elec       q    Type
REMARK                         _______ _______ _______ _____ _____    ______ ____
ROOT
ATOM      1  C   UNL     1      37.826  31.846  48.960  0.00  0.00    +0.000 A 
ATOM      2  C   UNL     1      38.299  32.965  49.590  0.00  0.00    +0.000 A 
ATOM      3  C   UNL     1      39.204  33.873  49.037  0.00  0.00    +0.000 A 
ATOM      4  N   UNL     1      39.633  33.607  47.783  0.00  0.00    +0.000 NA
ATOM      5  C   UNL     1      39.181  32.502  47.129  0.00  0.00    +0.000 A 
ATOM      6  N   UNL     1      38.317  31.685  47.728  0.00  0.00    +0.000 NA
ATOM      7  H   UNL     1      37.978  33.218  50.605  0.00  0.00    +0.000 HD
ATOM      8  H   UNL     1      39.561  34.741  49.546  0.00  0.00    +0.000 HD
ENDROOT
BRANCH   1  10
ATOM      9  C   UNL     1      37.089  30.337  50.819  0.00  0.00    +0.000 A 
ATOM     10  C   UNL     1      36.904  30.940  49.554  0.00  0.00    +0.000 A 
ATOM     11  C   UNL     1      35.745  30.607  48.876  0.00  0.00    +0.000 A 
ATOM     12  N   UNL     1      34.860  29.740  49.436  0.00  0.00    +0.000 NA
ATOM     13  C   UNL     1      35.077  29.187  50.649  0.00  0.00    +0.000 A 
ATOM     14  N   UNL     1      36.192  29.488  51.335  0.00  0.00    +0.000 NA
ATOM     15  H   UNL     1      37.999  30.596  51.355  0.00  0.00    +0.000 HD
ATOM     16  H   UNL     1      35.456  30.981  47.906  0.00  0.00    +0.000 HD
ATOM     17  H   UNL     1      34.310  28.509  51.005  0.00  0.00    +0.000 HD
ENDBRANCH   1  10
BRANCH   5  19
ATOM     18  C   UNL     1      39.283  33.002  44.679  0.00  0.00    +0.000 A 
ATOM     19  C   UNL     1      39.701  32.290  45.783  0.00  0.00    +0.000 A 
ATOM     20  C   UNL     1      40.666  31.339  45.524  0.00  0.00    +0.000 A 
ATOM     21  H   UNL     1      41.036  30.742  46.370  0.00  0.00    +0.000 HD
ATOM     22  C   UNL     1      41.219  31.060  44.294  0.00  0.00    +0.000 A 
ATOM     23  H   UNL     1      41.969  30.307  44.145  0.00  0.00    +0.000 HD
ATOM     24  C   UNL     1      40.785  31.783  43.212  0.00  0.00    +0.000 A 
ATOM     25  C   UNL     1      39.831  32.735  43.420  0.00  0.00    +0.000 A 
BRANCH  18  27
ATOM     26  H   UNL     1      36.950  33.803  45.505  0.00  0.00    +0.000 HD
ATOM     27  S   UNL     1      38.060  34.240  44.873  0.00  0.00    +0.000 S 
ATOM     28  O   UNL     1      37.657  34.702  43.484  0.00  0.00    +0.000 OA
ATOM     29  O   UNL     1      38.686  35.452  45.528  0.00  0.00    +0.000 OA
ENDBRANCH  18  27
ENDBRANCH   5  19
TORSDOF 3
