
 OpenBabel03272504253D

 42 45  0  0  0  0  0  0  0  0999 V2000
   39.3070   26.3770   33.6410 C   0  0  0  0  0  0  0  0  0  0  0  0
   39.0080   26.3790   32.2770 C   0  0  0  0  0  0  0  0  0  0  0  0
   39.8360   26.9100   31.3350 C   0  0  0  0  0  0  0  0  0  0  0  0
   41.0330   27.4830   31.7250 C   0  0  0  0  0  0  0  0  0  0  0  0
   41.3820   27.5180   33.0560 C   0  0  0  0  0  0  0  0  0  0  0  0
   40.4970   26.9610   33.9540 C   0  0  0  0  0  0  0  0  0  0  0  0
   39.5150   26.8610   30.3040 H   0  0  0  0  0  0  0  0  0  0  0  0
   41.6070   27.8640   30.9070 H   0  0  0  0  0  0  0  0  0  0  0  0
   42.3240   27.9760   33.2600 H   0  0  0  0  0  0  0  0  0  0  0  0
   40.9840   27.1230   34.9420 H   0  0  0  0  0  0  0  0  0  0  0  0
   36.4870   23.8820   31.3890 C   0  0  0  0  0  0  0  0  0  0  0  0
   35.4590   24.6890   31.0990 C   0  0  0  0  0  0  0  0  0  0  0  0
   35.5500   26.0340   31.1890 C   0  0  0  0  0  0  0  0  0  0  0  0
   36.7300   26.5950   31.5880 N   0  0  0  0  0  0  0  0  0  0  0  0
   37.7490   25.7580   31.8720 C   0  0  0  0  0  0  0  0  0  0  0  0
   37.6490   24.4230   31.7810 N   0  0  0  0  0  0  0  0  0  0  0  0
   34.4990   24.2760   30.7760 H   0  0  0  0  0  0  0  0  0  0  0  0
   34.7080   26.6680   30.9500 H   0  0  0  0  0  0  0  0  0  0  0  0
   37.3350   20.3740   30.6510 C   0  0  0  0  0  0  0  0  0  0  0  0
   36.2360   19.6790   31.1710 C   0  0  0  0  0  0  0  0  0  0  0  0
   35.2170   20.4390   31.7720 C   0  0  0  0  0  0  0  0  0  0  0  0
   35.3540   21.7910   31.8150 N   0  0  0  0  0  0  0  0  0  0  0  0
   36.4130   22.4250   31.3090 C   0  0  0  0  0  0  0  0  0  0  0  0
   37.4040   21.7050   30.7280 N   0  0  0  0  0  0  0  0  0  0  0  0
   38.0710   19.7420   30.2100 H   0  0  0  0  0  0  0  0  0  0  0  0
   36.0210   18.6370   31.1960 H   0  0  0  0  0  0  0  0  0  0  0  0
   34.3120   20.0480   32.2150 H   0  0  0  0  0  0  0  0  0  0  0  0
   38.4620   25.7130   34.8980 S   0  0  0  0  0  0  0  0  0  0  0  0
   38.7000   26.5720   36.1840 O   0  0  0  0  0  0  0  0  0  0  0  0
   37.7800   24.5370   34.9950 O   0  0  0  0  0  0  0  0  0  0  0  0
   39.3200   23.6710   36.6790 C   0  0  0  0  0  0  0  0  0  0  0  0
   39.6440   24.4990   35.5480 C   0  0  0  0  0  0  0  0  0  0  0  0
   40.8060   24.2460   35.0310 C   0  0  0  0  0  0  0  0  0  0  0  0
   41.1770   24.8050   34.1850 H   0  0  0  0  0  0  0  0  0  0  0  0
   41.6840   23.2820   35.4860 C   0  0  0  0  0  0  0  0  0  0  0  0
   42.6250   23.1610   34.9740 H   0  0  0  0  0  0  0  0  0  0  0  0
   41.3280   22.5200   36.5620 C   0  0  0  0  0  3  0  0  0  0  0  0
   40.1370   22.6580   37.2260 C   0  0  0  0  0  3  0  0  0  0  0  0
   37.0890   24.7840   36.7480 H   0  0  0  0  0  0  0  0  0  0  0  0
   37.8260   23.8880   37.5510 S   0  0  0  0  0  0  0  0  0  0  0  0
   38.0170   24.6940   38.8110 O   0  0  0  0  0  0  0  0  0  0  0  0
   36.9370   22.7900   37.7780 O   0  0  0  0  0  0  0  0  0  0  0  0
  1  6  1  0  0  0  0
  1 28  1  0  0  0  0
  2  1  2  0  0  0  0
  3  4  2  0  0  0  0
  3  2  1  0  0  0  0
  4  5  1  0  0  0  0
  5  9  1  0  0  0  0
  5  6  2  0  0  0  0
  6 10  1  0  0  0  0
  7  3  1  0  0  0  0
  8  4  1  0  0  0  0
 11 16  1  0  0  0  0
 12 13  1  0  0  0  0
 12 11  2  0  0  0  0
 13 14  2  0  0  0  0
 14 15  1  0  0  0  0
 15  2  1  0  0  0  0
 16 15  2  0  0  0  0
 17 12  1  0  0  0  0
 18 13  1  0  0  0  0
 19 24  2  0  0  0  0
 19 20  1  0  0  0  0
 20 26  1  0  0  0  0
 20 21  2  0  0  0  0
 21 22  1  0  0  0  0
 21 27  1  0  0  0  0
 23 11  1  0  0  0  0
 23 22  2  0  0  0  0
 24 23  1  0  0  0  0
 25 19  1  0  0  0  0
 28 30  2  0  0  0  0
 28 32  1  0  0  0  0
 28 29  2  0  0  0  0
 31 38  1  0  0  0  0
 31 40  1  0  0  0  0
 32 31  2  0  0  0  0
 33 35  2  0  0  0  0
 33 32  1  0  0  0  0
 34 33  1  0  0  0  0
 35 37  1  0  0  0  0
 36 35  1  0  0  0  0
 37 38  2  0  0  0  0
 39 40  1  0  0  0  0
 40 42  2  0  0  0  0
 40 41  2  0  0  0  0
M  END
>  <minimizedAffinity>
-6.53900623

$$$$

 OpenBabel03272504253D

 42 45  0  0  0  0  0  0  0  0999 V2000
   38.4690   26.2520   34.1030 C   0  0  0  0  0  0  0  0  0  0  0  0
   37.5730   26.2440   33.0330 C   0  0  0  0  0  0  0  0  0  0  0  0
   36.5740   27.1580   32.8930 C   0  0  0  0  0  0  0  0  0  0  0  0
   36.4180   28.1490   33.8460 C   0  0  0  0  0  0  0  0  0  0  0  0
   37.2660   28.2060   34.9290 C   0  0  0  0  0  0  0  0  0  0  0  0
   38.2540   27.2490   35.0060 C   0  0  0  0  0  0  0  0  0  0  0  0
   35.9320   27.0690   32.0280 H   0  0  0  0  0  0  0  0  0  0  0  0
   35.6080   28.8140   33.6370 H   0  0  0  0  0  0  0  0  0  0  0  0
   37.0700   29.0050   35.6090 H   0  0  0  0  0  0  0  0  0  0  0  0
   38.7860   27.4910   35.9540 H   0  0  0  0  0  0  0  0  0  0  0  0
   37.3060   23.0920   31.1960 C   0  0  0  0  0  0  0  0  0  0  0  0
   38.1440   23.3470   30.1830 C   0  0  0  0  0  0  0  0  0  0  0  0
   38.7970   24.5240   30.0660 C   0  0  0  0  0  0  0  0  0  0  0  0
   38.6020   25.4900   31.0110 N   0  0  0  0  0  0  0  0  0  0  0  0
   37.7540   25.2050   32.0220 C   0  0  0  0  0  0  0  0  0  0  0  0
   37.1080   24.0340   32.1290 N   0  0  0  0  0  0  0  0  0  0  0  0
   38.3250   22.5970   29.4070 H   0  0  0  0  0  0  0  0  0  0  0  0
   39.4700   24.7090   29.2400 H   0  0  0  0  0  0  0  0  0  0  0  0
   36.3050   19.5690   30.8070 C   0  0  0  0  0  0  0  0  0  0  0  0
   35.1810   19.4780   31.6370 C   0  0  0  0  0  0  0  0  0  0  0  0
   34.7880   20.6410   32.3220 C   0  0  0  0  0  0  0  0  0  0  0  0
   35.5130   21.7780   32.1420 N   0  0  0  0  0  0  0  0  0  0  0  0
   36.5800   21.8330   31.3420 C   0  0  0  0  0  0  0  0  0  0  0  0
   36.9710   20.7190   30.6760 N   0  0  0  0  0  0  0  0  0  0  0  0
   36.5500   18.6550   30.3170 H   0  0  0  0  0  0  0  0  0  0  0  0
   34.5420   18.6550   31.8550 H   0  0  0  0  0  0  0  0  0  0  0  0
   33.9460   20.7270   32.9940 H   0  0  0  0  0  0  0  0  0  0  0  0
   39.7740   25.2760   34.3840 S   0  0  0  0  0  0  0  0  0  0  0  0
   39.5610   23.9120   33.6480 O   0  0  0  0  0  0  0  0  0  0  0  0
   40.8360   25.4240   35.2250 O   0  0  0  0  0  0  0  0  0  0  0  0
   40.1520   23.4650   36.5420 C   0  0  0  0  0  0  0  0  0  0  0  0
   39.3060   24.4570   35.9350 C   0  0  0  0  0  0  0  0  0  0  0  0
   38.2430   24.7300   36.6260 C   0  0  0  0  0  0  0  0  0  0  0  0
   37.5170   25.4490   36.2760 H   0  0  0  0  0  0  0  0  0  0  0  0
   37.9130   24.1530   37.8360 C   0  0  0  0  0  0  0  0  0  0  0  0
   37.0010   24.4610   38.3200 H   0  0  0  0  0  0  0  0  0  0  0  0
   38.7510   23.2180   38.3710 C   0  0  0  0  0  3  0  0  0  0  0  0
   39.9150   22.8130   37.7710 C   0  0  0  0  0  3  0  0  0  0  0  0
   41.6980   23.7370   34.6040 H   0  0  0  0  0  0  0  0  0  0  0  0
   41.6040   22.9150   35.7480 S   0  0  0  0  0  0  0  0  0  0  0  0
   41.4300   21.5510   35.1290 O   0  0  0  0  0  0  0  0  0  0  0  0
   42.8810   23.0290   36.3820 O   0  0  0  0  0  0  0  0  0  0  0  0
  1 28  1  0  0  0  0
  1  6  1  0  0  0  0
  2  1  2  0  0  0  0
  3  2  1  0  0  0  0
  3  4  2  0  0  0  0
  4  5  1  0  0  0  0
  5  6  2  0  0  0  0
  5  9  1  0  0  0  0
  6 10  1  0  0  0  0
  7  3  1  0  0  0  0
  8  4  1  0  0  0  0
 11 23  1  0  0  0  0
 11 16  1  0  0  0  0
 12 11  2  0  0  0  0
 13 12  1  0  0  0  0
 13 14  2  0  0  0  0
 14 15  1  0  0  0  0
 15 16  2  0  0  0  0
 15  2  1  0  0  0  0
 17 12  1  0  0  0  0
 18 13  1  0  0  0  0
 19 20  1  0  0  0  0
 20 26  1  0  0  0  0
 20 21  2  0  0  0  0
 21 27  1  0  0  0  0
 22 21  1  0  0  0  0
 23 22  2  0  0  0  0
 24 19  2  0  0  0  0
 24 23  1  0  0  0  0
 25 19  1  0  0  0  0
 28 30  2  0  0  0  0
 28 32  1  0  0  0  0
 29 28  2  0  0  0  0
 31 38  1  0  0  0  0
 32 31  2  0  0  0  0
 32 33  1  0  0  0  0
 33 35  2  0  0  0  0
 34 33  1  0  0  0  0
 35 36  1  0  0  0  0
 35 37  1  0  0  0  0
 38 37  2  0  0  0  0
 39 40  1  0  0  0  0
 40 42  2  0  0  0  0
 40 31  1  0  0  0  0
 41 40  2  0  0  0  0
M  END
>  <minimizedAffinity>
-6.4276371

$$$$

 OpenBabel03272504253D

 42 45  0  0  0  0  0  0  0  0999 V2000
   38.9530   25.3250   34.4220 C   0  0  0  0  0  0  0  0  0  0  0  0
   38.6920   25.8210   33.1440 C   0  0  0  0  0  0  0  0  0  0  0  0
   39.4910   26.7310   32.5210 C   0  0  0  0  0  0  0  0  0  0  0  0
   40.6200   27.2020   33.1670 C   0  0  0  0  0  0  0  0  0  0  0  0
   40.9280   26.7560   34.4330 C   0  0  0  0  0  0  0  0  0  0  0  0
   40.0750   25.8360   35.0020 C   0  0  0  0  0  0  0  0  0  0  0  0
   39.2040   27.0520   31.5300 H   0  0  0  0  0  0  0  0  0  0  0  0
   41.1760   27.9070   32.5880 H   0  0  0  0  0  0  0  0  0  0  0  0
   41.8180   27.1740   34.8500 H   0  0  0  0  0  0  0  0  0  0  0  0
   40.5190   25.6470   36.0060 H   0  0  0  0  0  0  0  0  0  0  0  0
   36.2410   23.5420   31.6670 C   0  0  0  0  0  0  0  0  0  0  0  0
   35.3640   24.4320   31.1860 C   0  0  0  0  0  0  0  0  0  0  0  0
   35.5350   25.7640   31.3300 C   0  0  0  0  0  0  0  0  0  0  0  0
   36.6390   26.2250   31.9870 N   0  0  0  0  0  0  0  0  0  0  0  0
   37.5070   25.3070   32.4610 C   0  0  0  0  0  0  0  0  0  0  0  0
   37.3290   23.9850   32.3140 N   0  0  0  0  0  0  0  0  0  0  0  0
   34.4680   24.0990   30.6530 H   0  0  0  0  0  0  0  0  0  0  0  0
   34.8140   26.4650   30.9320 H   0  0  0  0  0  0  0  0  0  0  0  0
   36.8080   20.0340   30.6990 C   0  0  0  0  0  0  0  0  0  0  0  0
   35.7290   19.3740   31.2990 C   0  0  0  0  0  0  0  0  0  0  0  0
   34.8210   20.1560   32.0340 C   0  0  0  0  0  0  0  0  0  0  0  0
   35.0380   21.4960   32.1190 N   0  0  0  0  0  0  0  0  0  0  0  0
   36.0760   22.0960   31.5340 C   0  0  0  0  0  0  0  0  0  0  0  0
   36.9600   21.3540   30.8240 N   0  0  0  0  0  0  0  0  0  0  0  0
   37.4580   19.3860   30.1580 H   0  0  0  0  0  0  0  0  0  0  0  0
   35.4590   18.3440   31.3030 H   0  0  0  0  0  0  0  0  0  0  0  0
   33.9450   19.7920   32.5510 H   0  0  0  0  0  0  0  0  0  0  0  0
   38.1400   24.1720   35.2860 S   0  0  0  0  0  0  0  0  0  0  0  0
   37.8870   24.7040   36.7350 O   0  0  0  0  0  0  0  0  0  0  0  0
   37.8350   22.8790   34.9830 O   0  0  0  0  0  0  0  0  0  0  0  0
   40.4060   22.4700   35.0710 C   0  0  0  0  0  0  0  0  0  0  0  0
   39.5000   23.1670   35.9440 C   0  0  0  0  0  0  0  0  0  0  0  0
   39.7900   23.0460   37.2020 C   0  0  0  0  0  0  0  0  0  0  0  0
   39.1820   23.5090   37.9650 H   0  0  0  0  0  0  0  0  0  0  0  0
   40.8590   22.3300   37.7050 C   0  0  0  0  0  0  0  0  0  0  0  0
   41.0020   22.3020   38.7730 H   0  0  0  0  0  0  0  0  0  0  0  0
   41.6920   21.6900   36.8340 C   0  0  0  0  0  3  0  0  0  0  0  0
   41.5280   21.7130   35.4730 C   0  0  0  0  0  3  0  0  0  0  0  0
   38.9160   23.1040   33.1750 H   0  0  0  0  0  0  0  0  0  0  0  0
   40.1610   22.4610   33.3450 S   0  0  0  0  0  0  0  0  0  0  0  0
   39.8640   21.0790   32.8220 O   0  0  0  0  0  0  0  0  0  0  0  0
   41.0510   23.1580   32.4690 O   0  0  0  0  0  0  0  0  0  0  0  0
  1  6  1  0  0  0  0
  1 28  1  0  0  0  0
  2  1  2  0  0  0  0
  3  2  1  0  0  0  0
  3  4  2  0  0  0  0
  4  5  1  0  0  0  0
  5  9  1  0  0  0  0
  5  6  2  0  0  0  0
  6 10  1  0  0  0  0
  7  3  1  0  0  0  0
  8  4  1  0  0  0  0
 11 16  1  0  0  0  0
 12 13  1  0  0  0  0
 12 11  2  0  0  0  0
 13 14  2  0  0  0  0
 14 15  1  0  0  0  0
 15  2  1  0  0  0  0
 16 15  2  0  0  0  0
 17 12  1  0  0  0  0
 18 13  1  0  0  0  0
 19 24  2  0  0  0  0
 19 20  1  0  0  0  0
 20 26  1  0  0  0  0
 20 21  2  0  0  0  0
 21 22  1  0  0  0  0
 21 27  1  0  0  0  0
 23 11  1  0  0  0  0
 23 22  2  0  0  0  0
 24 23  1  0  0  0  0
 25 19  1  0  0  0  0
 28 32  1  0  0  0  0
 28 29  2  0  0  0  0
 30 28  2  0  0  0  0
 31 38  2  0  0  0  0
 31 32  1  0  0  0  0
 32 33  2  0  0  0  0
 33 35  1  0  0  0  0
 33 34  1  0  0  0  0
 35 36  1  0  0  0  0
 37 35  2  0  0  0  0
 38 37  1  0  0  0  0
 39 40  1  0  0  0  0
 40 31  1  0  0  0  0
 41 40  2  0  0  0  0
 42 40  2  0  0  0  0
M  END
>  <minimizedAffinity>
-6.40043163

$$$$

 OpenBabel03272504253D

 42 45  0  0  0  0  0  0  0  0999 V2000
   37.4550   26.0080   34.2610 C   0  0  0  0  0  0  0  0  0  0  0  0
   37.1190   26.0800   32.9090 C   0  0  0  0  0  0  0  0  0  0  0  0
   36.5280   27.1710   32.3460 C   0  0  0  0  0  0  0  0  0  0  0  0
   36.2350   28.2700   33.1340 C   0  0  0  0  0  0  0  0  0  0  0  0
   36.5360   28.2570   34.4770 C   0  0  0  0  0  0  0  0  0  0  0  0
   37.1330   27.1210   34.9780 C   0  0  0  0  0  0  0  0  0  0  0  0
   36.3080   27.1300   31.2890 H   0  0  0  0  0  0  0  0  0  0  0  0
   35.7770   29.0690   32.5920 H   0  0  0  0  0  0  0  0  0  0  0  0
   36.2760   29.1490   35.0020 H   0  0  0  0  0  0  0  0  0  0  0  0
   37.2600   27.3430   36.0620 H   0  0  0  0  0  0  0  0  0  0  0  0
   37.2040   22.6840   31.5520 C   0  0  0  0  0  0  0  0  0  0  0  0
   38.1000   22.8540   30.5710 C   0  0  0  0  0  0  0  0  0  0  0  0
   38.6820   24.0480   30.3230 C   0  0  0  0  0  0  0  0  0  0  0  0
   38.3500   25.1220   31.0970 N   0  0  0  0  0  0  0  0  0  0  0  0
   37.4460   24.9230   32.0800 C   0  0  0  0  0  0  0  0  0  0  0  0
   36.8720   23.7330   32.3180 N   0  0  0  0  0  0  0  0  0  0  0  0
   38.3900   22.0150   29.9310 H   0  0  0  0  0  0  0  0  0  0  0  0
   39.4030   24.1620   29.5260 H   0  0  0  0  0  0  0  0  0  0  0  0
   35.8180   19.2980   31.1320 C   0  0  0  0  0  0  0  0  0  0  0  0
   35.3140   19.0140   32.4060 C   0  0  0  0  0  0  0  0  0  0  0  0
   35.4640   20.0030   33.3950 C   0  0  0  0  0  0  0  0  0  0  0  0
   36.0840   21.1670   33.0610 N   0  0  0  0  0  0  0  0  0  0  0  0
   36.5530   21.4080   31.8360 C   0  0  0  0  0  0  0  0  0  0  0  0
   36.4160   20.4630   30.8730 N   0  0  0  0  0  0  0  0  0  0  0  0
   35.6730   18.5090   30.4290 H   0  0  0  0  0  0  0  0  0  0  0  0
   34.8160   18.1510   32.7810 H   0  0  0  0  0  0  0  0  0  0  0  0
   35.1280   19.9310   34.4200 H   0  0  0  0  0  0  0  0  0  0  0  0
   38.2390   24.8060   35.0840 S   0  0  0  0  0  0  0  0  0  0  0  0
   38.3290   25.1970   36.5960 O   0  0  0  0  0  0  0  0  0  0  0  0
   38.8990   23.7010   34.6370 O   0  0  0  0  0  0  0  0  0  0  0  0
   41.0470   24.4050   35.2610 C   0  0  0  0  0  0  0  0  0  0  0  0
   39.9770   25.2970   34.9030 C   0  0  0  0  0  0  0  0  0  0  0  0
   40.3810   26.4230   34.4020 C   0  0  0  0  0  0  0  0  0  0  0  0
   39.6800   27.1870   34.1040 H   0  0  0  0  0  0  0  0  0  0  0  0
   41.7020   26.7760   34.2080 C   0  0  0  0  0  0  0  0  0  0  0  0
   41.9180   27.7420   33.7810 H   0  0  0  0  0  0  0  0  0  0  0  0
   42.6800   25.8920   34.5610 C   0  0  0  0  0  3  0  0  0  0  0  0
   42.4270   24.6610   35.1060 C   0  0  0  0  0  3  0  0  0  0  0  0
   39.3780   22.5940   35.6530 H   0  0  0  0  0  0  0  0  0  0  0  0
   40.7190   22.8610   36.0020 S   0  0  0  0  0  0  0  0  0  0  0  0
   40.6290   22.9610   37.5040 O   0  0  0  0  0  0  0  0  0  0  0  0
   41.4360   21.6870   35.6100 O   0  0  0  0  0  0  0  0  0  0  0  0
  1  6  1  0  0  0  0
  1 28  1  0  0  0  0
  2  1  2  0  0  0  0
  3  2  1  0  0  0  0
  3  4  2  0  0  0  0
  4  5  1  0  0  0  0
  5  6  2  0  0  0  0
  5  9  1  0  0  0  0
  6 10  1  0  0  0  0
  7  3  1  0  0  0  0
  8  4  1  0  0  0  0
 11 23  1  0  0  0  0
 11 16  1  0  0  0  0
 12 11  2  0  0  0  0
 13 12  1  0  0  0  0
 13 14  2  0  0  0  0
 14 15  1  0  0  0  0
 15 16  2  0  0  0  0
 15  2  1  0  0  0  0
 17 12  1  0  0  0  0
 18 13  1  0  0  0  0
 19 20  1  0  0  0  0
 20 26  1  0  0  0  0
 20 21  2  0  0  0  0
 21 27  1  0  0  0  0
 22 21  1  0  0  0  0
 23 22  2  0  0  0  0
 24 19  2  0  0  0  0
 24 23  1  0  0  0  0
 25 19  1  0  0  0  0
 28 29  2  0  0  0  0
 30 28  2  0  0  0  0
 31 40  1  0  0  0  0
 32 28  1  0  0  0  0
 32 31  2  0  0  0  0
 33 32  1  0  0  0  0
 34 33  1  0  0  0  0
 35 33  2  0  0  0  0
 35 37  1  0  0  0  0
 36 35  1  0  0  0  0
 37 38  2  0  0  0  0
 38 31  1  0  0  0  0
 39 40  1  0  0  0  0
 40 41  2  0  0  0  0
 42 40  2  0  0  0  0
M  END
>  <minimizedAffinity>
-6.33368158

$$$$

 OpenBabel03272504253D

 42 45  0  0  0  0  0  0  0  0999 V2000
   37.8830   22.6510   33.1930 C   0  0  0  0  0  0  0  0  0  0  0  0
   37.0290   23.3460   32.3350 C   0  0  0  0  0  0  0  0  0  0  0  0
   35.8280   22.8540   31.9220 C   0  0  0  0  0  0  0  0  0  0  0  0
   35.4140   21.6090   32.3600 C   0  0  0  0  0  0  0  0  0  0  0  0
   36.2140   20.8720   33.2030 C   0  0  0  0  0  0  0  0  0  0  0  0
   37.4160   21.4310   33.5800 C   0  0  0  0  0  0  0  0  0  0  0  0
   35.2380   23.4700   31.2570 H   0  0  0  0  0  0  0  0  0  0  0  0
   34.4560   21.3230   31.9800 H   0  0  0  0  0  0  0  0  0  0  0  0
   35.8110   19.9260   33.4890 H   0  0  0  0  0  0  0  0  0  0  0  0
   37.8760   20.6550   34.2330 H   0  0  0  0  0  0  0  0  0  0  0  0
   37.3200   26.9730   31.9670 C   0  0  0  0  0  0  0  0  0  0  0  0
   38.2670   27.0310   31.0230 C   0  0  0  0  0  0  0  0  0  0  0  0
   38.8310   25.9210   30.4970 C   0  0  0  0  0  0  0  0  0  0  0  0
   38.4230   24.6960   30.9390 N   0  0  0  0  0  0  0  0  0  0  0  0
   37.4650   24.6670   31.8900 C   0  0  0  0  0  0  0  0  0  0  0  0
   36.9120   25.7750   32.4070 N   0  0  0  0  0  0  0  0  0  0  0  0
   38.6190   27.9960   30.6450 H   0  0  0  0  0  0  0  0  0  0  0  0
   39.5940   25.9910   29.7350 H   0  0  0  0  0  0  0  0  0  0  0  0
   35.7580   29.2530   34.4030 C   0  0  0  0  0  0  0  0  0  0  0  0
   35.5290   30.4040   33.6400 C   0  0  0  0  0  0  0  0  0  0  0  0
   35.9220   30.3730   32.2900 C   0  0  0  0  0  0  0  0  0  0  0  0
   36.4960   29.2390   31.8070 N   0  0  0  0  0  0  0  0  0  0  0  0
   36.7000   28.1570   32.5600 C   0  0  0  0  0  0  0  0  0  0  0  0
   36.3280   28.1730   33.8630 N   0  0  0  0  0  0  0  0  0  0  0  0
   35.4390   29.3400   35.4160 H   0  0  0  0  0  0  0  0  0  0  0  0
   35.0940   31.3390   33.9050 H   0  0  0  0  0  0  0  0  0  0  0  0
   35.8110   31.1790   31.5790 H   0  0  0  0  0  0  0  0  0  0  0  0
   39.3240   23.1260   33.8490 S   0  0  1  0  0  0  0  0  0  0  0  0
   40.1910   21.8590   34.1500 O   0  0  0  0  0  0  0  0  0  0  0  0
   39.7530   24.3480   34.2730 O   0  0  0  0  0  1  0  0  0  0  0  0
   39.9160   22.9360   36.6230 C   0  0  0  0  0  0  0  0  0  0  0  0
   38.9250   23.2140   35.6170 C   0  0  0  0  0  0  0  0  0  0  0  0
   37.7770   23.5760   36.1010 C   0  0  0  0  0  0  0  0  0  0  0  0
   36.9430   23.8020   35.4540 H   0  0  0  0  0  0  0  0  0  0  0  0
   37.4860   23.7020   37.4450 C   0  0  0  0  0  0  0  0  0  0  0  0
   36.4940   24.0130   37.7290 H   0  0  0  0  0  0  0  0  0  0  0  0
   38.4630   23.4300   38.3590 C   0  0  0  0  0  3  0  0  0  0  0  0
   39.7290   23.0330   38.0190 C   0  0  0  0  0  3  0  0  0  0  0  0
   41.3310   21.8150   34.9030 H   0  0  0  0  0  0  0  0  0  0  0  0
   41.5090   22.3810   36.1840 S   0  0  0  0  0  3  0  0  0  0  0  0
   41.9330   21.1800   36.9910 O   0  0  0  0  0  1  0  0  0  0  0  0
   42.5940   23.3000   36.0260 O   0  0  0  0  0  1  0  0  0  0  0  0
  1  6  1  0  0  0  0
  1 28  1  0  0  0  0
  2  1  2  0  0  0  0
  3  2  1  0  0  0  0
  3  4  2  0  0  0  0
  4  5  1  0  0  0  0
  5  9  1  0  0  0  0
  5  6  2  0  0  0  0
  6 10  1  0  0  0  0
  7  3  1  0  0  0  0
  8  4  1  0  0  0  0
 11 16  1  0  0  0  0
 11 23  1  0  0  0  0
 12 11  2  0  0  0  0
 13 14  2  0  0  0  0
 13 12  1  0  0  0  0
 14 15  1  0  0  0  0
 15  2  1  0  0  0  0
 15 16  2  0  0  0  0
 17 12  1  0  0  0  0
 18 13  1  0  0  0  0
 19 25  1  0  0  0  0
 20 26  1  0  0  0  0
 20 19  2  0  0  0  0
 21 20  1  0  0  0  0
 22 21  2  0  0  0  0
 22 23  1  0  0  0  0
 23 24  2  0  0  0  0
 24 19  1  0  0  0  0
 27 21  1  0  0  0  0
 28 29  1  0  0  0  0
 28 30  1  6  0  0  0
 28 32  1  0  0  0  0
 29 39  1  0  0  0  0
 31 38  1  0  0  0  0
 32 33  1  0  0  0  0
 32 31  2  0  0  0  0
 33 35  2  0  0  0  0
 34 33  1  0  0  0  0
 35 36  1  0  0  0  0
 35 37  1  0  0  0  0
 38 37  2  0  0  0  0
 40 31  1  0  0  0  0
 40 41  1  0  0  0  0
 42 40  1  0  0  0  0
M  END
>  <minimizedAffinity>
-6.28089333

$$$$

 OpenBabel03272504253D

 42 45  0  0  0  0  0  0  0  0999 V2000
   38.5140   23.9620   33.6180 C   0  0  0  0  0  0  0  0  0  0  0  0
   37.5970   24.2950   32.6200 C   0  0  0  0  0  0  0  0  0  0  0  0
   36.7680   23.3840   32.0370 C   0  0  0  0  0  0  0  0  0  0  0  0
   36.8210   22.0610   32.4370 C   0  0  0  0  0  0  0  0  0  0  0  0
   37.7090   21.6690   33.4120 C   0  0  0  0  0  0  0  0  0  0  0  0
   38.5170   22.6420   33.9570 C   0  0  0  0  0  0  0  0  0  0  0  0
   36.0920   23.7420   31.2740 H   0  0  0  0  0  0  0  0  0  0  0  0
   36.1270   21.4340   31.9190 H   0  0  0  0  0  0  0  0  0  0  0  0
   37.6770   20.6300   33.6560 H   0  0  0  0  0  0  0  0  0  0  0  0
   39.1420   22.0880   34.6940 H   0  0  0  0  0  0  0  0  0  0  0  0
   36.6020   27.8060   32.3790 C   0  0  0  0  0  0  0  0  0  0  0  0
   37.4410   28.2160   31.4200 C   0  0  0  0  0  0  0  0  0  0  0  0
   38.3380   27.3860   30.8440 C   0  0  0  0  0  0  0  0  0  0  0  0
   38.3940   26.0830   31.2480 N   0  0  0  0  0  0  0  0  0  0  0  0
   37.5350   25.6970   32.2150 C   0  0  0  0  0  0  0  0  0  0  0  0
   36.6480   26.5290   32.7830 N   0  0  0  0  0  0  0  0  0  0  0  0
   37.4250   29.2530   31.0710 H   0  0  0  0  0  0  0  0  0  0  0  0
   39.0070   27.7380   30.0700 H   0  0  0  0  0  0  0  0  0  0  0  0
   33.4960   29.6500   33.1040 C   0  0  0  0  0  0  0  0  0  0  0  0
   33.8240   30.3530   34.2690 C   0  0  0  0  0  0  0  0  0  0  0  0
   35.1190   30.1760   34.7880 C   0  0  0  0  0  0  0  0  0  0  0  0
   35.9710   29.3400   34.1360 N   0  0  0  0  0  0  0  0  0  0  0  0
   35.6290   28.6840   33.0260 C   0  0  0  0  0  0  0  0  0  0  0  0
   34.3840   28.8450   32.5150 N   0  0  0  0  0  0  0  0  0  0  0  0
   32.5020   29.8270   32.7630 H   0  0  0  0  0  0  0  0  0  0  0  0
   33.2480   31.0260   34.8610 H   0  0  0  0  0  0  0  0  0  0  0  0
   35.5160   30.6480   35.6750 H   0  0  0  0  0  0  0  0  0  0  0  0
   39.5290   24.9440   34.4780 S   0  0  0  0  0  0  0  0  0  0  0  0
   40.8650   25.1200   33.6830 O   0  0  0  0  0  0  0  0  0  0  0  0
   39.4320   25.4410   35.7430 O   0  0  0  0  0  0  0  0  0  0  0  0
   39.7500   23.2270   36.7320 C   0  0  0  0  0  0  0  0  0  0  0  0
   40.3820   23.7560   35.5530 C   0  0  0  0  0  0  0  0  0  0  0  0
   41.5580   23.2600   35.3240 C   0  0  0  0  0  0  0  0  0  0  0  0
   42.1460   23.5820   34.4770 H   0  0  0  0  0  0  0  0  0  0  0  0
   42.1860   22.3120   36.1070 C   0  0  0  0  0  0  0  0  0  0  0  0
   43.1670   21.9730   35.8160 H   0  0  0  0  0  0  0  0  0  0  0  0
   41.5420   21.8390   37.2140 C   0  0  0  0  0  3  0  0  0  0  0  0
   40.2960   22.2570   37.6010 C   0  0  0  0  0  3  0  0  0  0  0  0
   37.9800   24.9640   36.4750 H   0  0  0  0  0  0  0  0  0  0  0  0
   38.1870   23.8010   37.2470 S   0  0  0  0  0  0  0  0  0  0  0  0
   38.2220   24.3670   38.6450 O   0  0  0  0  0  0  0  0  0  0  0  0
   37.0080   23.0170   37.0440 O   0  0  0  0  0  0  0  0  0  0  0  0
  1  6  1  0  0  0  0
  1 28  1  0  0  0  0
  2  1  2  0  0  0  0
  3  4  2  0  0  0  0
  3  2  1  0  0  0  0
  4  5  1  0  0  0  0
  5  9  1  0  0  0  0
  5  6  2  0  0  0  0
  6 10  1  0  0  0  0
  7  3  1  0  0  0  0
  8  4  1  0  0  0  0
 11 16  1  0  0  0  0
 11 23  1  0  0  0  0
 12 11  2  0  0  0  0
 13 14  2  0  0  0  0
 13 12  1  0  0  0  0
 14 15  1  0  0  0  0
 15  2  1  0  0  0  0
 15 16  2  0  0  0  0
 17 12  1  0  0  0  0
 18 13  1  0  0  0  0
 19 20  1  0  0  0  0
 20 21  2  0  0  0  0
 20 26  1  0  0  0  0
 21 27  1  0  0  0  0
 22 21  1  0  0  0  0
 23 22  2  0  0  0  0
 24 23  1  0  0  0  0
 24 19  2  0  0  0  0
 25 19  1  0  0  0  0
 28 32  1  0  0  0  0
 28 30  2  0  0  0  0
 29 28  2  0  0  0  0
 31 40  1  0  0  0  0
 31 38  1  0  0  0  0
 32 31  2  0  0  0  0
 33 32  1  0  0  0  0
 33 35  2  0  0  0  0
 34 33  1  0  0  0  0
 35 37  1  0  0  0  0
 36 35  1  0  0  0  0
 37 38  2  0  0  0  0
 39 40  1  0  0  0  0
 40 41  2  0  0  0  0
 42 40  2  0  0  0  0
M  END
>  <minimizedAffinity>
-6.01849937

$$$$

 OpenBabel03272504253D

 42 45  0  0  0  0  0  0  0  0999 V2000
   39.8750   26.1940   34.0490 C   0  0  0  0  0  0  0  0  0  0  0  0
   39.6820   26.8430   32.8280 C   0  0  0  0  0  0  0  0  0  0  0  0
   40.6670   27.5320   32.1880 C   0  0  0  0  0  0  0  0  0  0  0  0
   41.9260   27.6080   32.7560 C   0  0  0  0  0  0  0  0  0  0  0  0
   42.1770   26.9940   33.9620 C   0  0  0  0  0  0  0  0  0  0  0  0
   41.1350   26.3150   34.5530 C   0  0  0  0  0  0  0  0  0  0  0  0
   40.4170   27.9990   31.2450 H   0  0  0  0  0  0  0  0  0  0  0  0
   42.6220   28.1670   32.1690 H   0  0  0  0  0  0  0  0  0  0  0  0
   43.1770   27.1050   34.3200 H   0  0  0  0  0  0  0  0  0  0  0  0
   41.5730   25.9290   35.5020 H   0  0  0  0  0  0  0  0  0  0  0  0
   36.2810   27.6510   31.7490 C   0  0  0  0  0  0  0  0  0  0  0  0
   35.9530   26.5000   31.1500 C   0  0  0  0  0  0  0  0  0  0  0  0
   36.8080   25.4570   31.0730 C   0  0  0  0  0  0  0  0  0  0  0  0
   38.0510   25.5740   31.6260 N   0  0  0  0  0  0  0  0  0  0  0  0
   38.3540   26.7440   32.2260 C   0  0  0  0  0  0  0  0  0  0  0  0
   37.4990   27.7760   32.2960 N   0  0  0  0  0  0  0  0  0  0  0  0
   34.9660   26.3700   30.6960 H   0  0  0  0  0  0  0  0  0  0  0  0
   36.5220   24.5360   30.5850 H   0  0  0  0  0  0  0  0  0  0  0  0
   34.7640   30.9570   31.1710 C   0  0  0  0  0  0  0  0  0  0  0  0
   33.6640   30.9440   32.0370 C   0  0  0  0  0  0  0  0  0  0  0  0
   33.4640   29.7850   32.8090 C   0  0  0  0  0  0  0  0  0  0  0  0
   34.3400   28.7540   32.6720 N   0  0  0  0  0  0  0  0  0  0  0  0
   35.3800   28.7980   31.8380 C   0  0  0  0  0  0  0  0  0  0  0  0
   35.5850   29.9080   31.0870 N   0  0  0  0  0  0  0  0  0  0  0  0
   34.8600   31.8620   30.6160 H   0  0  0  0  0  0  0  0  0  0  0  0
   32.9190   31.6810   32.2270 H   0  0  0  0  0  0  0  0  0  0  0  0
   32.6640   29.6270   33.5180 H   0  0  0  0  0  0  0  0  0  0  0  0
   38.8230   25.2580   34.9160 S   0  0  0  0  0  0  0  0  0  0  0  0
   38.7080   25.8310   36.3670 O   0  0  0  0  0  0  0  0  0  0  0  0
   38.2260   24.0710   34.6150 O   0  0  0  0  0  0  0  0  0  0  0  0
   39.5990   23.2530   36.7750 C   0  0  0  0  0  0  0  0  0  0  0  0
   39.9180   23.9640   35.5660 C   0  0  0  0  0  0  0  0  0  0  0  0
   41.0020   23.5500   34.9870 C   0  0  0  0  0  0  0  0  0  0  0  0
   41.3610   24.0080   34.0770 H   0  0  0  0  0  0  0  0  0  0  0  0
   41.8050   22.5260   35.4470 C   0  0  0  0  0  0  0  0  0  0  0  0
   42.6840   22.2680   34.8780 H   0  0  0  0  0  0  0  0  0  0  0  0
   41.4570   21.8800   36.5980 C   0  0  0  0  0  3  0  0  0  0  0  0
   40.3450   22.1930   37.3340 C   0  0  0  0  0  3  0  0  0  0  0  0
   37.8400   24.9590   37.2390 H   0  0  0  0  0  0  0  0  0  0  0  0
   38.2110   23.6910   37.7350 S   0  0  0  0  0  0  0  0  0  0  0  0
   38.5870   24.0190   39.1580 O   0  0  0  0  0  0  0  0  0  0  0  0
   37.0080   22.9180   37.6900 O   0  0  0  0  0  0  0  0  0  0  0  0
  1  6  1  0  0  0  0
  1 28  1  0  0  0  0
  2  1  2  0  0  0  0
  3  4  2  0  0  0  0
  3  2  1  0  0  0  0
  4  5  1  0  0  0  0
  5  9  1  0  0  0  0
  5  6  2  0  0  0  0
  6 10  1  0  0  0  0
  7  3  1  0  0  0  0
  8  4  1  0  0  0  0
 11 23  1  0  0  0  0
 11 16  1  0  0  0  0
 12 11  2  0  0  0  0
 13 12  1  0  0  0  0
 13 14  2  0  0  0  0
 14 15  1  0  0  0  0
 15 16  2  0  0  0  0
 15  2  1  0  0  0  0
 17 12  1  0  0  0  0
 18 13  1  0  0  0  0
 19 20  1  0  0  0  0
 20 26  1  0  0  0  0
 20 21  2  0  0  0  0
 21 27  1  0  0  0  0
 22 21  1  0  0  0  0
 23 22  2  0  0  0  0
 24 19  2  0  0  0  0
 24 23  1  0  0  0  0
 25 19  1  0  0  0  0
 28 32  1  0  0  0  0
 28 29  2  0  0  0  0
 30 28  2  0  0  0  0
 31 38  1  0  0  0  0
 31 40  1  0  0  0  0
 32 31  2  0  0  0  0
 33 35  2  0  0  0  0
 33 32  1  0  0  0  0
 34 33  1  0  0  0  0
 35 37  1  0  0  0  0
 36 35  1  0  0  0  0
 37 38  2  0  0  0  0
 39 40  1  0  0  0  0
 40 41  2  0  0  0  0
 42 40  2  0  0  0  0
M  END
>  <minimizedAffinity>
-6.0024786

$$$$

 OpenBabel03272504253D

 42 45  0  0  0  0  0  0  0  0999 V2000
   39.7540   22.9690   36.0730 C   0  0  0  0  0  0  0  0  0  0  0  0
   38.4750   23.5020   35.9020 C   0  0  0  0  0  0  0  0  0  0  0  0
   37.6900   23.9000   36.9410 C   0  0  0  0  0  0  0  0  0  0  0  0
   38.1600   23.7770   38.2370 C   0  0  0  0  0  0  0  0  0  0  0  0
   39.4100   23.2520   38.4710 C   0  0  0  0  0  0  0  0  0  0  0  0
   40.1490   22.8700   37.3730 C   0  0  0  0  0  0  0  0  0  0  0  0
   36.7150   24.3020   36.7050 H   0  0  0  0  0  0  0  0  0  0  0  0
   37.4670   24.1230   38.9730 H   0  0  0  0  0  0  0  0  0  0  0  0
   39.6870   23.1980   39.5010 H   0  0  0  0  0  0  0  0  0  0  0  0
   41.0920   22.4730   37.8130 H   0  0  0  0  0  0  0  0  0  0  0  0
   37.3410   24.9620   32.7460 C   0  0  0  0  0  0  0  0  0  0  0  0
   37.0840   23.8440   32.0570 C   0  0  0  0  0  0  0  0  0  0  0  0
   37.2740   22.6130   32.5820 C   0  0  0  0  0  0  0  0  0  0  0  0
   37.7430   22.5010   33.8590 N   0  0  0  0  0  0  0  0  0  0  0  0
   37.9920   23.6440   34.5310 C   0  0  0  0  0  0  0  0  0  0  0  0
   37.8020   24.8630   34.0010 N   0  0  0  0  0  0  0  0  0  0  0  0
   36.7070   23.8950   31.0310 H   0  0  0  0  0  0  0  0  0  0  0  0
   37.0590   21.7230   32.0080 H   0  0  0  0  0  0  0  0  0  0  0  0
   37.3280   27.8210   30.4240 C   0  0  0  0  0  0  0  0  0  0  0  0
   36.7920   28.8490   31.2080 C   0  0  0  0  0  0  0  0  0  0  0  0
   36.4410   28.5350   32.5330 C   0  0  0  0  0  0  0  0  0  0  0  0
   36.6390   27.2630   32.9730 N   0  0  0  0  0  0  0  0  0  0  0  0
   37.1540   26.3050   32.2000 C   0  0  0  0  0  0  0  0  0  0  0  0
   37.4960   26.5940   30.9210 N   0  0  0  0  0  0  0  0  0  0  0  0
   37.5730   28.1240   29.4310 H   0  0  0  0  0  0  0  0  0  0  0  0
   36.5930   29.8690   30.9770 H   0  0  0  0  0  0  0  0  0  0  0  0
   36.0190   29.2180   33.2560 H   0  0  0  0  0  0  0  0  0  0  0  0
   40.8600   22.5120   34.9320 S   0  0  0  0  0  0  0  0  0  0  0  0
   41.5480   21.1830   35.3900 O   0  0  0  0  0  0  0  0  0  0  0  0
   41.3270   23.1620   33.8290 O   0  0  0  0  0  0  0  0  0  0  0  0
   42.4730   24.8270   35.2690 C   0  0  0  0  0  0  0  0  0  0  0  0
   42.3450   23.4080   35.4670 C   0  0  0  0  0  0  0  0  0  0  0  0
   43.3450   22.8760   36.0980 C   0  0  0  0  0  0  0  0  0  0  0  0
   43.3790   21.8160   36.3010 H   0  0  0  0  0  0  0  0  0  0  0  0
   44.4490   23.5650   36.5600 C   0  0  0  0  0  0  0  0  0  0  0  0
   45.2200   23.0150   37.0740 H   0  0  0  0  0  0  0  0  0  0  0  0
   44.5220   24.9120   36.3490 C   0  0  0  0  0  3  0  0  0  0  0  0
   43.5530   25.6300   35.6980 C   0  0  0  0  0  3  0  0  0  0  0  0
   40.4190   24.7270   33.8580 H   0  0  0  0  0  0  0  0  0  0  0  0
   41.2620   25.7250   34.3930 S   0  0  0  0  0  0  0  0  0  0  0  0
   41.8190   26.3560   33.1420 O   0  0  0  0  0  0  0  0  0  0  0  0
   40.3770   26.6230   35.0680 O   0  0  0  0  0  0  0  0  0  0  0  0
  1  6  1  0  0  0  0
  2  1  2  0  0  0  0
  2  3  1  0  0  0  0
  3  4  2  0  0  0  0
  4  5  1  0  0  0  0
  4  8  1  0  0  0  0
  5  9  1  0  0  0  0
  6 10  1  0  0  0  0
  6  5  2  0  0  0  0
  7  3  1  0  0  0  0
 11 16  1  0  0  0  0
 12 13  1  0  0  0  0
 12 11  2  0  0  0  0
 13 14  2  0  0  0  0
 14 15  1  0  0  0  0
 15  2  1  0  0  0  0
 16 15  2  0  0  0  0
 17 12  1  0  0  0  0
 18 13  1  0  0  0  0
 19 24  2  0  0  0  0
 19 20  1  0  0  0  0
 20 21  2  0  0  0  0
 21 22  1  0  0  0  0
 21 27  1  0  0  0  0
 23 11  1  0  0  0  0
 23 22  2  0  0  0  0
 24 23  1  0  0  0  0
 25 19  1  0  0  0  0
 26 20  1  0  0  0  0
 28 29  2  0  0  0  0
 28 32  1  0  0  0  0
 28  1  1  0  0  0  0
 30 28  2  0  0  0  0
 31 32  2  0  0  0  0
 31 38  1  0  0  0  0
 32 33  1  0  0  0  0
 33 34  1  0  0  0  0
 33 35  2  0  0  0  0
 35 36  1  0  0  0  0
 37 35  1  0  0  0  0
 38 37  2  0  0  0  0
 39 40  1  0  0  0  0
 40 42  2  0  0  0  0
 40 31  1  0  0  0  0
 41 40  2  0  0  0  0
M  END
>  <minimizedAffinity>
-5.99829292

$$$$

 OpenBabel03272504253D

 42 45  0  0  0  0  0  0  0  0999 V2000
   37.9610   23.7010   32.3320 C   0  0  0  0  0  0  0  0  0  0  0  0
   36.9260   24.3870   31.6960 C   0  0  0  0  0  0  0  0  0  0  0  0
   35.7480   23.7990   31.3470 C   0  0  0  0  0  0  0  0  0  0  0  0
   35.5470   22.4590   31.6220 C   0  0  0  0  0  0  0  0  0  0  0  0
   36.5340   21.7250   32.2410 C   0  0  0  0  0  0  0  0  0  0  0  0
   37.6990   22.3850   32.5660 C   0  0  0  0  0  0  0  0  0  0  0  0
   35.0070   24.4170   30.8590 H   0  0  0  0  0  0  0  0  0  0  0  0
   34.5890   22.1010   31.3110 H   0  0  0  0  0  0  0  0  0  0  0  0
   36.2880   20.7010   32.4150 H   0  0  0  0  0  0  0  0  0  0  0  0
   38.3310   21.5940   33.0310 H   0  0  0  0  0  0  0  0  0  0  0  0
   36.6300   28.0320   31.7940 C   0  0  0  0  0  0  0  0  0  0  0  0
   37.5380   28.3590   30.8660 C   0  0  0  0  0  0  0  0  0  0  0  0
   38.2600   27.4290   30.2030 C   0  0  0  0  0  0  0  0  0  0  0  0
   38.0600   26.1080   30.4850 N   0  0  0  0  0  0  0  0  0  0  0  0
   37.1380   25.8070   31.4230 C   0  0  0  0  0  0  0  0  0  0  0  0
   36.4260   26.7380   32.0780 N   0  0  0  0  0  0  0  0  0  0  0  0
   37.7250   29.4070   30.6140 H   0  0  0  0  0  0  0  0  0  0  0  0
   38.9870   27.7150   29.4570 H   0  0  0  0  0  0  0  0  0  0  0  0
   35.1580   29.9680   34.5600 C   0  0  0  0  0  0  0  0  0  0  0  0
   34.3400   30.8840   33.8900 C   0  0  0  0  0  0  0  0  0  0  0  0
   34.3120   30.8180   32.4850 C   0  0  0  0  0  0  0  0  0  0  0  0
   35.0730   29.8780   31.8640 N   0  0  0  0  0  0  0  0  0  0  0  0
   35.8430   29.0170   32.5320 C   0  0  0  0  0  0  0  0  0  0  0  0
   35.8800   29.0700   33.8860 N   0  0  0  0  0  0  0  0  0  0  0  0
   35.1340   30.0700   35.6210 H   0  0  0  0  0  0  0  0  0  0  0  0
   33.7070   31.6550   34.2630 H   0  0  0  0  0  0  0  0  0  0  0  0
   33.7320   31.4550   31.8320 H   0  0  0  0  0  0  0  0  0  0  0  0
   39.4100   24.2720   32.8900 S   0  0  0  0  0  0  0  0  0  0  0  0
   40.0520   23.2000   33.8320 O   0  0  0  0  0  0  0  0  0  0  0  0
   39.9880   25.5010   32.7810 O   0  0  0  0  0  0  0  0  0  0  0  0
   38.6320   24.5300   35.6120 C   0  0  0  0  0  0  0  0  0  0  0  0
   38.9060   25.1980   34.3670 C   0  0  0  0  0  0  0  0  0  0  0  0
   38.8130   26.4900   34.4370 C   0  0  0  0  0  0  0  0  0  0  0  0
   38.9820   27.1110   33.5690 H   0  0  0  0  0  0  0  0  0  0  0  0
   38.4880   27.2020   35.5740 C   0  0  0  0  0  0  0  0  0  0  0  0
   38.4430   28.2770   35.5110 H   0  0  0  0  0  0  0  0  0  0  0  0
   38.2400   26.5210   36.7310 C   0  0  0  0  0  3  0  0  0  0  0  0
   38.2930   25.1550   36.8310 C   0  0  0  0  0  3  0  0  0  0  0  0
   38.9630   22.3710   34.4080 H   0  0  0  0  0  0  0  0  0  0  0  0
   38.6490   22.7900   35.7190 S   0  0  0  0  0  0  0  0  0  0  0  0
   37.2650   22.2190   35.8980 O   0  0  0  0  0  0  0  0  0  0  0  0
   39.5930   22.1110   36.5520 O   0  0  0  0  0  0  0  0  0  0  0  0
  1  6  1  0  0  0  0
  1 28  1  0  0  0  0
  2  1  2  0  0  0  0
  3  4  2  0  0  0  0
  3  2  1  0  0  0  0
  4  5  1  0  0  0  0
  5  9  1  0  0  0  0
  5  6  2  0  0  0  0
  6 10  1  0  0  0  0
  7  3  1  0  0  0  0
  8  4  1  0  0  0  0
 11 16  1  0  0  0  0
 11 23  1  0  0  0  0
 12 11  2  0  0  0  0
 13 14  2  0  0  0  0
 13 12  1  0  0  0  0
 14 15  1  0  0  0  0
 15  2  1  0  0  0  0
 15 16  2  0  0  0  0
 17 12  1  0  0  0  0
 18 13  1  0  0  0  0
 19 25  1  0  0  0  0
 20 26  1  0  0  0  0
 20 19  1  0  0  0  0
 21 20  2  0  0  0  0
 22 21  1  0  0  0  0
 22 23  2  0  0  0  0
 23 24  1  0  0  0  0
 24 19  2  0  0  0  0
 27 21  1  0  0  0  0
 28 29  2  0  0  0  0
 28 32  1  0  0  0  0
 30 28  2  0  0  0  0
 31 40  1  0  0  0  0
 31 38  1  0  0  0  0
 32 33  1  0  0  0  0
 32 31  2  0  0  0  0
 33 35  2  0  0  0  0
 34 33  1  0  0  0  0
 35 37  1  0  0  0  0
 36 35  1  0  0  0  0
 37 38  2  0  0  0  0
 39 40  1  0  0  0  0
 40 41  2  0  0  0  0
 40 42  2  0  0  0  0
M  END
>  <minimizedAffinity>
-5.97513962

$$$$
