
 OpenBabel03272504183D

 29 30  0  0  0  0  0  0  0  0999 V2000
   35.6170   30.1400   46.3440 O   0  0  0  0  0  0  0  0  0  0  0  0
   34.5210   29.9650   47.3500 P   0  0  1  0  0  0  0  0  0  0  0  0
   34.3640   28.3560   47.8640 O   0  0  0  0  0  0  0  0  0  0  0  0
   33.6210   28.3230   48.5020 H   0  0  0  0  0  0  0  0  0  0  0  0
   34.8110   30.8870   48.7820 O   0  0  0  0  0  0  0  0  0  0  0  0
   35.9870   30.7730   49.5090 C   0  0  0  0  0  0  0  0  0  0  0  0
   36.2050   29.9210   50.5800 C   0  0  0  0  0  0  0  0  0  0  0  0
   37.4370   29.9240   51.2030 C   0  0  0  0  0  0  0  0  0  0  0  0
   38.4110   30.7670   50.7460 N   0  0  0  0  0  0  0  0  0  0  0  0
   38.1670   31.5980   49.6840 C   0  0  0  0  0  0  0  0  0  0  0  0
   36.9530   31.5940   49.0700 N   0  0  0  0  0  0  0  0  0  0  0  0
   37.5530   29.2500   52.0220 H   0  0  0  0  0  0  0  0  0  0  0  0
   38.9550   32.2590   49.3370 H   0  0  0  0  0  0  0  0  0  0  0  0
   35.1070   29.1130   50.9350 N   0  0  0  0  0  0  0  0  0  0  0  0
   35.2740   28.1520   51.2780 H   0  0  0  0  0  0  0  0  0  0  0  0
   34.1210   29.4620   50.8600 H   0  0  0  0  0  0  0  0  0  0  0  0
   33.1140   30.5270   46.6090 O   0  0  0  0  0  0  0  0  0  0  0  0
   32.2390   29.6900   44.6270 C   0  0  0  0  0  0  0  0  0  0  0  0
   32.2460   29.6130   46.0250 C   0  0  0  0  0  0  0  0  0  0  0  0
   31.4450   28.6990   46.6790 C   0  0  0  0  0  0  0  0  0  0  0  0
   31.5090   28.7030   47.7580 H   0  0  0  0  0  0  0  0  0  0  0  0
   30.6220   27.8410   45.9780 C   0  0  0  0  0  0  0  0  0  0  0  0
   30.0090   27.1390   46.5320 H   0  0  0  0  0  0  0  0  0  0  0  0
   30.5970   27.8980   44.5800 C   0  0  0  0  0  3  0  0  0  0  0  0
   31.4040   28.8190   43.9440 C   0  0  0  0  0  3  0  0  0  0  0  0
   33.6010   31.8810   44.4210 H   0  0  0  0  0  0  0  0  0  0  0  0
   33.1990   30.7940   43.6960 S   0  0  0  0  0  0  0  0  0  0  0  0
   32.4660   31.2920   42.4790 O   0  0  0  0  0  0  0  0  0  0  0  0
   34.4590   30.1170   43.1750 O   0  0  0  0  0  0  0  0  0  0  0  0
  2  1  2  6  0  0  0
  2  3  1  0  0  0  0
  2  5  1  0  0  0  0
  3  4  1  0  0  0  0
  5  6  1  0  0  0  0
  6  7  1  0  0  0  0
  7 14  1  0  0  0  0
  7  8  2  0  0  0  0
  8 12  1  0  0  0  0
  9  8  1  0  0  0  0
 10  9  2  0  0  0  0
 11  6  2  0  0  0  0
 11 10  1  0  0  0  0
 13 10  1  0  0  0  0
 14 15  1  0  0  0  0
 16 14  1  0  0  0  0
 17  2  1  0  0  0  0
 18 19  1  0  0  0  0
 19 17  1  0  0  0  0
 19 20  2  0  0  0  0
 20 21  1  0  0  0  0
 22 23  1  0  0  0  0
 22 20  1  0  0  0  0
 24 22  2  0  0  0  0
 25 24  1  0  0  0  0
 25 18  2  0  0  0  0
 27 26  1  0  0  0  0
 27 18  1  0  0  0  0
 28 27  2  0  0  0  0
 29 27  2  0  0  0  0
M  END
>  <minimizedAffinity>
-3.88790178

>  <minimizedRMSD>
0.947094858

$$$$
