REMARK  Name = 
REMARK  3 active torsions:
REMARK  status: ('A' for Active; 'I' for Inactive)
REMARK    1  A    between atoms: C_2  and  N_7
REMARK    2  A    between atoms: C_5  and  C_17
REMARK    3  A    between atoms: S_13  and  C_16
REMARK                            x       y       z     vdW  Elec       q    Type
REMARK                         _______ _______ _______ _____ _____    ______ ____
ROOT
ATOM      1  C   UNL     1      33.473  26.984  49.210  0.00  0.00    +0.000 A 
ATOM      2  C   UNL     1      33.615  28.194  49.833  0.00  0.00    +0.000 A 
ATOM      3  C   UNL     1      32.520  28.854  50.370  0.00  0.00    +0.000 A 
ATOM      4  H   UNL     1      32.600  29.808  50.867  0.00  0.00    +0.000 HD
ATOM      5  C   UNL     1      31.241  28.318  50.297  0.00  0.00    +0.000 A 
ATOM      6  H   UNL     1      30.347  28.775  50.691  0.00  0.00    +0.000 HD
ATOM      7  C   UNL     1      31.130  27.098  49.663  0.00  0.00    +0.000 A 
ATOM      8  C   UNL     1      32.194  26.425  49.125  0.00  0.00    +0.000 A 
ENDROOT
BRANCH   2  13
ATOM      9  C   UNL     1      36.630  29.761  51.257  0.00  0.00    +0.000 A 
ATOM     10  C   UNL     1      37.370  30.111  50.127  0.00  0.00    +0.000 A 
ATOM     11  C   UNL     1      36.806  29.795  48.882  0.00  0.00    +0.000 A 
ATOM     12  N   UNL     1      35.596  29.179  48.863  0.00  0.00    +0.000 NA
ATOM     13  C   UNL     1      34.917  28.860  49.972  0.00  0.00    +0.000 A 
ATOM     14  N   UNL     1      35.432  29.150  51.185  0.00  0.00    +0.000 NA
ATOM     15  H   UNL     1      36.990  29.967  52.255  0.00  0.00    +0.000 HD
ATOM     16  H   UNL     1      37.367  30.060  47.999  0.00  0.00    +0.000 HD
BRANCH  10  17
ATOM     17  N   UNL     1      38.635  30.758  50.259  0.00  0.00    +0.000 N 
ATOM     18  H   UNL     1      39.118  30.670  51.163  0.00  0.00    +0.000 HD
ATOM     19  H   UNL     1      39.008  31.285  49.438  0.00  0.00    +0.000 HD
ENDBRANCH  10  17
ENDBRANCH   2  13
BRANCH   1  21
ATOM     20  H   UNL     1      35.837  25.933  49.478  0.00  0.00    +0.000 HD
ATOM     21  S   UNL     1      34.852  26.163  48.540  0.00  0.00    +0.000 S 
ATOM     22  O   UNL     1      34.410  24.781  48.089  0.00  0.00    +0.000 OA
ATOM     23  O   UNL     1      35.405  26.852  47.329  0.00  0.00    +0.000 OA
ENDBRANCH   1  21
TORSDOF 3
