
     RDKit          3D

 45 48  0  0  0  0  0  0  0  0999 V2000
   33.5529   29.8720   46.4954 N   0  0  0  0  0  0  0  0  0  0  0  0
   34.7813   29.7826   45.7276 C   0  0  0  0  0  0  0  0  0  0  0  0
   35.8386   30.1001   46.7426 C   0  0  0  0  0  0  0  0  0  0  0  0
   35.0396   30.5571   48.0401 C   0  0  1  0  0  0  0  0  0  0  0  0
   33.8716   29.6774   47.9262 C   0  0  0  0  0  0  0  0  0  0  0  0
   32.2506   30.1131   46.0039 C   0  0  0  0  0  0  0  0  0  0  0  0
   32.1069   31.2509   45.1937 C   0  0  0  0  0  0  0  0  0  0  0  0
   30.8395   31.5583   44.6806 C   0  0  0  0  0  0  0  0  0  0  0  0
   29.8105   30.6994   45.0192 N   0  0  0  0  0  0  0  0  0  0  0  0
   29.9891   29.6270   45.7926 C   0  0  0  0  0  0  0  0  0  0  0  0
   31.2172   29.3270   46.2916 N   0  0  0  0  0  0  0  0  0  0  0  0
   37.3870   32.0951   48.4603 F   0  0  0  0  0  0  0  0  0  0  0  0
   36.9766   31.1604   49.3427 C   0  0  0  0  0  0  0  0  0  0  0  0
   35.8964   30.3167   49.2127 C   0  0  0  0  0  0  0  0  0  0  0  0
   35.6463   29.3859   50.2349 C   0  0  0  0  0  0  0  0  0  0  0  0
   36.4527   29.3051   51.3521 C   0  0  0  0  0  0  0  0  0  0  0  0
   37.5409   30.1697   51.4619 C   0  0  0  0  0  0  0  0  0  0  0  0
   37.7963   31.1012   50.4423 C   0  0  0  0  0  0  0  0  0  0  0  0
   34.7426   30.6023   44.9767 H   0  0  0  0  0  0  0  0  0  0  0  0
   34.9243   28.7981   45.2600 H   0  0  0  0  0  0  0  0  0  0  0  0
   36.3660   29.1928   47.0496 H   0  0  0  0  0  0  0  0  0  0  0  0
   36.5051   30.9263   46.4481 H   0  0  0  0  0  0  0  0  0  0  0  0
   34.9792   31.6372   47.8592 H   0  0  0  0  0  0  0  0  0  0  0  0
   34.1620   28.6323   48.0079 H   0  0  0  0  0  0  0  0  0  0  0  0
   33.0003   29.9561   48.5480 H   0  0  0  0  0  0  0  0  0  0  0  0
   32.8812   31.9452   44.9056 H   0  0  0  0  0  0  0  0  0  0  0  0
   30.6631   32.4206   44.0509 H   0  0  0  0  0  0  0  0  0  0  0  0
   29.1362   29.0010   46.0145 H   0  0  0  0  0  0  0  0  0  0  0  0
   34.7766   28.7839   50.0166 H   0  0  0  0  0  0  0  0  0  0  0  0
   36.1800   28.5590   52.0846 H   0  0  0  0  0  0  0  0  0  0  0  0
   38.1547   30.0830   52.3479 H   0  0  0  0  0  0  0  0  0  0  0  0
   36.8153   33.2622   49.2070 H   0  0  0  0  0  0  0  0  0  0  0  0
   37.6177   34.1029   49.9178 S   0  0  0  0  0  0  0  0  0  0  0  0
   36.9206   34.7288   51.0834 O   0  0  0  0  0  0  0  0  0  0  0  0
   38.0762   35.2563   49.0398 O   0  0  0  0  0  0  0  0  0  0  0  0
   39.0499   33.3053   50.4772 C   0  0  0  0  0  0  0  0  0  0  0  0
   38.9600   31.9534   50.6618 C   0  0  0  0  0  0  0  0  0  0  0  0
   40.0639   31.2339   51.1093 C   0  0  0  0  0  0  0  0  0  0  0  0
   40.1007   30.1646   51.2880 H   0  0  0  0  0  0  0  0  0  0  0  0
   41.2507   31.9046   51.3642 C   0  0  0  0  0  0  0  0  0  0  0  0
   42.1424   31.3676   51.7189 H   0  0  0  0  0  0  0  0  0  0  0  0
   41.3753   33.2809   51.1864 C   0  0  0  0  0  0  0  0  0  0  0  0
   40.2388   33.9444   50.7377 C   0  0  0  0  0  0  0  0  0  0  0  0
   42.3110   33.7826   51.3916 H   0  0  0  0  0  0  0  0  0  0  0  0
   40.2898   35.0090   50.5864 H   0  0  0  0  0  0  0  0  0  0  0  0
  1  5  1  0
  2  1  1  0
  2  3  1  0
  3  4  1  0
  4 14  1  0
  5  4  1  0
  6 11  1  0
  6  1  1  0
  7  6  2  0
  8  9  2  0
  8  7  1  0
  9 10  1  0
 10 11  2  0
 12 13  1  0
 13 18  2  0
 14 13  1  0
 14 15  2  0
 15 16  1  0
 16 17  2  0
 18 17  1  0
  2 19  1  0
  2 20  1  0
  3 21  1  0
  3 22  1  0
  4 23  1  6
  5 24  1  0
  5 25  1  0
  7 26  1  0
  8 27  1  0
 10 28  1  0
 15 29  1  0
 16 30  1  0
 17 31  1  0
 32 33  1  0
 33 34  2  0
 33 35  2  0
 33 36  1  0
 36 37  2  0
 37 38  1  0
 38 39  1  0
 38 40  2  0
 40 41  1  0
 40 42  1  0
 42 43  2  0
 43 36  1  0
 42 44  1  0
 43 45  1  0
 18 37  1  0
M  ISO  8  19  13  20  13  21  13  22  13  23  13  24  13  25  13  26  14
M  ISO  8  27  14  28  14  29  14  30  14  31  14  32  12  39  15  41  16
M  END
>  <DihAtoms>  (1) 
12,17,36,35

>  <DihDeg>  (1) 
89.99780686539718

$$$$
