
     RDKit          3D

 36 38  0  0  0  0  0  0  0  0999 V2000
   37.4035   29.9347   50.5662 C   0  0  0  0  0  0  0  0  0  0  0  0
   37.8659   30.3981   49.3240 C   0  0  0  0  0  0  0  0  0  0  0  0
   37.0032   30.6659   48.2925 C   0  0  0  0  0  0  0  0  0  0  0  0
   35.6701   30.4642   48.5158 N   0  0  0  0  0  0  0  0  0  0  0  0
   35.1975   30.0138   49.7149 C   0  0  0  0  0  0  0  0  0  0  0  0
   36.0750   29.7536   50.7305 N   0  0  0  0  0  0  0  0  0  0  0  0
   37.4464   31.1350   47.0515 N   0  0  0  0  0  0  0  0  0  0  0  0
   36.8065   30.8003   45.8977 C   0  0  0  0  0  0  0  0  0  0  0  0
   37.2336   31.2610   44.6609 C   0  0  0  0  0  0  0  0  0  0  0  0
   38.3661   32.0970   44.6399 C   0  0  0  0  0  0  0  0  0  0  0  0
   38.7835   32.5338   43.5441 O   0  0  0  0  0  0  0  0  0  0  0  0
   39.0005   32.4271   45.7986 N   0  0  0  0  0  0  0  0  0  0  0  0
   38.4960   31.9222   46.9309 C   0  0  0  0  0  0  0  0  0  0  0  0
   39.1043   32.2488   47.9709 O   0  0  0  0  0  0  0  0  0  0  0  0
   40.1699   33.2857   45.7800 C   0  0  0  0  0  0  0  0  0  0  0  0
   40.0419   34.2209   44.8054 F   0  0  0  0  0  0  0  0  0  0  0  0
   41.3400   32.5948   45.5023 F   0  0  0  0  0  0  0  0  0  0  0  0
   40.2751   33.9360   47.0028 F   0  0  0  0  0  0  0  0  0  0  0  0
   38.0210   29.7086   51.4084 H   0  0  0  0  0  0  0  0  0  0  0  0
   38.9366   30.4846   49.3315 H   0  0  0  0  0  0  0  0  0  0  0  0
   34.1225   29.8676   49.8456 H   0  0  0  0  0  0  0  0  0  0  0  0
   35.9349   30.1517   45.9548 H   0  0  0  0  0  0  0  0  0  0  0  0
   35.0675   27.4602   44.1046 H   0  0  0  0  0  0  0  0  0  0  0  0
   35.8060   28.5725   44.4832 S   0  0  0  0  0  0  0  0  0  0  0  0
   37.1888   28.0922   44.7686 O   0  0  0  0  0  0  0  0  0  0  0  0
   35.1432   29.1157   45.7119 O   0  0  0  0  0  0  0  0  0  0  0  0
   35.8544   29.7286   43.1839 C   0  0  0  0  0  0  0  0  0  0  0  0
   36.5442   30.8996   43.4268 C   0  0  0  0  0  0  0  0  0  0  0  0
   36.6177   31.8662   42.4209 C   0  0  0  0  0  0  0  0  0  0  0  0
   37.1279   32.8152   42.4990 H   0  0  0  0  0  0  0  0  0  0  0  0
   36.0146   31.6624   41.2035 C   0  0  0  0  0  0  0  0  0  0  0  0
   36.0431   32.3820   40.3910 H   0  0  0  0  0  0  0  0  0  0  0  0
   35.3224   30.4921   40.9543 C   0  0  0  0  0  0  0  0  0  0  0  0
   35.2479   29.5312   41.9505 C   0  0  0  0  0  0  0  0  0  0  0  0
   34.8355   30.3129   39.9894 H   0  0  0  0  0  0  0  0  0  0  0  0
   34.7135   28.6040   41.7872 H   0  0  0  0  0  0  0  0  0  0  0  0
  1  6  2  0
  2  1  1  0
  3  4  1  0
  3  2  2  0
  4  5  2  0
  5  6  1  0
  7  3  1  0
  8  7  1  0
  9  8  2  0
 10  9  1  0
 10 12  1  0
 11 10  2  0
 12 13  1  0
 13  7  1  0
 13 14  2  0
 15 12  1  0
 15 18  1  0
 16 15  1  0
 17 15  1  0
  1 19  1  0
  2 20  1  0
  5 21  1  0
  8 22  1  0
 23 24  1  0
 24 25  2  0
 24 26  2  0
 24 27  1  0
 27 28  2  0
 28 29  1  0
 29 30  1  0
 29 31  2  0
 31 32  1  0
 31 33  1  0
 33 34  2  0
 34 27  1  0
 33 35  1  0
 34 36  1  0
  9 28  1  0
M  ISO  7  19  14  20  14  21  14  22  14  23  12  30  15  32  16
M  END
>  <DihAtoms>  (1) 
7,8,27,26

>  <DihDeg>  (1) 
90.00276794283151

$$$$
