REMARK  Name = 
REMARK  5 active torsions:
REMARK  status: ('A' for Active; 'I' for Inactive)
REMARK    1  A    between atoms: C_1  and  C_9
REMARK    2  A    between atoms: C_5  and  C_14
REMARK    3  A    between atoms: C_11  and  O_13
REMARK    4  A    between atoms: O_13  and  C_27
REMARK    5  A    between atoms: S_23  and  C_26
REMARK                            x       y       z     vdW  Elec       q    Type
REMARK                         _______ _______ _______ _____ _____    ______ ____
ROOT
ATOM      1  C   UNL     1      37.603  30.347  51.071  0.00  0.00    +0.000 A 
ATOM      2  C   UNL     1      38.049  30.912  49.853  0.00  0.00    +0.000 A 
ATOM      3  C   UNL     1      37.379  30.548  48.686  0.00  0.00    +0.000 A 
ATOM      4  N   UNL     1      36.361  29.688  48.808  0.00  0.00    +0.000 NA
ATOM      5  C   UNL     1      35.952  29.162  49.978  0.00  0.00    +0.000 A 
ATOM      6  N   UNL     1      36.583  29.500  51.109  0.00  0.00    +0.000 NA
ATOM      7  H   UNL     1      38.160  30.665  51.951  0.00  0.00    +0.000 HD
ATOM      8  H   UNL     1      38.883  31.608  49.796  0.00  0.00    +0.000 HD
ENDROOT
BRANCH   3   9
ATOM      9  C   UNL     1      37.749  31.072  47.387  0.00  0.00    +0.000 A 
ATOM     10  C   UNL     1      36.995  30.741  46.262  0.00  0.00    +0.000 A 
ATOM     11  C   UNL     1      37.301  31.217  45.001  0.00  0.00    +0.000 A 
ATOM     12  N   UNL     1      38.372  32.034  44.845  0.00  0.00    +0.000 NA
ATOM     13  C   UNL     1      39.079  32.335  45.943  0.00  0.00    +0.000 A 
ATOM     14  N   UNL     1      38.799  31.884  47.177  0.00  0.00    +0.000 NA
ATOM     15  H   UNL     1      36.150  30.088  46.429  0.00  0.00    +0.000 HD
ATOM     16  H   UNL     1      36.679  30.927  44.163  0.00  0.00    +0.000 HD
BRANCH  13  17
ATOM     17  C   UNL     1      40.259  33.230  45.803  0.00  0.00    +0.000 C 
ATOM     18  F   UNL     1      40.389  33.959  46.995  0.00  0.00    +0.000 F 
ATOM     19  F   UNL     1      41.399  32.512  45.544  0.00  0.00    +0.000 F 
ATOM     20  F   UNL     1      40.077  34.175  44.820  0.00  0.00    +0.000 F 
ENDBRANCH  13  17
ENDBRANCH   3   9
BRANCH   5  21
ATOM     21  O   UNL     1      34.883  28.292  49.891  0.00  0.00    +0.000 OA
BRANCH  21  23
ATOM     22  C   UNL     1      33.763  29.048  48.003  0.00  0.00    +0.000 A 
ATOM     23  C   UNL     1      34.276  27.968  48.688  0.00  0.00    +0.000 A 
ATOM     24  C   UNL     1      34.188  26.698  48.212  0.00  0.00    +0.000 A 
ATOM     25  H   UNL     1      34.605  25.905  48.789  0.00  0.00    +0.000 HD
ATOM     26  C   UNL     1      33.571  26.448  47.007  0.00  0.00    +0.000 A 
ATOM     27  H   UNL     1      33.501  25.431  46.626  0.00  0.00    +0.000 HD
ATOM     28  C   UNL     1      33.036  27.486  46.272  0.00  0.00    +0.000 A 
ATOM     29  C   UNL     1      33.142  28.763  46.782  0.00  0.00    +0.000 A 
BRANCH  22  31
ATOM     30  H   UNL     1      32.585  31.199  48.871  0.00  0.00    +0.000 HD
ATOM     31  S   UNL     1      33.782  30.732  48.429  0.00  0.00    +0.000 S 
ATOM     32  O   UNL     1      34.935  31.088  49.348  0.00  0.00    +0.000 OA
ATOM     33  O   UNL     1      34.075  31.533  47.163  0.00  0.00    +0.000 OA
ENDBRANCH  22  31
ENDBRANCH  21  23
ENDBRANCH   5  21
TORSDOF 5
