
 OpenBabel03272504093D

 36 38  0  0  0  0  0  0  0  0999 V2000
   36.5760   30.4510   49.7260 C   0  0  0  0  0  0  0  0  0  0  0  0
   36.4910   30.6220   48.3560 C   0  0  0  0  0  0  0  0  0  0  0  0
   35.2990   30.2610   47.6700 C   0  0  0  0  0  0  0  0  0  0  0  0
   34.2980   29.7620   48.4160 N   0  0  0  0  0  0  0  0  0  0  0  0
   34.4070   29.6030   49.7710 C   0  0  0  0  0  0  0  0  0  0  0  0
   35.5390   29.9480   50.4050 N   0  0  0  0  0  0  0  0  0  0  0  0
   33.2830   29.0680   50.4720 N   0  0  0  0  0  0  0  0  0  0  0  0
   37.5120   30.7400   50.2330 H   0  0  0  0  0  0  0  0  0  0  0  0
   32.9520   28.0960   50.4780 H   0  0  0  0  0  0  0  0  0  0  0  0
   32.8760   29.9050   50.9780 H   0  0  0  0  0  0  0  0  0  0  0  0
   37.7300   33.2570   49.2460 Cl  0  0  0  0  0  0  0  0  0  0  0  0
   38.3470   32.3500   47.8970 C   0  0  0  0  0  0  0  0  0  0  0  0
   37.6640   31.1890   47.6570 C   0  0  0  0  0  0  0  0  0  0  0  0
   38.1000   30.3870   46.5930 C   0  0  0  0  0  0  0  0  0  0  0  0
   39.1500   30.7180   45.8110 C   0  0  0  0  0  0  0  0  0  0  0  0
   39.8280   31.9040   46.0730 C   0  0  0  0  0  0  0  0  0  0  0  0
   41.1920   32.3840   45.0990 Cl  0  0  0  0  0  0  0  0  0  0  0  0
   39.4220   32.6890   47.0960 C   0  0  0  0  0  0  0  0  0  0  0  0
   37.6540   29.4420   46.3140 H   0  0  0  0  0  0  0  0  0  0  0  0
   39.5300   30.1340   44.9740 H   0  0  0  0  0  0  0  0  0  0  0  0
   39.9160   33.6410   47.3560 H   0  0  0  0  0  0  0  0  0  0  0  0
   35.2310   30.4710   46.2270 C   0  0  0  0  0  0  0  0  0  0  0  0
   35.4290   31.5400   46.0160 H   0  0  0  0  0  0  0  0  0  0  0  0
   36.0860   29.9240   45.7470 H   0  0  0  0  0  0  0  0  0  0  0  0
   33.7740   29.1450   44.5970 C   0  0  0  0  0  0  0  0  0  0  0  0
   33.9450   30.0740   45.6020 C   0  0  0  0  0  0  0  0  0  0  0  0
   32.7770   30.6610   46.0800 C   0  0  0  0  0  0  0  0  0  0  0  0
   32.8700   31.4060   46.8840 H   0  0  0  0  0  0  0  0  0  0  0  0
   31.5010   30.3950   45.6400 C   0  0  0  0  0  0  0  0  0  0  0  0
   30.6560   30.9310   46.1030 H   0  0  0  0  0  0  0  0  0  0  0  0
   31.3510   29.4580   44.6300 C   0  0  0  0  0  3  0  0  0  0  0  0
   32.5050   28.8670   44.1440 C   0  0  0  0  0  3  0  0  0  0  0  0
   36.1470   28.2870   44.8770 H   0  0  0  0  0  0  0  0  0  0  0  0
   35.1820   28.3860   43.9260 S   0  0  0  0  0  0  0  0  0  0  0  0
   34.8280   26.9590   43.5120 O   0  0  0  0  0  0  0  0  0  0  0  0
   35.6540   29.0440   42.6600 O   0  0  0  0  0  0  0  0  0  0  0  0
  1  8  1  0  0  0  0
  1  6  1  0  0  0  0
  2  1  2  0  0  0  0
  3  2  1  0  0  0  0
  3  4  2  0  0  0  0
  4  5  1  0  0  0  0
  5  6  2  0  0  0  0
  5  7  1  0  0  0  0
  7  9  1  0  0  0  0
  7 10  1  0  0  0  0
 12 11  1  0  0  0  0
 13 12  1  0  0  0  0
 13  2  1  0  0  0  0
 14 13  2  0  0  0  0
 15 16  2  0  0  0  0
 15 14  1  0  0  0  0
 16 18  1  0  0  0  0
 17 16  1  0  0  0  0
 18 21  1  0  0  0  0
 18 12  2  0  0  0  0
 19 14  1  0  0  0  0
 20 15  1  0  0  0  0
 22  3  1  0  0  0  0
 23 22  1  0  0  0  0
 24 22  1  0  0  0  0
 25 26  1  0  0  0  0
 26 27  2  0  0  0  0
 26 22  1  0  0  0  0
 27 28  1  0  0  0  0
 29 27  1  0  0  0  0
 29 30  1  0  0  0  0
 31 29  2  0  0  0  0
 32 25  2  0  0  0  0
 32 31  1  0  0  0  0
 34 25  1  0  0  0  0
 34 33  1  0  0  0  0
 35 34  2  0  0  0  0
 36 34  2  0  0  0  0
M  END
>  <minimizedAffinity>
-5.406703

>  <minimizedRMSD>
1.71689689

$$$$
