
 OpenBabel03272510113D

 31 33  0  0  0  0  0  0  0  0999 V2000
   36.6520   27.6880   33.1640 C   0  0  0  0  0  0  0  0  0  0  0  0
   37.2080   27.6500   34.4040 C   0  0  0  0  0  0  0  0  0  0  0  0
   37.7470   26.5030   34.9680 C   0  0  0  0  0  0  0  0  0  0  0  0
   37.7340   25.3150   34.2650 C   0  0  0  0  0  0  0  0  0  0  0  0
   37.1640   25.3760   33.0030 C   0  0  0  0  0  0  0  0  0  0  0  0
   36.6530   26.5150   32.4970 N   0  0  0  0  0  0  0  0  0  0  0  0
   37.2540   28.5380   35.0140 H   0  0  0  0  0  0  0  0  0  0  0  0
   38.1910   26.4670   35.9580 H   0  0  0  0  0  0  0  0  0  0  0  0
   37.0910   24.5210   32.3520 H   0  0  0  0  0  0  0  0  0  0  0  0
   36.2580   29.2590   31.2400 C   0  0  0  0  0  0  0  0  0  0  0  0
   36.0900   28.8890   32.5750 C   0  0  0  0  0  0  0  0  0  0  0  0
   35.3320   29.7290   33.3920 C   0  0  0  0  0  0  0  0  0  0  0  0
   34.7930   30.8650   32.8590 N   0  0  0  0  0  0  0  0  0  0  0  0
   34.9830   31.1820   31.5630 C   0  0  0  0  0  0  0  0  0  0  0  0
   35.7130   30.3870   30.7450 N   0  0  0  0  0  0  0  0  0  0  0  0
   36.8530   28.5700   30.6620 H   0  0  0  0  0  0  0  0  0  0  0  0
   35.1290   29.5490   34.4480 H   0  0  0  0  0  0  0  0  0  0  0  0
   34.5400   32.0960   31.1690 H   0  0  0  0  0  0  0  0  0  0  0  0
   38.2450   24.1150   34.7350 O   0  0  0  0  0  0  0  0  0  0  0  0
   39.6850   23.2480   36.3840 C   0  0  0  0  0  0  0  0  0  0  0  0
   38.4770   23.8310   36.0520 C   0  0  0  0  0  0  0  0  0  0  0  0
   37.5460   24.1120   37.0340 C   0  0  0  0  0  0  0  0  0  0  0  0
   36.5820   24.5760   36.7880 H   0  0  0  0  0  0  0  0  0  0  0  0
   37.8600   23.7920   38.3520 C   0  0  0  0  0  0  0  0  0  0  0  0
   37.1270   24.0110   39.1430 H   0  0  0  0  0  0  0  0  0  0  0  0
   39.0630   23.2050   38.7150 C   0  0  0  0  0  3  0  0  0  0  0  0
   39.9830   22.9330   37.7110 C   0  0  0  0  0  3  0  0  0  0  0  0
   40.2110   22.4350   34.0040 H   0  0  0  0  0  0  0  0  0  0  0  0
   40.8570   22.8950   35.1340 S   0  0  0  0  0  0  0  0  0  0  0  0
   41.6180   24.1600   34.8610 O   0  0  0  0  0  0  0  0  0  0  0  0
   41.8300   21.8760   35.6440 O   0  0  0  0  0  0  0  0  0  0  0  0
  1  2  1  0  0  0  0
  2  3  2  0  0  0  0
  2  7  1  0  0  0  0
  3  8  1  0  0  0  0
  4 19  1  0  0  0  0
  4  3  1  0  0  0  0
  5  4  2  0  0  0  0
  6  5  1  0  0  0  0
  6  1  2  0  0  0  0
  9  5  1  0  0  0  0
 10 11  1  0  0  0  0
 11  1  1  0  0  0  0
 11 12  2  0  0  0  0
 12 17  1  0  0  0  0
 13 12  1  0  0  0  0
 14 13  2  0  0  0  0
 15 10  2  0  0  0  0
 15 14  1  0  0  0  0
 16 10  1  0  0  0  0
 18 14  1  0  0  0  0
 19 21  1  0  0  0  0
 20 27  1  0  0  0  0
 21 20  2  0  0  0  0
 21 22  1  0  0  0  0
 22 24  2  0  0  0  0
 23 22  1  0  0  0  0
 24 26  1  0  0  0  0
 24 25  1  0  0  0  0
 27 26  2  0  0  0  0
 28 29  1  0  0  0  0
 29 31  2  0  0  0  0
 29 20  1  0  0  0  0
 30 29  2  0  0  0  0
M  END
>  <minimizedAffinity>
-5.19862127

$$$$

 OpenBabel03272510113D

 31 33  0  0  0  0  0  0  0  0999 V2000
   37.0470   27.4550   34.0540 C   0  0  0  0  0  0  0  0  0  0  0  0
   37.7090   27.4730   35.2420 C   0  0  0  0  0  0  0  0  0  0  0  0
   38.5480   26.4550   35.6670 C   0  0  0  0  0  0  0  0  0  0  0  0
   38.7460   25.3440   34.8720 C   0  0  0  0  0  0  0  0  0  0  0  0
   38.0630   25.3450   33.6660 C   0  0  0  0  0  0  0  0  0  0  0  0
   37.2580   26.3600   33.2960 N   0  0  0  0  0  0  0  0  0  0  0  0
   37.6040   28.3070   35.9160 H   0  0  0  0  0  0  0  0  0  0  0  0
   39.0790   26.4650   36.6140 H   0  0  0  0  0  0  0  0  0  0  0  0
   38.1300   24.5390   32.9550 H   0  0  0  0  0  0  0  0  0  0  0  0
   35.5820   29.4580   34.4620 C   0  0  0  0  0  0  0  0  0  0  0  0
   36.1700   28.5220   33.6100 C   0  0  0  0  0  0  0  0  0  0  0  0
   35.8960   28.6220   32.2450 C   0  0  0  0  0  0  0  0  0  0  0  0
   35.0740   29.6200   31.8040 N   0  0  0  0  0  0  0  0  0  0  0  0
   34.5280   30.5010   32.6640 C   0  0  0  0  0  0  0  0  0  0  0  0
   34.7740   30.4300   33.9950 N   0  0  0  0  0  0  0  0  0  0  0  0
   35.8320   29.3270   35.5020 H   0  0  0  0  0  0  0  0  0  0  0  0
   36.2950   27.9540   31.4820 H   0  0  0  0  0  0  0  0  0  0  0  0
   33.8750   31.2850   32.2810 H   0  0  0  0  0  0  0  0  0  0  0  0
   39.5620   24.2730   35.2030 O   0  0  0  0  0  0  0  0  0  0  0  0
   41.5280   23.4310   36.1890 C   0  0  0  0  0  0  0  0  0  0  0  0
   40.9200   24.3430   35.3480 C   0  0  0  0  0  0  0  0  0  0  0  0
   41.6750   25.2890   34.6810 C   0  0  0  0  0  0  0  0  0  0  0  0
   41.2080   26.0210   34.0090 H   0  0  0  0  0  0  0  0  0  0  0  0
   43.0530   25.2940   34.8830 C   0  0  0  0  0  0  0  0  0  0  0  0
   43.6650   26.0420   34.3580 H   0  0  0  0  0  0  0  0  0  0  0  0
   43.6920   24.3920   35.7210 C   0  0  0  0  0  3  0  0  0  0  0  0
   42.9100   23.4510   36.3780 C   0  0  0  0  0  3  0  0  0  0  0  0
   39.6990   21.6280   36.1410 H   0  0  0  0  0  0  0  0  0  0  0  0
   40.5620   22.2380   37.0270 S   0  0  0  0  0  0  0  0  0  0  0  0
   41.5060   21.2510   37.6500 O   0  0  0  0  0  0  0  0  0  0  0  0
   39.8040   22.9080   38.1340 O   0  0  0  0  0  0  0  0  0  0  0  0
  1  2  1  0  0  0  0
  2  3  2  0  0  0  0
  2  7  1  0  0  0  0
  3  8  1  0  0  0  0
  4 19  1  0  0  0  0
  4  3  1  0  0  0  0
  5  4  2  0  0  0  0
  6  5  1  0  0  0  0
  6  1  2  0  0  0  0
  9  5  1  0  0  0  0
 10 16  1  0  0  0  0
 11  1  1  0  0  0  0
 11 10  2  0  0  0  0
 12 11  1  0  0  0  0
 13 12  2  0  0  0  0
 13 14  1  0  0  0  0
 14 15  2  0  0  0  0
 15 10  1  0  0  0  0
 17 12  1  0  0  0  0
 18 14  1  0  0  0  0
 19 21  1  0  0  0  0
 20 27  1  0  0  0  0
 20 29  1  0  0  0  0
 21 20  2  0  0  0  0
 22 24  2  0  0  0  0
 22 21  1  0  0  0  0
 23 22  1  0  0  0  0
 24 26  1  0  0  0  0
 25 24  1  0  0  0  0
 26 27  2  0  0  0  0
 28 29  1  0  0  0  0
 29 30  2  0  0  0  0
 29 31  2  0  0  0  0
M  END
>  <minimizedAffinity>
-5.14680481

$$$$

 OpenBabel03272510113D

 31 33  0  0  0  0  0  0  0  0999 V2000
   38.0540   25.7810   34.8800 C   0  0  0  0  0  0  0  0  0  0  0  0
   38.0310   26.8630   35.7030 C   0  0  0  0  0  0  0  0  0  0  0  0
   37.3720   28.0450   35.3970 C   0  0  0  0  0  0  0  0  0  0  0  0
   36.6930   28.1680   34.2020 C   0  0  0  0  0  0  0  0  0  0  0  0
   36.7280   27.0540   33.3790 C   0  0  0  0  0  0  0  0  0  0  0  0
   37.3830   25.9270   33.7200 N   0  0  0  0  0  0  0  0  0  0  0  0
   38.5390   26.8420   36.6530 H   0  0  0  0  0  0  0  0  0  0  0  0
   37.3510   28.9110   36.0510 H   0  0  0  0  0  0  0  0  0  0  0  0
   36.2390   27.0190   32.4200 H   0  0  0  0  0  0  0  0  0  0  0  0
   38.1010   23.3710   35.5990 C   0  0  0  0  0  0  0  0  0  0  0  0
   38.7430   24.5450   35.2020 C   0  0  0  0  0  0  0  0  0  0  0  0
   40.1350   24.5260   35.1100 C   0  0  0  0  0  0  0  0  0  0  0  0
   40.8050   23.3730   35.4070 N   0  0  0  0  0  0  0  0  0  0  0  0
   40.1420   22.2630   35.7870 C   0  0  0  0  0  0  0  0  0  0  0  0
   38.7910   22.2500   35.8860 N   0  0  0  0  0  0  0  0  0  0  0  0
   37.0270   23.4510   35.6510 H   0  0  0  0  0  0  0  0  0  0  0  0
   40.7490   25.3760   34.8110 H   0  0  0  0  0  0  0  0  0  0  0  0
   40.7060   21.3590   36.0180 H   0  0  0  0  0  0  0  0  0  0  0  0
   36.0040   29.3030   33.8010 O   0  0  0  0  0  0  0  0  0  0  0  0
   34.0060   30.2960   34.5530 C   0  0  0  0  0  0  0  0  0  0  0  0
   35.3790   30.1750   34.6480 C   0  0  0  0  0  0  0  0  0  0  0  0
   36.0820   30.9180   35.5780 C   0  0  0  0  0  0  0  0  0  0  0  0
   37.1730   30.8330   35.6670 H   0  0  0  0  0  0  0  0  0  0  0  0
   35.3710   31.7840   36.4030 C   0  0  0  0  0  0  0  0  0  0  0  0
   35.9200   32.3820   37.1470 H   0  0  0  0  0  0  0  0  0  0  0  0
   33.9930   31.9290   36.3310 C   0  0  0  0  0  3  0  0  0  0  0  0
   33.3100   31.1700   35.3900 C   0  0  0  0  0  3  0  0  0  0  0  0
   33.8990   28.2880   32.9550 H   0  0  0  0  0  0  0  0  0  0  0  0
   33.1260   29.3510   33.3740 S   0  0  0  0  0  0  0  0  0  0  0  0
   31.8540   28.8890   34.0250 O   0  0  0  0  0  0  0  0  0  0  0  0
   32.7550   30.2290   32.2170 O   0  0  0  0  0  0  0  0  0  0  0  0
  1 11  1  0  0  0  0
  1  2  1  0  0  0  0
  2  7  1  0  0  0  0
  3  2  2  0  0  0  0
  3  8  1  0  0  0  0
  4  3  1  0  0  0  0
  5  6  1  0  0  0  0
  5  4  2  0  0  0  0
  6  1  2  0  0  0  0
  9  5  1  0  0  0  0
 10 16  1  0  0  0  0
 10 15  1  0  0  0  0
 11 10  2  0  0  0  0
 12 11  1  0  0  0  0
 12 13  2  0  0  0  0
 13 14  1  0  0  0  0
 14 15  2  0  0  0  0
 14 18  1  0  0  0  0
 17 12  1  0  0  0  0
 19  4  1  0  0  0  0
 19 21  1  0  0  0  0
 20 21  2  0  0  0  0
 20 27  1  0  0  0  0
 21 22  1  0  0  0  0
 22 23  1  0  0  0  0
 22 24  2  0  0  0  0
 24 25  1  0  0  0  0
 26 24  1  0  0  0  0
 27 26  2  0  0  0  0
 28 29  1  0  0  0  0
 29 30  2  0  0  0  0
 29 20  1  0  0  0  0
 31 29  2  0  0  0  0
M  END
>  <minimizedAffinity>
-5.11891794

$$$$

 OpenBabel03272510113D

 31 33  0  0  0  0  0  0  0  0999 V2000
   36.5080   22.8090   32.1100 C   0  0  0  0  0  0  0  0  0  0  0  0
   35.8810   23.7250   31.3240 C   0  0  0  0  0  0  0  0  0  0  0  0
   36.2390   25.0640   31.2730 C   0  0  0  0  0  0  0  0  0  0  0  0
   37.2820   25.5310   32.0470 C   0  0  0  0  0  0  0  0  0  0  0  0
   37.9080   24.5810   32.8400 C   0  0  0  0  0  0  0  0  0  0  0  0
   37.5230   23.2900   32.8560 N   0  0  0  0  0  0  0  0  0  0  0  0
   35.0580   23.4350   30.6920 H   0  0  0  0  0  0  0  0  0  0  0  0
   35.7410   25.7980   30.6470 H   0  0  0  0  0  0  0  0  0  0  0  0
   38.7330   24.8150   33.4900 H   0  0  0  0  0  0  0  0  0  0  0  0
   35.7280   20.7490   33.3240 C   0  0  0  0  0  0  0  0  0  0  0  0
   36.1330   21.4080   32.1620 C   0  0  0  0  0  0  0  0  0  0  0  0
   36.1770   20.6710   30.9780 C   0  0  0  0  0  0  0  0  0  0  0  0
   35.8280   19.3510   31.0030 N   0  0  0  0  0  0  0  0  0  0  0  0
   35.4440   18.7560   32.1500 C   0  0  0  0  0  0  0  0  0  0  0  0
   35.3900   19.4450   33.3150 N   0  0  0  0  0  0  0  0  0  0  0  0
   35.7140   21.3720   34.2030 H   0  0  0  0  0  0  0  0  0  0  0  0
   36.4750   21.0720   30.0090 H   0  0  0  0  0  0  0  0  0  0  0  0
   35.1720   17.7010   32.1370 H   0  0  0  0  0  0  0  0  0  0  0  0
   37.7180   26.8470   32.0700 O   0  0  0  0  0  0  0  0  0  0  0  0
   36.7070   28.9410   31.7040 C   0  0  0  0  0  0  0  0  0  0  0  0
   36.9960   27.8980   32.5630 C   0  0  0  0  0  0  0  0  0  0  0  0
   36.5610   27.9330   33.8740 C   0  0  0  0  0  0  0  0  0  0  0  0
   36.7820   27.1120   34.5690 H   0  0  0  0  0  0  0  0  0  0  0  0
   35.8310   29.0400   34.2970 C   0  0  0  0  0  0  0  0  0  0  0  0
   35.4790   29.0790   35.3390 H   0  0  0  0  0  0  0  0  0  0  0  0
   35.5260   30.1020   33.4600 C   0  0  0  0  0  3  0  0  0  0  0  0
   35.9730   30.0440   32.1470 C   0  0  0  0  0  3  0  0  0  0  0  0
   36.7110   27.8000   29.4030 H   0  0  0  0  0  0  0  0  0  0  0  0
   37.2630   28.8880   30.0470 S   0  0  0  0  0  0  0  0  0  0  0  0
   36.8620   30.1800   29.3950 O   0  0  0  0  0  0  0  0  0  0  0  0
   38.7600   28.8140   30.0320 O   0  0  0  0  0  0  0  0  0  0  0  0
  1 11  1  0  0  0  0
  1  6  1  0  0  0  0
  2  1  2  0  0  0  0
  3  2  1  0  0  0  0
  3  4  2  0  0  0  0
  4 19  1  0  0  0  0
  4  5  1  0  0  0  0
  5  6  2  0  0  0  0
  5  9  1  0  0  0  0
  7  2  1  0  0  0  0
  8  3  1  0  0  0  0
 10 16  1  0  0  0  0
 11 10  2  0  0  0  0
 12 13  2  0  0  0  0
 12 11  1  0  0  0  0
 13 14  1  0  0  0  0
 14 15  2  0  0  0  0
 15 10  1  0  0  0  0
 17 12  1  0  0  0  0
 18 14  1  0  0  0  0
 19 21  1  0  0  0  0
 20 27  2  0  0  0  0
 20 21  1  0  0  0  0
 21 22  2  0  0  0  0
 22 24  1  0  0  0  0
 22 23  1  0  0  0  0
 24 25  1  0  0  0  0
 26 24  2  0  0  0  0
 27 26  1  0  0  0  0
 28 29  1  0  0  0  0
 29 20  1  0  0  0  0
 30 29  2  0  0  0  0
 31 29  2  0  0  0  0
M  END
>  <minimizedAffinity>
-5.09637451

$$$$

 OpenBabel03272510113D

 31 33  0  0  0  0  0  0  0  0999 V2000
   37.7510   27.1750   32.3080 C   0  0  0  0  0  0  0  0  0  0  0  0
   38.8530   27.1330   33.1020 C   0  0  0  0  0  0  0  0  0  0  0  0
   39.2060   26.0310   33.8670 C   0  0  0  0  0  0  0  0  0  0  0  0
   38.4200   24.8960   33.8490 C   0  0  0  0  0  0  0  0  0  0  0  0
   37.3010   24.9600   33.0320 C   0  0  0  0  0  0  0  0  0  0  0  0
   37.0000   26.0540   32.3070 N   0  0  0  0  0  0  0  0  0  0  0  0
   39.5150   27.9810   33.1690 H   0  0  0  0  0  0  0  0  0  0  0  0
   40.0850   25.9930   34.5030 H   0  0  0  0  0  0  0  0  0  0  0  0
   36.6060   24.1440   32.9280 H   0  0  0  0  0  0  0  0  0  0  0  0
   36.3800   29.2350   31.8550 C   0  0  0  0  0  0  0  0  0  0  0  0
   37.3840   28.3280   31.5080 C   0  0  0  0  0  0  0  0  0  0  0  0
   38.0760   28.5490   30.3160 C   0  0  0  0  0  0  0  0  0  0  0  0
   37.7470   29.6300   29.5480 N   0  0  0  0  0  0  0  0  0  0  0  0
   36.7700   30.4780   29.9230 C   0  0  0  0  0  0  0  0  0  0  0  0
   36.0810   30.2910   31.0740 N   0  0  0  0  0  0  0  0  0  0  0  0
   35.8840   29.0100   32.7850 H   0  0  0  0  0  0  0  0  0  0  0  0
   38.8780   27.9150   29.9390 H   0  0  0  0  0  0  0  0  0  0  0  0
   36.5320   31.3300   29.2870 H   0  0  0  0  0  0  0  0  0  0  0  0
   38.6820   23.7440   34.5730 O   0  0  0  0  0  0  0  0  0  0  0  0
   39.7550   22.9910   36.5290 C   0  0  0  0  0  0  0  0  0  0  0  0
   38.7080   23.6720   35.9390 C   0  0  0  0  0  0  0  0  0  0  0  0
   37.7280   24.2570   36.7180 C   0  0  0  0  0  0  0  0  0  0  0  0
   36.8900   24.8020   36.2650 H   0  0  0  0  0  0  0  0  0  0  0  0
   37.8280   24.1380   38.1020 C   0  0  0  0  0  0  0  0  0  0  0  0
   37.0540   24.5990   38.7330 H   0  0  0  0  0  0  0  0  0  0  0  0
   38.8660   23.4600   38.7240 C   0  0  0  0  0  3  0  0  0  0  0  0
   39.8390   22.8820   37.9180 C   0  0  0  0  0  3  0  0  0  0  0  0
   40.4090   21.6620   34.4310 H   0  0  0  0  0  0  0  0  0  0  0  0
   40.9890   22.2540   35.5340 S   0  0  0  0  0  0  0  0  0  0  0  0
   41.9540   23.3340   35.1390 O   0  0  0  0  0  0  0  0  0  0  0  0
   41.7410   21.2440   36.3480 O   0  0  0  0  0  0  0  0  0  0  0  0
  1  2  1  0  0  0  0
  2  7  1  0  0  0  0
  2  3  2  0  0  0  0
  3  8  1  0  0  0  0
  4  3  1  0  0  0  0
  4 19  1  0  0  0  0
  5  4  2  0  0  0  0
  6  1  2  0  0  0  0
  6  5  1  0  0  0  0
  9  5  1  0  0  0  0
 10 16  1  0  0  0  0
 11 10  1  0  0  0  0
 11  1  1  0  0  0  0
 12 11  2  0  0  0  0
 13 14  2  0  0  0  0
 13 12  1  0  0  0  0
 14 15  1  0  0  0  0
 15 10  2  0  0  0  0
 17 12  1  0  0  0  0
 18 14  1  0  0  0  0
 19 21  1  0  0  0  0
 20 27  1  0  0  0  0
 21 20  2  0  0  0  0
 21 22  1  0  0  0  0
 22 24  2  0  0  0  0
 23 22  1  0  0  0  0
 24 26  1  0  0  0  0
 24 25  1  0  0  0  0
 27 26  2  0  0  0  0
 28 29  1  0  0  0  0
 29 31  2  0  0  0  0
 29 20  1  0  0  0  0
 30 29  2  0  0  0  0
M  END
>  <minimizedAffinity>
-5.01210785

$$$$

 OpenBabel03272510113D

 31 33  0  0  0  0  0  0  0  0999 V2000
   35.4990   28.6100   32.9020 C   0  0  0  0  0  0  0  0  0  0  0  0
   36.0600   28.6950   34.1380 C   0  0  0  0  0  0  0  0  0  0  0  0
   37.0120   27.8040   34.6100 C   0  0  0  0  0  0  0  0  0  0  0  0
   37.4380   26.7600   33.8140 C   0  0  0  0  0  0  0  0  0  0  0  0
   36.8550   26.6920   32.5580 C   0  0  0  0  0  0  0  0  0  0  0  0
   35.9320   27.5830   32.1430 N   0  0  0  0  0  0  0  0  0  0  0  0
   35.7770   29.4830   34.8170 H   0  0  0  0  0  0  0  0  0  0  0  0
   37.4620   27.8670   35.5960 H   0  0  0  0  0  0  0  0  0  0  0  0
   37.0990   25.9280   31.8400 H   0  0  0  0  0  0  0  0  0  0  0  0
   34.7720   30.5630   31.4930 C   0  0  0  0  0  0  0  0  0  0  0  0
   34.5040   29.5430   32.4090 C   0  0  0  0  0  0  0  0  0  0  0  0
   33.1950   29.4170   32.8760 C   0  0  0  0  0  0  0  0  0  0  0  0
   32.2410   30.2840   32.4250 N   0  0  0  0  0  0  0  0  0  0  0  0
   32.5470   31.2540   31.5410 C   0  0  0  0  0  0  0  0  0  0  0  0
   33.8080   31.4030   31.0690 N   0  0  0  0  0  0  0  0  0  0  0  0
   35.7990   30.6080   31.1720 H   0  0  0  0  0  0  0  0  0  0  0  0
   32.8610   28.6630   33.5900 H   0  0  0  0  0  0  0  0  0  0  0  0
   31.7630   31.9310   31.2010 H   0  0  0  0  0  0  0  0  0  0  0  0
   38.3820   25.8170   34.1890 O   0  0  0  0  0  0  0  0  0  0  0  0
   38.1670   23.5810   34.8960 C   0  0  0  0  0  0  0  0  0  0  0  0
   38.2260   24.9240   35.2130 C   0  0  0  0  0  0  0  0  0  0  0  0
   38.1310   25.3350   36.5300 C   0  0  0  0  0  0  0  0  0  0  0  0
   38.1770   26.3990   36.7980 H   0  0  0  0  0  0  0  0  0  0  0  0
   37.9740   24.3640   37.5140 C   0  0  0  0  0  0  0  0  0  0  0  0
   37.8970   24.6780   38.5650 H   0  0  0  0  0  0  0  0  0  0  0  0
   37.9100   23.0080   37.2270 C   0  0  0  0  0  3  0  0  0  0  0  0
   38.0100   22.6210   35.8970 C   0  0  0  0  0  3  0  0  0  0  0  0
   39.1900   23.8740   32.5580 H   0  0  0  0  0  0  0  0  0  0  0  0
   38.2890   23.0720   33.2280 S   0  0  0  0  0  0  0  0  0  0  0  0
   38.7190   21.6330   33.2260 O   0  0  0  0  0  0  0  0  0  0  0  0
   36.9330   23.1450   32.5910 O   0  0  0  0  0  0  0  0  0  0  0  0
  1  2  1  0  0  0  0
  2  3  2  0  0  0  0
  2  7  1  0  0  0  0
  3  8  1  0  0  0  0
  4 19  1  0  0  0  0
  4  3  1  0  0  0  0
  5  4  2  0  0  0  0
  6  5  1  0  0  0  0
  6  1  2  0  0  0  0
  9  5  1  0  0  0  0
 10 11  1  0  0  0  0
 11 12  2  0  0  0  0
 11  1  1  0  0  0  0
 12 17  1  0  0  0  0
 13 12  1  0  0  0  0
 14 13  2  0  0  0  0
 15 10  2  0  0  0  0
 15 14  1  0  0  0  0
 16 10  1  0  0  0  0
 18 14  1  0  0  0  0
 19 21  1  0  0  0  0
 20 21  2  0  0  0  0
 20 27  1  0  0  0  0
 21 22  1  0  0  0  0
 22 23  1  0  0  0  0
 22 24  2  0  0  0  0
 24 25  1  0  0  0  0
 26 24  1  0  0  0  0
 27 26  2  0  0  0  0
 28 29  1  0  0  0  0
 29 20  1  0  0  0  0
 30 29  2  0  0  0  0
 31 29  2  0  0  0  0
M  END
>  <minimizedAffinity>
-4.99959135

$$$$

 OpenBabel03272510113D

 31 33  0  0  0  0  0  0  0  0999 V2000
   38.2770   24.8990   34.8660 C   0  0  0  0  0  0  0  0  0  0  0  0
   37.8520   26.1670   35.1110 C   0  0  0  0  0  0  0  0  0  0  0  0
   37.1150   26.9170   34.2060 C   0  0  0  0  0  0  0  0  0  0  0  0
   36.7760   26.3820   32.9790 C   0  0  0  0  0  0  0  0  0  0  0  0
   37.2180   25.0880   32.7500 C   0  0  0  0  0  0  0  0  0  0  0  0
   37.9330   24.3990   33.6620 N   0  0  0  0  0  0  0  0  0  0  0  0
   38.0790   26.6520   36.0460 H   0  0  0  0  0  0  0  0  0  0  0  0
   36.7740   27.9300   34.3960 H   0  0  0  0  0  0  0  0  0  0  0  0
   37.0220   24.5560   31.8350 H   0  0  0  0  0  0  0  0  0  0  0  0
   40.3330   23.6310   35.5680 C   0  0  0  0  0  0  0  0  0  0  0  0
   39.0470   24.1160   35.8140 C   0  0  0  0  0  0  0  0  0  0  0  0
   38.4700   23.8290   37.0520 C   0  0  0  0  0  0  0  0  0  0  0  0
   39.1770   23.0940   37.9610 N   0  0  0  0  0  0  0  0  0  0  0  0
   40.4160   22.6450   37.6780 C   0  0  0  0  0  0  0  0  0  0  0  0
   41.0030   22.9080   36.4860 N   0  0  0  0  0  0  0  0  0  0  0  0
   40.7220   23.8860   34.5960 H   0  0  0  0  0  0  0  0  0  0  0  0
   37.4750   24.1510   37.3620 H   0  0  0  0  0  0  0  0  0  0  0  0
   40.9530   22.0610   38.4240 H   0  0  0  0  0  0  0  0  0  0  0  0
   36.0450   27.0450   32.0050 O   0  0  0  0  0  0  0  0  0  0  0  0
   35.7080   29.3440   31.6250 C   0  0  0  0  0  0  0  0  0  0  0  0
   36.4400   28.1970   31.3840 C   0  0  0  0  0  0  0  0  0  0  0  0
   37.5340   28.2320   30.5400 C   0  0  0  0  0  0  0  0  0  0  0  0
   38.1260   27.3300   30.3380 H   0  0  0  0  0  0  0  0  0  0  0  0
   37.8700   29.4460   29.9470 C   0  0  0  0  0  0  0  0  0  0  0  0
   38.7390   29.4860   29.2730 H   0  0  0  0  0  0  0  0  0  0  0  0
   37.1550   30.6130   30.1680 C   0  0  0  0  0  3  0  0  0  0  0  0
   36.0610   30.5520   31.0220 C   0  0  0  0  0  3  0  0  0  0  0  0
   33.7510   28.0350   32.6530 H   0  0  0  0  0  0  0  0  0  0  0  0
   34.3260   29.2890   32.6950 S   0  0  0  0  0  0  0  0  0  0  0  0
   34.8090   29.6310   34.0740 O   0  0  0  0  0  0  0  0  0  0  0  0
   33.3410   30.3410   32.2810 O   0  0  0  0  0  0  0  0  0  0  0  0
  1  2  1  0  0  0  0
  1 11  1  0  0  0  0
  2  7  1  0  0  0  0
  3  8  1  0  0  0  0
  3  2  2  0  0  0  0
  4  3  1  0  0  0  0
  5  4  2  0  0  0  0
  5  6  1  0  0  0  0
  6  1  2  0  0  0  0
  9  5  1  0  0  0  0
 10 11  2  0  0  0  0
 10 15  1  0  0  0  0
 11 12  1  0  0  0  0
 12 17  1  0  0  0  0
 12 13  2  0  0  0  0
 14 13  1  0  0  0  0
 14 18  1  0  0  0  0
 15 14  2  0  0  0  0
 16 10  1  0  0  0  0
 19  4  1  0  0  0  0
 20 29  1  0  0  0  0
 21 20  1  0  0  0  0
 21 19  1  0  0  0  0
 22 21  2  0  0  0  0
 23 22  1  0  0  0  0
 24 26  2  0  0  0  0
 24 22  1  0  0  0  0
 25 24  1  0  0  0  0
 26 27  1  0  0  0  0
 27 20  2  0  0  0  0
 28 29  1  0  0  0  0
 29 30  2  0  0  0  0
 31 29  2  0  0  0  0
M  END
>  <minimizedAffinity>
-4.98290396

$$$$

 OpenBabel03272510113D

 31 33  0  0  0  0  0  0  0  0999 V2000
   36.7010   28.9090   31.1040 C   0  0  0  0  0  0  0  0  0  0  0  0
   36.8790   28.2620   32.2860 C   0  0  0  0  0  0  0  0  0  0  0  0
   36.0530   28.4340   33.3860 C   0  0  0  0  0  0  0  0  0  0  0  0
   34.9820   29.3010   33.3180 C   0  0  0  0  0  0  0  0  0  0  0  0
   34.8170   29.9500   32.1040 C   0  0  0  0  0  0  0  0  0  0  0  0
   35.6470   29.7500   31.0620 N   0  0  0  0  0  0  0  0  0  0  0  0
   37.6950   27.5690   32.4150 H   0  0  0  0  0  0  0  0  0  0  0  0
   36.1920   27.9190   34.3320 H   0  0  0  0  0  0  0  0  0  0  0  0
   34.0220   30.6520   31.9190 H   0  0  0  0  0  0  0  0  0  0  0  0
   37.5890   29.5810   28.8480 C   0  0  0  0  0  0  0  0  0  0  0  0
   37.5660   28.7280   29.9530 C   0  0  0  0  0  0  0  0  0  0  0  0
   38.4320   27.6330   29.9480 C   0  0  0  0  0  0  0  0  0  0  0  0
   39.2560   27.4430   28.8750 N   0  0  0  0  0  0  0  0  0  0  0  0
   39.2420   28.2930   27.8290 C   0  0  0  0  0  0  0  0  0  0  0  0
   38.4130   29.3640   27.8050 N   0  0  0  0  0  0  0  0  0  0  0  0
   36.8980   30.4060   28.9130 H   0  0  0  0  0  0  0  0  0  0  0  0
   38.5080   26.8990   30.7500 H   0  0  0  0  0  0  0  0  0  0  0  0
   39.9110   28.1130   26.9880 H   0  0  0  0  0  0  0  0  0  0  0  0
   34.0970   29.5450   34.3570 O   0  0  0  0  0  0  0  0  0  0  0  0
   33.1480   30.8350   36.0830 C   0  0  0  0  0  0  0  0  0  0  0  0
   34.2310   30.5510   35.2740 C   0  0  0  0  0  0  0  0  0  0  0  0
   35.4050   31.2700   35.4010 C   0  0  0  0  0  0  0  0  0  0  0  0
   36.2740   31.0570   34.7650 H   0  0  0  0  0  0  0  0  0  0  0  0
   35.4590   32.2790   36.3580 C   0  0  0  0  0  0  0  0  0  0  0  0
   36.3880   32.8580   36.4680 H   0  0  0  0  0  0  0  0  0  0  0  0
   34.3890   32.5880   37.1850 C   0  0  0  0  0  3  0  0  0  0  0  0
   33.2220   31.8500   37.0390 C   0  0  0  0  0  3  0  0  0  0  0  0
   31.4060   29.6960   34.5790 H   0  0  0  0  0  0  0  0  0  0  0  0
   31.6680   29.9190   35.9150 S   0  0  0  0  0  0  0  0  0  0  0  0
   31.8450   28.6330   36.6680 O   0  0  0  0  0  0  0  0  0  0  0  0
   30.5450   30.6760   36.5590 O   0  0  0  0  0  0  0  0  0  0  0  0
  1  2  1  0  0  0  0
  2  7  1  0  0  0  0
  2  3  2  0  0  0  0
  3  8  1  0  0  0  0
  4  3  1  0  0  0  0
  4 19  1  0  0  0  0
  5  4  2  0  0  0  0
  6  1  2  0  0  0  0
  6  5  1  0  0  0  0
  9  5  1  0  0  0  0
 10 16  1  0  0  0  0
 10 11  1  0  0  0  0
 11  1  1  0  0  0  0
 12 11  2  0  0  0  0
 12 17  1  0  0  0  0
 13 12  1  0  0  0  0
 14 13  2  0  0  0  0
 15 14  1  0  0  0  0
 15 10  2  0  0  0  0
 18 14  1  0  0  0  0
 19 21  1  0  0  0  0
 20 27  1  0  0  0  0
 21 22  1  0  0  0  0
 21 20  2  0  0  0  0
 22 24  2  0  0  0  0
 23 22  1  0  0  0  0
 24 25  1  0  0  0  0
 24 26  1  0  0  0  0
 27 26  2  0  0  0  0
 28 29  1  0  0  0  0
 29 20  1  0  0  0  0
 29 31  2  0  0  0  0
 29 30  2  0  0  0  0
M  END
>  <minimizedAffinity>
-4.97507524

$$$$

 OpenBabel03272510113D

 31 33  0  0  0  0  0  0  0  0999 V2000
   35.3860   29.6740   34.1290 C   0  0  0  0  0  0  0  0  0  0  0  0
   36.2270   28.6350   34.3780 C   0  0  0  0  0  0  0  0  0  0  0  0
   36.6780   27.7620   33.4000 C   0  0  0  0  0  0  0  0  0  0  0  0
   36.2720   27.9210   32.0900 C   0  0  0  0  0  0  0  0  0  0  0  0
   35.4160   28.9870   31.8570 C   0  0  0  0  0  0  0  0  0  0  0  0
   35.0050   29.8090   32.8420 N   0  0  0  0  0  0  0  0  0  0  0  0
   36.5870   28.4460   35.3770 H   0  0  0  0  0  0  0  0  0  0  0  0
   37.3490   26.9300   33.5940 H   0  0  0  0  0  0  0  0  0  0  0  0
   35.0260   29.2210   30.8810 H   0  0  0  0  0  0  0  0  0  0  0  0
   35.7450   31.4500   35.8740 C   0  0  0  0  0  0  0  0  0  0  0  0
   34.9160   30.5870   35.1540 C   0  0  0  0  0  0  0  0  0  0  0  0
   33.5510   30.6080   35.4390 C   0  0  0  0  0  0  0  0  0  0  0  0
   33.0860   31.4610   36.4000 N   0  0  0  0  0  0  0  0  0  0  0  0
   33.9240   32.2750   37.0710 C   0  0  0  0  0  0  0  0  0  0  0  0
   35.2540   32.2780   36.8160 N   0  0  0  0  0  0  0  0  0  0  0  0
   36.7870   31.3850   35.6070 H   0  0  0  0  0  0  0  0  0  0  0  0
   32.8040   29.9850   34.9460 H   0  0  0  0  0  0  0  0  0  0  0  0
   33.5220   32.9430   37.8320 H   0  0  0  0  0  0  0  0  0  0  0  0
   36.6630   27.1060   31.0390 O   0  0  0  0  0  0  0  0  0  0  0  0
   37.8540   25.0790   30.9220 C   0  0  0  0  0  0  0  0  0  0  0  0
   36.6500   25.7390   31.0670 C   0  0  0  0  0  0  0  0  0  0  0  0
   35.4780   25.0250   31.2360 C   0  0  0  0  0  0  0  0  0  0  0  0
   34.5130   25.5340   31.3530 H   0  0  0  0  0  0  0  0  0  0  0  0
   35.5510   23.6350   31.2530 C   0  0  0  0  0  0  0  0  0  0  0  0
   34.6250   23.0550   31.3860 H   0  0  0  0  0  0  0  0  0  0  0  0
   36.7450   22.9430   31.1090 C   0  0  0  0  0  3  0  0  0  0  0  0
   37.9080   23.6840   30.9430 C   0  0  0  0  0  3  0  0  0  0  0  0
   39.0780   27.1200   29.9560 H   0  0  0  0  0  0  0  0  0  0  0  0
   39.3310   25.9920   30.7100 S   0  0  0  0  0  0  0  0  0  0  0  0
   39.8450   26.3410   32.0760 O   0  0  0  0  0  0  0  0  0  0  0  0
   40.3550   25.1240   30.0430 O   0  0  0  0  0  0  0  0  0  0  0  0
  1  2  1  0  0  0  0
  1 11  1  0  0  0  0
  2  7  1  0  0  0  0
  3  8  1  0  0  0  0
  3  2  2  0  0  0  0
  4  3  1  0  0  0  0
  5  4  2  0  0  0  0
  5  6  1  0  0  0  0
  6  1  2  0  0  0  0
  9  5  1  0  0  0  0
 10 15  1  0  0  0  0
 11 12  1  0  0  0  0
 11 10  2  0  0  0  0
 12 13  2  0  0  0  0
 13 14  1  0  0  0  0
 14 18  1  0  0  0  0
 15 14  2  0  0  0  0
 16 10  1  0  0  0  0
 17 12  1  0  0  0  0
 19 21  1  0  0  0  0
 19  4  1  0  0  0  0
 20 27  2  0  0  0  0
 20 21  1  0  0  0  0
 21 22  2  0  0  0  0
 22 24  1  0  0  0  0
 22 23  1  0  0  0  0
 24 25  1  0  0  0  0
 26 24  2  0  0  0  0
 27 26  1  0  0  0  0
 28 29  1  0  0  0  0
 29 20  1  0  0  0  0
 29 30  2  0  0  0  0
 31 29  2  0  0  0  0
M  END
>  <minimizedAffinity>
-4.97005177

$$$$
