
 OpenBabel03272509533D

 46 49  0  0  0  0  0  0  0  0999 V2000
   34.6230   28.3380   48.2580 C   0  0  0  0  0  0  0  0  0  0  0  0
   34.3520   29.2690   47.7250 H   0  0  0  0  0  0  0  0  0  0  0  0
   35.6280   28.0140   47.8840 H   0  0  0  0  0  0  0  0  0  0  0  0
   33.6890   27.2040   47.9990 C   0  0  0  0  0  0  0  0  0  0  0  0
   33.7060   26.5190   48.8610 H   0  0  0  0  0  0  0  0  0  0  0  0
   33.9900   26.5940   47.1050 H   0  0  0  0  0  0  0  0  0  0  0  0
   32.2900   27.6480   47.7460 C   0  0  0  0  0  0  0  0  0  0  0  0
   31.3800   27.5880   48.7830 C   0  0  0  0  0  0  0  0  0  0  0  0
   30.0830   27.9730   48.6350 C   0  0  0  0  0  0  0  0  0  0  0  0
   29.6790   28.4200   47.4650 N   0  0  0  0  0  0  0  0  0  0  0  0
   30.5500   28.4900   46.4290 C   0  0  0  0  0  0  0  0  0  0  0  0
   31.8400   28.1090   46.5660 N   0  0  0  0  0  0  0  0  0  0  0  0
   31.7170   27.2210   49.7430 H   0  0  0  0  0  0  0  0  0  0  0  0
   29.3880   27.9150   49.4720 H   0  0  0  0  0  0  0  0  0  0  0  0
   30.6880   30.1450   44.5900 C   0  0  0  0  0  0  0  0  0  0  0  0
   30.1350   28.9830   45.1070 C   0  0  0  0  0  0  0  0  0  0  0  0
   29.1810   28.2980   44.3450 C   0  0  0  0  0  0  0  0  0  0  0  0
   28.7540   27.3870   44.7600 H   0  0  0  0  0  0  0  0  0  0  0  0
   28.7700   28.7300   43.1030 C   0  0  0  0  0  0  0  0  0  0  0  0
   28.0260   28.1540   42.5620 H   0  0  0  0  0  0  0  0  0  0  0  0
   29.2930   29.8680   42.5660 C   0  0  0  0  0  3  0  0  0  0  0  0
   30.2300   30.5310   43.3260 C   0  0  0  0  0  3  0  0  0  0  0  0
   31.7990   30.9670   46.7970 H   0  0  0  0  0  0  0  0  0  0  0  0
   31.8740   31.0700   45.4450 S   0  0  0  0  0  0  0  0  0  0  0  0
   33.2430   30.7040   44.9020 O   0  0  0  0  0  0  0  0  0  0  0  0
   31.6600   32.5350   45.1010 O   0  0  0  0  0  0  0  0  0  0  0  0
   34.7930   28.5300   49.6520 O   0  0  0  0  0  0  0  0  0  0  0  0
   37.3680   30.1600   51.6030 C   0  0  0  0  0  0  0  0  0  0  0  0
   38.0820   30.8070   50.5610 C   0  0  0  0  0  0  0  0  0  0  0  0
   37.6390   30.6430   49.2700 C   0  0  0  0  0  0  0  0  0  0  0  0
   36.5250   29.8560   49.1040 N   0  0  0  0  0  0  0  0  0  0  0  0
   35.8650   29.2550   50.0860 C   0  0  0  0  0  0  0  0  0  0  0  0
   36.2980   29.4130   51.3540 N   0  0  0  0  0  0  0  0  0  0  0  0
   37.7620   30.3230   52.5980 H   0  0  0  0  0  0  0  0  0  0  0  0
   38.9420   31.4150   50.6910 H   0  0  0  0  0  0  0  0  0  0  0  0
   38.9930   33.1820   49.0160 F   0  0  0  0  0  0  0  0  0  0  0  0
   38.8780   32.4030   47.9470 C   0  0  0  0  0  0  0  0  0  0  0  0
   38.2410   31.2250   48.0990 C   0  0  0  0  0  0  0  0  0  0  0  0
   38.1740   30.4790   46.9100 C   0  0  0  0  0  0  0  0  0  0  0  0
   38.7080   30.9140   45.7190 C   0  0  0  0  0  0  0  0  0  0  0  0
   39.3390   32.1150   45.6320 C   0  0  0  0  0  0  0  0  0  0  0  0
   39.4260   32.8760   46.7720 C   0  0  0  0  0  0  0  0  0  0  0  0
   37.6910   29.5040   46.8690 H   0  0  0  0  0  0  0  0  0  0  0  0
   38.6410   30.3160   44.8170 H   0  0  0  0  0  0  0  0  0  0  0  0
   39.7630   32.4750   44.7120 H   0  0  0  0  0  0  0  0  0  0  0  0
   39.9220   33.8350   46.7350 H   0  0  0  0  0  0  0  0  0  0  0  0
  1 27  1  0  0  0  0
  2  1  1  0  0  0  0
  3  1  1  0  0  0  0
  4  1  1  0  0  0  0
  4  5  1  0  0  0  0
  6  4  1  0  0  0  0
  7  4  1  0  0  0  0
  7  8  1  0  0  0  0
  8 13  1  0  0  0  0
  9  8  2  0  0  0  0
  9 14  1  0  0  0  0
 10  9  1  0  0  0  0
 11 12  1  0  0  0  0
 11 10  2  0  0  0  0
 12  7  2  0  0  0  0
 15 16  1  0  0  0  0
 15 24  1  0  0  0  0
 16 11  1  0  0  0  0
 17 18  1  0  0  0  0
 17 16  2  0  0  0  0
 19 17  1  0  0  0  0
 20 19  1  0  0  0  0
 21 19  2  0  0  0  0
 21 22  1  0  0  0  0
 22 15  2  0  0  0  0
 24 23  1  0  0  0  0
 25 24  2  0  0  0  0
 26 24  2  0  0  0  0
 27 32  1  0  0  0  0
 28 34  1  0  0  0  0
 29 35  1  0  0  0  0
 29 28  2  0  0  0  0
 30 29  1  0  0  0  0
 31 30  2  0  0  0  0
 31 32  1  0  0  0  0
 32 33  2  0  0  0  0
 33 28  1  0  0  0  0
 37 38  1  0  0  0  0
 37 36  1  0  0  0  0
 38 30  1  0  0  0  0
 39 38  2  0  0  0  0
 40 39  1  0  0  0  0
 41 40  2  0  0  0  0
 41 42  1  0  0  0  0
 42 37  2  0  0  0  0
 43 39  1  0  0  0  0
 44 40  1  0  0  0  0
 45 41  1  0  0  0  0
 46 42  1  0  0  0  0
M  END
>  <minimizedAffinity>
-6.35302591

>  <minimizedRMSD>
0.882559538

$$$$
