
     RDKit          3D

 47 49  0  0  0  0  0  0  0  0999 V2000
   38.1267   31.4698   48.9411 Br  0  0  0  0  0  0  0  0  0  0  0  0
   36.9306   30.8782   47.5467 C   0  0  0  0  0  0  0  0  0  0  0  0
   37.3074   30.9350   46.2257 C   0  0  0  0  0  0  0  0  0  0  0  0
   36.4186   30.5055   45.2901 C   0  0  0  0  0  0  0  0  0  0  0  0
   35.1648   30.0217   45.6284 C   0  0  0  0  0  0  0  0  0  0  0  0
   34.8141   29.9782   46.9739 C   0  0  0  0  0  0  0  0  0  0  0  0
   35.7027   30.4072   47.9216 C   0  0  0  0  0  0  0  0  0  0  0  0
   39.8766   33.2806   45.1159 C   0  0  0  0  0  0  0  0  0  0  0  0
   41.0706   32.4871   45.1009 C   0  0  0  0  0  0  0  0  0  0  0  0
   40.9465   31.1749   45.4729 C   0  0  0  0  0  0  0  0  0  0  0  0
   39.7208   30.6646   45.8401 N   0  0  0  0  0  0  0  0  0  0  0  0
   38.6277   31.4514   45.8379 C   0  0  0  0  0  0  0  0  0  0  0  0
   38.7204   32.7409   45.4780 N   0  0  0  0  0  0  0  0  0  0  0  0
   35.2172   30.3083   49.2959 C   0  0  0  0  0  0  0  0  0  0  0  0
   34.1066   29.3529   49.5465 C   0  0  0  0  0  0  0  0  0  0  0  0
   34.5975   28.0317   49.4165 N   0  0  0  0  0  0  0  0  0  0  0  0
   33.9053   27.1423   48.5526 C   0  0  0  0  0  0  0  0  0  0  0  0
   32.4699   27.5716   48.5083 C   0  0  0  0  0  0  0  0  0  0  0  0
   36.7682   30.5706   44.2475 H   0  0  0  0  0  0  0  0  0  0  0  0
   34.5813   29.7237   44.7719 H   0  0  0  0  0  0  0  0  0  0  0  0
   33.8305   29.6009   47.0393 H   0  0  0  0  0  0  0  0  0  0  0  0
   40.0258   34.3066   44.8153 H   0  0  0  0  0  0  0  0  0  0  0  0
   42.0523   32.8180   44.8275 H   0  0  0  0  0  0  0  0  0  0  0  0
   41.7175   30.4209   45.5275 H   0  0  0  0  0  0  0  0  0  0  0  0
   36.0840   30.0392   49.9386 H   0  0  0  0  0  0  0  0  0  0  0  0
   34.9022   31.3350   49.6379 H   0  0  0  0  0  0  0  0  0  0  0  0
   33.9015   29.4729   50.6661 H   0  0  0  0  0  0  0  0  0  0  0  0
   33.1843   29.6483   49.0886 H   0  0  0  0  0  0  0  0  0  0  0  0
   35.6310   27.9682   49.3710 H   0  0  0  0  0  0  0  0  0  0  0  0
   34.3265   27.0861   47.5516 H   0  0  0  0  0  0  0  0  0  0  0  0
   33.9845   26.1103   48.9869 H   0  0  0  0  0  0  0  0  0  0  0  0
   31.9833   27.5169   49.5173 H   0  0  0  0  0  0  0  0  0  0  0  0
   32.2164   28.4732   47.9692 H   0  0  0  0  0  0  0  0  0  0  0  0
   34.2847   24.7786   48.8008 H   0  0  0  0  0  0  0  0  0  0  0  0
   33.9180   24.9413   47.5203 S   0  0  0  0  0  0  0  0  0  0  0  0
   34.2714   23.6923   46.7140 O   0  0  0  0  0  0  0  0  0  0  0  0
   34.7697   26.0304   46.8832 O   0  0  0  0  0  0  0  0  0  0  0  0
   32.2352   25.2641   47.2585 C   0  0  0  0  0  0  0  0  0  0  0  0
   31.7857   26.4644   47.7169 C   0  0  0  0  0  0  0  0  0  0  0  0
   30.4191   26.6670   47.4289 C   0  0  0  0  0  0  0  0  0  0  0  0
   29.9190   27.5997   47.7421 H   0  0  0  0  0  0  0  0  0  0  0  0
   29.5655   25.8087   46.7700 C   0  0  0  0  0  0  0  0  0  0  0  0
   28.5284   26.0441   46.5908 H   0  0  0  0  0  0  0  0  0  0  0  0
   30.1297   24.6251   46.3540 C   0  0  0  0  0  0  0  0  0  0  0  0
   31.4561   24.3719   46.6052 C   0  0  0  0  0  0  0  0  0  0  0  0
   29.5599   23.8740   45.8283 H   0  0  0  0  0  0  0  0  0  0  0  0
   31.9122   23.4435   46.2829 H   0  0  0  0  0  0  0  0  0  0  0  0
  2  7  2  0
  2  1  1  0
  3  2  1  0
  4  5  1  0
  4  3  2  0
  5  6  2  0
  6  7  1  0
  7 14  1  0
  8 13  2  0
  9  8  1  0
  9 10  2  0
 10 11  1  0
 11 12  2  0
 12  3  1  0
 13 12  1  0
 14 15  1  0
 16 15  1  0
 17 16  1  0
 18 17  1  0
  4 19  1  0
  5 20  1  0
  6 21  1  0
  8 22  1  0
  9 23  1  0
 10 24  1  0
 14 25  1  0
 14 26  1  0
 15 27  1  0
 15 28  1  0
 16 29  1  0
 17 30  1  0
 17 31  1  0
 18 32  1  0
 18 33  1  0
 34 35  1  0
 35 36  2  0
 35 37  2  0
 35 38  1  0
 38 39  2  0
 39 40  1  0
 40 41  1  0
 40 42  2  0
 42 43  1  0
 42 44  1  0
 44 45  2  0
 45 38  1  0
 44 46  1  0
 45 47  1  0
 18 39  1  0
M  ISO  8  19  14  20  14  21  14  22  14  23  14  24  14  25   8  26   8
M  ISO  8  27   8  28   8  29   5  30   8  31   8  32   8  33   8  34  12
M  ISO  2  41  15  43  16
M  END
>  <DihAtoms>  (1) 
16,17,38,37

>  <DihDeg>  (1) 
-82.60707428973805

$$$$
