REMARK  Name = 
REMARK  4 active torsions:
REMARK  status: ('A' for Active; 'I' for Inactive)
REMARK    1  A    between atoms: C_1  and  C_13
REMARK    2  A    between atoms: C_5  and  C_7
REMARK    3  A    between atoms: C_12  and  C_28
REMARK    4  A    between atoms: S_24  and  C_27
REMARK                            x       y       z     vdW  Elec       q    Type
REMARK                         _______ _______ _______ _____ _____    ______ ____
ROOT
ATOM      1  C   UNL     1      36.355  30.474  46.549  0.00  0.00    +0.000 A 
ATOM      2  C   UNL     1      35.096  29.937  46.507  0.00  0.00    +0.000 A 
ATOM      3  C   UNL     1      34.477  29.674  45.315  0.00  0.00    +0.000 A 
ATOM      4  C   UNL     1      35.086  29.936  44.084  0.00  0.00    +0.000 A 
ATOM      5  C   UNL     1      36.366  30.482  44.096  0.00  0.00    +0.000 A 
ATOM      6  C   UNL     1      36.926  30.719  45.328  0.00  0.00    +0.000 A 
ATOM      7  H   UNL     1      34.545  29.701  47.407  0.00  0.00    +0.000 HD
ATOM      8  H   UNL     1      33.470  29.245  45.280  0.00  0.00    +0.000 HD
ATOM      9  H   UNL     1      34.575  29.719  43.155  0.00  0.00    +0.000 HD
ATOM     10  H   UNL     1      36.828  30.680  43.152  0.00  0.00    +0.000 HD
ENDROOT
BRANCH   1  15
ATOM     11  C   UNL     1      37.419  30.283  50.035  0.00  0.00    +0.000 A 
ATOM     12  C   UNL     1      38.310  31.351  50.159  0.00  0.00    +0.000 A 
ATOM     13  C   UNL     1      38.540  32.137  49.022  0.00  0.00    +0.000 A 
ATOM     14  N   UNL     1      37.881  31.806  47.882  0.00  0.00    +0.000 NA
ATOM     15  C   UNL     1      37.028  30.768  47.797  0.00  0.00    +0.000 A 
ATOM     16  N   UNL     1      36.803  30.012  48.879  0.00  0.00    +0.000 NA
ATOM     17  H   UNL     1      38.829  31.612  51.059  0.00  0.00    +0.000 HD
ATOM     18  H   UNL     1      39.223  32.980  49.063  0.00  0.00    +0.000 HD
BRANCH  11  19
ATOM     19  C   UNL     1      37.168  29.434  51.259  0.00  0.00    +0.000 C 
ATOM     20  F   UNL     1      35.792  29.203  51.385  0.00  0.00    +0.000 F 
ATOM     21  F   UNL     1      37.889  28.300  51.139  0.00  0.00    +0.000 F 
ATOM     22  F   UNL     1      37.528  30.195  52.373  0.00  0.00    +0.000 F 
ENDBRANCH  11  19
ENDBRANCH   1  15
BRANCH   6  24
ATOM     23  C   UNL     1      38.407  32.213  44.190  0.00  0.00    +0.000 A 
ATOM     24  C   UNL     1      38.283  31.297  45.224  0.00  0.00    +0.000 A 
ATOM     25  C   UNL     1      39.361  31.011  46.029  0.00  0.00    +0.000 A 
ATOM     26  H   UNL     1      39.179  30.296  46.800  0.00  0.00    +0.000 HD
ATOM     27  C   UNL     1      40.572  31.634  45.811  0.00  0.00    +0.000 A 
ATOM     28  H   UNL     1      41.404  31.391  46.458  0.00  0.00    +0.000 HD
ATOM     29  C   UNL     1      40.761  32.558  44.795  0.00  0.00    +0.000 A 
ATOM     30  C   UNL     1      39.663  32.807  44.026  0.00  0.00    +0.000 A 
BRANCH  23  32
ATOM     31  H   UNL     1      35.998  33.102  43.834  0.00  0.00    +0.000 HD
ATOM     32  S   UNL     1      37.068  32.631  43.118  0.00  0.00    +0.000 S 
ATOM     33  O   UNL     1      37.552  33.684  42.172  0.00  0.00    +0.000 OA
ATOM     34  O   UNL     1      36.635  31.422  42.336  0.00  0.00    +0.000 OA
ENDBRANCH  23  32
ENDBRANCH   6  24
TORSDOF 4
