
     RDKit          3D

 39 42  0  0  0  0  0  0  0  0999 V2000
   37.4741   31.3459   48.3730 C   0  0  0  0  0  0  0  0  0  0  0  0
   36.7618   30.8779   47.2848 C   0  0  0  0  0  0  0  0  0  0  0  0
   37.2277   31.2193   46.0185 C   0  0  0  0  0  0  0  0  0  0  0  0
   38.3732   32.0053   45.9024 C   0  0  0  0  0  0  0  0  0  0  0  0
   39.0460   32.4860   44.8400 N   0  0  0  0  0  0  0  0  0  0  0  0
   40.0946   33.1969   45.2507 C   0  0  0  0  0  0  0  0  0  0  0  0
   40.1106   33.1832   46.5982 N   0  0  0  0  0  0  0  0  0  0  0  0
   39.0627   32.4574   47.0043 C   0  0  0  0  0  0  0  0  0  0  0  0
   38.6023   32.1201   48.2501 C   0  0  0  0  0  0  0  0  0  0  0  0
   35.6176   29.3385   48.7514 C   0  0  0  0  0  0  0  0  0  0  0  0
   35.5864   30.0685   47.5269 C   0  0  0  0  0  0  0  0  0  0  0  0
   34.4575   29.9253   46.7158 C   0  0  0  0  0  0  0  0  0  0  0  0
   33.4733   29.1059   47.1460 N   0  0  0  0  0  0  0  0  0  0  0  0
   33.5144   28.4267   48.2960 C   0  0  0  0  0  0  0  0  0  0  0  0
   34.5953   28.5497   49.0967 N   0  0  0  0  0  0  0  0  0  0  0  0
   32.3775   27.5613   48.6482 C   0  0  0  0  0  0  0  0  0  0  0  0
   37.2233   31.1587   49.4238 H   0  0  0  0  0  0  0  0  0  0  0  0
   36.6841   30.8629   45.1546 H   0  0  0  0  0  0  0  0  0  0  0  0
   38.7346   32.2911   43.8598 H   0  0  0  0  0  0  0  0  0  0  0  0
   40.7684   33.6721   44.5449 H   0  0  0  0  0  0  0  0  0  0  0  0
   39.1778   32.4991   49.0988 H   0  0  0  0  0  0  0  0  0  0  0  0
   36.3925   29.3192   49.4968 H   0  0  0  0  0  0  0  0  0  0  0  0
   34.4924   30.4931   45.8184 H   0  0  0  0  0  0  0  0  0  0  0  0
   32.2652   27.5473   49.7739 H   0  0  0  0  0  0  0  0  0  0  0  0
   31.4136   27.9452   48.2270 H   0  0  0  0  0  0  0  0  0  0  0  0
   34.7931   26.3536   45.1490 H   0  0  0  0  0  0  0  0  0  0  0  0
   34.5906   26.9016   46.4286 S   0  0  0  0  0  0  0  0  0  0  0  0
   33.8888   28.1956   46.1577 O   0  0  0  0  0  0  0  0  0  0  0  0
   35.9673   27.1045   47.0248 O   0  0  0  0  0  0  0  0  0  0  0  0
   33.6163   25.7912   47.3181 C   0  0  0  0  0  0  0  0  0  0  0  0
   32.6763   26.1692   48.2437 C   0  0  0  0  0  0  0  0  0  0  0  0
   31.9774   25.1205   48.8432 C   0  0  0  0  0  0  0  0  0  0  0  0
   31.2040   25.3314   49.5977 H   0  0  0  0  0  0  0  0  0  0  0  0
   32.1559   23.7800   48.5828 C   0  0  0  0  0  0  0  0  0  0  0  0
   31.5763   23.0198   49.0862 H   0  0  0  0  0  0  0  0  0  0  0  0
   33.0955   23.4075   47.6582 C   0  0  0  0  0  0  0  0  0  0  0  0
   33.7996   24.4282   47.0519 C   0  0  0  0  0  0  0  0  0  0  0  0
   33.2695   22.3863   47.4233 H   0  0  0  0  0  0  0  0  0  0  0  0
   34.5516   24.1132   46.3103 H   0  0  0  0  0  0  0  0  0  0  0  0
  2 11  1  0
  2  1  2  0
  3  2  1  0
  4  3  2  0
  4  8  1  0
  5  6  1  0
  5  4  1  0
  6  7  2  0
  7  8  1  0
  8  9  2  0
  9  1  1  0
 10 15  2  0
 11 10  1  0
 12 13  1  0
 12 11  2  0
 13 14  2  0
 14 16  1  0
 14 15  1  0
  1 17  1  0
  3 18  1  0
  5 19  1  0
  6 20  1  0
  9 21  1  0
 10 22  1  0
 12 23  1  0
 16 24  1  0
 16 25  1  0
 26 27  1  0
 27 28  2  0
 27 29  2  0
 27 30  1  0
 30 31  2  0
 31 32  1  0
 32 33  1  0
 32 34  2  0
 34 35  1  0
 34 36  1  0
 36 37  2  0
 37 30  1  0
 36 38  1  0
 37 39  1  0
 16 31  1  0
M  ISO  8  17  14  18  14  19   9  20  14  21  14  22  14  23  14  24   8
M  ISO  4  25   8  26  12  33  15  35  16
M  END
>  <DihAtoms>  (1) 
13,15,30,29

>  <DihDeg>  (1) 
-79.88868735173955

$$$$
