REMARK  Name = 
REMARK  5 active torsions:
REMARK  status: ('A' for Active; 'I' for Inactive)
REMARK    1  A    between atoms: C_1  and  C_6
REMARK    2  A    between atoms: C_1  and  C_8
REMARK    3  A    between atoms: C_8  and  C_9
REMARK    4  A    between atoms: C_12  and  C_27
REMARK    5  A    between atoms: S_23  and  C_26
REMARK                            x       y       z     vdW  Elec       q    Type
REMARK                         _______ _______ _______ _____ _____    ______ ____
ROOT
ATOM      1  C   UNL     1      34.814  28.824  48.634  0.00  0.00    +0.000 A 
ATOM      2  C   UNL     1      34.586  29.400  47.328  0.00  0.00    +0.000 A 
ATOM      3  S   UNL     1      32.951  28.794  46.963  0.00  0.00    +0.000 S 
ATOM      4  C   UNL     1      32.803  27.866  48.587  0.00  0.00    +0.000 A 
ATOM      5  N   UNL     1      33.848  28.096  49.120  0.00  0.00    +0.000 NA
ATOM      6  H   UNL     1      35.242  30.017  46.764  0.00  0.00    +0.000 HD
ENDROOT
BRANCH   4   8
ATOM      7  C   UNL     1      30.401  27.507  48.485  0.00  0.00    +0.000 A 
ATOM      8  C   UNL     1      31.620  27.084  48.978  0.00  0.00    +0.000 A 
ATOM      9  C   UNL     1      31.760  25.984  49.799  0.00  0.00    +0.000 A 
ATOM     10  H   UNL     1      32.728  25.675  50.171  0.00  0.00    +0.000 HD
ATOM     11  C   UNL     1      30.665  25.247  50.170  0.00  0.00    +0.000 A 
ATOM     12  H   UNL     1      30.673  24.373  50.807  0.00  0.00    +0.000 HD
ATOM     13  C   UNL     1      29.436  25.659  49.684  0.00  0.00    +0.000 A 
ATOM     14  C   UNL     1      29.317  26.762  48.863  0.00  0.00    +0.000 A 
BRANCH   7  16
ATOM     15  H   UNL     1      31.148  28.757  46.362  0.00  0.00    +0.000 HD
ATOM     16  S   UNL     1      30.330  28.913  47.450  0.00  0.00    +0.000 S 
ATOM     17  O   UNL     1      30.621  30.153  48.227  0.00  0.00    +0.000 OA
ATOM     18  O   UNL     1      28.913  29.070  46.930  0.00  0.00    +0.000 OA
ENDBRANCH   7  16
ENDBRANCH   4   8
BRANCH   1  19
ATOM     19  C   UNL     1      36.128  29.118  49.302  0.00  0.00    +0.000 C 
ATOM     20  H   UNL     1      36.342  28.352  50.075  0.00  0.00    +0.000 HD
ATOM     21  H   UNL     1      36.931  29.003  48.544  0.00  0.00    +0.000 HD
BRANCH  19  22
ATOM     22  C   UNL     1      36.103  30.458  49.973  0.00  0.00    +0.000 C 
ATOM     23  H   UNL     1      36.439  30.387  51.041  0.00  0.00    +0.000 HD
ATOM     24  H   UNL     1      35.121  30.936  49.995  0.00  0.00    +0.000 HD
BRANCH  22  29
ATOM     25  C   UNL     1      38.239  33.392  49.171  0.00  0.00    +0.000 A 
ATOM     26  C   UNL     1      39.008  32.928  48.099  0.00  0.00    +0.000 A 
ATOM     27  C   UNL     1      38.783  31.616  47.668  0.00  0.00    +0.000 A 
ATOM     28  N   UNL     1      37.847  30.873  48.298  0.00  0.00    +0.000 NA
ATOM     29  C   UNL     1      37.129  31.371  49.332  0.00  0.00    +0.000 A 
ATOM     30  N   UNL     1      37.312  32.614  49.774  0.00  0.00    +0.000 NA
ATOM     31  H   UNL     1      38.429  34.413  49.490  0.00  0.00    +0.000 HD
ATOM     32  H   UNL     1      39.746  33.572  47.632  0.00  0.00    +0.000 HD
ATOM     33  H   UNL     1      39.370  31.256  46.847  0.00  0.00    +0.000 HD
ENDBRANCH  22  29
ENDBRANCH  19  22
ENDBRANCH   1  19
TORSDOF 5
