
 OpenBabel03272509473D

 28 29  0  0  0  0  0  0  0  0999 V2000
   33.2370   27.5030   48.2980 C   0  0  0  0  0  0  0  0  0  0  0  0
   33.5280   26.5470   48.7990 H   0  0  0  0  0  0  0  0  0  0  0  0
   32.1320   27.5220   48.3400 H   0  0  0  0  0  0  0  0  0  0  0  0
   33.7700   26.1580   46.4100 C   0  0  0  0  0  0  0  0  0  0  0  0
   33.6700   27.4720   46.8810 C   0  0  0  0  0  0  0  0  0  0  0  0
   33.9620   28.5170   46.0390 C   0  0  0  0  0  0  0  0  0  0  0  0
   33.8530   29.4850   46.5030 H   0  0  0  0  0  0  0  0  0  0  0  0
   34.3500   28.2850   44.7390 C   0  0  0  0  0  0  0  0  0  0  0  0
   34.5710   29.1620   44.1170 H   0  0  0  0  0  0  0  0  0  0  0  0
   34.4630   27.0090   44.2300 C   0  0  0  0  0  3  0  0  0  0  0  0
   34.1660   25.9440   45.0870 C   0  0  0  0  0  3  0  0  0  0  0  0
   33.7540   24.7460   48.5840 H   0  0  0  0  0  0  0  0  0  0  0  0
   33.4660   24.6710   47.2510 S   0  0  0  0  0  0  0  0  0  0  0  0
   32.0540   24.1630   47.0610 O   0  0  0  0  0  0  0  0  0  0  0  0
   34.4300   23.6380   46.6930 O   0  0  0  0  0  0  0  0  0  0  0  0
   33.8240   28.6610   49.0520 C   0  0  0  0  0  0  0  0  0  0  0  0
   34.2370   29.3580   48.2650 H   0  0  0  0  0  0  0  0  0  0  0  0
   33.0390   29.2390   49.5540 H   0  0  0  0  0  0  0  0  0  0  0  0
   34.8700   28.2310   49.8960 O   0  0  0  0  0  0  0  0  0  0  0  0
   37.4320   30.3100   51.3680 C   0  0  0  0  0  0  0  0  0  0  0  0
   38.0820   30.7550   50.1980 C   0  0  0  0  0  0  0  0  0  0  0  0
   37.6000   30.3140   48.9680 C   0  0  0  0  0  0  0  0  0  0  0  0
   36.5220   29.4720   48.9780 N   0  0  0  0  0  0  0  0  0  0  0  0
   35.9340   29.0740   50.1210 C   0  0  0  0  0  0  0  0  0  0  0  0
   36.3950   29.4980   51.3190 N   0  0  0  0  0  0  0  0  0  0  0  0
   37.7760   30.6310   52.3320 H   0  0  0  0  0  0  0  0  0  0  0  0
   38.9360   31.4230   50.2450 H   0  0  0  0  0  0  0  0  0  0  0  0
   38.0520   30.6150   48.0320 H   0  0  0  0  0  0  0  0  0  0  0  0
  1  3  1  0  0  0  0
  1  2  1  0  0  0  0
  1 16  1  0  0  0  0
  4  5  1  0  0  0  0
  4 13  1  0  0  0  0
  5  1  1  0  0  0  0
  6  7  1  0  0  0  0
  6  5  2  0  0  0  0
  8  6  1  0  0  0  0
  9  8  1  0  0  0  0
 10  8  2  0  0  0  0
 10 11  1  0  0  0  0
 11  4  2  0  0  0  0
 13 12  1  0  0  0  0
 14 13  2  0  0  0  0
 15 13  2  0  0  0  0
 16 18  1  0  0  0  0
 16 19  1  0  0  0  0
 17 16  1  0  0  0  0
 19 24  1  0  0  0  0
 20 26  1  0  0  0  0
 21 27  1  0  0  0  0
 21 20  2  0  0  0  0
 22 23  2  0  0  0  0
 22 21  1  0  0  0  0
 23 24  1  0  0  0  0
 24 25  2  0  0  0  0
 25 20  1  0  0  0  0
 28 22  1  0  0  0  0
M  END
>  <minimizedAffinity>
-4.06071281

>  <minimizedRMSD>
1.08061004

$$$$
