
 OpenBabel03262520463D

 37 39  0  0  1  0  0  0  0  0999 V2000
   38.6730   32.2340   46.7750 C   0  0  1  0  0  0  0  0  0  0  0  0
   39.8590   33.0060   46.1790 C   0  0  0  0  0  0  0  0  0  0  0  0
   39.9050   31.5500   46.3420 C   0  0  2  0  0  0  0  0  0  0  0  0
   37.7870   32.2050   46.1330 H   0  0  0  0  0  0  0  0  0  0  0  0
   39.7100   33.4730   45.1910 H   0  0  0  0  0  0  0  0  0  0  0  0
   40.4590   33.6490   46.8610 H   0  0  0  0  0  0  0  0  0  0  0  0
   40.5530   31.1850   47.1910 H   0  0  0  0  0  0  0  0  0  0  0  0
   38.4310   32.5300   48.2390 C   0  0  0  0  0  0  0  0  0  0  0  0
   39.4030   32.7860   48.7100 H   0  0  0  0  0  0  0  0  0  0  0  0
   37.7690   33.4290   48.2750 H   0  0  0  0  0  0  0  0  0  0  0  0
   37.5470   30.1130   50.9570 C   0  0  0  0  0  0  0  0  0  0  0  0
   38.1340   31.2080   50.2560 C   0  0  0  0  0  0  0  0  0  0  0  0
   37.8010   31.3820   48.9320 C   0  0  0  0  0  0  0  0  0  0  0  0
   36.9410   30.5220   48.3460 N   0  0  0  0  0  0  0  0  0  0  0  0
   36.3960   29.4910   49.0230 C   0  0  0  0  0  0  0  0  0  0  0  0
   36.7010   29.2940   50.3190 N   0  0  0  0  0  0  0  0  0  0  0  0
   37.8330   30.0140   51.9820 H   0  0  0  0  0  0  0  0  0  0  0  0
   38.8230   31.8810   50.7540 H   0  0  0  0  0  0  0  0  0  0  0  0
   35.7090   28.8120   48.5360 H   0  0  0  0  0  0  0  0  0  0  0  0
   39.7440   30.5880   45.1950 C   0  0  0  0  0  0  0  0  0  0  0  0
   40.1930   29.6010   45.4940 H   0  0  0  0  0  0  0  0  0  0  0  0
   38.6860   30.3660   45.0140 H   0  0  0  0  0  0  0  0  0  0  0  0
   40.4860   30.9960   43.9550 C   0  0  0  0  0  0  0  0  0  0  0  0
   41.5260   30.5680   44.0870 H   0  0  0  0  0  0  0  0  0  0  0  0
   40.6720   32.0850   43.8900 H   0  0  0  0  0  0  0  0  0  0  0  0
   39.0050   30.9790   41.9250 C   0  0  0  0  0  0  0  0  0  0  0  0
   39.9520   30.3710   42.7430 C   0  0  0  0  0  0  0  0  0  0  0  0
   40.3400   29.1140   42.2980 C   0  0  0  0  0  0  0  0  0  0  0  0
   41.0890   28.6200   42.9380 H   0  0  0  0  0  0  0  0  0  0  0  0
   39.9170   28.4230   41.1850 C   0  0  0  0  0  0  0  0  0  0  0  0
   40.3230   27.4510   40.9870 H   0  0  0  0  0  0  0  0  0  0  0  0
   38.9750   29.0830   40.4130 C   0  0  0  0  0  3  0  0  0  0  0  0
   38.5180   30.3500   40.7730 C   0  0  0  0  0  3  0  0  0  0  0  0
   37.5890   32.9140   41.2160 H   0  0  0  0  0  0  0  0  0  0  0  0
   38.3870   32.5400   42.2970 S   0  0  0  0  0  0  0  0  0  0  0  0
   37.4060   32.5310   43.4620 O   0  0  0  0  0  0  0  0  0  0  0  0
   39.3810   33.6250   42.4240 O   0  0  0  0  0  0  0  0  0  0  0  0
  1  4  1  6  0  0  0
  1  8  1  0  0  0  0
  2  3  1  0  0  0  0
  2  1  1  0  0  0  0
  2  6  1  0  0  0  0
  3  1  1  0  0  0  0
  3  7  1  1  0  0  0
  5  2  1  0  0  0  0
  8 10  1  0  0  0  0
  8  9  1  0  0  0  0
  8 13  1  0  0  0  0
 11 17  1  0  0  0  0
 12 18  1  0  0  0  0
 12 11  2  0  0  0  0
 13 12  1  0  0  0  0
 14 13  2  0  0  0  0
 14 15  1  0  0  0  0
 15 16  2  0  0  0  0
 16 11  1  0  0  0  0
 19 15  1  0  0  0  0
 20 21  1  0  0  0  0
 20  3  1  0  0  0  0
 22 20  1  0  0  0  0
 23 24  1  0  0  0  0
 23 20  1  0  0  0  0
 25 23  1  0  0  0  0
 26 35  1  0  0  0  0
 26 27  1  0  0  0  0
 27 23  1  0  0  0  0
 28 27  2  0  0  0  0
 28 29  1  0  0  0  0
 30 28  1  0  0  0  0
 31 30  1  0  0  0  0
 32 33  1  0  0  0  0
 32 30  2  0  0  0  0
 33 26  2  0  0  0  0
 34 35  1  0  0  0  0
 35 37  2  0  0  0  0
 35 36  2  0  0  0  0
M  END
>  <minimizedAffinity>
-5.11159897

>  <minimizedRMSD>
0.621943414

$$$$
