
 OpenBabel03272509573D

 49 52  0  0  0  0  0  0  0  0999 V2000
   33.5390   27.5830   47.5910 C   0  0  0  0  0  0  0  0  0  0  0  0
   33.7840   26.6200   48.0600 H   0  0  0  0  0  0  0  0  0  0  0  0
   33.7790   27.4570   46.5100 H   0  0  0  0  0  0  0  0  0  0  0  0
   32.0800   27.8740   47.7320 C   0  0  0  0  0  0  0  0  0  0  0  0
   31.4240   27.3160   48.8120 C   0  0  0  0  0  0  0  0  0  0  0  0
   30.0860   27.5340   49.0120 C   0  0  0  0  0  0  0  0  0  0  0  0
   29.4080   28.2870   48.1620 N   0  0  0  0  0  0  0  0  0  0  0  0
   30.0560   28.8400   47.0930 C   0  0  0  0  0  0  0  0  0  0  0  0
   31.3640   28.6310   46.8920 N   0  0  0  0  0  0  0  0  0  0  0  0
   31.9590   26.7050   49.5070 H   0  0  0  0  0  0  0  0  0  0  0  0
   29.5520   27.1010   49.8600 H   0  0  0  0  0  0  0  0  0  0  0  0
   29.2600   29.6830   46.1670 C   0  0  0  0  0  0  0  0  0  0  0  0
   28.1840   29.5750   46.4940 H   0  0  0  0  0  0  0  0  0  0  0  0
   29.4740   30.7660   46.3870 H   0  0  0  0  0  0  0  0  0  0  0  0
   28.6710   28.3530   44.1140 C   0  0  0  0  0  0  0  0  0  0  0  0
   29.4000   29.3320   44.7470 C   0  0  0  0  0  0  0  0  0  0  0  0
   30.3350   30.0440   43.9840 C   0  0  0  0  0  0  0  0  0  0  0  0
   30.9150   30.8160   44.4670 H   0  0  0  0  0  0  0  0  0  0  0  0
   30.5570   29.8120   42.6430 C   0  0  0  0  0  0  0  0  0  0  0  0
   31.2990   30.3970   42.0980 H   0  0  0  0  0  0  0  0  0  0  0  0
   29.8360   28.8350   41.9940 C   0  0  0  0  0  3  0  0  0  0  0  0
   28.9150   28.1360   42.7520 C   0  0  0  0  0  3  0  0  0  0  0  0
   26.6710   28.2130   45.7560 H   0  0  0  0  0  0  0  0  0  0  0  0
   27.4950   27.4190   44.9790 S   0  0  0  0  0  0  0  0  0  0  0  0
   28.0460   26.2500   45.7070 O   0  0  0  0  0  0  0  0  0  0  0  0
   26.5540   26.8370   43.9250 O   0  0  0  0  0  0  0  0  0  0  0  0
   34.3980   28.7110   48.1090 C   0  0  0  0  0  0  0  0  0  0  0  0
   35.1670   29.0260   47.4020 H   0  0  0  0  0  0  0  0  0  0  0  0
   33.7400   29.5860   48.3060 H   0  0  0  0  0  0  0  0  0  0  0  0
   34.9670   28.3760   49.3680 O   0  0  0  0  0  0  0  0  0  0  0  0
   37.2990   30.1520   51.4690 C   0  0  0  0  0  0  0  0  0  0  0  0
   38.0450   30.8430   50.4900 C   0  0  0  0  0  0  0  0  0  0  0  0
   37.6920   30.6490   49.1600 C   0  0  0  0  0  0  0  0  0  0  0  0
   36.6440   29.7980   48.9220 N   0  0  0  0  0  0  0  0  0  0  0  0
   35.9530   29.1560   49.8660 C   0  0  0  0  0  0  0  0  0  0  0  0
   36.2930   29.3430   51.1490 N   0  0  0  0  0  0  0  0  0  0  0  0
   37.5910   30.3190   52.4970 H   0  0  0  0  0  0  0  0  0  0  0  0
   38.8700   31.5110   50.6940 H   0  0  0  0  0  0  0  0  0  0  0  0
   38.9210   33.2730   49.0020 F   0  0  0  0  0  0  0  0  0  0  0  0
   38.9180   32.4860   47.9320 C   0  0  0  0  0  0  0  0  0  0  0  0
   38.3440   31.2730   48.0270 C   0  0  0  0  0  0  0  0  0  0  0  0
   38.3930   30.5200   46.8440 C   0  0  0  0  0  0  0  0  0  0  0  0
   38.9820   30.9980   45.6990 C   0  0  0  0  0  0  0  0  0  0  0  0
   39.5550   32.2370   45.6440 C   0  0  0  0  0  0  0  0  0  0  0  0
   39.5050   32.9620   46.7880 C   0  0  0  0  0  0  0  0  0  0  0  0
   37.9530   29.5190   46.8170 H   0  0  0  0  0  0  0  0  0  0  0  0
   38.9820   30.3550   44.8160 H   0  0  0  0  0  0  0  0  0  0  0  0
   40.0030   32.5590   44.7170 H   0  0  0  0  0  0  0  0  0  0  0  0
   39.9580   33.9660   46.7800 H   0  0  0  0  0  0  0  0  0  0  0  0
  1  4  1  0  0  0  0
  1  2  1  0  0  0  0
  1 27  1  0  0  0  0
  3  1  1  0  0  0  0
  4  5  1  0  0  0  0
  5  6  2  0  0  0  0
  5 10  1  0  0  0  0
  6 11  1  0  0  0  0
  7  6  1  0  0  0  0
  8  7  2  0  0  0  0
  9  8  1  0  0  0  0
  9  4  2  0  0  0  0
 12 14  1  0  0  0  0
 12 13  1  0  0  0  0
 12  8  1  0  0  0  0
 15 16  1  0  0  0  0
 15 24  1  0  0  0  0
 16 12  1  0  0  0  0
 17 18  1  0  0  0  0
 17 16  2  0  0  0  0
 19 17  1  0  0  0  0
 20 19  1  0  0  0  0
 21 19  2  0  0  0  0
 21 22  1  0  0  0  0
 22 15  2  0  0  0  0
 24 25  2  0  0  0  0
 24 23  1  0  0  0  0
 26 24  2  0  0  0  0
 27 29  1  0  0  0  0
 27 30  1  0  0  0  0
 28 27  1  0  0  0  0
 30 35  1  0  0  0  0
 31 37  1  0  0  0  0
 32 38  1  0  0  0  0
 32 31  2  0  0  0  0
 33 32  1  0  0  0  0
 34 33  2  0  0  0  0
 34 35  1  0  0  0  0
 35 36  2  0  0  0  0
 36 31  1  0  0  0  0
 40 41  1  0  0  0  0
 40 39  1  0  0  0  0
 41 33  1  0  0  0  0
 42 41  2  0  0  0  0
 43 42  1  0  0  0  0
 44 43  2  0  0  0  0
 44 45  1  0  0  0  0
 45 40  2  0  0  0  0
 46 42  1  0  0  0  0
 47 43  1  0  0  0  0
 48 44  1  0  0  0  0
 49 45  1  0  0  0  0
M  END
>  <minimizedAffinity>
-6.18948317

>  <minimizedRMSD>
1.19805014

$$$$
