
 OpenBabel03272504173D

 29 30  0  0  0  0  0  0  0  0999 V2000
   35.3690   29.9360   46.1880 O   0  0  0  0  0  0  0  0  0  0  0  0
   34.3870   29.7530   47.3040 P   0  0  1  0  0  0  0  0  0  0  0  0
   34.4140   28.1810   47.9400 O   0  0  0  0  0  0  0  0  0  0  0  0
   33.7370   28.1390   48.6470 H   0  0  0  0  0  0  0  0  0  0  0  0
   34.7250   30.8020   48.6350 O   0  0  0  0  0  0  0  0  0  0  0  0
   35.9210   30.7460   49.3340 C   0  0  0  0  0  0  0  0  0  0  0  0
   36.1770   29.9680   50.4520 C   0  0  0  0  0  0  0  0  0  0  0  0
   37.4260   30.0240   51.0390 C   0  0  0  0  0  0  0  0  0  0  0  0
   38.3780   30.8440   50.5010 N   0  0  0  0  0  0  0  0  0  0  0  0
   38.0950   31.6010   49.3940 C   0  0  0  0  0  0  0  0  0  0  0  0
   36.8650   31.5460   48.8160 N   0  0  0  0  0  0  0  0  0  0  0  0
   37.5720   29.4060   51.8960 H   0  0  0  0  0  0  0  0  0  0  0  0
   38.8670   32.2450   48.9830 H   0  0  0  0  0  0  0  0  0  0  0  0
   35.0980   29.1760   50.8890 N   0  0  0  0  0  0  0  0  0  0  0  0
   35.2850   28.2400   51.2900 H   0  0  0  0  0  0  0  0  0  0  0  0
   34.1070   29.5100   50.8190 H   0  0  0  0  0  0  0  0  0  0  0  0
   32.8770   30.1450   46.6640 O   0  0  0  0  0  0  0  0  0  0  0  0
   31.8860   30.3730   44.5750 C   0  0  0  0  0  0  0  0  0  0  0  0
   32.4390   29.4970   45.5160 C   0  0  0  0  0  0  0  0  0  0  0  0
   32.5070   28.1440   45.2550 C   0  0  0  0  0  0  0  0  0  0  0  0
   32.9490   27.5340   46.0330 H   0  0  0  0  0  0  0  0  0  0  0  0
   32.0350   27.6210   44.0680 C   0  0  0  0  0  0  0  0  0  0  0  0
   32.1080   26.5510   43.9040 H   0  0  0  0  0  0  0  0  0  0  0  0
   31.4770   28.4770   43.1120 C   0  0  0  0  0  3  0  0  0  0  0  0
   31.4180   29.8260   43.3910 C   0  0  0  0  0  3  0  0  0  0  0  0
   32.2250   32.5070   45.9990 H   0  0  0  0  0  0  0  0  0  0  0  0
   31.7460   32.0890   44.7900 S   0  0  0  0  0  0  0  0  0  0  0  0
   30.3230   32.5580   44.6640 O   0  0  0  0  0  0  0  0  0  0  0  0
   32.5280   32.8370   43.7190 O   0  0  0  0  0  0  0  0  0  0  0  0
  2  1  2  6  0  0  0
  2  3  1  0  0  0  0
  2  5  1  0  0  0  0
  3  4  1  0  0  0  0
  5  6  1  0  0  0  0
  6  7  1  0  0  0  0
  7 14  1  0  0  0  0
  7  8  2  0  0  0  0
  8 12  1  0  0  0  0
  9  8  1  0  0  0  0
 10  9  2  0  0  0  0
 11  6  2  0  0  0  0
 11 10  1  0  0  0  0
 13 10  1  0  0  0  0
 14 15  1  0  0  0  0
 16 14  1  0  0  0  0
 17  2  1  0  0  0  0
 18 27  1  0  0  0  0
 18 19  1  0  0  0  0
 19 17  1  0  0  0  0
 20 19  2  0  0  0  0
 20 21  1  0  0  0  0
 22 20  1  0  0  0  0
 23 22  1  0  0  0  0
 24 25  1  0  0  0  0
 24 22  2  0  0  0  0
 25 18  2  0  0  0  0
 27 26  1  0  0  0  0
 28 27  2  0  0  0  0
 29 27  2  0  0  0  0
M  END
>  <minimizedAffinity>
-3.84188628

>  <minimizedRMSD>
0.860285461

$$$$
