
 OpenBabel03272507493D

 49 53  0  0  1  0  0  0  0  0999 V2000
   37.1150   27.6560   31.8600 N   0  0  0  0  0  0  0  0  0  0  0  0
   36.5690   26.3860   31.5480 C   0  0  0  0  0  0  0  0  0  0  0  0
   36.8020   25.2960   32.5260 C   0  0  0  0  0  0  0  0  0  0  0  0
   38.1190   25.2530   33.1620 C   0  0  1  0  0  0  0  0  0  0  0  0
   38.6960   26.6590   33.4030 C   0  0  0  0  0  0  0  0  0  0  0  0
   38.5300   27.4430   32.0900 C   0  0  0  0  0  0  0  0  0  0  0  0
   37.0350   26.0450   30.5760 H   0  0  0  0  0  0  0  0  0  0  0  0
   35.4920   26.4370   31.3260 H   0  0  0  0  0  0  0  0  0  0  0  0
   36.5110   24.3300   32.0820 H   0  0  0  0  0  0  0  0  0  0  0  0
   36.0560   25.5630   33.3480 H   0  0  0  0  0  0  0  0  0  0  0  0
   38.8840   24.7680   32.5120 H   0  0  0  0  0  0  0  0  0  0  0  0
   38.0910   27.2010   34.1600 H   0  0  0  0  0  0  0  0  0  0  0  0
   39.7460   26.5310   33.6570 H   0  0  0  0  0  0  0  0  0  0  0  0
   39.0290   26.9570   31.2430 H   0  0  0  0  0  0  0  0  0  0  0  0
   38.9760   28.4500   32.1890 H   0  0  0  0  0  0  0  0  0  0  0  0
   38.2550   23.2150   34.5190 C   0  0  0  0  0  0  0  0  0  0  0  0
   38.1490   24.5970   34.4920 C   0  0  0  0  0  0  0  0  0  0  0  0
   38.0480   25.3740   35.6140 C   0  0  0  0  0  0  0  0  0  0  0  0
   38.0510   24.7300   36.8490 C   0  0  0  0  0  0  0  0  0  0  0  0
   38.1540   23.3590   36.8790 C   0  0  0  0  0  0  0  0  0  0  0  0
   38.2570   22.5650   35.7420 C   0  0  0  0  0  0  0  0  0  0  0  0
   38.1360   22.8980   38.2020 O   0  0  0  0  0  0  0  0  0  0  0  0
   38.3660   24.0660   38.9890 C   0  0  0  0  0  0  0  0  0  0  0  0
   37.9720   25.1430   38.1850 O   0  0  0  0  0  0  0  0  0  0  0  0
   38.3520   22.5080   33.7070 H   0  0  0  0  0  0  0  0  0  0  0  0
   37.9700   26.4320   35.5680 H   0  0  0  0  0  0  0  0  0  0  0  0
   38.3370   21.4690   35.8380 H   0  0  0  0  0  0  0  0  0  0  0  0
   37.6470   23.9910   39.8320 H   0  0  0  0  0  0  0  0  0  0  0  0
   39.4290   24.1140   39.3140 H   0  0  0  0  0  0  0  0  0  0  0  0
   36.4500   28.9130   31.9370 C   0  0  0  0  0  0  0  0  0  0  0  0
   36.2460   29.7790   30.8670 C   0  0  0  0  0  0  0  0  0  0  0  0
   35.5560   30.9620   31.1320 C   0  0  0  0  0  0  0  0  0  0  0  0
   35.1230   31.2060   32.4150 N   0  0  0  0  0  0  0  0  0  0  0  0
   35.3520   30.3290   33.4100 C   0  0  0  0  0  0  0  0  0  0  0  0
   35.9980   29.2140   33.1770 N   0  0  0  0  0  0  0  0  0  0  0  0
   36.6320   29.4700   29.9270 H   0  0  0  0  0  0  0  0  0  0  0  0
   35.4040   31.6180   30.3080 H   0  0  0  0  0  0  0  0  0  0  0  0
   33.5260   30.5450   35.1510 C   0  0  0  0  0  0  0  0  0  0  0  0
   34.7880   30.7960   34.6710 C   0  0  0  0  0  0  0  0  0  0  0  0
   35.5190   31.5820   35.5380 C   0  0  0  0  0  0  0  0  0  0  0  0
   36.5390   31.8830   35.3290 H   0  0  0  0  0  0  0  0  0  0  0  0
   35.0600   32.0660   36.7440 C   0  0  0  0  0  0  0  0  0  0  0  0
   35.6580   32.6790   37.4020 H   0  0  0  0  0  0  0  0  0  0  0  0
   33.7830   31.7690   37.1550 C   0  0  0  0  0  3  0  0  0  0  0  0
   33.0040   30.9900   36.3310 C   0  0  0  0  0  3  0  0  0  0  0  0
   33.3000   28.6300   33.5600 H   0  0  0  0  0  0  0  0  0  0  0  0
   32.4670   29.5480   34.1800 S   0  0  0  0  0  0  0  0  0  0  0  0
   31.4870   28.7770   35.0240 O   0  0  0  0  0  0  0  0  0  0  0  0
   31.7780   30.3590   33.1540 O   0  0  0  0  0  0  0  0  0  0  0  0
  1 30  1  0  0  0  0
  1  6  1  0  0  0  0
  2  1  1  0  0  0  0
  2  3  1  0  0  0  0
  3  4  1  0  0  0  0
  3 10  1  0  0  0  0
  4 11  1  6  0  0  0
  4  5  1  0  0  0  0
  4 17  1  0  0  0  0
  5 13  1  0  0  0  0
  5 12  1  0  0  0  0
  6 15  1  0  0  0  0
  6  5  1  0  0  0  0
  7  2  1  0  0  0  0
  8  2  1  0  0  0  0
  9  3  1  0  0  0  0
 14  6  1  0  0  0  0
 16 21  1  0  0  0  0
 17 16  2  0  0  0  0
 17 18  1  0  0  0  0
 18 19  2  0  0  0  0
 19 20  1  0  0  0  0
 19 24  1  0  0  0  0
 20 22  1  0  0  0  0
 21 27  1  0  0  0  0
 21 20  2  0  0  0  0
 22 23  1  0  0  0  0
 23 29  1  0  0  0  0
 23 28  1  0  0  0  0
 24 23  1  0  0  0  0
 25 16  1  0  0  0  0
 26 18  1  0  0  0  0
 30 35  1  0  0  0  0
 31 32  1  0  0  0  0
 31 30  2  0  0  0  0
 32 33  2  0  0  0  0
 33 34  1  0  0  0  0
 34 39  1  0  0  0  0
 35 34  2  0  0  0  0
 36 31  1  0  0  0  0
 37 32  1  0  0  0  0
 38 45  1  0  0  0  0
 39 38  2  0  0  0  0
 39 40  1  0  0  0  0
 40 42  2  0  0  0  0
 41 40  1  0  0  0  0
 42 44  1  0  0  0  0
 42 43  1  0  0  0  0
 45 44  2  0  0  0  0
 46 47  1  0  0  0  0
 47 48  2  0  0  0  0
 47 38  1  0  0  0  0
 49 47  2  0  0  0  0
M  END
>  <minimizedAffinity>
-6.86654329

$$$$

 OpenBabel03272507493D

 49 53  0  0  1  0  0  0  0  0999 V2000
   36.6780   27.7380   31.8330 N   0  0  0  0  0  0  0  0  0  0  0  0
   36.3420   26.4340   31.3940 C   0  0  0  0  0  0  0  0  0  0  0  0
   36.6980   25.3100   32.2920 C   0  0  0  0  0  0  0  0  0  0  0  0
   37.9800   25.4060   32.9890 C   0  0  1  0  0  0  0  0  0  0  0  0
   38.3290   26.8550   33.3710 C   0  0  0  0  0  0  0  0  0  0  0  0
   38.0980   27.7170   32.1180 C   0  0  0  0  0  0  0  0  0  0  0  0
   36.8920   26.2500   30.4230 H   0  0  0  0  0  0  0  0  0  0  0  0
   35.2790   26.3450   31.1210 H   0  0  0  0  0  0  0  0  0  0  0  0
   36.5730   24.3530   31.7580 H   0  0  0  0  0  0  0  0  0  0  0  0
   35.8890   25.3920   33.0930 H   0  0  0  0  0  0  0  0  0  0  0  0
   38.8350   25.0970   32.3430 H   0  0  0  0  0  0  0  0  0  0  0  0
   37.6200   27.2350   34.1360 H   0  0  0  0  0  0  0  0  0  0  0  0
   39.3760   26.8620   33.6670 H   0  0  0  0  0  0  0  0  0  0  0  0
   38.6970   27.3840   31.2610 H   0  0  0  0  0  0  0  0  0  0  0  0
   38.3830   28.7650   32.3190 H   0  0  0  0  0  0  0  0  0  0  0  0
   38.1680   23.2700   34.1800 C   0  0  0  0  0  0  0  0  0  0  0  0
   38.0570   24.6490   34.2620 C   0  0  0  0  0  0  0  0  0  0  0  0
   37.9910   25.3360   35.4440 C   0  0  0  0  0  0  0  0  0  0  0  0
   38.0380   24.5990   36.6250 C   0  0  0  0  0  0  0  0  0  0  0  0
   38.1460   23.2300   36.5450 C   0  0  0  0  0  0  0  0  0  0  0  0
   38.2140   22.5280   35.3480 C   0  0  0  0  0  0  0  0  0  0  0  0
   38.1740   22.6680   37.8280 O   0  0  0  0  0  0  0  0  0  0  0  0
   38.4260   23.7730   38.6950 C   0  0  0  0  0  0  0  0  0  0  0  0
   38.0020   24.9070   37.9910 O   0  0  0  0  0  0  0  0  0  0  0  0
   38.2400   22.6280   33.3130 H   0  0  0  0  0  0  0  0  0  0  0  0
   37.9080   26.3950   35.4830 H   0  0  0  0  0  0  0  0  0  0  0  0
   38.3010   21.4280   35.3560 H   0  0  0  0  0  0  0  0  0  0  0  0
   37.7360   23.6290   39.5530 H   0  0  0  0  0  0  0  0  0  0  0  0
   39.4990   23.8020   38.9870 H   0  0  0  0  0  0  0  0  0  0  0  0
   35.8290   28.8730   31.9750 C   0  0  0  0  0  0  0  0  0  0  0  0
   35.6540   29.8680   31.0190 C   0  0  0  0  0  0  0  0  0  0  0  0
   34.7630   30.8970   31.3300 C   0  0  0  0  0  0  0  0  0  0  0  0
   34.1200   30.8730   32.5450 N   0  0  0  0  0  0  0  0  0  0  0  0
   34.3310   29.8820   33.4310 C   0  0  0  0  0  0  0  0  0  0  0  0
   35.1620   28.9100   33.1540 N   0  0  0  0  0  0  0  0  0  0  0  0
   36.2130   29.7670   30.1220 H   0  0  0  0  0  0  0  0  0  0  0  0
   34.6350   31.6540   30.5930 H   0  0  0  0  0  0  0  0  0  0  0  0
   33.7900   30.9190   35.6780 C   0  0  0  0  0  0  0  0  0  0  0  0
   33.5280   30.0640   34.6350 C   0  0  0  0  0  0  0  0  0  0  0  0
   32.3680   29.3460   34.8400 C   0  0  0  0  0  0  0  0  0  0  0  0
   32.0000   28.6210   34.1230 H   0  0  0  0  0  0  0  0  0  0  0  0
   31.5560   29.4570   35.9480 C   0  0  0  0  0  0  0  0  0  0  0  0
   30.6520   28.8790   36.0790 H   0  0  0  0  0  0  0  0  0  0  0  0
   31.8870   30.3370   36.9500 C   0  0  0  0  0  3  0  0  0  0  0  0
   33.0340   31.0810   36.8020 C   0  0  0  0  0  3  0  0  0  0  0  0
   35.2440   32.3820   34.2640 H   0  0  0  0  0  0  0  0  0  0  0  0
   35.2190   31.9210   35.5710 S   0  0  0  0  0  0  0  0  0  0  0  0
   35.1350   33.1220   36.4760 O   0  0  0  0  0  0  0  0  0  0  0  0
   36.4370   31.1260   35.8370 O   0  0  0  0  0  0  0  0  0  0  0  0
  1 30  1  0  0  0  0
  1  6  1  0  0  0  0
  2  1  1  0  0  0  0
  2  3  1  0  0  0  0
  3  4  1  0  0  0  0
  3 10  1  0  0  0  0
  4 11  1  6  0  0  0
  4  5  1  0  0  0  0
  4 17  1  0  0  0  0
  5 13  1  0  0  0  0
  5 12  1  0  0  0  0
  6 15  1  0  0  0  0
  6  5  1  0  0  0  0
  7  2  1  0  0  0  0
  8  2  1  0  0  0  0
  9  3  1  0  0  0  0
 14  6  1  0  0  0  0
 16 17  2  0  0  0  0
 16 21  1  0  0  0  0
 17 18  1  0  0  0  0
 18 26  1  0  0  0  0
 18 19  2  0  0  0  0
 19 24  1  0  0  0  0
 20 19  1  0  0  0  0
 20 22  1  0  0  0  0
 21 27  1  0  0  0  0
 21 20  2  0  0  0  0
 22 23  1  0  0  0  0
 23 29  1  0  0  0  0
 23 28  1  0  0  0  0
 24 23  1  0  0  0  0
 25 16  1  0  0  0  0
 30 35  1  0  0  0  0
 31 32  1  0  0  0  0
 31 30  2  0  0  0  0
 32 33  2  0  0  0  0
 33 34  1  0  0  0  0
 34 39  1  0  0  0  0
 35 34  2  0  0  0  0
 36 31  1  0  0  0  0
 37 32  1  0  0  0  0
 38 45  1  0  0  0  0
 39 40  1  0  0  0  0
 39 38  2  0  0  0  0
 40 42  2  0  0  0  0
 41 40  1  0  0  0  0
 42 43  1  0  0  0  0
 42 44  1  0  0  0  0
 45 44  2  0  0  0  0
 46 47  1  0  0  0  0
 47 38  1  0  0  0  0
 47 49  2  0  0  0  0
 47 48  2  0  0  0  0
M  END
>  <minimizedAffinity>
-6.6671772

$$$$

 OpenBabel03272507493D

 49 53  0  0  1  0  0  0  0  0999 V2000
   37.5550   27.7050   32.2650 N   0  0  0  0  0  0  0  0  0  0  0  0
   38.1040   26.9590   31.1920 C   0  0  0  0  0  0  0  0  0  0  0  0
   37.9820   25.4840   31.2670 C   0  0  0  0  0  0  0  0  0  0  0  0
   38.1610   24.8760   32.5850 C   0  0  1  0  0  0  0  0  0  0  0  0
   37.6180   25.7650   33.7170 C   0  0  0  0  0  0  0  0  0  0  0  0
   38.1620   27.1840   33.4730 C   0  0  0  0  0  0  0  0  0  0  0  0
   39.2120   27.1850   31.1540 H   0  0  0  0  0  0  0  0  0  0  0  0
   37.7280   27.2960   30.2130 H   0  0  0  0  0  0  0  0  0  0  0  0
   38.6150   25.0190   30.4930 H   0  0  0  0  0  0  0  0  0  0  0  0
   36.8870   25.3300   30.9880 H   0  0  0  0  0  0  0  0  0  0  0  0
   39.2380   24.7530   32.8490 H   0  0  0  0  0  0  0  0  0  0  0  0
   36.5130   25.8470   33.6470 H   0  0  0  0  0  0  0  0  0  0  0  0
   37.9920   25.3540   34.6520 H   0  0  0  0  0  0  0  0  0  0  0  0
   39.2580   27.2150   33.4440 H   0  0  0  0  0  0  0  0  0  0  0  0
   37.8430   27.8590   34.2880 H   0  0  0  0  0  0  0  0  0  0  0  0
   37.7780   22.8520   33.9160 C   0  0  0  0  0  0  0  0  0  0  0  0
   37.4810   23.5710   32.7690 C   0  0  0  0  0  0  0  0  0  0  0  0
   36.6220   23.1310   31.7980 C   0  0  0  0  0  0  0  0  0  0  0  0
   36.0190   21.8890   31.9820 C   0  0  0  0  0  0  0  0  0  0  0  0
   36.3130   21.1740   33.1180 C   0  0  0  0  0  0  0  0  0  0  0  0
   37.1840   21.6150   34.1080 C   0  0  0  0  0  0  0  0  0  0  0  0
   35.6170   19.9580   33.1220 O   0  0  0  0  0  0  0  0  0  0  0  0
   34.6220   20.1140   32.1110 C   0  0  0  0  0  0  0  0  0  0  0  0
   35.1110   21.1090   31.2540 O   0  0  0  0  0  0  0  0  0  0  0  0
   38.4240   23.1010   34.7470 H   0  0  0  0  0  0  0  0  0  0  0  0
   36.4090   23.7010   30.9270 H   0  0  0  0  0  0  0  0  0  0  0  0
   37.3760   20.9900   34.9960 H   0  0  0  0  0  0  0  0  0  0  0  0
   34.6260   19.1540   31.5530 H   0  0  0  0  0  0  0  0  0  0  0  0
   33.6380   20.3590   32.5670 H   0  0  0  0  0  0  0  0  0  0  0  0
   36.6030   28.7630   32.2140 C   0  0  0  0  0  0  0  0  0  0  0  0
   36.1150   29.3480   31.0500 C   0  0  0  0  0  0  0  0  0  0  0  0
   35.1700   30.3640   31.1980 C   0  0  0  0  0  0  0  0  0  0  0  0
   34.7780   30.7260   32.4660 N   0  0  0  0  0  0  0  0  0  0  0  0
   35.2870   30.1220   33.5570 C   0  0  0  0  0  0  0  0  0  0  0  0
   36.1740   29.1680   33.4330 N   0  0  0  0  0  0  0  0  0  0  0  0
   36.5020   28.9750   30.1340 H   0  0  0  0  0  0  0  0  0  0  0  0
   34.8020   30.8060   30.3030 H   0  0  0  0  0  0  0  0  0  0  0  0
   33.4450   30.4370   35.2660 C   0  0  0  0  0  0  0  0  0  0  0  0
   34.7100   30.6630   34.7820 C   0  0  0  0  0  0  0  0  0  0  0  0
   35.4320   31.5030   35.6060 C   0  0  0  0  0  0  0  0  0  0  0  0
   36.4520   31.7950   35.3870 H   0  0  0  0  0  0  0  0  0  0  0  0
   34.9600   32.0570   36.7760 C   0  0  0  0  0  0  0  0  0  0  0  0
   35.5510   32.7120   37.4010 H   0  0  0  0  0  0  0  0  0  0  0  0
   33.6810   31.7820   37.1940 C   0  0  0  0  0  3  0  0  0  0  0  0
   32.9120   30.9510   36.4130 C   0  0  0  0  0  3  0  0  0  0  0  0
   33.2520   28.5650   33.6210 H   0  0  0  0  0  0  0  0  0  0  0  0
   32.3980   29.3780   34.3490 S   0  0  0  0  0  0  0  0  0  0  0  0
   31.5720   28.4900   35.2410 O   0  0  0  0  0  0  0  0  0  0  0  0
   31.5480   30.1560   33.4220 O   0  0  0  0  0  0  0  0  0  0  0  0
  1  6  1  0  0  0  0
  2  3  1  0  0  0  0
  2  1  1  0  0  0  0
  3  4  1  0  0  0  0
  4 17  1  0  0  0  0
  4 11  1  1  0  0  0
  4  5  1  0  0  0  0
  5 13  1  0  0  0  0
  6  5  1  0  0  0  0
  6 15  1  0  0  0  0
  7  2  1  0  0  0  0
  8  2  1  0  0  0  0
  9  3  1  0  0  0  0
 10  3  1  0  0  0  0
 12  5  1  0  0  0  0
 14  6  1  0  0  0  0
 16 21  1  0  0  0  0
 16 25  1  0  0  0  0
 17 16  2  0  0  0  0
 18 19  2  0  0  0  0
 18 17  1  0  0  0  0
 19 20  1  0  0  0  0
 20 22  1  0  0  0  0
 20 21  2  0  0  0  0
 21 27  1  0  0  0  0
 23 29  1  0  0  0  0
 23 22  1  0  0  0  0
 24 19  1  0  0  0  0
 24 23  1  0  0  0  0
 26 18  1  0  0  0  0
 28 23  1  0  0  0  0
 30  1  1  0  0  0  0
 30 35  1  0  0  0  0
 31 32  1  0  0  0  0
 31 30  2  0  0  0  0
 32 33  2  0  0  0  0
 33 34  1  0  0  0  0
 34 39  1  0  0  0  0
 35 34  2  0  0  0  0
 36 31  1  0  0  0  0
 37 32  1  0  0  0  0
 38 45  1  0  0  0  0
 39 38  2  0  0  0  0
 39 40  1  0  0  0  0
 40 42  2  0  0  0  0
 41 40  1  0  0  0  0
 42 44  1  0  0  0  0
 42 43  1  0  0  0  0
 45 44  2  0  0  0  0
 46 47  1  0  0  0  0
 47 48  2  0  0  0  0
 47 38  1  0  0  0  0
 49 47  2  0  0  0  0
M  END
>  <minimizedAffinity>
-6.59509706

$$$$

 OpenBabel03272507493D

 49 53  0  0  1  0  0  0  0  0999 V2000
   37.1310   26.7640   33.8520 N   0  0  0  0  0  0  0  0  0  0  0  0
   37.2240   26.2010   35.1490 C   0  0  0  0  0  0  0  0  0  0  0  0
   38.5570   25.7150   35.5770 C   0  0  0  0  0  0  0  0  0  0  0  0
   39.3680   25.0420   34.5630 C   0  0  1  0  0  0  0  0  0  0  0  0
   39.1670   25.6430   33.1620 C   0  0  0  0  0  0  0  0  0  0  0  0
   37.6490   25.7640   32.9390 C   0  0  0  0  0  0  0  0  0  0  0  0
   36.5340   25.3060   35.1810 H   0  0  0  0  0  0  0  0  0  0  0  0
   36.8270   26.8740   35.9250 H   0  0  0  0  0  0  0  0  0  0  0  0
   38.4570   25.1260   36.5040 H   0  0  0  0  0  0  0  0  0  0  0  0
   39.0910   26.6940   35.8190 H   0  0  0  0  0  0  0  0  0  0  0  0
   39.0740   23.9740   34.4300 H   0  0  0  0  0  0  0  0  0  0  0  0
   39.5630   26.6800   33.1250 H   0  0  0  0  0  0  0  0  0  0  0  0
   39.6160   24.9520   32.4520 H   0  0  0  0  0  0  0  0  0  0  0  0
   37.1320   24.8010   33.0280 H   0  0  0  0  0  0  0  0  0  0  0  0
   37.4420   26.1450   31.9230 H   0  0  0  0  0  0  0  0  0  0  0  0
   41.5170   26.1880   34.2770 C   0  0  0  0  0  0  0  0  0  0  0  0
   40.8310   25.1000   34.7940 C   0  0  0  0  0  0  0  0  0  0  0  0
   41.4340   24.0780   35.4770 C   0  0  0  0  0  0  0  0  0  0  0  0
   42.8140   24.1440   35.6560 C   0  0  0  0  0  0  0  0  0  0  0  0
   43.4960   25.2220   35.1420 C   0  0  0  0  0  0  0  0  0  0  0  0
   42.8890   26.2630   34.4480 C   0  0  0  0  0  0  0  0  0  0  0  0
   44.8650   25.1090   35.4180 O   0  0  0  0  0  0  0  0  0  0  0  0
   44.9430   24.0940   36.4180 C   0  0  0  0  0  0  0  0  0  0  0  0
   43.7750   23.3350   36.2750 O   0  0  0  0  0  0  0  0  0  0  0  0
   41.1490   27.0510   33.7380 H   0  0  0  0  0  0  0  0  0  0  0  0
   40.8880   23.2540   35.8660 H   0  0  0  0  0  0  0  0  0  0  0  0
   43.4970   27.0980   34.0630 H   0  0  0  0  0  0  0  0  0  0  0  0
   45.8010   23.4570   36.1150 H   0  0  0  0  0  0  0  0  0  0  0  0
   45.0620   24.5490   37.4260 H   0  0  0  0  0  0  0  0  0  0  0  0
   36.6330   28.0430   33.4720 C   0  0  0  0  0  0  0  0  0  0  0  0
   36.6910   28.5770   32.1890 C   0  0  0  0  0  0  0  0  0  0  0  0
   36.1330   29.8420   32.0020 C   0  0  0  0  0  0  0  0  0  0  0  0
   35.5660   30.4830   33.0800 N   0  0  0  0  0  0  0  0  0  0  0  0
   35.5400   29.9140   34.3000 C   0  0  0  0  0  0  0  0  0  0  0  0
   36.0590   28.7280   34.4900 N   0  0  0  0  0  0  0  0  0  0  0  0
   37.1580   27.9780   31.4470 H   0  0  0  0  0  0  0  0  0  0  0  0
   36.1810   30.2430   31.0180 H   0  0  0  0  0  0  0  0  0  0  0  0
   33.5570   30.7180   35.6550 C   0  0  0  0  0  0  0  0  0  0  0  0
   34.8760   30.7730   35.2730 C   0  0  0  0  0  0  0  0  0  0  0  0
   35.5580   31.7770   35.9290 C   0  0  0  0  0  0  0  0  0  0  0  0
   36.6100   31.9720   35.7570 H   0  0  0  0  0  0  0  0  0  0  0  0
   35.0040   32.6320   36.8580 C   0  0  0  0  0  0  0  0  0  0  0  0
   35.5660   33.4090   37.3550 H   0  0  0  0  0  0  0  0  0  0  0  0
   33.6760   32.5120   37.1870 C   0  0  0  0  0  3  0  0  0  0  0  0
   32.9430   31.5290   36.5640 C   0  0  0  0  0  3  0  0  0  0  0  0
   33.3790   28.8070   34.0530 H   0  0  0  0  0  0  0  0  0  0  0  0
   32.5490   29.4880   34.9290 S   0  0  0  0  0  0  0  0  0  0  0  0
   32.0480   28.4960   35.9460 O   0  0  0  0  0  0  0  0  0  0  0  0
   31.4340   30.1010   34.1760 O   0  0  0  0  0  0  0  0  0  0  0  0
  1  2  1  0  0  0  0
  2  7  1  0  0  0  0
  2  3  1  0  0  0  0
  2  8  1  0  0  0  0
  3 10  1  0  0  0  0
  3  9  1  0  0  0  0
  4 11  1  6  0  0  0
  4 17  1  0  0  0  0
  4  3  1  0  0  0  0
  5  4  1  0  0  0  0
  6 14  1  0  0  0  0
  6  5  1  0  0  0  0
  6  1  1  0  0  0  0
 12  5  1  0  0  0  0
 13  5  1  0  0  0  0
 15  6  1  0  0  0  0
 16 21  2  0  0  0  0
 16 17  1  0  0  0  0
 17 18  2  0  0  0  0
 18 19  1  0  0  0  0
 18 26  1  0  0  0  0
 19 24  1  0  0  0  0
 20 22  1  0  0  0  0
 20 19  2  0  0  0  0
 21 20  1  0  0  0  0
 22 23  1  0  0  0  0
 23 29  1  0  0  0  0
 24 23  1  0  0  0  0
 25 16  1  0  0  0  0
 27 21  1  0  0  0  0
 28 23  1  0  0  0  0
 30  1  1  0  0  0  0
 30 35  1  0  0  0  0
 31 30  2  0  0  0  0
 32 31  1  0  0  0  0
 32 33  2  0  0  0  0
 33 34  1  0  0  0  0
 34 35  2  0  0  0  0
 34 39  1  0  0  0  0
 36 31  1  0  0  0  0
 37 32  1  0  0  0  0
 38 45  1  0  0  0  0
 39 38  2  0  0  0  0
 39 40  1  0  0  0  0
 40 42  2  0  0  0  0
 41 40  1  0  0  0  0
 42 44  1  0  0  0  0
 42 43  1  0  0  0  0
 45 44  2  0  0  0  0
 46 47  1  0  0  0  0
 47 38  1  0  0  0  0
 47 48  2  0  0  0  0
 49 47  2  0  0  0  0
M  END
>  <minimizedAffinity>
-6.5657692

$$$$

 OpenBabel03272507493D

 49 53  0  0  1  0  0  0  0  0999 V2000
   37.4520   24.9250   31.6750 N   0  0  0  0  0  0  0  0  0  0  0  0
   38.5290   25.8280   31.4900 C   0  0  0  0  0  0  0  0  0  0  0  0
   38.2410   27.2670   31.6970 C   0  0  0  0  0  0  0  0  0  0  0  0
   36.9480   27.7550   31.2170 C   0  0  1  0  0  0  0  0  0  0  0  0
   35.8350   26.7040   31.3700 C   0  0  0  0  0  0  0  0  0  0  0  0
   36.3860   25.3820   30.8070 C   0  0  0  0  0  0  0  0  0  0  0  0
   38.8790   25.7250   30.4200 H   0  0  0  0  0  0  0  0  0  0  0  0
   39.4110   25.5540   32.0890 H   0  0  0  0  0  0  0  0  0  0  0  0
   39.0870   27.8720   31.3320 H   0  0  0  0  0  0  0  0  0  0  0  0
   38.2070   27.3320   32.8360 H   0  0  0  0  0  0  0  0  0  0  0  0
   36.9580   27.9630   30.1220 H   0  0  0  0  0  0  0  0  0  0  0  0
   35.6270   26.5140   32.4430 H   0  0  0  0  0  0  0  0  0  0  0  0
   34.9850   27.0560   30.7900 H   0  0  0  0  0  0  0  0  0  0  0  0
   36.7000   25.4690   29.7590 H   0  0  0  0  0  0  0  0  0  0  0  0
   35.6080   24.5990   30.8430 H   0  0  0  0  0  0  0  0  0  0  0  0
   36.5730   30.1780   31.2790 C   0  0  0  0  0  0  0  0  0  0  0  0
   36.4340   28.9560   31.9190 C   0  0  0  0  0  0  0  0  0  0  0  0
   35.8770   28.8080   33.1600 C   0  0  0  0  0  0  0  0  0  0  0  0
   35.4270   29.9560   33.8090 C   0  0  0  0  0  0  0  0  0  0  0  0
   35.5660   31.1690   33.1760 C   0  0  0  0  0  0  0  0  0  0  0  0
   36.1300   31.3250   31.9160 C   0  0  0  0  0  0  0  0  0  0  0  0
   35.0620   32.1990   33.9820 O   0  0  0  0  0  0  0  0  0  0  0  0
   34.2990   31.5270   34.9830 C   0  0  0  0  0  0  0  0  0  0  0  0
   34.8180   30.2270   35.0410 O   0  0  0  0  0  0  0  0  0  0  0  0
   36.9810   30.4110   30.3050 H   0  0  0  0  0  0  0  0  0  0  0  0
   35.7800   27.8610   33.6310 H   0  0  0  0  0  0  0  0  0  0  0  0
   36.2100   32.3290   31.4650 H   0  0  0  0  0  0  0  0  0  0  0  0
   34.5580   32.0380   35.9340 H   0  0  0  0  0  0  0  0  0  0  0  0
   33.2150   31.5660   34.7380 H   0  0  0  0  0  0  0  0  0  0  0  0
   37.3870   23.7830   32.5240 C   0  0  0  0  0  0  0  0  0  0  0  0
   36.9090   22.5310   32.1480 C   0  0  0  0  0  0  0  0  0  0  0  0
   36.9400   21.5240   33.1140 C   0  0  0  0  0  0  0  0  0  0  0  0
   37.4310   21.8190   34.3650 N   0  0  0  0  0  0  0  0  0  0  0  0
   37.8800   23.0520   34.6690 C   0  0  0  0  0  0  0  0  0  0  0  0
   37.8580   24.0060   33.7730 N   0  0  0  0  0  0  0  0  0  0  0  0
   36.5560   22.4380   31.1510 H   0  0  0  0  0  0  0  0  0  0  0  0
   36.5720   20.5710   32.8190 H   0  0  0  0  0  0  0  0  0  0  0  0
   39.6210   22.7880   36.4890 C   0  0  0  0  0  0  0  0  0  0  0  0
   38.3640   23.1170   36.0430 C   0  0  0  0  0  0  0  0  0  0  0  0
   37.5490   23.5370   37.0730 C   0  0  0  0  0  0  0  0  0  0  0  0
   36.5210   23.8390   36.9130 H   0  0  0  0  0  0  0  0  0  0  0  0
   37.9280   23.6240   38.3950 C   0  0  0  0  0  0  0  0  0  0  0  0
   37.2650   23.9580   39.1800 H   0  0  0  0  0  0  0  0  0  0  0  0
   39.2050   23.2760   38.7620 C   0  0  0  0  0  3  0  0  0  0  0  0
   40.0650   22.8480   37.7780 C   0  0  0  0  0  3  0  0  0  0  0  0
   40.0700   21.4840   34.4030 H   0  0  0  0  0  0  0  0  0  0  0  0
   40.7910   22.2480   35.3060 S   0  0  0  0  0  0  0  0  0  0  0  0
   41.3980   23.3990   34.5470 O   0  0  0  0  0  0  0  0  0  0  0  0
   41.8300   21.4100   35.9420 O   0  0  0  0  0  0  0  0  0  0  0  0
  1 30  1  0  0  0  0
  2  1  1  0  0  0  0
  2  3  1  0  0  0  0
  2  8  1  0  0  0  0
  3 10  1  0  0  0  0
  4 11  1  6  0  0  0
  4  5  1  0  0  0  0
  4  3  1  0  0  0  0
  4 17  1  0  0  0  0
  5 12  1  0  0  0  0
  6 15  1  0  0  0  0
  6  5  1  0  0  0  0
  6  1  1  0  0  0  0
  7  2  1  0  0  0  0
  9  3  1  0  0  0  0
 13  5  1  0  0  0  0
 14  6  1  0  0  0  0
 16 21  2  0  0  0  0
 16 17  1  0  0  0  0
 17 18  2  0  0  0  0
 18 26  1  0  0  0  0
 18 19  1  0  0  0  0
 19 24  1  0  0  0  0
 20 19  2  0  0  0  0
 20 22  1  0  0  0  0
 21 20  1  0  0  0  0
 22 23  1  0  0  0  0
 23 24  1  0  0  0  0
 23 28  1  0  0  0  0
 25 16  1  0  0  0  0
 27 21  1  0  0  0  0
 29 23  1  0  0  0  0
 30 35  1  0  0  0  0
 31 30  2  0  0  0  0
 31 32  1  0  0  0  0
 32 33  2  0  0  0  0
 33 34  1  0  0  0  0
 34 39  1  0  0  0  0
 35 34  2  0  0  0  0
 36 31  1  0  0  0  0
 37 32  1  0  0  0  0
 38 45  1  0  0  0  0
 39 38  2  0  0  0  0
 39 40  1  0  0  0  0
 40 42  2  0  0  0  0
 41 40  1  0  0  0  0
 42 44  1  0  0  0  0
 42 43  1  0  0  0  0
 45 44  2  0  0  0  0
 46 47  1  0  0  0  0
 47 49  2  0  0  0  0
 47 38  1  0  0  0  0
 48 47  2  0  0  0  0
M  END
>  <minimizedAffinity>
-6.49457073

$$$$

 OpenBabel03272507493D

 49 53  0  0  1  0  0  0  0  0999 V2000
   37.1680   27.9310   32.3930 N   0  0  0  0  0  0  0  0  0  0  0  0
   37.7920   27.2730   31.3030 C   0  0  0  0  0  0  0  0  0  0  0  0
   37.8010   25.7910   31.3300 C   0  0  0  0  0  0  0  0  0  0  0  0
   38.0210   25.1580   32.6300 C   0  0  1  0  0  0  0  0  0  0  0  0
   37.3880   25.9570   33.7820 C   0  0  0  0  0  0  0  0  0  0  0  0
   37.8060   27.4250   33.5910 C   0  0  0  0  0  0  0  0  0  0  0  0
   38.8760   27.5970   31.2870 H   0  0  0  0  0  0  0  0  0  0  0  0
   37.3970   27.6080   30.3320 H   0  0  0  0  0  0  0  0  0  0  0  0
   38.4810   25.4100   30.5500 H   0  0  0  0  0  0  0  0  0  0  0  0
   36.7270   25.5500   31.0310 H   0  0  0  0  0  0  0  0  0  0  0  0
   39.1010   25.1210   32.9030 H   0  0  0  0  0  0  0  0  0  0  0  0
   36.2810   25.9430   33.7010 H   0  0  0  0  0  0  0  0  0  0  0  0
   37.7890   25.5500   34.7080 H   0  0  0  0  0  0  0  0  0  0  0  0
   38.8960   27.5550   33.5780 H   0  0  0  0  0  0  0  0  0  0  0  0
   37.4210   28.0420   34.4230 H   0  0  0  0  0  0  0  0  0  0  0  0
   37.9020   23.0180   33.8220 C   0  0  0  0  0  0  0  0  0  0  0  0
   37.4570   23.7920   32.7620 C   0  0  0  0  0  0  0  0  0  0  0  0
   36.5550   23.3560   31.8290 C   0  0  0  0  0  0  0  0  0  0  0  0
   36.0630   22.0600   31.9610 C   0  0  0  0  0  0  0  0  0  0  0  0
   36.5050   21.2900   33.0110 C   0  0  0  0  0  0  0  0  0  0  0  0
   37.4200   21.7270   33.9610 C   0  0  0  0  0  0  0  0  0  0  0  0
   35.9030   20.0240   32.9730 O   0  0  0  0  0  0  0  0  0  0  0  0
   34.8190   20.1730   32.0580 C   0  0  0  0  0  0  0  0  0  0  0  0
   35.1580   21.2640   31.2470 O   0  0  0  0  0  0  0  0  0  0  0  0
   38.5950   23.2570   34.6170 H   0  0  0  0  0  0  0  0  0  0  0  0
   36.2270   23.9690   31.0250 H   0  0  0  0  0  0  0  0  0  0  0  0
   37.7310   21.0560   34.7790 H   0  0  0  0  0  0  0  0  0  0  0  0
   34.8470   19.2590   31.4270 H   0  0  0  0  0  0  0  0  0  0  0  0
   33.8610   20.3040   32.6080 H   0  0  0  0  0  0  0  0  0  0  0  0
   36.1260   28.9020   32.3640 C   0  0  0  0  0  0  0  0  0  0  0  0
   35.7820   29.6760   31.2610 C   0  0  0  0  0  0  0  0  0  0  0  0
   34.7170   30.5650   31.4170 C   0  0  0  0  0  0  0  0  0  0  0  0
   34.0780   30.6270   32.6330 N   0  0  0  0  0  0  0  0  0  0  0  0
   34.4570   29.8520   33.6660 C   0  0  0  0  0  0  0  0  0  0  0  0
   35.4530   29.0130   33.5340 N   0  0  0  0  0  0  0  0  0  0  0  0
   36.3580   29.5300   30.3810 H   0  0  0  0  0  0  0  0  0  0  0  0
   34.4610   31.1530   30.5680 H   0  0  0  0  0  0  0  0  0  0  0  0
   33.8270   31.0220   35.8220 C   0  0  0  0  0  0  0  0  0  0  0  0
   33.6240   30.0830   34.8390 C   0  0  0  0  0  0  0  0  0  0  0  0
   32.4920   29.3300   35.0770 C   0  0  0  0  0  0  0  0  0  0  0  0
   32.1700   28.5400   34.4090 H   0  0  0  0  0  0  0  0  0  0  0  0
   31.6550   29.4830   36.1610 C   0  0  0  0  0  0  0  0  0  0  0  0
   30.7750   28.8770   36.3190 H   0  0  0  0  0  0  0  0  0  0  0  0
   31.9270   30.4470   37.1020 C   0  0  0  0  0  3  0  0  0  0  0  0
   33.0430   31.2300   36.9190 C   0  0  0  0  0  3  0  0  0  0  0  0
   35.2200   32.4760   34.3390 H   0  0  0  0  0  0  0  0  0  0  0  0
   35.2130   32.0770   35.6660 S   0  0  0  0  0  0  0  0  0  0  0  0
   35.0780   33.3150   36.5140 O   0  0  0  0  0  0  0  0  0  0  0  0
   36.4630   31.3470   35.9680 O   0  0  0  0  0  0  0  0  0  0  0  0
  1  6  1  0  0  0  0
  2  3  1  0  0  0  0
  2  1  1  0  0  0  0
  3  4  1  0  0  0  0
  4 17  1  0  0  0  0
  4 11  1  1  0  0  0
  4  5  1  0  0  0  0
  5 13  1  0  0  0  0
  6  5  1  0  0  0  0
  6 15  1  0  0  0  0
  7  2  1  0  0  0  0
  8  2  1  0  0  0  0
  9  3  1  0  0  0  0
 10  3  1  0  0  0  0
 12  5  1  0  0  0  0
 14  6  1  0  0  0  0
 16 21  1  0  0  0  0
 16 25  1  0  0  0  0
 17 16  2  0  0  0  0
 18 19  2  0  0  0  0
 18 17  1  0  0  0  0
 19 20  1  0  0  0  0
 20 21  2  0  0  0  0
 21 27  1  0  0  0  0
 22 20  1  0  0  0  0
 23 29  1  0  0  0  0
 23 22  1  0  0  0  0
 24 19  1  0  0  0  0
 24 23  1  0  0  0  0
 26 18  1  0  0  0  0
 28 23  1  0  0  0  0
 30  1  1  0  0  0  0
 30 35  1  0  0  0  0
 31 32  1  0  0  0  0
 31 30  2  0  0  0  0
 32 33  2  0  0  0  0
 33 34  1  0  0  0  0
 34 39  1  0  0  0  0
 35 34  2  0  0  0  0
 36 31  1  0  0  0  0
 37 32  1  0  0  0  0
 38 45  1  0  0  0  0
 39 40  1  0  0  0  0
 39 38  2  0  0  0  0
 40 42  2  0  0  0  0
 41 40  1  0  0  0  0
 42 43  1  0  0  0  0
 42 44  1  0  0  0  0
 45 44  2  0  0  0  0
 46 47  1  0  0  0  0
 47 38  1  0  0  0  0
 47 49  2  0  0  0  0
 47 48  2  0  0  0  0
M  END
>  <minimizedAffinity>
-6.47749662

$$$$

 OpenBabel03272507493D

 49 53  0  0  1  0  0  0  0  0999 V2000
   37.4300   25.0130   31.6950 N   0  0  0  0  0  0  0  0  0  0  0  0
   38.4790   25.9500   31.5220 C   0  0  0  0  0  0  0  0  0  0  0  0
   38.1830   27.3610   31.8660 C   0  0  0  0  0  0  0  0  0  0  0  0
   36.8550   27.8610   31.5080 C   0  0  1  0  0  0  0  0  0  0  0  0
   35.7700   26.7780   31.6390 C   0  0  0  0  0  0  0  0  0  0  0  0
   36.3050   25.5190   30.9340 C   0  0  0  0  0  0  0  0  0  0  0  0
   38.7640   25.9440   30.4280 H   0  0  0  0  0  0  0  0  0  0  0  0
   39.4010   25.6460   32.0410 H   0  0  0  0  0  0  0  0  0  0  0  0
   38.9950   28.0110   31.5020 H   0  0  0  0  0  0  0  0  0  0  0  0
   38.2180   27.3310   33.0060 H   0  0  0  0  0  0  0  0  0  0  0  0
   36.7940   28.1590   30.4350 H   0  0  0  0  0  0  0  0  0  0  0  0
   35.6320   26.4950   32.7030 H   0  0  0  0  0  0  0  0  0  0  0  0
   34.8800   27.1600   31.1430 H   0  0  0  0  0  0  0  0  0  0  0  0
   36.5520   25.6990   29.8810 H   0  0  0  0  0  0  0  0  0  0  0  0
   35.5430   24.7200   30.9520 H   0  0  0  0  0  0  0  0  0  0  0  0
   36.0430   28.7170   33.6580 C   0  0  0  0  0  0  0  0  0  0  0  0
   36.3680   28.9890   32.3380 C   0  0  0  0  0  0  0  0  0  0  0  0
   36.2390   30.2240   31.7630 C   0  0  0  0  0  0  0  0  0  0  0  0
   35.7520   31.2600   32.5580 C   0  0  0  0  0  0  0  0  0  0  0  0
   35.4270   30.9920   33.8670 C   0  0  0  0  0  0  0  0  0  0  0  0
   35.5570   29.7390   34.4560 C   0  0  0  0  0  0  0  0  0  0  0  0
   34.9560   32.1500   34.4990 O   0  0  0  0  0  0  0  0  0  0  0  0
   35.3300   33.2110   33.6210 C   0  0  0  0  0  0  0  0  0  0  0  0
   35.4830   32.6210   32.3610 O   0  0  0  0  0  0  0  0  0  0  0  0
   36.1140   27.7940   34.2170 H   0  0  0  0  0  0  0  0  0  0  0  0
   36.4950   30.4100   30.7490 H   0  0  0  0  0  0  0  0  0  0  0  0
   35.2780   29.5940   35.5130 H   0  0  0  0  0  0  0  0  0  0  0  0
   34.4410   33.8760   33.5790 H   0  0  0  0  0  0  0  0  0  0  0  0
   36.2470   33.7180   33.9930 H   0  0  0  0  0  0  0  0  0  0  0  0
   37.4350   23.8040   32.4470 C   0  0  0  0  0  0  0  0  0  0  0  0
   36.5680   22.7340   32.2500 C   0  0  0  0  0  0  0  0  0  0  0  0
   36.7350   21.6210   33.0750 C   0  0  0  0  0  0  0  0  0  0  0  0
   37.7320   21.6420   34.0240 N   0  0  0  0  0  0  0  0  0  0  0  0
   38.5410   22.7090   34.1670 C   0  0  0  0  0  0  0  0  0  0  0  0
   38.3960   23.7590   33.4000 N   0  0  0  0  0  0  0  0  0  0  0  0
   35.8420   22.8470   31.4830 H   0  0  0  0  0  0  0  0  0  0  0  0
   36.0680   20.8070   32.9180 H   0  0  0  0  0  0  0  0  0  0  0  0
   39.3810   22.7890   36.5550 C   0  0  0  0  0  0  0  0  0  0  0  0
   39.5240   22.4920   35.2220 C   0  0  0  0  0  0  0  0  0  0  0  0
   40.7590   21.9380   34.9500 C   0  0  0  0  0  0  0  0  0  0  0  0
   41.0530   21.6380   33.9510 H   0  0  0  0  0  0  0  0  0  0  0  0
   41.7420   21.7030   35.8860 C   0  0  0  0  0  0  0  0  0  0  0  0
   42.7000   21.2670   35.6410 H   0  0  0  0  0  0  0  0  0  0  0  0
   41.5220   22.0290   37.2030 C   0  0  0  0  0  3  0  0  0  0  0  0
   40.3090   22.5850   37.5350 C   0  0  0  0  0  3  0  0  0  0  0  0
   36.8900   22.8290   36.3400 H   0  0  0  0  0  0  0  0  0  0  0  0
   37.8640   23.4850   37.0770 S   0  0  0  0  0  0  0  0  0  0  0  0
   37.5910   23.2170   38.5340 O   0  0  0  0  0  0  0  0  0  0  0  0
   37.8200   24.9320   36.7740 O   0  0  0  0  0  0  0  0  0  0  0  0
  1 30  1  0  0  0  0
  2  1  1  0  0  0  0
  2  3  1  0  0  0  0
  2  8  1  0  0  0  0
  3 10  1  0  0  0  0
  4 11  1  6  0  0  0
  4  5  1  0  0  0  0
  4  3  1  0  0  0  0
  4 17  1  0  0  0  0
  5 12  1  0  0  0  0
  6 15  1  0  0  0  0
  6  5  1  0  0  0  0
  6  1  1  0  0  0  0
  7  2  1  0  0  0  0
  9  3  1  0  0  0  0
 13  5  1  0  0  0  0
 14  6  1  0  0  0  0
 16 25  1  0  0  0  0
 16 21  1  0  0  0  0
 17 16  2  0  0  0  0
 18 17  1  0  0  0  0
 18 19  2  0  0  0  0
 19 20  1  0  0  0  0
 20 21  2  0  0  0  0
 20 22  1  0  0  0  0
 21 27  1  0  0  0  0
 23 29  1  0  0  0  0
 23 22  1  0  0  0  0
 24 19  1  0  0  0  0
 24 23  1  0  0  0  0
 26 18  1  0  0  0  0
 28 23  1  0  0  0  0
 30 35  1  0  0  0  0
 31 30  2  0  0  0  0
 31 32  1  0  0  0  0
 32 33  2  0  0  0  0
 33 34  1  0  0  0  0
 34 39  1  0  0  0  0
 35 34  2  0  0  0  0
 36 31  1  0  0  0  0
 37 32  1  0  0  0  0
 38 47  1  0  0  0  0
 38 45  1  0  0  0  0
 39 38  2  0  0  0  0
 40 39  1  0  0  0  0
 40 42  2  0  0  0  0
 41 40  1  0  0  0  0
 42 44  1  0  0  0  0
 43 42  1  0  0  0  0
 44 45  2  0  0  0  0
 46 47  1  0  0  0  0
 47 48  2  0  0  0  0
 49 47  2  0  0  0  0
M  END
>  <minimizedAffinity>
-6.46485138

$$$$

 OpenBabel03272507493D

 49 53  0  0  1  0  0  0  0  0999 V2000
   37.8650   26.4240   33.5470 N   0  0  0  0  0  0  0  0  0  0  0  0
   37.2390   26.0490   32.3320 C   0  0  0  0  0  0  0  0  0  0  0  0
   36.5310   27.1160   31.5850 C   0  0  0  0  0  0  0  0  0  0  0  0
   35.7830   28.0900   32.3790 C   0  0  1  0  0  0  0  0  0  0  0  0
   36.4700   28.3980   33.7210 C   0  0  0  0  0  0  0  0  0  0  0  0
   36.8370   27.0470   34.3570 C   0  0  0  0  0  0  0  0  0  0  0  0
   36.4620   25.2650   32.5780 H   0  0  0  0  0  0  0  0  0  0  0  0
   37.9310   25.5370   31.6460 H   0  0  0  0  0  0  0  0  0  0  0  0
   35.9250   26.6660   30.7810 H   0  0  0  0  0  0  0  0  0  0  0  0
   37.4020   27.6830   31.1150 H   0  0  0  0  0  0  0  0  0  0  0  0
   34.7820   27.7050   32.6840 H   0  0  0  0  0  0  0  0  0  0  0  0
   37.4310   28.9260   33.5520 H   0  0  0  0  0  0  0  0  0  0  0  0
   35.7480   28.9380   34.3300 H   0  0  0  0  0  0  0  0  0  0  0  0
   35.9640   26.3990   34.5050 H   0  0  0  0  0  0  0  0  0  0  0  0
   37.2890   27.2050   35.3530 H   0  0  0  0  0  0  0  0  0  0  0  0
   36.6370   29.8870   30.9450 C   0  0  0  0  0  0  0  0  0  0  0  0
   35.6010   29.4130   31.7340 C   0  0  0  0  0  0  0  0  0  0  0  0
   34.4440   30.1070   31.9640 C   0  0  0  0  0  0  0  0  0  0  0  0
   34.3100   31.3590   31.3690 C   0  0  0  0  0  0  0  0  0  0  0  0
   35.3380   31.8320   30.5870 C   0  0  0  0  0  0  0  0  0  0  0  0
   36.5150   31.1320   30.3490 C   0  0  0  0  0  0  0  0  0  0  0  0
   35.0220   33.1000   30.0820 O   0  0  0  0  0  0  0  0  0  0  0  0
   33.6190   33.2320   30.3060 C   0  0  0  0  0  0  0  0  0  0  0  0
   33.3200   32.3500   31.3520 O   0  0  0  0  0  0  0  0  0  0  0  0
   37.5810   29.4280   30.6850 H   0  0  0  0  0  0  0  0  0  0  0  0
   33.6610   29.7220   32.5720 H   0  0  0  0  0  0  0  0  0  0  0  0
   37.3000   31.5700   29.7110 H   0  0  0  0  0  0  0  0  0  0  0  0
   33.4840   34.2670   30.6860 H   0  0  0  0  0  0  0  0  0  0  0  0
   33.0540   33.0260   29.3700 H   0  0  0  0  0  0  0  0  0  0  0  0
   39.2220   26.2410   33.9400 C   0  0  0  0  0  0  0  0  0  0  0  0
   40.2580   27.1320   33.6800 C   0  0  0  0  0  0  0  0  0  0  0  0
   41.5230   26.7910   34.1610 C   0  0  0  0  0  0  0  0  0  0  0  0
   41.6740   25.6120   34.8530 N   0  0  0  0  0  0  0  0  0  0  0  0
   40.6320   24.7890   35.0730 C   0  0  0  0  0  0  0  0  0  0  0  0
   39.4400   25.0960   34.6290 N   0  0  0  0  0  0  0  0  0  0  0  0
   40.0050   28.0070   33.1340 H   0  0  0  0  0  0  0  0  0  0  0  0
   42.3100   27.4780   33.9580 H   0  0  0  0  0  0  0  0  0  0  0  0
   40.3070   22.9820   36.8170 C   0  0  0  0  0  0  0  0  0  0  0  0
   41.0340   23.6150   35.8380 C   0  0  0  0  0  0  0  0  0  0  0  0
   42.2550   23.0060   35.6320 C   0  0  0  0  0  0  0  0  0  0  0  0
   42.9660   23.3660   34.8980 H   0  0  0  0  0  0  0  0  0  0  0  0
   42.7100   21.8980   36.3140 C   0  0  0  0  0  0  0  0  0  0  0  0
   43.6730   21.4440   36.1290 H   0  0  0  0  0  0  0  0  0  0  0  0
   41.9220   21.3210   37.2800 C   0  0  0  0  0  3  0  0  0  0  0  0
   40.6920   21.8840   37.5310 C   0  0  0  0  0  3  0  0  0  0  0  0
   38.7270   24.9170   36.7170 H   0  0  0  0  0  0  0  0  0  0  0  0
   38.7210   23.6160   37.1940 S   0  0  0  0  0  0  0  0  0  0  0  0
   37.6290   22.8710   36.4730 O   0  0  0  0  0  0  0  0  0  0  0  0
   38.4960   23.6270   38.6550 O   0  0  0  0  0  0  0  0  0  0  0  0
  1 30  1  0  0  0  0
  1  6  1  0  0  0  0
  2  7  1  0  0  0  0
  2  1  1  0  0  0  0
  3  2  1  0  0  0  0
  3  4  1  0  0  0  0
  4 11  1  1  0  0  0
  4  5  1  0  0  0  0
  5 13  1  0  0  0  0
  5  6  1  0  0  0  0
  6 14  1  0  0  0  0
  6 15  1  0  0  0  0
  8  2  1  0  0  0  0
  9  3  1  0  0  0  0
 10  3  1  0  0  0  0
 12  5  1  0  0  0  0
 16 17  1  0  0  0  0
 17 18  2  0  0  0  0
 17  4  1  0  0  0  0
 18 26  1  0  0  0  0
 19 18  1  0  0  0  0
 20 19  2  0  0  0  0
 21 20  1  0  0  0  0
 21 16  2  0  0  0  0
 22 23  1  0  0  0  0
 22 20  1  0  0  0  0
 23 28  1  0  0  0  0
 23 24  1  0  0  0  0
 24 19  1  0  0  0  0
 25 16  1  0  0  0  0
 27 21  1  0  0  0  0
 29 23  1  0  0  0  0
 30 35  1  0  0  0  0
 31 30  2  0  0  0  0
 31 32  1  0  0  0  0
 32 33  2  0  0  0  0
 33 34  1  0  0  0  0
 34 39  1  0  0  0  0
 35 34  2  0  0  0  0
 36 31  1  0  0  0  0
 37 32  1  0  0  0  0
 38 47  1  0  0  0  0
 38 45  1  0  0  0  0
 39 38  2  0  0  0  0
 40 39  1  0  0  0  0
 40 42  2  0  0  0  0
 41 40  1  0  0  0  0
 42 44  1  0  0  0  0
 43 42  1  0  0  0  0
 44 45  2  0  0  0  0
 46 47  1  0  0  0  0
 47 49  2  0  0  0  0
 48 47  2  0  0  0  0
M  END
>  <minimizedAffinity>
-6.29083347

$$$$

 OpenBabel03272507493D

 49 53  0  0  1  0  0  0  0  0999 V2000
   37.0560   27.2310   30.8150 N   0  0  0  0  0  0  0  0  0  0  0  0
   37.3170   28.4040   30.0650 C   0  0  0  0  0  0  0  0  0  0  0  0
   37.0140   29.7000   30.7170 C   0  0  0  0  0  0  0  0  0  0  0  0
   35.8020   29.7580   31.5350 C   0  0  1  0  0  0  0  0  0  0  0  0
   35.5270   28.4310   32.2630 C   0  0  0  0  0  0  0  0  0  0  0  0
   35.6670   27.3090   31.2200 C   0  0  0  0  0  0  0  0  0  0  0  0
   36.6770   28.3610   29.1330 H   0  0  0  0  0  0  0  0  0  0  0  0
   38.3490   28.4340   29.6810 H   0  0  0  0  0  0  0  0  0  0  0  0
   37.0650   30.5120   29.9730 H   0  0  0  0  0  0  0  0  0  0  0  0
   37.8930   29.8050   31.4370 H   0  0  0  0  0  0  0  0  0  0  0  0
   34.8860   29.9080   30.9180 H   0  0  0  0  0  0  0  0  0  0  0  0
   36.3120   28.2370   33.0250 H   0  0  0  0  0  0  0  0  0  0  0  0
   34.5120   28.4860   32.6500 H   0  0  0  0  0  0  0  0  0  0  0  0
   34.9850   27.4370   30.3700 H   0  0  0  0  0  0  0  0  0  0  0  0
   35.4290   26.3310   31.6770 H   0  0  0  0  0  0  0  0  0  0  0  0
   36.2110   32.0650   32.2580 C   0  0  0  0  0  0  0  0  0  0  0  0
   35.8200   30.7820   32.6070 C   0  0  0  0  0  0  0  0  0  0  0  0
   35.4790   30.4130   33.8800 C   0  0  0  0  0  0  0  0  0  0  0  0
   35.5310   31.3880   34.8740 C   0  0  0  0  0  0  0  0  0  0  0  0
   35.9200   32.6610   34.5290 C   0  0  0  0  0  0  0  0  0  0  0  0
   36.2680   33.0420   33.2380 C   0  0  0  0  0  0  0  0  0  0  0  0
   35.9140   33.4940   35.6560 O   0  0  0  0  0  0  0  0  0  0  0  0
   35.1750   32.7630   36.6340 C   0  0  0  0  0  0  0  0  0  0  0  0
   35.2680   31.4200   36.2490 O   0  0  0  0  0  0  0  0  0  0  0  0
   36.4880   32.4710   31.2940 H   0  0  0  0  0  0  0  0  0  0  0  0
   35.1810   29.4220   34.1240 H   0  0  0  0  0  0  0  0  0  0  0  0
   36.5710   34.0820   33.0310 H   0  0  0  0  0  0  0  0  0  0  0  0
   35.7470   32.8860   37.5780 H   0  0  0  0  0  0  0  0  0  0  0  0
   34.1310   33.1410   36.6940 H   0  0  0  0  0  0  0  0  0  0  0  0
   37.9440   26.1620   31.1290 C   0  0  0  0  0  0  0  0  0  0  0  0
   38.8950   25.6310   30.2640 C   0  0  0  0  0  0  0  0  0  0  0  0
   39.6910   24.5940   30.7560 C   0  0  0  0  0  0  0  0  0  0  0  0
   39.4930   24.1610   32.0460 N   0  0  0  0  0  0  0  0  0  0  0  0
   38.5540   24.7150   32.8360 C   0  0  0  0  0  0  0  0  0  0  0  0
   37.8010   25.6880   32.3890 N   0  0  0  0  0  0  0  0  0  0  0  0
   38.9440   26.0570   29.2930 H   0  0  0  0  0  0  0  0  0  0  0  0
   40.4160   24.1930   30.0880 H   0  0  0  0  0  0  0  0  0  0  0  0
   38.7260   24.7390   35.3630 C   0  0  0  0  0  0  0  0  0  0  0  0
   38.5430   24.1020   34.1590 C   0  0  0  0  0  0  0  0  0  0  0  0
   38.3390   22.7470   34.3220 C   0  0  0  0  0  0  0  0  0  0  0  0
   38.1750   22.0810   33.4840 H   0  0  0  0  0  0  0  0  0  0  0  0
   38.3170   22.0920   35.5340 C   0  0  0  0  0  0  0  0  0  0  0  0
   38.1540   21.0280   35.6290 H   0  0  0  0  0  0  0  0  0  0  0  0
   38.5080   22.8010   36.6950 C   0  0  0  0  0  3  0  0  0  0  0  0
   38.7180   24.1570   36.5970 C   0  0  0  0  0  3  0  0  0  0  0  0
   38.2700   26.9270   34.2430 H   0  0  0  0  0  0  0  0  0  0  0  0
   38.9830   26.4680   35.3390 S   0  0  0  0  0  0  0  0  0  0  0  0
   38.4180   27.1390   36.5640 O   0  0  0  0  0  0  0  0  0  0  0  0
   40.4170   26.7830   35.1620 O   0  0  0  0  0  0  0  0  0  0  0  0
  1 30  1  0  0  0  0
  1  6  1  0  0  0  0
  2  3  1  0  0  0  0
  2  1  1  0  0  0  0
  3 10  1  0  0  0  0
  3  4  1  0  0  0  0
  4 11  1  6  0  0  0
  4  5  1  0  0  0  0
  4 17  1  0  0  0  0
  5 13  1  0  0  0  0
  5 12  1  0  0  0  0
  6 15  1  0  0  0  0
  6  5  1  0  0  0  0
  7  2  1  0  0  0  0
  8  2  1  0  0  0  0
  9  3  1  0  0  0  0
 14  6  1  0  0  0  0
 16 17  2  0  0  0  0
 16 21  1  0  0  0  0
 17 18  1  0  0  0  0
 18 26  1  0  0  0  0
 18 19  2  0  0  0  0
 19 24  1  0  0  0  0
 20 19  1  0  0  0  0
 20 22  1  0  0  0  0
 21 20  2  0  0  0  0
 22 23  1  0  0  0  0
 23 29  1  0  0  0  0
 23 28  1  0  0  0  0
 24 23  1  0  0  0  0
 25 16  1  0  0  0  0
 27 21  1  0  0  0  0
 30 35  1  0  0  0  0
 31 32  1  0  0  0  0
 31 30  2  0  0  0  0
 32 33  2  0  0  0  0
 33 34  1  0  0  0  0
 34 39  1  0  0  0  0
 35 34  2  0  0  0  0
 36 31  1  0  0  0  0
 37 32  1  0  0  0  0
 38 45  1  0  0  0  0
 39 40  1  0  0  0  0
 39 38  2  0  0  0  0
 40 42  2  0  0  0  0
 41 40  1  0  0  0  0
 42 43  1  0  0  0  0
 42 44  1  0  0  0  0
 45 44  2  0  0  0  0
 46 47  1  0  0  0  0
 47 38  1  0  0  0  0
 47 48  2  0  0  0  0
 49 47  2  0  0  0  0
M  END
>  <minimizedAffinity>
-6.2226491

$$$$
