
     RDKit          3D

 29 30  0  0  0  0  0  0  0  0999 V2000
   37.3808   30.2384   51.4040 C   0  0  0  0  0  0  0  0  0  0  0  0
   38.0752   30.9130   50.3751 C   0  0  0  0  0  0  0  0  0  0  0  0
   37.7179   30.6121   49.0713 C   0  0  0  0  0  0  0  0  0  0  0  0
   36.7255   29.6911   48.8413 N   0  0  0  0  0  0  0  0  0  0  0  0
   36.0863   29.0684   49.8613 C   0  0  0  0  0  0  0  0  0  0  0  0
   36.4142   29.3424   51.1375 N   0  0  0  0  0  0  0  0  0  0  0  0
   38.3489   31.2300   47.8776 C   0  0  0  0  0  0  0  0  0  0  0  0
   38.7771   32.6546   48.1938 C   0  0  0  0  0  0  0  0  0  0  0  0
   37.6470   30.4610   52.4356 H   0  0  0  0  0  0  0  0  0  0  0  0
   38.8416   31.6241   50.5554 H   0  0  0  0  0  0  0  0  0  0  0  0
   35.3285   28.3689   49.5326 H   0  0  0  0  0  0  0  0  0  0  0  0
   37.6265   31.2346   47.0488 H   0  0  0  0  0  0  0  0  0  0  0  0
   39.2441   30.5956   47.6446 H   0  0  0  0  0  0  0  0  0  0  0  0
   37.9101   33.2199   48.5356 H   0  0  0  0  0  0  0  0  0  0  0  0
   39.5787   32.6504   48.9607 H   0  0  0  0  0  0  0  0  0  0  0  0
   38.1392   30.3838   46.3830 H   0  0  0  0  0  0  0  0  0  0  0  0
   39.4731   30.6269   46.1724 S   0  0  0  0  0  0  0  0  0  0  0  0
   40.3145   30.1873   47.3571 O   0  0  0  0  0  0  0  0  0  0  0  0
   39.8870   29.8893   44.9307 O   0  0  0  0  0  0  0  0  0  0  0  0
   39.7710   32.3459   45.9339 C   0  0  0  0  0  0  0  0  0  0  0  0
   39.4054   33.2270   46.9511 C   0  0  0  0  0  0  0  0  0  0  0  0
   39.6458   34.5656   46.7470 C   0  0  0  0  0  0  0  0  0  0  0  0
   39.3561   35.2210   47.5424 H   0  0  0  0  0  0  0  0  0  0  0  0
   40.2156   35.0584   45.6136 C   0  0  0  0  0  0  0  0  0  0  0  0
   40.3912   36.1208   45.4847 H   0  0  0  0  0  0  0  0  0  0  0  0
   40.5759   34.1889   44.6108 C   0  0  0  0  0  0  0  0  0  0  0  0
   40.3572   32.8259   44.7613 C   0  0  0  0  0  0  0  0  0  0  0  0
   41.0410   34.5057   43.6649 H   0  0  0  0  0  0  0  0  0  0  0  0
   40.5943   32.0644   44.0555 H   0  0  0  0  0  0  0  0  0  0  0  0
  2  1  2  0
  3  2  1  0
  4  3  2  0
  4  5  1  0
  5  6  2  0
  6  1  1  0
  7  8  1  0
  7  3  1  0
  1  9  1  0
  2 10  1  0
  5 11  1  0
  7 12  1  0
  7 13  1  0
  8 14  1  0
  8 15  1  0
 16 17  1  0
 17 18  2  0
 17 19  2  0
 17 20  1  0
 20 21  2  0
 21 22  1  0
 22 23  1  0
 22 24  2  0
 24 25  1  0
 24 26  1  0
 26 27  2  0
 27 20  1  0
 26 28  1  0
 27 29  1  0
  8 21  1  0
M  ISO  8   9  14  10  14  11  14  12   8  13   8  14   8  15   8  16  12
M  ISO  2  23  15  25  16
M  END
>  <DihAtoms>  (1) 
6,7,20,19

>  <DihDeg>  (1) 
179.97302428739377

$$$$
