
 OpenBabel03272501023D

 37 39  0  0  0  0  0  0  0  0999 V2000
   38.1400   23.2270   33.0330 F   0  0  0  0  0  0  0  0  0  0  0  0
   37.2300   24.0220   32.3980 C   0  0  0  0  0  0  0  0  0  0  0  0
   36.1700   23.5120   31.6580 C   0  0  0  0  0  0  0  0  0  0  0  0
   35.3140   24.3900   31.0600 C   0  0  0  0  0  0  0  0  0  0  0  0
   35.4320   25.7640   31.1440 C   0  0  0  0  0  0  0  0  0  0  0  0
   36.5040   26.2460   31.8920 C   0  0  0  0  0  0  0  0  0  0  0  0
   37.4000   25.3850   32.5170 C   0  0  0  0  0  0  0  0  0  0  0  0
   34.4740   24.0260   30.4730 H   0  0  0  0  0  0  0  0  0  0  0  0
   34.7270   26.4320   30.6510 H   0  0  0  0  0  0  0  0  0  0  0  0
   36.5960   27.3250   31.9580 H   0  0  0  0  0  0  0  0  0  0  0  0
   34.8160   20.1680   32.2230 C   0  0  0  0  0  0  0  0  0  0  0  0
   35.6280   19.3340   31.4580 C   0  0  0  0  0  0  0  0  0  0  0  0
   36.6530   19.9350   30.7400 C   0  0  0  0  0  0  0  0  0  0  0  0
   36.8370   21.2910   30.7980 N   0  0  0  0  0  0  0  0  0  0  0  0
   36.0240   22.0650   31.5550 C   0  0  0  0  0  0  0  0  0  0  0  0
   35.0130   21.4890   32.2660 N   0  0  0  0  0  0  0  0  0  0  0  0
   33.9810   19.8140   32.8280 H   0  0  0  0  0  0  0  0  0  0  0  0
   35.4270   18.2780   31.4590 H   0  0  0  0  0  0  0  0  0  0  0  0
   37.2960   19.3090   30.1400 H   0  0  0  0  0  0  0  0  0  0  0  0
   38.4280   25.8950   33.2370 O   0  0  0  0  0  0  0  0  0  0  0  0
   37.1870   26.7980   35.3100 O   0  0  0  0  0  0  0  0  0  0  0  0
   38.5240   26.1470   34.8960 P   0  0  2  0  0  0  0  0  0  0  0  0
   39.7340   27.2060   35.3660 O   0  0  0  0  0  0  0  0  0  0  0  0
   39.6070   27.4260   36.3150 H   0  0  0  0  0  0  0  0  0  0  0  0
   38.6190   24.6970   35.7310 O   0  0  0  0  0  0  0  0  0  0  0  0
   39.6080   23.1550   37.2030 C   0  0  0  0  0  0  0  0  0  0  0  0
   39.6560   23.8950   36.0370 C   0  0  0  0  0  0  0  0  0  0  0  0
   40.7860   23.7730   35.2290 C   0  0  0  0  0  0  0  0  0  0  0  0
   40.8670   24.3250   34.3190 H   0  0  0  0  0  0  0  0  0  0  0  0
   41.8140   22.9330   35.6040 C   0  0  0  0  0  0  0  0  0  0  0  0
   42.7190   22.7970   35.0140 H   0  0  0  0  0  0  0  0  0  0  0  0
   41.7430   22.2120   36.7600 C   0  0  0  0  0  3  0  0  0  0  0  0
   40.6470   22.3260   37.5510 C   0  0  0  0  0  3  0  0  0  0  0  0
   38.3970   22.3750   39.2550 H   0  0  0  0  0  0  0  0  0  0  0  0
   38.1900   23.2960   38.2380 S   0  0  0  0  0  0  0  0  0  0  0  0
   36.9690   22.8580   37.5170 O   0  0  0  0  0  0  0  0  0  0  0  0
   37.9900   24.6740   38.7560 O   0  0  0  0  0  0  0  0  0  0  0  0
  2  7  1  0  0  0  0
  2  1  1  0  0  0  0
  3  2  2  0  0  0  0
  4  5  2  0  0  0  0
  4  3  1  0  0  0  0
  5  6  1  0  0  0  0
  6 10  1  0  0  0  0
  6  7  2  0  0  0  0
  7 20  1  0  0  0  0
  8  4  1  0  0  0  0
  9  5  1  0  0  0  0
 11 16  1  0  0  0  0
 11 17  1  0  0  0  0
 12 18  1  0  0  0  0
 12 11  2  0  0  0  0
 13 14  2  0  0  0  0
 13 12  1  0  0  0  0
 14 15  1  0  0  0  0
 15  3  1  0  0  0  0
 15 16  2  0  0  0  0
 19 13  1  0  0  0  0
 20 22  1  0  0  0  0
 22 21  2  1  0  0  0
 22 23  1  0  0  0  0
 22 25  1  0  0  0  0
 23 24  1  0  0  0  0
 25 27  1  0  0  0  0
 26 33  1  0  0  0  0
 26 35  1  0  0  0  0
 27 26  2  0  0  0  0
 28 30  2  0  0  0  0
 28 27  1  0  0  0  0
 29 28  1  0  0  0  0
 30 32  1  0  0  0  0
 31 30  1  0  0  0  0
 32 33  2  0  0  0  0
 35 37  2  0  0  0  0
 35 34  1  0  0  0  0
 36 35  2  0  0  0  0
M  END
>  <minimizedAffinity>
-6.28846312

$$$$

 OpenBabel03272501023D

 37 39  0  0  0  0  0  0  0  0999 V2000
   36.1960   27.8400   34.6850 F   0  0  0  0  0  0  0  0  0  0  0  0
   36.1870   28.5120   33.4960 C   0  0  0  0  0  0  0  0  0  0  0  0
   35.6550   29.7890   33.3560 C   0  0  0  0  0  0  0  0  0  0  0  0
   35.6930   30.3760   32.1250 C   0  0  0  0  0  0  0  0  0  0  0  0
   36.2310   29.7800   31.0000 C   0  0  0  0  0  0  0  0  0  0  0  0
   36.7550   28.5010   31.1710 C   0  0  0  0  0  0  0  0  0  0  0  0
   36.7360   27.8670   32.4080 C   0  0  0  0  0  0  0  0  0  0  0  0
   35.2850   31.3740   31.9790 H   0  0  0  0  0  0  0  0  0  0  0  0
   36.2420   30.2830   30.0340 H   0  0  0  0  0  0  0  0  0  0  0  0
   37.1780   28.0340   30.2870 H   0  0  0  0  0  0  0  0  0  0  0  0
   35.4720   31.8100   36.3920 C   0  0  0  0  0  0  0  0  0  0  0  0
   34.1370   31.7240   36.7820 C   0  0  0  0  0  0  0  0  0  0  0  0
   33.2940   30.9600   35.9870 C   0  0  0  0  0  0  0  0  0  0  0  0
   33.7770   30.3280   34.8730 N   0  0  0  0  0  0  0  0  0  0  0  0
   35.0810   30.4380   34.5290 C   0  0  0  0  0  0  0  0  0  0  0  0
   35.9230   31.1840   35.3000 N   0  0  0  0  0  0  0  0  0  0  0  0
   36.2280   32.3780   36.9340 H   0  0  0  0  0  0  0  0  0  0  0  0
   33.8260   32.2450   37.6690 H   0  0  0  0  0  0  0  0  0  0  0  0
   32.2550   30.8790   36.2700 H   0  0  0  0  0  0  0  0  0  0  0  0
   37.2590   26.6230   32.5320 O   0  0  0  0  0  0  0  0  0  0  0  0
   38.4160   25.6310   30.4500 O   0  0  0  0  0  0  0  0  0  0  0  0
   37.2440   25.3630   31.4180 P   0  0  2  0  0  0  0  0  0  0  0  0
   35.8590   25.2870   30.4800 O   0  0  0  0  0  0  0  0  0  0  0  0
   36.0080   24.6440   29.7520 H   0  0  0  0  0  0  0  0  0  0  0  0
   37.5690   23.8930   32.1530 O   0  0  0  0  0  0  0  0  0  0  0  0
   36.9710   22.0350   33.4630 C   0  0  0  0  0  0  0  0  0  0  0  0
   36.8350   22.7740   32.3030 C   0  0  0  0  0  0  0  0  0  0  0  0
   35.9370   22.3200   31.3380 C   0  0  0  0  0  0  0  0  0  0  0  0
   35.7980   22.8590   30.4270 H   0  0  0  0  0  0  0  0  0  0  0  0
   35.2170   21.1640   31.5560 C   0  0  0  0  0  0  0  0  0  0  0  0
   34.5020   20.7610   30.8410 H   0  0  0  0  0  0  0  0  0  0  0  0
   35.3680   20.4510   32.7100 C   0  0  0  0  0  3  0  0  0  0  0  0
   36.2410   20.8870   33.6530 C   0  0  0  0  0  3  0  0  0  0  0  0
   38.2860   23.9400   34.4280 H   0  0  0  0  0  0  0  0  0  0  0  0
   38.1010   22.5910   34.6950 S   0  0  0  0  0  0  0  0  0  0  0  0
   39.4250   21.9440   34.5230 O   0  0  0  0  0  0  0  0  0  0  0  0
   37.6090   22.3510   36.0760 O   0  0  0  0  0  0  0  0  0  0  0  0
  2  1  1  0  0  0  0
  3  2  1  0  0  0  0
  3 15  1  0  0  0  0
  4  3  2  0  0  0  0
  5  6  2  0  0  0  0
  5  4  1  0  0  0  0
  6  7  1  0  0  0  0
  7 20  1  0  0  0  0
  7  2  2  0  0  0  0
  8  4  1  0  0  0  0
  9  5  1  0  0  0  0
 10  6  1  0  0  0  0
 11 12  1  0  0  0  0
 11 17  1  0  0  0  0
 12 18  1  0  0  0  0
 13 19  1  0  0  0  0
 13 12  2  0  0  0  0
 14 13  1  0  0  0  0
 15 14  2  0  0  0  0
 15 16  1  0  0  0  0
 16 11  2  0  0  0  0
 22 21  2  6  0  0  0
 22 25  1  0  0  0  0
 22 20  1  0  0  0  0
 23 22  1  0  0  0  0
 24 23  1  0  0  0  0
 25 27  1  0  0  0  0
 26 33  1  0  0  0  0
 26 35  1  0  0  0  0
 27 26  2  0  0  0  0
 28 30  2  0  0  0  0
 28 27  1  0  0  0  0
 29 28  1  0  0  0  0
 30 32  1  0  0  0  0
 31 30  1  0  0  0  0
 32 33  2  0  0  0  0
 34 35  1  0  0  0  0
 35 37  2  0  0  0  0
 36 35  2  0  0  0  0
M  END
>  <minimizedAffinity>
-5.97769451

$$$$

 OpenBabel03272501023D

 37 39  0  0  0  0  0  0  0  0999 V2000
   36.0760   27.6130   34.9780 F   0  0  0  0  0  0  0  0  0  0  0  0
   36.2620   28.2430   33.7810 C   0  0  0  0  0  0  0  0  0  0  0  0
   35.8430   29.5460   33.5400 C   0  0  0  0  0  0  0  0  0  0  0  0
   36.0760   30.0860   32.3090 C   0  0  0  0  0  0  0  0  0  0  0  0
   36.7080   29.4170   31.2790 C   0  0  0  0  0  0  0  0  0  0  0  0
   37.1160   28.1130   31.5480 C   0  0  0  0  0  0  0  0  0  0  0  0
   36.8980   27.5250   32.7890 C   0  0  0  0  0  0  0  0  0  0  0  0
   35.7610   31.1030   32.0860 H   0  0  0  0  0  0  0  0  0  0  0  0
   36.8750   29.8840   30.3080 H   0  0  0  0  0  0  0  0  0  0  0  0
   37.6130   27.5890   30.7380 H   0  0  0  0  0  0  0  0  0  0  0  0
   35.4090   31.7650   36.4080 C   0  0  0  0  0  0  0  0  0  0  0  0
   34.0460   31.7060   36.6850 C   0  0  0  0  0  0  0  0  0  0  0  0
   33.2700   30.8900   35.8730 C   0  0  0  0  0  0  0  0  0  0  0  0
   33.8440   30.1850   34.8490 N   0  0  0  0  0  0  0  0  0  0  0  0
   35.1740   30.2720   34.6130 C   0  0  0  0  0  0  0  0  0  0  0  0
   35.9500   31.0680   35.4030 N   0  0  0  0  0  0  0  0  0  0  0  0
   36.1190   32.3680   36.9750 H   0  0  0  0  0  0  0  0  0  0  0  0
   33.6620   32.2850   37.5060 H   0  0  0  0  0  0  0  0  0  0  0  0
   32.2090   30.8280   36.0690 H   0  0  0  0  0  0  0  0  0  0  0  0
   37.3120   26.2540   33.0110 O   0  0  0  0  0  0  0  0  0  0  0  0
   39.1090   26.8070   34.7780 O   0  0  0  0  0  0  0  0  0  0  0  0
   38.7310   25.7260   33.7430 P   0  0  2  0  0  0  0  0  0  0  0  0
   40.0360   25.5870   32.7030 O   0  0  0  0  0  0  0  0  0  0  0  0
   40.8490   25.4460   33.2360 H   0  0  0  0  0  0  0  0  0  0  0  0
   38.4840   24.3140   34.6100 O   0  0  0  0  0  0  0  0  0  0  0  0
   39.6670   23.2240   36.3230 C   0  0  0  0  0  0  0  0  0  0  0  0
   38.6120   24.0190   35.9170 C   0  0  0  0  0  0  0  0  0  0  0  0
   37.7260   24.4800   36.8900 C   0  0  0  0  0  0  0  0  0  0  0  0
   36.8970   25.0970   36.6230 H   0  0  0  0  0  0  0  0  0  0  0  0
   37.9160   24.1380   38.2130 C   0  0  0  0  0  0  0  0  0  0  0  0
   37.2590   24.4680   39.0150 H   0  0  0  0  0  0  0  0  0  0  0  0
   38.9660   23.3520   38.5890 C   0  0  0  0  0  3  0  0  0  0  0  0
   39.8320   22.8990   37.6470 C   0  0  0  0  0  3  0  0  0  0  0  0
   39.9990   22.0950   34.1090 H   0  0  0  0  0  0  0  0  0  0  0  0
   40.7970   22.6300   35.1090 S   0  0  0  0  0  0  0  0  0  0  0  0
   41.6050   21.5080   35.6490 O   0  0  0  0  0  0  0  0  0  0  0  0
   41.7040   23.6920   34.6010 O   0  0  0  0  0  0  0  0  0  0  0  0
  2  1  1  0  0  0  0
  3  2  1  0  0  0  0
  3 15  1  0  0  0  0
  4  3  2  0  0  0  0
  5  6  2  0  0  0  0
  5  4  1  0  0  0  0
  6  7  1  0  0  0  0
  7 20  1  0  0  0  0
  7  2  2  0  0  0  0
  8  4  1  0  0  0  0
  9  5  1  0  0  0  0
 10  6  1  0  0  0  0
 11 12  1  0  0  0  0
 11 17  1  0  0  0  0
 12 18  1  0  0  0  0
 13 19  1  0  0  0  0
 13 12  2  0  0  0  0
 14 13  1  0  0  0  0
 15 14  2  0  0  0  0
 15 16  1  0  0  0  0
 16 11  2  0  0  0  0
 20 22  1  0  0  0  0
 22 25  1  0  0  0  0
 22 21  2  1  0  0  0
 23 24  1  0  0  0  0
 23 22  1  0  0  0  0
 25 27  1  0  0  0  0
 26 33  1  0  0  0  0
 27 26  2  0  0  0  0
 27 28  1  0  0  0  0
 28 30  2  0  0  0  0
 29 28  1  0  0  0  0
 30 32  1  0  0  0  0
 30 31  1  0  0  0  0
 33 32  2  0  0  0  0
 34 35  1  0  0  0  0
 35 36  2  0  0  0  0
 35 26  1  0  0  0  0
 37 35  2  0  0  0  0
M  END
>  <minimizedAffinity>
-5.93803549

$$$$

 OpenBabel03272501023D

 37 39  0  0  0  0  0  0  0  0999 V2000
   36.3710   27.6200   35.0900 F   0  0  0  0  0  0  0  0  0  0  0  0
   36.4000   28.1420   33.8290 C   0  0  0  0  0  0  0  0  0  0  0  0
   35.8370   29.3720   33.5090 C   0  0  0  0  0  0  0  0  0  0  0  0
   35.9180   29.8060   32.2180 C   0  0  0  0  0  0  0  0  0  0  0  0
   36.5290   29.0980   31.2010 C   0  0  0  0  0  0  0  0  0  0  0  0
   37.0830   27.8690   31.5510 C   0  0  0  0  0  0  0  0  0  0  0  0
   37.0220   27.3900   32.8550 C   0  0  0  0  0  0  0  0  0  0  0  0
   35.4890   30.7640   31.9320 H   0  0  0  0  0  0  0  0  0  0  0  0
   36.5720   29.4800   30.1810 H   0  0  0  0  0  0  0  0  0  0  0  0
   37.5620   27.3140   30.7520 H   0  0  0  0  0  0  0  0  0  0  0  0
   35.4550   31.6960   36.2990 C   0  0  0  0  0  0  0  0  0  0  0  0
   34.0970   31.6480   36.6030 C   0  0  0  0  0  0  0  0  0  0  0  0
   33.3060   30.8040   35.8350 C   0  0  0  0  0  0  0  0  0  0  0  0
   33.8620   30.0600   34.8280 N   0  0  0  0  0  0  0  0  0  0  0  0
   35.1870   30.1370   34.5660 C   0  0  0  0  0  0  0  0  0  0  0  0
   35.9770   30.9620   35.3120 N   0  0  0  0  0  0  0  0  0  0  0  0
   36.1750   32.3200   36.8310 H   0  0  0  0  0  0  0  0  0  0  0  0
   33.7280   32.2580   37.4080 H   0  0  0  0  0  0  0  0  0  0  0  0
   32.2500   30.7490   36.0530 H   0  0  0  0  0  0  0  0  0  0  0  0
   37.5750   26.1890   33.1540 O   0  0  0  0  0  0  0  0  0  0  0  0
   39.9360   27.1780   33.4730 O   0  0  0  0  0  0  0  0  0  0  0  0
   39.1750   25.8370   33.5350 P   0  0  2  0  0  0  0  0  0  0  0  0
   39.9330   24.8080   32.4530 O   0  0  0  0  0  0  0  0  0  0  0  0
   40.8950   24.7970   32.6510 H   0  0  0  0  0  0  0  0  0  0  0  0
   39.3210   25.2860   35.1110 O   0  0  0  0  0  0  0  0  0  0  0  0
   39.4690   23.4810   36.6080 C   0  0  0  0  0  0  0  0  0  0  0  0
   40.0540   24.3000   35.6610 C   0  0  0  0  0  0  0  0  0  0  0  0
   41.3840   24.0620   35.3190 C   0  0  0  0  0  0  0  0  0  0  0  0
   41.8770   24.6690   34.5920 H   0  0  0  0  0  0  0  0  0  0  0  0
   42.0780   23.0330   35.9230 C   0  0  0  0  0  0  0  0  0  0  0  0
   43.1170   22.8000   35.6970 H   0  0  0  0  0  0  0  0  0  0  0  0
   41.4790   22.2380   36.8560 C   0  0  0  0  0  3  0  0  0  0  0  0
   40.1840   22.4640   37.1930 C   0  0  0  0  0  3  0  0  0  0  0  0
   37.3660   24.7890   36.2190 H   0  0  0  0  0  0  0  0  0  0  0  0
   37.7890   23.7650   37.0540 S   0  0  0  0  0  0  0  0  0  0  0  0
   37.6950   24.2870   38.4400 O   0  0  0  0  0  0  0  0  0  0  0  0
   36.9470   22.5480   36.9270 O   0  0  0  0  0  0  0  0  0  0  0  0
  2  1  1  0  0  0  0
  3  2  1  0  0  0  0
  3 15  1  0  0  0  0
  4  3  2  0  0  0  0
  5  6  2  0  0  0  0
  5  4  1  0  0  0  0
  6  7  1  0  0  0  0
  7 20  1  0  0  0  0
  7  2  2  0  0  0  0
  8  4  1  0  0  0  0
  9  5  1  0  0  0  0
 10  6  1  0  0  0  0
 11 12  1  0  0  0  0
 11 17  1  0  0  0  0
 12 18  1  0  0  0  0
 13 19  1  0  0  0  0
 13 12  2  0  0  0  0
 14 13  1  0  0  0  0
 15 14  2  0  0  0  0
 15 16  1  0  0  0  0
 16 11  2  0  0  0  0
 20 22  1  0  0  0  0
 22 21  2  6  0  0  0
 22 25  1  0  0  0  0
 23 24  1  0  0  0  0
 23 22  1  0  0  0  0
 25 27  1  0  0  0  0
 26 35  1  0  0  0  0
 26 33  1  0  0  0  0
 27 26  2  0  0  0  0
 28 27  1  0  0  0  0
 28 30  2  0  0  0  0
 29 28  1  0  0  0  0
 30 32  1  0  0  0  0
 31 30  1  0  0  0  0
 32 33  2  0  0  0  0
 34 35  1  0  0  0  0
 35 36  2  0  0  0  0
 37 35  2  0  0  0  0
M  END
>  <minimizedAffinity>
-5.85273409

$$$$

 OpenBabel03272501023D

 37 39  0  0  0  0  0  0  0  0999 V2000
   37.8350   24.0000   33.8280 F   0  0  0  0  0  0  0  0  0  0  0  0
   37.8860   25.2310   34.4160 C   0  0  0  0  0  0  0  0  0  0  0  0
   38.6080   25.4830   35.5770 C   0  0  0  0  0  0  0  0  0  0  0  0
   38.5960   26.7480   36.0870 C   0  0  0  0  0  0  0  0  0  0  0  0
   37.9080   27.8040   35.5200 C   0  0  0  0  0  0  0  0  0  0  0  0
   37.1920   27.5210   34.3590 C   0  0  0  0  0  0  0  0  0  0  0  0
   37.1780   26.2450   33.8070 C   0  0  0  0  0  0  0  0  0  0  0  0
   39.1500   26.9810   36.9940 H   0  0  0  0  0  0  0  0  0  0  0  0
   37.9230   28.8010   35.9590 H   0  0  0  0  0  0  0  0  0  0  0  0
   36.6530   28.3510   33.9140 H   0  0  0  0  0  0  0  0  0  0  0  0
   39.4270   22.8290   37.9480 C   0  0  0  0  0  0  0  0  0  0  0  0
   40.6230   22.2980   37.4690 C   0  0  0  0  0  0  0  0  0  0  0  0
   41.1500   22.8640   36.3170 C   0  0  0  0  0  0  0  0  0  0  0  0
   40.5040   23.8980   35.6950 N   0  0  0  0  0  0  0  0  0  0  0  0
   39.3430   24.3840   36.1930 C   0  0  0  0  0  0  0  0  0  0  0  0
   38.8120   23.8390   37.3250 N   0  0  0  0  0  0  0  0  0  0  0  0
   38.9170   22.4690   38.8420 H   0  0  0  0  0  0  0  0  0  0  0  0
   41.0770   21.4860   38.0090 H   0  0  0  0  0  0  0  0  0  0  0  0
   42.0770   22.4690   35.9270 H   0  0  0  0  0  0  0  0  0  0  0  0
   36.4710   26.0130   32.6740 O   0  0  0  0  0  0  0  0  0  0  0  0
   38.4790   26.4860   31.1240 O   0  0  0  0  0  0  0  0  0  0  0  0
   37.0110   26.0100   31.0820 P   0  0  2  0  0  0  0  0  0  0  0  0
   36.1960   27.0710   30.0730 O   0  0  0  0  0  0  0  0  0  0  0  0
   36.6830   27.1310   29.2220 H   0  0  0  0  0  0  0  0  0  0  0  0
   37.0380   24.4590   30.4480 O   0  0  0  0  0  0  0  0  0  0  0  0
   37.7780   22.2970   30.9930 C   0  0  0  0  0  0  0  0  0  0  0  0
   36.7820   23.2550   30.9920 C   0  0  0  0  0  0  0  0  0  0  0  0
   35.5520   22.9230   31.5590 C   0  0  0  0  0  0  0  0  0  0  0  0
   34.7540   23.6310   31.5810 H   0  0  0  0  0  0  0  0  0  0  0  0
   35.3580   21.6680   32.0980 C   0  0  0  0  0  0  0  0  0  0  0  0
   34.4210   21.3530   32.5530 H   0  0  0  0  0  0  0  0  0  0  0  0
   36.3560   20.7390   32.0870 C   0  0  0  0  0  3  0  0  0  0  0  0
   37.5560   21.0550   31.5370 C   0  0  0  0  0  3  0  0  0  0  0  0
   39.3750   24.0820   30.2510 H   0  0  0  0  0  0  0  0  0  0  0  0
   39.3390   22.6950   30.2810 S   0  0  0  0  0  0  0  0  0  0  0  0
   39.4030   22.2420   28.8690 O   0  0  0  0  0  0  0  0  0  0  0  0
   40.4800   22.1170   31.0370 O   0  0  0  0  0  0  0  0  0  0  0  0
  1  2  1  0  0  0  0
  2  3  1  0  0  0  0
  3  4  2  0  0  0  0
  3 15  1  0  0  0  0
  4  8  1  0  0  0  0
  5  9  1  0  0  0  0
  5  4  1  0  0  0  0
  6  5  2  0  0  0  0
  7  6  1  0  0  0  0
  7  2  2  0  0  0  0
 10  6  1  0  0  0  0
 11 17  1  0  0  0  0
 12 11  1  0  0  0  0
 12 18  1  0  0  0  0
 13 12  2  0  0  0  0
 14 15  2  0  0  0  0
 14 13  1  0  0  0  0
 15 16  1  0  0  0  0
 16 11  2  0  0  0  0
 19 13  1  0  0  0  0
 20  7  1  0  0  0  0
 22 21  2  1  0  0  0
 22 20  1  0  0  0  0
 23 22  1  0  0  0  0
 24 23  1  0  0  0  0
 25 27  1  0  0  0  0
 25 22  1  0  0  0  0
 26 33  1  0  0  0  0
 27 26  2  0  0  0  0
 27 28  1  0  0  0  0
 28 29  1  0  0  0  0
 28 30  2  0  0  0  0
 30 31  1  0  0  0  0
 32 30  1  0  0  0  0
 33 32  2  0  0  0  0
 34 35  1  0  0  0  0
 35 26  1  0  0  0  0
 35 37  2  0  0  0  0
 36 35  2  0  0  0  0
M  END
>  <minimizedAffinity>
-5.80517006

$$$$

 OpenBabel03272501023D

 37 39  0  0  0  0  0  0  0  0999 V2000
   36.8960   25.6370   33.7620 F   0  0  0  0  0  0  0  0  0  0  0  0
   38.2100   25.9500   33.9640 C   0  0  0  0  0  0  0  0  0  0  0  0
   38.8910   26.8820   33.1890 C   0  0  0  0  0  0  0  0  0  0  0  0
   40.2030   27.1250   33.4700 C   0  0  0  0  0  0  0  0  0  0  0  0
   40.9050   26.5010   34.4840 C   0  0  0  0  0  0  0  0  0  0  0  0
   40.1970   25.5720   35.2430 C   0  0  0  0  0  0  0  0  0  0  0  0
   38.8590   25.2950   34.9890 C   0  0  0  0  0  0  0  0  0  0  0  0
   40.7660   27.8480   32.8850 H   0  0  0  0  0  0  0  0  0  0  0  0
   41.9540   26.7230   34.6770 H   0  0  0  0  0  0  0  0  0  0  0  0
   40.7490   25.0830   36.0390 H   0  0  0  0  0  0  0  0  0  0  0  0
   38.0730   28.0170   29.8150 C   0  0  0  0  0  0  0  0  0  0  0  0
   36.9130   28.7710   29.9780 C   0  0  0  0  0  0  0  0  0  0  0  0
   36.4100   28.8870   31.2660 C   0  0  0  0  0  0  0  0  0  0  0  0
   37.0450   28.2780   32.3160 N   0  0  0  0  0  0  0  0  0  0  0  0
   38.1700   27.5540   32.1140 C   0  0  0  0  0  0  0  0  0  0  0  0
   38.6770   27.4300   30.8540 N   0  0  0  0  0  0  0  0  0  0  0  0
   38.5620   27.8530   28.8540 H   0  0  0  0  0  0  0  0  0  0  0  0
   36.4680   29.2230   29.1100 H   0  0  0  0  0  0  0  0  0  0  0  0
   35.5120   29.4680   31.4170 H   0  0  0  0  0  0  0  0  0  0  0  0
   38.2060   24.3850   35.7520 O   0  0  0  0  0  0  0  0  0  0  0  0
   36.9050   22.2300   36.3190 O   0  0  0  0  0  0  0  0  0  0  0  0
   38.1830   22.7100   35.5980 P   0  0  2  0  0  0  0  0  0  0  0  0
   39.4680   21.9300   36.3360 O   0  0  0  0  0  0  0  0  0  0  0  0
   39.2840   20.9650   36.3470 H   0  0  0  0  0  0  0  0  0  0  0  0
   38.0200   22.2460   33.9960 O   0  0  0  0  0  0  0  0  0  0  0  0
   36.7390   22.1270   32.0300 C   0  0  0  0  0  0  0  0  0  0  0  0
   37.0020   21.6890   33.3140 C   0  0  0  0  0  0  0  0  0  0  0  0
   36.1930   20.6840   33.8430 C   0  0  0  0  0  0  0  0  0  0  0  0
   36.3590   20.3140   34.8300 H   0  0  0  0  0  0  0  0  0  0  0  0
   35.1650   20.1580   33.0880 C   0  0  0  0  0  0  0  0  0  0  0  0
   34.5010   19.3730   33.4470 H   0  0  0  0  0  0  0  0  0  0  0  0
   34.9250   20.6060   31.8220 C   0  0  0  0  0  3  0  0  0  0  0  0
   35.7080   21.5850   31.3010 C   0  0  0  0  0  3  0  0  0  0  0  0
   38.4120   23.9510   32.4270 H   0  0  0  0  0  0  0  0  0  0  0  0
   37.7490   23.3960   31.3430 S   0  0  0  0  0  0  0  0  0  0  0  0
   36.9130   24.4760   30.7630 O   0  0  0  0  0  0  0  0  0  0  0  0
   38.6860   22.8870   30.3080 O   0  0  0  0  0  0  0  0  0  0  0  0
  1  2  1  0  0  0  0
  2  7  1  0  0  0  0
  3  4  1  0  0  0  0
  3  2  2  0  0  0  0
  4  5  2  0  0  0  0
  5  9  1  0  0  0  0
  5  6  1  0  0  0  0
  6 10  1  0  0  0  0
  7  6  2  0  0  0  0
  7 20  1  0  0  0  0
  8  4  1  0  0  0  0
 11 12  2  0  0  0  0
 11 16  1  0  0  0  0
 12 13  1  0  0  0  0
 13 19  1  0  0  0  0
 13 14  2  0  0  0  0
 15 14  1  0  0  0  0
 15  3  1  0  0  0  0
 16 15  2  0  0  0  0
 17 11  1  0  0  0  0
 18 12  1  0  0  0  0
 22 20  1  0  0  0  0
 22 21  2  1  0  0  0
 22 23  1  0  0  0  0
 23 24  1  0  0  0  0
 25 22  1  0  0  0  0
 26 27  1  0  0  0  0
 27 28  2  0  0  0  0
 27 25  1  0  0  0  0
 28 29  1  0  0  0  0
 30 31  1  0  0  0  0
 30 28  1  0  0  0  0
 32 30  2  0  0  0  0
 33 32  1  0  0  0  0
 33 26  2  0  0  0  0
 35 26  1  0  0  0  0
 35 34  1  0  0  0  0
 36 35  2  0  0  0  0
 37 35  2  0  0  0  0
M  END
>  <minimizedAffinity>
-5.63336086

$$$$

 OpenBabel03272501023D

 37 39  0  0  0  0  0  0  0  0999 V2000
   36.2520   27.9220   34.9240 F   0  0  0  0  0  0  0  0  0  0  0  0
   36.1650   28.5220   33.7010 C   0  0  0  0  0  0  0  0  0  0  0  0
   35.6050   29.7810   33.5160 C   0  0  0  0  0  0  0  0  0  0  0  0
   35.5650   30.2950   32.2530 C   0  0  0  0  0  0  0  0  0  0  0  0
   36.0490   29.6400   31.1360 C   0  0  0  0  0  0  0  0  0  0  0  0
   36.6020   28.3800   31.3510 C   0  0  0  0  0  0  0  0  0  0  0  0
   36.6620   27.8210   32.6230 C   0  0  0  0  0  0  0  0  0  0  0  0
   35.1340   31.2770   32.0720 H   0  0  0  0  0  0  0  0  0  0  0  0
   35.9970   30.0850   30.1430 H   0  0  0  0  0  0  0  0  0  0  0  0
   36.9820   27.8670   30.4740 H   0  0  0  0  0  0  0  0  0  0  0  0
   33.2220   30.9360   36.0310 C   0  0  0  0  0  0  0  0  0  0  0  0
   33.9710   31.7730   36.8550 C   0  0  0  0  0  0  0  0  0  0  0  0
   35.3120   31.9380   36.5380 C   0  0  0  0  0  0  0  0  0  0  0  0
   35.8520   31.2960   35.4560 N   0  0  0  0  0  0  0  0  0  0  0  0
   35.0890   30.4910   34.6800 C   0  0  0  0  0  0  0  0  0  0  0  0
   33.7690   30.3180   34.9790 N   0  0  0  0  0  0  0  0  0  0  0  0
   32.1620   30.7280   36.1780 H   0  0  0  0  0  0  0  0  0  0  0  0
   33.4820   32.2460   37.6880 H   0  0  0  0  0  0  0  0  0  0  0  0
   35.9130   32.5830   37.1620 H   0  0  0  0  0  0  0  0  0  0  0  0
   37.2110   26.5920   32.7890 O   0  0  0  0  0  0  0  0  0  0  0  0
   39.6020   27.2690   33.4840 O   0  0  0  0  0  0  0  0  0  0  0  0
   38.8340   26.1540   32.7440 P   0  0  2  0  0  0  0  0  0  0  0  0
   39.4850   26.0690   31.2030 O   0  0  0  0  0  0  0  0  0  0  0  0
   40.4600   25.9800   31.2790 H   0  0  0  0  0  0  0  0  0  0  0  0
   39.1100   24.7430   33.6050 O   0  0  0  0  0  0  0  0  0  0  0  0
   38.1400   22.9870   34.8290 C   0  0  0  0  0  0  0  0  0  0  0  0
   38.6170   24.2830   34.7700 C   0  0  0  0  0  0  0  0  0  0  0  0
   38.5650   25.0540   35.9300 C   0  0  0  0  0  0  0  0  0  0  0  0
   38.9220   26.0600   35.9320 H   0  0  0  0  0  0  0  0  0  0  0  0
   38.0460   24.5200   37.0910 C   0  0  0  0  0  0  0  0  0  0  0  0
   37.9790   25.0730   38.0260 H   0  0  0  0  0  0  0  0  0  0  0  0
   37.5810   23.2370   37.1250 C   0  0  0  0  0  3  0  0  0  0  0  0
   37.6280   22.4810   35.9990 C   0  0  0  0  0  3  0  0  0  0  0  0
   37.9780   22.8810   32.3300 H   0  0  0  0  0  0  0  0  0  0  0  0
   38.1970   21.9950   33.3750 S   0  0  0  0  0  0  0  0  0  0  0  0
   37.0690   21.0320   33.3520 O   0  0  0  0  0  0  0  0  0  0  0  0
   39.4790   21.2580   33.2320 O   0  0  0  0  0  0  0  0  0  0  0  0
  2  1  1  0  0  0  0
  3  2  1  0  0  0  0
  3 15  1  0  0  0  0
  4  3  2  0  0  0  0
  5  6  2  0  0  0  0
  5  4  1  0  0  0  0
  6  7  1  0  0  0  0
  7 20  1  0  0  0  0
  7  2  2  0  0  0  0
  8  4  1  0  0  0  0
  9  5  1  0  0  0  0
 10  6  1  0  0  0  0
 11 17  1  0  0  0  0
 11 12  1  0  0  0  0
 12 18  1  0  0  0  0
 13 12  2  0  0  0  0
 13 19  1  0  0  0  0
 14 13  1  0  0  0  0
 15 16  1  0  0  0  0
 15 14  2  0  0  0  0
 16 11  2  0  0  0  0
 22 20  1  0  0  0  0
 22 21  2  1  0  0  0
 22 25  1  0  0  0  0
 23 24  1  0  0  0  0
 23 22  1  0  0  0  0
 25 27  1  0  0  0  0
 26 33  1  0  0  0  0
 27 26  2  0  0  0  0
 27 28  1  0  0  0  0
 28 29  1  0  0  0  0
 28 30  2  0  0  0  0
 30 32  1  0  0  0  0
 30 31  1  0  0  0  0
 33 32  2  0  0  0  0
 34 35  1  0  0  0  0
 35 26  1  0  0  0  0
 36 35  2  0  0  0  0
 37 35  2  0  0  0  0
M  END
>  <minimizedAffinity>
-5.60045958

$$$$

 OpenBabel03272501023D

 37 39  0  0  0  0  0  0  0  0999 V2000
   36.1590   27.7620   34.9190 F   0  0  0  0  0  0  0  0  0  0  0  0
   36.2590   28.4240   33.7290 C   0  0  0  0  0  0  0  0  0  0  0  0
   35.7530   29.7040   33.5330 C   0  0  0  0  0  0  0  0  0  0  0  0
   35.9040   30.2810   32.3050 C   0  0  0  0  0  0  0  0  0  0  0  0
   36.5320   29.6700   31.2370 C   0  0  0  0  0  0  0  0  0  0  0  0
   37.0280   28.3880   31.4630 C   0  0  0  0  0  0  0  0  0  0  0  0
   36.8950   27.7650   32.6990 C   0  0  0  0  0  0  0  0  0  0  0  0
   35.5210   31.2810   32.1170 H   0  0  0  0  0  0  0  0  0  0  0  0
   36.6320   30.1650   30.2710 H   0  0  0  0  0  0  0  0  0  0  0  0
   37.5220   27.9100   30.6230 H   0  0  0  0  0  0  0  0  0  0  0  0
   35.3110   31.8170   36.4790 C   0  0  0  0  0  0  0  0  0  0  0  0
   33.9600   31.6900   36.7930 C   0  0  0  0  0  0  0  0  0  0  0  0
   33.1960   30.8650   35.9790 C   0  0  0  0  0  0  0  0  0  0  0  0
   33.7690   30.2160   34.9180 N   0  0  0  0  0  0  0  0  0  0  0  0
   35.0860   30.3680   34.6470 C   0  0  0  0  0  0  0  0  0  0  0  0
   35.8510   31.1740   35.4380 N   0  0  0  0  0  0  0  0  0  0  0  0
   36.0110   32.4340   37.0430 H   0  0  0  0  0  0  0  0  0  0  0  0
   33.5770   32.2270   37.6420 H   0  0  0  0  0  0  0  0  0  0  0  0
   32.1460   30.7510   36.2030 H   0  0  0  0  0  0  0  0  0  0  0  0
   37.3930   26.5170   32.8770 O   0  0  0  0  0  0  0  0  0  0  0  0
   39.5450   27.2210   34.1140 O   0  0  0  0  0  0  0  0  0  0  0  0
   38.9610   26.0610   33.2800 P   0  0  2  0  0  0  0  0  0  0  0  0
   39.9810   25.8580   31.9680 O   0  0  0  0  0  0  0  0  0  0  0  0
   40.9020   25.7660   32.2970 H   0  0  0  0  0  0  0  0  0  0  0  0
   38.9690   24.7160   34.2780 O   0  0  0  0  0  0  0  0  0  0  0  0
   38.0080   22.9370   35.4770 C   0  0  0  0  0  0  0  0  0  0  0  0
   38.2390   23.5840   34.2780 C   0  0  0  0  0  0  0  0  0  0  0  0
   37.7010   23.0280   33.1180 C   0  0  0  0  0  0  0  0  0  0  0  0
   37.8530   23.4930   32.1690 H   0  0  0  0  0  0  0  0  0  0  0  0
   36.9640   21.8640   33.1900 C   0  0  0  0  0  0  0  0  0  0  0  0
   36.5200   21.3840   32.3190 H   0  0  0  0  0  0  0  0  0  0  0  0
   36.7480   21.2430   34.3850 C   0  0  0  0  0  3  0  0  0  0  0  0
   37.2700   21.7790   35.5180 C   0  0  0  0  0  3  0  0  0  0  0  0
   39.3070   24.7930   36.5520 H   0  0  0  0  0  0  0  0  0  0  0  0
   38.6790   23.6230   36.9540 S   0  0  0  0  0  0  0  0  0  0  0  0
   39.7410   22.7450   37.5050 O   0  0  0  0  0  0  0  0  0  0  0  0
   37.6480   23.8640   37.9960 O   0  0  0  0  0  0  0  0  0  0  0  0
  2  1  1  0  0  0  0
  3  2  1  0  0  0  0
  3 15  1  0  0  0  0
  4  3  2  0  0  0  0
  5  6  2  0  0  0  0
  5  4  1  0  0  0  0
  6  7  1  0  0  0  0
  7 20  1  0  0  0  0
  7  2  2  0  0  0  0
  8  4  1  0  0  0  0
  9  5  1  0  0  0  0
 10  6  1  0  0  0  0
 11 12  1  0  0  0  0
 11 17  1  0  0  0  0
 12 18  1  0  0  0  0
 13 19  1  0  0  0  0
 13 12  2  0  0  0  0
 14 13  1  0  0  0  0
 15 14  2  0  0  0  0
 15 16  1  0  0  0  0
 16 11  2  0  0  0  0
 20 22  1  0  0  0  0
 22 21  2  1  0  0  0
 22 25  1  0  0  0  0
 23 24  1  0  0  0  0
 23 22  1  0  0  0  0
 25 27  1  0  0  0  0
 26 33  1  0  0  0  0
 26 35  1  0  0  0  0
 27 26  2  0  0  0  0
 28 30  2  0  0  0  0
 28 27  1  0  0  0  0
 29 28  1  0  0  0  0
 30 32  1  0  0  0  0
 31 30  1  0  0  0  0
 32 33  2  0  0  0  0
 34 35  1  0  0  0  0
 35 36  2  0  0  0  0
 35 37  2  0  0  0  0
M  END
>  <minimizedAffinity>
-5.54728937

$$$$

 OpenBabel03272501023D

 37 39  0  0  0  0  0  0  0  0999 V2000
   37.5510   27.8070   34.4900 F   0  0  0  0  0  0  0  0  0  0  0  0
   37.1070   27.0550   33.4390 C   0  0  0  0  0  0  0  0  0  0  0  0
   37.3230   25.6850   33.3480 C   0  0  0  0  0  0  0  0  0  0  0  0
   36.8390   25.0230   32.2570 C   0  0  0  0  0  0  0  0  0  0  0  0
   36.1430   25.6310   31.2300 C   0  0  0  0  0  0  0  0  0  0  0  0
   35.9430   27.0050   31.3490 C   0  0  0  0  0  0  0  0  0  0  0  0
   36.4200   27.7160   32.4440 C   0  0  0  0  0  0  0  0  0  0  0  0
   36.9900   23.9510   32.1530 H   0  0  0  0  0  0  0  0  0  0  0  0
   35.7730   25.0670   30.3750 H   0  0  0  0  0  0  0  0  0  0  0  0
   35.3960   27.4810   30.5420 H   0  0  0  0  0  0  0  0  0  0  0  0
   39.9540   23.7780   35.0140 C   0  0  0  0  0  0  0  0  0  0  0  0
   39.5500   23.7250   36.3460 C   0  0  0  0  0  0  0  0  0  0  0  0
   38.3560   24.3550   36.6690 C   0  0  0  0  0  0  0  0  0  0  0  0
   37.6250   24.9940   35.7040 N   0  0  0  0  0  0  0  0  0  0  0  0
   38.0550   25.0220   34.4200 C   0  0  0  0  0  0  0  0  0  0  0  0
   39.2260   24.4070   34.0860 N   0  0  0  0  0  0  0  0  0  0  0  0
   40.8700   23.3210   34.6380 H   0  0  0  0  0  0  0  0  0  0  0  0
   40.1710   23.2050   37.0520 H   0  0  0  0  0  0  0  0  0  0  0  0
   38.0210   24.3270   37.6960 H   0  0  0  0  0  0  0  0  0  0  0  0
   36.2020   29.0520   32.5210 O   0  0  0  0  0  0  0  0  0  0  0  0
   33.6230   29.0600   32.4640 O   0  0  0  0  0  0  0  0  0  0  0  0
   34.8170   29.8620   33.0240 P   0  0  2  0  0  0  0  0  0  0  0  0
   34.6690   31.4180   32.4240 O   0  0  0  0  0  0  0  0  0  0  0  0
   33.7640   31.7460   32.6220 H   0  0  0  0  0  0  0  0  0  0  0  0
   34.6620   29.8300   34.6920 O   0  0  0  0  0  0  0  0  0  0  0  0
   33.0930   30.8290   36.1290 C   0  0  0  0  0  0  0  0  0  0  0  0
   34.3660   30.7860   35.5920 C   0  0  0  0  0  0  0  0  0  0  0  0
   35.2870   31.7440   36.0140 C   0  0  0  0  0  0  0  0  0  0  0  0
   36.2820   31.7500   35.6270 H   0  0  0  0  0  0  0  0  0  0  0  0
   34.9160   32.6970   36.9390 C   0  0  0  0  0  0  0  0  0  0  0  0
   35.5920   33.4690   37.3050 H   0  0  0  0  0  0  0  0  0  0  0  0
   33.6540   32.7190   37.4550 C   0  0  0  0  0  3  0  0  0  0  0  0
   32.7510   31.7900   37.0490 C   0  0  0  0  0  3  0  0  0  0  0  0
   32.0770   29.5370   34.2350 H   0  0  0  0  0  0  0  0  0  0  0  0
   31.9130   29.6290   35.6090 S   0  0  0  0  0  0  0  0  0  0  0  0
   30.5310   30.1190   35.8360 O   0  0  0  0  0  0  0  0  0  0  0  0
   32.0890   28.3190   36.2880 O   0  0  0  0  0  0  0  0  0  0  0  0
  2  1  1  0  0  0  0
  3  2  1  0  0  0  0
  3 15  1  0  0  0  0
  4  3  2  0  0  0  0
  5  6  2  0  0  0  0
  5  4  1  0  0  0  0
  6  7  1  0  0  0  0
  7 20  1  0  0  0  0
  7  2  2  0  0  0  0
  8  4  1  0  0  0  0
  9  5  1  0  0  0  0
 10  6  1  0  0  0  0
 11 12  1  0  0  0  0
 12 13  2  0  0  0  0
 12 18  1  0  0  0  0
 13 19  1  0  0  0  0
 14 13  1  0  0  0  0
 15 14  2  0  0  0  0
 16 15  1  0  0  0  0
 16 11  2  0  0  0  0
 17 11  1  0  0  0  0
 20 22  1  0  0  0  0
 22 21  2  6  0  0  0
 22 25  1  0  0  0  0
 23 24  1  0  0  0  0
 23 22  1  0  0  0  0
 25 27  1  0  0  0  0
 26 33  1  0  0  0  0
 27 28  1  0  0  0  0
 27 26  2  0  0  0  0
 28 30  2  0  0  0  0
 29 28  1  0  0  0  0
 30 31  1  0  0  0  0
 30 32  1  0  0  0  0
 33 32  2  0  0  0  0
 34 35  1  0  0  0  0
 35 36  2  0  0  0  0
 35 26  1  0  0  0  0
 35 37  2  0  0  0  0
M  END
>  <minimizedAffinity>
-5.47283411

$$$$
