
 OpenBabel03272502253D

 33 35  0  0  0  0  0  0  0  0999 V2000
   37.1140   29.6320   50.0020 C   0  0  0  0  0  0  0  0  0  0  0  0
   37.7320   30.3090   48.9240 C   0  0  0  0  0  0  0  0  0  0  0  0
   36.9930   30.4710   47.7530 C   0  0  0  0  0  0  0  0  0  0  0  0
   35.7510   29.9720   47.7380 N   0  0  0  0  0  0  0  0  0  0  0  0
   35.1820   29.3320   48.7770 C   0  0  0  0  0  0  0  0  0  0  0  0
   35.8760   29.1670   49.9100 N   0  0  0  0  0  0  0  0  0  0  0  0
   37.7340   29.5330   50.8920 H   0  0  0  0  0  0  0  0  0  0  0  0
   38.7460   30.6990   48.9750 H   0  0  0  0  0  0  0  0  0  0  0  0
   37.5260   31.1540   46.5910 C   0  0  0  0  0  0  0  0  0  0  0  0
   36.8860   31.0340   45.3580 C   0  0  0  0  0  0  0  0  0  0  0  0
   37.3500   31.6670   44.2210 C   0  0  0  0  0  0  0  0  0  0  0  0
   38.4660   32.4330   44.2990 N   0  0  0  0  0  0  0  0  0  0  0  0
   39.0610   32.5300   45.4960 C   0  0  0  0  0  0  0  0  0  0  0  0
   38.6270   31.9230   46.6130 N   0  0  0  0  0  0  0  0  0  0  0  0
   36.0000   30.4150   45.3390 H   0  0  0  0  0  0  0  0  0  0  0  0
   36.8110   31.5380   43.2900 H   0  0  0  0  0  0  0  0  0  0  0  0
   40.2870   33.3640   45.6130 C   0  0  0  0  0  0  0  0  0  0  0  0
   40.2920   33.9440   46.8900 F   0  0  0  0  0  0  0  0  0  0  0  0
   41.4190   32.6140   45.4130 F   0  0  0  0  0  0  0  0  0  0  0  0
   40.2770   34.4230   44.7350 F   0  0  0  0  0  0  0  0  0  0  0  0
   33.8910   28.8910   48.5610 O   0  0  0  0  0  0  0  0  0  0  0  0
   32.7300   27.8630   46.8340 C   0  0  0  0  0  0  0  0  0  0  0  0
   33.2430   29.0350   47.3450 C   0  0  0  0  0  0  0  0  0  0  0  0
   33.1180   30.2250   46.7000 C   0  0  0  0  0  0  0  0  0  0  0  0
   33.5370   31.0960   47.1470 H   0  0  0  0  0  0  0  0  0  0  0  0
   32.4600   30.2960   45.4920 C   0  0  0  0  0  0  0  0  0  0  0  0
   32.3600   31.2490   44.9780 H   0  0  0  0  0  0  0  0  0  0  0  0
   31.9230   29.1580   44.9260 C   0  0  0  0  0  3  0  0  0  0  0  0
   32.0670   27.9660   45.6050 C   0  0  0  0  0  3  0  0  0  0  0  0
   33.9270   25.9660   48.1530 H   0  0  0  0  0  0  0  0  0  0  0  0
   32.7730   26.2580   47.4990 S   0  0  0  0  0  0  0  0  0  0  0  0
   31.5330   25.9290   48.3060 O   0  0  0  0  0  0  0  0  0  0  0  0
   32.7170   25.2680   46.3390 O   0  0  0  0  0  0  0  0  0  0  0  0
  1  7  1  0  0  0  0
  2  8  1  0  0  0  0
  2  1  2  0  0  0  0
  3  2  1  0  0  0  0
  4  3  2  0  0  0  0
  4  5  1  0  0  0  0
  5  6  2  0  0  0  0
  6  1  1  0  0  0  0
  9 14  1  0  0  0  0
  9  3  1  0  0  0  0
 10  9  2  0  0  0  0
 11 12  2  0  0  0  0
 11 10  1  0  0  0  0
 12 13  1  0  0  0  0
 13 17  1  0  0  0  0
 13 14  2  0  0  0  0
 15 10  1  0  0  0  0
 16 11  1  0  0  0  0
 17 18  1  0  0  0  0
 19 17  1  0  0  0  0
 20 17  1  0  0  0  0
 21  5  1  0  0  0  0
 22 23  1  0  0  0  0
 22 31  1  0  0  0  0
 23 21  1  0  0  0  0
 24 25  1  0  0  0  0
 24 23  2  0  0  0  0
 26 24  1  0  0  0  0
 27 26  1  0  0  0  0
 28 26  2  0  0  0  0
 28 29  1  0  0  0  0
 29 22  2  0  0  0  0
 31 30  1  0  0  0  0
 31 32  2  0  0  0  0
 33 31  2  0  0  0  0
M  END
>  <minimizedAffinity>
-5.75943899

>  <minimizedRMSD>
1.85529113

$$$$
