
     RDKit          3D

 31 32  0  0  0  0  0  0  0  0999 V2000
   35.9502   30.7999   49.6170 C   0  0  0  0  0  0  0  0  0  0  0  0
   36.2246   29.9062   50.6403 C   0  0  0  0  0  0  0  0  0  0  0  0
   37.4879   29.8897   51.1986 C   0  0  0  0  0  0  0  0  0  0  0  0
   38.4344   30.7556   50.7269 N   0  0  0  0  0  0  0  0  0  0  0  0
   38.1335   31.6279   49.7139 C   0  0  0  0  0  0  0  0  0  0  0  0
   36.8885   31.6435   49.1643 N   0  0  0  0  0  0  0  0  0  0  0  0
   35.1488   29.0790   51.0174 N   0  0  0  0  0  0  0  0  0  0  0  0
   34.7378   30.9379   48.9574 O   0  0  0  0  0  0  0  0  0  0  0  0
   35.5182   30.0991   46.5408 O   0  0  0  0  0  0  0  0  0  0  0  0
   34.3753   30.0693   47.5080 P   0  0  1  0  0  0  0  0  0  0  0  0
   33.9852   28.4944   48.0016 O   0  0  0  0  0  0  0  0  0  0  0  0
   33.0826   30.8186   46.7257 O   0  0  0  0  0  0  0  0  0  0  0  0
   37.6481   29.1845   51.9819 H   0  0  0  0  0  0  0  0  0  0  0  0
   38.9013   32.3073   49.3546 H   0  0  0  0  0  0  0  0  0  0  0  0
   35.3373   28.1048   51.3121 H   0  0  0  0  0  0  0  0  0  0  0  0
   34.1600   29.4248   51.0074 H   0  0  0  0  0  0  0  0  0  0  0  0
   33.2230   28.5592   48.6148 H   0  0  0  0  0  0  0  0  0  0  0  0
   34.5916   32.2710   45.2397 H   0  0  0  0  0  0  0  0  0  0  0  0
   33.8561   31.9437   44.1364 S   0  0  0  0  0  0  0  0  0  0  0  0
   33.1450   33.1824   43.6641 O   0  0  0  0  0  0  0  0  0  0  0  0
   34.8432   31.5844   43.0345 O   0  0  0  0  0  0  0  0  0  0  0  0
   32.7547   30.6359   44.4335 C   0  0  0  0  0  0  0  0  0  0  0  0
   32.4278   30.1452   45.7028 C   0  0  0  0  0  0  0  0  0  0  0  0
   31.5390   29.0986   45.8401 C   0  0  0  0  0  0  0  0  0  0  0  0
   31.3395   28.7784   46.8536 H   0  0  0  0  0  0  0  0  0  0  0  0
   30.9520   28.5110   44.7372 C   0  0  0  0  0  0  0  0  0  0  0  0
   30.2594   27.6913   44.8909 H   0  0  0  0  0  0  0  0  0  0  0  0
   31.2630   28.9841   43.4570 C   0  0  0  0  0  0  0  0  0  0  0  0
   32.1538   30.0312   43.3407 C   0  0  0  0  0  0  0  0  0  0  0  0
   30.7914   28.5095   42.5993 H   0  0  0  0  0  0  0  0  0  0  0  0
   32.3870   30.3908   42.3259 H   0  0  0  0  0  0  0  0  0  0  0  0
  1  2  2  0
  2  7  1  0
  2  3  1  0
  4  3  2  0
  5  4  1  0
  6  1  1  0
  6  5  2  0
  8  1  1  0
  9 10  2  0
 10 11  1  1
 10  8  1  0
 12 10  1  0
  3 13  1  0
  5 14  1  0
  7 15  1  0
  7 16  1  0
 11 17  1  0
 18 19  1  0
 19 20  2  0
 19 21  2  0
 19 22  1  0
 22 23  2  0
 23 24  1  0
 24 25  1  0
 24 26  2  0
 26 27  1  0
 26 28  1  0
 28 29  2  0
 29 22  1  0
 28 30  1  0
 29 31  1  0
 12 23  1  0
M  ISO  6  13  14  14  14  17   3  18  12  25  15  27  16
M  END
>  <DihAtoms>  (1) 
9,11,22,21

>  <DihDeg>  (1) 
-179.9991458187648

$$$$
