
     RDKit          3D

 35 37  0  0  0  0  0  0  0  0999 V2000
   37.7494   31.0720   47.3867 C   0  0  0  0  0  0  0  0  0  0  0  0
   36.9947   30.7415   46.2616 C   0  0  0  0  0  0  0  0  0  0  0  0
   37.3007   31.2166   45.0012 C   0  0  0  0  0  0  0  0  0  0  0  0
   38.3724   32.0344   44.8450 N   0  0  0  0  0  0  0  0  0  0  0  0
   39.0794   32.3352   45.9425 C   0  0  0  0  0  0  0  0  0  0  0  0
   38.7990   31.8840   47.1771 N   0  0  0  0  0  0  0  0  0  0  0  0
   37.6028   30.3471   51.0712 C   0  0  0  0  0  0  0  0  0  0  0  0
   38.0492   30.9115   49.8528 C   0  0  0  0  0  0  0  0  0  0  0  0
   37.3794   30.5476   48.6861 C   0  0  0  0  0  0  0  0  0  0  0  0
   36.3613   29.6880   48.8080 N   0  0  0  0  0  0  0  0  0  0  0  0
   35.9521   29.1615   49.9778 C   0  0  0  0  0  0  0  0  0  0  0  0
   36.5827   29.4998   51.1093 N   0  0  0  0  0  0  0  0  0  0  0  0
   34.8835   28.2916   49.8913 O   0  0  0  0  0  0  0  0  0  0  0  0
   40.2588   33.2300   45.8035 C   0  0  0  0  0  0  0  0  0  0  0  0
   40.3887   33.9590   46.9954 F   0  0  0  0  0  0  0  0  0  0  0  0
   41.3987   32.5124   45.5437 F   0  0  0  0  0  0  0  0  0  0  0  0
   40.0772   34.1746   44.8198 F   0  0  0  0  0  0  0  0  0  0  0  0
   36.1495   30.0878   46.4292 H   0  0  0  0  0  0  0  0  0  0  0  0
   36.6792   30.9270   44.1626 H   0  0  0  0  0  0  0  0  0  0  0  0
   38.1603   30.6652   51.9507 H   0  0  0  0  0  0  0  0  0  0  0  0
   38.8827   31.6075   49.7964 H   0  0  0  0  0  0  0  0  0  0  0  0
   31.2266   27.3387   50.5954 H   0  0  0  0  0  0  0  0  0  0  0  0
   31.8387   28.4135   50.0335 S   0  0  0  0  0  0  0  0  0  0  0  0
   32.4956   29.3235   51.0537 O   0  0  0  0  0  0  0  0  0  0  0  0
   30.7026   29.2661   49.4742 O   0  0  0  0  0  0  0  0  0  0  0  0
   32.8996   28.0087   48.7185 C   0  0  0  0  0  0  0  0  0  0  0  0
   34.2764   27.9678   48.6880 C   0  0  0  0  0  0  0  0  0  0  0  0
   34.9683   27.6369   47.5655 C   0  0  0  0  0  0  0  0  0  0  0  0
   36.0325   27.6234   47.6059 H   0  0  0  0  0  0  0  0  0  0  0  0
   34.2995   27.3263   46.4024 C   0  0  0  0  0  0  0  0  0  0  0  0
   34.8538   27.0617   45.5049 H   0  0  0  0  0  0  0  0  0  0  0  0
   32.9205   27.3485   46.3675 C   0  0  0  0  0  0  0  0  0  0  0  0
   32.2474   27.6882   47.5221 C   0  0  0  0  0  0  0  0  0  0  0  0
   32.4085   27.1025   45.4479 H   0  0  0  0  0  0  0  0  0  0  0  0
   31.1641   27.6838   47.4168 H   0  0  0  0  0  0  0  0  0  0  0  0
  1  9  1  0
  2  1  2  0
  3  2  1  0
  4  3  2  0
  4  5  1  0
  5  6  2  0
  6  1  1  0
  7 12  2  0
  8  7  1  0
  9 10  1  0
  9  8  2  0
 10 11  2  0
 11 12  1  0
 13 11  1  0
 14  5  1  0
 14 15  1  0
 16 14  1  0
 17 14  1  0
  2 18  1  0
  3 19  1  0
  7 20  1  0
  8 21  1  0
 22 23  1  0
 23 24  2  0
 23 25  2  0
 23 26  1  0
 26 27  2  0
 27 28  1  0
 28 29  1  0
 28 30  2  0
 30 31  1  0
 30 32  1  0
 32 33  2  0
 33 26  1  0
 32 34  1  0
 33 35  1  0
 13 27  1  0
M  ISO  7  18  14  19  14  20  14  21  14  22  12  29  15  31  16
M  END
>  <DihAtoms>  (1) 
10,12,26,25

>  <DihDeg>  (1) 
61.17817223432527

$$$$
