
 OpenBabel03272510103D

 31 33  0  0  0  0  0  0  0  0999 V2000
   36.8850   30.2850   47.7890 C   0  0  0  0  0  0  0  0  0  0  0  0
   37.9920   30.6570   47.0930 C   0  0  0  0  0  0  0  0  0  0  0  0
   38.0080   30.8390   45.7180 C   0  0  0  0  0  0  0  0  0  0  0  0
   36.8590   30.6400   44.9810 C   0  0  0  0  0  0  0  0  0  0  0  0
   35.7410   30.2620   45.7090 C   0  0  0  0  0  0  0  0  0  0  0  0
   35.7750   30.0980   47.0460 N   0  0  0  0  0  0  0  0  0  0  0  0
   38.9280   30.8300   47.6000 H   0  0  0  0  0  0  0  0  0  0  0  0
   38.8900   31.1350   45.1580 H   0  0  0  0  0  0  0  0  0  0  0  0
   34.7830   30.0750   45.2550 H   0  0  0  0  0  0  0  0  0  0  0  0
   35.8390   29.4600   49.9230 C   0  0  0  0  0  0  0  0  0  0  0  0
   36.8700   30.0960   49.2270 C   0  0  0  0  0  0  0  0  0  0  0  0
   37.9520   30.5780   49.9650 C   0  0  0  0  0  0  0  0  0  0  0  0
   37.9590   30.4100   51.3210 N   0  0  0  0  0  0  0  0  0  0  0  0
   36.9410   29.7910   51.9500 C   0  0  0  0  0  0  0  0  0  0  0  0
   35.8770   29.3120   51.2610 N   0  0  0  0  0  0  0  0  0  0  0  0
   35.0340   29.1120   49.2970 H   0  0  0  0  0  0  0  0  0  0  0  0
   38.8150   31.0900   49.5380 H   0  0  0  0  0  0  0  0  0  0  0  0
   36.9760   29.6740   53.0320 H   0  0  0  0  0  0  0  0  0  0  0  0
   36.7680   30.7940   43.6060 O   0  0  0  0  0  0  0  0  0  0  0  0
   38.4880   29.9400   42.2440 C   0  0  0  0  0  0  0  0  0  0  0  0
   37.8290   31.0300   42.7770 C   0  0  0  0  0  0  0  0  0  0  0  0
   38.2420   32.3130   42.4700 C   0  0  0  0  0  0  0  0  0  0  0  0
   37.7300   33.1910   42.8850 H   0  0  0  0  0  0  0  0  0  0  0  0
   39.3310   32.4690   41.6180 C   0  0  0  0  0  0  0  0  0  0  0  0
   39.6700   33.4840   41.3660 H   0  0  0  0  0  0  0  0  0  0  0  0
   40.0130   31.3930   41.0670 C   0  0  0  0  0  3  0  0  0  0  0  0
   39.5780   30.1140   41.3900 C   0  0  0  0  0  3  0  0  0  0  0  0
   36.8290   28.3780   43.4320 H   0  0  0  0  0  0  0  0  0  0  0  0
   37.9560   28.3200   42.6370 S   0  0  0  0  0  0  0  0  0  0  0  0
   37.6860   27.6080   41.3440 O   0  0  0  0  0  0  0  0  0  0  0  0
   39.0660   27.5940   43.3380 O   0  0  0  0  0  0  0  0  0  0  0  0
  1 11  1  0  0  0  0
  2  7  1  0  0  0  0
  2  1  1  0  0  0  0
  3  2  2  0  0  0  0
  4  5  2  0  0  0  0
  4  3  1  0  0  0  0
  5  6  1  0  0  0  0
  6  1  2  0  0  0  0
  8  3  1  0  0  0  0
  9  5  1  0  0  0  0
 10 15  1  0  0  0  0
 11 10  2  0  0  0  0
 11 12  1  0  0  0  0
 12 13  2  0  0  0  0
 13 14  1  0  0  0  0
 14 18  1  0  0  0  0
 15 14  2  0  0  0  0
 16 10  1  0  0  0  0
 17 12  1  0  0  0  0
 19  4  1  0  0  0  0
 20 29  1  0  0  0  0
 20 21  1  0  0  0  0
 21 19  1  0  0  0  0
 22 21  2  0  0  0  0
 22 23  1  0  0  0  0
 24 22  1  0  0  0  0
 25 24  1  0  0  0  0
 26 27  1  0  0  0  0
 26 24  2  0  0  0  0
 27 20  2  0  0  0  0
 29 31  2  0  0  0  0
 29 28  1  0  0  0  0
 30 29  2  0  0  0  0
M  END
>  <minimizedAffinity>
-4.59840155

>  <minimizedRMSD>
4.70337105

$$$$
