
 OpenBabel03272505033D

 32 34  0  0  0  0  0  0  0  0999 V2000
   38.6710   27.0930   33.7640 Cl  0  0  0  0  0  0  0  0  0  0  0  0
   37.8150   25.7440   33.0180 C   0  0  0  0  0  0  0  0  0  0  0  0
   36.8810   26.0240   32.0670 C   0  0  0  0  0  0  0  0  0  0  0  0
   36.2370   24.9150   31.5410 C   0  0  0  0  0  0  0  0  0  0  0  0
   36.5440   23.6360   31.9710 C   0  0  0  0  0  0  0  0  0  0  0  0
   37.4970   23.4220   32.9340 C   0  0  0  0  0  0  0  0  0  0  0  0
   38.1590   24.5130   33.4790 C   0  0  0  0  0  0  0  0  0  0  0  0
   35.4770   25.0500   30.7790 H   0  0  0  0  0  0  0  0  0  0  0  0
   36.0020   22.8130   31.5170 H   0  0  0  0  0  0  0  0  0  0  0  0
   37.7170   22.4110   33.2510 H   0  0  0  0  0  0  0  0  0  0  0  0
   35.6210   28.1600   32.3080 C   0  0  0  0  0  0  0  0  0  0  0  0
   36.5410   27.3730   31.5950 C   0  0  0  0  0  0  0  0  0  0  0  0
   37.1370   27.8710   30.4350 C   0  0  0  0  0  0  0  0  0  0  0  0
   36.7660   29.1330   30.0670 N   0  0  0  0  0  0  0  0  0  0  0  0
   35.8970   29.8790   30.7380 C   0  0  0  0  0  0  0  0  0  0  0  0
   35.3240   29.3990   31.8540 N   0  0  0  0  0  0  0  0  0  0  0  0
   35.2090   27.6940   33.1940 H   0  0  0  0  0  0  0  0  0  0  0  0
   37.8420   27.2650   29.8930 H   0  0  0  0  0  0  0  0  0  0  0  0
   35.6260   30.8770   30.4170 H   0  0  0  0  0  0  0  0  0  0  0  0
   39.1080   24.2640   34.4400 O   0  0  0  0  0  0  0  0  0  0  0  0
   39.8040   23.2380   36.3360 C   0  0  0  0  0  0  0  0  0  0  0  0
   38.8360   24.0820   35.7750 C   0  0  0  0  0  0  0  0  0  0  0  0
   37.8500   24.5440   36.6120 C   0  0  0  0  0  0  0  0  0  0  0  0
   37.1560   25.1920   36.1010 H   0  0  0  0  0  0  0  0  0  0  0  0
   37.8190   24.1890   37.9430 C   0  0  0  0  0  0  0  0  0  0  0  0
   37.0100   24.5980   38.5190 H   0  0  0  0  0  0  0  0  0  0  0  0
   38.7640   23.3620   38.4950 C   0  0  0  0  0  3  0  0  0  0  0  0
   39.7640   22.8840   37.6810 C   0  0  0  0  0  3  0  0  0  0  0  0
   40.7690   22.0890   34.2590 H   0  0  0  0  0  0  0  0  0  0  0  0
   41.1660   22.5130   35.4880 S   0  0  0  0  0  0  0  0  0  0  0  0
   41.7060   21.3220   36.2290 O   0  0  0  0  0  0  0  0  0  0  0  0
   42.2500   23.5350   35.3690 O   0  0  0  0  0  0  0  0  0  0  0  0
  2  7  1  0  0  0  0
  2  1  1  0  0  0  0
  3  2  2  0  0  0  0
  4  5  2  0  0  0  0
  4  3  1  0  0  0  0
  5  6  1  0  0  0  0
  6 10  1  0  0  0  0
  6  7  2  0  0  0  0
  7 20  1  0  0  0  0
  8  4  1  0  0  0  0
  9  5  1  0  0  0  0
 11 17  1  0  0  0  0
 12  3  1  0  0  0  0
 12 11  2  0  0  0  0
 13 12  1  0  0  0  0
 14 13  2  0  0  0  0
 14 15  1  0  0  0  0
 15 16  2  0  0  0  0
 16 11  1  0  0  0  0
 18 13  1  0  0  0  0
 19 15  1  0  0  0  0
 20 22  1  0  0  0  0
 21 28  1  0  0  0  0
 22 21  2  0  0  0  0
 22 23  1  0  0  0  0
 23 25  2  0  0  0  0
 24 23  1  0  0  0  0
 25 27  1  0  0  0  0
 25 26  1  0  0  0  0
 28 27  2  0  0  0  0
 29 30  1  0  0  0  0
 30 31  2  0  0  0  0
 30 21  1  0  0  0  0
 32 30  2  0  0  0  0
M  END
>  <minimizedAffinity>
-5.48517132

$$$$

 OpenBabel03272505033D

 32 34  0  0  0  0  0  0  0  0999 V2000
   38.0480   23.5810   33.4640 Cl  0  0  0  0  0  0  0  0  0  0  0  0
   36.8380   24.2970   32.3990 C   0  0  0  0  0  0  0  0  0  0  0  0
   36.0330   23.4590   31.6880 C   0  0  0  0  0  0  0  0  0  0  0  0
   35.1220   24.0940   30.8590 C   0  0  0  0  0  0  0  0  0  0  0  0
   35.0600   25.4740   30.7840 C   0  0  0  0  0  0  0  0  0  0  0  0
   35.9010   26.2620   31.5290 C   0  0  0  0  0  0  0  0  0  0  0  0
   36.8240   25.6550   32.3680 C   0  0  0  0  0  0  0  0  0  0  0  0
   34.4430   23.5000   30.2570 H   0  0  0  0  0  0  0  0  0  0  0  0
   34.3230   25.9060   30.1150 H   0  0  0  0  0  0  0  0  0  0  0  0
   35.8310   27.3390   31.4500 H   0  0  0  0  0  0  0  0  0  0  0  0
   35.2200   21.2950   32.6190 C   0  0  0  0  0  0  0  0  0  0  0  0
   36.0800   21.9930   31.7540 C   0  0  0  0  0  0  0  0  0  0  0  0
   36.9840   21.2930   30.9510 C   0  0  0  0  0  0  0  0  0  0  0  0
   36.9620   19.9320   31.0740 N   0  0  0  0  0  0  0  0  0  0  0  0
   36.1510   19.2720   31.8900 C   0  0  0  0  0  0  0  0  0  0  0  0
   35.2820   19.9450   32.6620 N   0  0  0  0  0  0  0  0  0  0  0  0
   34.5540   21.9180   33.2020 H   0  0  0  0  0  0  0  0  0  0  0  0
   37.6400   21.8310   30.2900 H   0  0  0  0  0  0  0  0  0  0  0  0
   36.1620   18.1900   31.9610 H   0  0  0  0  0  0  0  0  0  0  0  0
   37.6510   26.4720   33.0990 O   0  0  0  0  0  0  0  0  0  0  0  0
   39.6820   27.0130   33.9430 C   0  0  0  0  0  0  0  0  0  0  0  0
   38.9550   26.7550   32.7730 C   0  0  0  0  0  0  0  0  0  0  0  0
   39.6380   26.8300   31.5840 C   0  0  0  0  0  0  0  0  0  0  0  0
   39.0060   26.6080   30.7390 H   0  0  0  0  0  0  0  0  0  0  0  0
   40.9790   27.1450   31.5500 C   0  0  0  0  0  0  0  0  0  0  0  0
   41.4280   27.1810   30.5740 H   0  0  0  0  0  0  0  0  0  0  0  0
   41.6940   27.3990   32.6930 C   0  0  0  0  0  3  0  0  0  0  0  0
   41.0360   27.3310   33.8980 C   0  0  0  0  0  3  0  0  0  0  0  0
   40.0130   27.3890   36.4560 H   0  0  0  0  0  0  0  0  0  0  0  0
   39.0510   26.9840   35.5850 S   0  0  0  0  0  0  0  0  0  0  0  0
   38.6250   25.6000   35.9880 O   0  0  0  0  0  0  0  0  0  0  0  0
   37.8630   27.8890   35.6540 O   0  0  0  0  0  0  0  0  0  0  0  0
  2  1  1  0  0  0  0
  3 12  1  0  0  0  0
  3  2  2  0  0  0  0
  4  3  1  0  0  0  0
  5  4  2  0  0  0  0
  5  6  1  0  0  0  0
  6  7  2  0  0  0  0
  7  2  1  0  0  0  0
  7 20  1  0  0  0  0
  8  4  1  0  0  0  0
  9  5  1  0  0  0  0
 10  6  1  0  0  0  0
 11 16  1  0  0  0  0
 11 17  1  0  0  0  0
 12 11  2  0  0  0  0
 13 14  2  0  0  0  0
 13 12  1  0  0  0  0
 14 15  1  0  0  0  0
 15 19  1  0  0  0  0
 15 16  2  0  0  0  0
 18 13  1  0  0  0  0
 21 30  1  0  0  0  0
 22 20  1  0  0  0  0
 22 21  2  0  0  0  0
 23 22  1  0  0  0  0
 24 23  1  0  0  0  0
 25 23  2  0  0  0  0
 25 27  1  0  0  0  0
 26 25  1  0  0  0  0
 27 28  2  0  0  0  0
 28 21  1  0  0  0  0
 30 32  2  0  0  0  0
 30 31  2  0  0  0  0
 30 29  1  0  0  0  0
M  END
>  <minimizedAffinity>
-5.34242249

$$$$

 OpenBabel03272505033D

 32 34  0  0  0  0  0  0  0  0999 V2000
   36.5250   27.8390   34.7980 Cl  0  0  0  0  0  0  0  0  0  0  0  0
   36.2890   28.7220   33.2900 C   0  0  0  0  0  0  0  0  0  0  0  0
   35.6140   29.9040   33.3370 C   0  0  0  0  0  0  0  0  0  0  0  0
   35.4510   30.5290   32.1100 C   0  0  0  0  0  0  0  0  0  0  0  0
   35.9480   29.9680   30.9480 C   0  0  0  0  0  0  0  0  0  0  0  0
   36.6210   28.7720   30.9690 C   0  0  0  0  0  0  0  0  0  0  0  0
   36.8000   28.1230   32.1830 C   0  0  0  0  0  0  0  0  0  0  0  0
   34.9230   31.4750   32.0590 H   0  0  0  0  0  0  0  0  0  0  0  0
   35.7860   30.5100   30.0220 H   0  0  0  0  0  0  0  0  0  0  0  0
   36.9990   28.3570   30.0440 H   0  0  0  0  0  0  0  0  0  0  0  0
   35.9110   31.2950   35.3830 C   0  0  0  0  0  0  0  0  0  0  0  0
   35.0790   30.5170   34.5600 C   0  0  0  0  0  0  0  0  0  0  0  0
   33.7390   30.3250   34.9010 C   0  0  0  0  0  0  0  0  0  0  0  0
   33.3230   30.9310   36.0530 N   0  0  0  0  0  0  0  0  0  0  0  0
   34.1060   31.6650   36.8320 C   0  0  0  0  0  0  0  0  0  0  0  0
   35.3950   31.8500   36.5030 N   0  0  0  0  0  0  0  0  0  0  0  0
   36.9340   31.3900   35.0410 H   0  0  0  0  0  0  0  0  0  0  0  0
   33.1060   29.7290   34.2670 H   0  0  0  0  0  0  0  0  0  0  0  0
   33.7420   32.1310   37.7400 H   0  0  0  0  0  0  0  0  0  0  0  0
   37.4770   26.9290   32.1690 O   0  0  0  0  0  0  0  0  0  0  0  0
   37.6290   24.7130   32.6160 C   0  0  0  0  0  0  0  0  0  0  0  0
   36.8940   25.7040   31.9510 C   0  0  0  0  0  0  0  0  0  0  0  0
   35.7900   25.2940   31.2430 C   0  0  0  0  0  0  0  0  0  0  0  0
   35.2810   26.1190   30.7730 H   0  0  0  0  0  0  0  0  0  0  0  0
   35.4280   23.9650   31.1940 C   0  0  0  0  0  0  0  0  0  0  0  0
   34.5520   23.7400   30.6150 H   0  0  0  0  0  0  0  0  0  0  0  0
   36.1450   22.9920   31.8430 C   0  0  0  0  0  3  0  0  0  0  0  0
   37.2550   23.3740   32.5600 C   0  0  0  0  0  3  0  0  0  0  0  0
   39.6650   26.1410   33.2330 H   0  0  0  0  0  0  0  0  0  0  0  0
   39.0740   24.9690   33.5880 S   0  0  0  0  0  0  0  0  0  0  0  0
   40.0790   23.8710   33.3810 O   0  0  0  0  0  0  0  0  0  0  0  0
   38.6800   24.9920   35.0300 O   0  0  0  0  0  0  0  0  0  0  0  0
  2  3  1  0  0  0  0
  2  1  1  0  0  0  0
  3 12  1  0  0  0  0
  4  3  2  0  0  0  0
  5  6  2  0  0  0  0
  5  4  1  0  0  0  0
  6  7  1  0  0  0  0
  7  2  2  0  0  0  0
  8  4  1  0  0  0  0
  9  5  1  0  0  0  0
 10  6  1  0  0  0  0
 11 16  1  0  0  0  0
 12 13  1  0  0  0  0
 12 11  2  0  0  0  0
 13 14  2  0  0  0  0
 14 15  1  0  0  0  0
 15 19  1  0  0  0  0
 16 15  2  0  0  0  0
 17 11  1  0  0  0  0
 18 13  1  0  0  0  0
 20  7  1  0  0  0  0
 21 30  1  0  0  0  0
 22 20  1  0  0  0  0
 22 21  2  0  0  0  0
 23 22  1  0  0  0  0
 24 23  1  0  0  0  0
 25 23  2  0  0  0  0
 25 27  1  0  0  0  0
 26 25  1  0  0  0  0
 27 28  2  0  0  0  0
 28 21  1  0  0  0  0
 29 30  1  0  0  0  0
 30 32  2  0  0  0  0
 31 30  2  0  0  0  0
M  END
>  <minimizedAffinity>
-5.28566742

$$$$

 OpenBabel03272505033D

 32 34  0  0  0  0  0  0  0  0999 V2000
   37.8480   24.9160   32.6660 Cl  0  0  0  0  0  0  0  0  0  0  0  0
   39.3230   25.7750   33.1070 C   0  0  0  0  0  0  0  0  0  0  0  0
   39.6120   26.9330   32.4510 C   0  0  0  0  0  0  0  0  0  0  0  0
   40.7970   27.5400   32.8370 C   0  0  0  0  0  0  0  0  0  0  0  0
   41.6000   26.9860   33.8170 C   0  0  0  0  0  0  0  0  0  0  0  0
   41.2510   25.8150   34.4410 C   0  0  0  0  0  0  0  0  0  0  0  0
   40.0710   25.1840   34.0750 C   0  0  0  0  0  0  0  0  0  0  0  0
   41.1010   28.4670   32.3630 H   0  0  0  0  0  0  0  0  0  0  0  0
   42.5130   27.5130   34.0720 H   0  0  0  0  0  0  0  0  0  0  0  0
   41.8990   25.4040   35.2040 H   0  0  0  0  0  0  0  0  0  0  0  0
   37.5610   28.1640   31.7510 C   0  0  0  0  0  0  0  0  0  0  0  0
   38.7730   27.5390   31.4090 C   0  0  0  0  0  0  0  0  0  0  0  0
   39.1850   27.4940   30.0750 C   0  0  0  0  0  0  0  0  0  0  0  0
   38.3460   28.0810   29.1710 N   0  0  0  0  0  0  0  0  0  0  0  0
   37.2010   28.6710   29.4910 C   0  0  0  0  0  0  0  0  0  0  0  0
   36.8050   28.7150   30.7730 N   0  0  0  0  0  0  0  0  0  0  0  0
   37.3220   28.1520   32.8070 H   0  0  0  0  0  0  0  0  0  0  0  0
   40.1130   27.0150   29.8180 H   0  0  0  0  0  0  0  0  0  0  0  0
   36.5600   29.1270   28.7460 H   0  0  0  0  0  0  0  0  0  0  0  0
   39.7510   24.0140   34.7190 O   0  0  0  0  0  0  0  0  0  0  0  0
   40.0310   23.1420   36.7910 C   0  0  0  0  0  0  0  0  0  0  0  0
   39.2110   23.9390   35.9800 C   0  0  0  0  0  0  0  0  0  0  0  0
   38.0850   24.4680   36.5600 C   0  0  0  0  0  0  0  0  0  0  0  0
   37.5200   25.0740   35.8700 H   0  0  0  0  0  0  0  0  0  0  0  0
   37.7790   24.2210   37.8810 C   0  0  0  0  0  0  0  0  0  0  0  0
   36.8770   24.6770   38.2460 H   0  0  0  0  0  0  0  0  0  0  0  0
   38.5780   23.4410   38.6770 C   0  0  0  0  0  3  0  0  0  0  0  0
   39.7140   22.8990   38.1240 C   0  0  0  0  0  3  0  0  0  0  0  0
   41.4820   22.0790   34.9660 H   0  0  0  0  0  0  0  0  0  0  0  0
   41.5240   22.3500   36.2980 S   0  0  0  0  0  0  0  0  0  0  0  0
   41.7230   21.0490   37.0230 O   0  0  0  0  0  0  0  0  0  0  0  0
   42.6700   23.2560   36.6150 O   0  0  0  0  0  0  0  0  0  0  0  0
  1  2  1  0  0  0  0
  2  7  1  0  0  0  0
  3  4  1  0  0  0  0
  3  2  2  0  0  0  0
  4  5  2  0  0  0  0
  5  9  1  0  0  0  0
  5  6  1  0  0  0  0
  6 10  1  0  0  0  0
  7  6  2  0  0  0  0
  7 20  1  0  0  0  0
  8  4  1  0  0  0  0
 11 17  1  0  0  0  0
 12 11  1  0  0  0  0
 12  3  1  0  0  0  0
 13 12  2  0  0  0  0
 14 15  2  0  0  0  0
 14 13  1  0  0  0  0
 15 16  1  0  0  0  0
 16 11  2  0  0  0  0
 18 13  1  0  0  0  0
 19 15  1  0  0  0  0
 20 22  1  0  0  0  0
 21 28  1  0  0  0  0
 22 23  1  0  0  0  0
 22 21  2  0  0  0  0
 23 25  2  0  0  0  0
 24 23  1  0  0  0  0
 25 26  1  0  0  0  0
 25 27  1  0  0  0  0
 28 27  2  0  0  0  0
 29 30  1  0  0  0  0
 30 32  2  0  0  0  0
 30 21  1  0  0  0  0
 30 31  2  0  0  0  0
M  END
>  <minimizedAffinity>
-5.25359631

$$$$

 OpenBabel03272505033D

 32 34  0  0  0  0  0  0  0  0999 V2000
   36.7120   27.2350   34.7610 Cl  0  0  0  0  0  0  0  0  0  0  0  0
   36.6690   28.0320   33.1890 C   0  0  0  0  0  0  0  0  0  0  0  0
   37.6330   27.7130   32.2810 C   0  0  0  0  0  0  0  0  0  0  0  0
   37.5450   28.3950   31.0770 C   0  0  0  0  0  0  0  0  0  0  0  0
   36.5430   29.3210   30.8480 C   0  0  0  0  0  0  0  0  0  0  0  0
   35.6010   29.5970   31.8070 C   0  0  0  0  0  0  0  0  0  0  0  0
   35.6620   28.9300   33.0220 C   0  0  0  0  0  0  0  0  0  0  0  0
   38.2750   28.2010   30.2990 H   0  0  0  0  0  0  0  0  0  0  0  0
   36.5330   29.8180   29.8840 H   0  0  0  0  0  0  0  0  0  0  0  0
   34.8290   30.3260   31.6000 H   0  0  0  0  0  0  0  0  0  0  0  0
   39.9220   27.1350   33.0750 C   0  0  0  0  0  0  0  0  0  0  0  0
   38.7040   26.7330   32.5030 C   0  0  0  0  0  0  0  0  0  0  0  0
   38.5050   25.3980   32.1440 C   0  0  0  0  0  0  0  0  0  0  0  0
   39.5510   24.5530   32.3840 N   0  0  0  0  0  0  0  0  0  0  0  0
   40.7030   24.9300   32.9240 C   0  0  0  0  0  0  0  0  0  0  0  0
   40.8940   26.2140   33.2690 N   0  0  0  0  0  0  0  0  0  0  0  0
   39.9870   28.1870   33.3220 H   0  0  0  0  0  0  0  0  0  0  0  0
   37.5700   25.0950   31.7060 H   0  0  0  0  0  0  0  0  0  0  0  0
   41.5120   24.2310   33.1000 H   0  0  0  0  0  0  0  0  0  0  0  0
   34.7050   29.2290   33.9590 O   0  0  0  0  0  0  0  0  0  0  0  0
   33.5660   30.4290   35.5070 C   0  0  0  0  0  0  0  0  0  0  0  0
   34.8060   30.2420   34.8820 C   0  0  0  0  0  0  0  0  0  0  0  0
   35.8360   31.0590   35.2810 C   0  0  0  0  0  0  0  0  0  0  0  0
   36.7520   30.8410   34.7570 H   0  0  0  0  0  0  0  0  0  0  0  0
   35.6500   32.0180   36.2530 C   0  0  0  0  0  0  0  0  0  0  0  0
   36.5120   32.6100   36.4990 H   0  0  0  0  0  0  0  0  0  0  0  0
   34.4370   32.2040   36.8670 C   0  0  0  0  0  3  0  0  0  0  0  0
   33.3880   31.4000   36.4880 C   0  0  0  0  0  3  0  0  0  0  0  0
   32.0650   29.1410   33.8780 H   0  0  0  0  0  0  0  0  0  0  0  0
   32.0930   29.5210   35.1830 S   0  0  0  0  0  0  0  0  0  0  0  0
   30.8660   30.3480   35.4440 O   0  0  0  0  0  0  0  0  0  0  0  0
   32.0650   28.3250   36.0810 O   0  0  0  0  0  0  0  0  0  0  0  0
  2  1  1  0  0  0  0
  3 12  1  0  0  0  0
  3  2  2  0  0  0  0
  4  3  1  0  0  0  0
  5  4  2  0  0  0  0
  5  6  1  0  0  0  0
  6  7  2  0  0  0  0
  7  2  1  0  0  0  0
  7 20  1  0  0  0  0
  8  4  1  0  0  0  0
  9  5  1  0  0  0  0
 10  6  1  0  0  0  0
 11 16  1  0  0  0  0
 11 17  1  0  0  0  0
 12 11  2  0  0  0  0
 13 14  2  0  0  0  0
 13 12  1  0  0  0  0
 14 15  1  0  0  0  0
 15 19  1  0  0  0  0
 15 16  2  0  0  0  0
 18 13  1  0  0  0  0
 20 22  1  0  0  0  0
 21 28  1  0  0  0  0
 22 23  1  0  0  0  0
 22 21  2  0  0  0  0
 23 25  2  0  0  0  0
 24 23  1  0  0  0  0
 25 26  1  0  0  0  0
 25 27  1  0  0  0  0
 28 27  2  0  0  0  0
 29 30  1  0  0  0  0
 30 31  2  0  0  0  0
 30 21  1  0  0  0  0
 30 32  2  0  0  0  0
M  END
>  <minimizedAffinity>
-5.20886612

$$$$

 OpenBabel03272505033D

 32 34  0  0  0  0  0  0  0  0999 V2000
   39.0150   26.7550   35.0720 Cl  0  0  0  0  0  0  0  0  0  0  0  0
   38.4690   25.4530   34.0150 C   0  0  0  0  0  0  0  0  0  0  0  0
   38.3000   24.2150   34.5570 C   0  0  0  0  0  0  0  0  0  0  0  0
   37.8890   23.2400   33.6620 C   0  0  0  0  0  0  0  0  0  0  0  0
   37.6740   23.5360   32.3280 C   0  0  0  0  0  0  0  0  0  0  0  0
   37.8630   24.8060   31.8440 C   0  0  0  0  0  0  0  0  0  0  0  0
   38.2740   25.8040   32.7170 C   0  0  0  0  0  0  0  0  0  0  0  0
   37.7310   22.2260   34.0120 H   0  0  0  0  0  0  0  0  0  0  0  0
   37.3530   22.7260   31.6810 H   0  0  0  0  0  0  0  0  0  0  0  0
   37.6880   25.0080   30.7960 H   0  0  0  0  0  0  0  0  0  0  0  0
   39.6920   23.2130   36.3640 C   0  0  0  0  0  0  0  0  0  0  0  0
   38.5200   23.8800   35.9700 C   0  0  0  0  0  0  0  0  0  0  0  0
   37.5600   24.2290   36.9220 C   0  0  0  0  0  0  0  0  0  0  0  0
   37.8430   23.8810   38.2120 N   0  0  0  0  0  0  0  0  0  0  0  0
   38.9490   23.2500   38.5870 C   0  0  0  0  0  0  0  0  0  0  0  0
   39.8730   22.9150   37.6710 N   0  0  0  0  0  0  0  0  0  0  0  0
   40.3800   22.9830   35.5610 H   0  0  0  0  0  0  0  0  0  0  0  0
   36.6640   24.7400   36.6160 H   0  0  0  0  0  0  0  0  0  0  0  0
   39.1410   22.9900   39.6210 H   0  0  0  0  0  0  0  0  0  0  0  0
   38.4530   27.0630   32.2010 O   0  0  0  0  0  0  0  0  0  0  0  0
   37.5180   28.5350   30.7560 C   0  0  0  0  0  0  0  0  0  0  0  0
   37.4530   27.9920   32.0460 C   0  0  0  0  0  0  0  0  0  0  0  0
   36.4600   28.4610   32.8720 C   0  0  0  0  0  0  0  0  0  0  0  0
   36.4780   27.9840   33.8380 H   0  0  0  0  0  0  0  0  0  0  0  0
   35.5720   29.4230   32.4440 C   0  0  0  0  0  0  0  0  0  0  0  0
   34.8300   29.7280   33.1600 H   0  0  0  0  0  0  0  0  0  0  0  0
   35.6320   29.9580   31.1820 C   0  0  0  0  0  3  0  0  0  0  0  0
   36.6150   29.5070   30.3330 C   0  0  0  0  0  3  0  0  0  0  0  0
   38.8670   26.7640   29.4880 H   0  0  0  0  0  0  0  0  0  0  0  0
   38.6850   28.1110   29.5080 S   0  0  0  0  0  0  0  0  0  0  0  0
   40.0210   28.7490   29.7640 O   0  0  0  0  0  0  0  0  0  0  0  0
   38.1680   28.5930   28.1900 O   0  0  0  0  0  0  0  0  0  0  0  0
  2  3  1  0  0  0  0
  2  1  1  0  0  0  0
  3 12  1  0  0  0  0
  4  8  1  0  0  0  0
  4  3  2  0  0  0  0
  5  4  1  0  0  0  0
  6  5  2  0  0  0  0
  6  7  1  0  0  0  0
  7  2  2  0  0  0  0
  9  5  1  0  0  0  0
 10  6  1  0  0  0  0
 11 16  1  0  0  0  0
 12 11  2  0  0  0  0
 12 13  1  0  0  0  0
 13 14  2  0  0  0  0
 14 15  1  0  0  0  0
 15 19  1  0  0  0  0
 16 15  2  0  0  0  0
 17 11  1  0  0  0  0
 18 13  1  0  0  0  0
 20  7  1  0  0  0  0
 21 22  1  0  0  0  0
 22 20  1  0  0  0  0
 22 23  2  0  0  0  0
 23 24  1  0  0  0  0
 25 23  1  0  0  0  0
 25 26  1  0  0  0  0
 27 25  2  0  0  0  0
 28 21  2  0  0  0  0
 28 27  1  0  0  0  0
 29 30  1  0  0  0  0
 30 31  2  0  0  0  0
 30 21  1  0  0  0  0
 32 30  2  0  0  0  0
M  END
>  <minimizedAffinity>
-5.18503618

$$$$

 OpenBabel03272505033D

 32 34  0  0  0  0  0  0  0  0999 V2000
   37.5940   24.4790   33.2690 Cl  0  0  0  0  0  0  0  0  0  0  0  0
   38.9940   25.5370   33.4370 C   0  0  0  0  0  0  0  0  0  0  0  0
   39.6260   25.5790   34.6430 C   0  0  0  0  0  0  0  0  0  0  0  0
   40.7040   26.4480   34.7050 C   0  0  0  0  0  0  0  0  0  0  0  0
   41.0840   27.1990   33.6070 C   0  0  0  0  0  0  0  0  0  0  0  0
   40.4040   27.1100   32.4180 C   0  0  0  0  0  0  0  0  0  0  0  0
   39.3200   26.2480   32.3260 C   0  0  0  0  0  0  0  0  0  0  0  0
   41.2620   26.5420   35.6300 H   0  0  0  0  0  0  0  0  0  0  0  0
   41.9370   27.8580   33.7240 H   0  0  0  0  0  0  0  0  0  0  0  0
   40.7240   27.7090   31.5760 H   0  0  0  0  0  0  0  0  0  0  0  0
   39.9140   23.5940   36.1220 C   0  0  0  0  0  0  0  0  0  0  0  0
   39.2400   24.7890   35.8200 C   0  0  0  0  0  0  0  0  0  0  0  0
   38.2010   25.2330   36.6410 C   0  0  0  0  0  0  0  0  0  0  0  0
   37.9070   24.4400   37.7140 N   0  0  0  0  0  0  0  0  0  0  0  0
   38.5410   23.3100   38.0000 C   0  0  0  0  0  0  0  0  0  0  0  0
   39.5410   22.8840   37.2110 N   0  0  0  0  0  0  0  0  0  0  0  0
   40.7050   23.3280   35.4320 H   0  0  0  0  0  0  0  0  0  0  0  0
   37.6870   26.1490   36.4060 H   0  0  0  0  0  0  0  0  0  0  0  0
   38.2810   22.7060   38.8610 H   0  0  0  0  0  0  0  0  0  0  0  0
   38.6620   26.1830   31.1230 O   0  0  0  0  0  0  0  0  0  0  0  0
   37.3140   27.8870   30.4810 C   0  0  0  0  0  0  0  0  0  0  0  0
   38.5320   27.2340   30.2470 C   0  0  0  0  0  0  0  0  0  0  0  0
   39.3260   27.7350   29.2440 C   0  0  0  0  0  0  0  0  0  0  0  0
   40.2440   27.1800   29.1400 H   0  0  0  0  0  0  0  0  0  0  0  0
   38.9350   28.8290   28.5050 C   0  0  0  0  0  0  0  0  0  0  0  0
   39.6210   29.1480   27.7410 H   0  0  0  0  0  0  0  0  0  0  0  0
   37.7440   29.4700   28.7290 C   0  0  0  0  0  3  0  0  0  0  0  0
   36.9290   28.9920   29.7290 C   0  0  0  0  0  3  0  0  0  0  0  0
   36.7490   27.0670   32.8420 H   0  0  0  0  0  0  0  0  0  0  0  0
   36.1210   27.4520   31.7000 S   0  0  0  0  0  0  0  0  0  0  0  0
   35.2610   26.3060   31.2450 O   0  0  0  0  0  0  0  0  0  0  0  0
   35.2450   28.6370   31.9530 O   0  0  0  0  0  0  0  0  0  0  0  0
  1  2  1  0  0  0  0
  2  3  1  0  0  0  0
  3  4  2  0  0  0  0
  3 12  1  0  0  0  0
  4  8  1  0  0  0  0
  5  9  1  0  0  0  0
  5  4  1  0  0  0  0
  6  5  2  0  0  0  0
  7  6  1  0  0  0  0
  7  2  2  0  0  0  0
 10  6  1  0  0  0  0
 11 16  1  0  0  0  0
 12 11  2  0  0  0  0
 12 13  1  0  0  0  0
 13 14  2  0  0  0  0
 14 15  1  0  0  0  0
 15 19  1  0  0  0  0
 16 15  2  0  0  0  0
 17 11  1  0  0  0  0
 18 13  1  0  0  0  0
 20  7  1  0  0  0  0
 21 30  1  0  0  0  0
 22 21  1  0  0  0  0
 22 20  1  0  0  0  0
 23 22  2  0  0  0  0
 24 23  1  0  0  0  0
 25 27  2  0  0  0  0
 25 23  1  0  0  0  0
 26 25  1  0  0  0  0
 27 28  1  0  0  0  0
 28 21  2  0  0  0  0
 30 32  2  0  0  0  0
 30 29  1  0  0  0  0
 31 30  2  0  0  0  0
M  END
>  <minimizedAffinity>
-5.09016228

$$$$

 OpenBabel03272505033D

 32 34  0  0  0  0  0  0  0  0999 V2000
   34.9340   30.7580   31.5260 Cl  0  0  0  0  0  0  0  0  0  0  0  0
   35.9100   29.4770   32.2460 C   0  0  0  0  0  0  0  0  0  0  0  0
   36.9830   29.0180   31.5450 C   0  0  0  0  0  0  0  0  0  0  0  0
   37.6890   27.9990   32.1660 C   0  0  0  0  0  0  0  0  0  0  0  0
   37.3060   27.5100   33.4010 C   0  0  0  0  0  0  0  0  0  0  0  0
   36.2120   28.0170   34.0560 C   0  0  0  0  0  0  0  0  0  0  0  0
   35.4850   29.0380   33.4600 C   0  0  0  0  0  0  0  0  0  0  0  0
   38.5580   27.5760   31.6740 H   0  0  0  0  0  0  0  0  0  0  0  0
   37.9030   26.7120   33.8300 H   0  0  0  0  0  0  0  0  0  0  0  0
   35.9350   27.6150   35.0210 H   0  0  0  0  0  0  0  0  0  0  0  0
   37.6080   28.6360   29.1640 C   0  0  0  0  0  0  0  0  0  0  0  0
   37.4080   29.5240   30.2340 C   0  0  0  0  0  0  0  0  0  0  0  0
   37.6120   30.8940   30.0530 C   0  0  0  0  0  0  0  0  0  0  0  0
   38.0060   31.2800   28.8030 N   0  0  0  0  0  0  0  0  0  0  0  0
   38.1960   30.4420   27.7910 C   0  0  0  0  0  0  0  0  0  0  0  0
   37.9990   29.1250   27.9650 N   0  0  0  0  0  0  0  0  0  0  0  0
   37.4260   27.5930   29.3940 H   0  0  0  0  0  0  0  0  0  0  0  0
   37.4580   31.5710   30.8750 H   0  0  0  0  0  0  0  0  0  0  0  0
   38.5090   30.7840   26.8120 H   0  0  0  0  0  0  0  0  0  0  0  0
   34.3960   29.5230   34.1410 O   0  0  0  0  0  0  0  0  0  0  0  0
   33.2380   30.5140   35.8170 C   0  0  0  0  0  0  0  0  0  0  0  0
   34.4550   30.4840   35.1220 C   0  0  0  0  0  0  0  0  0  0  0  0
   35.4250   31.3690   35.5230 C   0  0  0  0  0  0  0  0  0  0  0  0
   36.3280   31.2710   34.9430 H   0  0  0  0  0  0  0  0  0  0  0  0
   35.2050   32.2450   36.5640 C   0  0  0  0  0  0  0  0  0  0  0  0
   36.0220   32.9000   36.8060 H   0  0  0  0  0  0  0  0  0  0  0  0
   34.0150   32.2790   37.2460 C   0  0  0  0  0  3  0  0  0  0  0  0
   33.0250   31.4030   36.8660 C   0  0  0  0  0  3  0  0  0  0  0  0
   31.7570   29.2160   34.1770 H   0  0  0  0  0  0  0  0  0  0  0  0
   31.8390   29.4920   35.5060 S   0  0  0  0  0  0  0  0  0  0  0  0
   30.5600   30.1690   35.9100 O   0  0  0  0  0  0  0  0  0  0  0  0
   31.9860   28.2320   36.2970 O   0  0  0  0  0  0  0  0  0  0  0  0
  1  2  1  0  0  0  0
  2  7  1  0  0  0  0
  3  4  1  0  0  0  0
  3  2  2  0  0  0  0
  4  5  2  0  0  0  0
  5  9  1  0  0  0  0
  5  6  1  0  0  0  0
  6 10  1  0  0  0  0
  7  6  2  0  0  0  0
  7 20  1  0  0  0  0
  8  4  1  0  0  0  0
 11 17  1  0  0  0  0
 11 12  1  0  0  0  0
 12  3  1  0  0  0  0
 13 12  2  0  0  0  0
 13 18  1  0  0  0  0
 14 13  1  0  0  0  0
 15 16  1  0  0  0  0
 15 14  2  0  0  0  0
 16 11  2  0  0  0  0
 19 15  1  0  0  0  0
 20 22  1  0  0  0  0
 21 28  1  0  0  0  0
 22 23  1  0  0  0  0
 22 21  2  0  0  0  0
 23 25  2  0  0  0  0
 24 23  1  0  0  0  0
 25 26  1  0  0  0  0
 25 27  1  0  0  0  0
 28 27  2  0  0  0  0
 29 30  1  0  0  0  0
 30 21  1  0  0  0  0
 30 31  2  0  0  0  0
 30 32  2  0  0  0  0
M  END
>  <minimizedAffinity>
-5.0804038

$$$$

 OpenBabel03272505033D

 32 34  0  0  0  0  0  0  0  0999 V2000
   38.6000   26.6560   35.3080 Cl  0  0  0  0  0  0  0  0  0  0  0  0
   37.9710   25.4840   34.1510 C   0  0  0  0  0  0  0  0  0  0  0  0
   38.3210   24.1770   34.3060 C   0  0  0  0  0  0  0  0  0  0  0  0
   37.8050   23.3190   33.3470 C   0  0  0  0  0  0  0  0  0  0  0  0
   37.0000   23.7870   32.3250 C   0  0  0  0  0  0  0  0  0  0  0  0
   36.6840   25.1190   32.2250 C   0  0  0  0  0  0  0  0  0  0  0  0
   37.1850   26.0020   33.1710 C   0  0  0  0  0  0  0  0  0  0  0  0
   38.0370   22.2610   33.3970 H   0  0  0  0  0  0  0  0  0  0  0  0
   36.6290   23.0620   31.6080 H   0  0  0  0  0  0  0  0  0  0  0  0
   36.0510   25.4570   31.4140 H   0  0  0  0  0  0  0  0  0  0  0  0
   38.6200   23.3570   36.6400 C   0  0  0  0  0  0  0  0  0  0  0  0
   39.1730   23.6590   35.3840 C   0  0  0  0  0  0  0  0  0  0  0  0
   40.5370   23.4650   35.1560 C   0  0  0  0  0  0  0  0  0  0  0  0
   41.2570   22.9800   36.2110 N   0  0  0  0  0  0  0  0  0  0  0  0
   40.7370   22.6950   37.3980 C   0  0  0  0  0  0  0  0  0  0  0  0
   39.4250   22.8810   37.6170 N   0  0  0  0  0  0  0  0  0  0  0  0
   37.5560   23.5370   36.7270 H   0  0  0  0  0  0  0  0  0  0  0  0
   40.9570   23.6970   34.1930 H   0  0  0  0  0  0  0  0  0  0  0  0
   41.3390   22.3110   38.2130 H   0  0  0  0  0  0  0  0  0  0  0  0
   36.8500   27.3270   33.0410 O   0  0  0  0  0  0  0  0  0  0  0  0
   36.1060   29.0570   31.7830 C   0  0  0  0  0  0  0  0  0  0  0  0
   37.1120   28.0930   31.9310 C   0  0  0  0  0  0  0  0  0  0  0  0
   38.1160   28.0890   30.9950 C   0  0  0  0  0  0  0  0  0  0  0  0
   38.8500   27.3250   31.1900 H   0  0  0  0  0  0  0  0  0  0  0  0
   38.1270   28.9960   29.9570 C   0  0  0  0  0  0  0  0  0  0  0  0
   38.9520   28.9160   29.2730 H   0  0  0  0  0  0  0  0  0  0  0  0
   37.1440   29.9410   29.8080 C   0  0  0  0  0  3  0  0  0  0  0  0
   36.1260   29.9690   30.7320 C   0  0  0  0  0  3  0  0  0  0  0  0
   34.1620   28.0690   33.1280 H   0  0  0  0  0  0  0  0  0  0  0  0
   34.7150   29.2770   32.8390 S   0  0  0  0  0  0  0  0  0  0  0  0
   33.6550   30.1190   32.1870 O   0  0  0  0  0  0  0  0  0  0  0  0
   35.1700   29.9610   34.0880 O   0  0  0  0  0  0  0  0  0  0  0  0
  2  3  1  0  0  0  0
  2  1  1  0  0  0  0
  3 12  1  0  0  0  0
  4  8  1  0  0  0  0
  4  3  2  0  0  0  0
  5  4  1  0  0  0  0
  6  5  2  0  0  0  0
  6  7  1  0  0  0  0
  7  2  2  0  0  0  0
  9  5  1  0  0  0  0
 10  6  1  0  0  0  0
 11 17  1  0  0  0  0
 11 16  1  0  0  0  0
 12 11  2  0  0  0  0
 13 12  1  0  0  0  0
 13 14  2  0  0  0  0
 14 15  1  0  0  0  0
 15 16  2  0  0  0  0
 15 19  1  0  0  0  0
 18 13  1  0  0  0  0
 20  7  1  0  0  0  0
 21 22  1  0  0  0  0
 21 30  1  0  0  0  0
 22 20  1  0  0  0  0
 23 24  1  0  0  0  0
 23 22  2  0  0  0  0
 25 23  1  0  0  0  0
 26 25  1  0  0  0  0
 27 25  2  0  0  0  0
 27 28  1  0  0  0  0
 28 21  2  0  0  0  0
 30 29  1  0  0  0  0
 30 32  2  0  0  0  0
 31 30  2  0  0  0  0
M  END
>  <minimizedAffinity>
-5.03081846

$$$$
