
 OpenBabel03262521553D

 42 44  0  0  1  0  0  0  0  0999 V2000
   32.9320   27.8340   47.0710 C   0  0  1  0  0  0  0  0  0  0  0  0
   33.4880   28.9010   47.9730 C   0  0  2  0  0  0  0  0  0  0  0  0
   34.2170   29.8860   47.1290 C   0  0  0  0  0  0  0  0  0  0  0  0
   34.2250   29.5550   45.7830 O   0  0  0  0  0  0  0  0  0  0  0  0
   32.9320   29.4860   45.2760 C   0  0  0  0  0  0  0  0  0  0  0  0
   32.0480   28.5290   46.0400 C   0  0  2  0  0  0  0  0  0  0  0  0
   32.3360   27.0990   47.6490 H   0  0  0  0  0  0  0  0  0  0  0  0
   32.6050   29.3300   48.5150 H   0  0  0  0  0  0  0  0  0  0  0  0
   35.2270   30.1390   47.4480 H   0  0  0  0  0  0  0  0  0  0  0  0
   33.6390   30.8540   47.1960 H   0  0  0  0  0  0  0  0  0  0  0  0
   32.4470   30.4860   45.2390 H   0  0  0  0  0  0  0  0  0  0  0  0
   33.0130   29.1250   44.2340 H   0  0  0  0  0  0  0  0  0  0  0  0
   31.6460   27.7280   45.4040 H   0  0  0  0  0  0  0  0  0  0  0  0
   33.9550   27.2030   46.3370 O   0  0  0  0  0  0  0  0  0  0  0  0
   33.7930   26.2370   46.4080 H   0  0  0  0  0  0  0  0  0  0  0  0
   34.5550   28.2010   49.2560 S   0  0  0  0  0  0  0  0  0  0  0  0
   35.2870   29.5390   50.2440 C   0  0  0  0  0  0  0  0  0  0  0  0
   34.8990   30.4940   49.8460 H   0  0  0  0  0  0  0  0  0  0  0  0
   34.8840   29.4430   51.2770 H   0  0  0  0  0  0  0  0  0  0  0  0
   37.0680   29.4780   50.3270 S   0  0  0  0  0  0  0  0  0  0  0  0
   37.7460   30.6240   49.1300 C   0  0  0  0  0  0  0  0  0  0  0  0
   38.1380   31.8360   49.6590 C   0  0  0  0  0  0  0  0  0  0  0  0
   38.6810   32.7980   48.8030 C   0  0  0  0  0  0  0  0  0  0  0  0
   38.7870   32.4690   47.4820 N   0  0  0  0  0  0  0  0  0  0  0  0
   38.3860   31.2640   47.0150 C   0  0  0  0  0  0  0  0  0  0  0  0
   37.8750   30.3600   47.8260 N   0  0  0  0  0  0  0  0  0  0  0  0
   38.0610   32.1040   50.6900 H   0  0  0  0  0  0  0  0  0  0  0  0
   39.0030   33.7610   49.1710 H   0  0  0  0  0  0  0  0  0  0  0  0
   38.4930   31.0500   45.9510 H   0  0  0  0  0  0  0  0  0  0  0  0
   31.1280   29.2510   46.7820 O   0  0  0  0  0  0  0  0  0  0  0  0
   28.9500   28.9570   47.3180 C   0  0  0  0  0  0  0  0  0  0  0  0
   29.8330   29.4230   46.3460 C   0  0  0  0  0  0  0  0  0  0  0  0
   29.3050   29.9440   45.1880 C   0  0  0  0  0  0  0  0  0  0  0  0
   30.0480   30.2750   44.5000 H   0  0  0  0  0  0  0  0  0  0  0  0
   27.9370   29.9930   45.0150 C   0  0  0  0  0  0  0  0  0  0  0  0
   27.5850   30.4140   44.0830 H   0  0  0  0  0  0  0  0  0  0  0  0
   27.0350   29.5380   45.9630 C   0  0  0  0  0  3  0  0  0  0  0  0
   27.5630   29.0160   47.1250 C   0  0  0  0  0  3  0  0  0  0  0  0
   30.7320   28.3060   49.0800 H   0  0  0  0  0  0  0  0  0  0  0  0
   29.3880   28.2510   48.8770 S   0  0  0  0  0  0  0  0  0  0  0  0
   28.8740   26.8480   48.9980 O   0  0  0  0  0  0  0  0  0  0  0  0
   28.6990   29.0780   49.9390 O   0  0  0  0  0  0  0  0  0  0  0  0
  1  7  1  1  0  0  0
  1  2  1  0  0  0  0
  2  8  1  1  0  0  0
  2 16  1  0  0  0  0
  3 10  1  0  0  0  0
  3  9  1  0  0  0  0
  3  2  1  0  0  0  0
  4  3  1  0  0  0  0
  5  4  1  0  0  0  0
  5  6  1  0  0  0  0
  6 13  1  6  0  0  0
  6 30  1  0  0  0  0
  6  1  1  0  0  0  0
 11  5  1  0  0  0  0
 12  5  1  0  0  0  0
 14 15  1  0  0  0  0
 14  1  1  0  0  0  0
 16 17  1  0  0  0  0
 17 20  1  0  0  0  0
 17 19  1  0  0  0  0
 18 17  1  0  0  0  0
 21 22  1  0  0  0  0
 21 20  1  0  0  0  0
 22 27  1  0  0  0  0
 23 28  1  0  0  0  0
 23 22  2  0  0  0  0
 24 23  1  0  0  0  0
 25 24  2  0  0  0  0
 25 26  1  0  0  0  0
 26 21  2  0  0  0  0
 29 25  1  0  0  0  0
 31 40  1  0  0  0  0
 32 30  1  0  0  0  0
 32 31  2  0  0  0  0
 33 32  1  0  0  0  0
 34 33  1  0  0  0  0
 35 33  2  0  0  0  0
 35 37  1  0  0  0  0
 36 35  1  0  0  0  0
 37 38  2  0  0  0  0
 38 31  1  0  0  0  0
 40 41  2  0  0  0  0
 40 39  1  0  0  0  0
 40 42  2  0  0  0  0
M  END
>  <minimizedAffinity>
-5.06557703

>  <minimizedRMSD>
2.4020977

$$$$
