
 OpenBabel03272510233D

 34 37  0  0  0  0  0  0  0  0999 V2000
   36.1090   30.0830   46.2460 C   0  0  0  0  0  0  0  0  0  0  0  0
   37.0830   30.8680   46.8450 C   0  0  0  0  0  0  0  0  0  0  0  0
   37.7900   31.8030   46.1000 C   0  0  0  0  0  0  0  0  0  0  0  0
   37.4580   31.8910   44.7420 C   0  0  0  0  0  0  0  0  0  0  0  0
   37.9980   32.7150   43.8190 N   0  0  0  0  0  0  0  0  0  0  0  0
   37.4110   32.4910   42.6650 C   0  0  0  0  0  0  0  0  0  0  0  0
   36.5010   31.5330   42.8270 N   0  0  0  0  0  0  0  0  0  0  0  0
   36.4970   31.1310   44.1090 C   0  0  0  0  0  0  0  0  0  0  0  0
   35.8120   30.2070   44.8890 C   0  0  0  0  0  0  0  0  0  0  0  0
   35.5260   29.3380   46.7830 H   0  0  0  0  0  0  0  0  0  0  0  0
   38.5480   32.4180   46.5550 H   0  0  0  0  0  0  0  0  0  0  0  0
   38.7460   33.3770   43.9980 H   0  0  0  0  0  0  0  0  0  0  0  0
   35.0560   29.6010   44.4130 H   0  0  0  0  0  0  0  0  0  0  0  0
   38.3430   31.1830   50.3850 C   0  0  0  0  0  0  0  0  0  0  0  0
   38.1850   31.4540   49.0310 C   0  0  0  0  0  0  0  0  0  0  0  0
   37.3270   30.6750   48.2700 C   0  0  0  0  0  0  0  0  0  0  0  0
   36.6580   29.6530   48.8820 N   0  0  0  0  0  0  0  0  0  0  0  0
   36.8310   29.4080   50.2080 C   0  0  0  0  0  0  0  0  0  0  0  0
   37.6610   30.1660   50.9370 N   0  0  0  0  0  0  0  0  0  0  0  0
   39.0310   31.8440   50.8930 H   0  0  0  0  0  0  0  0  0  0  0  0
   38.7060   32.2520   48.5500 H   0  0  0  0  0  0  0  0  0  0  0  0
   36.2780   28.5830   50.6620 H   0  0  0  0  0  0  0  0  0  0  0  0
   36.6130   33.9270   40.7400 C   0  0  0  0  0  0  0  0  0  0  0  0
   37.5060   33.0700   41.3320 C   0  0  0  0  0  0  0  0  0  0  0  0
   38.6220   32.8430   40.5130 C   0  0  0  0  0  0  0  0  0  0  0  0
   39.4300   32.1740   40.8500 H   0  0  0  0  0  0  0  0  0  0  0  0
   38.8580   33.3760   39.2750 C   0  0  0  0  0  0  0  0  0  0  0  0
   39.7430   33.1500   38.7110 H   0  0  0  0  0  0  0  0  0  0  0  0
   37.9240   34.2270   38.7440 C   0  0  0  0  0  3  0  0  0  0  0  0
   36.8070   34.4880   39.4970 C   0  0  0  0  0  3  0  0  0  0  0  0
   35.3150   34.5430   42.8340 H   0  0  0  0  0  0  0  0  0  0  0  0
   35.1110   34.3350   41.5070 S   0  0  0  0  0  0  0  0  0  0  0  0
   34.0110   33.3510   41.2230 O   0  0  0  0  0  0  0  0  0  0  0  0
   34.5760   35.6660   40.9630 O   0  0  0  0  0  0  0  0  0  0  0  0
  1 10  1  0  0  0  0
  1  2  1  0  0  0  0
  2 16  1  0  0  0  0
  3 11  1  0  0  0  0
  3  2  2  0  0  0  0
  4  3  1  0  0  0  0
  5 12  1  0  0  0  0
  5  4  1  0  0  0  0
  6  7  2  0  0  0  0
  6  5  1  0  0  0  0
  7  8  1  0  0  0  0
  8  4  2  0  0  0  0
  8  9  1  0  0  0  0
  9  1  2  0  0  0  0
 13  9  1  0  0  0  0
 14 20  1  0  0  0  0
 14 19  1  0  0  0  0
 15 14  2  0  0  0  0
 16 17  2  0  0  0  0
 16 15  1  0  0  0  0
 17 18  1  0  0  0  0
 18 22  1  0  0  0  0
 18 19  2  0  0  0  0
 21 15  1  0  0  0  0
 23 24  1  0  0  0  0
 23 32  1  0  0  0  0
 24  6  1  0  0  0  0
 25 26  1  0  0  0  0
 25 24  2  0  0  0  0
 27 25  1  0  0  0  0
 28 27  1  0  0  0  0
 29 27  2  0  0  0  0
 29 30  1  0  0  0  0
 30 23  2  0  0  0  0
 32 31  1  0  0  0  0
 33 32  2  0  0  0  0
 34 32  2  0  0  0  0
M  END
>  <minimizedAffinity>
-5.18501997

>  <minimizedRMSD>
3.45394063

$$$$
