
 OpenBabel03272507553D

 26 27  0  0  0  0  0  0  0  0999 V2000
   35.4360   28.7620   49.5230 C   0  0  0  0  0  0  0  0  0  0  0  0
   36.4800   29.7350   49.5140 C   0  0  0  0  0  0  0  0  0  0  0  0
   36.3880   30.8120   48.6370 C   0  0  0  0  0  0  0  0  0  0  0  0
   35.2810   30.8690   47.8240 N   0  0  0  0  0  0  0  0  0  0  0  0
   34.3050   29.9340   47.8520 C   0  0  0  0  0  0  0  0  0  0  0  0
   34.3730   28.8820   48.6940 N   0  0  0  0  0  0  0  0  0  0  0  0
   33.2690   30.1870   46.9200 N   0  0  0  0  0  0  0  0  0  0  0  0
   35.5220   27.9370   50.2020 H   0  0  0  0  0  0  0  0  0  0  0  0
   33.3380   29.5810   46.0750 H   0  0  0  0  0  0  0  0  0  0  0  0
   32.4680   30.8290   46.9000 H   0  0  0  0  0  0  0  0  0  0  0  0
   38.2580   31.9910   47.5320 C   0  0  0  0  0  0  0  0  0  0  0  0
   37.3660   31.8580   48.5720 C   0  0  0  0  0  0  0  0  0  0  0  0
   37.4470   32.7060   49.6560 C   0  0  0  0  0  0  0  0  0  0  0  0
   36.8310   32.7120   50.5690 H   0  0  0  0  0  0  0  0  0  0  0  0
   38.4220   33.7150   49.7350 C   0  0  0  0  0  0  0  0  0  0  0  0
   38.5220   34.3960   50.5710 H   0  0  0  0  0  0  0  0  0  0  0  0
   39.2830   33.7940   48.6590 C   0  0  0  0  0  3  0  0  0  0  0  0
   39.2600   32.9790   47.5400 C   0  0  0  0  0  3  0  0  0  0  0  0
   39.4090   31.0120   45.4060 H   0  0  0  0  0  0  0  0  0  0  0  0
   38.2140   30.9980   46.0980 S   0  0  0  0  0  0  0  0  0  0  0  0
   37.1710   31.5370   45.1340 O   0  0  0  0  0  0  0  0  0  0  0  0
   37.8620   29.5860   46.3760 O   0  0  0  0  0  0  0  0  0  0  0  0
   37.6160   29.5560   50.4650 C   0  0  0  0  0  0  0  0  0  0  0  0
   38.8040   29.9410   49.9060 F   0  0  0  0  0  0  0  0  0  0  0  0
   37.3610   30.3430   51.5840 F   0  0  0  0  0  0  0  0  0  0  0  0
   37.7620   28.2460   50.8970 F   0  0  0  0  0  0  0  0  0  0  0  0
  1  8  1  0  0  0  0
  2  1  1  0  0  0  0
  2 23  1  0  0  0  0
  3  2  2  0  0  0  0
  4  5  2  0  0  0  0
  4  3  1  0  0  0  0
  5  6  1  0  0  0  0
  6  1  2  0  0  0  0
  7  5  1  0  0  0  0
  9  7  1  0  0  0  0
 10  7  1  0  0  0  0
 11 18  2  0  0  0  0
 11 12  1  0  0  0  0
 12  3  1  0  0  0  0
 12 13  2  0  0  0  0
 13 15  1  0  0  0  0
 13 14  1  0  0  0  0
 15 16  1  0  0  0  0
 17 15  2  0  0  0  0
 18 17  1  0  0  0  0
 19 20  1  0  0  0  0
 20 22  2  0  0  0  0
 20 11  1  0  0  0  0
 21 20  2  0  0  0  0
 23 26  1  0  0  0  0
 23 25  1  0  0  0  0
 24 23  1  0  0  0  0
M  END
>  <minimizedAffinity>
-5.16312885

>  <minimizedRMSD>
1.65593994

$$$$
