
 OpenBabel03272504243D

 42 45  0  0  0  0  0  0  0  0999 V2000
   32.2880   28.3120   46.2580 C   0  0  0  0  0  0  0  0  0  0  0  0
   32.8790   29.5360   46.5740 C   0  0  0  0  0  0  0  0  0  0  0  0
   32.5680   30.6990   45.9370 C   0  0  0  0  0  0  0  0  0  0  0  0
   31.6280   30.6900   44.9220 C   0  0  0  0  0  0  0  0  0  0  0  0
   31.0150   29.5120   44.5590 C   0  0  0  0  0  0  0  0  0  0  0  0
   31.3770   28.3750   45.2470 C   0  0  0  0  0  0  0  0  0  0  0  0
   33.0800   31.5960   46.2560 H   0  0  0  0  0  0  0  0  0  0  0  0
   31.4570   31.6540   44.4940 H   0  0  0  0  0  0  0  0  0  0  0  0
   30.3020   29.6040   43.7690 H   0  0  0  0  0  0  0  0  0  0  0  0
   30.7700   27.5720   44.7710 H   0  0  0  0  0  0  0  0  0  0  0  0
   35.7980   30.3510   48.6220 C   0  0  0  0  0  0  0  0  0  0  0  0
   35.6210   29.4840   49.6270 C   0  0  0  0  0  0  0  0  0  0  0  0
   34.5700   28.6360   49.6710 C   0  0  0  0  0  0  0  0  0  0  0  0
   33.6550   28.6590   48.6580 N   0  0  0  0  0  0  0  0  0  0  0  0
   33.8590   29.5410   47.6580 C   0  0  0  0  0  0  0  0  0  0  0  0
   34.9050   30.3810   47.6230 N   0  0  0  0  0  0  0  0  0  0  0  0
   36.3340   29.4380   50.4550 H   0  0  0  0  0  0  0  0  0  0  0  0
   34.4470   27.9430   50.4910 H   0  0  0  0  0  0  0  0  0  0  0  0
   38.1860   33.0160   49.4960 C   0  0  0  0  0  0  0  0  0  0  0  0
   39.0390   33.0370   48.3870 C   0  0  0  0  0  0  0  0  0  0  0  0
   38.7740   32.1240   47.3510 C   0  0  0  0  0  0  0  0  0  0  0  0
   37.7160   31.2810   47.4830 N   0  0  0  0  0  0  0  0  0  0  0  0
   36.9190   31.2860   48.5540 C   0  0  0  0  0  0  0  0  0  0  0  0
   37.1630   32.1600   49.5610 N   0  0  0  0  0  0  0  0  0  0  0  0
   38.4400   33.7320   50.2450 H   0  0  0  0  0  0  0  0  0  0  0  0
   39.8880   33.6430   48.1740 H   0  0  0  0  0  0  0  0  0  0  0  0
   39.3400   32.0210   46.4360 H   0  0  0  0  0  0  0  0  0  0  0  0
   32.4880   26.8350   46.9750 S   0  0  0  0  0  0  0  0  0  0  0  0
   33.2530   25.8890   45.9910 O   0  0  0  0  0  0  0  0  0  0  0  0
   31.9810   26.3280   48.1330 O   0  0  0  0  0  0  0  0  0  0  0  0
   29.6840   26.3840   47.0750 C   0  0  0  0  0  0  0  0  0  0  0  0
   30.9510   25.9840   46.5210 C   0  0  0  0  0  0  0  0  0  0  0  0
   30.8610   25.0260   45.6530 C   0  0  0  0  0  0  0  0  0  0  0  0
   31.7410   24.6230   45.1710 H   0  0  0  0  0  0  0  0  0  0  0  0
   29.6870   24.4160   45.2600 C   0  0  0  0  0  0  0  0  0  0  0  0
   29.7350   23.6280   44.5270 H   0  0  0  0  0  0  0  0  0  0  0  0
   28.5100   24.8340   45.8140 C   0  0  0  0  0  3  0  0  0  0  0  0
   28.4260   25.8350   46.7470 C   0  0  0  0  0  3  0  0  0  0  0  0
   28.3420   27.3940   48.9170 H   0  0  0  0  0  0  0  0  0  0  0  0
   29.5910   27.6200   48.3020 S   0  0  0  0  0  0  0  0  0  0  0  0
   29.3940   28.9930   47.7080 O   0  0  0  0  0  0  0  0  0  0  0  0
   30.5270   27.6600   49.3820 O   0  0  0  0  0  0  0  0  0  0  0  0
  1  2  1  0  0  0  0
  1 28  1  0  0  0  0
  2 15  1  0  0  0  0
  3  7  1  0  0  0  0
  3  2  2  0  0  0  0
  4  3  1  0  0  0  0
  5  4  2  0  0  0  0
  5  6  1  0  0  0  0
  6  1  2  0  0  0  0
  8  4  1  0  0  0  0
  9  5  1  0  0  0  0
 10  6  1  0  0  0  0
 11 12  1  0  0  0  0
 12 13  2  0  0  0  0
 12 17  1  0  0  0  0
 13 18  1  0  0  0  0
 14 13  1  0  0  0  0
 15 14  2  0  0  0  0
 16 15  1  0  0  0  0
 16 11  2  0  0  0  0
 19 24  1  0  0  0  0
 19 25  1  0  0  0  0
 20 19  2  0  0  0  0
 21 22  2  0  0  0  0
 21 20  1  0  0  0  0
 22 23  1  0  0  0  0
 23 11  1  0  0  0  0
 23 24  2  0  0  0  0
 26 20  1  0  0  0  0
 27 21  1  0  0  0  0
 28 30  2  0  0  0  0
 29 28  2  0  0  0  0
 31 40  1  0  0  0  0
 32 28  1  0  0  0  0
 32 31  2  0  0  0  0
 33 32  1  0  0  0  0
 34 33  1  0  0  0  0
 35 33  2  0  0  0  0
 35 37  1  0  0  0  0
 36 35  1  0  0  0  0
 37 38  2  0  0  0  0
 38 31  1  0  0  0  0
 40 39  1  0  0  0  0
 40 42  2  0  0  0  0
 41 40  2  0  0  0  0
M  END
>  <minimizedAffinity>
-6.00715494

>  <minimizedRMSD>
1.74338174

$$$$
