
 OpenBabel03272504243D

 42 45  0  0  0  0  0  0  0  0999 V2000
   31.3090   28.8930   46.8420 C   0  0  0  0  0  0  0  0  0  0  0  0
   32.4620   29.6540   46.6460 C   0  0  0  0  0  0  0  0  0  0  0  0
   32.5580   30.6270   45.6980 C   0  0  0  0  0  0  0  0  0  0  0  0
   31.4750   30.8900   44.8780 C   0  0  0  0  0  0  0  0  0  0  0  0
   30.3120   30.1690   45.0190 C   0  0  0  0  0  0  0  0  0  0  0  0
   30.2850   29.2000   45.9980 C   0  0  0  0  0  0  0  0  0  0  0  0
   33.4950   31.1630   45.6250 H   0  0  0  0  0  0  0  0  0  0  0  0
   31.6570   31.6740   44.1750 H   0  0  0  0  0  0  0  0  0  0  0  0
   29.5310   30.4430   44.3450 H   0  0  0  0  0  0  0  0  0  0  0  0
   29.2680   28.7560   45.9050 H   0  0  0  0  0  0  0  0  0  0  0  0
   35.5900   30.0240   48.5060 C   0  0  0  0  0  0  0  0  0  0  0  0
   35.6440   28.8260   49.1010 C   0  0  0  0  0  0  0  0  0  0  0  0
   34.6870   27.8890   48.9250 C   0  0  0  0  0  0  0  0  0  0  0  0
   33.6250   28.1680   48.1130 N   0  0  0  0  0  0  0  0  0  0  0  0
   33.5960   29.3830   47.5250 C   0  0  0  0  0  0  0  0  0  0  0  0
   34.5520   30.3080   47.7070 N   0  0  0  0  0  0  0  0  0  0  0  0
   36.4800   28.5670   49.7580 H   0  0  0  0  0  0  0  0  0  0  0  0
   34.7510   26.9280   49.4140 H   0  0  0  0  0  0  0  0  0  0  0  0
   37.4990   32.8410   49.9170 C   0  0  0  0  0  0  0  0  0  0  0  0
   38.5350   33.0020   48.9890 C   0  0  0  0  0  0  0  0  0  0  0  0
   38.5560   32.1290   47.8860 C   0  0  0  0  0  0  0  0  0  0  0  0
   37.5810   31.1870   47.7850 N   0  0  0  0  0  0  0  0  0  0  0  0
   36.6060   31.0590   48.6860 C   0  0  0  0  0  0  0  0  0  0  0  0
   36.5730   31.8930   49.7540 N   0  0  0  0  0  0  0  0  0  0  0  0
   37.5390   33.5330   50.7270 H   0  0  0  0  0  0  0  0  0  0  0  0
   39.3440   33.6940   48.9620 H   0  0  0  0  0  0  0  0  0  0  0  0
   39.2880   32.1310   47.0910 H   0  0  0  0  0  0  0  0  0  0  0  0
   30.9980   27.7380   47.9850 S   0  0  1  0  0  0  0  0  0  0  0  0
   30.6360   26.3950   47.2680 O   0  0  0  0  0  0  0  0  0  0  0  0
   30.8670   27.8320   49.3380 O   0  0  0  0  0  1  0  0  0  0  0  0
   28.2270   27.2470   47.5830 C   0  0  0  0  0  0  0  0  0  0  0  0
   29.2290   27.9890   48.3020 C   0  0  0  0  0  0  0  0  0  0  0  0
   28.7430   28.7810   49.2060 C   0  0  0  0  0  0  0  0  0  0  0  0
   29.3870   29.4040   49.8090 H   0  0  0  0  0  0  0  0  0  0  0  0
   27.4010   28.9310   49.4930 C   0  0  0  0  0  0  0  0  0  0  0  0
   27.1140   29.6210   50.2700 H   0  0  0  0  0  0  0  0  0  0  0  0
   26.4900   28.2030   48.7830 C   0  0  0  0  0  3  0  0  0  0  0  0
   26.8320   27.3200   47.7920 C   0  0  0  0  0  3  0  0  0  0  0  0
   30.0790   26.2080   46.2760 H   0  0  0  0  0  0  0  0  0  0  0  0
   28.6680   26.1680   46.2870 S   0  0  0  0  0  3  0  0  0  0  0  0
   28.3380   26.7450   44.9320 O   0  0  0  0  0  1  0  0  0  0  0  0
   28.3440   24.7770   46.3400 O   0  0  0  0  0  1  0  0  0  0  0  0
  1 28  1  0  0  0  0
  2  1  1  0  0  0  0
  2 15  1  0  0  0  0
  3  2  2  0  0  0  0
  4  5  2  0  0  0  0
  4  3  1  0  0  0  0
  5  6  1  0  0  0  0
  6  1  2  0  0  0  0
  7  3  1  0  0  0  0
  8  4  1  0  0  0  0
  9  5  1  0  0  0  0
 10  6  1  0  0  0  0
 11 23  1  0  0  0  0
 11 12  1  0  0  0  0
 12 17  1  0  0  0  0
 13 12  2  0  0  0  0
 13 18  1  0  0  0  0
 14 13  1  0  0  0  0
 15 16  1  0  0  0  0
 15 14  2  0  0  0  0
 16 11  2  0  0  0  0
 19 25  1  0  0  0  0
 20 19  2  0  0  0  0
 21 20  1  0  0  0  0
 22 21  2  0  0  0  0
 22 23  1  0  0  0  0
 23 24  2  0  0  0  0
 24 19  1  0  0  0  0
 26 20  1  0  0  0  0
 27 21  1  0  0  0  0
 28 32  1  0  0  0  0
 28 30  1  1  0  0  0
 29 28  1  0  0  0  0
 31 38  2  0  0  0  0
 31 32  1  0  0  0  0
 32 33  2  0  0  0  0
 33 35  1  0  0  0  0
 33 34  1  0  0  0  0
 35 36  1  0  0  0  0
 37 35  2  0  0  0  0
 38 37  1  0  0  0  0
 39 29  1  0  0  0  0
 40 42  1  0  0  0  0
 40 31  1  0  0  0  0
 41 40  1  0  0  0  0
M  END
>  <minimizedAffinity>
-6.36931276

>  <minimizedRMSD>
1.38091242

$$$$
