
 OpenBabel03272501503D

 23 24  0  0  0  0  0  0  0  0999 V2000
   37.8180   25.2080   33.9430 C   0  0  0  0  0  0  0  0  0  0  0  0
   38.3620   25.5410   35.1650 C   0  0  0  0  0  0  0  0  0  0  0  0
   38.1750   26.8190   35.6480 C   0  0  0  0  0  0  0  0  0  0  0  0
   38.5720   27.1530   36.5970 H   0  0  0  0  0  0  0  0  0  0  0  0
   37.4680   27.7900   34.9730 C   0  0  0  0  0  0  0  0  0  0  0  0
   37.3270   28.8010   35.3680 H   0  0  0  0  0  0  0  0  0  0  0  0
   36.9110   27.5040   33.7560 C   0  0  0  0  0  3  0  0  0  0  0  0
   37.1080   26.2240   33.2880 C   0  0  0  0  0  3  0  0  0  0  0  0
   41.0250   23.1300   36.2850 C   0  0  0  0  0  0  0  0  0  0  0  0
   40.3750   24.1080   35.4940 C   0  0  0  0  0  0  0  0  0  0  0  0
   39.1080   24.5490   35.9000 C   0  0  0  0  0  0  0  0  0  0  0  0
   38.6180   23.9840   37.0370 N   0  0  0  0  0  0  0  0  0  0  0  0
   39.2500   23.0640   37.7650 C   0  0  0  0  0  0  0  0  0  0  0  0
   40.4660   22.6140   37.4080 N   0  0  0  0  0  0  0  0  0  0  0  0
   38.5490   22.6110   38.9170 N   0  0  0  0  0  0  0  0  0  0  0  0
   42.0110   22.7510   36.0140 H   0  0  0  0  0  0  0  0  0  0  0  0
   40.8520   24.4860   34.6160 H   0  0  0  0  0  0  0  0  0  0  0  0
   38.9530   22.5850   39.8780 H   0  0  0  0  0  0  0  0  0  0  0  0
   37.6000   22.2460   39.0720 H   0  0  0  0  0  0  0  0  0  0  0  0
   38.2440   22.6580   34.0850 H   0  0  0  0  0  0  0  0  0  0  0  0
   37.9640   23.6530   33.2030 S   0  0  0  0  0  0  0  0  0  0  0  0
   36.7260   23.2820   32.4070 O   0  0  0  0  0  0  0  0  0  0  0  0
   39.1330   23.6860   32.2260 O   0  0  0  0  0  0  0  0  0  0  0  0
  1  2  1  0  0  0  0
  2  3  2  0  0  0  0
  2 11  1  0  0  0  0
  3  4  1  0  0  0  0
  5  6  1  0  0  0  0
  5  3  1  0  0  0  0
  7  5  2  0  0  0  0
  8  7  1  0  0  0  0
  8  1  2  0  0  0  0
  9 14  1  0  0  0  0
 10 11  1  0  0  0  0
 10  9  2  0  0  0  0
 11 12  2  0  0  0  0
 12 13  1  0  0  0  0
 13 15  1  0  0  0  0
 14 13  2  0  0  0  0
 15 19  1  0  0  0  0
 15 18  1  0  0  0  0
 16  9  1  0  0  0  0
 17 10  1  0  0  0  0
 21  1  1  0  0  0  0
 21 20  1  0  0  0  0
 22 21  2  0  0  0  0
 23 21  2  0  0  0  0
M  END
>  <minimizedAffinity>
-4.8058219

$$$$

 OpenBabel03272501503D

 23 24  0  0  0  0  0  0  0  0999 V2000
   39.0440   25.3520   33.9250 C   0  0  0  0  0  0  0  0  0  0  0  0
   38.4570   24.2090   34.4250 C   0  0  0  0  0  0  0  0  0  0  0  0
   37.7770   23.3790   33.5600 C   0  0  0  0  0  0  0  0  0  0  0  0
   37.2910   22.4670   33.8780 H   0  0  0  0  0  0  0  0  0  0  0  0
   37.6500   23.6290   32.2110 C   0  0  0  0  0  0  0  0  0  0  0  0
   37.1070   22.9620   31.5340 H   0  0  0  0  0  0  0  0  0  0  0  0
   38.2170   24.7520   31.6710 C   0  0  0  0  0  3  0  0  0  0  0  0
   38.8910   25.5700   32.5490 C   0  0  0  0  0  3  0  0  0  0  0  0
   37.9320   24.1530   38.1510 C   0  0  0  0  0  0  0  0  0  0  0  0
   37.7400   24.5090   36.7940 C   0  0  0  0  0  0  0  0  0  0  0  0
   38.5700   23.9150   35.8330 C   0  0  0  0  0  0  0  0  0  0  0  0
   39.4960   23.0370   36.3080 N   0  0  0  0  0  0  0  0  0  0  0  0
   39.6570   22.7200   37.5910 C   0  0  0  0  0  0  0  0  0  0  0  0
   38.8820   23.2680   38.5430 N   0  0  0  0  0  0  0  0  0  0  0  0
   40.6890   21.7780   37.8620 N   0  0  0  0  0  0  0  0  0  0  0  0
   37.3150   24.5860   38.9400 H   0  0  0  0  0  0  0  0  0  0  0  0
   36.9810   25.2120   36.5300 H   0  0  0  0  0  0  0  0  0  0  0  0
   40.5590   20.9100   38.4250 H   0  0  0  0  0  0  0  0  0  0  0  0
   41.6840   21.7230   37.6060 H   0  0  0  0  0  0  0  0  0  0  0  0
   40.5790   25.9260   35.9290 H   0  0  0  0  0  0  0  0  0  0  0  0
   39.9280   26.4900   34.8780 S   0  0  0  0  0  0  0  0  0  0  0  0
   40.9170   27.2850   34.0460 O   0  0  0  0  0  0  0  0  0  0  0  0
   38.9470   27.4870   35.4830 O   0  0  0  0  0  0  0  0  0  0  0  0
  1  2  1  0  0  0  0
  1 21  1  0  0  0  0
  2 11  1  0  0  0  0
  3  4  1  0  0  0  0
  3  2  2  0  0  0  0
  5  3  1  0  0  0  0
  6  5  1  0  0  0  0
  7  5  2  0  0  0  0
  7  8  1  0  0  0  0
  8  1  2  0  0  0  0
  9 14  1  0  0  0  0
  9 16  1  0  0  0  0
 10  9  2  0  0  0  0
 11 12  2  0  0  0  0
 11 10  1  0  0  0  0
 12 13  1  0  0  0  0
 13 15  1  0  0  0  0
 13 14  2  0  0  0  0
 15 18  1  0  0  0  0
 17 10  1  0  0  0  0
 19 15  1  0  0  0  0
 21 23  2  0  0  0  0
 21 20  1  0  0  0  0
 22 21  2  0  0  0  0
M  END
>  <minimizedAffinity>
-4.75177288

$$$$

 OpenBabel03272501503D

 23 24  0  0  0  0  0  0  0  0999 V2000
   38.9170   24.8120   33.6430 C   0  0  0  0  0  0  0  0  0  0  0  0
   39.4180   25.2890   34.8360 C   0  0  0  0  0  0  0  0  0  0  0  0
   40.1780   26.4390   34.8230 C   0  0  0  0  0  0  0  0  0  0  0  0
   40.6050   26.8720   35.7170 H   0  0  0  0  0  0  0  0  0  0  0  0
   40.4670   27.1460   33.6760 C   0  0  0  0  0  0  0  0  0  0  0  0
   41.0710   28.0580   33.6800 H   0  0  0  0  0  0  0  0  0  0  0  0
   39.9900   26.7090   32.4690 C   0  0  0  0  0  3  0  0  0  0  0  0
   39.2340   25.5590   32.5000 C   0  0  0  0  0  3  0  0  0  0  0  0
   37.8750   24.1500   38.0730 C   0  0  0  0  0  0  0  0  0  0  0  0
   38.0680   24.9150   36.8970 C   0  0  0  0  0  0  0  0  0  0  0  0
   39.1360   24.5740   36.0560 C   0  0  0  0  0  0  0  0  0  0  0  0
   39.8970   23.5200   36.4600 N   0  0  0  0  0  0  0  0  0  0  0  0
   39.6950   22.8160   37.5720 C   0  0  0  0  0  0  0  0  0  0  0  0
   38.6820   23.1120   38.4050 N   0  0  0  0  0  0  0  0  0  0  0  0
   40.6160   21.7550   37.7980 N   0  0  0  0  0  0  0  0  0  0  0  0
   37.0600   24.3730   38.7630 H   0  0  0  0  0  0  0  0  0  0  0  0
   37.4080   25.7250   36.6740 H   0  0  0  0  0  0  0  0  0  0  0  0
   40.3380   20.7710   38.0040 H   0  0  0  0  0  0  0  0  0  0  0  0
   41.6420   21.6980   37.8130 H   0  0  0  0  0  0  0  0  0  0  0  0
   37.1410   23.1670   34.5610 H   0  0  0  0  0  0  0  0  0  0  0  0
   37.9500   23.3870   33.4920 S   0  0  0  0  0  0  0  0  0  0  0  0
   37.1140   23.3960   32.2260 O   0  0  0  0  0  0  0  0  0  0  0  0
   38.8730   22.1780   33.4120 O   0  0  0  0  0  0  0  0  0  0  0  0
  1  2  1  0  0  0  0
  2 11  1  0  0  0  0
  3  2  2  0  0  0  0
  3  4  1  0  0  0  0
  5  6  1  0  0  0  0
  5  3  1  0  0  0  0
  7  8  1  0  0  0  0
  7  5  2  0  0  0  0
  8  1  2  0  0  0  0
  9 14  1  0  0  0  0
  9 16  1  0  0  0  0
 10  9  2  0  0  0  0
 11 12  2  0  0  0  0
 11 10  1  0  0  0  0
 12 13  1  0  0  0  0
 13 15  1  0  0  0  0
 13 14  2  0  0  0  0
 15 19  1  0  0  0  0
 15 18  1  0  0  0  0
 17 10  1  0  0  0  0
 21  1  1  0  0  0  0
 21 20  1  0  0  0  0
 22 21  2  0  0  0  0
 23 21  2  0  0  0  0
M  END
>  <minimizedAffinity>
-4.7393856

$$$$

 OpenBabel03272501503D

 23 24  0  0  0  0  0  0  0  0999 V2000
   34.2780   30.5880   35.0270 C   0  0  0  0  0  0  0  0  0  0  0  0
   33.2440   30.6560   35.9360 C   0  0  0  0  0  0  0  0  0  0  0  0
   33.3420   31.5420   36.9880 C   0  0  0  0  0  0  0  0  0  0  0  0
   32.5730   31.6510   37.7400 H   0  0  0  0  0  0  0  0  0  0  0  0
   34.4250   32.3710   37.1830 C   0  0  0  0  0  0  0  0  0  0  0  0
   34.4920   33.0710   38.0220 H   0  0  0  0  0  0  0  0  0  0  0  0
   35.4750   32.3380   36.3050 C   0  0  0  0  0  3  0  0  0  0  0  0
   35.3610   31.4470   35.2620 C   0  0  0  0  0  3  0  0  0  0  0  0
   29.8990   29.2790   34.9000 C   0  0  0  0  0  0  0  0  0  0  0  0
   30.9770   30.1910   35.0100 C   0  0  0  0  0  0  0  0  0  0  0  0
   32.0940   29.8030   35.7630 C   0  0  0  0  0  0  0  0  0  0  0  0
   32.0310   28.5650   36.3250 N   0  0  0  0  0  0  0  0  0  0  0  0
   31.0040   27.7250   36.2070 C   0  0  0  0  0  0  0  0  0  0  0  0
   29.9140   28.0600   35.4940 N   0  0  0  0  0  0  0  0  0  0  0  0
   31.1530   26.4810   36.8810 N   0  0  0  0  0  0  0  0  0  0  0  0
   29.0050   29.5300   34.3270 H   0  0  0  0  0  0  0  0  0  0  0  0
   30.9220   31.1410   34.5260 H   0  0  0  0  0  0  0  0  0  0  0  0
   31.0130   25.5500   36.4310 H   0  0  0  0  0  0  0  0  0  0  0  0
   31.4010   26.2210   37.8440 H   0  0  0  0  0  0  0  0  0  0  0  0
   33.6360   28.3670   33.8620 H   0  0  0  0  0  0  0  0  0  0  0  0
   34.3050   29.5330   33.6590 S   0  0  0  0  0  0  0  0  0  0  0  0
   33.7700   30.2050   32.4080 O   0  0  0  0  0  0  0  0  0  0  0  0
   35.7500   29.1400   33.3750 O   0  0  0  0  0  0  0  0  0  0  0  0
  1  8  2  0  0  0  0
  1  2  1  0  0  0  0
  2  3  2  0  0  0  0
  3  5  1  0  0  0  0
  3  4  1  0  0  0  0
  5  6  1  0  0  0  0
  7  5  2  0  0  0  0
  8  7  1  0  0  0  0
  9 10  2  0  0  0  0
  9 14  1  0  0  0  0
 10 11  1  0  0  0  0
 11  2  1  0  0  0  0
 11 12  2  0  0  0  0
 13 12  1  0  0  0  0
 13 15  1  0  0  0  0
 14 13  2  0  0  0  0
 15 19  1  0  0  0  0
 16  9  1  0  0  0  0
 17 10  1  0  0  0  0
 18 15  1  0  0  0  0
 21 20  1  0  0  0  0
 21  1  1  0  0  0  0
 22 21  2  0  0  0  0
 23 21  2  0  0  0  0
M  END
>  <minimizedAffinity>
-4.68371344

$$$$

 OpenBabel03272501503D

 23 24  0  0  0  0  0  0  0  0999 V2000
   38.0540   25.4890   34.3110 C   0  0  0  0  0  0  0  0  0  0  0  0
   38.3700   24.1470   34.3320 C   0  0  0  0  0  0  0  0  0  0  0  0
   37.8680   23.3320   33.3410 C   0  0  0  0  0  0  0  0  0  0  0  0
   38.0720   22.2710   33.2920 H   0  0  0  0  0  0  0  0  0  0  0  0
   37.0620   23.7850   32.3200 C   0  0  0  0  0  0  0  0  0  0  0  0
   36.6700   23.1270   31.5380 H   0  0  0  0  0  0  0  0  0  0  0  0
   36.7220   25.1100   32.2580 C   0  0  0  0  0  3  0  0  0  0  0  0
   37.2310   25.9100   33.2560 C   0  0  0  0  0  3  0  0  0  0  0  0
   41.3180   22.8850   36.3010 C   0  0  0  0  0  0  0  0  0  0  0  0
   40.5780   23.3850   35.2010 C   0  0  0  0  0  0  0  0  0  0  0  0
   39.2120   23.6380   35.3860 C   0  0  0  0  0  0  0  0  0  0  0  0
   38.7220   23.3730   36.6290 N   0  0  0  0  0  0  0  0  0  0  0  0
   39.4390   22.9020   37.6470 C   0  0  0  0  0  0  0  0  0  0  0  0
   40.7520   22.6460   37.5090 N   0  0  0  0  0  0  0  0  0  0  0  0
   38.7190   22.6980   38.8580 N   0  0  0  0  0  0  0  0  0  0  0  0
   42.3840   22.6700   36.2110 H   0  0  0  0  0  0  0  0  0  0  0  0
   41.0640   23.5580   34.2670 H   0  0  0  0  0  0  0  0  0  0  0  0
   39.0120   23.0740   39.7850 H   0  0  0  0  0  0  0  0  0  0  0  0
   37.8500   22.1990   39.0900 H   0  0  0  0  0  0  0  0  0  0  0  0
   38.5300   26.1870   36.7580 H   0  0  0  0  0  0  0  0  0  0  0  0
   38.6020   26.6390   35.4780 S   0  0  0  0  0  0  0  0  0  0  0  0
   40.0150   27.1120   35.1940 O   0  0  0  0  0  0  0  0  0  0  0  0
   37.6980   27.8640   35.4190 O   0  0  0  0  0  0  0  0  0  0  0  0
  1  2  1  0  0  0  0
  1 21  1  0  0  0  0
  2 11  1  0  0  0  0
  3  2  2  0  0  0  0
  4  3  1  0  0  0  0
  5  3  1  0  0  0  0
  6  5  1  0  0  0  0
  7  5  2  0  0  0  0
  7  8  1  0  0  0  0
  8  1  2  0  0  0  0
  9 14  1  0  0  0  0
 10 11  1  0  0  0  0
 10  9  2  0  0  0  0
 11 12  2  0  0  0  0
 12 13  1  0  0  0  0
 13 15  1  0  0  0  0
 14 13  2  0  0  0  0
 15 19  1  0  0  0  0
 15 18  1  0  0  0  0
 16  9  1  0  0  0  0
 17 10  1  0  0  0  0
 21 20  1  0  0  0  0
 22 21  2  0  0  0  0
 23 21  2  0  0  0  0
M  END
>  <minimizedAffinity>
-4.63751841

$$$$

 OpenBabel03272501503D

 23 24  0  0  0  0  0  0  0  0999 V2000
   39.3020   23.4830   36.5830 C   0  0  0  0  0  0  0  0  0  0  0  0
   39.7460   24.4060   35.6590 C   0  0  0  0  0  0  0  0  0  0  0  0
   41.0650   24.3640   35.2620 C   0  0  0  0  0  0  0  0  0  0  0  0
   41.4850   25.0540   34.5420 H   0  0  0  0  0  0  0  0  0  0  0  0
   41.9740   23.4440   35.7390 C   0  0  0  0  0  0  0  0  0  0  0  0
   43.0190   23.4220   35.4150 H   0  0  0  0  0  0  0  0  0  0  0  0
   41.5770   22.5100   36.6580 C   0  0  0  0  0  3  0  0  0  0  0  0
   40.2570   22.5660   37.0440 C   0  0  0  0  0  3  0  0  0  0  0  0
   37.6950   27.5200   35.1540 C   0  0  0  0  0  0  0  0  0  0  0  0
   38.6260   26.6310   35.7450 C   0  0  0  0  0  0  0  0  0  0  0  0
   38.8230   25.3830   35.1370 C   0  0  0  0  0  0  0  0  0  0  0  0
   38.0860   25.1450   34.0170 N   0  0  0  0  0  0  0  0  0  0  0  0
   37.2160   25.9990   33.4810 C   0  0  0  0  0  0  0  0  0  0  0  0
   36.9990   27.2050   34.0340 N   0  0  0  0  0  0  0  0  0  0  0  0
   36.5560   25.5400   32.3070 N   0  0  0  0  0  0  0  0  0  0  0  0
   37.5030   28.5030   35.5860 H   0  0  0  0  0  0  0  0  0  0  0  0
   39.1520   26.9200   36.6280 H   0  0  0  0  0  0  0  0  0  0  0  0
   36.5080   26.0740   31.4130 H   0  0  0  0  0  0  0  0  0  0  0  0
   36.0330   24.6850   32.0760 H   0  0  0  0  0  0  0  0  0  0  0  0
   36.9880   24.5610   37.0150 H   0  0  0  0  0  0  0  0  0  0  0  0
   37.6820   23.4040   37.1800 S   0  0  0  0  0  0  0  0  0  0  0  0
   36.9010   22.2600   36.5630 O   0  0  0  0  0  0  0  0  0  0  0  0
   37.7280   23.1570   38.6830 O   0  0  0  0  0  0  0  0  0  0  0  0
  1  8  1  0  0  0  0
  1 21  1  0  0  0  0
  2  1  2  0  0  0  0
  3  2  1  0  0  0  0
  3  5  2  0  0  0  0
  4  3  1  0  0  0  0
  5  7  1  0  0  0  0
  6  5  1  0  0  0  0
  7  8  2  0  0  0  0
  9 16  1  0  0  0  0
  9 10  1  0  0  0  0
 10 17  1  0  0  0  0
 11  2  1  0  0  0  0
 11 10  2  0  0  0  0
 12 11  1  0  0  0  0
 13 12  2  0  0  0  0
 13 14  1  0  0  0  0
 14  9  2  0  0  0  0
 15 13  1  0  0  0  0
 18 15  1  0  0  0  0
 19 15  1  0  0  0  0
 20 21  1  0  0  0  0
 21 23  2  0  0  0  0
 22 21  2  0  0  0  0
M  END
>  <minimizedAffinity>
-4.53753948

$$$$

 OpenBabel03272501503D

 23 24  0  0  0  0  0  0  0  0999 V2000
   36.6590   25.4870   31.8680 C   0  0  0  0  0  0  0  0  0  0  0  0
   37.5300   24.7680   32.6590 C   0  0  0  0  0  0  0  0  0  0  0  0
   37.3870   23.3990   32.7260 C   0  0  0  0  0  0  0  0  0  0  0  0
   38.0310   22.7690   33.3250 H   0  0  0  0  0  0  0  0  0  0  0  0
   36.4160   22.7010   32.0410 C   0  0  0  0  0  0  0  0  0  0  0  0
   36.3140   21.6140   32.1040 H   0  0  0  0  0  0  0  0  0  0  0  0
   35.5300   23.3740   31.2440 C   0  0  0  0  0  3  0  0  0  0  0  0
   35.6860   24.7410   31.1880 C   0  0  0  0  0  3  0  0  0  0  0  0
   40.8440   26.1300   33.8070 C   0  0  0  0  0  0  0  0  0  0  0  0
   39.9110   25.4090   33.0230 C   0  0  0  0  0  0  0  0  0  0  0  0
   38.5590   25.4660   33.3890 C   0  0  0  0  0  0  0  0  0  0  0  0
   38.2710   26.2240   34.4830 N   0  0  0  0  0  0  0  0  0  0  0  0
   39.1680   26.8930   35.2040 C   0  0  0  0  0  0  0  0  0  0  0  0
   40.4750   26.8630   34.8860 N   0  0  0  0  0  0  0  0  0  0  0  0
   38.6430   27.6210   36.3090 N   0  0  0  0  0  0  0  0  0  0  0  0
   41.9090   26.1200   33.5670 H   0  0  0  0  0  0  0  0  0  0  0  0
   40.2460   24.8430   32.1820 H   0  0  0  0  0  0  0  0  0  0  0  0
   38.8330   28.6300   36.4900 H   0  0  0  0  0  0  0  0  0  0  0  0
   38.0290   27.3710   37.0950 H   0  0  0  0  0  0  0  0  0  0  0  0
   37.5270   27.8250   32.5660 H   0  0  0  0  0  0  0  0  0  0  0  0
   36.7060   27.2040   31.6780 S   0  0  0  0  0  0  0  0  0  0  0  0
   37.0940   27.6130   30.2690 O   0  0  0  0  0  0  0  0  0  0  0  0
   35.3120   27.7620   31.9390 O   0  0  0  0  0  0  0  0  0  0  0  0
  1  2  1  0  0  0  0
  2  3  2  0  0  0  0
  2 11  1  0  0  0  0
  3  4  1  0  0  0  0
  5  6  1  0  0  0  0
  5  3  1  0  0  0  0
  7  5  2  0  0  0  0
  8  7  1  0  0  0  0
  8  1  2  0  0  0  0
  9 14  1  0  0  0  0
 10 11  1  0  0  0  0
 10  9  2  0  0  0  0
 11 12  2  0  0  0  0
 12 13  1  0  0  0  0
 13 15  1  0  0  0  0
 14 13  2  0  0  0  0
 15 18  1  0  0  0  0
 15 19  1  0  0  0  0
 16  9  1  0  0  0  0
 17 10  1  0  0  0  0
 21  1  1  0  0  0  0
 21 23  2  0  0  0  0
 21 20  1  0  0  0  0
 22 21  2  0  0  0  0
M  END
>  <minimizedAffinity>
-4.39100218

$$$$

 OpenBabel03272501503D

 23 24  0  0  0  0  0  0  0  0999 V2000
   40.5270   24.0080   35.6470 C   0  0  0  0  0  0  0  0  0  0  0  0
   39.2720   24.3530   36.1010 C   0  0  0  0  0  0  0  0  0  0  0  0
   38.7610   23.6970   37.2000 C   0  0  0  0  0  0  0  0  0  0  0  0
   37.7850   23.9130   37.6130 H   0  0  0  0  0  0  0  0  0  0  0  0
   39.4390   22.7070   37.8770 C   0  0  0  0  0  0  0  0  0  0  0  0
   39.0220   22.1940   38.7490 H   0  0  0  0  0  0  0  0  0  0  0  0
   40.6890   22.3320   37.4620 C   0  0  0  0  0  3  0  0  0  0  0  0
   41.1840   22.9970   36.3620 C   0  0  0  0  0  3  0  0  0  0  0  0
   37.6870   27.6340   35.1630 C   0  0  0  0  0  0  0  0  0  0  0  0
   38.4360   26.6940   35.9110 C   0  0  0  0  0  0  0  0  0  0  0  0
   38.5340   25.3860   35.4170 C   0  0  0  0  0  0  0  0  0  0  0  0
   37.8860   25.1440   34.2440 N   0  0  0  0  0  0  0  0  0  0  0  0
   37.1860   26.0470   33.5590 C   0  0  0  0  0  0  0  0  0  0  0  0
   37.0690   27.3120   34.0000 N   0  0  0  0  0  0  0  0  0  0  0  0
   36.5910   25.5730   32.3560 N   0  0  0  0  0  0  0  0  0  0  0  0
   37.5780   28.6660   35.5020 H   0  0  0  0  0  0  0  0  0  0  0  0
   38.9060   26.9910   36.8220 H   0  0  0  0  0  0  0  0  0  0  0  0
   36.6980   26.0340   31.4270 H   0  0  0  0  0  0  0  0  0  0  0  0
   35.9900   24.7700   32.1320 H   0  0  0  0  0  0  0  0  0  0  0  0
   40.4870   24.8860   33.2110 H   0  0  0  0  0  0  0  0  0  0  0  0
   41.3060   24.7350   34.2860 S   0  0  0  0  0  0  0  0  0  0  0  0
   41.9280   26.0740   34.6320 O   0  0  0  0  0  0  0  0  0  0  0  0
   42.4340   23.8210   33.8240 O   0  0  0  0  0  0  0  0  0  0  0  0
  1  2  2  0  0  0  0
  1  8  1  0  0  0  0
  2  3  1  0  0  0  0
  3  4  1  0  0  0  0
  3  5  2  0  0  0  0
  5  6  1  0  0  0  0
  7  5  1  0  0  0  0
  8  7  2  0  0  0  0
  9 16  1  0  0  0  0
  9 10  1  0  0  0  0
 10 17  1  0  0  0  0
 11 10  2  0  0  0  0
 11  2  1  0  0  0  0
 12 11  1  0  0  0  0
 13 14  1  0  0  0  0
 13 12  2  0  0  0  0
 14  9  2  0  0  0  0
 15 13  1  0  0  0  0
 18 15  1  0  0  0  0
 19 15  1  0  0  0  0
 20 21  1  0  0  0  0
 21 22  2  0  0  0  0
 21  1  1  0  0  0  0
 23 21  2  0  0  0  0
M  END
>  <minimizedAffinity>
-4.25687265

$$$$

 OpenBabel03272501503D

 23 24  0  0  0  0  0  0  0  0999 V2000
   38.2920   25.1600   34.0100 C   0  0  0  0  0  0  0  0  0  0  0  0
   38.5510   26.4970   33.7940 C   0  0  0  0  0  0  0  0  0  0  0  0
   38.6110   27.3450   34.8800 C   0  0  0  0  0  0  0  0  0  0  0  0
   38.8090   28.4040   34.7890 H   0  0  0  0  0  0  0  0  0  0  0  0
   38.4260   26.9280   36.1800 C   0  0  0  0  0  0  0  0  0  0  0  0
   38.4770   27.6110   37.0330 H   0  0  0  0  0  0  0  0  0  0  0  0
   38.1670   25.6100   36.4420 C   0  0  0  0  0  3  0  0  0  0  0  0
   38.1090   24.7770   35.3460 C   0  0  0  0  0  3  0  0  0  0  0  0
   40.1130   27.6170   30.5600 C   0  0  0  0  0  0  0  0  0  0  0  0
   40.0260   27.1500   31.8940 C   0  0  0  0  0  0  0  0  0  0  0  0
   38.7500   26.9690   32.4460 C   0  0  0  0  0  0  0  0  0  0  0  0
   37.7010   27.2650   31.6290 N   0  0  0  0  0  0  0  0  0  0  0  0
   37.8100   27.7030   30.3770 C   0  0  0  0  0  0  0  0  0  0  0  0
   39.0160   27.8910   29.8120 N   0  0  0  0  0  0  0  0  0  0  0  0
   36.5790   27.9500   29.7080 N   0  0  0  0  0  0  0  0  0  0  0  0
   41.0810   27.7770   30.0810 H   0  0  0  0  0  0  0  0  0  0  0  0
   40.9160   26.9480   32.4470 H   0  0  0  0  0  0  0  0  0  0  0  0
   36.3330   27.5640   28.7710 H   0  0  0  0  0  0  0  0  0  0  0  0
   35.7400   28.4940   29.9460 H   0  0  0  0  0  0  0  0  0  0  0  0
   38.9810   24.2400   31.6910 H   0  0  0  0  0  0  0  0  0  0  0  0
   38.1840   23.9740   32.7590 S   0  0  0  0  0  0  0  0  0  0  0  0
   38.4840   22.5770   33.2690 O   0  0  0  0  0  0  0  0  0  0  0  0
   36.7580   23.9590   32.2210 O   0  0  0  0  0  0  0  0  0  0  0  0
  1  8  1  0  0  0  0
  2  1  2  0  0  0  0
  2  3  1  0  0  0  0
  3  5  2  0  0  0  0
  4  3  1  0  0  0  0
  5  7  1  0  0  0  0
  5  6  1  0  0  0  0
  8  7  2  0  0  0  0
  9 10  1  0  0  0  0
 10 11  2  0  0  0  0
 10 17  1  0  0  0  0
 11  2  1  0  0  0  0
 12 11  1  0  0  0  0
 13 12  2  0  0  0  0
 14 13  1  0  0  0  0
 14  9  2  0  0  0  0
 15 19  1  0  0  0  0
 15 13  1  0  0  0  0
 16  9  1  0  0  0  0
 18 15  1  0  0  0  0
 20 21  1  0  0  0  0
 21 22  2  0  0  0  0
 21  1  1  0  0  0  0
 23 21  2  0  0  0  0
M  END
>  <minimizedAffinity>
-4.1851759

$$$$
