
     RDKit          3D

 42 44  0  0  0  0  0  0  0  0999 V2000
   32.6918   30.2898   46.5621 Cl  0  0  0  0  0  0  0  0  0  0  0  0
   32.6317   28.5363   46.7163 C   0  0  0  0  0  0  0  0  0  0  0  0
   33.5259   27.8945   47.5828 C   0  0  0  0  0  0  0  0  0  0  0  0
   33.5226   26.5129   47.7433 C   0  0  0  0  0  0  0  0  0  0  0  0
   32.5812   25.8024   46.9947 C   0  0  0  0  0  0  0  0  0  0  0  0
   31.6998   26.4191   46.1424 C   0  0  0  0  0  0  0  0  0  0  0  0
   30.5717   25.4109   45.2641 Cl  0  0  0  0  0  0  0  0  0  0  0  0
   31.7364   27.7962   46.0120 C   0  0  0  0  0  0  0  0  0  0  0  0
   35.4055   29.2736   50.4454 C   0  0  0  0  0  0  0  0  0  0  0  0
   36.3313   30.1160   49.7821 C   0  0  0  0  0  0  0  0  0  0  0  0
   36.3041   30.2019   48.3905 C   0  0  0  0  0  0  0  0  0  0  0  0
   35.3629   29.4505   47.7288 N   0  0  0  0  0  0  0  0  0  0  0  0
   34.5058   28.6695   48.3580 C   0  0  0  0  0  0  0  0  0  0  0  0
   34.5082   28.5651   49.7132 N   0  0  0  0  0  0  0  0  0  0  0  0
   37.3012   30.8800   50.6318 C   0  0  0  0  0  0  0  0  0  0  0  0
   38.5923   30.7545   50.1442 F   0  0  0  0  0  0  0  0  0  0  0  0
   36.9665   32.2205   50.5444 F   0  0  0  0  0  0  0  0  0  0  0  0
   37.2597   30.5301   51.9531 F   0  0  0  0  0  0  0  0  0  0  0  0
   37.2569   31.0683   47.7090 C   0  0  0  0  0  0  0  0  0  0  0  0
   30.7856   28.4711   45.0916 C   0  0  0  0  0  0  0  0  0  0  0  0
   29.8158   27.5645   44.6380 F   0  0  0  0  0  0  0  0  0  0  0  0
   31.4144   29.0758   44.0447 F   0  0  0  0  0  0  0  0  0  0  0  0
   30.0996   29.4524   45.7676 F   0  0  0  0  0  0  0  0  0  0  0  0
   34.2160   26.0319   48.4135 H   0  0  0  0  0  0  0  0  0  0  0  0
   32.6312   24.7292   47.1657 H   0  0  0  0  0  0  0  0  0  0  0  0
   35.4487   29.2257   51.5236 H   0  0  0  0  0  0  0  0  0  0  0  0
   38.3337   30.8214   47.8831 H   0  0  0  0  0  0  0  0  0  0  0  0
   37.1529   32.0885   48.1368 H   0  0  0  0  0  0  0  0  0  0  0  0
   40.4796   31.3199   46.3804 H   0  0  0  0  0  0  0  0  0  0  0  0
   39.5381   32.2918   46.0589 S   0  0  0  0  0  0  0  0  0  0  0  0
   40.2182   33.0619   44.9314 O   0  0  0  0  0  0  0  0  0  0  0  0
   39.3818   33.2736   47.1553 O   0  0  0  0  0  0  0  0  0  0  0  0
   38.0881   31.6192   45.4339 C   0  0  0  0  0  0  0  0  0  0  0  0
   37.1006   31.0843   46.2356 C   0  0  0  0  0  0  0  0  0  0  0  0
   35.9312   30.5439   45.7074 C   0  0  0  0  0  0  0  0  0  0  0  0
   35.1826   30.1340   46.3844 H   0  0  0  0  0  0  0  0  0  0  0  0
   35.7144   30.5229   44.3520 C   0  0  0  0  0  0  0  0  0  0  0  0
   34.7877   30.0906   43.9970 H   0  0  0  0  0  0  0  0  0  0  0  0
   36.6779   31.0485   43.5114 C   0  0  0  0  0  0  0  0  0  0  0  0
   37.8227   31.5747   44.0739 C   0  0  0  0  0  0  0  0  0  0  0  0
   36.5209   31.0393   42.4395 H   0  0  0  0  0  0  0  0  0  0  0  0
   38.5332   31.9672   43.3707 H   0  0  0  0  0  0  0  0  0  0  0  0
  1  2  1  0
  2  3  2  0
  3  4  1  0
  3 13  1  0
  5  4  2  0
  6  5  1  0
  7  6  1  0
  8  6  2  0
  8  2  1  0
 10  9  2  0
 10 15  1  0
 11 10  1  0
 12 13  1  0
 12 11  2  0
 13 14  2  0
 14  9  1  0
 15 18  1  0
 16 15  1  0
 17 15  1  0
 19 11  1  0
 20 23  1  0
 20  8  1  0
 21 20  1  0
 22 20  1  0
  4 24  1  0
  5 25  1  0
  9 26  1  0
 19 27  1  0
 19 28  1  0
 29 30  1  0
 30 31  2  0
 30 32  2  0
 30 33  1  0
 33 34  2  0
 34 35  1  0
 35 36  1  0
 35 37  2  0
 37 38  1  0
 37 39  1  0
 39 40  2  0
 40 33  1  0
 39 41  1  0
 40 42  1  0
 19 34  1  0
M  ISO  8  24  14  25  14  26  14  27   8  28   8  29  12  36  15  38  16
M  END
>  <DihAtoms>  (1) 
10,18,33,32

>  <DihDeg>  (1) 
-76.15542256777205

$$$$
