REMARK  Name = 
REMARK  3 active torsions:
REMARK  status: ('A' for Active; 'I' for Inactive)
REMARK    1  A    between atoms: C_2  and  C_12
REMARK    2  A    between atoms: C_6  and  C_28
REMARK    3  A    between atoms: S_24  and  C_27
REMARK                            x       y       z     vdW  Elec       q    Type
REMARK                         _______ _______ _______ _____ _____    ______ ____
ROOT
ATOM      1  C   UNL     1      37.066  30.695  46.758  0.00  0.00    +0.000 A 
ATOM      2  C   UNL     1      37.699  31.131  47.913  0.00  0.00    +0.000 A 
ATOM      3  C   UNL     1      38.717  32.073  47.846  0.00  0.00    +0.000 A 
ATOM      4  C   UNL     1      39.048  32.536  46.566  0.00  0.00    +0.000 A 
ATOM      5  N   UNL     1      39.993  33.444  46.242  0.00  0.00    +0.000 N 
ATOM      6  C   UNL     1      39.988  33.606  44.938  0.00  0.00    +0.000 A 
ATOM      7  N   UNL     1      39.055  32.815  44.413  0.00  0.00    +0.000 NA
ATOM      8  C   UNL     1      38.444  32.130  45.394  0.00  0.00    +0.000 A 
ATOM      9  C   UNL     1      37.430  31.186  45.504  0.00  0.00    +0.000 A 
ATOM     10  H   UNL     1      36.264  29.961  46.755  0.00  0.00    +0.000 HD
ATOM     11  H   UNL     1      39.215  32.418  48.736  0.00  0.00    +0.000 HD
ATOM     12  H   UNL     1      40.610  33.901  46.905  0.00  0.00    +0.000 HD
ATOM     13  H   UNL     1      36.944  30.854  44.599  0.00  0.00    +0.000 HD
ENDROOT
BRANCH   2  16
ATOM     14  C   UNL     1      37.406  30.148  51.542  0.00  0.00    +0.000 A 
ATOM     15  C   UNL     1      37.920  30.729  50.388  0.00  0.00    +0.000 A 
ATOM     16  C   UNL     1      37.254  30.567  49.183  0.00  0.00    +0.000 A 
ATOM     17  N   UNL     1      36.102  29.834  49.167  0.00  0.00    +0.000 NA
ATOM     18  C   UNL     1      35.620  29.276  50.310  0.00  0.00    +0.000 A 
ATOM     19  N   UNL     1      36.269  29.437  51.471  0.00  0.00    +0.000 NA
ATOM     20  H   UNL     1      37.995  30.330  52.430  0.00  0.00    +0.000 HD
ATOM     21  H   UNL     1      38.820  31.302  50.397  0.00  0.00    +0.000 HD
ATOM     22  H   UNL     1      34.696  28.697  50.258  0.00  0.00    +0.000 HD
ENDBRANCH   2  16
BRANCH   6  24
ATOM     23  C   UNL     1      40.526  34.533  42.646  0.00  0.00    +0.000 A 
ATOM     24  C   UNL     1      40.712  34.456  44.003  0.00  0.00    +0.000 A 
ATOM     25  C   UNL     1      41.672  35.377  44.445  0.00  0.00    +0.000 A 
ATOM     26  H   UNL     1      41.933  35.437  45.514  0.00  0.00    +0.000 HD
ATOM     27  C   UNL     1      42.372  36.270  43.680  0.00  0.00    +0.000 A 
ATOM     28  H   UNL     1      43.093  36.946  44.098  0.00  0.00    +0.000 HD
ATOM     29  C   UNL     1      42.137  36.295  42.330  0.00  0.00    +0.000 A 
ATOM     30  C   UNL     1      41.206  35.414  41.835  0.00  0.00    +0.000 A 
BRANCH  23  32
ATOM     31  H   UNL     1      38.154  33.818  42.093  0.00  0.00    +0.000 HD
ATOM     32  S   UNL     1      39.438  33.463  41.822  0.00  0.00    +0.000 S 
ATOM     33  O   UNL     1      39.719  32.010  42.083  0.00  0.00    +0.000 OA
ATOM     34  O   UNL     1      39.590  33.610  40.303  0.00  0.00    +0.000 OA
ENDBRANCH  23  32
ENDBRANCH   6  24
TORSDOF 3
