
     RDKit          3D

 51 54  0  0  0  0  0  0  0  0999 V2000
   37.3400   30.1744   51.5193 C   0  0  0  0  0  0  0  0  0  0  0  0
   38.0679   30.8624   50.5244 C   0  0  0  0  0  0  0  0  0  0  0  0
   37.7002   30.6543   49.2011 C   0  0  0  0  0  0  0  0  0  0  0  0
   36.6562   29.7932   48.9830 N   0  0  0  0  0  0  0  0  0  0  0  0
   35.9821   29.1533   49.9414 C   0  0  0  0  0  0  0  0  0  0  0  0
   36.3366   29.3539   51.2185 N   0  0  0  0  0  0  0  0  0  0  0  0
   38.9449   33.2685   49.0167 F   0  0  0  0  0  0  0  0  0  0  0  0
   38.9132   32.4816   47.9473 C   0  0  0  0  0  0  0  0  0  0  0  0
   38.3317   31.2732   48.0541 C   0  0  0  0  0  0  0  0  0  0  0  0
   38.3507   30.5201   46.8697 C   0  0  0  0  0  0  0  0  0  0  0  0
   38.9186   30.9935   45.7128 C   0  0  0  0  0  0  0  0  0  0  0  0
   39.5002   32.2291   45.6463 C   0  0  0  0  0  0  0  0  0  0  0  0
   39.4803   32.9536   46.7907 C   0  0  0  0  0  0  0  0  0  0  0  0
   34.9959   28.3607   49.4615 O   0  0  0  0  0  0  0  0  0  0  0  0
   34.4423   28.6529   48.1862 C   0  0  0  0  0  0  0  0  0  0  0  0
   33.5595   27.5232   47.7138 C   0  0  0  0  0  0  0  0  0  0  0  0
   32.1099   27.8868   47.7494 C   0  0  0  0  0  0  0  0  0  0  0  0
   31.3774   27.4650   48.8413 C   0  0  0  0  0  0  0  0  0  0  0  0
   30.0422   27.7566   48.9483 C   0  0  0  0  0  0  0  0  0  0  0  0
   29.4415   28.4513   47.9955 N   0  0  0  0  0  0  0  0  0  0  0  0
   30.1669   28.8690   46.9143 C   0  0  0  0  0  0  0  0  0  0  0  0
   31.4722   28.5875   46.8036 N   0  0  0  0  0  0  0  0  0  0  0  0
   29.4568   29.6500   45.8707 C   0  0  0  0  0  0  0  0  0  0  0  0
   37.6436   30.3518   52.5414 H   0  0  0  0  0  0  0  0  0  0  0  0
   38.8901   31.5393   50.7125 H   0  0  0  0  0  0  0  0  0  0  0  0
   37.9027   29.5230   46.8534 H   0  0  0  0  0  0  0  0  0  0  0  0
   38.8964   30.3524   44.8304 H   0  0  0  0  0  0  0  0  0  0  0  0
   39.9309   32.5478   44.7098 H   0  0  0  0  0  0  0  0  0  0  0  0
   39.9402   33.9552   46.7742 H   0  0  0  0  0  0  0  0  0  0  0  0
   35.2222   28.9172   47.4712 H   0  0  0  0  0  0  0  0  0  0  0  0
   33.8045   29.5507   48.3401 H   0  0  0  0  0  0  0  0  0  0  0  0
   33.7325   26.5933   48.2725 H   0  0  0  0  0  0  0  0  0  0  0  0
   33.8493   27.2965   46.6617 H   0  0  0  0  0  0  0  0  0  0  0  0
   31.8478   26.9031   49.6187 H   0  0  0  0  0  0  0  0  0  0  0  0
   29.4479   27.4314   49.8041 H   0  0  0  0  0  0  0  0  0  0  0  0
   28.6805   30.2641   46.4148 H   0  0  0  0  0  0  0  0  0  0  0  0
   30.1544   30.4378   45.4699 H   0  0  0  0  0  0  0  0  0  0  0  0
   30.3839   30.8765   42.5497 H   0  0  0  0  0  0  0  0  0  0  0  0
   29.0864   30.8506   43.0284 S   0  0  0  0  0  0  0  0  0  0  0  0
   28.7980   31.9239   44.0111 O   0  0  0  0  0  0  0  0  0  0  0  0
   28.2370   31.1801   41.8019 O   0  0  0  0  0  0  0  0  0  0  0  0
   28.6107   29.2613   43.5328 C   0  0  0  0  0  0  0  0  0  0  0  0
   28.8228   28.8371   44.8236 C   0  0  0  0  0  0  0  0  0  0  0  0
   28.4094   27.5417   45.1590 C   0  0  0  0  0  0  0  0  0  0  0  0
   28.5687   27.1935   46.1692 H   0  0  0  0  0  0  0  0  0  0  0  0
   27.8062   26.6800   44.2666 C   0  0  0  0  0  0  0  0  0  0  0  0
   27.5044   25.6813   44.5832 H   0  0  0  0  0  0  0  0  0  0  0  0
   27.5866   27.0895   42.9699 C   0  0  0  0  0  0  0  0  0  0  0  0
   27.9970   28.3691   42.6457 C   0  0  0  0  0  0  0  0  0  0  0  0
   27.1195   26.4665   42.2193 H   0  0  0  0  0  0  0  0  0  0  0  0
   27.8388   28.7332   41.6196 H   0  0  0  0  0  0  0  0  0  0  0  0
  2  1  2  0
  3  2  1  0
  4  3  2  0
  4  5  1  0
  5  6  2  0
  6  1  1  0
  8  9  2  0
  8  7  1  0
  9  3  1  0
 10  9  1  0
 11 10  2  0
 12 11  1  0
 12 13  2  0
 13  8  1  0
 14  5  1  0
 15 14  1  0
 16 17  1  0
 16 15  1  0
 17 18  2  0
 18 19  1  0
 20 19  2  0
 21 20  1  0
 22 21  2  0
 22 17  1  0
 23 21  1  0
  1 24  1  0
  2 25  1  0
 10 26  1  0
 11 27  1  0
 12 28  1  0
 13 29  1  0
 15 30  1  0
 15 31  1  0
 16 32  1  0
 16 33  1  0
 18 34  1  0
 19 35  1  0
 23 36  1  0
 23 37  1  0
 38 39  1  0
 39 40  2  0
 39 41  2  0
 39 42  1  0
 42 43  2  0
 43 44  1  0
 44 45  1  0
 44 46  2  0
 46 47  1  0
 46 48  1  0
 48 49  2  0
 49 42  1  0
 48 50  1  0
 49 51  1  0
 23 43  1  0
M  ISO  8  24  14  25  14  26  14  27  14  28  14  29  14  30   8  31   8
M  ISO  8  32   8  33   8  34  14  35  14  36   8  37   8  38  12  45  15
M  ISO  1  47  16
M  END
>  <DihAtoms>  (1) 
20,22,42,41

>  <DihDeg>  (1) 
-76.74041697490634

$$$$
