
     RDKit          3D

 35 37  0  0  0  0  0  0  0  0999 V2000
   36.1028   30.4576   49.9727 C   0  0  0  0  0  0  0  0  0  0  0  0
   38.2387   33.3920   49.1714 C   0  0  0  0  0  0  0  0  0  0  0  0
   39.0085   32.9278   48.0988 C   0  0  0  0  0  0  0  0  0  0  0  0
   38.7826   31.6161   47.6680 C   0  0  0  0  0  0  0  0  0  0  0  0
   37.8471   30.8729   48.2982 N   0  0  0  0  0  0  0  0  0  0  0  0
   37.1288   31.3709   49.3322 C   0  0  0  0  0  0  0  0  0  0  0  0
   37.3120   32.6137   49.7739 N   0  0  0  0  0  0  0  0  0  0  0  0
   36.1284   29.1176   49.3023 C   0  0  0  0  0  0  0  0  0  0  0  0
   34.8142   28.8237   48.6338 C   0  0  0  0  0  0  0  0  0  0  0  0
   34.5858   29.3996   47.3284 C   0  0  0  0  0  0  0  0  0  0  0  0
   32.9509   28.7940   46.9630 S   0  0  0  0  0  0  0  0  0  0  0  0
   32.8025   27.8662   48.5875 C   0  0  0  0  0  0  0  0  0  0  0  0
   33.8477   28.0958   49.1200 N   0  0  0  0  0  0  0  0  0  0  0  0
   36.4393   30.3875   51.0406 H   0  0  0  0  0  0  0  0  0  0  0  0
   35.1212   30.9360   49.9955 H   0  0  0  0  0  0  0  0  0  0  0  0
   38.4295   34.4128   49.4903 H   0  0  0  0  0  0  0  0  0  0  0  0
   39.7457   33.5721   47.6324 H   0  0  0  0  0  0  0  0  0  0  0  0
   39.3697   31.2555   46.8468 H   0  0  0  0  0  0  0  0  0  0  0  0
   36.3416   28.3521   50.0753 H   0  0  0  0  0  0  0  0  0  0  0  0
   36.9306   29.0025   48.5441 H   0  0  0  0  0  0  0  0  0  0  0  0
   35.2423   30.0174   46.7637 H   0  0  0  0  0  0  0  0  0  0  0  0
   31.3004   30.1447   49.6061 H   0  0  0  0  0  0  0  0  0  0  0  0
   31.1737   29.2091   50.5995 S   0  0  0  0  0  0  0  0  0  0  0  0
   32.3758   29.1229   51.4785 O   0  0  0  0  0  0  0  0  0  0  0  0
   30.0328   29.6549   51.4956 O   0  0  0  0  0  0  0  0  0  0  0  0
   30.7879   27.6422   49.9281 C   0  0  0  0  0  0  0  0  0  0  0  0
   31.6199   27.0836   48.9779 C   0  0  0  0  0  0  0  0  0  0  0  0
   31.3852   25.8529   48.4005 C   0  0  0  0  0  0  0  0  0  0  0  0
   32.0549   25.4393   47.6576 H   0  0  0  0  0  0  0  0  0  0  0  0
   30.2859   25.1141   48.7564 C   0  0  0  0  0  0  0  0  0  0  0  0
   30.0176   24.1435   48.3619 H   0  0  0  0  0  0  0  0  0  0  0  0
   29.4427   25.6609   49.7076 C   0  0  0  0  0  0  0  0  0  0  0  0
   29.6951   26.8938   50.2735 C   0  0  0  0  0  0  0  0  0  0  0  0
   28.5433   25.1388   50.0491 H   0  0  0  0  0  0  0  0  0  0  0  0
   29.0437   27.3560   51.0325 H   0  0  0  0  0  0  0  0  0  0  0  0
  2  7  2  0
  3  2  1  0
  4  3  2  0
  4  5  1  0
  5  6  2  0
  6  7  1  0
  6  1  1  0
  8  1  1  0
  9 13  1  0
  9  8  1  0
 10  9  2  0
 11 10  1  0
 11 12  1  0
 12 13  2  0
  1 14  1  0
  1 15  1  0
  2 16  1  0
  3 17  1  0
  4 18  1  0
  8 19  1  0
  8 20  1  0
 10 21  1  0
 22 23  1  0
 23 24  2  0
 23 25  2  0
 23 26  1  0
 26 27  2  0
 27 28  1  0
 28 29  1  0
 28 30  2  0
 30 31  1  0
 30 32  1  0
 32 33  2  0
 33 26  1  0
 32 34  1  0
 33 35  1  0
 12 27  1  0
M  ISO  8  14   8  15   8  16  14  17  14  18  14  19   8  20   8  21  14
M  ISO  3  22  12  29  15  31  16
M  END
>  <DihAtoms>  (1) 
10,11,26,25

>  <DihDeg>  (1) 
179.99835050109877

$$$$
