
 OpenBabel03272504563D

 36 38  0  0  1  0  0  0  0  0999 V2000
   37.0140   31.5180   48.6950 C   0  0  1  0  0  0  0  0  0  0  0  0
   36.1780   30.9570   47.6540 C   0  0  0  0  0  0  0  0  0  0  0  0
   37.1590   30.1040   48.3510 C   0  0  2  0  0  0  0  0  0  0  0  0
   36.6410   31.6880   49.7620 H   0  0  0  0  0  0  0  0  0  0  0  0
   36.4570   31.2360   46.6090 H   0  0  0  0  0  0  0  0  0  0  0  0
   35.1850   31.2870   47.8350 H   0  0  0  0  0  0  0  0  0  0  0  0
   37.8510   29.6550   47.6600 H   0  0  0  0  0  0  0  0  0  0  0  0
   38.1560   32.4240   48.3420 C   0  0  0  0  0  0  0  0  0  0  0  0
   38.5170   33.3710   49.3290 C   0  0  0  0  0  0  0  0  0  0  0  0
   39.5740   34.1830   48.9770 C   0  0  0  0  0  0  0  0  0  0  0  0
   40.1860   34.0400   47.7600 N   0  0  0  0  0  0  0  0  0  0  0  0
   39.8030   33.1210   46.8560 C   0  0  0  0  0  0  0  0  0  0  0  0
   38.7570   32.2930   47.1620 N   0  0  0  0  0  0  0  0  0  0  0  0
   40.4300   32.9530   45.6170 N   0  0  0  0  0  0  0  0  0  0  0  0
   38.0260   33.4720   50.2840 H   0  0  0  0  0  0  0  0  0  0  0  0
   39.9240   34.9460   49.6790 H   0  0  0  0  0  0  0  0  0  0  0  0
   40.9140   33.8150   45.2350 H   0  0  0  0  0  0  0  0  0  0  0  0
   40.4030   32.0300   45.1280 H   0  0  0  0  0  0  0  0  0  0  0  0
   36.6530   29.1870   49.2710 O   0  0  0  0  0  0  0  0  0  0  0  0
   34.6160   27.7320   49.7950 O   0  0  0  0  0  0  0  0  0  0  0  0
   34.9790   29.0040   49.0400 P   0  0  1  0  0  0  0  0  0  0  0  0
   34.1990   30.2320   49.8930 O   0  0  0  0  0  0  0  0  0  0  0  0
   34.5280   31.1190   49.8420 H   0  0  0  0  0  0  0  0  0  0  0  0
   34.6630   28.9500   47.4400 O   0  0  0  0  0  0  0  0  0  0  0  0
   33.1370   27.7350   45.8710 C   0  0  0  0  0  0  0  0  0  0  0  0
   33.7110   28.7730   46.5560 C   0  0  0  0  0  0  0  0  0  0  0  0
   33.1600   30.0390   46.2690 C   0  0  0  0  0  0  0  0  0  0  0  0
   33.4150   31.0220   46.6580 H   0  0  0  0  0  0  0  0  0  0  0  0
   32.1090   30.2050   45.3520 C   0  0  0  0  0  0  0  0  0  0  0  0
   31.6250   31.1180   45.0660 H   0  0  0  0  0  0  0  0  0  0  0  0
   31.6170   29.0710   44.7260 C   0  0  0  0  0  3  0  0  0  0  0  0
   32.1110   27.8080   44.9620 C   0  0  0  0  0  3  0  0  0  0  0  0
   34.6520   26.1670   47.2960 H   0  0  0  0  0  0  0  0  0  0  0  0
   33.8260   26.1990   46.2390 S   0  0  0  0  0  0  0  0  0  0  0  0
   32.7280   25.1770   46.5470 O   0  0  0  0  0  0  0  0  0  0  0  0
   34.4640   25.6840   44.9580 O   0  0  0  0  0  0  0  0  0  0  0  0
  1  4  1  1  0  0  0
  2  6  1  0  0  0  0
  2  3  1  0  0  0  0
  2  1  1  0  0  0  0
  3  7  1  6  0  0  0
  3  1  1  0  0  0  0
  3 19  1  0  0  0  0
  5  2  1  0  0  0  0
  8  1  1  0  0  0  0
  8  9  1  0  0  0  0
  9 15  1  0  0  0  0
 10  9  2  0  0  0  0
 10 16  1  0  0  0  0
 11 10  1  0  0  0  0
 12 13  1  0  0  0  0
 12 11  2  0  0  0  0
 13  8  2  0  0  0  0
 14 12  1  0  0  0  0
 17 14  1  0  0  0  0
 18 14  1  0  0  0  0
 21 19  1  0  0  0  0
 21 20  2  1  0  0  0
 21 22  1  0  0  0  0
 23 22  1  0  0  0  0
 24 21  1  0  0  0  0
 25 34  1  0  0  0  0
 25 26  1  0  0  0  0
 26 24  1  0  0  0  0
 27 26  2  0  0  0  0
 27 28  1  0  0  0  0
 29 27  1  0  0  0  0
 30 29  1  0  0  0  0
 31 32  1  0  0  0  0
 31 29  2  0  0  0  0
 32 25  2  0  0  0  0
 34 35  2  0  0  0  0
 34 33  1  0  0  0  0
 36 34  2  0  0  0  0
M  END
>  <minimizedAffinity>
-4.56065464

>  <minimizedRMSD>
1.16402197

$$$$
