
     RDKit          3D

 46 50  0  0  0  0  0  0  0  0999 V2000
   38.5452   31.2800   47.6987 C   0  0  0  0  0  0  0  0  0  0  0  0
   38.9939   32.5805   47.6747 C   0  0  0  0  0  0  0  0  0  0  0  0
   39.6512   33.1335   46.5977 C   0  0  0  0  0  0  0  0  0  0  0  0
   39.8841   32.3778   45.4828 C   0  0  0  0  0  0  0  0  0  0  0  0
   39.4232   31.0829   45.5389 C   0  0  0  0  0  0  0  0  0  0  0  0
   38.7897   30.5522   46.5788 N   0  0  0  0  0  0  0  0  0  0  0  0
   38.8468   29.1375   44.0509 C   0  0  0  0  0  0  0  0  0  0  0  0
   39.6404   30.2259   44.3820 C   0  0  0  0  0  0  0  0  0  0  0  0
   40.6766   30.4174   43.4861 C   0  0  0  0  0  0  0  0  0  0  0  0
   40.9358   29.6470   42.3778 C   0  0  0  0  0  0  0  0  0  0  0  0
   41.8788   29.6925   41.4234 N   0  0  0  0  0  0  0  0  0  0  0  0
   41.6565   28.6838   40.5702 C   0  0  0  0  0  0  0  0  0  0  0  0
   40.5571   27.9671   40.9661 C   0  0  0  0  0  0  0  0  0  0  0  0
   40.1085   28.5920   42.1186 C   0  0  0  0  0  0  0  0  0  0  0  0
   39.0576   28.3342   42.9586 C   0  0  0  0  0  0  0  0  0  0  0  0
   37.3929   30.3780   51.1662 C   0  0  0  0  0  0  0  0  0  0  0  0
   38.1421   31.0063   50.1667 C   0  0  0  0  0  0  0  0  0  0  0  0
   37.8550   30.7085   48.8367 C   0  0  0  0  0  0  0  0  0  0  0  0
   36.8589   29.8212   48.6045 N   0  0  0  0  0  0  0  0  0  0  0  0
   36.1452   29.2238   49.5865 C   0  0  0  0  0  0  0  0  0  0  0  0
   36.4233   29.5118   50.8630 N   0  0  0  0  0  0  0  0  0  0  0  0
   38.7874   33.1478   48.5841 H   0  0  0  0  0  0  0  0  0  0  0  0
   39.9544   34.1676   46.7010 H   0  0  0  0  0  0  0  0  0  0  0  0
   40.4024   32.8237   44.6412 H   0  0  0  0  0  0  0  0  0  0  0  0
   37.9970   28.9094   44.7089 H   0  0  0  0  0  0  0  0  0  0  0  0
   41.3608   31.2536   43.6612 H   0  0  0  0  0  0  0  0  0  0  0  0
   42.6574   30.4083   41.3679 H   0  0  0  0  0  0  0  0  0  0  0  0
   42.2611   28.4680   39.6936 H   0  0  0  0  0  0  0  0  0  0  0  0
   40.1305   27.0945   40.4775 H   0  0  0  0  0  0  0  0  0  0  0  0
   38.4089   27.4959   42.7435 H   0  0  0  0  0  0  0  0  0  0  0  0
   37.6685   30.6552   52.1834 H   0  0  0  0  0  0  0  0  0  0  0  0
   38.9483   31.7246   50.3606 H   0  0  0  0  0  0  0  0  0  0  0  0
   33.6515   31.1201   49.6322 H   0  0  0  0  0  0  0  0  0  0  0  0
   33.5619   30.4062   48.4697 S   0  0  0  0  0  0  0  0  0  0  0  0
   32.1322   30.5625   47.9809 O   0  0  0  0  0  0  0  0  0  0  0  0
   34.4173   30.9687   47.3660 O   0  0  0  0  0  0  0  0  0  0  0  0
   33.8972   28.7071   48.6807 C   0  0  0  0  0  0  0  0  0  0  0  0
   35.0972   28.2854   49.1941 C   0  0  0  0  0  0  0  0  0  0  0  0
   35.3460   26.9379   49.3545 C   0  0  0  0  0  0  0  0  0  0  0  0
   36.2609   26.5192   49.7500 H   0  0  0  0  0  0  0  0  0  0  0  0
   34.4039   25.9848   49.0064 C   0  0  0  0  0  0  0  0  0  0  0  0
   34.5377   24.9061   49.1078 H   0  0  0  0  0  0  0  0  0  0  0  0
   33.1849   26.3738   48.4866 C   0  0  0  0  0  0  0  0  0  0  0  0
   32.9693   27.7189   48.3401 C   0  0  0  0  0  0  0  0  0  0  0  0
   32.4269   25.6660   48.2040 H   0  0  0  0  0  0  0  0  0  0  0  0
   32.0157   28.0438   47.9326 H   0  0  0  0  0  0  0  0  0  0  0  0
  1 18  1  0
  2  1  2  0
  3  2  1  0
  4  5  1  0
  4  3  2  0
  5  6  2  0
  6  1  1  0
  7  8  2  0
  8  5  1  0
  9  8  1  0
 10  9  2  0
 11 10  1  0
 12 13  2  0
 12 11  1  0
 13 14  1  0
 14 10  1  0
 14 15  2  0
 15  7  1  0
 17 16  2  0
 18 17  1  0
 19 18  2  0
 19 20  1  0
 20 21  2  0
 21 16  1  0
  2 22  1  0
  3 23  1  0
  4 24  1  0
  7 25  1  0
  9 26  1  0
 11 27  1  0
 12 28  1  0
 13 29  1  0
 15 30  1  0
 16 31  1  0
 17 32  1  0
 33 34  1  0
 34 35  2  0
 34 36  2  0
 34 37  1  0
 37 38  2  0
 38 39  1  0
 39 40  1  0
 39 41  2  0
 41 42  1  0
 41 43  1  0
 43 44  2  0
 44 37  1  0
 43 45  1  0
 44 46  1  0
 20 38  1  0
M  ISO  8  22  14  23  14  24  14  25  14  26  14  27   9  28  14  29  14
M  ISO  6  30  14  31  14  32  14  33  12  40  15  42  16
M  END
>  <DihAtoms>  (1) 
18,19,37,36

>  <DihDeg>  (1) 
179.99939207724046

$$$$
