
 OpenBabel03262523303D

 34 37  0  0  0  0  0  0  0  0999 V2000
   36.5110   29.0740   31.7740 C   0  0  0  0  0  0  0  0  0  0  0  0
   37.0110   27.8460   32.2220 C   0  0  0  0  0  0  0  0  0  0  0  0
   36.8650   27.5000   33.5520 C   0  0  0  0  0  0  0  0  0  0  0  0
   36.2320   28.3860   34.3760 N   0  0  0  0  0  0  0  0  0  0  0  0
   35.7560   29.5710   33.9250 C   0  0  0  0  0  0  0  0  0  0  0  0
   35.8950   29.9040   32.6460 N   0  0  0  0  0  0  0  0  0  0  0  0
   36.6020   29.3800   30.7520 H   0  0  0  0  0  0  0  0  0  0  0  0
   37.5040   27.1680   31.5540 H   0  0  0  0  0  0  0  0  0  0  0  0
   37.6130   25.2270   33.2460 C   0  0  0  0  0  0  0  0  0  0  0  0
   37.3450   26.2570   34.1220 C   0  0  0  0  0  0  0  0  0  0  0  0
   37.5360   26.0820   35.4840 C   0  0  0  0  0  0  0  0  0  0  0  0
   38.0010   24.8390   35.9040 C   0  0  0  0  0  0  0  0  0  0  0  0
   38.2590   24.4480   37.1920 N   0  0  0  0  0  0  0  0  0  0  0  0
   38.6850   23.1830   37.1160 C   0  0  0  0  0  0  0  0  0  0  0  0
   38.7050   22.7690   35.8460 N   0  0  0  0  0  0  0  0  0  0  0  0
   38.2820   23.7820   35.0580 C   0  0  0  0  0  0  0  0  0  0  0  0
   38.0800   23.9920   33.7050 C   0  0  0  0  0  0  0  0  0  0  0  0
   37.5030   25.2410   32.1620 H   0  0  0  0  0  0  0  0  0  0  0  0
   37.3320   26.8690   36.1660 H   0  0  0  0  0  0  0  0  0  0  0  0
   38.1350   25.0510   38.0520 H   0  0  0  0  0  0  0  0  0  0  0  0
   38.9550   22.6530   38.0400 H   0  0  0  0  0  0  0  0  0  0  0  0
   38.3010   23.1630   33.0650 H   0  0  0  0  0  0  0  0  0  0  0  0
   33.7290   30.4890   34.9960 C   0  0  0  0  0  0  0  0  0  0  0  0
   35.1010   30.4470   34.8630 C   0  0  0  0  0  0  0  0  0  0  0  0
   35.8470   31.2920   35.6790 C   0  0  0  0  0  0  0  0  0  0  0  0
   36.9320   31.3310   35.6470 H   0  0  0  0  0  0  0  0  0  0  0  0
   35.2570   32.1530   36.5970 C   0  0  0  0  0  0  0  0  0  0  0  0
   35.8260   32.8140   37.2360 H   0  0  0  0  0  0  0  0  0  0  0  0
   33.8860   32.1960   36.7320 C   0  0  0  0  0  3  0  0  0  0  0  0
   33.1740   31.3460   35.9090 C   0  0  0  0  0  3  0  0  0  0  0  0
   33.2040   28.1730   33.9170 H   0  0  0  0  0  0  0  0  0  0  0  0
   32.7210   29.4570   34.0060 S   0  0  0  0  0  0  0  0  0  0  0  0
   31.3700   29.3090   34.6870 O   0  0  0  0  0  0  0  0  0  0  0  0
   32.4200   30.0620   32.6650 O   0  0  0  0  0  0  0  0  0  0  0  0
  1  2  2  0  0  0  0
  1  6  1  0  0  0  0
  2  3  1  0  0  0  0
  3 10  1  0  0  0  0
  3  4  2  0  0  0  0
  5  4  1  0  0  0  0
  5 24  1  0  0  0  0
  6  5  2  0  0  0  0
  7  1  1  0  0  0  0
  8  2  1  0  0  0  0
  9 17  2  0  0  0  0
  9 10  1  0  0  0  0
 10 11  2  0  0  0  0
 11 12  1  0  0  0  0
 11 19  1  0  0  0  0
 12 13  1  0  0  0  0
 13 20  1  0  0  0  0
 14 13  1  0  0  0  0
 14 21  1  0  0  0  0
 15 14  2  0  0  0  0
 16 15  1  0  0  0  0
 16 12  2  0  0  0  0
 17 16  1  0  0  0  0
 18  9  1  0  0  0  0
 22 17  1  0  0  0  0
 23 30  1  0  0  0  0
 24 23  2  0  0  0  0
 24 25  1  0  0  0  0
 25 27  2  0  0  0  0
 26 25  1  0  0  0  0
 27 29  1  0  0  0  0
 27 28  1  0  0  0  0
 30 29  2  0  0  0  0
 31 32  1  0  0  0  0
 32 33  2  0  0  0  0
 32 23  1  0  0  0  0
 34 32  2  0  0  0  0
M  END
>  <minimizedAffinity>
-6.25403786

$$$$

 OpenBabel03262523303D

 34 37  0  0  0  0  0  0  0  0999 V2000
   36.9800   21.8580   32.7230 C   0  0  0  0  0  0  0  0  0  0  0  0
   36.7160   23.1650   32.2950 C   0  0  0  0  0  0  0  0  0  0  0  0
   37.4170   24.2150   32.8550 C   0  0  0  0  0  0  0  0  0  0  0  0
   38.3460   23.9240   33.8120 N   0  0  0  0  0  0  0  0  0  0  0  0
   38.5880   22.6540   34.2150 C   0  0  0  0  0  0  0  0  0  0  0  0
   37.9140   21.6430   33.6760 N   0  0  0  0  0  0  0  0  0  0  0  0
   36.4600   21.0160   32.3150 H   0  0  0  0  0  0  0  0  0  0  0  0
   35.9810   23.3660   31.5410 H   0  0  0  0  0  0  0  0  0  0  0  0
   37.1490   26.5210   33.5140 C   0  0  0  0  0  0  0  0  0  0  0  0
   37.2240   25.6040   32.4880 C   0  0  0  0  0  0  0  0  0  0  0  0
   37.1170   26.0220   31.1700 C   0  0  0  0  0  0  0  0  0  0  0  0
   36.9330   27.3840   30.9510 C   0  0  0  0  0  0  0  0  0  0  0  0
   36.8030   28.0140   29.7400 N   0  0  0  0  0  0  0  0  0  0  0  0
   36.6480   29.3130   30.0130 C   0  0  0  0  0  0  0  0  0  0  0  0
   36.6760   29.5230   31.3330 N   0  0  0  0  0  0  0  0  0  0  0  0
   36.8530   28.3340   31.9520 C   0  0  0  0  0  0  0  0  0  0  0  0
   36.9650   27.8820   33.2550 C   0  0  0  0  0  0  0  0  0  0  0  0
   37.2180   26.3180   34.5830 H   0  0  0  0  0  0  0  0  0  0  0  0
   37.1730   25.3240   30.3730 H   0  0  0  0  0  0  0  0  0  0  0  0
   36.8250   27.5370   28.7960 H   0  0  0  0  0  0  0  0  0  0  0  0
   36.5240   30.0230   29.1840 H   0  0  0  0  0  0  0  0  0  0  0  0
   36.9000   28.6310   34.0170 H   0  0  0  0  0  0  0  0  0  0  0  0
   39.3580   22.7230   36.5600 C   0  0  0  0  0  0  0  0  0  0  0  0
   39.5860   22.4360   35.2310 C   0  0  0  0  0  0  0  0  0  0  0  0
   40.8340   21.9200   34.8960 C   0  0  0  0  0  0  0  0  0  0  0  0
   41.1070   21.6630   33.8750 H   0  0  0  0  0  0  0  0  0  0  0  0
   41.8260   21.6930   35.8430 C   0  0  0  0  0  0  0  0  0  0  0  0
   42.7980   21.2920   35.5930 H   0  0  0  0  0  0  0  0  0  0  0  0
   41.5990   21.9790   37.1720 C   0  0  0  0  0  3  0  0  0  0  0  0
   40.3520   22.4900   37.4730 C   0  0  0  0  0  3  0  0  0  0  0  0
   36.7540   22.7850   36.4180 H   0  0  0  0  0  0  0  0  0  0  0  0
   37.8150   23.3760   37.0630 S   0  0  0  0  0  0  0  0  0  0  0  0
   37.6040   23.0370   38.5300 O   0  0  0  0  0  0  0  0  0  0  0  0
   37.7750   24.8750   36.9980 O   0  0  0  0  0  0  0  0  0  0  0  0
  1  6  1  0  0  0  0
  2  1  2  0  0  0  0
  2  3  1  0  0  0  0
  3  4  2  0  0  0  0
  4  5  1  0  0  0  0
  5 24  1  0  0  0  0
  6  5  2  0  0  0  0
  7  1  1  0  0  0  0
  8  2  1  0  0  0  0
  9 18  1  0  0  0  0
 10  3  1  0  0  0  0
 10  9  2  0  0  0  0
 11 10  1  0  0  0  0
 12 11  2  0  0  0  0
 12 16  1  0  0  0  0
 13 14  1  0  0  0  0
 13 12  1  0  0  0  0
 14 15  2  0  0  0  0
 15 16  1  0  0  0  0
 16 17  2  0  0  0  0
 17  9  1  0  0  0  0
 17 22  1  0  0  0  0
 19 11  1  0  0  0  0
 20 13  1  0  0  0  0
 21 14  1  0  0  0  0
 23 32  1  0  0  0  0
 23 30  1  0  0  0  0
 24 23  2  0  0  0  0
 25 24  1  0  0  0  0
 25 27  2  0  0  0  0
 26 25  1  0  0  0  0
 27 29  1  0  0  0  0
 28 27  1  0  0  0  0
 29 30  2  0  0  0  0
 31 32  1  0  0  0  0
 32 33  2  0  0  0  0
 34 32  2  0  0  0  0
M  END
>  <minimizedAffinity>
-5.94164896

$$$$

 OpenBabel03262523303D

 34 37  0  0  0  0  0  0  0  0999 V2000
   38.6020   23.5070   38.3970 C   0  0  0  0  0  0  0  0  0  0  0  0
   37.9810   24.3060   37.4300 C   0  0  0  0  0  0  0  0  0  0  0  0
   38.5760   24.4540   36.1910 C   0  0  0  0  0  0  0  0  0  0  0  0
   39.7560   23.8050   35.9680 N   0  0  0  0  0  0  0  0  0  0  0  0
   40.3420   23.0370   36.9170 C   0  0  0  0  0  0  0  0  0  0  0  0
   39.7710   22.8930   38.1080 N   0  0  0  0  0  0  0  0  0  0  0  0
   38.1750   23.3660   39.3690 H   0  0  0  0  0  0  0  0  0  0  0  0
   37.0540   24.8050   37.6310 H   0  0  0  0  0  0  0  0  0  0  0  0
   37.6810   26.5590   35.4200 C   0  0  0  0  0  0  0  0  0  0  0  0
   38.0210   25.2570   35.1190 C   0  0  0  0  0  0  0  0  0  0  0  0
   37.8320   24.7640   33.8370 C   0  0  0  0  0  0  0  0  0  0  0  0
   37.2910   25.6380   32.8970 C   0  0  0  0  0  0  0  0  0  0  0  0
   37.0200   25.3670   31.5810 N   0  0  0  0  0  0  0  0  0  0  0  0
   36.5150   26.4930   31.0680 C   0  0  0  0  0  0  0  0  0  0  0  0
   36.4580   27.4500   31.9990 N   0  0  0  0  0  0  0  0  0  0  0  0
   36.9380   26.9490   33.1590 C   0  0  0  0  0  0  0  0  0  0  0  0
   37.1410   27.4060   34.4490 C   0  0  0  0  0  0  0  0  0  0  0  0
   37.7820   27.0580   36.3830 H   0  0  0  0  0  0  0  0  0  0  0  0
   38.0910   23.7640   33.5950 H   0  0  0  0  0  0  0  0  0  0  0  0
   37.1890   24.4410   31.0990 H   0  0  0  0  0  0  0  0  0  0  0  0
   36.2200   26.5140   30.0100 H   0  0  0  0  0  0  0  0  0  0  0  0
   36.8610   28.4230   34.6340 H   0  0  0  0  0  0  0  0  0  0  0  0
   42.5730   23.0070   35.8580 C   0  0  0  0  0  0  0  0  0  0  0  0
   41.5880   22.3870   36.5970 C   0  0  0  0  0  0  0  0  0  0  0  0
   41.8400   21.0900   37.0320 C   0  0  0  0  0  0  0  0  0  0  0  0
   41.1250   20.5200   37.6200 H   0  0  0  0  0  0  0  0  0  0  0  0
   43.0270   20.4250   36.7480 C   0  0  0  0  0  0  0  0  0  0  0  0
   43.2330   19.4170   37.0810 H   0  0  0  0  0  0  0  0  0  0  0  0
   44.0120   21.0440   36.0090 C   0  0  0  0  0  3  0  0  0  0  0  0
   43.7340   22.3300   35.5910 C   0  0  0  0  0  3  0  0  0  0  0  0
   41.2870   25.2760   35.8960 H   0  0  0  0  0  0  0  0  0  0  0  0
   42.3330   24.6380   35.2720 S   0  0  0  0  0  0  0  0  0  0  0  0
   43.5550   25.4650   35.6380 O   0  0  0  0  0  0  0  0  0  0  0  0
   42.2480   24.7060   33.7750 O   0  0  0  0  0  0  0  0  0  0  0  0
  1  7  1  0  0  0  0
  2  8  1  0  0  0  0
  2  1  2  0  0  0  0
  3  2  1  0  0  0  0
  4  3  2  0  0  0  0
  4  5  1  0  0  0  0
  5  6  2  0  0  0  0
  6  1  1  0  0  0  0
  9 18  1  0  0  0  0
 10  9  1  0  0  0  0
 10  3  1  0  0  0  0
 11 10  2  0  0  0  0
 12 16  2  0  0  0  0
 12 11  1  0  0  0  0
 13 12  1  0  0  0  0
 14 13  1  0  0  0  0
 14 15  2  0  0  0  0
 15 16  1  0  0  0  0
 16 17  1  0  0  0  0
 17 22  1  0  0  0  0
 17  9  2  0  0  0  0
 19 11  1  0  0  0  0
 20 13  1  0  0  0  0
 21 14  1  0  0  0  0
 23 24  1  0  0  0  0
 24  5  1  0  0  0  0
 24 25  2  0  0  0  0
 25 26  1  0  0  0  0
 27 25  1  0  0  0  0
 27 28  1  0  0  0  0
 29 27  2  0  0  0  0
 30 23  2  0  0  0  0
 30 29  1  0  0  0  0
 32 33  2  0  0  0  0
 32 23  1  0  0  0  0
 32 31  1  0  0  0  0
 34 32  2  0  0  0  0
M  END
>  <minimizedAffinity>
-5.86747694

$$$$

 OpenBabel03262523303D

 34 37  0  0  0  0  0  0  0  0999 V2000
   36.2710   30.0600   30.7960 C   0  0  0  0  0  0  0  0  0  0  0  0
   36.4300   28.6710   30.7300 C   0  0  0  0  0  0  0  0  0  0  0  0
   36.1080   27.9000   31.8310 C   0  0  0  0  0  0  0  0  0  0  0  0
   35.6450   28.5400   32.9450 N   0  0  0  0  0  0  0  0  0  0  0  0
   35.4990   29.8850   32.9910 C   0  0  0  0  0  0  0  0  0  0  0  0
   35.8070   30.6280   31.9320 N   0  0  0  0  0  0  0  0  0  0  0  0
   36.5090   30.6940   29.9670 H   0  0  0  0  0  0  0  0  0  0  0  0
   36.7970   28.1940   29.8430 H   0  0  0  0  0  0  0  0  0  0  0  0
   35.3840   25.7280   31.0690 C   0  0  0  0  0  0  0  0  0  0  0  0
   36.2350   26.4570   31.8720 C   0  0  0  0  0  0  0  0  0  0  0  0
   37.1630   25.8100   32.6740 C   0  0  0  0  0  0  0  0  0  0  0  0
   37.1830   24.4190   32.6210 C   0  0  0  0  0  0  0  0  0  0  0  0
   38.0110   23.5800   33.3230 N   0  0  0  0  0  0  0  0  0  0  0  0
   37.6750   22.3380   32.9570 C   0  0  0  0  0  0  0  0  0  0  0  0
   36.6810   22.3640   32.0640 N   0  0  0  0  0  0  0  0  0  0  0  0
   36.3470   23.6520   31.8300 C   0  0  0  0  0  0  0  0  0  0  0  0
   35.4340   24.3320   31.0430 C   0  0  0  0  0  0  0  0  0  0  0  0
   34.6170   26.1190   30.4000 H   0  0  0  0  0  0  0  0  0  0  0  0
   37.8230   26.3610   33.2950 H   0  0  0  0  0  0  0  0  0  0  0  0
   38.7550   23.8860   34.0080 H   0  0  0  0  0  0  0  0  0  0  0  0
   38.2130   21.4870   33.3970 H   0  0  0  0  0  0  0  0  0  0  0  0
   34.7940   23.7230   30.4380 H   0  0  0  0  0  0  0  0  0  0  0  0
   33.6640   30.4690   34.5370 C   0  0  0  0  0  0  0  0  0  0  0  0
   35.0030   30.4780   34.2060 C   0  0  0  0  0  0  0  0  0  0  0  0
   35.8760   31.0900   35.1010 C   0  0  0  0  0  0  0  0  0  0  0  0
   36.9470   31.1480   34.9280 H   0  0  0  0  0  0  0  0  0  0  0  0
   35.4410   31.6740   36.2850 C   0  0  0  0  0  0  0  0  0  0  0  0
   36.1110   32.1520   36.9870 H   0  0  0  0  0  0  0  0  0  0  0  0
   34.1030   31.6660   36.6170 C   0  0  0  0  0  3  0  0  0  0  0  0
   33.2630   31.0520   35.7100 C   0  0  0  0  0  3  0  0  0  0  0  0
   32.9280   28.5020   32.9900 H   0  0  0  0  0  0  0  0  0  0  0  0
   32.5020   29.7210   33.4650 S   0  0  0  0  0  0  0  0  0  0  0  0
   31.2480   29.4010   34.2620 O   0  0  0  0  0  0  0  0  0  0  0  0
   32.0470   30.6450   32.3730 O   0  0  0  0  0  0  0  0  0  0  0  0
  1  6  1  0  0  0  0
  2  1  2  0  0  0  0
  2  3  1  0  0  0  0
  3 10  1  0  0  0  0
  3  4  2  0  0  0  0
  4  5  1  0  0  0  0
  5 24  1  0  0  0  0
  6  5  2  0  0  0  0
  7  1  1  0  0  0  0
  8  2  1  0  0  0  0
  9 10  1  0  0  0  0
 10 11  2  0  0  0  0
 11 19  1  0  0  0  0
 12 11  1  0  0  0  0
 12 13  1  0  0  0  0
 13 20  1  0  0  0  0
 14 13  1  0  0  0  0
 14 21  1  0  0  0  0
 15 14  2  0  0  0  0
 16 15  1  0  0  0  0
 16 12  2  0  0  0  0
 17  9  2  0  0  0  0
 17 16  1  0  0  0  0
 18  9  1  0  0  0  0
 22 17  1  0  0  0  0
 23 30  1  0  0  0  0
 24 23  2  0  0  0  0
 24 25  1  0  0  0  0
 25 27  2  0  0  0  0
 26 25  1  0  0  0  0
 27 29  1  0  0  0  0
 27 28  1  0  0  0  0
 30 29  2  0  0  0  0
 31 32  1  0  0  0  0
 32 33  2  0  0  0  0
 32 23  1  0  0  0  0
 34 32  2  0  0  0  0
M  END
>  <minimizedAffinity>
-5.81707621

$$$$

 OpenBabel03262523303D

 34 37  0  0  0  0  0  0  0  0999 V2000
   37.2460   21.9430   32.8290 C   0  0  0  0  0  0  0  0  0  0  0  0
   37.4040   23.0830   32.0320 C   0  0  0  0  0  0  0  0  0  0  0  0
   37.9120   24.2380   32.5970 C   0  0  0  0  0  0  0  0  0  0  0  0
   38.2380   24.2100   33.9220 N   0  0  0  0  0  0  0  0  0  0  0  0
   38.0780   23.0970   34.6780 C   0  0  0  0  0  0  0  0  0  0  0  0
   37.5900   21.9860   34.1350 N   0  0  0  0  0  0  0  0  0  0  0  0
   36.8570   21.0280   32.4320 H   0  0  0  0  0  0  0  0  0  0  0  0
   37.1390   23.0780   30.9940 H   0  0  0  0  0  0  0  0  0  0  0  0
   39.3600   26.0580   31.9560 C   0  0  0  0  0  0  0  0  0  0  0  0
   38.1150   25.4730   31.8660 C   0  0  0  0  0  0  0  0  0  0  0  0
   37.1210   26.0630   31.1020 C   0  0  0  0  0  0  0  0  0  0  0  0
   37.4440   27.2490   30.4480 C   0  0  0  0  0  0  0  0  0  0  0  0
   36.6230   27.9980   29.6460 N   0  0  0  0  0  0  0  0  0  0  0  0
   37.3540   29.0410   29.2400 C   0  0  0  0  0  0  0  0  0  0  0  0
   38.5880   28.9780   29.7500 N   0  0  0  0  0  0  0  0  0  0  0  0
   38.6800   27.8660   30.5130 C   0  0  0  0  0  0  0  0  0  0  0  0
   39.6480   27.2490   31.2850 C   0  0  0  0  0  0  0  0  0  0  0  0
   40.2180   25.6940   32.5210 H   0  0  0  0  0  0  0  0  0  0  0  0
   36.1590   25.6200   31.0260 H   0  0  0  0  0  0  0  0  0  0  0  0
   35.6170   27.7680   29.4140 H   0  0  0  0  0  0  0  0  0  0  0  0
   36.8970   29.7880   28.5770 H   0  0  0  0  0  0  0  0  0  0  0  0
   40.5980   27.7410   31.3250 H   0  0  0  0  0  0  0  0  0  0  0  0
   39.6870   22.7480   36.5180 C   0  0  0  0  0  0  0  0  0  0  0  0
   38.4490   23.1550   36.0690 C   0  0  0  0  0  0  0  0  0  0  0  0
   37.5510   23.6330   37.0190 C   0  0  0  0  0  0  0  0  0  0  0  0
   36.5530   23.9760   36.7620 H   0  0  0  0  0  0  0  0  0  0  0  0
   37.8670   23.7070   38.3710 C   0  0  0  0  0  0  0  0  0  0  0  0
   37.1780   24.0770   39.1180 H   0  0  0  0  0  0  0  0  0  0  0  0
   39.1050   23.3010   38.8210 C   0  0  0  0  0  3  0  0  0  0  0  0
   39.9720   22.8320   37.8550 C   0  0  0  0  0  3  0  0  0  0  0  0
   40.2950   21.5310   34.2920 H   0  0  0  0  0  0  0  0  0  0  0  0
   40.8710   22.1350   35.3860 S   0  0  0  0  0  0  0  0  0  0  0  0
   41.6410   23.3120   34.8090 O   0  0  0  0  0  0  0  0  0  0  0  0
   41.9090   21.2740   36.0470 O   0  0  0  0  0  0  0  0  0  0  0  0
  1  6  1  0  0  0  0
  2  3  1  0  0  0  0
  2  1  2  0  0  0  0
  3  4  2  0  0  0  0
  4  5  1  0  0  0  0
  5 24  1  0  0  0  0
  6  5  2  0  0  0  0
  7  1  1  0  0  0  0
  8  2  1  0  0  0  0
  9 18  1  0  0  0  0
 10  9  1  0  0  0  0
 10  3  1  0  0  0  0
 11 10  2  0  0  0  0
 12 16  2  0  0  0  0
 12 11  1  0  0  0  0
 13 12  1  0  0  0  0
 14 13  1  0  0  0  0
 14 15  2  0  0  0  0
 15 16  1  0  0  0  0
 16 17  1  0  0  0  0
 17 22  1  0  0  0  0
 17  9  2  0  0  0  0
 19 11  1  0  0  0  0
 20 13  1  0  0  0  0
 21 14  1  0  0  0  0
 23 30  1  0  0  0  0
 24 23  2  0  0  0  0
 24 25  1  0  0  0  0
 25 27  2  0  0  0  0
 26 25  1  0  0  0  0
 27 29  1  0  0  0  0
 27 28  1  0  0  0  0
 30 29  2  0  0  0  0
 31 32  1  0  0  0  0
 32 34  2  0  0  0  0
 32 23  1  0  0  0  0
 33 32  2  0  0  0  0
M  END
>  <minimizedAffinity>
-5.77299976

$$$$

 OpenBabel03262523303D

 34 37  0  0  0  0  0  0  0  0999 V2000
   37.0730   28.7380   31.3540 C   0  0  0  0  0  0  0  0  0  0  0  0
   36.2500   29.5390   32.1550 C   0  0  0  0  0  0  0  0  0  0  0  0
   35.9850   29.1500   33.4550 C   0  0  0  0  0  0  0  0  0  0  0  0
   36.5470   27.9880   33.9000 N   0  0  0  0  0  0  0  0  0  0  0  0
   37.3400   27.2260   33.1110 C   0  0  0  0  0  0  0  0  0  0  0  0
   37.5960   27.5990   31.8610 N   0  0  0  0  0  0  0  0  0  0  0  0
   37.3030   29.0020   30.3430 H   0  0  0  0  0  0  0  0  0  0  0  0
   35.8210   30.4470   31.7800 H   0  0  0  0  0  0  0  0  0  0  0  0
   33.7880   29.6940   34.2890 C   0  0  0  0  0  0  0  0  0  0  0  0
   35.1480   29.9010   34.3690 C   0  0  0  0  0  0  0  0  0  0  0  0
   35.6650   30.7950   35.2940 C   0  0  0  0  0  0  0  0  0  0  0  0
   34.7540   31.4530   36.1160 C   0  0  0  0  0  0  0  0  0  0  0  0
   35.0400   32.3720   37.0930 N   0  0  0  0  0  0  0  0  0  0  0  0
   33.8640   32.7320   37.6170 C   0  0  0  0  0  0  0  0  0  0  0  0
   32.8620   32.0840   37.0140 N   0  0  0  0  0  0  0  0  0  0  0  0
   33.3840   31.2740   36.0670 C   0  0  0  0  0  0  0  0  0  0  0  0
   32.9040   30.3740   35.1320 C   0  0  0  0  0  0  0  0  0  0  0  0
   33.2640   29.0230   33.6090 H   0  0  0  0  0  0  0  0  0  0  0  0
   36.7110   30.9610   35.3640 H   0  0  0  0  0  0  0  0  0  0  0  0
   36.0080   32.7060   37.3550 H   0  0  0  0  0  0  0  0  0  0  0  0
   33.8440   33.4710   38.4300 H   0  0  0  0  0  0  0  0  0  0  0  0
   31.8410   30.2480   35.1070 H   0  0  0  0  0  0  0  0  0  0  0  0
   37.5950   24.7700   33.1480 C   0  0  0  0  0  0  0  0  0  0  0  0
   37.8920   26.0140   33.6620 C   0  0  0  0  0  0  0  0  0  0  0  0
   38.7590   26.0640   34.7490 C   0  0  0  0  0  0  0  0  0  0  0  0
   39.0520   26.9970   35.2230 H   0  0  0  0  0  0  0  0  0  0  0  0
   39.3150   24.9210   35.3120 C   0  0  0  0  0  0  0  0  0  0  0  0
   39.9900   24.9480   36.1570 H   0  0  0  0  0  0  0  0  0  0  0  0
   39.0190   23.6760   34.7990 C   0  0  0  0  0  3  0  0  0  0  0  0
   38.1570   23.6590   33.7210 C   0  0  0  0  0  3  0  0  0  0  0  0
   35.8040   25.7750   31.5400 H   0  0  0  0  0  0  0  0  0  0  0  0
   36.5130   24.6220   31.7810 S   0  0  0  0  0  0  0  0  0  0  0  0
   37.3470   24.4190   30.5270 O   0  0  0  0  0  0  0  0  0  0  0  0
   35.6360   23.4060   31.8700 O   0  0  0  0  0  0  0  0  0  0  0  0
  1  6  2  0  0  0  0
  1  2  1  0  0  0  0
  2  3  2  0  0  0  0
  3  4  1  0  0  0  0
  3 10  1  0  0  0  0
  5 24  1  0  0  0  0
  5  4  2  0  0  0  0
  6  5  1  0  0  0  0
  7  1  1  0  0  0  0
  8  2  1  0  0  0  0
  9 10  2  0  0  0  0
  9 17  1  0  0  0  0
 10 11  1  0  0  0  0
 11 19  1  0  0  0  0
 11 12  2  0  0  0  0
 12 13  1  0  0  0  0
 13 20  1  0  0  0  0
 13 14  1  0  0  0  0
 14 21  1  0  0  0  0
 15 14  2  0  0  0  0
 16 12  1  0  0  0  0
 16 15  1  0  0  0  0
 17 16  2  0  0  0  0
 18  9  1  0  0  0  0
 22 17  1  0  0  0  0
 23 24  2  0  0  0  0
 23 30  1  0  0  0  0
 24 25  1  0  0  0  0
 25 26  1  0  0  0  0
 25 27  2  0  0  0  0
 27 28  1  0  0  0  0
 29 27  1  0  0  0  0
 30 29  2  0  0  0  0
 31 32  1  0  0  0  0
 32 34  2  0  0  0  0
 32 23  1  0  0  0  0
 33 32  2  0  0  0  0
M  END
>  <minimizedAffinity>
-5.72846222

$$$$

 OpenBabel03262523303D

 34 37  0  0  0  0  0  0  0  0999 V2000
   35.6430   25.9990   31.1510 C   0  0  0  0  0  0  0  0  0  0  0  0
   35.4710   24.6100   31.1090 C   0  0  0  0  0  0  0  0  0  0  0  0
   36.4700   23.7890   31.5940 C   0  0  0  0  0  0  0  0  0  0  0  0
   37.5940   24.3800   32.0970 N   0  0  0  0  0  0  0  0  0  0  0  0
   37.7440   25.7250   32.1290 C   0  0  0  0  0  0  0  0  0  0  0  0
   36.7820   26.5160   31.6640 N   0  0  0  0  0  0  0  0  0  0  0  0
   34.8940   26.6710   30.7870 H   0  0  0  0  0  0  0  0  0  0  0  0
   34.5780   24.1720   30.7080 H   0  0  0  0  0  0  0  0  0  0  0  0
   37.0740   21.6750   30.5990 C   0  0  0  0  0  0  0  0  0  0  0  0
   36.3970   22.3410   31.5980 C   0  0  0  0  0  0  0  0  0  0  0  0
   35.6850   21.6310   32.5520 C   0  0  0  0  0  0  0  0  0  0  0  0
   35.6940   20.2430   32.4450 C   0  0  0  0  0  0  0  0  0  0  0  0
   35.0650   19.3480   33.2720 N   0  0  0  0  0  0  0  0  0  0  0  0
   35.3490   18.1350   32.7890 C   0  0  0  0  0  0  0  0  0  0  0  0
   36.1240   18.2300   31.7040 N   0  0  0  0  0  0  0  0  0  0  0  0
   36.3600   19.5380   31.4590 C   0  0  0  0  0  0  0  0  0  0  0  0
   37.0600   20.2800   30.5240 C   0  0  0  0  0  0  0  0  0  0  0  0
   37.6640   22.1180   29.7960 H   0  0  0  0  0  0  0  0  0  0  0  0
   35.1610   22.1340   33.3250 H   0  0  0  0  0  0  0  0  0  0  0  0
   34.4780   19.6010   34.1150 H   0  0  0  0  0  0  0  0  0  0  0  0
   34.9460   17.2480   33.2980 H   0  0  0  0  0  0  0  0  0  0  0  0
   37.5690   19.7180   29.7680 H   0  0  0  0  0  0  0  0  0  0  0  0
   39.1050   26.5370   34.0230 C   0  0  0  0  0  0  0  0  0  0  0  0
   38.9610   26.2650   32.6780 C   0  0  0  0  0  0  0  0  0  0  0  0
   40.0500   26.5330   31.8540 C   0  0  0  0  0  0  0  0  0  0  0  0
   40.0320   26.3510   30.7820 H   0  0  0  0  0  0  0  0  0  0  0  0
   41.2440   27.0530   32.3400 C   0  0  0  0  0  0  0  0  0  0  0  0
   42.0950   27.2640   31.7090 H   0  0  0  0  0  0  0  0  0  0  0  0
   41.3890   27.3260   33.6840 C   0  0  0  0  0  3  0  0  0  0  0  0
   40.2930   27.0500   34.4760 C   0  0  0  0  0  3  0  0  0  0  0  0
   37.3090   24.9410   35.0380 H   0  0  0  0  0  0  0  0  0  0  0  0
   37.7830   26.2290   35.1260 S   0  0  0  0  0  0  0  0  0  0  0  0
   38.3060   26.3460   36.5480 O   0  0  0  0  0  0  0  0  0  0  0  0
   36.6950   27.2590   35.0220 O   0  0  0  0  0  0  0  0  0  0  0  0
  1  6  1  0  0  0  0
  2  1  2  0  0  0  0
  2  3  1  0  0  0  0
  3 10  1  0  0  0  0
  3  4  2  0  0  0  0
  4  5  1  0  0  0  0
  5 24  1  0  0  0  0
  6  5  2  0  0  0  0
  7  1  1  0  0  0  0
  8  2  1  0  0  0  0
  9 10  1  0  0  0  0
 10 11  2  0  0  0  0
 11 19  1  0  0  0  0
 12 11  1  0  0  0  0
 12 13  1  0  0  0  0
 13 20  1  0  0  0  0
 14 13  1  0  0  0  0
 14 21  1  0  0  0  0
 15 14  2  0  0  0  0
 16 15  1  0  0  0  0
 16 12  2  0  0  0  0
 17  9  2  0  0  0  0
 17 16  1  0  0  0  0
 18  9  1  0  0  0  0
 22 17  1  0  0  0  0
 23 30  1  0  0  0  0
 23 32  1  0  0  0  0
 24 23  2  0  0  0  0
 25 27  2  0  0  0  0
 25 24  1  0  0  0  0
 26 25  1  0  0  0  0
 27 29  1  0  0  0  0
 28 27  1  0  0  0  0
 29 30  2  0  0  0  0
 31 32  1  0  0  0  0
 32 33  2  0  0  0  0
 34 32  2  0  0  0  0
M  END
>  <minimizedAffinity>
-5.72237062

$$$$

 OpenBabel03262523303D

 34 37  0  0  0  0  0  0  0  0999 V2000
   36.5320   29.3440   30.4020 C   0  0  0  0  0  0  0  0  0  0  0  0
   35.9730   30.0450   31.4770 C   0  0  0  0  0  0  0  0  0  0  0  0
   35.5530   29.3480   32.5940 C   0  0  0  0  0  0  0  0  0  0  0  0
   35.7050   27.9910   32.5940 N   0  0  0  0  0  0  0  0  0  0  0  0
   36.2470   27.3300   31.5430 C   0  0  0  0  0  0  0  0  0  0  0  0
   36.6520   27.9990   30.4690 N   0  0  0  0  0  0  0  0  0  0  0  0
   36.8700   29.8450   29.5180 H   0  0  0  0  0  0  0  0  0  0  0  0
   35.8640   31.1110   31.4510 H   0  0  0  0  0  0  0  0  0  0  0  0
   33.6500   29.6510   34.0470 C   0  0  0  0  0  0  0  0  0  0  0  0
   34.9600   29.9710   33.7600 C   0  0  0  0  0  0  0  0  0  0  0  0
   35.6570   30.8520   34.5720 C   0  0  0  0  0  0  0  0  0  0  0  0
   34.9740   31.3820   35.6640 C   0  0  0  0  0  0  0  0  0  0  0  0
   35.4630   32.2650   36.5920 N   0  0  0  0  0  0  0  0  0  0  0  0
   34.4620   32.4920   37.4490 C   0  0  0  0  0  0  0  0  0  0  0  0
   33.3760   31.7950   37.1000 N   0  0  0  0  0  0  0  0  0  0  0  0
   33.6620   31.0870   35.9850 C   0  0  0  0  0  0  0  0  0  0  0  0
   32.9980   30.2030   35.1520 C   0  0  0  0  0  0  0  0  0  0  0  0
   33.0010   28.9770   33.4880 H   0  0  0  0  0  0  0  0  0  0  0  0
   36.6660   31.1040   34.3610 H   0  0  0  0  0  0  0  0  0  0  0  0
   36.4410   32.6670   36.6000 H   0  0  0  0  0  0  0  0  0  0  0  0
   34.6240   33.1790   38.2910 H   0  0  0  0  0  0  0  0  0  0  0  0
   31.9830   29.9870   35.4150 H   0  0  0  0  0  0  0  0  0  0  0  0
   37.4530   25.2850   32.2250 C   0  0  0  0  0  0  0  0  0  0  0  0
   36.3710   25.8970   31.6270 C   0  0  0  0  0  0  0  0  0  0  0  0
   35.3850   25.0710   31.0970 C   0  0  0  0  0  0  0  0  0  0  0  0
   34.4960   25.4590   30.6070 H   0  0  0  0  0  0  0  0  0  0  0  0
   35.4630   23.6840   31.1560 C   0  0  0  0  0  0  0  0  0  0  0  0
   34.7020   23.0330   30.7480 H   0  0  0  0  0  0  0  0  0  0  0  0
   36.5440   23.0710   31.7540 C   0  0  0  0  0  3  0  0  0  0  0  0
   37.5050   23.9170   32.2700 C   0  0  0  0  0  3  0  0  0  0  0  0
   38.8490   27.4870   32.3160 H   0  0  0  0  0  0  0  0  0  0  0  0
   38.7360   26.2540   32.9150 S   0  0  0  0  0  0  0  0  0  0  0  0
   38.3820   26.5640   34.3590 O   0  0  0  0  0  0  0  0  0  0  0  0
   40.0420   25.5160   32.9810 O   0  0  0  0  0  0  0  0  0  0  0  0
  1  6  2  0  0  0  0
  1  2  1  0  0  0  0
  2  3  2  0  0  0  0
  3 10  1  0  0  0  0
  4  3  1  0  0  0  0
  5 24  1  0  0  0  0
  5  4  2  0  0  0  0
  6  5  1  0  0  0  0
  7  1  1  0  0  0  0
  8  2  1  0  0  0  0
  9 17  1  0  0  0  0
 10  9  2  0  0  0  0
 10 11  1  0  0  0  0
 11 12  2  0  0  0  0
 12 16  1  0  0  0  0
 12 13  1  0  0  0  0
 13 20  1  0  0  0  0
 13 14  1  0  0  0  0
 14 21  1  0  0  0  0
 15 14  2  0  0  0  0
 16 15  1  0  0  0  0
 17 22  1  0  0  0  0
 17 16  2  0  0  0  0
 18  9  1  0  0  0  0
 19 11  1  0  0  0  0
 23 30  1  0  0  0  0
 23 32  1  0  0  0  0
 24 23  2  0  0  0  0
 25 27  2  0  0  0  0
 25 24  1  0  0  0  0
 26 25  1  0  0  0  0
 27 29  1  0  0  0  0
 28 27  1  0  0  0  0
 29 30  2  0  0  0  0
 31 32  1  0  0  0  0
 32 34  2  0  0  0  0
 32 33  2  0  0  0  0
M  END
>  <minimizedAffinity>
-5.66929579

$$$$

 OpenBabel03262523303D

 34 37  0  0  0  0  0  0  0  0999 V2000
   35.3330   29.7420   31.8490 C   0  0  0  0  0  0  0  0  0  0  0  0
   36.2440   28.7660   32.2710 C   0  0  0  0  0  0  0  0  0  0  0  0
   36.2390   28.3620   33.5920 C   0  0  0  0  0  0  0  0  0  0  0  0
   35.3350   28.9430   34.4340 N   0  0  0  0  0  0  0  0  0  0  0  0
   34.4620   29.8870   34.0080 C   0  0  0  0  0  0  0  0  0  0  0  0
   34.4650   30.2750   32.7370 N   0  0  0  0  0  0  0  0  0  0  0  0
   35.3030   30.0830   30.8350 H   0  0  0  0  0  0  0  0  0  0  0  0
   36.9440   28.3260   31.5890 H   0  0  0  0  0  0  0  0  0  0  0  0
   37.7770   27.6680   35.3180 C   0  0  0  0  0  0  0  0  0  0  0  0
   37.1370   27.3620   34.1350 C   0  0  0  0  0  0  0  0  0  0  0  0
   37.3610   26.1420   33.5160 C   0  0  0  0  0  0  0  0  0  0  0  0
   38.2460   25.2680   34.1410 C   0  0  0  0  0  0  0  0  0  0  0  0
   38.6130   24.0200   33.7090 N   0  0  0  0  0  0  0  0  0  0  0  0
   39.4760   23.5530   34.6190 C   0  0  0  0  0  0  0  0  0  0  0  0
   39.6630   24.4490   35.5920 N   0  0  0  0  0  0  0  0  0  0  0  0
   38.9070   25.5370   35.3250 C   0  0  0  0  0  0  0  0  0  0  0  0
   38.6590   26.7640   35.9150 C   0  0  0  0  0  0  0  0  0  0  0  0
   37.6850   28.5870   35.8960 H   0  0  0  0  0  0  0  0  0  0  0  0
   36.8730   25.8970   32.6060 H   0  0  0  0  0  0  0  0  0  0  0  0
   38.2650   23.5490   32.8290 H   0  0  0  0  0  0  0  0  0  0  0  0
   39.9100   22.5530   34.4810 H   0  0  0  0  0  0  0  0  0  0  0  0
   39.1800   26.9560   36.8310 H   0  0  0  0  0  0  0  0  0  0  0  0
   33.8120   31.6110   35.6530 C   0  0  0  0  0  0  0  0  0  0  0  0
   33.5410   30.4480   34.9630 C   0  0  0  0  0  0  0  0  0  0  0  0
   32.3260   29.8210   35.2240 C   0  0  0  0  0  0  0  0  0  0  0  0
   32.0220   28.9020   34.7310 H   0  0  0  0  0  0  0  0  0  0  0  0
   31.4070   30.3270   36.1370 C   0  0  0  0  0  0  0  0  0  0  0  0
   30.4600   29.8490   36.3470 H   0  0  0  0  0  0  0  0  0  0  0  0
   31.6770   31.4890   36.8270 C   0  0  0  0  0  3  0  0  0  0  0  0
   32.8900   32.0870   36.5470 C   0  0  0  0  0  3  0  0  0  0  0  0
   35.5150   32.7800   34.0600 H   0  0  0  0  0  0  0  0  0  0  0  0
   35.3190   32.4580   35.3830 S   0  0  0  0  0  0  0  0  0  0  0  0
   35.2510   33.7990   36.0940 O   0  0  0  0  0  0  0  0  0  0  0  0
   36.4950   31.7500   35.9910 O   0  0  0  0  0  0  0  0  0  0  0  0
  1  2  2  0  0  0  0
  1  6  1  0  0  0  0
  2  3  1  0  0  0  0
  3 10  1  0  0  0  0
  3  4  2  0  0  0  0
  5  4  1  0  0  0  0
  5 24  1  0  0  0  0
  6  5  2  0  0  0  0
  7  1  1  0  0  0  0
  8  2  1  0  0  0  0
  9 18  1  0  0  0  0
  9 17  1  0  0  0  0
 10  9  2  0  0  0  0
 11 10  1  0  0  0  0
 11 12  2  0  0  0  0
 12 16  1  0  0  0  0
 13 12  1  0  0  0  0
 13 14  1  0  0  0  0
 14 15  2  0  0  0  0
 16 15  1  0  0  0  0
 16 17  2  0  0  0  0
 17 22  1  0  0  0  0
 19 11  1  0  0  0  0
 20 13  1  0  0  0  0
 21 14  1  0  0  0  0
 23 30  1  0  0  0  0
 24 25  1  0  0  0  0
 24 23  2  0  0  0  0
 25 27  2  0  0  0  0
 26 25  1  0  0  0  0
 27 28  1  0  0  0  0
 27 29  1  0  0  0  0
 30 29  2  0  0  0  0
 31 32  1  0  0  0  0
 32 23  1  0  0  0  0
 32 34  2  0  0  0  0
 32 33  2  0  0  0  0
M  END
>  <minimizedAffinity>
-5.64516687

$$$$
