
 OpenBabel03272507473D

 49 53  0  0  1  0  0  0  0  0999 V2000
   33.0360   28.7600   47.0440 N   0  0  0  0  0  0  0  0  0  0  0  0
   33.4660   28.3300   48.3240 C   0  0  0  0  0  0  0  0  0  0  0  0
   34.6070   29.0580   48.9290 C   0  0  0  0  0  0  0  0  0  0  0  0
   35.6870   29.4540   48.0260 C   0  0  1  0  0  0  0  0  0  0  0  0
   35.1690   29.8340   46.6280 C   0  0  0  0  0  0  0  0  0  0  0  0
   34.2050   28.7180   46.1890 C   0  0  0  0  0  0  0  0  0  0  0  0
   33.7920   27.2520   48.2290 H   0  0  0  0  0  0  0  0  0  0  0  0
   32.6410   28.2980   49.0530 H   0  0  0  0  0  0  0  0  0  0  0  0
   34.9710   28.5090   49.8130 H   0  0  0  0  0  0  0  0  0  0  0  0
   34.1060   30.0230   49.2750 H   0  0  0  0  0  0  0  0  0  0  0  0
   36.3930   28.6150   47.8200 H   0  0  0  0  0  0  0  0  0  0  0  0
   34.5580   30.7600   46.6800 H   0  0  0  0  0  0  0  0  0  0  0  0
   36.0350   29.8880   45.9720 H   0  0  0  0  0  0  0  0  0  0  0  0
   34.6830   27.7300   46.1730 H   0  0  0  0  0  0  0  0  0  0  0  0
   33.8390   28.9120   45.1640 H   0  0  0  0  0  0  0  0  0  0  0  0
   36.1780   31.1610   49.7170 C   0  0  0  0  0  0  0  0  0  0  0  0
   36.4740   30.6300   48.4710 C   0  0  0  0  0  0  0  0  0  0  0  0
   37.4240   31.1450   47.6320 C   0  0  0  0  0  0  0  0  0  0  0  0
   38.1290   32.2670   48.0630 C   0  0  0  0  0  0  0  0  0  0  0  0
   37.8360   32.7960   49.2980 C   0  0  0  0  0  0  0  0  0  0  0  0
   36.8720   32.2770   50.1540 C   0  0  0  0  0  0  0  0  0  0  0  0
   38.6410   33.9150   49.5510 O   0  0  0  0  0  0  0  0  0  0  0  0
   39.6740   33.8400   48.5690 C   0  0  0  0  0  0  0  0  0  0  0  0
   39.1460   33.0680   47.5270 O   0  0  0  0  0  0  0  0  0  0  0  0
   35.4650   30.8350   50.4620 H   0  0  0  0  0  0  0  0  0  0  0  0
   37.6350   30.7200   46.6810 H   0  0  0  0  0  0  0  0  0  0  0  0
   36.6880   32.7520   51.1330 H   0  0  0  0  0  0  0  0  0  0  0  0
   39.7910   34.8800   48.1960 H   0  0  0  0  0  0  0  0  0  0  0  0
   40.6030   33.4190   49.0130 H   0  0  0  0  0  0  0  0  0  0  0  0
   31.7310   29.1570   46.6330 C   0  0  0  0  0  0  0  0  0  0  0  0
   31.4510   30.0110   45.5710 C   0  0  0  0  0  0  0  0  0  0  0  0
   30.1060   30.2720   45.3050 C   0  0  0  0  0  0  0  0  0  0  0  0
   29.1470   29.6800   46.0940 N   0  0  0  0  0  0  0  0  0  0  0  0
   29.4810   28.8610   47.1090 C   0  0  0  0  0  0  0  0  0  0  0  0
   30.7370   28.6070   47.3700 N   0  0  0  0  0  0  0  0  0  0  0  0
   32.2860   30.4010   45.0430 H   0  0  0  0  0  0  0  0  0  0  0  0
   29.9010   30.9260   44.4910 H   0  0  0  0  0  0  0  0  0  0  0  0
   27.2470   29.0800   48.2830 C   0  0  0  0  0  0  0  0  0  0  0  0
   28.2970   28.3460   47.7870 C   0  0  0  0  0  0  0  0  0  0  0  0
   28.1230   26.9940   48.0010 C   0  0  0  0  0  0  0  0  0  0  0  0
   28.8490   26.2580   47.6780 H   0  0  0  0  0  0  0  0  0  0  0  0
   27.0380   26.4280   48.6330 C   0  0  0  0  0  0  0  0  0  0  0  0
   26.9310   25.3630   48.7870 H   0  0  0  0  0  0  0  0  0  0  0  0
   26.0270   27.2310   49.1030 C   0  0  0  0  0  3  0  0  0  0  0  0
   26.1440   28.5890   48.9180 C   0  0  0  0  0  3  0  0  0  0  0  0
   28.6160   31.1070   47.7650 H   0  0  0  0  0  0  0  0  0  0  0  0
   27.2980   30.8170   48.0800 S   0  0  0  0  0  0  0  0  0  0  0  0
   26.4420   31.2770   46.9290 O   0  0  0  0  0  0  0  0  0  0  0  0
   26.9300   31.5020   49.3370 O   0  0  0  0  0  0  0  0  0  0  0  0
  1  2  1  0  0  0  0
  2  3  1  0  0  0  0
  2  8  1  0  0  0  0
  3 10  1  0  0  0  0
  3  9  1  0  0  0  0
  4 11  1  6  0  0  0
  4 17  1  0  0  0  0
  4  3  1  0  0  0  0
  5 12  1  0  0  0  0
  5  4  1  0  0  0  0
  6  5  1  0  0  0  0
  6  1  1  0  0  0  0
  7  2  1  0  0  0  0
 13  5  1  0  0  0  0
 14  6  1  0  0  0  0
 15  6  1  0  0  0  0
 16 21  1  0  0  0  0
 16 25  1  0  0  0  0
 17 16  2  0  0  0  0
 18 19  2  0  0  0  0
 18 17  1  0  0  0  0
 19 20  1  0  0  0  0
 20 22  1  0  0  0  0
 20 21  2  0  0  0  0
 21 27  1  0  0  0  0
 23 29  1  0  0  0  0
 23 22  1  0  0  0  0
 24 19  1  0  0  0  0
 24 23  1  0  0  0  0
 26 18  1  0  0  0  0
 28 23  1  0  0  0  0
 30  1  1  0  0  0  0
 30 35  1  0  0  0  0
 31 30  2  0  0  0  0
 32 31  1  0  0  0  0
 32 33  2  0  0  0  0
 33 34  1  0  0  0  0
 34 35  2  0  0  0  0
 34 39  1  0  0  0  0
 36 31  1  0  0  0  0
 37 32  1  0  0  0  0
 38 45  1  0  0  0  0
 39 40  1  0  0  0  0
 39 38  2  0  0  0  0
 40 42  2  0  0  0  0
 41 40  1  0  0  0  0
 42 43  1  0  0  0  0
 42 44  1  0  0  0  0
 45 44  2  0  0  0  0
 46 47  1  0  0  0  0
 47 38  1  0  0  0  0
 47 49  2  0  0  0  0
 48 47  2  0  0  0  0
M  END
>  <minimizedAffinity>
-6.69041157

>  <minimizedRMSD>
1.71243846

$$$$
