REMARK  Name = 
REMARK  8 active torsions:
REMARK  status: ('A' for Active; 'I' for Inactive)
REMARK    1  A    between atoms: C_3  and  C_9
REMARK    2  A    between atoms: C_5  and  O_14
REMARK    3  A    between atoms: O_14  and  C_15
REMARK    4  A    between atoms: C_15  and  C_16
REMARK    5  A    between atoms: C_16  and  C_17
REMARK    6  A    between atoms: C_21  and  C_23
REMARK    7  A    between atoms: C_23  and  C_43
REMARK    8  A    between atoms: S_39  and  C_42
REMARK                            x       y       z     vdW  Elec       q    Type
REMARK                         _______ _______ _______ _____ _____    ______ ____
ROOT
ATOM      1  C   UNL     1      33.559  27.523  47.714  0.00  0.00    +0.000 C 
ATOM      2  H   UNL     1      33.733  26.593  48.273  0.00  0.00    +0.000 HD
ATOM      3  H   UNL     1      33.849  27.297  46.662  0.00  0.00    +0.000 HD
ENDROOT
BRANCH   1   4
ATOM      4  C   UNL     1      32.110  27.887  47.749  0.00  0.00    +0.000 A 
ATOM      5  C   UNL     1      31.377  27.465  48.841  0.00  0.00    +0.000 A 
ATOM      6  C   UNL     1      30.042  27.757  48.948  0.00  0.00    +0.000 A 
ATOM      7  N   UNL     1      29.442  28.451  47.995  0.00  0.00    +0.000 NA
ATOM      8  C   UNL     1      30.167  28.869  46.914  0.00  0.00    +0.000 A 
ATOM      9  N   UNL     1      31.472  28.587  46.804  0.00  0.00    +0.000 NA
ATOM     10  H   UNL     1      31.848  26.903  49.619  0.00  0.00    +0.000 HD
ATOM     11  H   UNL     1      29.448  27.431  49.804  0.00  0.00    +0.000 HD
BRANCH   8  12
ATOM     12  C   UNL     1      29.457  29.650  45.871  0.00  0.00    +0.000 C 
ATOM     13  H   UNL     1      28.680  30.264  46.415  0.00  0.00    +0.000 HD
ATOM     14  H   UNL     1      30.154  30.438  45.470  0.00  0.00    +0.000 HD
BRANCH  12  16
ATOM     15  C   UNL     1      27.669  29.186  44.162  0.00  0.00    +0.000 A 
ATOM     16  C   UNL     1      28.823  28.837  44.824  0.00  0.00    +0.000 A 
ATOM     17  C   UNL     1      29.435  27.628  44.472  0.00  0.00    +0.000 A 
ATOM     18  H   UNL     1      30.342  27.339  44.983  0.00  0.00    +0.000 HD
ATOM     19  C   UNL     1      28.941  26.778  43.503  0.00  0.00    +0.000 A 
ATOM     20  H   UNL     1      29.460  25.848  43.270  0.00  0.00    +0.000 HD
ATOM     21  C   UNL     1      27.787  27.113  42.831  0.00  0.00    +0.000 A 
ATOM     22  C   UNL     1      27.188  28.308  43.183  0.00  0.00    +0.000 A 
BRANCH  15  24
ATOM     23  H   UNL     1      27.294  31.720  43.765  0.00  0.00    +0.000 HD
ATOM     24  S   UNL     1      26.841  30.663  44.534  0.00  0.00    +0.000 S 
ATOM     25  O   UNL     1      26.757  30.978  45.981  0.00  0.00    +0.000 OA
ATOM     26  O   UNL     1      25.397  30.469  44.074  0.00  0.00    +0.000 OA
ENDBRANCH  15  24
ENDBRANCH  12  16
ENDBRANCH   8  12
ENDBRANCH   1   4
BRANCH   1  27
ATOM     27  C   UNL     1      34.442  28.653  48.186  0.00  0.00    +0.000 C 
ATOM     28  H   UNL     1      35.222  28.917  47.471  0.00  0.00    +0.000 HD
ATOM     29  H   UNL     1      33.804  29.551  48.340  0.00  0.00    +0.000 HD
BRANCH  27  30
ATOM     30  O   UNL     1      34.996  28.361  49.462  0.00  0.00    +0.000 OA
BRANCH  30  35
ATOM     31  C   UNL     1      37.340  30.174  51.519  0.00  0.00    +0.000 A 
ATOM     32  C   UNL     1      38.068  30.862  50.524  0.00  0.00    +0.000 A 
ATOM     33  C   UNL     1      37.700  30.654  49.201  0.00  0.00    +0.000 A 
ATOM     34  N   UNL     1      36.656  29.793  48.983  0.00  0.00    +0.000 NA
ATOM     35  C   UNL     1      35.982  29.153  49.941  0.00  0.00    +0.000 A 
ATOM     36  N   UNL     1      36.337  29.354  51.218  0.00  0.00    +0.000 NA
ATOM     37  H   UNL     1      37.644  30.352  52.541  0.00  0.00    +0.000 HD
ATOM     38  H   UNL     1      38.890  31.539  50.712  0.00  0.00    +0.000 HD
BRANCH  33  41
ATOM     39  F   UNL     1      38.945  33.269  49.017  0.00  0.00    +0.000 F 
ATOM     40  C   UNL     1      38.913  32.482  47.947  0.00  0.00    +0.000 A 
ATOM     41  C   UNL     1      38.332  31.273  48.054  0.00  0.00    +0.000 A 
ATOM     42  C   UNL     1      38.351  30.520  46.870  0.00  0.00    +0.000 A 
ATOM     43  C   UNL     1      38.919  30.994  45.713  0.00  0.00    +0.000 A 
ATOM     44  C   UNL     1      39.500  32.229  45.646  0.00  0.00    +0.000 A 
ATOM     45  C   UNL     1      39.480  32.954  46.791  0.00  0.00    +0.000 A 
ATOM     46  H   UNL     1      37.903  29.523  46.853  0.00  0.00    +0.000 HD
ATOM     47  H   UNL     1      38.896  30.352  44.830  0.00  0.00    +0.000 HD
ATOM     48  H   UNL     1      39.931  32.548  44.710  0.00  0.00    +0.000 HD
ATOM     49  H   UNL     1      39.940  33.955  46.774  0.00  0.00    +0.000 HD
ENDBRANCH  33  41
ENDBRANCH  30  35
ENDBRANCH  27  30
ENDBRANCH   1  27
TORSDOF 8
