
 OpenBabel03272510103D

 31 33  0  0  0  0  0  0  0  0999 V2000
   36.8440   31.1500   47.8750 C   0  0  0  0  0  0  0  0  0  0  0  0
   36.1000   30.5370   48.8340 C   0  0  0  0  0  0  0  0  0  0  0  0
   35.1430   29.5710   48.5610 C   0  0  0  0  0  0  0  0  0  0  0  0
   34.9010   29.1860   47.2580 C   0  0  0  0  0  0  0  0  0  0  0  0
   35.6700   29.8220   46.2960 C   0  0  0  0  0  0  0  0  0  0  0  0
   36.5890   30.7560   46.6100 N   0  0  0  0  0  0  0  0  0  0  0  0
   36.2320   30.7860   49.8740 H   0  0  0  0  0  0  0  0  0  0  0  0
   34.5470   29.0790   49.3230 H   0  0  0  0  0  0  0  0  0  0  0  0
   35.5800   29.6140   45.2430 H   0  0  0  0  0  0  0  0  0  0  0  0
   37.9300   32.8580   49.3680 C   0  0  0  0  0  0  0  0  0  0  0  0
   37.8450   32.1600   48.1620 C   0  0  0  0  0  0  0  0  0  0  0  0
   38.7850   32.4530   47.1730 C   0  0  0  0  0  0  0  0  0  0  0  0
   39.7380   33.4000   47.4220 N   0  0  0  0  0  0  0  0  0  0  0  0
   39.7810   34.0500   48.6020 C   0  0  0  0  0  0  0  0  0  0  0  0
   38.8820   33.7870   49.5810 N   0  0  0  0  0  0  0  0  0  0  0  0
   37.1770   32.5860   50.0890 H   0  0  0  0  0  0  0  0  0  0  0  0
   38.8240   31.9770   46.1930 H   0  0  0  0  0  0  0  0  0  0  0  0
   40.5530   34.8000   48.7690 H   0  0  0  0  0  0  0  0  0  0  0  0
   33.9690   28.2320   46.8780 O   0  0  0  0  0  0  0  0  0  0  0  0
   31.6790   28.6750   46.5530 C   0  0  0  0  0  0  0  0  0  0  0  0
   32.6870   28.1660   47.3480 C   0  0  0  0  0  0  0  0  0  0  0  0
   32.3910   27.6100   48.5790 C   0  0  0  0  0  0  0  0  0  0  0  0
   33.1790   27.2010   49.2240 H   0  0  0  0  0  0  0  0  0  0  0  0
   31.0610   27.5810   48.9860 C   0  0  0  0  0  0  0  0  0  0  0  0
   30.8110   27.1420   49.9630 H   0  0  0  0  0  0  0  0  0  0  0  0
   30.0270   28.0850   48.2090 C   0  0  0  0  0  3  0  0  0  0  0  0
   30.3500   28.6380   46.9770 C   0  0  0  0  0  3  0  0  0  0  0  0
   33.3210   29.9450   45.0400 H   0  0  0  0  0  0  0  0  0  0  0  0
   32.0650   29.3760   44.9980 S   0  0  0  0  0  0  0  0  0  0  0  0
   31.9870   28.2790   43.9760 O   0  0  0  0  0  0  0  0  0  0  0  0
   31.0280   30.4010   44.6480 O   0  0  0  0  0  0  0  0  0  0  0  0
  1 11  1  0  0  0  0
  1  2  1  0  0  0  0
  2  7  1  0  0  0  0
  3  2  2  0  0  0  0
  3  8  1  0  0  0  0
  4  3  1  0  0  0  0
  5  6  1  0  0  0  0
  5  4  2  0  0  0  0
  6  1  2  0  0  0  0
  9  5  1  0  0  0  0
 10 15  1  0  0  0  0
 10 16  1  0  0  0  0
 11 10  2  0  0  0  0
 12 13  2  0  0  0  0
 12 11  1  0  0  0  0
 13 14  1  0  0  0  0
 14 18  1  0  0  0  0
 14 15  2  0  0  0  0
 17 12  1  0  0  0  0
 19  4  1  0  0  0  0
 19 21  1  0  0  0  0
 20 27  2  0  0  0  0
 20 21  1  0  0  0  0
 21 22  2  0  0  0  0
 22 24  1  0  0  0  0
 22 23  1  0  0  0  0
 24 25  1  0  0  0  0
 26 24  2  0  0  0  0
 27 26  1  0  0  0  0
 29 28  1  0  0  0  0
 29 20  1  0  0  0  0
 30 29  2  0  0  0  0
 31 29  2  0  0  0  0
M  END
>  <minimizedAffinity>
-4.43889904

>  <minimizedRMSD>
9.06433201

$$$$
