
 OpenBabel03272504563D

 36 38  0  0  1  0  0  0  0  0999 V2000
   37.0630   31.6270   48.6550 C   0  0  1  0  0  0  0  0  0  0  0  0
   36.3680   30.7870   47.7010 C   0  0  0  0  0  0  0  0  0  0  0  0
   37.2870   30.1820   48.6840 C   0  0  2  0  0  0  0  0  0  0  0  0
   36.5650   32.0270   49.6020 H   0  0  0  0  0  0  0  0  0  0  0  0
   36.7570   30.8210   46.6550 H   0  0  0  0  0  0  0  0  0  0  0  0
   35.3520   31.0950   47.6910 H   0  0  0  0  0  0  0  0  0  0  0  0
   38.0660   29.6190   48.2010 H   0  0  0  0  0  0  0  0  0  0  0  0
   38.2120   32.4830   48.2110 C   0  0  0  0  0  0  0  0  0  0  0  0
   38.6500   33.4540   49.1440 C   0  0  0  0  0  0  0  0  0  0  0  0
   39.7110   34.2200   48.7100 C   0  0  0  0  0  0  0  0  0  0  0  0
   40.2570   34.0130   47.4700 N   0  0  0  0  0  0  0  0  0  0  0  0
   39.8020   33.0740   46.6220 C   0  0  0  0  0  0  0  0  0  0  0  0
   38.7480   32.2910   47.0090 N   0  0  0  0  0  0  0  0  0  0  0  0
   40.3610   32.8420   45.3600 N   0  0  0  0  0  0  0  0  0  0  0  0
   38.2110   33.6050   50.1160 H   0  0  0  0  0  0  0  0  0  0  0  0
   40.1180   34.9960   49.3640 H   0  0  0  0  0  0  0  0  0  0  0  0
   40.8500   33.6740   44.9230 H   0  0  0  0  0  0  0  0  0  0  0  0
   40.2820   31.9030   44.9090 H   0  0  0  0  0  0  0  0  0  0  0  0
   36.7040   29.4870   49.7430 O   0  0  0  0  0  0  0  0  0  0  0  0
   34.5380   28.4520   50.6260 O   0  0  0  0  0  0  0  0  0  0  0  0
   35.0440   29.2740   49.4480 P   0  0  1  0  0  0  0  0  0  0  0  0
   34.2880   30.7710   49.6290 O   0  0  0  0  0  0  0  0  0  0  0  0
   34.6800   31.5430   49.2440 H   0  0  0  0  0  0  0  0  0  0  0  0
   34.8460   28.5600   47.9950 O   0  0  0  0  0  0  0  0  0  0  0  0
   33.2520   28.2210   46.0950 C   0  0  0  0  0  0  0  0  0  0  0  0
   33.9750   27.9510   47.2260 C   0  0  0  0  0  0  0  0  0  0  0  0
   33.7650   26.6650   47.7620 C   0  0  0  0  0  0  0  0  0  0  0  0
   34.1970   26.1880   48.6380 H   0  0  0  0  0  0  0  0  0  0  0  0
   32.8810   25.7460   47.1720 C   0  0  0  0  0  0  0  0  0  0  0  0
   32.6520   24.7500   47.5000 H   0  0  0  0  0  0  0  0  0  0  0  0
   32.2080   26.1450   46.0280 C   0  0  0  0  0  3  0  0  0  0  0  0
   32.3700   27.3870   45.4550 C   0  0  0  0  0  3  0  0  0  0  0  0
   34.8050   30.1080   45.1950 H   0  0  0  0  0  0  0  0  0  0  0  0
   33.5260   29.8000   45.4580 S   0  0  0  0  0  0  0  0  0  0  0  0
   32.7790   29.9820   44.1340 O   0  0  0  0  0  0  0  0  0  0  0  0
   32.8500   30.7800   46.4030 O   0  0  0  0  0  0  0  0  0  0  0  0
  1  3  1  0  0  0  0
  1  4  1  1  0  0  0
  2  1  1  0  0  0  0
  2  3  1  0  0  0  0
  3  7  1  6  0  0  0
  3 19  1  0  0  0  0
  5  2  1  0  0  0  0
  6  2  1  0  0  0  0
  8  1  1  0  0  0  0
  8  9  1  0  0  0  0
  9 15  1  0  0  0  0
 10  9  2  0  0  0  0
 10 16  1  0  0  0  0
 11 10  1  0  0  0  0
 12 13  1  0  0  0  0
 12 11  2  0  0  0  0
 13  8  2  0  0  0  0
 14 12  1  0  0  0  0
 17 14  1  0  0  0  0
 18 14  1  0  0  0  0
 21 22  1  0  0  0  0
 21 19  1  0  0  0  0
 21 20  2  1  0  0  0
 23 22  1  0  0  0  0
 24 21  1  0  0  0  0
 25 26  1  0  0  0  0
 26 27  2  0  0  0  0
 26 24  1  0  0  0  0
 27 28  1  0  0  0  0
 29 30  1  0  0  0  0
 29 27  1  0  0  0  0
 31 29  2  0  0  0  0
 32 31  1  0  0  0  0
 32 25  2  0  0  0  0
 33 34  1  0  0  0  0
 34 25  1  0  0  0  0
 34 36  2  0  0  0  0
 35 34  2  0  0  0  0
M  END
>  <minimizedAffinity>
-4.96238375

>  <minimizedRMSD>
0.98252511

$$$$
