
 OpenBabel03272507133D

 43 47  0  0  0  0  0  0  0  0999 V2000
   37.0280   29.5750   50.1080 C   0  0  0  0  0  0  0  0  0  0  0  0
   37.6640   29.0410   51.0540 O   0  0  0  0  0  0  0  0  0  0  0  0
   37.5650   30.6300   49.2850 C   0  0  0  0  0  0  0  0  0  0  0  0
   37.5720   31.9190   49.8260 C   0  0  0  0  0  0  0  0  0  0  0  0
   38.0800   32.9710   49.0740 C   0  0  0  0  0  0  0  0  0  0  0  0
   38.5480   32.6570   47.8280 N   0  0  0  0  0  0  0  0  0  0  0  0
   38.5340   31.4190   47.3270 C   0  0  0  0  0  0  0  0  0  0  0  0
   38.0450   30.4160   48.0510 N   0  0  0  0  0  0  0  0  0  0  0  0
   37.2030   32.1510   50.8020 H   0  0  0  0  0  0  0  0  0  0  0  0
   38.1190   33.9800   49.4190 H   0  0  0  0  0  0  0  0  0  0  0  0
   38.3330   31.1870   44.8320 C   0  0  0  0  0  0  0  0  0  0  0  0
   39.0790   31.2890   45.9830 C   0  0  0  0  0  0  0  0  0  0  0  0
   40.4420   31.2570   45.7920 C   0  0  0  0  0  0  0  0  0  0  0  0
   41.1550   31.3290   46.6250 H   0  0  0  0  0  0  0  0  0  0  0  0
   41.0350   31.1330   44.5400 C   0  0  0  0  0  0  0  0  0  0  0  0
   42.1000   31.1120   44.4270 H   0  0  0  0  0  0  0  0  0  0  0  0
   40.2560   31.0340   43.4120 C   0  0  0  0  0  3  0  0  0  0  0  0
   38.8900   31.0650   43.5870 C   0  0  0  0  0  3  0  0  0  0  0  0
   36.2210   32.1350   45.8780 H   0  0  0  0  0  0  0  0  0  0  0  0
   36.6030   31.2180   44.9550 S   0  0  0  0  0  0  0  0  0  0  0  0
   36.0580   29.8730   45.3810 O   0  0  0  0  0  0  0  0  0  0  0  0
   35.9750   31.5630   43.6450 O   0  0  0  0  0  0  0  0  0  0  0  0
   35.6790   29.1190   49.8150 C   0  0  0  0  0  0  0  0  0  0  0  0
   34.5960   29.5850   50.4770 C   0  0  0  0  0  0  0  0  0  0  0  0
   33.4720   28.9380   49.9430 C   0  0  0  0  0  0  0  0  0  0  0  0
   33.9750   28.0910   48.9530 C   0  0  0  0  0  0  0  0  0  0  0  0
   35.2600   28.2580   48.9460 O   0  0  0  0  0  0  0  0  0  0  0  0
   34.5640   30.3260   51.2820 H   0  0  0  0  0  0  0  0  0  0  0  0
   32.4710   29.1290   50.2960 H   0  0  0  0  0  0  0  0  0  0  0  0
   33.6020   26.1990   47.3800 C   0  0  0  0  0  0  0  0  0  0  0  0
   33.1100   27.2250   48.1440 C   0  0  0  0  0  0  0  0  0  0  0  0
   31.7670   27.5040   48.2040 C   0  0  0  0  0  0  0  0  0  0  0  0
   30.9090   26.7160   47.4680 C   0  0  0  0  0  0  0  0  0  0  0  0
   29.5640   26.7470   47.3340 N   0  0  0  0  0  0  0  0  0  0  0  0
   29.2190   25.7640   46.5090 N   0  0  0  0  0  0  0  0  0  0  0  0
   30.3150   25.1120   46.1170 C   0  0  0  0  0  0  0  0  0  0  0  0
   31.4250   25.6930   46.7100 C   0  0  0  0  0  0  0  0  0  0  0  0
   32.7750   25.3990   46.6380 C   0  0  0  0  0  0  0  0  0  0  0  0
   34.6740   26.0130   47.3600 H   0  0  0  0  0  0  0  0  0  0  0  0
   31.2940   28.3090   48.7910 H   0  0  0  0  0  0  0  0  0  0  0  0
   28.8920   27.4260   47.7990 H   0  0  0  0  0  0  0  0  0  0  0  0
   30.3080   24.2540   45.4290 H   0  0  0  0  0  0  0  0  0  0  0  0
   33.1380   24.5790   46.0240 H   0  0  0  0  0  0  0  0  0  0  0  0
  1  2  2  0  0  0  0
  3  4  1  0  0  0  0
  3  1  1  0  0  0  0
  4  9  1  0  0  0  0
  5 10  1  0  0  0  0
  5  4  2  0  0  0  0
  6  5  1  0  0  0  0
  7  6  2  0  0  0  0
  7  8  1  0  0  0  0
  8  3  2  0  0  0  0
 11 20  1  0  0  0  0
 11 12  1  0  0  0  0
 12  7  1  0  0  0  0
 13 12  2  0  0  0  0
 13 14  1  0  0  0  0
 15 13  1  0  0  0  0
 16 15  1  0  0  0  0
 17 18  1  0  0  0  0
 17 15  2  0  0  0  0
 18 11  2  0  0  0  0
 20 21  2  0  0  0  0
 20 19  1  0  0  0  0
 22 20  2  0  0  0  0
 23  1  1  0  0  0  0
 23 24  2  0  0  0  0
 24 28  1  0  0  0  0
 25 29  1  0  0  0  0
 25 24  1  0  0  0  0
 26 25  2  0  0  0  0
 27 26  1  0  0  0  0
 27 23  1  0  0  0  0
 30 31  1  0  0  0  0
 31 32  2  0  0  0  0
 31 26  1  0  0  0  0
 32 40  1  0  0  0  0
 33 32  1  0  0  0  0
 34 33  1  0  0  0  0
 34 41  1  0  0  0  0
 35 34  1  0  0  0  0
 36 35  2  0  0  0  0
 36 37  1  0  0  0  0
 37 33  2  0  0  0  0
 38 37  1  0  0  0  0
 38 30  2  0  0  0  0
 39 30  1  0  0  0  0
 42 36  1  0  0  0  0
 43 38  1  0  0  0  0
M  END
>  <minimizedAffinity>
-6.80117846

>  <minimizedRMSD>
0.684316993

$$$$
