
     RDKit          3D

 31 33  0  0  0  0  0  0  0  0999 V2000
   37.0894   30.3368   50.8192 C   0  0  0  0  0  0  0  0  0  0  0  0
   36.9043   30.9399   49.5544 C   0  0  0  0  0  0  0  0  0  0  0  0
   35.7451   30.6068   48.8761 C   0  0  0  0  0  0  0  0  0  0  0  0
   34.8601   29.7404   49.4364 N   0  0  0  0  0  0  0  0  0  0  0  0
   35.0774   29.1870   50.6486 C   0  0  0  0  0  0  0  0  0  0  0  0
   36.1924   29.4882   51.3350 N   0  0  0  0  0  0  0  0  0  0  0  0
   37.8261   31.8465   48.9602 C   0  0  0  0  0  0  0  0  0  0  0  0
   38.2993   32.9653   49.5895 C   0  0  0  0  0  0  0  0  0  0  0  0
   39.2043   33.8734   49.0374 C   0  0  0  0  0  0  0  0  0  0  0  0
   39.6332   33.6070   47.7828 N   0  0  0  0  0  0  0  0  0  0  0  0
   39.1814   32.5017   47.1292 C   0  0  0  0  0  0  0  0  0  0  0  0
   38.3171   31.6851   47.7282 N   0  0  0  0  0  0  0  0  0  0  0  0
   37.9987   30.5963   51.3548 H   0  0  0  0  0  0  0  0  0  0  0  0
   35.4555   30.9810   47.9055 H   0  0  0  0  0  0  0  0  0  0  0  0
   34.3098   28.5089   51.0051 H   0  0  0  0  0  0  0  0  0  0  0  0
   37.9779   33.2179   50.6050 H   0  0  0  0  0  0  0  0  0  0  0  0
   39.5611   34.7411   49.5463 H   0  0  0  0  0  0  0  0  0  0  0  0
   36.9504   33.8030   45.5045 H   0  0  0  0  0  0  0  0  0  0  0  0
   38.0601   34.2396   44.8725 S   0  0  0  0  0  0  0  0  0  0  0  0
   37.6575   34.7017   43.4842 O   0  0  0  0  0  0  0  0  0  0  0  0
   38.6857   35.4520   45.5281 O   0  0  0  0  0  0  0  0  0  0  0  0
   39.2826   33.0022   44.6790 C   0  0  0  0  0  0  0  0  0  0  0  0
   39.7011   32.2900   45.7833 C   0  0  0  0  0  0  0  0  0  0  0  0
   40.6657   31.3391   45.5240 C   0  0  0  0  0  0  0  0  0  0  0  0
   41.0357   30.7416   46.3696 H   0  0  0  0  0  0  0  0  0  0  0  0
   41.2191   31.0597   44.2945 C   0  0  0  0  0  0  0  0  0  0  0  0
   41.9695   30.3069   44.1451 H   0  0  0  0  0  0  0  0  0  0  0  0
   40.7852   31.7828   43.2115 C   0  0  0  0  0  0  0  0  0  0  0  0
   39.8315   32.7347   43.4202 C   0  0  0  0  0  0  0  0  0  0  0  0
   41.1328   31.6675   42.1948 H   0  0  0  0  0  0  0  0  0  0  0  0
   39.4535   33.3385   42.5828 H   0  0  0  0  0  0  0  0  0  0  0  0
  1  6  2  0
  2  1  1  0
  3  4  1  0
  3  2  2  0
  4  5  2  0
  5  6  1  0
  7  2  1  0
  7  8  2  0
  9  8  1  0
 10  9  2  0
 11 12  2  0
 11 10  1  0
 12  7  1  0
  1 13  1  0
  3 14  1  0
  5 15  1  0
  8 16  1  0
  9 17  1  0
 18 19  1  0
 19 20  2  0
 19 21  2  0
 19 22  1  0
 22 23  2  0
 23 24  1  0
 24 25  1  0
 24 26  2  0
 26 27  1  0
 26 28  1  0
 28 29  2  0
 29 22  1  0
 28 30  1  0
 29 31  1  0
 11 23  1  0
M  ISO  8  13  14  14  14  15  14  16  14  17  14  18  12  25  15  27  16
M  END
>  <DihAtoms>  (1) 
11,10,22,21

>  <DihDeg>  (1) 
-0.7357666392020201

$$$$
