
     RDKit          3D

 38 40  0  0  0  0  0  0  0  0999 V2000
   36.9776   31.5685   48.6496 C   0  0  1  0  0  0  0  0  0  0  0  0
   36.2526   30.8886   47.5968 C   0  0  0  0  0  0  0  0  0  0  0  0
   37.1744   30.1307   48.4645 C   0  0  2  0  0  0  0  0  0  0  0  0
   38.1370   32.4609   48.3156 C   0  0  0  0  0  0  0  0  0  0  0  0
   38.5071   33.3877   49.3187 C   0  0  0  0  0  0  0  0  0  0  0  0
   39.5791   34.1879   48.9852 C   0  0  0  0  0  0  0  0  0  0  0  0
   40.1960   34.0520   47.7694 N   0  0  0  0  0  0  0  0  0  0  0  0
   39.8028   33.1521   46.8503 C   0  0  0  0  0  0  0  0  0  0  0  0
   38.7415   32.3366   47.1382 N   0  0  0  0  0  0  0  0  0  0  0  0
   40.4348   32.9925   45.6123 N   0  0  0  0  0  0  0  0  0  0  0  0
   36.5939   29.2985   49.4212 O   0  0  0  0  0  0  0  0  0  0  0  0
   34.6418   27.6674   49.6863 O   0  0  0  0  0  0  0  0  0  0  0  0
   34.9744   28.9906   49.0100 P   0  0  1  0  0  0  0  0  0  0  0  0
   34.0111   30.1214   49.8108 O   0  0  0  0  0  0  0  0  0  0  0  0
   34.8291   28.9717   47.3851 O   0  0  0  0  0  0  0  0  0  0  0  0
   36.5021   31.8347   49.6537 H   0  0  0  0  0  0  0  0  0  0  0  0
   36.6273   31.0689   46.5605 H   0  0  0  0  0  0  0  0  0  0  0  0
   35.2430   31.2115   47.6490 H   0  0  0  0  0  0  0  0  0  0  0  0
   37.9350   29.6318   47.8905 H   0  0  0  0  0  0  0  0  0  0  0  0
   38.0116   33.4828   50.2722 H   0  0  0  0  0  0  0  0  0  0  0  0
   39.9368   34.9353   49.6986 H   0  0  0  0  0  0  0  0  0  0  0  0
   40.9352   33.8506   45.2465 H   0  0  0  0  0  0  0  0  0  0  0  0
   40.3959   32.0756   45.1099 H   0  0  0  0  0  0  0  0  0  0  0  0
   34.2680   31.0326   49.8197 H   0  0  0  0  0  0  0  0  0  0  0  0
   35.9322   30.4537   45.0411 H   0  0  0  0  0  0  0  0  0  0  0  0
   34.6584   30.4050   44.6224 S   0  0  0  0  0  0  0  0  0  0  0  0
   34.7269   30.4766   43.0946 O   0  0  0  0  0  0  0  0  0  0  0  0
   33.8450   31.6273   45.0156 O   0  0  0  0  0  0  0  0  0  0  0  0
   33.7574   29.0232   45.1239 C   0  0  0  0  0  0  0  0  0  0  0  0
   34.0439   28.6122   46.3980 C   0  0  0  0  0  0  0  0  0  0  0  0
   33.3172   27.4833   46.8268 C   0  0  0  0  0  0  0  0  0  0  0  0
   33.3393   26.9486   47.7729 H   0  0  0  0  0  0  0  0  0  0  0  0
   32.3783   26.8435   46.0004 C   0  0  0  0  0  0  0  0  0  0  0  0
   31.7776   25.9838   46.2307 H   0  0  0  0  0  0  0  0  0  0  0  0
   32.1816   27.3603   44.7297 C   0  0  0  0  0  0  0  0  0  0  0  0
   32.8593   28.4591   44.2524 C   0  0  0  0  0  0  0  0  0  0  0  0
   31.4704   26.9125   44.0418 H   0  0  0  0  0  0  0  0  0  0  0  0
   32.7376   28.8942   43.2722 H   0  0  0  0  0  0  0  0  0  0  0  0
  2  3  1  0
  2  1  1  0
  3  1  1  0
  3 11  1  0
  4  1  1  0
  4  5  2  0
  6  5  1  0
  7  6  2  0
  8  9  2  0
  8  7  1  0
  9  4  1  0
 10  8  1  0
 13 11  1  6
 13 12  2  0
 13 14  1  0
 15 13  1  0
  1 16  1  1
  2 17  1  0
  2 18  1  0
  3 19  1  6
  5 20  1  0
  6 21  1  0
 10 22  1  0
 10 23  1  0
 14 24  1  0
 25 26  1  0
 26 27  2  0
 26 28  2  0
 26 29  1  0
 29 30  2  0
 30 31  1  0
 31 32  1  0
 31 33  2  0
 33 34  1  0
 33 35  1  0
 35 36  2  0
 36 29  1  0
 35 37  1  0
 36 38  1  0
 15 30  1  0
M  ISO  8  16  13  17  13  18  13  19  13  20  14  21  14  24   3  25  12
M  ISO  2  32  15  34  16
M  END
>  <DihAtoms>  (1) 
12,14,29,28

>  <DihDeg>  (1) 
-0.0016056193423743597

$$$$
