REMARK  Name = 
REMARK  3 active torsions:
REMARK  status: ('A' for Active; 'I' for Inactive)
REMARK    1  A    between atoms: C_2  and  C_8
REMARK    2  A    between atoms: C_3  and  C_20
REMARK    3  A    between atoms: S_16  and  C_19
REMARK                            x       y       z     vdW  Elec       q    Type
REMARK                         _______ _______ _______ _____ _____    ______ ____
ROOT
ATOM      1  C   UNL     1      35.637  29.000  50.174  0.00  0.00    +0.000 A 
ATOM      2  C   UNL     1      36.301  30.145  49.641  0.00  0.00    +0.000 A 
ATOM      3  C   UNL     1      36.045  30.520  48.325  0.00  0.00    +0.000 A 
ATOM      4  N   UNL     1      35.156  29.750  47.613  0.00  0.00    +0.000 NA
ATOM      5  C   UNL     1      34.540  28.669  48.141  0.00  0.00    +0.000 A 
ATOM      6  N   UNL     1      34.772  28.288  49.414  0.00  0.00    +0.000 NA
ATOM      7  N   UNL     1      33.678  28.020  47.223  0.00  0.00    +0.000 N 
ATOM      8  H   UNL     1      35.846  28.723  51.188  0.00  0.00    +0.000 HD
ATOM      9  H   UNL     1      34.097  27.150  46.832  0.00  0.00    +0.000 HD
ATOM     10  H   UNL     1      32.735  28.217  46.868  0.00  0.00    +0.000 HD
ENDROOT
BRANCH   3  12
ATOM     11  C   UNL     1      37.010  31.704  46.382  0.00  0.00    +0.000 A 
ATOM     12  C   UNL     1      36.636  31.670  47.706  0.00  0.00    +0.000 A 
ATOM     13  C   UNL     1      36.906  32.749  48.522  0.00  0.00    +0.000 A 
ATOM     14  H   UNL     1      36.696  32.864  49.597  0.00  0.00    +0.000 HD
ATOM     15  C   UNL     1      37.557  33.896  48.039  0.00  0.00    +0.000 A 
ATOM     16  H   UNL     1      37.792  34.761  48.648  0.00  0.00    +0.000 HD
ATOM     17  C   UNL     1      37.903  33.865  46.703  0.00  0.00    +0.000 A 
ATOM     18  C   UNL     1      37.664  32.820  45.828  0.00  0.00    +0.000 A 
BRANCH  11  20
ATOM     19  H   UNL     1      37.660  30.280  44.296  0.00  0.00    +0.000 HD
ATOM     20  S   UNL     1      36.678  30.411  45.258  0.00  0.00    +0.000 S 
ATOM     21  O   UNL     1      35.394  30.707  44.503  0.00  0.00    +0.000 OA
ATOM     22  O   UNL     1      36.503  29.096  45.917  0.00  0.00    +0.000 OA
ENDBRANCH  11  20
ENDBRANCH   3  12
BRANCH   2  23
ATOM     23  C   UNL     1      37.229  30.899  50.535  0.00  0.00    +0.000 C 
ATOM     24  F   UNL     1      38.528  30.785  50.120  0.00  0.00    +0.000 F 
ATOM     25  F   UNL     1      36.854  32.239  50.503  0.00  0.00    +0.000 F 
ATOM     26  F   UNL     1      37.173  30.478  51.855  0.00  0.00    +0.000 F 
ENDBRANCH   2  23
TORSDOF 3
