REMARK  Name = 
REMARK  4 active torsions:
REMARK  status: ('A' for Active; 'I' for Inactive)
REMARK    1  A    between atoms: C_2  and  C_11
REMARK    2  A    between atoms: C_14  and  C_16
REMARK    3  A    between atoms: C_16  and  C_31
REMARK    4  A    between atoms: S_27  and  C_30
REMARK                            x       y       z     vdW  Elec       q    Type
REMARK                         _______ _______ _______ _____ _____    ______ ____
ROOT
ATOM      1  C   UNL     1      35.618  29.338  48.751  0.00  0.00    +0.000 A 
ATOM      2  C   UNL     1      35.586  30.069  47.527  0.00  0.00    +0.000 A 
ATOM      3  C   UNL     1      34.458  29.925  46.716  0.00  0.00    +0.000 A 
ATOM      4  N   UNL     1      33.473  29.106  47.146  0.00  0.00    +0.000 NA
ATOM      5  C   UNL     1      33.514  28.427  48.296  0.00  0.00    +0.000 A 
ATOM      6  N   UNL     1      34.595  28.550  49.097  0.00  0.00    +0.000 NA
ATOM      7  H   UNL     1      36.392  29.319  49.497  0.00  0.00    +0.000 HD
ATOM      8  H   UNL     1      34.492  30.493  45.818  0.00  0.00    +0.000 HD
ENDROOT
BRANCH   2  10
ATOM      9  C   UNL     1      37.474  31.346  48.373  0.00  0.00    +0.000 A 
ATOM     10  C   UNL     1      36.762  30.878  47.285  0.00  0.00    +0.000 A 
ATOM     11  C   UNL     1      37.228  31.219  46.019  0.00  0.00    +0.000 A 
ATOM     12  C   UNL     1      38.373  32.005  45.902  0.00  0.00    +0.000 A 
ATOM     13  N   UNL     1      39.046  32.486  44.840  0.00  0.00    +0.000 N 
ATOM     14  C   UNL     1      40.095  33.197  45.251  0.00  0.00    +0.000 A 
ATOM     15  N   UNL     1      40.111  33.183  46.598  0.00  0.00    +0.000 NA
ATOM     16  C   UNL     1      39.063  32.457  47.004  0.00  0.00    +0.000 A 
ATOM     17  C   UNL     1      38.602  32.120  48.250  0.00  0.00    +0.000 A 
ATOM     18  H   UNL     1      37.223  31.159  49.424  0.00  0.00    +0.000 HD
ATOM     19  H   UNL     1      36.684  30.863  45.155  0.00  0.00    +0.000 HD
ATOM     20  H   UNL     1      38.735  32.291  43.860  0.00  0.00    +0.000 HD
ATOM     21  H   UNL     1      40.768  33.672  44.545  0.00  0.00    +0.000 HD
ATOM     22  H   UNL     1      39.178  32.499  49.099  0.00  0.00    +0.000 HD
ENDBRANCH   2  10
BRANCH   5  23
ATOM     23  C   UNL     1      32.377  27.561  48.648  0.00  0.00    +0.000 C 
ATOM     24  H   UNL     1      32.265  27.547  49.774  0.00  0.00    +0.000 HD
ATOM     25  H   UNL     1      31.414  27.945  48.227  0.00  0.00    +0.000 HD
BRANCH  23  27
ATOM     26  C   UNL     1      33.931  25.633  48.096  0.00  0.00    +0.000 A 
ATOM     27  C   UNL     1      32.676  26.169  48.244  0.00  0.00    +0.000 A 
ATOM     28  C   UNL     1      31.621  25.290  47.998  0.00  0.00    +0.000 A 
ATOM     29  H   UNL     1      30.580  25.635  48.093  0.00  0.00    +0.000 HD
ATOM     30  C   UNL     1      31.742  23.967  47.632  0.00  0.00    +0.000 A 
ATOM     31  H   UNL     1      30.878  23.343  47.458  0.00  0.00    +0.000 HD
ATOM     32  C   UNL     1      32.996  23.436  47.487  0.00  0.00    +0.000 A 
ATOM     33  C   UNL     1      34.056  24.288  47.724  0.00  0.00    +0.000 A 
BRANCH  26  35
ATOM     34  H   UNL     1      36.332  26.029  47.401  0.00  0.00    +0.000 HD
ATOM     35  S   UNL     1      35.390  26.523  48.322  0.00  0.00    +0.000 S 
ATOM     36  O   UNL     1      35.248  27.966  47.952  0.00  0.00    +0.000 OA
ATOM     37  O   UNL     1      36.002  26.336  49.695  0.00  0.00    +0.000 OA
ENDBRANCH  26  35
ENDBRANCH  23  27
ENDBRANCH   5  23
TORSDOF 4
