
     RDKit          3D

 49 51  0  0  0  0  0  0  0  0999 V2000
   30.3656   26.1987   47.4411 O   0  0  0  0  0  0  0  0  0  0  0  0
   30.6145   27.6881   47.6625 P   0  0  2  0  0  0  0  0  0  0  0  0
   31.0827   28.4564   46.2240 O   0  0  0  0  0  0  0  0  0  0  0  0
   31.9229   27.7529   48.7569 O   0  0  0  0  0  0  0  0  0  0  0  0
   33.0749   27.3272   48.0798 C   0  0  0  0  0  0  0  0  0  0  0  0
   34.5540   28.4402   49.7095 C   0  0  0  0  0  0  0  0  0  0  0  0
   34.2763   28.0985   48.4788 C   0  0  0  0  0  0  0  0  0  0  0  0
   37.3268   30.1753   51.3523 C   0  0  0  0  0  0  0  0  0  0  0  0
   38.0761   30.6266   50.2564 C   0  0  0  0  0  0  0  0  0  0  0  0
   37.6200   30.3305   48.9714 C   0  0  0  0  0  0  0  0  0  0  0  0
   36.4528   29.6082   48.9146 N   0  0  0  0  0  0  0  0  0  0  0  0
   35.7692   29.1970   49.9637 C   0  0  0  0  0  0  0  0  0  0  0  0
   36.2121   29.4842   51.1830 N   0  0  0  0  0  0  0  0  0  0  0  0
   29.2356   28.4144   48.3047 O   0  0  0  0  0  0  0  0  0  0  0  0
   27.1918   28.4168   49.3695 C   0  0  0  0  0  0  0  0  0  0  0  0
   28.5457   28.0446   49.4321 C   0  0  0  0  0  0  0  0  0  0  0  0
   29.0652   27.3873   50.5261 C   0  0  0  0  0  0  0  0  0  0  0  0
   28.2371   27.0901   51.5807 C   0  0  0  0  0  0  0  0  0  0  0  0
   26.9208   27.4503   51.5251 C   0  0  0  0  0  0  0  0  0  0  0  0
   26.3655   28.1054   50.4546 C   0  0  0  0  0  0  0  0  0  0  0  0
   26.4641   29.2466   48.0224 S   0  0  0  0  0  0  0  0  0  0  0  0
   27.1662   30.5155   47.7261 O   0  0  0  0  0  0  0  0  0  0  0  0
   26.5263   28.3134   46.8013 O   0  0  0  0  0  0  0  0  0  0  0  0
   30.5052   29.2487   46.0568 H   0  0  0  0  0  0  0  0  0  0  0  0
   32.8946   27.3775   46.9979 H   0  0  0  0  0  0  0  0  0  0  0  0
   33.2662   26.2637   48.3317 H   0  0  0  0  0  0  0  0  0  0  0  0
   33.8559   28.1357   50.4776 H   0  0  0  0  0  0  0  0  0  0  0  0
   34.9450   28.3750   47.6453 H   0  0  0  0  0  0  0  0  0  0  0  0
   37.6243   30.3705   52.3790 H   0  0  0  0  0  0  0  0  0  0  0  0
   38.9964   31.1975   50.4339 H   0  0  0  0  0  0  0  0  0  0  0  0
   38.1677   30.6598   48.1188 H   0  0  0  0  0  0  0  0  0  0  0  0
   30.1182   27.1366   50.4928 H   0  0  0  0  0  0  0  0  0  0  0  0
   28.7349   26.5745   52.3907 H   0  0  0  0  0  0  0  0  0  0  0  0
   26.3378   27.1721   52.4116 H   0  0  0  0  0  0  0  0  0  0  0  0
   25.3375   28.3272   50.5573 H   0  0  0  0  0  0  0  0  0  0  0  0
   26.3372   31.2424   46.0670 H   0  0  0  0  0  0  0  0  0  0  0  0
   25.0267   31.5620   46.2907 S   0  0  0  0  0  0  0  0  0  0  0  0
   24.2559   31.5898   44.9988 O   0  0  0  0  0  0  0  0  0  0  0  0
   25.0154   32.9997   46.7910 O   0  0  0  0  0  0  0  0  0  0  0  0
   24.2649   30.5604   47.4815 C   0  0  0  0  0  0  0  0  0  0  0  0
   24.7841   29.5608   48.2891 C   0  0  0  0  0  0  0  0  0  0  0  0
   23.9849   28.8988   49.1944 C   0  0  0  0  0  0  0  0  0  0  0  0
   24.4613   28.1396   49.7820 H   0  0  0  0  0  0  0  0  0  0  0  0
   22.6356   29.2000   49.3364 C   0  0  0  0  0  0  0  0  0  0  0  0
   22.0182   28.6724   50.0515 H   0  0  0  0  0  0  0  0  0  0  0  0
   22.1009   30.1932   48.5390 C   0  0  0  0  0  0  0  0  0  0  0  0
   22.9060   30.8688   47.6190 C   0  0  0  0  0  0  0  0  0  0  0  0
   21.0497   30.4075   48.6690 H   0  0  0  0  0  0  0  0  0  0  0  0
   22.3421   31.6297   47.0579 H   0  0  0  0  0  0  0  0  0  0  0  0
  2  1  2  0
  2 14  1  1
  2  4  1  0
  3  2  1  0
  5  7  1  0
  5  4  1  0
  6 12  1  0
  7  6  2  0
  9  8  2  0
 10  9  1  0
 11 10  2  0
 11 12  1  0
 12 13  2  0
 13  8  1  0
 14 16  1  0
 15 16  1  0
 15 20  2  0
 16 17  2  0
 17 18  1  0
 19 18  2  0
 20 19  1  0
 21 15  1  0
 22 21  2  0
 23 21  2  0
  3 24  1  0
  5 25  1  0
  5 26  1  0
  6 27  1  0
  7 28  1  0
  8 29  1  0
  9 30  1  0
 10 31  1  0
 17 32  1  0
 18 33  1  0
 19 34  1  0
 20 35  1  0
 36 37  1  0
 37 38  2  0
 37 39  2  0
 37 40  1  0
 40 41  2  0
 41 42  1  0
 42 43  1  0
 42 44  2  0
 44 45  1  0
 44 46  1  0
 46 47  2  0
 47 40  1  0
 46 48  1  0
 47 49  1  0
 21 41  1  0
M  ISO  8  24   3  25   8  26   8  29  14  30  14  31  14  32  14  33  14
M  ISO  5  34  14  35  14  36  12  43  15  45  16
M  END
>  <DihAtoms>  (1) 
14,20,40,39

>  <DihDeg>  (1) 
-64.46392690908465

$$$$
