
 OpenBabel03272507193D

 33 35  0  0  1  0  0  0  0  0999 V2000
   38.0180   31.1390   49.7550 C   0  0  0  0  0  0  0  0  0  0  0  0
   38.3460   32.4740   49.8860 C   0  0  0  0  0  0  0  0  0  0  0  0
   38.5120   33.1730   48.6940 C   0  0  0  0  0  0  0  0  0  0  0  0
   38.3470   32.5260   47.4880 N   0  0  0  0  0  0  0  0  0  0  0  0
   38.0280   31.2200   47.4310 C   0  0  0  0  0  0  0  0  0  0  0  0
   37.8570   30.4990   48.5650 N   0  0  0  0  0  0  0  0  0  0  0  0
   38.4600   32.9210   50.8620 H   0  0  0  0  0  0  0  0  0  0  0  0
   38.7670   34.2140   48.7610 H   0  0  0  0  0  0  0  0  0  0  0  0
   38.8540   31.2710   44.9950 C   0  0  0  0  0  0  0  0  0  0  0  0
   37.9700   31.0410   46.0080 C   0  0  0  0  0  0  0  0  0  0  0  0
   36.7100   30.5200   45.6890 C   0  0  0  0  0  0  0  0  0  0  0  0
   35.8080   30.2340   46.2450 H   0  0  0  0  0  0  0  0  0  0  0  0
   36.4290   30.2650   44.3410 C   0  0  0  0  0  0  0  0  0  0  0  0
   35.5140   29.8670   43.9240 H   0  0  0  0  0  0  0  0  0  0  0  0
   37.3900   30.5300   43.3910 C   0  0  0  0  0  3  0  0  0  0  0  0
   38.6360   31.0400   43.6600 C   0  0  0  0  0  3  0  0  0  0  0  0
   40.1730   32.3690   46.8680 H   0  0  0  0  0  0  0  0  0  0  0  0
   40.3590   31.9450   45.5790 S   0  0  0  0  0  0  0  0  0  0  0  0
   40.5870   33.1730   44.7010 O   0  0  0  0  0  0  0  0  0  0  0  0
   41.4880   30.9970   45.4620 O   0  0  0  0  0  0  0  0  0  0  0  0
   37.7890   30.3900   51.0330 C   0  0  1  0  0  0  0  0  0  0  0  0
   36.5440   29.6700   51.2920 C   0  0  2  0  0  0  0  0  0  0  0  0
   37.7120   28.8650   50.8100 C   0  0  0  0  0  0  0  0  0  0  0  0
   38.4530   30.6950   51.8690 H   0  0  0  0  0  0  0  0  0  0  0  0
   36.2440   29.6920   52.3850 H   0  0  0  0  0  0  0  0  0  0  0  0
   37.6710   28.4890   49.7680 H   0  0  0  0  0  0  0  0  0  0  0  0
   38.2950   28.2590   51.5180 H   0  0  0  0  0  0  0  0  0  0  0  0
   35.4820   29.9060   50.4310 O   0  0  0  0  0  0  0  0  0  0  0  0
   34.4690   29.0820   50.0630 C   0  0  0  0  0  0  0  0  0  0  0  0
   34.6730   28.0370   49.4220 O   0  0  0  0  0  0  0  0  0  0  0  0
   33.2650   29.6190   50.5180 N   0  0  0  0  0  0  0  0  0  0  0  0
   32.8840   30.5800   50.3690 H   0  0  0  0  0  0  0  0  0  0  0  0
   32.3480   29.5830   51.0310 H   0  0  0  0  0  0  0  0  0  0  0  0
  1  2  1  0  0  0  0
  1 21  1  0  0  0  0
  2  7  1  0  0  0  0
  3  8  1  0  0  0  0
  3  2  2  0  0  0  0
  4  3  1  0  0  0  0
  5  4  2  0  0  0  0
  5  6  1  0  0  0  0
  6  1  2  0  0  0  0
  9 18  1  0  0  0  0
  9 10  1  0  0  0  0
 10  5  1  0  0  0  0
 11 10  2  0  0  0  0
 11 12  1  0  0  0  0
 13 11  1  0  0  0  0
 14 13  1  0  0  0  0
 15 16  1  0  0  0  0
 15 13  2  0  0  0  0
 16  9  2  0  0  0  0
 18 17  1  0  0  0  0
 19 18  2  0  0  0  0
 20 18  2  0  0  0  0
 21 22  1  0  0  0  0
 21 24  1  1  0  0  0
 22 25  1  1  0  0  0
 23 21  1  0  0  0  0
 23 22  1  0  0  0  0
 23 27  1  0  0  0  0
 26 23  1  0  0  0  0
 28 22  1  0  0  0  0
 29 28  1  0  0  0  0
 29 31  1  0  0  0  0
 30 29  2  0  0  0  0
 31 33  1  0  0  0  0
 32 31  1  0  0  0  0
M  END
>  <minimizedAffinity>
-5.97108889

>  <minimizedRMSD>
1.883968

$$$$
