
 OpenBabel03272510163D

 31 33  0  0  0  0  0  0  0  0999 V2000
   37.2120   29.4270   51.0720 Br  0  0  0  0  0  0  0  0  0  0  0  0
   35.9400   29.3710   49.6420 C   0  0  0  0  0  0  0  0  0  0  0  0
   36.0210   30.2540   48.5900 C   0  0  0  0  0  0  0  0  0  0  0  0
   35.0710   30.1500   47.6020 C   0  0  0  0  0  0  0  0  0  0  0  0
   34.0460   29.2060   47.6190 C   0  0  0  0  0  0  0  0  0  0  0  0
   34.0110   28.3520   48.6890 C   0  0  0  0  0  0  0  0  0  0  0  0
   34.9510   28.4330   49.6920 C   0  0  0  0  0  0  0  0  0  0  0  0
   35.1830   30.8800   46.7850 H   0  0  0  0  0  0  0  0  0  0  0  0
   33.2020   27.6350   48.6620 H   0  0  0  0  0  0  0  0  0  0  0  0
   34.8680   27.7250   50.5150 H   0  0  0  0  0  0  0  0  0  0  0  0
   38.0160   33.1890   49.4450 C   0  0  0  0  0  0  0  0  0  0  0  0
   39.0550   33.1820   48.4780 C   0  0  0  0  0  0  0  0  0  0  0  0
   39.0470   32.1520   47.5410 C   0  0  0  0  0  0  0  0  0  0  0  0
   38.0550   31.2180   47.5980 N   0  0  0  0  0  0  0  0  0  0  0  0
   37.0810   31.2590   48.5340 C   0  0  0  0  0  0  0  0  0  0  0  0
   37.0750   32.2490   49.4490 N   0  0  0  0  0  0  0  0  0  0  0  0
   37.9480   33.9610   50.2150 H   0  0  0  0  0  0  0  0  0  0  0  0
   39.7990   33.9610   48.5070 H   0  0  0  0  0  0  0  0  0  0  0  0
   39.8290   32.1180   46.7890 H   0  0  0  0  0  0  0  0  0  0  0  0
   32.8860   28.2760   45.5860 C   0  0  0  0  0  0  0  0  0  0  0  0
   33.1490   29.2720   46.4710 C   0  0  0  0  0  0  0  0  0  0  0  0
   32.4910   30.4880   46.2560 C   0  0  0  0  0  0  0  0  0  0  0  0
   32.6440   31.3510   46.9220 H   0  0  0  0  0  0  0  0  0  0  0  0
   31.6220   30.7230   45.2320 C   0  0  0  0  0  0  0  0  0  0  0  0
   31.1280   31.6720   45.0900 H   0  0  0  0  0  0  0  0  0  0  0  0
   31.3590   29.7140   44.3410 C   0  0  0  0  0  3  0  0  0  0  0  0
   31.9960   28.5120   44.5370 C   0  0  0  0  0  3  0  0  0  0  0  0
   34.8710   26.9250   46.4330 H   0  0  0  0  0  0  0  0  0  0  0  0
   33.6760   26.7570   45.8180 S   0  0  0  0  0  0  0  0  0  0  0  0
   32.8120   25.7210   46.4830 O   0  0  0  0  0  0  0  0  0  0  0  0
   33.9920   26.2200   44.4280 O   0  0  0  0  0  0  0  0  0  0  0  0
  2  7  1  0  0  0  0
  2  1  1  0  0  0  0
  3  2  2  0  0  0  0
  4  5  2  0  0  0  0
  4  3  1  0  0  0  0
  5  6  1  0  0  0  0
  6  7  2  0  0  0  0
  7 10  1  0  0  0  0
  8  4  1  0  0  0  0
  9  6  1  0  0  0  0
 11 16  1  0  0  0  0
 11 17  1  0  0  0  0
 12 18  1  0  0  0  0
 12 11  2  0  0  0  0
 13 14  2  0  0  0  0
 13 12  1  0  0  0  0
 14 15  1  0  0  0  0
 15  3  1  0  0  0  0
 15 16  2  0  0  0  0
 19 13  1  0  0  0  0
 20 29  1  0  0  0  0
 20 21  1  0  0  0  0
 21  5  1  0  0  0  0
 22 21  2  0  0  0  0
 22 23  1  0  0  0  0
 24 22  1  0  0  0  0
 25 24  1  0  0  0  0
 26 27  1  0  0  0  0
 26 24  2  0  0  0  0
 27 20  2  0  0  0  0
 29 28  1  0  0  0  0
 29 30  2  0  0  0  0
 31 29  2  0  0  0  0
M  END
>  <minimizedAffinity>
-5.83984518

>  <minimizedRMSD>
0.660572469

$$$$
