
 OpenBabel03272501333D

 30 32  0  0  1  0  0  0  0  0999 V2000
   36.3350   30.9320   46.9720 C   0  0  2  0  0  0  0  0  0  0  0  0
   36.8270   29.4920   46.5670 C   0  0  0  0  0  0  0  0  0  0  0  0
   37.0030   30.7260   45.7120 C   0  0  2  0  0  0  0  0  0  0  0  0
   35.2220   30.8830   47.1140 H   0  0  0  0  0  0  0  0  0  0  0  0
   37.6540   29.0650   47.1160 H   0  0  0  0  0  0  0  0  0  0  0  0
   36.0040   28.7910   46.3780 H   0  0  0  0  0  0  0  0  0  0  0  0
   36.3020   30.6490   44.8010 H   0  0  0  0  0  0  0  0  0  0  0  0
   38.6600   31.4480   44.0040 C   0  0  0  0  0  0  0  0  0  0  0  0
   38.3680   31.0390   45.3130 C   0  0  0  0  0  0  0  0  0  0  0  0
   39.4940   30.9500   46.1070 C   0  0  0  0  0  0  0  0  0  0  0  0
   39.4190   30.6290   47.1170 H   0  0  0  0  0  0  0  0  0  0  0  0
   40.7810   31.2260   45.6950 C   0  0  0  0  0  0  0  0  0  0  0  0
   41.6350   31.1430   46.3510 H   0  0  0  0  0  0  0  0  0  0  0  0
   40.9440   31.6210   44.3830 C   0  0  0  0  0  0  0  0  0  0  0  0
   39.9030   31.7480   43.4890 C   0  0  0  0  0  0  0  0  0  0  0  0
   37.6930   31.9290   41.6490 H   0  0  0  0  0  0  0  0  0  0  0  0
   37.2790   31.5940   42.9060 S   0  0  0  0  0  0  0  0  0  0  0  0
   36.3640   32.7060   43.3720 O   0  0  0  0  0  0  0  0  0  0  0  0
   36.5360   30.3000   42.7900 O   0  0  0  0  0  0  0  0  0  0  0  0
   36.9990   31.4000   48.2100 C   0  0  0  0  0  0  0  0  0  0  0  0
   37.7620   32.3930   48.0790 O   0  0  0  0  0  0  0  0  0  0  0  0
   37.5390   30.0540   51.6510 C   0  0  0  0  0  0  0  0  0  0  0  0
   37.7270   30.7300   50.4530 C   0  0  0  0  0  0  0  0  0  0  0  0
   36.7530   30.7140   49.4510 C   0  0  0  0  0  0  0  0  0  0  0  0
   35.6470   30.0220   49.7090 N   0  0  0  0  0  0  0  0  0  0  0  0
   35.4740   29.3660   50.8850 C   0  0  0  0  0  0  0  0  0  0  0  0
   36.3930   29.3690   51.8550 N   0  0  0  0  0  0  0  0  0  0  0  0
   38.3740   30.1520   52.3380 H   0  0  0  0  0  0  0  0  0  0  0  0
   38.6330   31.2950   50.2440 H   0  0  0  0  0  0  0  0  0  0  0  0
   34.5620   28.8170   51.0540 H   0  0  0  0  0  0  0  0  0  0  0  0
  1  4  1  6  0  0  0
  1 20  1  0  0  0  0
  2  1  1  0  0  0  0
  2  5  1  0  0  0  0
  3  7  1  6  0  0  0
  3  2  1  0  0  0  0
  3  1  1  0  0  0  0
  6  2  1  0  0  0  0
  8  9  1  0  0  0  0
  9  3  1  0  0  0  0
  9 10  2  0  0  0  0
 10 11  1  0  0  0  0
 12 10  1  0  0  0  0
 12 13  1  0  0  0  0
 14 12  2  0  0  0  0
 15  8  2  0  0  0  0
 15 14  1  0  0  0  0
 16 17  1  0  0  0  0
 17 18  2  0  0  0  0
 17  8  1  0  0  0  0
 19 17  2  0  0  0  0
 20 24  1  0  0  0  0
 21 20  2  0  0  0  0
 22 27  1  0  0  0  0
 22 28  1  0  0  0  0
 23 22  2  0  0  0  0
 24 25  2  0  0  0  0
 24 23  1  0  0  0  0
 25 26  1  0  0  0  0
 26 30  1  0  0  0  0
 26 27  2  0  0  0  0
 29 23  1  0  0  0  0
M  END
>  <minimizedAffinity>
-3.91165113

>  <minimizedRMSD>
3.39061069

$$$$
