
     RDKit          3D

 35 37  0  0  0  0  0  0  0  0999 V2000
   36.7566   30.7736   50.7093 C   0  0  1  0  0  0  0  0  0  0  0  0
   36.0267   29.5162   50.8510 C   0  0  2  0  0  0  0  0  0  0  0  0
   37.4673   29.5213   51.2625 C   0  0  0  0  0  0  0  0  0  0  0  0
   37.3262   31.2134   49.3929 C   0  0  0  0  0  0  0  0  0  0  0  0
   38.3264   32.1635   49.4533 C   0  0  0  0  0  0  0  0  0  0  0  0
   38.8169   32.5977   48.2249 C   0  0  0  0  0  0  0  0  0  0  0  0
   38.3024   32.0805   47.0563 N   0  0  0  0  0  0  0  0  0  0  0  0
   37.3261   31.1538   47.0694 C   0  0  0  0  0  0  0  0  0  0  0  0
   36.8178   30.7004   48.2387 N   0  0  0  0  0  0  0  0  0  0  0  0
   35.6571   28.8604   49.6863 O   0  0  0  0  0  0  0  0  0  0  0  0
   34.4406   28.3919   49.3080 C   0  0  0  0  0  0  0  0  0  0  0  0
   34.3188   27.3926   48.5796 O   0  0  0  0  0  0  0  0  0  0  0  0
   33.4540   29.2059   49.8638 N   0  0  0  0  0  0  0  0  0  0  0  0
   36.6301   31.5908   51.4496 H   0  0  0  0  0  0  0  0  0  0  0  0
   35.1885   29.5800   51.6112 H   0  0  0  0  0  0  0  0  0  0  0  0
   38.1831   28.9890   50.6042 H   0  0  0  0  0  0  0  0  0  0  0  0
   37.7369   29.5688   52.3283 H   0  0  0  0  0  0  0  0  0  0  0  0
   38.6847   32.5271   50.4028 H   0  0  0  0  0  0  0  0  0  0  0  0
   39.5960   33.3369   48.2375 H   0  0  0  0  0  0  0  0  0  0  0  0
   33.3598   30.2451   49.8076 H   0  0  0  0  0  0  0  0  0  0  0  0
   32.5788   29.3867   50.4183 H   0  0  0  0  0  0  0  0  0  0  0  0
   39.2822   32.9573   45.8187 H   0  0  0  0  0  0  0  0  0  0  0  0
   38.2224   33.2235   44.9936 S   0  0  0  0  0  0  0  0  0  0  0  0
   37.1584   33.9585   45.8050 O   0  0  0  0  0  0  0  0  0  0  0  0
   38.6218   34.0160   43.8101 O   0  0  0  0  0  0  0  0  0  0  0  0
   37.4642   31.7075   44.5606 C   0  0  0  0  0  0  0  0  0  0  0  0
   37.1492   30.9607   45.6565 C   0  0  0  0  0  0  0  0  0  0  0  0
   36.5144   29.7275   45.4666 C   0  0  0  0  0  0  0  0  0  0  0  0
   36.1433   28.9211   46.1094 H   0  0  0  0  0  0  0  0  0  0  0  0
   36.2392   29.3305   44.1521 C   0  0  0  0  0  0  0  0  0  0  0  0
   35.7587   28.4169   43.8289 H   0  0  0  0  0  0  0  0  0  0  0  0
   36.5978   30.1555   43.1094 C   0  0  0  0  0  0  0  0  0  0  0  0
   37.2205   31.3710   43.2525 C   0  0  0  0  0  0  0  0  0  0  0  0
   36.4057   29.8909   42.0709 H   0  0  0  0  0  0  0  0  0  0  0  0
   37.5240   32.0571   42.4798 H   0  0  0  0  0  0  0  0  0  0  0  0
  1  2  1  0
  1  3  1  0
  2  3  1  0
  4  5  2  0
  4  1  1  0
  6  5  1  0
  7  6  2  0
  8  7  1  0
  8  9  2  0
  9  4  1  0
 10  2  1  0
 11 10  1  0
 11 13  1  0
 12 11  2  0
  1 14  1  1
  2 15  1  1
  3 16  1  0
  3 17  1  0
  5 18  1  0
  6 19  1  0
 13 20  1  0
 13 21  1  0
 22 23  1  0
 23 24  2  0
 23 25  2  0
 23 26  1  0
 26 27  2  0
 27 28  1  0
 28 29  1  0
 28 30  2  0
 30 31  1  0
 30 32  1  0
 32 33  2  0
 33 26  1  0
 32 34  1  0
 33 35  1  0
  8 27  1  0
M  ISO  8  14  13  15  13  16  13  17  13  18  14  19  14  22  12  29  15
M  ISO  1  31  16
M  END
>  <DihAtoms>  (1) 
6,7,26,25

>  <DihDeg>  (1) 
174.95776153199392

$$$$
