
     RDKit          3D

 45 48  0  0  0  0  0  0  0  0999 V2000
   38.9557   32.3751   47.7933 C   0  0  2  0  0  0  0  0  0  0  0  0
   37.9969   32.7492   48.9720 C   0  0  2  0  0  0  0  0  0  0  0  0
   38.8876   33.5492   49.7977 C   0  0  0  0  0  0  0  0  0  0  0  0
   39.7317   34.2716   48.9598 O   0  0  0  0  0  0  0  0  0  0  0  0
   39.6207   33.7756   47.6986 C   0  0  0  0  0  0  0  0  0  0  0  0
   37.3680   29.6935   51.0854 C   0  0  0  0  0  0  0  0  0  0  0  0
   38.0342   30.8343   50.5596 C   0  0  0  0  0  0  0  0  0  0  0  0
   37.3692   31.5894   49.5500 C   0  0  0  0  0  0  0  0  0  0  0  0
   36.1211   31.1852   49.1309 N   0  0  0  0  0  0  0  0  0  0  0  0
   35.5362   30.1025   49.6579 C   0  0  0  0  0  0  0  0  0  0  0  0
   36.1362   29.3551   50.6225 N   0  0  0  0  0  0  0  0  0  0  0  0
   38.2762   32.1394   46.6440 O   0  0  0  0  0  0  0  0  0  0  0  0
   40.9499   31.2468   45.3820 Cl  0  0  0  0  0  0  0  0  0  0  0  0
   39.3757   30.6826   44.9065 C   0  0  0  0  0  0  0  0  0  0  0  0
   38.3309   31.2431   45.6317 C   0  0  0  0  0  0  0  0  0  0  0  0
   37.0646   30.8114   45.2618 C   0  0  0  0  0  0  0  0  0  0  0  0
   36.8628   29.8930   44.2475 C   0  0  0  0  0  0  0  0  0  0  0  0
   37.9329   29.3757   43.5689 C   0  0  0  0  0  0  0  0  0  0  0  0
   39.1937   29.7762   43.9048 C   0  0  0  0  0  0  0  0  0  0  0  0
   39.7179   31.6611   48.1109 H   0  0  0  0  0  0  0  0  0  0  0  0
   37.2075   33.3753   48.4980 H   0  0  0  0  0  0  0  0  0  0  0  0
   39.5551   32.9838   50.4768 H   0  0  0  0  0  0  0  0  0  0  0  0
   38.3343   34.2514   50.4874 H   0  0  0  0  0  0  0  0  0  0  0  0
   40.5313   33.7559   47.1024 H   0  0  0  0  0  0  0  0  0  0  0  0
   38.8689   34.4144   47.1581 H   0  0  0  0  0  0  0  0  0  0  0  0
   37.8448   29.1044   51.8482 H   0  0  0  0  0  0  0  0  0  0  0  0
   38.9966   31.0865   50.9301 H   0  0  0  0  0  0  0  0  0  0  0  0
   34.5519   29.8400   49.2816 H   0  0  0  0  0  0  0  0  0  0  0  0
   36.1336   31.1335   45.7086 H   0  0  0  0  0  0  0  0  0  0  0  0
   35.8908   29.5358   43.9341 H   0  0  0  0  0  0  0  0  0  0  0  0
   37.8725   28.6562   42.7654 H   0  0  0  0  0  0  0  0  0  0  0  0
   37.9258   29.5936   41.7296 H   0  0  0  0  0  0  0  0  0  0  0  0
   38.8768   28.9763   40.9864 S   0  0  0  0  0  0  0  0  0  0  0  0
   38.4411   27.5795   40.6960 O   0  0  0  0  0  0  0  0  0  0  0  0
   39.1803   29.6804   39.6962 O   0  0  0  0  0  0  0  0  0  0  0  0
   40.3662   28.8780   41.9059 C   0  0  0  0  0  0  0  0  0  0  0  0
   40.3877   29.2719   43.2305 C   0  0  0  0  0  0  0  0  0  0  0  0
   41.5979   29.1694   43.9027 C   0  0  0  0  0  0  0  0  0  0  0  0
   41.5896   29.4830   44.9361 H   0  0  0  0  0  0  0  0  0  0  0  0
   42.7371   28.7044   43.3127 C   0  0  0  0  0  0  0  0  0  0  0  0
   43.6557   28.6448   43.8835 H   0  0  0  0  0  0  0  0  0  0  0  0
   42.7095   28.3122   41.9887 C   0  0  0  0  0  0  0  0  0  0  0  0
   41.5126   28.4043   41.2931 C   0  0  0  0  0  0  0  0  0  0  0  0
   43.6285   27.9561   41.5762 H   0  0  0  0  0  0  0  0  0  0  0  0
   41.5496   28.0878   40.2743 H   0  0  0  0  0  0  0  0  0  0  0  0
  1  2  1  0
  2  8  1  0
  2  3  1  0
  4  3  1  0
  5  1  1  0
  5  4  1  0
  7  6  2  0
  8  7  1  0
  9  8  2  0
  9 10  1  0
 10 11  2  0
 11  6  1  0
 12  1  1  0
 14 13  1  0
 14 15  2  0
 15 12  1  0
 16 15  1  0
 17 16  2  0
 18 19  2  0
 18 17  1  0
 19 14  1  0
  1 20  1  1
  2 21  1  6
  3 22  1  0
  3 23  1  0
  5 24  1  0
  5 25  1  0
  6 26  1  0
  7 27  1  0
 10 28  1  0
 16 29  1  0
 17 30  1  0
 18 31  1  0
 32 33  1  0
 33 34  2  0
 33 35  2  0
 33 36  1  0
 36 37  2  0
 37 38  1  0
 38 39  1  0
 38 40  2  0
 40 41  1  0
 40 42  1  0
 42 43  2  0
 43 36  1  0
 42 44  1  0
 43 45  1  0
 19 37  1  0
M  ISO  8  20  13  21  13  22  13  23  13  24  13  25  13  26  14  27  14
M  ISO  7  28  14  29  14  30  14  31  14  32  12  39  15  41  16
M  END
>  <DihAtoms>  (1) 
17,18,36,35

>  <DihDeg>  (1) 
90.0010631428386

$$$$
