
 OpenBabel03272507193D

 33 35  0  0  1  0  0  0  0  0999 V2000
   37.2020   31.1360   49.3520 C   0  0  0  0  0  0  0  0  0  0  0  0
   38.0810   32.2000   49.3260 C   0  0  0  0  0  0  0  0  0  0  0  0
   38.5130   32.5930   48.0620 C   0  0  0  0  0  0  0  0  0  0  0  0
   38.0590   31.9290   46.9430 N   0  0  0  0  0  0  0  0  0  0  0  0
   37.2010   30.8970   47.0400 C   0  0  0  0  0  0  0  0  0  0  0  0
   36.7550   30.4780   48.2480 N   0  0  0  0  0  0  0  0  0  0  0  0
   38.3980   32.6760   50.2410 H   0  0  0  0  0  0  0  0  0  0  0  0
   39.1980   33.4180   48.0080 H   0  0  0  0  0  0  0  0  0  0  0  0
   35.9930   30.1340   44.9010 C   0  0  0  0  0  0  0  0  0  0  0  0
   37.0430   30.5750   45.6490 C   0  0  0  0  0  0  0  0  0  0  0  0
   38.2740   30.7860   45.0150 C   0  0  0  0  0  0  0  0  0  0  0  0
   39.2720   31.1220   45.3190 H   0  0  0  0  0  0  0  0  0  0  0  0
   38.3530   30.5310   43.6410 C   0  0  0  0  0  0  0  0  0  0  0  0
   39.2190   30.6410   43.0020 H   0  0  0  0  0  0  0  0  0  0  0  0
   37.2340   30.0890   42.9710 C   0  0  0  0  0  3  0  0  0  0  0  0
   36.0110   29.8690   43.5540 C   0  0  0  0  0  3  0  0  0  0  0  0
   34.8450   30.2140   47.1650 H   0  0  0  0  0  0  0  0  0  0  0  0
   34.5520   29.8990   45.8650 S   0  0  0  0  0  0  0  0  0  0  0  0
   34.2850   28.3990   45.7840 O   0  0  0  0  0  0  0  0  0  0  0  0
   33.3960   30.6670   45.3520 O   0  0  0  0  0  0  0  0  0  0  0  0
   36.6940   30.7360   50.7050 C   0  0  1  0  0  0  0  0  0  0  0  0
   35.9970   29.4700   50.9230 C   0  0  2  0  0  0  0  0  0  0  0  0
   37.4510   29.5180   51.2760 C   0  0  0  0  0  0  0  0  0  0  0  0
   36.5790   31.5770   51.4200 H   0  0  0  0  0  0  0  0  0  0  0  0
   35.1870   29.5460   51.7120 H   0  0  0  0  0  0  0  0  0  0  0  0
   38.1520   28.9760   50.6090 H   0  0  0  0  0  0  0  0  0  0  0  0
   37.7620   29.6120   52.3270 H   0  0  0  0  0  0  0  0  0  0  0  0
   35.5950   28.7630   49.7980 O   0  0  0  0  0  0  0  0  0  0  0  0
   34.3510   28.3800   49.4190 C   0  0  0  0  0  0  0  0  0  0  0  0
   34.1510   27.3280   48.7900 O   0  0  0  0  0  0  0  0  0  0  0  0
   33.4340   29.3400   49.8490 N   0  0  0  0  0  0  0  0  0  0  0  0
   33.4480   30.3720   49.6860 H   0  0  0  0  0  0  0  0  0  0  0  0
   32.5650   29.6620   50.3450 H   0  0  0  0  0  0  0  0  0  0  0  0
  1 21  1  0  0  0  0
  2  1  1  0  0  0  0
  2  7  1  0  0  0  0
  3  2  2  0  0  0  0
  4  5  2  0  0  0  0
  4  3  1  0  0  0  0
  5  6  1  0  0  0  0
  6  1  2  0  0  0  0
  8  3  1  0  0  0  0
  9 10  1  0  0  0  0
  9 18  1  0  0  0  0
 10  5  1  0  0  0  0
 11 12  1  0  0  0  0
 11 10  2  0  0  0  0
 13 11  1  0  0  0  0
 14 13  1  0  0  0  0
 15 16  1  0  0  0  0
 15 13  2  0  0  0  0
 16  9  2  0  0  0  0
 18 17  1  0  0  0  0
 19 18  2  0  0  0  0
 20 18  2  0  0  0  0
 21 22  1  0  0  0  0
 21 23  1  0  0  0  0
 21 24  1  1  0  0  0
 22 23  1  0  0  0  0
 22 25  1  1  0  0  0
 23 27  1  0  0  0  0
 26 23  1  0  0  0  0
 28 22  1  0  0  0  0
 29 28  1  0  0  0  0
 29 31  1  0  0  0  0
 30 29  2  0  0  0  0
 31 33  1  0  0  0  0
 32 31  1  0  0  0  0
M  END
>  <minimizedAffinity>
-5.50431728

>  <minimizedRMSD>
0.965218306

$$$$
