
 OpenBabel03272509383D

 33 35  0  0  1  0  0  0  0  0999 V2000
   34.2770   28.3580   47.9030 C   0  0  0  0  0  0  0  0  0  0  0  0
   34.9980   28.0930   49.0730 C   0  0  0  0  0  0  0  0  0  0  0  0
   35.9330   29.0030   49.5880 C   0  0  0  0  0  0  0  0  0  0  0  0
   36.1450   30.2180   48.8990 C   0  0  0  0  0  0  0  0  0  0  0  0
   35.4190   30.4630   47.7370 C   0  0  0  0  0  0  0  0  0  0  0  0
   34.5000   29.5500   47.2460 C   0  0  0  0  0  0  0  0  0  0  0  0
   34.8410   27.1660   49.6070 H   0  0  0  0  0  0  0  0  0  0  0  0
   36.4820   28.7900   50.4890 H   0  0  0  0  0  0  0  0  0  0  0  0
   36.8730   30.9010   49.3190 H   0  0  0  0  0  0  0  0  0  0  0  0
   35.6580   31.4190   47.2910 H   0  0  0  0  0  0  0  0  0  0  0  0
   34.1700   29.9250   44.7050 C   0  0  0  0  0  0  0  0  0  0  0  0
   33.8480   30.0200   46.0430 C   0  0  0  0  0  0  0  0  0  0  0  0
   32.6830   30.7210   46.3800 C   0  0  0  0  0  0  0  0  0  0  0  0
   32.2710   30.8970   47.3840 H   0  0  0  0  0  0  0  0  0  0  0  0
   31.8830   31.3020   45.3880 C   0  0  0  0  0  0  0  0  0  0  0  0
   30.9760   31.8510   45.6050 H   0  0  0  0  0  0  0  0  0  0  0  0
   32.2280   31.1950   44.0570 C   0  0  0  0  0  3  0  0  0  0  0  0
   33.3760   30.5010   43.7400 C   0  0  0  0  0  3  0  0  0  0  0  0
   35.9000   28.1490   45.4580 H   0  0  0  0  0  0  0  0  0  0  0  0
   35.6270   28.9970   44.4220 S   0  0  0  0  0  0  0  0  0  0  0  0
   35.5690   28.1950   43.1600 O   0  0  0  0  0  0  0  0  0  0  0  0
   36.8270   29.9170   44.3180 O   0  0  0  0  0  0  0  0  0  0  0  0
   33.3510   27.3520   47.4190 C   0  0  2  0  0  3  0  0  0  0  0  0
   33.8820   26.5050   46.6070 O   0  0  0  0  0  1  0  0  0  0  0  0
   30.3790   27.7490   49.4500 C   0  0  0  0  0  0  0  0  0  0  0  0
   29.3530   27.1940   48.6700 C   0  0  0  0  0  0  0  0  0  0  0  0
   29.6890   26.6670   47.4200 C   0  0  0  0  0  0  0  0  0  0  0  0
   30.9980   26.7110   47.0010 N   0  0  0  0  0  0  0  0  0  0  0  0
   31.9430   27.2460   47.7720 C   0  0  0  0  0  0  0  0  0  0  0  0
   31.6200   27.7460   48.9610 N   0  0  0  0  0  0  0  0  0  0  0  0
   30.0290   28.1290   50.3960 H   0  0  0  0  0  0  0  0  0  0  0  0
   28.2940   27.1110   48.9050 H   0  0  0  0  0  0  0  0  0  0  0  0
   29.0200   26.2080   46.7050 H   0  0  0  0  0  0  0  0  0  0  0  0
  1  2  1  0  0  0  0
  2  3  2  0  0  0  0
  2  7  1  0  0  0  0
  3  8  1  0  0  0  0
  4  9  1  0  0  0  0
  4  3  1  0  0  0  0
  5  4  2  0  0  0  0
  6  5  1  0  0  0  0
  6  1  2  0  0  0  0
 10  5  1  0  0  0  0
 11 12  1  0  0  0  0
 12 13  2  0  0  0  0
 12  6  1  0  0  0  0
 13 14  1  0  0  0  0
 15 16  1  0  0  0  0
 15 13  1  0  0  0  0
 17 15  2  0  0  0  0
 18 17  1  0  0  0  0
 18 11  2  0  0  0  0
 20 11  1  0  0  0  0
 20 19  1  0  0  0  0
 21 20  2  0  0  0  0
 22 20  2  0  0  0  0
 23 24  1  6  0  0  0
 23 29  1  0  0  0  0
 23  1  1  0  0  0  0
 25 31  1  0  0  0  0
 26 32  1  0  0  0  0
 26 25  2  0  0  0  0
 27 26  1  0  0  0  0
 28 27  2  0  0  0  0
 28 29  1  0  0  0  0
 29 30  2  0  0  0  0
 30 25  1  0  0  0  0
 33 27  1  0  0  0  0
M  END
>  <minimizedAffinity>
-4.5679884

>  <minimizedRMSD>
3.75421095

$$$$
