
 OpenBabel03272506353D

 22 23  0  0  0  0  0  0  0  0999 V2000
   37.7650   25.2790   33.9390 C   0  0  0  0  0  0  0  0  0  0  0  0
   38.3000   25.5490   35.1820 C   0  0  0  0  0  0  0  0  0  0  0  0
   38.1390   26.8300   35.6870 C   0  0  0  0  0  0  0  0  0  0  0  0
   38.5690   27.0200   36.6690 H   0  0  0  0  0  0  0  0  0  0  0  0
   37.4800   27.8330   35.0160 C   0  0  0  0  0  0  0  0  0  0  0  0
   37.3800   28.8090   35.4440 H   0  0  0  0  0  0  0  0  0  0  0  0
   36.9390   27.5940   33.7790 C   0  0  0  0  0  3  0  0  0  0  0  0
   37.1000   26.3170   33.2800 C   0  0  0  0  0  3  0  0  0  0  0  0
   39.0570   23.1170   37.8190 C   0  0  0  0  0  0  0  0  0  0  0  0
   40.3040   22.6150   37.4480 C   0  0  0  0  0  0  0  0  0  0  0  0
   40.8880   23.1090   36.2940 C   0  0  0  0  0  0  0  0  0  0  0  0
   40.2190   24.0510   35.5880 N   0  0  0  0  0  0  0  0  0  0  0  0
   39.0110   24.5340   35.9510 C   0  0  0  0  0  0  0  0  0  0  0  0
   38.4610   24.0500   37.0650 N   0  0  0  0  0  0  0  0  0  0  0  0
   40.8710   21.8640   37.9820 H   0  0  0  0  0  0  0  0  0  0  0  0
   41.8350   22.7680   35.9570 H   0  0  0  0  0  0  0  0  0  0  0  0
   38.5770   22.5450   38.9920 O   0  0  0  0  0  0  0  0  0  0  0  0
   38.0640   21.6880   38.9370 H   0  0  0  0  0  0  0  0  0  0  0  0
   38.0340   22.6930   34.1410 H   0  0  0  0  0  0  0  0  0  0  0  0
   37.9180   23.6930   33.2240 S   0  0  0  0  0  0  0  0  0  0  0  0
   39.1360   23.7180   32.3110 O   0  0  0  0  0  0  0  0  0  0  0  0
   36.7610   23.3940   32.2800 O   0  0  0  0  0  0  0  0  0  0  0  0
  1  2  1  0  0  0  0
  2  3  2  0  0  0  0
  2 13  1  0  0  0  0
  3  4  1  0  0  0  0
  5  6  1  0  0  0  0
  5  3  1  0  0  0  0
  7  5  2  0  0  0  0
  8  7  1  0  0  0  0
  8  1  2  0  0  0  0
  9 17  1  0  0  0  0
 10  9  1  0  0  0  0
 10 15  1  0  0  0  0
 11 10  2  0  0  0  0
 12 13  2  0  0  0  0
 12 11  1  0  0  0  0
 13 14  1  0  0  0  0
 14  9  2  0  0  0  0
 16 11  1  0  0  0  0
 18 17  1  0  0  0  0
 20  1  1  0  0  0  0
 20 19  1  0  0  0  0
 21 20  2  0  0  0  0
 22 20  2  0  0  0  0
M  END
>  <minimizedAffinity>
-4.9715929

$$$$

 OpenBabel03272506353D

 22 23  0  0  0  0  0  0  0  0999 V2000
   37.9150   25.5240   34.3010 C   0  0  0  0  0  0  0  0  0  0  0  0
   38.2650   24.1920   34.3740 C   0  0  0  0  0  0  0  0  0  0  0  0
   37.8250   23.3550   33.3610 C   0  0  0  0  0  0  0  0  0  0  0  0
   38.1130   22.3080   33.4390 H   0  0  0  0  0  0  0  0  0  0  0  0
   37.0650   23.7850   32.2980 C   0  0  0  0  0  0  0  0  0  0  0  0
   36.7470   23.1020   31.5370 H   0  0  0  0  0  0  0  0  0  0  0  0
   36.7020   25.1020   32.2000 C   0  0  0  0  0  3  0  0  0  0  0  0
   37.1420   25.9330   33.2100 C   0  0  0  0  0  3  0  0  0  0  0  0
   39.1650   22.9250   37.6950 C   0  0  0  0  0  0  0  0  0  0  0  0
   40.5330   22.6760   37.5860 C   0  0  0  0  0  0  0  0  0  0  0  0
   41.1510   22.9420   36.3750 C   0  0  0  0  0  0  0  0  0  0  0  0
   40.3950   23.4280   35.3620 N   0  0  0  0  0  0  0  0  0  0  0  0
   39.0690   23.6670   35.4720 C   0  0  0  0  0  0  0  0  0  0  0  0
   38.4890   23.4070   36.6440 N   0  0  0  0  0  0  0  0  0  0  0  0
   41.1740   22.2880   38.3680 H   0  0  0  0  0  0  0  0  0  0  0  0
   42.1880   22.7740   36.2270 H   0  0  0  0  0  0  0  0  0  0  0  0
   38.6650   22.6190   38.9550 O   0  0  0  0  0  0  0  0  0  0  0  0
   38.3710   21.6810   39.1440 H   0  0  0  0  0  0  0  0  0  0  0  0
   38.2850   26.1730   36.8000 H   0  0  0  0  0  0  0  0  0  0  0  0
   38.4240   26.6520   35.5330 S   0  0  0  0  0  0  0  0  0  0  0  0
   37.6070   27.9250   35.3560 O   0  0  0  0  0  0  0  0  0  0  0  0
   39.8600   27.1090   35.3110 O   0  0  0  0  0  0  0  0  0  0  0  0
  1  2  1  0  0  0  0
  1 20  1  0  0  0  0
  2 13  1  0  0  0  0
  3  4  1  0  0  0  0
  3  2  2  0  0  0  0
  5  3  1  0  0  0  0
  6  5  1  0  0  0  0
  7  5  2  0  0  0  0
  7  8  1  0  0  0  0
  8  1  2  0  0  0  0
  9 17  1  0  0  0  0
 10  9  1  0  0  0  0
 10 15  1  0  0  0  0
 11 10  2  0  0  0  0
 12 13  2  0  0  0  0
 12 11  1  0  0  0  0
 13 14  1  0  0  0  0
 14  9  2  0  0  0  0
 16 11  1  0  0  0  0
 17 18  1  0  0  0  0
 20 19  1  0  0  0  0
 21 20  2  0  0  0  0
 22 20  2  0  0  0  0
M  END
>  <minimizedAffinity>
-4.73682022

$$$$

 OpenBabel03272506353D

 22 23  0  0  0  0  0  0  0  0999 V2000
   38.9720   24.9060   33.5840 C   0  0  0  0  0  0  0  0  0  0  0  0
   39.4820   25.3090   34.8010 C   0  0  0  0  0  0  0  0  0  0  0  0
   40.2840   26.4390   34.8210 C   0  0  0  0  0  0  0  0  0  0  0  0
   40.6750   26.7380   35.7920 H   0  0  0  0  0  0  0  0  0  0  0  0
   40.5920   27.1700   33.6980 C   0  0  0  0  0  0  0  0  0  0  0  0
   41.2170   28.0370   33.7590 H   0  0  0  0  0  0  0  0  0  0  0  0
   40.1000   26.7940   32.4750 C   0  0  0  0  0  3  0  0  0  0  0  0
   39.3020   25.6690   32.4590 C   0  0  0  0  0  3  0  0  0  0  0  0
   39.7590   22.8340   37.4920 C   0  0  0  0  0  0  0  0  0  0  0  0
   38.7080   23.1650   38.3460 C   0  0  0  0  0  0  0  0  0  0  0  0
   37.9010   24.2370   38.0020 C   0  0  0  0  0  0  0  0  0  0  0  0
   38.1760   24.9060   36.8580 N   0  0  0  0  0  0  0  0  0  0  0  0
   39.1960   24.5810   36.0330 C   0  0  0  0  0  0  0  0  0  0  0  0
   39.9640   23.5470   36.3770 N   0  0  0  0  0  0  0  0  0  0  0  0
   38.4540   22.6590   39.2690 H   0  0  0  0  0  0  0  0  0  0  0  0
   37.0860   24.5400   38.6100 H   0  0  0  0  0  0  0  0  0  0  0  0
   40.4930   21.7440   37.9450 O   0  0  0  0  0  0  0  0  0  0  0  0
   41.2440   21.8990   38.5880 H   0  0  0  0  0  0  0  0  0  0  0  0
   37.1830   23.2840   34.5680 H   0  0  0  0  0  0  0  0  0  0  0  0
   37.9520   23.4940   33.4640 S   0  0  0  0  0  0  0  0  0  0  0  0
   38.8560   22.2950   33.2120 O   0  0  0  0  0  0  0  0  0  0  0  0
   37.0690   23.5490   32.2240 O   0  0  0  0  0  0  0  0  0  0  0  0
  1  2  1  0  0  0  0
  2  3  2  0  0  0  0
  2 13  1  0  0  0  0
  3  4  1  0  0  0  0
  5  6  1  0  0  0  0
  5  3  1  0  0  0  0
  7  5  2  0  0  0  0
  8  7  1  0  0  0  0
  8  1  2  0  0  0  0
  9 17  1  0  0  0  0
  9 10  1  0  0  0  0
 10 15  1  0  0  0  0
 11 10  2  0  0  0  0
 11 16  1  0  0  0  0
 12 11  1  0  0  0  0
 13 14  1  0  0  0  0
 13 12  2  0  0  0  0
 14  9  2  0  0  0  0
 17 18  1  0  0  0  0
 20  1  1  0  0  0  0
 20 19  1  0  0  0  0
 21 20  2  0  0  0  0
 22 20  2  0  0  0  0
M  END
>  <minimizedAffinity>
-4.72984695

$$$$

 OpenBabel03272506353D

 22 23  0  0  0  0  0  0  0  0999 V2000
   39.0430   25.3360   33.8230 C   0  0  0  0  0  0  0  0  0  0  0  0
   38.4770   24.2060   34.3780 C   0  0  0  0  0  0  0  0  0  0  0  0
   37.7560   23.3700   33.5400 C   0  0  0  0  0  0  0  0  0  0  0  0
   37.3190   22.4850   33.9990 H   0  0  0  0  0  0  0  0  0  0  0  0
   37.5790   23.6100   32.1980 C   0  0  0  0  0  0  0  0  0  0  0  0
   37.0130   22.9370   31.5870 H   0  0  0  0  0  0  0  0  0  0  0  0
   38.1290   24.7240   31.6190 C   0  0  0  0  0  3  0  0  0  0  0  0
   38.8470   25.5540   32.4560 C   0  0  0  0  0  3  0  0  0  0  0  0
   39.7230   22.6490   37.4540 C   0  0  0  0  0  0  0  0  0  0  0  0
   38.9510   23.2420   38.4530 C   0  0  0  0  0  0  0  0  0  0  0  0
   38.0020   24.1770   38.0750 C   0  0  0  0  0  0  0  0  0  0  0  0
   37.8740   24.4650   36.7580 N   0  0  0  0  0  0  0  0  0  0  0  0
   38.6250   23.8880   35.7940 C   0  0  0  0  0  0  0  0  0  0  0  0
   39.5340   22.9900   36.1730 N   0  0  0  0  0  0  0  0  0  0  0  0
   39.0210   23.0420   39.5150 H   0  0  0  0  0  0  0  0  0  0  0  0
   37.3830   24.6650   38.7860 H   0  0  0  0  0  0  0  0  0  0  0  0
   40.6370   21.7310   37.9590 O   0  0  0  0  0  0  0  0  0  0  0  0
   41.5310   22.0590   38.2670 H   0  0  0  0  0  0  0  0  0  0  0  0
   40.7010   25.8330   35.7730 H   0  0  0  0  0  0  0  0  0  0  0  0
   39.9690   26.4460   34.8020 S   0  0  0  0  0  0  0  0  0  0  0  0
   38.9910   27.4360   35.4220 O   0  0  0  0  0  0  0  0  0  0  0  0
   40.8760   27.3200   33.9470 O   0  0  0  0  0  0  0  0  0  0  0  0
  1  2  1  0  0  0  0
  1 20  1  0  0  0  0
  2 13  1  0  0  0  0
  3  4  1  0  0  0  0
  3  2  2  0  0  0  0
  5  3  1  0  0  0  0
  6  5  1  0  0  0  0
  7  5  2  0  0  0  0
  7  8  1  0  0  0  0
  8  1  2  0  0  0  0
  9 17  1  0  0  0  0
  9 10  1  0  0  0  0
 10 15  1  0  0  0  0
 11 10  2  0  0  0  0
 11 16  1  0  0  0  0
 12 11  1  0  0  0  0
 13 14  1  0  0  0  0
 13 12  2  0  0  0  0
 14  9  2  0  0  0  0
 17 18  1  0  0  0  0
 20 21  2  0  0  0  0
 20 19  1  0  0  0  0
 22 20  2  0  0  0  0
M  END
>  <minimizedAffinity>
-4.72940445

$$$$

 OpenBabel03272506353D

 22 23  0  0  0  0  0  0  0  0999 V2000
   39.2960   23.4820   37.0730 C   0  0  0  0  0  0  0  0  0  0  0  0
   39.6890   24.1710   35.9440 C   0  0  0  0  0  0  0  0  0  0  0  0
   40.9110   23.8400   35.3820 C   0  0  0  0  0  0  0  0  0  0  0  0
   41.2010   24.3960   34.4910 H   0  0  0  0  0  0  0  0  0  0  0  0
   41.7430   22.8700   35.8900 C   0  0  0  0  0  0  0  0  0  0  0  0
   42.6800   22.6480   35.4220 H   0  0  0  0  0  0  0  0  0  0  0  0
   41.3800   22.1700   37.0100 C   0  0  0  0  0  3  0  0  0  0  0  0
   40.1620   22.5010   37.5680 C   0  0  0  0  0  3  0  0  0  0  0  0
   37.3570   25.8430   33.6620 C   0  0  0  0  0  0  0  0  0  0  0  0
   37.2680   27.1350   34.1800 C   0  0  0  0  0  0  0  0  0  0  0  0
   38.0060   27.4360   35.3120 C   0  0  0  0  0  0  0  0  0  0  0  0
   38.7740   26.4620   35.8560 N   0  0  0  0  0  0  0  0  0  0  0  0
   38.8570   25.2120   35.3510 C   0  0  0  0  0  0  0  0  0  0  0  0
   38.1410   24.9370   34.2600 N   0  0  0  0  0  0  0  0  0  0  0  0
   36.6670   27.9410   33.7790 H   0  0  0  0  0  0  0  0  0  0  0  0
   37.9820   28.4000   35.7560 H   0  0  0  0  0  0  0  0  0  0  0  0
   36.5720   25.6660   32.5290 O   0  0  0  0  0  0  0  0  0  0  0  0
   35.6120   25.4090   32.6410 H   0  0  0  0  0  0  0  0  0  0  0  0
   36.8000   24.2280   36.9840 H   0  0  0  0  0  0  0  0  0  0  0  0
   37.7720   23.8310   37.8500 S   0  0  0  0  0  0  0  0  0  0  0  0
   38.0250   24.9110   38.8930 O   0  0  0  0  0  0  0  0  0  0  0  0
   37.2790   22.6450   38.6680 O   0  0  0  0  0  0  0  0  0  0  0  0
  1  8  1  0  0  0  0
  1 20  1  0  0  0  0
  2  1  2  0  0  0  0
  3  5  2  0  0  0  0
  3  2  1  0  0  0  0
  4  3  1  0  0  0  0
  5  7  1  0  0  0  0
  6  5  1  0  0  0  0
  7  8  2  0  0  0  0
  9 10  2  0  0  0  0
  9 14  1  0  0  0  0
 10 11  1  0  0  0  0
 11 16  1  0  0  0  0
 11 12  2  0  0  0  0
 13 12  1  0  0  0  0
 13  2  1  0  0  0  0
 14 13  2  0  0  0  0
 15 10  1  0  0  0  0
 17 18  1  0  0  0  0
 17  9  1  0  0  0  0
 19 20  1  0  0  0  0
 20 22  2  0  0  0  0
 20 21  2  0  0  0  0
M  END
>  <minimizedAffinity>
-4.58671331

$$$$

 OpenBabel03272506353D

 22 23  0  0  0  0  0  0  0  0999 V2000
   33.5250   30.4450   35.2590 C   0  0  0  0  0  0  0  0  0  0  0  0
   34.8660   30.5260   34.9450 C   0  0  0  0  0  0  0  0  0  0  0  0
   35.6530   31.3800   35.7000 C   0  0  0  0  0  0  0  0  0  0  0  0
   36.7080   31.4280   35.4350 H   0  0  0  0  0  0  0  0  0  0  0  0
   35.1670   32.1430   36.7370 C   0  0  0  0  0  0  0  0  0  0  0  0
   35.8120   32.7900   37.2940 H   0  0  0  0  0  0  0  0  0  0  0  0
   33.8390   32.0830   37.0710 C   0  0  0  0  0  3  0  0  0  0  0  0
   33.0590   31.2310   36.3170 C   0  0  0  0  0  3  0  0  0  0  0  0
   35.8630   29.5270   31.5610 C   0  0  0  0  0  0  0  0  0  0  0  0
   36.5300   28.3200   31.7630 C   0  0  0  0  0  0  0  0  0  0  0  0
   36.6400   27.8440   33.0590 C   0  0  0  0  0  0  0  0  0  0  0  0
   36.0960   28.5770   34.0600 N   0  0  0  0  0  0  0  0  0  0  0  0
   35.4500   29.7470   33.8590 C   0  0  0  0  0  0  0  0  0  0  0  0
   35.3520   30.1910   32.6060 N   0  0  0  0  0  0  0  0  0  0  0  0
   36.9800   27.7040   30.9940 H   0  0  0  0  0  0  0  0  0  0  0  0
   37.1370   26.9330   33.2800 H   0  0  0  0  0  0  0  0  0  0  0  0
   35.8190   29.8960   30.2210 O   0  0  0  0  0  0  0  0  0  0  0  0
   36.5850   30.4110   29.8360 H   0  0  0  0  0  0  0  0  0  0  0  0
   33.0600   28.2560   33.9200 H   0  0  0  0  0  0  0  0  0  0  0  0
   32.4570   29.3950   34.3610 S   0  0  0  0  0  0  0  0  0  0  0  0
   31.9110   30.1940   33.1850 O   0  0  0  0  0  0  0  0  0  0  0  0
   31.2150   29.0410   35.1670 O   0  0  0  0  0  0  0  0  0  0  0  0
  1  8  1  0  0  0  0
  2  1  2  0  0  0  0
  2  3  1  0  0  0  0
  3  5  2  0  0  0  0
  4  3  1  0  0  0  0
  5  7  1  0  0  0  0
  5  6  1  0  0  0  0
  8  7  2  0  0  0  0
  9 10  2  0  0  0  0
  9 14  1  0  0  0  0
 10 11  1  0  0  0  0
 11 16  1  0  0  0  0
 11 12  2  0  0  0  0
 13 12  1  0  0  0  0
 13  2  1  0  0  0  0
 14 13  2  0  0  0  0
 15 10  1  0  0  0  0
 17  9  1  0  0  0  0
 18 17  1  0  0  0  0
 19 20  1  0  0  0  0
 20 22  2  0  0  0  0
 20  1  1  0  0  0  0
 21 20  2  0  0  0  0
M  END
>  <minimizedAffinity>
-4.50811815

$$$$

 OpenBabel03272506353D

 22 23  0  0  0  0  0  0  0  0999 V2000
   37.4420   22.5600   33.3970 C   0  0  0  0  0  0  0  0  0  0  0  0
   37.2950   21.9660   34.6340 C   0  0  0  0  0  0  0  0  0  0  0  0
   36.3390   20.9700   34.7590 C   0  0  0  0  0  0  0  0  0  0  0  0
   36.2400   20.5150   35.7430 H   0  0  0  0  0  0  0  0  0  0  0  0
   35.5390   20.5510   33.7220 C   0  0  0  0  0  0  0  0  0  0  0  0
   34.8120   19.7780   33.8630 H   0  0  0  0  0  0  0  0  0  0  0  0
   35.6620   21.1240   32.4820 C   0  0  0  0  0  3  0  0  0  0  0  0
   36.6150   22.1150   32.3610 C   0  0  0  0  0  3  0  0  0  0  0  0
   38.2890   23.5880   37.7670 C   0  0  0  0  0  0  0  0  0  0  0  0
   39.5960   23.1430   37.9610 C   0  0  0  0  0  0  0  0  0  0  0  0
   40.1400   22.2860   37.0200 C   0  0  0  0  0  0  0  0  0  0  0  0
   39.3760   21.9260   35.9620 N   0  0  0  0  0  0  0  0  0  0  0  0
   38.1090   22.3590   35.7780 C   0  0  0  0  0  0  0  0  0  0  0  0
   37.5990   23.1850   36.6930 N   0  0  0  0  0  0  0  0  0  0  0  0
   40.2410   23.4040   38.7910 H   0  0  0  0  0  0  0  0  0  0  0  0
   41.1290   21.9100   37.1100 H   0  0  0  0  0  0  0  0  0  0  0  0
   37.8590   24.4410   38.7770 O   0  0  0  0  0  0  0  0  0  0  0  0
   37.4580   24.0460   39.6040 H   0  0  0  0  0  0  0  0  0  0  0  0
   38.9080   24.5300   34.2730 H   0  0  0  0  0  0  0  0  0  0  0  0
   38.6210   23.8230   33.1460 S   0  0  0  0  0  0  0  0  0  0  0  0
   38.0780   24.7490   32.0650 O   0  0  0  0  0  0  0  0  0  0  0  0
   39.9060   23.2740   32.5410 O   0  0  0  0  0  0  0  0  0  0  0  0
  1  2  1  0  0  0  0
  2  3  2  0  0  0  0
  2 13  1  0  0  0  0
  3  4  1  0  0  0  0
  5  6  1  0  0  0  0
  5  3  1  0  0  0  0
  7  5  2  0  0  0  0
  8  7  1  0  0  0  0
  8  1  2  0  0  0  0
  9 10  1  0  0  0  0
  9 17  1  0  0  0  0
 10 15  1  0  0  0  0
 11 16  1  0  0  0  0
 11 10  2  0  0  0  0
 12 11  1  0  0  0  0
 13 12  2  0  0  0  0
 13 14  1  0  0  0  0
 14  9  2  0  0  0  0
 17 18  1  0  0  0  0
 20  1  1  0  0  0  0
 20 19  1  0  0  0  0
 21 20  2  0  0  0  0
 22 20  2  0  0  0  0
M  END
>  <minimizedAffinity>
-4.4256134

$$$$

 OpenBabel03272506353D

 22 23  0  0  0  0  0  0  0  0999 V2000
   36.4770   25.1440   31.7750 C   0  0  0  0  0  0  0  0  0  0  0  0
   37.4390   24.6410   32.6260 C   0  0  0  0  0  0  0  0  0  0  0  0
   37.4320   23.2770   32.8720 C   0  0  0  0  0  0  0  0  0  0  0  0
   38.2000   22.9030   33.5470 H   0  0  0  0  0  0  0  0  0  0  0  0
   36.5210   22.4110   32.3140 C   0  0  0  0  0  0  0  0  0  0  0  0
   36.5520   21.3630   32.5330 H   0  0  0  0  0  0  0  0  0  0  0  0
   35.5540   22.8810   31.4650 C   0  0  0  0  0  3  0  0  0  0  0  0
   35.5640   24.2390   31.2220 C   0  0  0  0  0  3  0  0  0  0  0  0
   39.0160   26.9080   35.0370 C   0  0  0  0  0  0  0  0  0  0  0  0
   40.2760   27.1410   34.4870 C   0  0  0  0  0  0  0  0  0  0  0  0
   40.5880   26.5220   33.2880 C   0  0  0  0  0  0  0  0  0  0  0  0
   39.6560   25.7250   32.7150 N   0  0  0  0  0  0  0  0  0  0  0  0
   38.4360   25.5010   33.2530 C   0  0  0  0  0  0  0  0  0  0  0  0
   38.1500   26.1050   34.4070 N   0  0  0  0  0  0  0  0  0  0  0  0
   41.0500   27.7690   34.9100 H   0  0  0  0  0  0  0  0  0  0  0  0
   41.5300   26.6580   32.8170 H   0  0  0  0  0  0  0  0  0  0  0  0
   38.8240   27.5830   36.2370 O   0  0  0  0  0  0  0  0  0  0  0  0
   39.1260   27.1530   37.0880 H   0  0  0  0  0  0  0  0  0  0  0  0
   35.3810   27.1860   30.5820 H   0  0  0  0  0  0  0  0  0  0  0  0
   36.4100   26.8490   31.4060 S   0  0  0  0  0  0  0  0  0  0  0  0
   37.7410   27.2340   30.7750 O   0  0  0  0  0  0  0  0  0  0  0  0
   36.3520   27.6910   32.6740 O   0  0  0  0  0  0  0  0  0  0  0  0
  1  2  1  0  0  0  0
  2  3  2  0  0  0  0
  2 13  1  0  0  0  0
  3  4  1  0  0  0  0
  5  6  1  0  0  0  0
  5  3  1  0  0  0  0
  7  5  2  0  0  0  0
  8  7  1  0  0  0  0
  8  1  2  0  0  0  0
  9 17  1  0  0  0  0
 10 15  1  0  0  0  0
 10  9  1  0  0  0  0
 11 10  2  0  0  0  0
 12 13  2  0  0  0  0
 12 11  1  0  0  0  0
 13 14  1  0  0  0  0
 14  9  2  0  0  0  0
 16 11  1  0  0  0  0
 17 18  1  0  0  0  0
 19 20  1  0  0  0  0
 20  1  1  0  0  0  0
 20 22  2  0  0  0  0
 21 20  2  0  0  0  0
M  END
>  <minimizedAffinity>
-4.39387035

$$$$

 OpenBabel03272506353D

 22 23  0  0  0  0  0  0  0  0999 V2000
   36.9870   24.0010   32.3650 C   0  0  0  0  0  0  0  0  0  0  0  0
   37.1810   25.3650   32.4480 C   0  0  0  0  0  0  0  0  0  0  0  0
   36.3050   26.1820   31.7530 C   0  0  0  0  0  0  0  0  0  0  0  0
   36.4770   27.2550   31.8320 H   0  0  0  0  0  0  0  0  0  0  0  0
   35.2630   25.7050   30.9930 C   0  0  0  0  0  0  0  0  0  0  0  0
   34.6090   26.3740   30.4710 H   0  0  0  0  0  0  0  0  0  0  0  0
   35.0460   24.3560   30.8920 C   0  0  0  0  0  3  0  0  0  0  0  0
   35.9200   23.5450   31.5860 C   0  0  0  0  0  3  0  0  0  0  0  0
   38.9370   27.0600   35.1840 C   0  0  0  0  0  0  0  0  0  0  0  0
   40.2680   27.0480   34.7700 C   0  0  0  0  0  0  0  0  0  0  0  0
   40.5680   26.4600   33.5530 C   0  0  0  0  0  0  0  0  0  0  0  0
   39.5550   25.9280   32.8300 N   0  0  0  0  0  0  0  0  0  0  0  0
   38.2660   25.9410   33.2350 C   0  0  0  0  0  0  0  0  0  0  0  0
   37.9920   26.5110   34.4090 N   0  0  0  0  0  0  0  0  0  0  0  0
   41.1080   27.4610   35.3160 H   0  0  0  0  0  0  0  0  0  0  0  0
   41.5620   26.4180   33.1820 H   0  0  0  0  0  0  0  0  0  0  0  0
   38.7650   27.6770   36.4180 O   0  0  0  0  0  0  0  0  0  0  0  0
   38.8770   27.1330   37.2500 H   0  0  0  0  0  0  0  0  0  0  0  0
   39.3640   23.1100   32.9630 H   0  0  0  0  0  0  0  0  0  0  0  0
   38.0420   22.8940   33.2080 S   0  0  0  0  0  0  0  0  0  0  0  0
   37.6510   21.4820   32.7920 O   0  0  0  0  0  0  0  0  0  0  0  0
   37.7870   22.9140   34.7090 O   0  0  0  0  0  0  0  0  0  0  0  0
  1  2  1  0  0  0  0
  1 20  1  0  0  0  0
  2 13  1  0  0  0  0
  3  4  1  0  0  0  0
  3  2  2  0  0  0  0
  5  3  1  0  0  0  0
  6  5  1  0  0  0  0
  7  5  2  0  0  0  0
  7  8  1  0  0  0  0
  8  1  2  0  0  0  0
  9 17  1  0  0  0  0
 10  9  1  0  0  0  0
 10 15  1  0  0  0  0
 11 10  2  0  0  0  0
 12 13  2  0  0  0  0
 12 11  1  0  0  0  0
 13 14  1  0  0  0  0
 14  9  2  0  0  0  0
 16 11  1  0  0  0  0
 17 18  1  0  0  0  0
 19 20  1  0  0  0  0
 20 22  2  0  0  0  0
 21 20  2  0  0  0  0
M  END
>  <minimizedAffinity>
-4.37598133

$$$$
