
 OpenBabel03272510163D

 31 33  0  0  0  0  0  0  0  0999 V2000
   37.2110   29.4330   51.0780 Br  0  0  0  0  0  0  0  0  0  0  0  0
   35.9400   29.3740   49.6470 C   0  0  0  0  0  0  0  0  0  0  0  0
   36.0220   30.2550   48.5930 C   0  0  0  0  0  0  0  0  0  0  0  0
   35.0730   30.1500   47.6040 C   0  0  0  0  0  0  0  0  0  0  0  0
   34.0480   29.2060   47.6230 C   0  0  0  0  0  0  0  0  0  0  0  0
   34.0120   28.3530   48.6940 C   0  0  0  0  0  0  0  0  0  0  0  0
   34.9510   28.4360   49.6970 C   0  0  0  0  0  0  0  0  0  0  0  0
   35.1860   30.8780   46.7870 H   0  0  0  0  0  0  0  0  0  0  0  0
   33.2030   27.6360   48.6670 H   0  0  0  0  0  0  0  0  0  0  0  0
   34.8670   27.7290   50.5220 H   0  0  0  0  0  0  0  0  0  0  0  0
   38.0160   33.1920   49.4460 C   0  0  0  0  0  0  0  0  0  0  0  0
   39.0550   33.1840   48.4800 C   0  0  0  0  0  0  0  0  0  0  0  0
   39.0480   32.1540   47.5440 C   0  0  0  0  0  0  0  0  0  0  0  0
   38.0570   31.2190   47.6010 N   0  0  0  0  0  0  0  0  0  0  0  0
   37.0820   31.2610   48.5370 C   0  0  0  0  0  0  0  0  0  0  0  0
   37.0750   32.2510   49.4510 N   0  0  0  0  0  0  0  0  0  0  0  0
   37.9480   33.9640   50.2160 H   0  0  0  0  0  0  0  0  0  0  0  0
   39.7990   33.9640   48.5090 H   0  0  0  0  0  0  0  0  0  0  0  0
   39.8300   32.1190   46.7920 H   0  0  0  0  0  0  0  0  0  0  0  0
   32.8770   28.2670   45.6000 C   0  0  0  0  0  0  0  0  0  0  0  0
   33.1530   29.2700   46.4740 C   0  0  0  0  0  0  0  0  0  0  0  0
   32.5110   30.4910   46.2420 C   0  0  0  0  0  0  0  0  0  0  0  0
   32.6740   31.3600   46.8990 H   0  0  0  0  0  0  0  0  0  0  0  0
   31.6450   30.7260   45.2160 C   0  0  0  0  0  0  0  0  0  0  0  0
   31.1630   31.6790   45.0610 H   0  0  0  0  0  0  0  0  0  0  0  0
   31.3690   29.7100   44.3360 C   0  0  0  0  0  3  0  0  0  0  0  0
   31.9910   28.5020   44.5470 C   0  0  0  0  0  3  0  0  0  0  0  0
   34.6540   26.8520   46.7490 H   0  0  0  0  0  0  0  0  0  0  0  0
   33.6460   26.7410   45.8510 S   0  0  0  0  0  0  0  0  0  0  0  0
   32.6890   25.6260   46.1760 O   0  0  0  0  0  0  0  0  0  0  0  0
   34.3040   26.3660   44.5300 O   0  0  0  0  0  0  0  0  0  0  0  0
  2  7  1  0  0  0  0
  2  1  1  0  0  0  0
  3  2  2  0  0  0  0
  4  5  2  0  0  0  0
  4  3  1  0  0  0  0
  5  6  1  0  0  0  0
  6  7  2  0  0  0  0
  7 10  1  0  0  0  0
  8  4  1  0  0  0  0
  9  6  1  0  0  0  0
 11 16  1  0  0  0  0
 11 17  1  0  0  0  0
 12 18  1  0  0  0  0
 12 11  2  0  0  0  0
 13 14  2  0  0  0  0
 13 12  1  0  0  0  0
 14 15  1  0  0  0  0
 15  3  1  0  0  0  0
 15 16  2  0  0  0  0
 19 13  1  0  0  0  0
 20 29  1  0  0  0  0
 20 21  1  0  0  0  0
 21  5  1  0  0  0  0
 22 21  2  0  0  0  0
 22 23  1  0  0  0  0
 24 22  1  0  0  0  0
 25 24  1  0  0  0  0
 26 27  1  0  0  0  0
 26 24  2  0  0  0  0
 27 20  2  0  0  0  0
 29 30  2  0  0  0  0
 29 28  1  0  0  0  0
 31 29  2  0  0  0  0
M  END
>  <minimizedAffinity>
-5.86767769

>  <minimizedRMSD>
0.977613986

$$$$
