
 OpenBabel03262520503D

 51 55  0  0  1  0  0  0  0  0999 V2000
   39.4770   28.7650   43.2470 C   0  0  0  0  0  0  0  0  0  0  0  0
   40.3620   29.7700   42.8940 C   0  0  0  0  0  0  0  0  0  0  0  0
   41.0890   29.6450   41.7180 C   0  0  0  0  0  0  0  0  0  0  0  0
   40.9630   28.5610   40.8940 C   0  0  0  0  0  0  0  0  0  0  0  0
   41.5570   28.2420   39.7330 N   0  0  0  0  0  0  0  0  0  0  0  0
   41.0460   27.0460   39.3640 C   0  0  0  0  0  0  0  0  0  0  0  0
   40.1120   26.5610   40.2720 C   0  0  0  0  0  0  0  0  0  0  0  0
   40.0860   27.5620   41.2430 C   0  0  0  0  0  0  0  0  0  0  0  0
   39.3650   27.6770   42.3960 C   0  0  0  0  0  0  0  0  0  0  0  0
   38.8650   28.7530   44.1240 H   0  0  0  0  0  0  0  0  0  0  0  0
   41.7800   30.4630   41.4750 H   0  0  0  0  0  0  0  0  0  0  0  0
   42.2710   28.7720   39.1860 H   0  0  0  0  0  0  0  0  0  0  0  0
   41.3360   26.5230   38.4570 H   0  0  0  0  0  0  0  0  0  0  0  0
   39.5680   25.6420   40.2110 H   0  0  0  0  0  0  0  0  0  0  0  0
   37.1070   26.4440   42.4290 C   0  0  0  0  0  0  0  0  0  0  0  0
   38.4340   26.5840   42.7370 C   0  0  0  0  0  0  0  0  0  0  0  0
   39.0930   25.6010   43.4780 C   0  0  0  0  0  0  0  0  0  0  0  0
   40.1450   25.6060   43.7800 H   0  0  0  0  0  0  0  0  0  0  0  0
   38.4320   24.4690   43.9180 C   0  0  0  0  0  0  0  0  0  0  0  0
   38.8810   23.6900   44.4850 H   0  0  0  0  0  0  0  0  0  0  0  0
   37.0920   24.3380   43.6020 C   0  0  0  0  0  3  0  0  0  0  0  0
   36.4500   25.3150   42.8690 C   0  0  0  0  0  3  0  0  0  0  0  0
   37.3560   28.1860   40.5700 H   0  0  0  0  0  0  0  0  0  0  0  0
   36.4460   27.7550   41.5050 S   0  0  0  0  0  0  0  0  0  0  0  0
   35.9690   28.8920   42.3640 O   0  0  0  0  0  0  0  0  0  0  0  0
   35.2580   27.2340   40.7420 O   0  0  0  0  0  0  0  0  0  0  0  0
   40.4960   30.9550   43.7990 C   0  0  0  0  0  0  0  0  0  0  0  0
   40.1560   31.8470   43.2300 H   0  0  0  0  0  0  0  0  0  0  0  0
   41.5400   31.0450   44.1550 H   0  0  0  0  0  0  0  0  0  0  0  0
   39.5980   30.7260   44.9940 C   0  0  0  0  0  0  0  0  0  0  0  0
   39.7610   29.6720   45.2960 H   0  0  0  0  0  0  0  0  0  0  0  0
   38.5730   30.9510   44.6440 H   0  0  0  0  0  0  0  0  0  0  0  0
   38.8420   32.3480   46.7720 C   0  0  1  0  0  0  0  0  0  0  0  0
   39.9990   33.0480   46.0980 C   0  0  0  0  0  0  0  0  0  0  0  0
   39.9340   31.5750   46.1670 C   0  0  2  0  0  0  0  0  0  0  0  0
   37.8500   32.3480   46.2580 H   0  0  0  0  0  0  0  0  0  0  0  0
   40.7040   33.6380   46.6960 H   0  0  0  0  0  0  0  0  0  0  0  0
   39.7600   33.4720   45.1020 H   0  0  0  0  0  0  0  0  0  0  0  0
   40.6520   31.1410   46.9230 H   0  0  0  0  0  0  0  0  0  0  0  0
   38.7450   32.5490   48.2530 C   0  0  0  0  0  0  0  0  0  0  0  0
   39.7340   32.6380   48.7290 H   0  0  0  0  0  0  0  0  0  0  0  0
   38.1610   33.5030   48.4000 H   0  0  0  0  0  0  0  0  0  0  0  0
   37.5600   30.1500   50.8790 C   0  0  0  0  0  0  0  0  0  0  0  0
   38.2560   31.2180   50.2280 C   0  0  0  0  0  0  0  0  0  0  0  0
   38.0130   31.4380   48.9030 C   0  0  0  0  0  0  0  0  0  0  0  0
   37.1270   30.6370   48.2740 N   0  0  0  0  0  0  0  0  0  0  0  0
   36.4790   29.6400   48.8890 C   0  0  0  0  0  0  0  0  0  0  0  0
   36.7040   29.4100   50.1840 N   0  0  0  0  0  0  0  0  0  0  0  0
   37.8160   30.0510   51.9250 H   0  0  0  0  0  0  0  0  0  0  0  0
   38.9590   31.8360   50.7720 H   0  0  0  0  0  0  0  0  0  0  0  0
   35.7750   29.0000   48.3960 H   0  0  0  0  0  0  0  0  0  0  0  0
  1 10  1  0  0  0  0
  2  1  1  0  0  0  0
  2 27  1  0  0  0  0
  3  2  2  0  0  0  0
  4  8  2  0  0  0  0
  4  3  1  0  0  0  0
  5  4  1  0  0  0  0
  6  5  1  0  0  0  0
  6  7  2  0  0  0  0
  7  8  1  0  0  0  0
  8  9  1  0  0  0  0
  9 16  1  0  0  0  0
  9  1  2  0  0  0  0
 11  3  1  0  0  0  0
 12  5  1  0  0  0  0
 13  6  1  0  0  0  0
 14  7  1  0  0  0  0
 15 16  2  0  0  0  0
 15 22  1  0  0  0  0
 16 17  1  0  0  0  0
 17 18  1  0  0  0  0
 17 19  2  0  0  0  0
 19 20  1  0  0  0  0
 21 19  1  0  0  0  0
 22 21  2  0  0  0  0
 23 24  1  0  0  0  0
 24 25  2  0  0  0  0
 24 15  1  0  0  0  0
 26 24  2  0  0  0  0
 27 29  1  0  0  0  0
 27 30  1  0  0  0  0
 28 27  1  0  0  0  0
 30 31  1  0  0  0  0
 30 35  1  0  0  0  0
 32 30  1  0  0  0  0
 33 36  1  6  0  0  0
 33 40  1  0  0  0  0
 34 35  1  0  0  0  0
 34 37  1  0  0  0  0
 34 33  1  0  0  0  0
 35 33  1  0  0  0  0
 35 39  1  1  0  0  0
 38 34  1  0  0  0  0
 40 42  1  0  0  0  0
 40 41  1  0  0  0  0
 40 45  1  0  0  0  0
 43 49  1  0  0  0  0
 44 50  1  0  0  0  0
 44 43  1  0  0  0  0
 45 44  2  0  0  0  0
 46 47  2  0  0  0  0
 46 45  1  0  0  0  0
 47 48  1  0  0  0  0
 48 43  2  0  0  0  0
 51 47  1  0  0  0  0
M  END
>  <minimizedAffinity>
-6.12087727

>  <minimizedRMSD>
1.07946217

$$$$
