
 OpenBabel03272501353D

 39 42  0  0  1  0  0  0  0  0999 V2000
   38.0250   32.9670   49.3780 C   0  0  0  0  0  0  0  0  0  0  0  0
   38.7880   33.1590   48.2500 C   0  0  0  0  0  0  0  0  0  0  0  0
   38.6240   32.3730   47.0910 C   0  0  0  0  0  0  0  0  0  0  0  0
   37.7040   31.4470   47.1460 N   0  0  0  0  0  0  0  0  0  0  0  0
   36.9460   31.2620   48.2780 C   0  0  0  0  0  0  0  0  0  0  0  0
   37.1000   32.0040   49.3730 N   0  0  0  0  0  0  0  0  0  0  0  0
   38.1560   33.5730   50.2640 H   0  0  0  0  0  0  0  0  0  0  0  0
   39.5200   33.9390   48.2840 H   0  0  0  0  0  0  0  0  0  0  0  0
   35.6640   29.4050   49.3830 C   0  0  0  0  0  0  0  0  0  0  0  0
   35.9180   30.2050   48.2940 C   0  0  0  0  0  0  0  0  0  0  0  0
   35.1510   29.9840   47.1610 C   0  0  0  0  0  0  0  0  0  0  0  0
   35.3320   30.6080   46.2740 H   0  0  0  0  0  0  0  0  0  0  0  0
   34.1640   29.0290   47.0520 C   0  0  0  0  0  0  0  0  0  0  0  0
   33.6140   28.9280   46.1240 H   0  0  0  0  0  0  0  0  0  0  0  0
   33.9080   28.2270   48.1440 C   0  0  0  0  0  0  0  0  0  0  0  0
   34.6680   28.4440   49.2730 C   0  0  0  0  0  0  0  0  0  0  0  0
   36.9440   30.8940   51.0690 H   0  0  0  0  0  0  0  0  0  0  0  0
   36.5690   29.6110   50.8380 S   0  0  0  0  0  0  0  0  0  0  0  0
   37.7190   28.6360   50.8270 O   0  0  0  0  0  0  0  0  0  0  0  0
   35.6710   29.1920   51.9990 O   0  0  0  0  0  0  0  0  0  0  0  0
   39.4760   32.6180   45.9650 C   0  0  1  0  0  0  0  0  0  0  0  0
   40.1350   33.7170   45.7870 O   0  0  0  0  0  0  0  0  0  0  0  0
   39.6160   31.5230   44.9380 C   0  0  2  0  0  0  0  0  0  0  0  0
   41.0770   30.9080   45.1050 C   0  0  0  0  0  0  0  0  0  0  0  0
   40.5710   31.6320   43.8830 C   0  0  1  0  0  0  0  0  0  0  0  0
   38.8840   30.6640   45.0040 H   0  0  0  0  0  0  0  0  0  0  0  0
   41.1130   29.8120   45.0890 H   0  0  0  0  0  0  0  0  0  0  0  0
   41.7670   31.4100   45.7700 H   0  0  0  0  0  0  0  0  0  0  0  0
   41.0590   32.6460   43.7420 H   0  0  0  0  0  0  0  0  0  0  0  0
   40.5800   30.8540   42.6430 C   0  0  0  0  0  0  0  0  0  0  0  0
   39.8800   31.3700   41.5570 C   0  0  0  0  0  0  0  0  0  0  0  0
   39.8900   30.6350   40.3990 C   0  0  0  0  0  0  0  0  0  0  0  0
   40.5620   29.4280   40.2900 C   0  0  0  0  0  0  0  0  0  0  0  0
   41.2470   28.9510   41.4000 C   0  0  0  0  0  0  0  0  0  0  0  0
   41.2370   29.6690   42.5330 N   0  0  0  0  0  0  0  0  0  0  0  0
   39.3380   32.3040   41.5780 H   0  0  0  0  0  0  0  0  0  0  0  0
   39.3640   30.9900   39.5240 H   0  0  0  0  0  0  0  0  0  0  0  0
   40.5760   28.8360   39.3690 H   0  0  0  0  0  0  0  0  0  0  0  0
   41.7890   28.0180   41.3820 H   0  0  0  0  0  0  0  0  0  0  0  0
  1  7  1  0  0  0  0
  2  8  1  0  0  0  0
  2  1  2  0  0  0  0
  3  4  2  0  0  0  0
  3  2  1  0  0  0  0
  4  5  1  0  0  0  0
  5 10  1  0  0  0  0
  5  6  2  0  0  0  0
  6  1  1  0  0  0  0
  9 18  1  0  0  0  0
 10  9  2  0  0  0  0
 11 10  1  0  0  0  0
 12 11  1  0  0  0  0
 13 11  2  0  0  0  0
 13 15  1  0  0  0  0
 14 13  1  0  0  0  0
 15 16  2  0  0  0  0
 16  9  1  0  0  0  0
 18 17  1  0  0  0  0
 18 20  2  0  0  0  0
 19 18  2  0  0  0  0
 21 22  1  1  0  0  0
 21  3  1  0  0  0  0
 23 26  1  6  0  0  0
 23 24  1  0  0  0  0
 23 21  1  0  0  0  0
 24 28  1  0  0  0  0
 25 29  1  6  0  0  0
 25 23  1  0  0  0  0
 25 24  1  0  0  0  0
 27 24  1  0  0  0  0
 30 25  1  0  0  0  0
 31 36  1  0  0  0  0
 31 30  2  0  0  0  0
 32 31  1  0  0  0  0
 33 32  2  0  0  0  0
 33 34  1  0  0  0  0
 34 35  2  0  0  0  0
 35 30  1  0  0  0  0
 37 32  1  0  0  0  0
 38 33  1  0  0  0  0
 39 34  1  0  0  0  0
M  END
>  <minimizedAffinity>
-6.49162197

>  <minimizedRMSD>
3.4557662

$$$$
