
 OpenBabel03272510333D

 31 33  0  0  0  0  0  0  0  0999 V2000
   36.3500   30.4970   47.2700 C   0  0  0  0  0  0  0  0  0  0  0  0
   35.9300   30.5490   45.9550 C   0  0  0  0  0  0  0  0  0  0  0  0
   35.0050   29.6480   45.4620 C   0  0  0  0  0  0  0  0  0  0  0  0
   34.5070   28.6900   46.3250 C   0  0  0  0  0  0  0  0  0  0  0  0
   34.9110   28.6110   47.6620 C   0  0  0  0  0  0  0  0  0  0  0  0
   35.8370   29.5280   48.1140 C   0  0  0  0  0  0  0  0  0  0  0  0
   36.3210   31.3020   45.2740 H   0  0  0  0  0  0  0  0  0  0  0  0
   34.7100   29.7310   44.4250 H   0  0  0  0  0  0  0  0  0  0  0  0
   33.7780   28.0190   45.8500 H   0  0  0  0  0  0  0  0  0  0  0  0
   34.4660   27.8310   48.2510 H   0  0  0  0  0  0  0  0  0  0  0  0
   37.9050   33.0650   49.3150 C   0  0  0  0  0  0  0  0  0  0  0  0
   39.0930   33.3830   48.6180 C   0  0  0  0  0  0  0  0  0  0  0  0
   39.3490   32.6780   47.4060 C   0  0  0  0  0  0  0  0  0  0  0  0
   38.4390   31.7600   47.0160 N   0  0  0  0  0  0  0  0  0  0  0  0
   37.3230   31.4870   47.7080 C   0  0  0  0  0  0  0  0  0  0  0  0
   37.0560   32.1400   48.8580 N   0  0  0  0  0  0  0  0  0  0  0  0
   37.7290   33.6190   50.2430 H   0  0  0  0  0  0  0  0  0  0  0  0
   39.7860   34.1330   48.9800 H   0  0  0  0  0  0  0  0  0  0  0  0
   40.2520   32.9110   46.8670 H   0  0  0  0  0  0  0  0  0  0  0  0
   35.5620   29.6190   50.6730 C   0  0  0  0  0  0  0  0  0  0  0  0
   36.2740   29.4470   49.5030 C   0  0  0  0  0  0  0  0  0  0  0  0
   37.6310   29.1380   49.6010 C   0  0  0  0  0  0  0  0  0  0  0  0
   38.3350   28.9710   48.7830 H   0  0  0  0  0  0  0  0  0  0  0  0
   38.2450   29.0080   50.8450 C   0  0  0  0  0  0  0  0  0  0  0  0
   39.2900   28.7700   50.9840 H   0  0  0  0  0  0  0  0  0  0  0  0
   37.4960   29.1880   52.0130 C   0  0  0  0  0  3  0  0  0  0  0  0
   36.1580   29.4930   51.8870 C   0  0  0  0  0  3  0  0  0  0  0  0
   33.3470   30.3800   51.6330 H   0  0  0  0  0  0  0  0  0  0  0  0
   33.8760   30.0040   50.4250 S   0  0  0  0  0  0  0  0  0  0  0  0
   33.1720   28.7730   49.9660 O   0  0  0  0  0  0  0  0  0  0  0  0
   33.6690   31.0770   49.4090 O   0  0  0  0  0  0  0  0  0  0  0  0
  1 15  1  0  0  0  0
  1  6  1  0  0  0  0
  2  1  2  0  0  0  0
  3  2  1  0  0  0  0
  3  4  2  0  0  0  0
  4  5  1  0  0  0  0
  5  6  2  0  0  0  0
  5 10  1  0  0  0  0
  6 21  1  0  0  0  0
  7  2  1  0  0  0  0
  8  3  1  0  0  0  0
  9  4  1  0  0  0  0
 11 17  1  0  0  0  0
 12 18  1  0  0  0  0
 12 11  2  0  0  0  0
 13 12  1  0  0  0  0
 14 13  2  0  0  0  0
 14 15  1  0  0  0  0
 15 16  2  0  0  0  0
 16 11  1  0  0  0  0
 19 13  1  0  0  0  0
 20 27  1  0  0  0  0
 21 22  1  0  0  0  0
 21 20  2  0  0  0  0
 22 24  2  0  0  0  0
 23 22  1  0  0  0  0
 24 25  1  0  0  0  0
 24 26  1  0  0  0  0
 27 26  2  0  0  0  0
 29 20  1  0  0  0  0
 29 28  1  0  0  0  0
 30 29  2  0  0  0  0
 31 29  2  0  0  0  0
M  END
>  <minimizedAffinity>
-2.8904705

>  <minimizedRMSD>
1.90481448

$$$$
