
     RDKit          3D

 35 37  0  0  0  0  0  0  0  0999 V2000
   34.9381   28.7992   48.6860 C   0  0  0  0  0  0  0  0  0  0  0  0
   34.5941   27.8560   49.4933 O   0  0  0  0  0  0  0  0  0  0  0  0
   32.9994   30.5798   46.2004 C   0  0  0  0  0  0  0  0  0  0  0  0
   32.8163   29.6442   45.1711 C   0  0  0  0  0  0  0  0  0  0  0  0
   33.3673   28.3703   45.3358 C   0  0  0  0  0  0  0  0  0  0  0  0
   34.0617   28.0808   46.4862 N   0  0  0  0  0  0  0  0  0  0  0  0
   34.2132   28.9976   47.4395 C   0  0  0  0  0  0  0  0  0  0  0  0
   33.6874   30.2094   47.2810 N   0  0  0  0  0  0  0  0  0  0  0  0
   36.0660   29.5835   49.1512 C   0  0  0  0  0  0  0  0  0  0  0  0
   36.2708   29.7057   50.5299 C   0  0  0  0  0  0  0  0  0  0  0  0
   37.3551   30.4244   51.0556 C   0  0  0  0  0  0  0  0  0  0  0  0
   38.2589   31.0375   50.1598 C   0  0  0  0  0  0  0  0  0  0  0  0
   38.0384   30.9051   48.7917 C   0  0  0  0  0  0  0  0  0  0  0  0
   36.9613   30.1914   48.2935 C   0  0  0  0  0  0  0  0  0  0  0  0
   32.5415   31.5334   45.9881 H   0  0  0  0  0  0  0  0  0  0  0  0
   32.2888   29.7693   44.2285 H   0  0  0  0  0  0  0  0  0  0  0  0
   33.3152   27.5428   44.6409 H   0  0  0  0  0  0  0  0  0  0  0  0
   35.5845   29.2402   51.2217 H   0  0  0  0  0  0  0  0  0  0  0  0
   37.5040   30.5124   52.1185 H   0  0  0  0  0  0  0  0  0  0  0  0
   39.0861   31.5851   50.5942 H   0  0  0  0  0  0  0  0  0  0  0  0
   38.7872   31.4115   48.1993 H   0  0  0  0  0  0  0  0  0  0  0  0
   39.4769   31.1884   47.7553 H   0  0  0  0  0  0  0  0  0  0  0  0
   39.4917   30.5339   46.5538 S   0  0  0  0  0  0  0  0  0  0  0  0
   40.1824   29.2199   46.7433 O   0  0  0  0  0  0  0  0  0  0  0  0
   40.3634   31.3752   45.6413 O   0  0  0  0  0  0  0  0  0  0  0  0
   37.8851   30.3680   45.8810 C   0  0  0  0  0  0  0  0  0  0  0  0
   36.9149   30.2021   46.8479 C   0  0  0  0  0  0  0  0  0  0  0  0
   35.5926   30.0335   46.4156 C   0  0  0  0  0  0  0  0  0  0  0  0
   34.6975   29.8884   47.0361 H   0  0  0  0  0  0  0  0  0  0  0  0
   35.2780   30.0358   45.0515 C   0  0  0  0  0  0  0  0  0  0  0  0
   34.2724   29.9092   44.6752 H   0  0  0  0  0  0  0  0  0  0  0  0
   36.2668   30.2047   44.1044 C   0  0  0  0  0  0  0  0  0  0  0  0
   37.5626   30.3690   44.5426 C   0  0  0  0  0  0  0  0  0  0  0  0
   36.1448   30.2242   43.0364 H   0  0  0  0  0  0  0  0  0  0  0  0
   38.4597   30.5138   43.9331 H   0  0  0  0  0  0  0  0  0  0  0  0
  1  9  1  0
  1  2  2  0
  3  8  2  0
  4  5  2  0
  4  3  1  0
  5  6  1  0
  6  7  2  0
  7  1  1  0
  8  7  1  0
  9 10  2  0
 10 11  1  0
 12 11  2  0
 13 12  1  0
 14 13  2  0
 14  9  1  0
  3 15  1  0
  4 16  1  0
  5 17  1  0
 10 18  1  0
 11 19  1  0
 12 20  1  0
 13 21  1  0
 22 23  1  0
 23 24  2  0
 23 25  2  0
 23 26  1  0
 26 27  2  0
 27 28  1  0
 28 29  1  0
 28 30  2  0
 30 31  1  0
 30 32  1  0
 32 33  2  0
 33 26  1  0
 32 34  1  0
 33 35  1  0
 14 27  1  0
M  ISO  8  15  14  16  14  17  14  18  14  19  14  20  14  21  14  22  12
M  ISO  2  29  15  31  16
M  END
>  <DihAtoms>  (1) 
12,13,26,25

>  <DihDeg>  (1) 
-79.94388530950967

$$$$
