
 OpenBabel03272509233D

 49 53  0  0  0  0  0  0  0  0999 V2000
   35.5320   29.0390   33.8420 C   0  0  0  0  0  0  0  0  0  0  0  0
   36.3260   28.8060   32.7390 C   0  0  0  0  0  0  0  0  0  0  0  0
   36.0480   29.4980   31.5560 C   0  0  0  0  0  0  0  0  0  0  0  0
   34.9880   30.4100   31.4820 C   0  0  0  0  0  0  0  0  0  0  0  0
   34.4820   31.2050   30.5260 N   0  0  0  0  0  0  0  0  0  0  0  0
   33.4270   31.8960   31.0080 C   0  0  0  0  0  0  0  0  0  0  0  0
   33.2700   31.5230   32.3100 N   0  0  0  0  0  0  0  0  0  0  0  0
   34.2190   30.6120   32.6130 C   0  0  0  0  0  0  0  0  0  0  0  0
   34.4900   29.9290   33.7890 C   0  0  0  0  0  0  0  0  0  0  0  0
   35.8230   28.4660   34.6950 H   0  0  0  0  0  0  0  0  0  0  0  0
   36.5840   29.4180   30.6120 H   0  0  0  0  0  0  0  0  0  0  0  0
   34.8590   31.2680   29.5540 H   0  0  0  0  0  0  0  0  0  0  0  0
   32.8130   32.6230   30.4560 H   0  0  0  0  0  0  0  0  0  0  0  0
   33.8780   31.1640   35.8850 C   0  0  0  0  0  0  0  0  0  0  0  0
   33.6850   30.1340   34.9890 C   0  0  0  0  0  0  0  0  0  0  0  0
   32.6760   29.2160   35.2020 C   0  0  0  0  0  0  0  0  0  0  0  0
   32.4560   28.3720   34.5400 H   0  0  0  0  0  0  0  0  0  0  0  0
   31.8920   29.3760   36.3270 C   0  0  0  0  0  0  0  0  0  0  0  0
   31.0860   28.6580   36.5140 H   0  0  0  0  0  0  0  0  0  0  0  0
   32.0370   30.3960   37.2730 C   0  0  0  0  0  3  0  0  0  0  0  0
   33.0800   31.2840   36.9840 C   0  0  0  0  0  3  0  0  0  0  0  0
   35.3150   32.5920   34.2470 H   0  0  0  0  0  0  0  0  0  0  0  0
   35.1720   32.3050   35.5710 S   0  0  0  0  0  0  0  0  0  0  0  0
   35.0260   33.5380   36.3880 O   0  0  0  0  0  0  0  0  0  0  0  0
   36.4440   31.5950   36.0100 O   0  0  0  0  0  0  0  0  0  0  0  0
   37.3980   27.9760   32.5740 O   0  0  0  0  0  0  0  0  0  0  0  0
   37.9990   26.0040   33.8460 C   0  0  0  0  0  0  0  0  0  0  0  0
   38.0520   24.6350   34.0870 C   0  0  0  0  0  0  0  0  0  0  0  0
   37.4480   23.8500   33.1030 C   0  0  0  0  0  0  0  0  0  0  0  0
   36.8390   24.4230   31.9660 C   0  0  0  0  0  0  0  0  0  0  0  0
   36.8410   25.8240   31.8190 C   0  0  0  0  0  0  0  0  0  0  0  0
   37.4390   26.6210   32.7910 C   0  0  0  0  0  0  0  0  0  0  0  0
   37.4460   22.7760   33.2150 H   0  0  0  0  0  0  0  0  0  0  0  0
   36.3760   23.8090   31.2160 H   0  0  0  0  0  0  0  0  0  0  0  0
   36.3760   26.2670   30.9510 H   0  0  0  0  0  0  0  0  0  0  0  0
   37.9170   23.8180   36.3900 C   0  0  0  0  0  0  0  0  0  0  0  0
   38.6680   24.0530   35.2380 C   0  0  0  0  0  0  0  0  0  0  0  0
   40.0260   23.6980   35.2610 C   0  0  0  0  0  0  0  0  0  0  0  0
   40.5260   23.1520   36.3970 N   0  0  0  0  0  0  0  0  0  0  0  0
   39.7580   22.9410   37.4980 C   0  0  0  0  0  0  0  0  0  0  0  0
   38.4640   23.2730   37.4920 N   0  0  0  0  0  0  0  0  0  0  0  0
   36.8550   24.0730   36.4320 H   0  0  0  0  0  0  0  0  0  0  0  0
   40.3250   22.4970   38.3070 H   0  0  0  0  0  0  0  0  0  0  0  0
   40.8740   23.9260   34.0620 C   0  0  0  0  0  0  0  0  0  0  0  0
   41.4480   22.9810   33.9220 H   0  0  0  0  0  0  0  0  0  0  0  0
   40.1960   23.9820   33.1790 H   0  0  0  0  0  0  0  0  0  0  0  0
   41.5330   24.8080   34.1450 H   0  0  0  0  0  0  0  0  0  0  0  0
   38.5800   26.8740   34.7810 O   0  0  0  0  0  0  0  0  0  0  0  0
   39.4590   26.6060   35.2180 H   0  0  0  0  0  0  0  0  0  0  0  0
  1 10  1  0  0  0  0
  2  1  2  0  0  0  0
  3  2  1  0  0  0  0
  4  3  2  0  0  0  0
  4  8  1  0  0  0  0
  5  6  1  0  0  0  0
  5  4  1  0  0  0  0
  6  7  2  0  0  0  0
  7  8  1  0  0  0  0
  8  9  2  0  0  0  0
  9  1  1  0  0  0  0
  9 15  1  0  0  0  0
 11  3  1  0  0  0  0
 12  5  1  0  0  0  0
 13  6  1  0  0  0  0
 14 21  1  0  0  0  0
 15 16  1  0  0  0  0
 15 14  2  0  0  0  0
 16 18  2  0  0  0  0
 17 16  1  0  0  0  0
 18 19  1  0  0  0  0
 18 20  1  0  0  0  0
 21 20  2  0  0  0  0
 22 23  1  0  0  0  0
 23 14  1  0  0  0  0
 23 25  2  0  0  0  0
 23 24  2  0  0  0  0
 26  2  1  0  0  0  0
 26 32  1  0  0  0  0
 27 28  1  0  0  0  0
 27 48  1  0  0  0  0
 28 37  1  0  0  0  0
 29 33  1  0  0  0  0
 29 28  2  0  0  0  0
 30 29  1  0  0  0  0
 31 30  2  0  0  0  0
 31 32  1  0  0  0  0
 32 27  2  0  0  0  0
 34 30  1  0  0  0  0
 35 31  1  0  0  0  0
 36 42  1  0  0  0  0
 36 41  1  0  0  0  0
 37 38  1  0  0  0  0
 37 36  2  0  0  0  0
 38 39  2  0  0  0  0
 39 40  1  0  0  0  0
 40 43  1  0  0  0  0
 41 40  2  0  0  0  0
 44 47  1  0  0  0  0
 44 38  1  0  0  0  0
 45 44  1  0  0  0  0
 46 44  1  0  0  0  0
 48 49  1  0  0  0  0
M  END
>  <minimizedAffinity>
-6.82597399

$$$$

 OpenBabel03272509233D

 49 53  0  0  0  0  0  0  0  0999 V2000
   36.2970   28.2910   34.5870 C   0  0  0  0  0  0  0  0  0  0  0  0
   36.9360   27.3690   33.7850 C   0  0  0  0  0  0  0  0  0  0  0  0
   37.0340   27.6270   32.4140 C   0  0  0  0  0  0  0  0  0  0  0  0
   36.4980   28.7940   31.8570 C   0  0  0  0  0  0  0  0  0  0  0  0
   36.4320   29.3140   30.6210 N   0  0  0  0  0  0  0  0  0  0  0  0
   35.7840   30.4990   30.6510 C   0  0  0  0  0  0  0  0  0  0  0  0
   35.4350   30.7280   31.9500 N   0  0  0  0  0  0  0  0  0  0  0  0
   35.8670   29.6910   32.6980 C   0  0  0  0  0  0  0  0  0  0  0  0
   35.7660   29.4400   34.0590 C   0  0  0  0  0  0  0  0  0  0  0  0
   36.2730   28.0060   35.6150 H   0  0  0  0  0  0  0  0  0  0  0  0
   37.5070   26.9950   31.6640 H   0  0  0  0  0  0  0  0  0  0  0  0
   36.8270   28.8580   29.7690 H   0  0  0  0  0  0  0  0  0  0  0  0
   35.5780   31.1550   29.7920 H   0  0  0  0  0  0  0  0  0  0  0  0
   33.7340   30.4650   35.1120 C   0  0  0  0  0  0  0  0  0  0  0  0
   35.1010   30.3790   34.9560 C   0  0  0  0  0  0  0  0  0  0  0  0
   35.9310   31.2150   35.6770 C   0  0  0  0  0  0  0  0  0  0  0  0
   37.0240   31.2100   35.6110 H   0  0  0  0  0  0  0  0  0  0  0  0
   35.3380   32.1180   36.5370 C   0  0  0  0  0  0  0  0  0  0  0  0
   35.9800   32.7910   37.1180 H   0  0  0  0  0  0  0  0  0  0  0  0
   33.9620   32.2560   36.7390 C   0  0  0  0  0  3  0  0  0  0  0  0
   33.1910   31.3730   35.9740 C   0  0  0  0  0  3  0  0  0  0  0  0
   33.4380   28.4450   33.4940 H   0  0  0  0  0  0  0  0  0  0  0  0
   32.7220   29.3820   34.1770 S   0  0  0  0  0  0  0  0  0  0  0  0
   31.6630   28.7600   35.0140 O   0  0  0  0  0  0  0  0  0  0  0  0
   32.0460   30.2650   33.1380 O   0  0  0  0  0  0  0  0  0  0  0  0
   37.5270   26.1770   34.0970 O   0  0  0  0  0  0  0  0  0  0  0  0
   39.4090   24.7830   34.7110 C   0  0  0  0  0  0  0  0  0  0  0  0
   40.7550   24.5290   34.9590 C   0  0  0  0  0  0  0  0  0  0  0  0
   41.5920   25.6340   34.7920 C   0  0  0  0  0  0  0  0  0  0  0  0
   41.0910   26.8940   34.4020 C   0  0  0  0  0  0  0  0  0  0  0  0
   39.7080   27.0420   34.1750 C   0  0  0  0  0  0  0  0  0  0  0  0
   38.8600   25.9500   34.3380 C   0  0  0  0  0  0  0  0  0  0  0  0
   42.6520   25.5210   34.9660 H   0  0  0  0  0  0  0  0  0  0  0  0
   41.7450   27.7370   34.2760 H   0  0  0  0  0  0  0  0  0  0  0  0
   39.3190   28.0040   33.8770 H   0  0  0  0  0  0  0  0  0  0  0  0
   41.3490   22.9220   36.7060 C   0  0  0  0  0  0  0  0  0  0  0  0
   41.2650   23.2530   35.3540 C   0  0  0  0  0  0  0  0  0  0  0  0
   41.6920   22.2970   34.4200 C   0  0  0  0  0  0  0  0  0  0  0  0
   42.1620   21.1130   34.8850 N   0  0  0  0  0  0  0  0  0  0  0  0
   42.2280   20.8320   36.2120 C   0  0  0  0  0  0  0  0  0  0  0  0
   41.8240   21.7310   37.1150 N   0  0  0  0  0  0  0  0  0  0  0  0
   41.0320   23.6260   37.4800 H   0  0  0  0  0  0  0  0  0  0  0  0
   42.6270   19.8420   36.3970 H   0  0  0  0  0  0  0  0  0  0  0  0
   41.6250   22.5950   32.9650 C   0  0  0  0  0  0  0  0  0  0  0  0
   41.1750   21.6900   32.4980 H   0  0  0  0  0  0  0  0  0  0  0  0
   40.8640   23.3990   32.8240 H   0  0  0  0  0  0  0  0  0  0  0  0
   42.6010   22.8570   32.5200 H   0  0  0  0  0  0  0  0  0  0  0  0
   38.4900   23.7310   34.8530 O   0  0  0  0  0  0  0  0  0  0  0  0
   38.6120   23.0770   35.6220 H   0  0  0  0  0  0  0  0  0  0  0  0
  1 10  1  0  0  0  0
  2 26  1  0  0  0  0
  2  1  2  0  0  0  0
  3  2  1  0  0  0  0
  4  3  2  0  0  0  0
  4  8  1  0  0  0  0
  5  6  1  0  0  0  0
  5  4  1  0  0  0  0
  6  7  2  0  0  0  0
  7  8  1  0  0  0  0
  8  9  2  0  0  0  0
  9  1  1  0  0  0  0
  9 15  1  0  0  0  0
 11  3  1  0  0  0  0
 12  5  1  0  0  0  0
 13  6  1  0  0  0  0
 14 21  1  0  0  0  0
 15 14  2  0  0  0  0
 15 16  1  0  0  0  0
 16 18  2  0  0  0  0
 17 16  1  0  0  0  0
 18 20  1  0  0  0  0
 18 19  1  0  0  0  0
 21 20  2  0  0  0  0
 22 23  1  0  0  0  0
 23 24  2  0  0  0  0
 23 14  1  0  0  0  0
 25 23  2  0  0  0  0
 26 32  1  0  0  0  0
 27 48  1  0  0  0  0
 27 28  1  0  0  0  0
 28 37  1  0  0  0  0
 29 28  2  0  0  0  0
 29 33  1  0  0  0  0
 30 29  1  0  0  0  0
 31 32  1  0  0  0  0
 31 30  2  0  0  0  0
 32 27  2  0  0  0  0
 34 30  1  0  0  0  0
 35 31  1  0  0  0  0
 36 41  1  0  0  0  0
 36 42  1  0  0  0  0
 37 36  2  0  0  0  0
 38 39  2  0  0  0  0
 38 37  1  0  0  0  0
 39 40  1  0  0  0  0
 40 43  1  0  0  0  0
 40 41  2  0  0  0  0
 44 38  1  0  0  0  0
 45 44  1  0  0  0  0
 46 44  1  0  0  0  0
 47 44  1  0  0  0  0
 48 49  1  0  0  0  0
M  END
>  <minimizedAffinity>
-6.78242493

$$$$

 OpenBabel03272509233D

 49 53  0  0  0  0  0  0  0  0999 V2000
   37.2120   25.4010   32.5520 C   0  0  0  0  0  0  0  0  0  0  0  0
   37.7680   26.5890   32.1260 C   0  0  0  0  0  0  0  0  0  0  0  0
   38.5390   26.5880   30.9590 C   0  0  0  0  0  0  0  0  0  0  0  0
   38.7480   25.4110   30.2310 C   0  0  0  0  0  0  0  0  0  0  0  0
   39.4140   25.0920   29.1100 N   0  0  0  0  0  0  0  0  0  0  0  0
   39.2810   23.7740   28.8510 C   0  0  0  0  0  0  0  0  0  0  0  0
   38.5040   23.2510   29.8420 N   0  0  0  0  0  0  0  0  0  0  0  0
   38.1710   24.2440   30.6940 C   0  0  0  0  0  0  0  0  0  0  0  0
   37.4050   24.2380   31.8510 C   0  0  0  0  0  0  0  0  0  0  0  0
   36.6420   25.5040   33.4490 H   0  0  0  0  0  0  0  0  0  0  0  0
   39.0370   27.4440   30.5060 H   0  0  0  0  0  0  0  0  0  0  0  0
   39.9540   25.7750   28.5330 H   0  0  0  0  0  0  0  0  0  0  0  0
   39.7160   23.2260   28.0020 H   0  0  0  0  0  0  0  0  0  0  0  0
   37.3350   22.2210   33.3400 C   0  0  0  0  0  0  0  0  0  0  0  0
   36.7920   23.0120   32.3500 C   0  0  0  0  0  0  0  0  0  0  0  0
   35.5920   22.6570   31.7660 C   0  0  0  0  0  0  0  0  0  0  0  0
   35.0940   23.2290   30.9760 H   0  0  0  0  0  0  0  0  0  0  0  0
   34.9810   21.5020   32.2110 C   0  0  0  0  0  0  0  0  0  0  0  0
   34.0270   21.2030   31.7610 H   0  0  0  0  0  0  0  0  0  0  0  0
   35.4790   20.6590   33.2090 C   0  0  0  0  0  3  0  0  0  0  0  0
   36.6970   21.0880   33.7490 C   0  0  0  0  0  3  0  0  0  0  0  0
   39.0700   24.0570   33.9770 H   0  0  0  0  0  0  0  0  0  0  0  0
   38.8600   22.7130   34.0510 S   0  0  0  0  0  0  0  0  0  0  0  0
   39.0050   22.2110   35.4430 O   0  0  0  0  0  0  0  0  0  0  0  0
   39.9310   22.0510   33.1960 O   0  0  0  0  0  0  0  0  0  0  0  0
   37.7040   27.8440   32.6630 O   0  0  0  0  0  0  0  0  0  0  0  0
   35.8820   29.0560   33.7000 C   0  0  0  0  0  0  0  0  0  0  0  0
   34.7920   29.9220   33.7040 C   0  0  0  0  0  0  0  0  0  0  0  0
   34.4750   30.4590   32.4550 C   0  0  0  0  0  0  0  0  0  0  0  0
   35.2150   30.1340   31.2970 C   0  0  0  0  0  0  0  0  0  0  0  0
   36.3020   29.2450   31.4050 C   0  0  0  0  0  0  0  0  0  0  0  0
   36.6310   28.7010   32.6430 C   0  0  0  0  0  0  0  0  0  0  0  0
   33.6420   31.1400   32.3710 H   0  0  0  0  0  0  0  0  0  0  0  0
   34.9620   30.5530   30.3410 H   0  0  0  0  0  0  0  0  0  0  0  0
   36.8710   28.9930   30.5220 H   0  0  0  0  0  0  0  0  0  0  0  0
   32.8530   29.5790   35.1580 C   0  0  0  0  0  0  0  0  0  0  0  0
   34.0420   30.2520   34.8750 C   0  0  0  0  0  0  0  0  0  0  0  0
   34.4590   31.2460   35.7750 C   0  0  0  0  0  0  0  0  0  0  0  0
   33.6840   31.4920   36.8600 N   0  0  0  0  0  0  0  0  0  0  0  0
   32.5320   30.8120   37.0970 C   0  0  0  0  0  0  0  0  0  0  0  0
   32.1220   29.8630   36.2500 N   0  0  0  0  0  0  0  0  0  0  0  0
   32.4780   28.7950   34.4930 H   0  0  0  0  0  0  0  0  0  0  0  0
   32.0470   31.1410   38.0080 H   0  0  0  0  0  0  0  0  0  0  0  0
   35.7170   31.9950   35.5250 C   0  0  0  0  0  0  0  0  0  0  0  0
   36.2560   32.0040   36.5000 H   0  0  0  0  0  0  0  0  0  0  0  0
   36.3510   31.3700   34.8530 H   0  0  0  0  0  0  0  0  0  0  0  0
   35.5560   33.0120   35.1250 H   0  0  0  0  0  0  0  0  0  0  0  0
   36.2760   28.4670   34.9110 O   0  0  0  0  0  0  0  0  0  0  0  0
   35.5570   28.1610   35.5620 H   0  0  0  0  0  0  0  0  0  0  0  0
  1 10  1  0  0  0  0
  2  1  1  0  0  0  0
  2 26  1  0  0  0  0
  3  2  2  0  0  0  0
  4  8  2  0  0  0  0
  4  3  1  0  0  0  0
  5  4  1  0  0  0  0
  6  5  1  0  0  0  0
  6  7  2  0  0  0  0
  7  8  1  0  0  0  0
  8  9  1  0  0  0  0
  9 15  1  0  0  0  0
  9  1  2  0  0  0  0
 11  3  1  0  0  0  0
 12  5  1  0  0  0  0
 13  6  1  0  0  0  0
 14 21  1  0  0  0  0
 14 23  1  0  0  0  0
 15 14  2  0  0  0  0
 16 18  2  0  0  0  0
 16 15  1  0  0  0  0
 17 16  1  0  0  0  0
 18 20  1  0  0  0  0
 19 18  1  0  0  0  0
 20 21  2  0  0  0  0
 22 23  1  0  0  0  0
 23 24  2  0  0  0  0
 25 23  2  0  0  0  0
 27 28  1  0  0  0  0
 27 48  1  0  0  0  0
 28 37  1  0  0  0  0
 29 28  2  0  0  0  0
 30 31  2  0  0  0  0
 30 29  1  0  0  0  0
 31 32  1  0  0  0  0
 32 26  1  0  0  0  0
 32 27  2  0  0  0  0
 33 29  1  0  0  0  0
 34 30  1  0  0  0  0
 35 31  1  0  0  0  0
 36 41  1  0  0  0  0
 37 36  2  0  0  0  0
 37 38  1  0  0  0  0
 38 39  2  0  0  0  0
 39 40  1  0  0  0  0
 40 43  1  0  0  0  0
 41 40  2  0  0  0  0
 42 36  1  0  0  0  0
 44 38  1  0  0  0  0
 44 45  1  0  0  0  0
 46 44  1  0  0  0  0
 47 44  1  0  0  0  0
 48 49  1  0  0  0  0
M  END
>  <minimizedAffinity>
-6.60721779

$$$$

 OpenBabel03272509233D

 49 53  0  0  0  0  0  0  0  0999 V2000
   38.5800   25.6860   34.3440 C   0  0  0  0  0  0  0  0  0  0  0  0
   38.3270   26.1470   33.0690 C   0  0  0  0  0  0  0  0  0  0  0  0
   37.8090   25.2540   32.1250 C   0  0  0  0  0  0  0  0  0  0  0  0
   37.5490   23.9190   32.4560 C   0  0  0  0  0  0  0  0  0  0  0  0
   37.0680   22.8520   31.7980 N   0  0  0  0  0  0  0  0  0  0  0  0
   37.0260   21.7820   32.6210 C   0  0  0  0  0  0  0  0  0  0  0  0
   37.4940   22.1940   33.8340 N   0  0  0  0  0  0  0  0  0  0  0  0
   37.8180   23.5010   33.7460 C   0  0  0  0  0  0  0  0  0  0  0  0
   38.3320   24.3810   34.6870 C   0  0  0  0  0  0  0  0  0  0  0  0
   38.9730   26.4390   34.9900 H   0  0  0  0  0  0  0  0  0  0  0  0
   37.5610   25.4740   31.0870 H   0  0  0  0  0  0  0  0  0  0  0  0
   36.7750   22.8630   30.7960 H   0  0  0  0  0  0  0  0  0  0  0  0
   36.6780   20.7700   32.3620 H   0  0  0  0  0  0  0  0  0  0  0  0
   39.8070   23.3710   36.4460 C   0  0  0  0  0  0  0  0  0  0  0  0
   38.6200   23.9510   36.0510 C   0  0  0  0  0  0  0  0  0  0  0  0
   37.6130   24.1570   36.9740 C   0  0  0  0  0  0  0  0  0  0  0  0
   36.6440   24.6100   36.7420 H   0  0  0  0  0  0  0  0  0  0  0  0
   37.8480   23.7620   38.2750 C   0  0  0  0  0  0  0  0  0  0  0  0
   37.0620   23.9170   39.0230 H   0  0  0  0  0  0  0  0  0  0  0  0
   39.0270   23.1690   38.7390 C   0  0  0  0  0  3  0  0  0  0  0  0
   39.9960   22.9970   37.7440 C   0  0  0  0  0  3  0  0  0  0  0  0
   40.9570   24.0010   34.1950 H   0  0  0  0  0  0  0  0  0  0  0  0
   41.0560   23.1320   35.2390 S   0  0  0  0  0  0  0  0  0  0  0  0
   42.4140   23.1510   35.8430 O   0  0  0  0  0  0  0  0  0  0  0  0
   40.8060   21.7390   34.6800 O   0  0  0  0  0  0  0  0  0  0  0  0
   38.4970   27.3870   32.5210 O   0  0  0  0  0  0  0  0  0  0  0  0
   36.4550   28.6750   32.6990 C   0  0  0  0  0  0  0  0  0  0  0  0
   35.4550   29.5150   32.2170 C   0  0  0  0  0  0  0  0  0  0  0  0
   35.6140   29.8990   30.8850 C   0  0  0  0  0  0  0  0  0  0  0  0
   36.7090   29.4590   30.1100 C   0  0  0  0  0  0  0  0  0  0  0  0
   37.6660   28.6080   30.6970 C   0  0  0  0  0  0  0  0  0  0  0  0
   37.5220   28.2160   32.0250 C   0  0  0  0  0  0  0  0  0  0  0  0
   34.8810   30.5510   30.4340 H   0  0  0  0  0  0  0  0  0  0  0  0
   36.8220   29.7620   29.0860 H   0  0  0  0  0  0  0  0  0  0  0  0
   38.5060   28.2690   30.1090 H   0  0  0  0  0  0  0  0  0  0  0  0
   33.1390   29.2630   32.9670 C   0  0  0  0  0  0  0  0  0  0  0  0
   34.3460   29.9620   33.0010 C   0  0  0  0  0  0  0  0  0  0  0  0
   34.4190   31.0980   33.8220 C   0  0  0  0  0  0  0  0  0  0  0  0
   33.3170   31.4480   34.5300 N   0  0  0  0  0  0  0  0  0  0  0  0
   32.1600   30.7390   34.4670 C   0  0  0  0  0  0  0  0  0  0  0  0
   32.0740   29.6550   33.6900 N   0  0  0  0  0  0  0  0  0  0  0  0
   33.0210   28.3700   32.3460 H   0  0  0  0  0  0  0  0  0  0  0  0
   31.3900   31.1640   35.0980 H   0  0  0  0  0  0  0  0  0  0  0  0
   35.6800   31.8810   33.8970 C   0  0  0  0  0  0  0  0  0  0  0  0
   35.8520   32.0630   34.9820 H   0  0  0  0  0  0  0  0  0  0  0  0
   36.5110   31.2060   33.5850 H   0  0  0  0  0  0  0  0  0  0  0  0
   35.6560   32.8180   33.3140 H   0  0  0  0  0  0  0  0  0  0  0  0
   36.3800   28.2350   34.0300 O   0  0  0  0  0  0  0  0  0  0  0  0
   35.4690   27.9910   34.4130 H   0  0  0  0  0  0  0  0  0  0  0  0
  1  9  1  0  0  0  0
  1 10  1  0  0  0  0
  2  1  2  0  0  0  0
  3  4  2  0  0  0  0
  3  2  1  0  0  0  0
  4  8  1  0  0  0  0
  5  4  1  0  0  0  0
  5  6  1  0  0  0  0
  6  7  2  0  0  0  0
  8  7  1  0  0  0  0
  8  9  2  0  0  0  0
  9 15  1  0  0  0  0
 11  3  1  0  0  0  0
 12  5  1  0  0  0  0
 13  6  1  0  0  0  0
 14 21  1  0  0  0  0
 15 14  2  0  0  0  0
 15 16  1  0  0  0  0
 16 18  2  0  0  0  0
 17 16  1  0  0  0  0
 18 20  1  0  0  0  0
 18 19  1  0  0  0  0
 21 20  2  0  0  0  0
 22 23  1  0  0  0  0
 23 24  2  0  0  0  0
 23 14  1  0  0  0  0
 25 23  2  0  0  0  0
 26  2  1  0  0  0  0
 27 48  1  0  0  0  0
 28 27  1  0  0  0  0
 28 37  1  0  0  0  0
 29 28  2  0  0  0  0
 30 31  2  0  0  0  0
 30 29  1  0  0  0  0
 31 32  1  0  0  0  0
 32 26  1  0  0  0  0
 32 27  2  0  0  0  0
 33 29  1  0  0  0  0
 34 30  1  0  0  0  0
 35 31  1  0  0  0  0
 36 37  2  0  0  0  0
 36 41  1  0  0  0  0
 37 38  1  0  0  0  0
 38 44  1  0  0  0  0
 38 39  2  0  0  0  0
 40 39  1  0  0  0  0
 40 43  1  0  0  0  0
 41 40  2  0  0  0  0
 42 36  1  0  0  0  0
 44 45  1  0  0  0  0
 46 44  1  0  0  0  0
 47 44  1  0  0  0  0
 48 49  1  0  0  0  0
M  END
>  <minimizedAffinity>
-6.56360102

$$$$

 OpenBabel03272509233D

 49 53  0  0  0  0  0  0  0  0999 V2000
   35.7290   28.8670   34.0100 C   0  0  0  0  0  0  0  0  0  0  0  0
   36.2560   28.2040   32.9220 C   0  0  0  0  0  0  0  0  0  0  0  0
   36.1950   28.8200   31.6680 C   0  0  0  0  0  0  0  0  0  0  0  0
   35.6140   30.0840   31.5090 C   0  0  0  0  0  0  0  0  0  0  0  0
   35.4090   30.9130   30.4740 N   0  0  0  0  0  0  0  0  0  0  0  0
   34.7860   32.0350   30.8960 C   0  0  0  0  0  0  0  0  0  0  0  0
   34.5960   31.9030   32.2400 N   0  0  0  0  0  0  0  0  0  0  0  0
   35.0990   30.7120   32.6280 C   0  0  0  0  0  0  0  0  0  0  0  0
   35.1560   30.1060   33.8740 C   0  0  0  0  0  0  0  0  0  0  0  0
   35.8230   28.3170   34.9210 H   0  0  0  0  0  0  0  0  0  0  0  0
   36.5680   28.4200   30.7260 H   0  0  0  0  0  0  0  0  0  0  0  0
   35.6950   30.7080   29.4910 H   0  0  0  0  0  0  0  0  0  0  0  0
   34.4890   32.8930   30.2730 H   0  0  0  0  0  0  0  0  0  0  0  0
   33.3170   30.6120   35.5030 C   0  0  0  0  0  0  0  0  0  0  0  0
   34.6150   30.7590   35.0620 C   0  0  0  0  0  0  0  0  0  0  0  0
   35.4920   31.5670   35.7580 C   0  0  0  0  0  0  0  0  0  0  0  0
   36.5360   31.7360   35.4750 H   0  0  0  0  0  0  0  0  0  0  0  0
   35.0170   32.2020   36.8870 C   0  0  0  0  0  0  0  0  0  0  0  0
   35.6970   32.8480   37.4550 H   0  0  0  0  0  0  0  0  0  0  0  0
   33.7150   32.0950   37.3870 C   0  0  0  0  0  3  0  0  0  0  0  0
   32.8900   31.2590   36.6250 C   0  0  0  0  0  3  0  0  0  0  0  0
   32.8340   29.0400   33.4830 H   0  0  0  0  0  0  0  0  0  0  0  0
   32.2410   29.5750   34.5860 S   0  0  0  0  0  0  0  0  0  0  0  0
   31.6270   28.5260   35.4420 O   0  0  0  0  0  0  0  0  0  0  0  0
   31.1320   30.4910   34.0910 O   0  0  0  0  0  0  0  0  0  0  0  0
   36.8630   26.9830   32.8330 O   0  0  0  0  0  0  0  0  0  0  0  0
   38.2750   26.0900   31.0800 C   0  0  0  0  0  0  0  0  0  0  0  0
   39.4950   25.7950   30.4790 C   0  0  0  0  0  0  0  0  0  0  0  0
   40.6130   26.1910   31.2150 C   0  0  0  0  0  0  0  0  0  0  0  0
   40.4890   26.8380   32.4640 C   0  0  0  0  0  0  0  0  0  0  0  0
   39.2040   27.0900   32.9820 C   0  0  0  0  0  0  0  0  0  0  0  0
   38.0780   26.7010   32.2600 C   0  0  0  0  0  0  0  0  0  0  0  0
   41.5990   25.9980   30.8190 H   0  0  0  0  0  0  0  0  0  0  0  0
   41.3570   27.1390   33.0210 H   0  0  0  0  0  0  0  0  0  0  0  0
   39.1040   27.5850   33.9360 H   0  0  0  0  0  0  0  0  0  0  0  0
   39.8640   25.8860   28.0610 C   0  0  0  0  0  0  0  0  0  0  0  0
   39.6220   25.1400   29.2150 C   0  0  0  0  0  0  0  0  0  0  0  0
   39.5130   23.7470   29.0800 C   0  0  0  0  0  0  0  0  0  0  0  0
   39.6470   23.2120   27.8410 N   0  0  0  0  0  0  0  0  0  0  0  0
   39.8810   23.9770   26.7430 C   0  0  0  0  0  0  0  0  0  0  0  0
   39.9880   25.3040   26.8550 N   0  0  0  0  0  0  0  0  0  0  0  0
   39.9580   26.9750   28.1040 H   0  0  0  0  0  0  0  0  0  0  0  0
   39.9600   23.3800   25.8430 H   0  0  0  0  0  0  0  0  0  0  0  0
   39.2560   22.9020   30.2750 C   0  0  0  0  0  0  0  0  0  0  0  0
   39.9760   22.0550   30.1990 H   0  0  0  0  0  0  0  0  0  0  0  0
   39.5860   23.4790   31.1700 H   0  0  0  0  0  0  0  0  0  0  0  0
   38.2110   22.5560   30.3580 H   0  0  0  0  0  0  0  0  0  0  0  0
   37.0930   25.7300   30.4130 O   0  0  0  0  0  0  0  0  0  0  0  0
   37.0620   24.8400   29.9210 H   0  0  0  0  0  0  0  0  0  0  0  0
  1 10  1  0  0  0  0
  2  1  2  0  0  0  0
  3  2  1  0  0  0  0
  4  3  2  0  0  0  0
  4  8  1  0  0  0  0
  5  6  1  0  0  0  0
  5  4  1  0  0  0  0
  6  7  2  0  0  0  0
  7  8  1  0  0  0  0
  8  9  2  0  0  0  0
  9  1  1  0  0  0  0
  9 15  1  0  0  0  0
 11  3  1  0  0  0  0
 12  5  1  0  0  0  0
 13  6  1  0  0  0  0
 14 21  1  0  0  0  0
 15 14  2  0  0  0  0
 15 16  1  0  0  0  0
 16 18  2  0  0  0  0
 17 16  1  0  0  0  0
 18 20  1  0  0  0  0
 18 19  1  0  0  0  0
 21 20  2  0  0  0  0
 22 23  1  0  0  0  0
 23 24  2  0  0  0  0
 23 14  1  0  0  0  0
 25 23  2  0  0  0  0
 26  2  1  0  0  0  0
 27 32  1  0  0  0  0
 28 27  2  0  0  0  0
 28 29  1  0  0  0  0
 29 30  2  0  0  0  0
 30 31  1  0  0  0  0
 30 34  1  0  0  0  0
 31 35  1  0  0  0  0
 32 26  1  0  0  0  0
 32 31  2  0  0  0  0
 33 29  1  0  0  0  0
 36 42  1  0  0  0  0
 36 37  1  0  0  0  0
 37 28  1  0  0  0  0
 38 37  2  0  0  0  0
 38 44  1  0  0  0  0
 39 38  1  0  0  0  0
 40 41  1  0  0  0  0
 40 39  2  0  0  0  0
 41 36  2  0  0  0  0
 43 40  1  0  0  0  0
 44 47  1  0  0  0  0
 44 46  1  0  0  0  0
 45 44  1  0  0  0  0
 48 27  1  0  0  0  0
 49 48  1  0  0  0  0
M  END
>  <minimizedAffinity>
-6.51593876

$$$$

 OpenBabel03272509233D

 49 53  0  0  0  0  0  0  0  0999 V2000
   36.1830   29.3340   32.7680 C   0  0  0  0  0  0  0  0  0  0  0  0
   36.6860   28.9520   31.5430 C   0  0  0  0  0  0  0  0  0  0  0  0
   36.5250   29.8150   30.4540 C   0  0  0  0  0  0  0  0  0  0  0  0
   35.8690   31.0440   30.5950 C   0  0  0  0  0  0  0  0  0  0  0  0
   35.5650   32.0590   29.7710 N   0  0  0  0  0  0  0  0  0  0  0  0
   34.9060   33.0240   30.4490 C   0  0  0  0  0  0  0  0  0  0  0  0
   34.7960   32.5980   31.7390 N   0  0  0  0  0  0  0  0  0  0  0  0
   35.3810   31.3860   31.8420 C   0  0  0  0  0  0  0  0  0  0  0  0
   35.5370   30.5340   32.9250 C   0  0  0  0  0  0  0  0  0  0  0  0
   36.3550   28.6100   33.5350 H   0  0  0  0  0  0  0  0  0  0  0  0
   36.8680   29.6490   29.4340 H   0  0  0  0  0  0  0  0  0  0  0  0
   35.8090   32.0860   28.7560 H   0  0  0  0  0  0  0  0  0  0  0  0
   34.5310   33.9730   30.0370 H   0  0  0  0  0  0  0  0  0  0  0  0
   33.7560   30.5830   34.6900 C   0  0  0  0  0  0  0  0  0  0  0  0
   35.0260   30.8840   34.2460 C   0  0  0  0  0  0  0  0  0  0  0  0
   35.9030   31.5590   35.0730 C   0  0  0  0  0  0  0  0  0  0  0  0
   36.9260   31.8350   34.7970 H   0  0  0  0  0  0  0  0  0  0  0  0
   35.4550   31.9080   36.3310 C   0  0  0  0  0  0  0  0  0  0  0  0
   36.1360   32.4450   37.0020 H   0  0  0  0  0  0  0  0  0  0  0  0
   34.1820   31.6330   36.8400 C   0  0  0  0  0  3  0  0  0  0  0  0
   33.3550   30.9470   35.9420 C   0  0  0  0  0  3  0  0  0  0  0  0
   33.3440   28.9470   32.7050 H   0  0  0  0  0  0  0  0  0  0  0  0
   32.6800   29.7240   33.6050 S   0  0  0  0  0  0  0  0  0  0  0  0
   31.6550   28.9470   34.3500 O   0  0  0  0  0  0  0  0  0  0  0  0
   31.9660   30.8090   32.8110 O   0  0  0  0  0  0  0  0  0  0  0  0
   37.3520   27.8190   31.1690 O   0  0  0  0  0  0  0  0  0  0  0  0
   37.9640   26.0800   32.7380 C   0  0  0  0  0  0  0  0  0  0  0  0
   38.8590   25.3380   33.5040 C   0  0  0  0  0  0  0  0  0  0  0  0
   40.1920   25.7300   33.3770 C   0  0  0  0  0  0  0  0  0  0  0  0
   40.5760   26.7950   32.5330 C   0  0  0  0  0  0  0  0  0  0  0  0
   39.5880   27.4800   31.8000 C   0  0  0  0  0  0  0  0  0  0  0  0
   38.2530   27.1010   31.9160 C   0  0  0  0  0  0  0  0  0  0  0  0
   40.9500   25.2060   33.9390 H   0  0  0  0  0  0  0  0  0  0  0  0
   41.6060   27.0870   32.4430 H   0  0  0  0  0  0  0  0  0  0  0  0
   39.8760   28.2950   31.1530 H   0  0  0  0  0  0  0  0  0  0  0  0
   38.4180   22.9570   33.8620 C   0  0  0  0  0  0  0  0  0  0  0  0
   38.4710   24.2600   34.3590 C   0  0  0  0  0  0  0  0  0  0  0  0
   38.1350   24.4580   35.7070 C   0  0  0  0  0  0  0  0  0  0  0  0
   37.7790   23.3770   36.4440 N   0  0  0  0  0  0  0  0  0  0  0  0
   37.7400   22.1240   35.9190 C   0  0  0  0  0  0  0  0  0  0  0  0
   38.0570   21.9190   34.6370 N   0  0  0  0  0  0  0  0  0  0  0  0
   38.6680   22.7410   32.8200 H   0  0  0  0  0  0  0  0  0  0  0  0
   37.4360   21.3870   36.6520 H   0  0  0  0  0  0  0  0  0  0  0  0
   38.1750   25.8240   36.2910 C   0  0  0  0  0  0  0  0  0  0  0  0
   38.7080   25.7160   37.2630 H   0  0  0  0  0  0  0  0  0  0  0  0
   38.8570   26.4380   35.6570 H   0  0  0  0  0  0  0  0  0  0  0  0
   37.1790   26.2860   36.4080 H   0  0  0  0  0  0  0  0  0  0  0  0
   36.5990   25.7580   32.8000 O   0  0  0  0  0  0  0  0  0  0  0  0
   36.1980   25.5010   33.7000 H   0  0  0  0  0  0  0  0  0  0  0  0
  1  9  1  0  0  0  0
  1 10  1  0  0  0  0
  2  1  2  0  0  0  0
  3  4  2  0  0  0  0
  3  2  1  0  0  0  0
  4  8  1  0  0  0  0
  5  6  1  0  0  0  0
  5  4  1  0  0  0  0
  6  7  2  0  0  0  0
  7  8  1  0  0  0  0
  8  9  2  0  0  0  0
  9 15  1  0  0  0  0
 11  3  1  0  0  0  0
 12  5  1  0  0  0  0
 13  6  1  0  0  0  0
 14 21  1  0  0  0  0
 15 14  2  0  0  0  0
 15 16  1  0  0  0  0
 16 18  2  0  0  0  0
 17 16  1  0  0  0  0
 18 20  1  0  0  0  0
 18 19  1  0  0  0  0
 21 20  2  0  0  0  0
 22 23  1  0  0  0  0
 23 24  2  0  0  0  0
 23 14  1  0  0  0  0
 25 23  2  0  0  0  0
 26  2  1  0  0  0  0
 26 32  1  0  0  0  0
 27 48  1  0  0  0  0
 27 28  1  0  0  0  0
 28 37  1  0  0  0  0
 29 28  2  0  0  0  0
 29 33  1  0  0  0  0
 30 29  1  0  0  0  0
 31 32  1  0  0  0  0
 31 30  2  0  0  0  0
 32 27  2  0  0  0  0
 34 30  1  0  0  0  0
 35 31  1  0  0  0  0
 36 37  2  0  0  0  0
 36 41  1  0  0  0  0
 37 38  1  0  0  0  0
 38 44  1  0  0  0  0
 38 39  2  0  0  0  0
 40 39  1  0  0  0  0
 40 43  1  0  0  0  0
 41 40  2  0  0  0  0
 42 36  1  0  0  0  0
 44 47  1  0  0  0  0
 44 45  1  0  0  0  0
 46 44  1  0  0  0  0
 48 49  1  0  0  0  0
M  END
>  <minimizedAffinity>
-6.49053574

$$$$

 OpenBabel03272509233D

 49 53  0  0  0  0  0  0  0  0999 V2000
   35.1970   29.1020   33.2500 C   0  0  0  0  0  0  0  0  0  0  0  0
   35.9610   28.9830   32.1080 C   0  0  0  0  0  0  0  0  0  0  0  0
   35.7460   29.8860   31.0610 C   0  0  0  0  0  0  0  0  0  0  0  0
   34.7780   30.8930   31.1610 C   0  0  0  0  0  0  0  0  0  0  0  0
   34.3470   31.8800   30.3600 N   0  0  0  0  0  0  0  0  0  0  0  0
   33.3650   32.5770   30.9710 C   0  0  0  0  0  0  0  0  0  0  0  0
   33.1770   32.0070   32.1960 N   0  0  0  0  0  0  0  0  0  0  0  0
   34.0360   30.9740   32.3240 C   0  0  0  0  0  0  0  0  0  0  0  0
   34.2450   30.0820   33.3650 C   0  0  0  0  0  0  0  0  0  0  0  0
   35.4350   28.3690   33.9890 H   0  0  0  0  0  0  0  0  0  0  0  0
   36.2690   29.9150   30.1060 H   0  0  0  0  0  0  0  0  0  0  0  0
   34.7250   32.0700   29.4050 H   0  0  0  0  0  0  0  0  0  0  0  0
   32.8210   33.4400   30.5600 H   0  0  0  0  0  0  0  0  0  0  0  0
   33.7730   30.9860   35.6560 C   0  0  0  0  0  0  0  0  0  0  0  0
   33.4680   30.1580   34.5980 C   0  0  0  0  0  0  0  0  0  0  0  0
   32.3640   29.3300   34.6670 C   0  0  0  0  0  0  0  0  0  0  0  0
   32.0530   28.6440   33.8710 H   0  0  0  0  0  0  0  0  0  0  0  0
   31.6030   29.3740   35.8170 C   0  0  0  0  0  0  0  0  0  0  0  0
   30.7230   28.7240   35.8920 H   0  0  0  0  0  0  0  0  0  0  0  0
   31.8590   30.1890   36.9240 C   0  0  0  0  0  3  0  0  0  0  0  0
   32.9920   30.9960   36.7750 C   0  0  0  0  0  3  0  0  0  0  0  0
   35.4190   32.4300   34.2450 H   0  0  0  0  0  0  0  0  0  0  0  0
   35.1830   32.0190   35.5220 S   0  0  0  0  0  0  0  0  0  0  0  0
   35.1150   33.1660   36.4650 O   0  0  0  0  0  0  0  0  0  0  0  0
   36.3590   31.1420   35.9280 O   0  0  0  0  0  0  0  0  0  0  0  0
   36.9490   28.0960   31.7860 O   0  0  0  0  0  0  0  0  0  0  0  0
   36.9870   25.6770   31.8940 C   0  0  0  0  0  0  0  0  0  0  0  0
   37.2540   24.4510   32.4970 C   0  0  0  0  0  0  0  0  0  0  0  0
   37.8270   24.5450   33.7670 C   0  0  0  0  0  0  0  0  0  0  0  0
   38.1030   25.7920   34.3680 C   0  0  0  0  0  0  0  0  0  0  0  0
   37.7920   26.9740   33.6680 C   0  0  0  0  0  0  0  0  0  0  0  0
   37.2200   26.8980   32.4010 C   0  0  0  0  0  0  0  0  0  0  0  0
   38.0650   23.6390   34.3050 H   0  0  0  0  0  0  0  0  0  0  0  0
   38.5440   25.8520   35.3450 H   0  0  0  0  0  0  0  0  0  0  0  0
   38.0010   27.9310   34.1230 H   0  0  0  0  0  0  0  0  0  0  0  0
   35.7210   22.5990   32.0450 C   0  0  0  0  0  0  0  0  0  0  0  0
   36.9760   23.1880   31.8900 C   0  0  0  0  0  0  0  0  0  0  0  0
   37.9300   22.4980   31.1260 C   0  0  0  0  0  0  0  0  0  0  0  0
   37.5780   21.3050   30.5880 N   0  0  0  0  0  0  0  0  0  0  0  0
   36.3440   20.7660   30.7650 C   0  0  0  0  0  0  0  0  0  0  0  0
   35.4230   21.4100   31.4890 N   0  0  0  0  0  0  0  0  0  0  0  0
   34.9360   23.0880   32.6290 H   0  0  0  0  0  0  0  0  0  0  0  0
   36.2420   19.8120   30.2630 H   0  0  0  0  0  0  0  0  0  0  0  0
   39.2840   23.0790   30.9280 C   0  0  0  0  0  0  0  0  0  0  0  0
   39.4970   22.9680   29.8400 H   0  0  0  0  0  0  0  0  0  0  0  0
   39.2030   24.1780   31.0930 H   0  0  0  0  0  0  0  0  0  0  0  0
   40.0630   22.6140   31.5570 H   0  0  0  0  0  0  0  0  0  0  0  0
   36.4110   25.6840   30.6140 O   0  0  0  0  0  0  0  0  0  0  0  0
   35.6930   24.9960   30.3980 H   0  0  0  0  0  0  0  0  0  0  0  0
  1  9  1  0  0  0  0
  1 10  1  0  0  0  0
  2  1  2  0  0  0  0
  3  4  2  0  0  0  0
  3  2  1  0  0  0  0
  4  8  1  0  0  0  0
  5  6  1  0  0  0  0
  5  4  1  0  0  0  0
  6  7  2  0  0  0  0
  7  8  1  0  0  0  0
  8  9  2  0  0  0  0
  9 15  1  0  0  0  0
 11  3  1  0  0  0  0
 12  5  1  0  0  0  0
 13  6  1  0  0  0  0
 14 21  1  0  0  0  0
 15 16  1  0  0  0  0
 15 14  2  0  0  0  0
 16 18  2  0  0  0  0
 17 16  1  0  0  0  0
 18 19  1  0  0  0  0
 18 20  1  0  0  0  0
 21 20  2  0  0  0  0
 22 23  1  0  0  0  0
 23 14  1  0  0  0  0
 23 25  2  0  0  0  0
 23 24  2  0  0  0  0
 26  2  1  0  0  0  0
 26 32  1  0  0  0  0
 27 32  2  0  0  0  0
 27 28  1  0  0  0  0
 28 29  2  0  0  0  0
 29 33  1  0  0  0  0
 29 30  1  0  0  0  0
 30 34  1  0  0  0  0
 31 35  1  0  0  0  0
 31 30  2  0  0  0  0
 32 31  1  0  0  0  0
 36 42  1  0  0  0  0
 37 36  1  0  0  0  0
 37 28  1  0  0  0  0
 38 37  2  0  0  0  0
 39 40  2  0  0  0  0
 39 38  1  0  0  0  0
 40 41  1  0  0  0  0
 41 36  2  0  0  0  0
 43 40  1  0  0  0  0
 44 46  1  0  0  0  0
 44 38  1  0  0  0  0
 44 47  1  0  0  0  0
 45 44  1  0  0  0  0
 48 27  1  0  0  0  0
 49 48  1  0  0  0  0
M  END
>  <minimizedAffinity>
-6.47257137

$$$$

 OpenBabel03272509233D

 49 53  0  0  0  0  0  0  0  0999 V2000
   35.5610   29.3810   33.6260 C   0  0  0  0  0  0  0  0  0  0  0  0
   36.2410   29.0950   32.4610 C   0  0  0  0  0  0  0  0  0  0  0  0
   35.9050   29.7970   31.2990 C   0  0  0  0  0  0  0  0  0  0  0  0
   34.8990   30.7710   31.3070 C   0  0  0  0  0  0  0  0  0  0  0  0
   34.3620   31.5900   30.3890 N   0  0  0  0  0  0  0  0  0  0  0  0
   33.3950   32.3460   30.9530 C   0  0  0  0  0  0  0  0  0  0  0  0
   33.3280   31.9900   32.2680 N   0  0  0  0  0  0  0  0  0  0  0  0
   34.2440   31.0250   32.4970 C   0  0  0  0  0  0  0  0  0  0  0  0
   34.5730   30.3320   33.6530 C   0  0  0  0  0  0  0  0  0  0  0  0
   35.8890   28.7950   34.4560 H   0  0  0  0  0  0  0  0  0  0  0  0
   36.3530   29.6800   30.3130 H   0  0  0  0  0  0  0  0  0  0  0  0
   34.6570   31.6260   29.3880 H   0  0  0  0  0  0  0  0  0  0  0  0
   32.7800   33.1070   30.4480 H   0  0  0  0  0  0  0  0  0  0  0  0
   32.6570   30.0680   35.2500 C   0  0  0  0  0  0  0  0  0  0  0  0
   33.8880   30.5910   34.9150 C   0  0  0  0  0  0  0  0  0  0  0  0
   34.5480   31.4190   35.8010 C   0  0  0  0  0  0  0  0  0  0  0  0
   35.5260   31.8740   35.6130 H   0  0  0  0  0  0  0  0  0  0  0  0
   33.9310   31.6880   37.0060 C   0  0  0  0  0  0  0  0  0  0  0  0
   34.4390   32.3430   37.7240 H   0  0  0  0  0  0  0  0  0  0  0  0
   32.6870   31.1900   37.4050 C   0  0  0  0  0  3  0  0  0  0  0  0
   32.0840   30.3610   36.4520 C   0  0  0  0  0  3  0  0  0  0  0  0
   32.7180   28.4800   33.1850 H   0  0  0  0  0  0  0  0  0  0  0  0
   31.8570   29.0220   34.0920 S   0  0  0  0  0  0  0  0  0  0  0  0
   31.0420   27.9780   34.7660 O   0  0  0  0  0  0  0  0  0  0  0  0
   30.9150   29.9320   33.3180 O   0  0  0  0  0  0  0  0  0  0  0  0
   37.2440   28.2010   32.2140 O   0  0  0  0  0  0  0  0  0  0  0  0
   37.8860   26.2030   33.4210 C   0  0  0  0  0  0  0  0  0  0  0  0
   37.8820   24.8340   33.6770 C   0  0  0  0  0  0  0  0  0  0  0  0
   37.0930   24.0860   32.8020 C   0  0  0  0  0  0  0  0  0  0  0  0
   36.3680   24.6900   31.7520 C   0  0  0  0  0  0  0  0  0  0  0  0
   36.4430   26.0870   31.5820 C   0  0  0  0  0  0  0  0  0  0  0  0
   37.2250   26.8480   32.4460 C   0  0  0  0  0  0  0  0  0  0  0  0
   37.0350   23.0150   32.9310 H   0  0  0  0  0  0  0  0  0  0  0  0
   35.7640   24.1040   31.0850 H   0  0  0  0  0  0  0  0  0  0  0  0
   35.8900   26.5540   30.7810 H   0  0  0  0  0  0  0  0  0  0  0  0
   38.0210   24.0440   35.9890 C   0  0  0  0  0  0  0  0  0  0  0  0
   38.6150   24.2210   34.7390 C   0  0  0  0  0  0  0  0  0  0  0  0
   39.9370   23.7760   34.5760 C   0  0  0  0  0  0  0  0  0  0  0  0
   40.5550   23.2060   35.6390 N   0  0  0  0  0  0  0  0  0  0  0  0
   39.9390   23.0540   36.8400 C   0  0  0  0  0  0  0  0  0  0  0  0
   38.6810   23.4710   37.0110 N   0  0  0  0  0  0  0  0  0  0  0  0
   36.9940   24.3700   36.1750 H   0  0  0  0  0  0  0  0  0  0  0  0
   40.5840   22.5780   37.5690 H   0  0  0  0  0  0  0  0  0  0  0  0
   40.6200   23.9380   33.2660 C   0  0  0  0  0  0  0  0  0  0  0  0
   41.1050   22.9570   33.0620 H   0  0  0  0  0  0  0  0  0  0  0  0
   39.8290   24.0340   32.4860 H   0  0  0  0  0  0  0  0  0  0  0  0
   41.3400   24.7750   33.2420 H   0  0  0  0  0  0  0  0  0  0  0  0
   38.6520   27.0380   34.2500 O   0  0  0  0  0  0  0  0  0  0  0  0
   39.5630   26.7130   34.5630 H   0  0  0  0  0  0  0  0  0  0  0  0
  1  9  1  0  0  0  0
  1 10  1  0  0  0  0
  2  1  2  0  0  0  0
  3  4  2  0  0  0  0
  3  2  1  0  0  0  0
  4  8  1  0  0  0  0
  5  6  1  0  0  0  0
  5  4  1  0  0  0  0
  6  7  2  0  0  0  0
  7  8  1  0  0  0  0
  8  9  2  0  0  0  0
  9 15  1  0  0  0  0
 11  3  1  0  0  0  0
 12  5  1  0  0  0  0
 13  6  1  0  0  0  0
 14 21  1  0  0  0  0
 15 14  2  0  0  0  0
 15 16  1  0  0  0  0
 16 18  2  0  0  0  0
 17 16  1  0  0  0  0
 18 20  1  0  0  0  0
 18 19  1  0  0  0  0
 21 20  2  0  0  0  0
 22 23  1  0  0  0  0
 23 24  2  0  0  0  0
 23 14  1  0  0  0  0
 25 23  2  0  0  0  0
 26 32  1  0  0  0  0
 26  2  1  0  0  0  0
 27 28  1  0  0  0  0
 27 48  1  0  0  0  0
 28 37  1  0  0  0  0
 29 33  1  0  0  0  0
 29 28  2  0  0  0  0
 30 29  1  0  0  0  0
 31 30  2  0  0  0  0
 31 32  1  0  0  0  0
 32 27  2  0  0  0  0
 34 30  1  0  0  0  0
 35 31  1  0  0  0  0
 36 42  1  0  0  0  0
 36 41  1  0  0  0  0
 37 36  2  0  0  0  0
 38 37  1  0  0  0  0
 38 39  2  0  0  0  0
 39 40  1  0  0  0  0
 40 41  2  0  0  0  0
 40 43  1  0  0  0  0
 44 38  1  0  0  0  0
 45 44  1  0  0  0  0
 46 44  1  0  0  0  0
 47 44  1  0  0  0  0
 48 49  1  0  0  0  0
M  END
>  <minimizedAffinity>
-6.46313286

$$$$

 OpenBabel03272509233D

 49 53  0  0  0  0  0  0  0  0999 V2000
   35.9190   29.4770   33.1700 C   0  0  0  0  0  0  0  0  0  0  0  0
   36.4930   29.1440   31.9610 C   0  0  0  0  0  0  0  0  0  0  0  0
   36.2300   29.9520   30.8500 C   0  0  0  0  0  0  0  0  0  0  0  0
   35.4010   31.0760   30.9520 C   0  0  0  0  0  0  0  0  0  0  0  0
   34.9700   32.0190   30.1000 N   0  0  0  0  0  0  0  0  0  0  0  0
   34.1670   32.8930   30.7460 C   0  0  0  0  0  0  0  0  0  0  0  0
   34.0970   32.4840   32.0440 N   0  0  0  0  0  0  0  0  0  0  0  0
   34.8480   31.3710   32.1840 C   0  0  0  0  0  0  0  0  0  0  0  0
   35.1060   30.5740   33.2890 C   0  0  0  0  0  0  0  0  0  0  0  0
   36.1800   28.8020   33.9560 H   0  0  0  0  0  0  0  0  0  0  0  0
   36.6100   29.8150   29.8390 H   0  0  0  0  0  0  0  0  0  0  0  0
   35.2240   32.0590   29.0880 H   0  0  0  0  0  0  0  0  0  0  0  0
   33.6670   33.7700   30.3070 H   0  0  0  0  0  0  0  0  0  0  0  0
   33.2760   30.4630   35.0010 C   0  0  0  0  0  0  0  0  0  0  0  0
   34.5270   30.8760   34.5940 C   0  0  0  0  0  0  0  0  0  0  0  0
   35.3160   31.6240   35.4460 C   0  0  0  0  0  0  0  0  0  0  0  0
   36.3180   31.9900   35.2010 H   0  0  0  0  0  0  0  0  0  0  0  0
   34.8020   31.9300   36.6900 C   0  0  0  0  0  0  0  0  0  0  0  0
   35.4130   32.5230   37.3810 H   0  0  0  0  0  0  0  0  0  0  0  0
   33.5440   31.5430   37.1610 C   0  0  0  0  0  3  0  0  0  0  0  0
   32.8080   30.7890   36.2400 C   0  0  0  0  0  3  0  0  0  0  0  0
   33.0650   28.8650   32.9540 H   0  0  0  0  0  0  0  0  0  0  0  0
   32.3120   29.5150   33.8850 S   0  0  0  0  0  0  0  0  0  0  0  0
   31.4010   28.5840   34.6010 O   0  0  0  0  0  0  0  0  0  0  0  0
   31.4590   30.5270   33.1350 O   0  0  0  0  0  0  0  0  0  0  0  0
   37.3220   28.1110   31.6230 O   0  0  0  0  0  0  0  0  0  0  0  0
   37.1950   25.7010   31.8150 C   0  0  0  0  0  0  0  0  0  0  0  0
   37.3490   24.4840   32.4730 C   0  0  0  0  0  0  0  0  0  0  0  0
   37.8580   24.5880   33.7690 C   0  0  0  0  0  0  0  0  0  0  0  0
   38.1830   25.8370   34.3420 C   0  0  0  0  0  0  0  0  0  0  0  0
   37.9880   27.0100   33.5860 C   0  0  0  0  0  0  0  0  0  0  0  0
   37.4820   26.9230   32.2930 C   0  0  0  0  0  0  0  0  0  0  0  0
   38.0080   23.6900   34.3490 H   0  0  0  0  0  0  0  0  0  0  0  0
   38.5740   25.9050   35.3400 H   0  0  0  0  0  0  0  0  0  0  0  0
   38.2350   27.9670   34.0200 H   0  0  0  0  0  0  0  0  0  0  0  0
   35.7290   22.7070   32.0180 C   0  0  0  0  0  0  0  0  0  0  0  0
   37.0210   23.2190   31.8950 C   0  0  0  0  0  0  0  0  0  0  0  0
   37.9620   22.4520   31.1900 C   0  0  0  0  0  0  0  0  0  0  0  0
   37.5620   21.2640   30.6750 N   0  0  0  0  0  0  0  0  0  0  0  0
   36.2930   20.8020   30.8200 C   0  0  0  0  0  0  0  0  0  0  0  0
   35.3850   21.5200   31.4870 N   0  0  0  0  0  0  0  0  0  0  0  0
   34.9530   23.2590   32.5560 H   0  0  0  0  0  0  0  0  0  0  0  0
   36.1550   19.8390   30.3440 H   0  0  0  0  0  0  0  0  0  0  0  0
   39.3540   22.9480   31.0270 C   0  0  0  0  0  0  0  0  0  0  0  0
   39.6000   22.7900   29.9520 H   0  0  0  0  0  0  0  0  0  0  0  0
   39.3310   24.0560   31.1550 H   0  0  0  0  0  0  0  0  0  0  0  0
   40.0810   22.4610   31.7000 H   0  0  0  0  0  0  0  0  0  0  0  0
   36.6900   25.6970   30.5050 O   0  0  0  0  0  0  0  0  0  0  0  0
   35.9410   25.0480   30.2730 H   0  0  0  0  0  0  0  0  0  0  0  0
  1  9  1  0  0  0  0
  1 10  1  0  0  0  0
  2  1  2  0  0  0  0
  3  4  2  0  0  0  0
  3  2  1  0  0  0  0
  4  8  1  0  0  0  0
  5  6  1  0  0  0  0
  5  4  1  0  0  0  0
  6  7  2  0  0  0  0
  7  8  1  0  0  0  0
  8  9  2  0  0  0  0
  9 15  1  0  0  0  0
 11  3  1  0  0  0  0
 12  5  1  0  0  0  0
 13  6  1  0  0  0  0
 14 21  1  0  0  0  0
 15 14  2  0  0  0  0
 15 16  1  0  0  0  0
 16 18  2  0  0  0  0
 17 16  1  0  0  0  0
 18 20  1  0  0  0  0
 18 19  1  0  0  0  0
 21 20  2  0  0  0  0
 22 23  1  0  0  0  0
 23 24  2  0  0  0  0
 23 14  1  0  0  0  0
 25 23  2  0  0  0  0
 26  2  1  0  0  0  0
 26 32  1  0  0  0  0
 27 32  2  0  0  0  0
 27 28  1  0  0  0  0
 28 29  2  0  0  0  0
 29 30  1  0  0  0  0
 29 33  1  0  0  0  0
 30 34  1  0  0  0  0
 31 35  1  0  0  0  0
 31 30  2  0  0  0  0
 32 31  1  0  0  0  0
 36 42  1  0  0  0  0
 37 36  1  0  0  0  0
 37 28  1  0  0  0  0
 38 37  2  0  0  0  0
 39 40  2  0  0  0  0
 39 38  1  0  0  0  0
 40 41  1  0  0  0  0
 41 36  2  0  0  0  0
 43 40  1  0  0  0  0
 44 46  1  0  0  0  0
 44 38  1  0  0  0  0
 44 47  1  0  0  0  0
 45 44  1  0  0  0  0
 48 27  1  0  0  0  0
 49 48  1  0  0  0  0
M  END
>  <minimizedAffinity>
-6.44731283

$$$$
