REMARK  Name = 
REMARK  5 active torsions:
REMARK  status: ('A' for Active; 'I' for Inactive)
REMARK    1  A    between atoms: C_1  and  O_12
REMARK    2  A    between atoms: C_2  and  C_8
REMARK    3  A    between atoms: O_12  and  C_15
REMARK    4  A    between atoms: C_19  and  C_37
REMARK    5  A    between atoms: S_33  and  C_36
REMARK                            x       y       z     vdW  Elec       q    Type
REMARK                         _______ _______ _______ _____ _____    ______ ____
ROOT
ATOM      1 CL   UNL     1      40.950  31.247  45.382  0.00  0.00    +0.000 Cl
ATOM      2  C   UNL     1      39.376  30.683  44.907  0.00  0.00    +0.000 A 
ATOM      3  C   UNL     1      38.331  31.243  45.632  0.00  0.00    +0.000 A 
ATOM      4  C   UNL     1      37.065  30.811  45.262  0.00  0.00    +0.000 A 
ATOM      5  C   UNL     1      36.863  29.893  44.248  0.00  0.00    +0.000 A 
ATOM      6  C   UNL     1      37.933  29.376  43.569  0.00  0.00    +0.000 A 
ATOM      7  C   UNL     1      39.194  29.776  43.905  0.00  0.00    +0.000 A 
ATOM      8  H   UNL     1      36.134  31.134  45.709  0.00  0.00    +0.000 HD
ATOM      9  H   UNL     1      35.891  29.536  43.934  0.00  0.00    +0.000 HD
ATOM     10  H   UNL     1      37.873  28.656  42.765  0.00  0.00    +0.000 HD
ENDROOT
BRANCH   7  12
ATOM     11  C   UNL     1      40.366  28.878  41.906  0.00  0.00    +0.000 A 
ATOM     12  C   UNL     1      40.388  29.272  43.230  0.00  0.00    +0.000 A 
ATOM     13  C   UNL     1      41.598  29.169  43.903  0.00  0.00    +0.000 A 
ATOM     14  H   UNL     1      41.590  29.483  44.936  0.00  0.00    +0.000 HD
ATOM     15  C   UNL     1      42.737  28.704  43.313  0.00  0.00    +0.000 A 
ATOM     16  H   UNL     1      43.656  28.645  43.883  0.00  0.00    +0.000 HD
ATOM     17  C   UNL     1      42.709  28.312  41.989  0.00  0.00    +0.000 A 
ATOM     18  C   UNL     1      41.513  28.404  41.293  0.00  0.00    +0.000 A 
BRANCH  11  20
ATOM     19  H   UNL     1      37.926  29.594  41.730  0.00  0.00    +0.000 HD
ATOM     20  S   UNL     1      38.877  28.976  40.986  0.00  0.00    +0.000 S 
ATOM     21  O   UNL     1      38.441  27.579  40.696  0.00  0.00    +0.000 OA
ATOM     22  O   UNL     1      39.180  29.680  39.696  0.00  0.00    +0.000 OA
ENDBRANCH  11  20
ENDBRANCH   7  12
BRANCH   3  23
ATOM     23  O   UNL     1      38.276  32.139  46.644  0.00  0.00    +0.000 OA
BRANCH  23  24
ATOM     24  C   UNL     1      38.956  32.375  47.793  0.00  0.00    +0.000 C 
ATOM     25  C   UNL     1      37.997  32.749  48.972  0.00  0.00    +0.000 C 
ATOM     26  C   UNL     1      38.888  33.549  49.798  0.00  0.00    +0.000 C 
ATOM     27  O   UNL     1      39.732  34.272  48.960  0.00  0.00    +0.000 OA
ATOM     28  C   UNL     1      39.621  33.776  47.699  0.00  0.00    +0.000 C 
ATOM     29  H   UNL     1      39.718  31.661  48.111  0.00  0.00    +0.000 HD
ATOM     30  H   UNL     1      37.208  33.375  48.498  0.00  0.00    +0.000 HD
ATOM     31  H   UNL     1      39.555  32.984  50.477  0.00  0.00    +0.000 HD
ATOM     32  H   UNL     1      38.334  34.251  50.487  0.00  0.00    +0.000 HD
ATOM     33  H   UNL     1      40.531  33.756  47.102  0.00  0.00    +0.000 HD
ATOM     34  H   UNL     1      38.869  34.414  47.158  0.00  0.00    +0.000 HD
BRANCH  25  37
ATOM     35  C   UNL     1      37.368  29.694  51.085  0.00  0.00    +0.000 A 
ATOM     36  C   UNL     1      38.034  30.834  50.560  0.00  0.00    +0.000 A 
ATOM     37  C   UNL     1      37.369  31.589  49.550  0.00  0.00    +0.000 A 
ATOM     38  N   UNL     1      36.121  31.185  49.131  0.00  0.00    +0.000 NA
ATOM     39  C   UNL     1      35.536  30.102  49.658  0.00  0.00    +0.000 A 
ATOM     40  N   UNL     1      36.136  29.355  50.623  0.00  0.00    +0.000 NA
ATOM     41  H   UNL     1      37.845  29.104  51.848  0.00  0.00    +0.000 HD
ATOM     42  H   UNL     1      38.997  31.087  50.930  0.00  0.00    +0.000 HD
ATOM     43  H   UNL     1      34.552  29.840  49.282  0.00  0.00    +0.000 HD
ENDBRANCH  25  37
ENDBRANCH  23  24
ENDBRANCH   3  23
TORSDOF 5
