REMARK  Name = 
REMARK  5 active torsions:
REMARK  status: ('A' for Active; 'I' for Inactive)
REMARK    1  A    between atoms: C_1  and  C_8
REMARK    2  A    between atoms: C_3  and  N_12
REMARK    3  A    between atoms: C_10  and  C_13
REMARK    4  A    between atoms: C_17  and  C_35
REMARK    5  A    between atoms: S_31  and  C_34
REMARK                            x       y       z     vdW  Elec       q    Type
REMARK                         _______ _______ _______ _____ _____    ______ ____
ROOT
ATOM      1  C   UNL     1      39.193  31.433  43.337  0.00  0.00    +0.000 A 
ATOM      2  C   UNL     1      40.159  30.478  43.487  0.00  0.00    +0.000 A 
ATOM      3  C   UNL     1      40.862  30.125  42.354  0.00  0.00    +0.000 A 
ATOM      4  C   UNL     1      40.567  30.730  41.171  0.00  0.00    +0.000 A 
ATOM      5  C   UNL     1      39.600  31.693  41.008  0.00  0.00    +0.000 A 
ATOM      6  N   UNL     1      38.960  31.984  42.141  0.00  0.00    +0.000 NA
ATOM      7  H   UNL     1      40.398  29.994  44.426  0.00  0.00    +0.000 HD
ATOM      8  H   UNL     1      41.626  29.378  42.440  0.00  0.00    +0.000 HD
ATOM      9  H   UNL     1      41.114  30.384  40.325  0.00  0.00    +0.000 HD
ENDROOT
BRANCH   5  11
ATOM     10  C   UNL     1      38.183  32.016  38.929  0.00  0.00    +0.000 A 
ATOM     11  C   UNL     1      39.152  32.372  39.833  0.00  0.00    +0.000 A 
ATOM     12  C   UNL     1      39.800  33.568  39.501  0.00  0.00    +0.000 A 
ATOM     13  H   UNL     1      40.599  33.945  40.160  0.00  0.00    +0.000 HD
ATOM     14  C   UNL     1      39.543  34.356  38.406  0.00  0.00    +0.000 A 
ATOM     15  H   UNL     1      40.085  35.259  38.224  0.00  0.00    +0.000 HD
ATOM     16  C   UNL     1      38.560  33.955  37.534  0.00  0.00    +0.000 A 
ATOM     17  C   UNL     1      37.898  32.785  37.818  0.00  0.00    +0.000 A 
BRANCH  10  19
ATOM     18  H   UNL     1      36.902  30.123  37.806  0.00  0.00    +0.000 HD
ATOM     19  S   UNL     1      37.336  30.527  39.096  0.00  0.00    +0.000 S 
ATOM     20  O   UNL     1      38.155  29.368  39.550  0.00  0.00    +0.000 OA
ATOM     21  O   UNL     1      36.059  30.607  39.874  0.00  0.00    +0.000 OA
ENDBRANCH  10  19
ENDBRANCH   5  11
BRANCH   1  22
ATOM     22  C   UNL     1      38.404  31.842  44.526  0.00  0.00    +0.000 C 
ATOM     23  O   UNL     1      37.295  32.435  44.399  0.00  0.00    +0.000 OA
ATOM     24  N   UNL     1      38.941  31.542  45.817  0.00  0.00    +0.000 N 
ATOM     25  H   UNL     1      39.916  31.212  45.993  0.00  0.00    +0.000 HD
BRANCH  24  28
ATOM     26  C   UNL     1      38.416  31.119  48.219  0.00  0.00    +0.000 C 
ATOM     27  C   UNL     1      38.678  32.561  48.093  0.00  0.00    +0.000 C 
ATOM     28  C   UNL     1      38.050  31.714  46.959  0.00  0.00    +0.000 C 
ATOM     29  H   UNL     1      39.360  30.517  48.309  0.00  0.00    +0.000 HD
ATOM     30  H   UNL     1      39.693  32.944  47.938  0.00  0.00    +0.000 HD
ATOM     31  H   UNL     1      37.985  33.306  48.528  0.00  0.00    +0.000 HD
ATOM     32  H   UNL     1      36.980  31.956  46.732  0.00  0.00    +0.000 HD
BRANCH  26  37
ATOM     33  C   UNL     1      35.094  30.224  49.554  0.00  0.00    +0.000 A 
ATOM     34  C   UNL     1      35.425  29.542  50.769  0.00  0.00    +0.000 A 
ATOM     35  C   UNL     1      36.818  29.418  51.095  0.00  0.00    +0.000 A 
ATOM     36  N   UNL     1      37.742  29.943  50.255  0.00  0.00    +0.000 NA
ATOM     37  C   UNL     1      37.360  30.579  49.115  0.00  0.00    +0.000 A 
ATOM     38  N   UNL     1      36.042  30.737  48.735  0.00  0.00    +0.000 NA
ATOM     39  H   UNL     1      34.041  30.309  49.322  0.00  0.00    +0.000 HD
ATOM     40  H   UNL     1      34.637  29.148  51.393  0.00  0.00    +0.000 HD
ATOM     41  H   UNL     1      37.057  28.908  52.004  0.00  0.00    +0.000 HD
ENDBRANCH  26  37
ENDBRANCH  24  28
ENDBRANCH   1  22
TORSDOF 5
