
 OpenBabel03272509393D

 33 35  0  0  1  0  0  0  0  0999 V2000
   39.0740   26.3360   34.0200 C   0  0  0  0  0  0  0  0  0  0  0  0
   40.2680   26.9900   34.3430 C   0  0  0  0  0  0  0  0  0  0  0  0
   41.1850   27.3860   33.3580 C   0  0  0  0  0  0  0  0  0  0  0  0
   40.8850   27.1120   32.0050 C   0  0  0  0  0  0  0  0  0  0  0  0
   39.6920   26.4610   31.7040 C   0  0  0  0  0  0  0  0  0  0  0  0
   38.8010   26.0790   32.6920 C   0  0  0  0  0  0  0  0  0  0  0  0
   40.5060   27.2040   35.3760 H   0  0  0  0  0  0  0  0  0  0  0  0
   42.1010   27.8880   33.6170 H   0  0  0  0  0  0  0  0  0  0  0  0
   41.6100   27.4280   31.2670 H   0  0  0  0  0  0  0  0  0  0  0  0
   39.5620   26.3020   30.6420 H   0  0  0  0  0  0  0  0  0  0  0  0
   36.4230   25.9310   31.6760 C   0  0  0  0  0  0  0  0  0  0  0  0
   37.6210   25.4380   32.1520 C   0  0  0  0  0  0  0  0  0  0  0  0
   37.7860   24.0470   32.1750 C   0  0  0  0  0  0  0  0  0  0  0  0
   38.6630   23.4810   32.5160 H   0  0  0  0  0  0  0  0  0  0  0  0
   36.7670   23.1970   31.7270 C   0  0  0  0  0  0  0  0  0  0  0  0
   36.8530   22.1190   31.7270 H   0  0  0  0  0  0  0  0  0  0  0  0
   35.5790   23.7140   31.2560 C   0  0  0  0  0  3  0  0  0  0  0  0
   35.4300   25.0830   31.2400 C   0  0  0  0  0  3  0  0  0  0  0  0
   37.3130   28.2250   32.4890 H   0  0  0  0  0  0  0  0  0  0  0  0
   36.3620   27.6790   31.6720 S   0  0  0  0  0  0  0  0  0  0  0  0
   36.5260   28.2640   30.3030 O   0  0  0  0  0  0  0  0  0  0  0  0
   35.0310   28.1630   32.2130 O   0  0  0  0  0  0  0  0  0  0  0  0
   38.1920   25.9320   35.0990 C   0  0  2  0  0  3  0  0  0  0  0  0
   37.0690   26.5620   35.1150 O   0  0  0  0  0  1  0  0  0  0  0  0
   38.0370   24.2930   38.3240 C   0  0  0  0  0  0  0  0  0  0  0  0
   38.8370   23.1520   38.1690 C   0  0  0  0  0  0  0  0  0  0  0  0
   39.4490   22.9420   36.9300 C   0  0  0  0  0  0  0  0  0  0  0  0
   39.2470   23.8490   35.9170 N   0  0  0  0  0  0  0  0  0  0  0  0
   38.4790   24.9210   36.1050 C   0  0  0  0  0  0  0  0  0  0  0  0
   37.9000   25.1190   37.2850 N   0  0  0  0  0  0  0  0  0  0  0  0
   37.6070   24.3750   39.3100 H   0  0  0  0  0  0  0  0  0  0  0  0
   39.0600   22.3770   38.8990 H   0  0  0  0  0  0  0  0  0  0  0  0
   40.0910   22.1170   36.6520 H   0  0  0  0  0  0  0  0  0  0  0  0
  1  2  1  0  0  0  0
  1 23  1  0  0  0  0
  2  7  1  0  0  0  0
  3  8  1  0  0  0  0
  3  2  2  0  0  0  0
  4  3  1  0  0  0  0
  5  4  2  0  0  0  0
  5  6  1  0  0  0  0
  6  1  2  0  0  0  0
  9  4  1  0  0  0  0
 10  5  1  0  0  0  0
 11 12  1  0  0  0  0
 12 13  2  0  0  0  0
 12  6  1  0  0  0  0
 13 14  1  0  0  0  0
 15 16  1  0  0  0  0
 15 13  1  0  0  0  0
 17 15  2  0  0  0  0
 18 17  1  0  0  0  0
 18 11  2  0  0  0  0
 20 11  1  0  0  0  0
 20 22  2  0  0  0  0
 20 19  1  0  0  0  0
 21 20  2  0  0  0  0
 23 24  1  1  0  0  0
 23 29  1  0  0  0  0
 25 31  1  0  0  0  0
 26 25  1  0  0  0  0
 26 32  1  0  0  0  0
 27 26  2  0  0  0  0
 28 29  2  0  0  0  0
 28 27  1  0  0  0  0
 29 30  1  0  0  0  0
 30 25  2  0  0  0  0
 33 27  1  0  0  0  0
M  END
>  <minimizedAffinity>
-5.74062109

$$$$

 OpenBabel03272509393D

 33 35  0  0  1  0  0  0  0  0999 V2000
   38.1650   25.4650   33.7460 C   0  0  0  0  0  0  0  0  0  0  0  0
   37.3960   26.5680   33.3590 C   0  0  0  0  0  0  0  0  0  0  0  0
   37.2010   27.6680   34.2070 C   0  0  0  0  0  0  0  0  0  0  0  0
   37.8030   27.6520   35.4850 C   0  0  0  0  0  0  0  0  0  0  0  0
   38.5650   26.5460   35.8520 C   0  0  0  0  0  0  0  0  0  0  0  0
   38.7440   25.4700   34.9990 C   0  0  0  0  0  0  0  0  0  0  0  0
   36.9320   26.5880   32.3830 H   0  0  0  0  0  0  0  0  0  0  0  0
   36.6070   28.5110   33.9000 H   0  0  0  0  0  0  0  0  0  0  0  0
   37.6350   28.5140   36.1180 H   0  0  0  0  0  0  0  0  0  0  0  0
   38.9780   26.6380   36.8470 H   0  0  0  0  0  0  0  0  0  0  0  0
   39.3460   23.4400   36.4900 C   0  0  0  0  0  0  0  0  0  0  0  0
   39.5870   24.4450   35.5760 C   0  0  0  0  0  0  0  0  0  0  0  0
   40.8940   24.5780   35.0880 C   0  0  0  0  0  0  0  0  0  0  0  0
   41.2670   25.3120   34.3620 H   0  0  0  0  0  0  0  0  0  0  0  0
   41.9100   23.7170   35.5190 C   0  0  0  0  0  0  0  0  0  0  0  0
   42.9310   23.7840   35.1680 H   0  0  0  0  0  0  0  0  0  0  0  0
   41.6440   22.7200   36.4330 C   0  0  0  0  0  3  0  0  0  0  0  0
   40.3560   22.6010   36.9050 C   0  0  0  0  0  3  0  0  0  0  0  0
   36.9490   24.4250   36.5160 H   0  0  0  0  0  0  0  0  0  0  0  0
   37.6720   23.3650   36.9910 S   0  0  0  0  0  0  0  0  0  0  0  0
   36.9910   22.1030   36.5600 O   0  0  0  0  0  0  0  0  0  0  0  0
   37.5670   23.4420   38.5010 O   0  0  0  0  0  0  0  0  0  0  0  0
   38.2940   24.3530   32.8230 C   0  0  1  0  0  3  0  0  0  0  0  0
   39.3130   24.4440   32.0400 O   0  0  0  0  0  1  0  0  0  0  0  0
   35.4270   22.4370   31.7180 C   0  0  0  0  0  0  0  0  0  0  0  0
   35.5690   21.2010   32.3650 C   0  0  0  0  0  0  0  0  0  0  0  0
   36.6730   21.0210   33.2040 C   0  0  0  0  0  0  0  0  0  0  0  0
   37.5710   22.0490   33.3640 N   0  0  0  0  0  0  0  0  0  0  0  0
   37.3990   23.2090   32.7320 C   0  0  0  0  0  0  0  0  0  0  0  0
   36.3480   23.3770   31.9350 N   0  0  0  0  0  0  0  0  0  0  0  0
   34.5500   22.4870   31.0920 H   0  0  0  0  0  0  0  0  0  0  0  0
   34.9230   20.3280   32.3070 H   0  0  0  0  0  0  0  0  0  0  0  0
   36.9230   20.1340   33.7700 H   0  0  0  0  0  0  0  0  0  0  0  0
  1  6  1  0  0  0  0
  2  1  2  0  0  0  0
  2  3  1  0  0  0  0
  3  4  2  0  0  0  0
  4  5  1  0  0  0  0
  4  9  1  0  0  0  0
  5 10  1  0  0  0  0
  6 12  1  0  0  0  0
  6  5  2  0  0  0  0
  7  2  1  0  0  0  0
  8  3  1  0  0  0  0
 11 18  1  0  0  0  0
 11 20  1  0  0  0  0
 12 11  2  0  0  0  0
 13 15  2  0  0  0  0
 13 12  1  0  0  0  0
 14 13  1  0  0  0  0
 15 17  1  0  0  0  0
 16 15  1  0  0  0  0
 17 18  2  0  0  0  0
 19 20  1  0  0  0  0
 20 22  2  0  0  0  0
 21 20  2  0  0  0  0
 23 24  1  1  0  0  0
 23  1  1  0  0  0  0
 25 30  2  0  0  0  0
 25 26  1  0  0  0  0
 26 27  2  0  0  0  0
 27 28  1  0  0  0  0
 27 33  1  0  0  0  0
 29 23  1  0  0  0  0
 29 28  2  0  0  0  0
 30 29  1  0  0  0  0
 31 25  1  0  0  0  0
 32 26  1  0  0  0  0
M  END
>  <minimizedAffinity>
-5.60079765

$$$$

 OpenBabel03272509393D

 33 35  0  0  1  0  0  0  0  0999 V2000
   37.4650   27.3620   33.9600 C   0  0  0  0  0  0  0  0  0  0  0  0
   36.6730   28.2150   34.7370 C   0  0  0  0  0  0  0  0  0  0  0  0
   35.7190   29.0670   34.1620 C   0  0  0  0  0  0  0  0  0  0  0  0
   35.5610   29.0560   32.7580 C   0  0  0  0  0  0  0  0  0  0  0  0
   36.3590   28.2010   32.0020 C   0  0  0  0  0  0  0  0  0  0  0  0
   37.2950   27.3680   32.5910 C   0  0  0  0  0  0  0  0  0  0  0  0
   36.7870   28.2280   35.8120 H   0  0  0  0  0  0  0  0  0  0  0  0
   35.1150   29.7190   34.7680 H   0  0  0  0  0  0  0  0  0  0  0  0
   34.8180   29.7240   32.3410 H   0  0  0  0  0  0  0  0  0  0  0  0
   36.1560   28.2730   30.9420 H   0  0  0  0  0  0  0  0  0  0  0  0
   37.7200   25.3210   31.0620 C   0  0  0  0  0  0  0  0  0  0  0  0
   37.9930   26.5530   31.6210 C   0  0  0  0  0  0  0  0  0  0  0  0
   39.1840   27.1860   31.2410 C   0  0  0  0  0  0  0  0  0  0  0  0
   39.5630   28.1600   31.5780 H   0  0  0  0  0  0  0  0  0  0  0  0
   40.0570   26.5830   30.3270 C   0  0  0  0  0  0  0  0  0  0  0  0
   40.9850   27.0370   30.0070 H   0  0  0  0  0  0  0  0  0  0  0  0
   39.7610   25.3520   29.7830 C   0  0  0  0  0  3  0  0  0  0  0  0
   38.5880   24.7390   30.1650 C   0  0  0  0  0  3  0  0  0  0  0  0
   35.9190   24.9850   32.8950 H   0  0  0  0  0  0  0  0  0  0  0  0
   36.1910   24.6580   31.5950 S   0  0  0  0  0  0  0  0  0  0  0  0
   35.0380   25.1010   30.7480 O   0  0  0  0  0  0  0  0  0  0  0  0
   36.2280   23.1430   31.5530 O   0  0  0  0  0  0  0  0  0  0  0  0
   38.4500   26.5330   34.6280 C   0  0  1  0  0  3  0  0  0  0  0  0
   39.5980   27.1000   34.7680 O   0  0  0  0  0  1  0  0  0  0  0  0
   37.6410   23.9440   37.0270 C   0  0  0  0  0  0  0  0  0  0  0  0
   37.7530   22.7510   36.2970 C   0  0  0  0  0  0  0  0  0  0  0  0
   38.1190   22.8370   34.9510 C   0  0  0  0  0  0  0  0  0  0  0  0
   38.3530   24.0710   34.3940 N   0  0  0  0  0  0  0  0  0  0  0  0
   38.2370   25.1800   35.1220 C   0  0  0  0  0  0  0  0  0  0  0  0
   37.8900   25.0960   36.4030 N   0  0  0  0  0  0  0  0  0  0  0  0
   37.3560   23.7830   38.0550 H   0  0  0  0  0  0  0  0  0  0  0  0
   37.5900   21.7310   36.6380 H   0  0  0  0  0  0  0  0  0  0  0  0
   38.2470   22.0170   34.2580 H   0  0  0  0  0  0  0  0  0  0  0  0
  1 23  1  0  0  0  0
  1  2  1  0  0  0  0
  2  7  1  0  0  0  0
  3  2  2  0  0  0  0
  3  8  1  0  0  0  0
  4  3  1  0  0  0  0
  5  6  1  0  0  0  0
  5  4  2  0  0  0  0
  6  1  2  0  0  0  0
  9  4  1  0  0  0  0
 10  5  1  0  0  0  0
 11 20  1  0  0  0  0
 11 12  1  0  0  0  0
 12  6  1  0  0  0  0
 13 14  1  0  0  0  0
 13 12  2  0  0  0  0
 15 13  1  0  0  0  0
 16 15  1  0  0  0  0
 17 18  1  0  0  0  0
 17 15  2  0  0  0  0
 18 11  2  0  0  0  0
 20 19  1  0  0  0  0
 21 20  2  0  0  0  0
 22 20  2  0  0  0  0
 23 24  1  1  0  0  0
 23 29  1  0  0  0  0
 25 31  1  0  0  0  0
 26 32  1  0  0  0  0
 26 25  2  0  0  0  0
 27 26  1  0  0  0  0
 28 27  2  0  0  0  0
 28 29  1  0  0  0  0
 29 30  2  0  0  0  0
 30 25  1  0  0  0  0
 33 27  1  0  0  0  0
M  END
>  <minimizedAffinity>
-5.30903387

$$$$

 OpenBabel03272509393D

 33 35  0  0  1  0  0  0  0  0999 V2000
   38.1040   25.1990   33.8060 C   0  0  0  0  0  0  0  0  0  0  0  0
   37.3100   26.2590   33.3540 C   0  0  0  0  0  0  0  0  0  0  0  0
   37.1650   27.4420   34.0930 C   0  0  0  0  0  0  0  0  0  0  0  0
   37.8450   27.5580   35.3270 C   0  0  0  0  0  0  0  0  0  0  0  0
   38.6300   26.4920   35.7590 C   0  0  0  0  0  0  0  0  0  0  0  0
   38.7580   25.3320   35.0140 C   0  0  0  0  0  0  0  0  0  0  0  0
   36.7870   26.1790   32.4110 H   0  0  0  0  0  0  0  0  0  0  0  0
   36.5520   28.2520   33.7370 H   0  0  0  0  0  0  0  0  0  0  0  0
   37.7150   28.4820   35.8750 H   0  0  0  0  0  0  0  0  0  0  0  0
   39.1030   26.6850   36.7120 H   0  0  0  0  0  0  0  0  0  0  0  0
   40.9660   24.0500   35.4520 C   0  0  0  0  0  0  0  0  0  0  0  0
   39.6370   24.3690   35.6420 C   0  0  0  0  0  0  0  0  0  0  0  0
   38.9250   23.6340   36.5980 C   0  0  0  0  0  0  0  0  0  0  0  0
   37.8700   23.7460   36.8820 H   0  0  0  0  0  0  0  0  0  0  0  0
   39.5480   22.6150   37.3290 C   0  0  0  0  0  0  0  0  0  0  0  0
   39.0360   22.0240   38.0760 H   0  0  0  0  0  0  0  0  0  0  0  0
   40.8770   22.3150   37.1200 C   0  0  0  0  0  3  0  0  0  0  0  0
   41.5650   23.0450   36.1760 C   0  0  0  0  0  3  0  0  0  0  0  0
   40.8500   25.8900   33.6290 H   0  0  0  0  0  0  0  0  0  0  0  0
   41.7420   25.0640   34.2560 S   0  0  0  0  0  0  0  0  0  0  0  0
   42.8380   25.9070   34.8310 O   0  0  0  0  0  0  0  0  0  0  0  0
   42.3540   24.2150   33.1590 O   0  0  0  0  0  0  0  0  0  0  0  0
   38.1780   23.9960   32.9980 C   0  0  2  0  0  3  0  0  0  0  0  0
   39.1930   23.9650   32.2060 O   0  0  0  0  0  1  0  0  0  0  0  0
   35.4410   21.9150   31.8630 C   0  0  0  0  0  0  0  0  0  0  0  0
   35.3640   20.8940   32.8220 C   0  0  0  0  0  0  0  0  0  0  0  0
   36.2700   20.9230   33.8860 C   0  0  0  0  0  0  0  0  0  0  0  0
   37.1950   21.9370   33.9560 N   0  0  0  0  0  0  0  0  0  0  0  0
   37.2340   22.8890   33.0240 C   0  0  0  0  0  0  0  0  0  0  0  0
   36.3710   22.8600   32.0140 N   0  0  0  0  0  0  0  0  0  0  0  0
   34.7050   21.8130   31.0810 H   0  0  0  0  0  0  0  0  0  0  0  0
   34.6780   20.0520   32.8610 H   0  0  0  0  0  0  0  0  0  0  0  0
   36.3400   20.2150   34.7010 H   0  0  0  0  0  0  0  0  0  0  0  0
  1  6  1  0  0  0  0
  2  1  2  0  0  0  0
  2  3  1  0  0  0  0
  3  4  2  0  0  0  0
  4  5  1  0  0  0  0
  4  9  1  0  0  0  0
  5 10  1  0  0  0  0
  6 12  1  0  0  0  0
  6  5  2  0  0  0  0
  7  2  1  0  0  0  0
  8  3  1  0  0  0  0
 11 12  2  0  0  0  0
 11 18  1  0  0  0  0
 12 13  1  0  0  0  0
 13 14  1  0  0  0  0
 13 15  2  0  0  0  0
 15 16  1  0  0  0  0
 17 15  1  0  0  0  0
 18 17  2  0  0  0  0
 19 20  1  0  0  0  0
 20 21  2  0  0  0  0
 20 11  1  0  0  0  0
 22 20  2  0  0  0  0
 23 24  1  6  0  0  0
 23 29  1  0  0  0  0
 23  1  1  0  0  0  0
 25 30  2  0  0  0  0
 25 26  1  0  0  0  0
 26 32  1  0  0  0  0
 26 27  2  0  0  0  0
 27 28  1  0  0  0  0
 27 33  1  0  0  0  0
 29 28  2  0  0  0  0
 30 29  1  0  0  0  0
 31 25  1  0  0  0  0
M  END
>  <minimizedAffinity>
-5.27605247

$$$$

 OpenBabel03272509393D

 33 35  0  0  1  0  0  0  0  0999 V2000
   36.4340   29.4010   32.0400 C   0  0  0  0  0  0  0  0  0  0  0  0
   37.1110   29.4630   30.8170 C   0  0  0  0  0  0  0  0  0  0  0  0
   37.1490   30.6380   30.0510 C   0  0  0  0  0  0  0  0  0  0  0  0
   36.4820   31.7850   30.5380 C   0  0  0  0  0  0  0  0  0  0  0  0
   35.8140   31.7030   31.7570 C   0  0  0  0  0  0  0  0  0  0  0  0
   35.7900   30.5320   32.4960 C   0  0  0  0  0  0  0  0  0  0  0  0
   37.6240   28.5910   30.4370 H   0  0  0  0  0  0  0  0  0  0  0  0
   37.6720   30.6750   29.1120 H   0  0  0  0  0  0  0  0  0  0  0  0
   36.5280   32.6760   29.9260 H   0  0  0  0  0  0  0  0  0  0  0  0
   35.3400   32.6340   32.0340 H   0  0  0  0  0  0  0  0  0  0  0  0
   33.7680   30.3590   34.1070 C   0  0  0  0  0  0  0  0  0  0  0  0
   35.0580   30.6800   33.7360 C   0  0  0  0  0  0  0  0  0  0  0  0
   35.8700   31.3050   34.6920 C   0  0  0  0  0  0  0  0  0  0  0  0
   36.9130   31.6300   34.5780 H   0  0  0  0  0  0  0  0  0  0  0  0
   35.3810   31.5870   35.9730 C   0  0  0  0  0  0  0  0  0  0  0  0
   35.9730   32.0670   36.7400 H   0  0  0  0  0  0  0  0  0  0  0  0
   34.0880   31.2560   36.3190 C   0  0  0  0  0  3  0  0  0  0  0  0
   33.3000   30.6440   35.3700 C   0  0  0  0  0  3  0  0  0  0  0  0
   33.6800   28.7420   32.0830 H   0  0  0  0  0  0  0  0  0  0  0  0
   32.8770   29.5570   32.8330 S   0  0  0  0  0  0  0  0  0  0  0  0
   31.7320   28.7410   33.3490 O   0  0  0  0  0  0  0  0  0  0  0  0
   32.3060   30.5740   31.8650 O   0  0  0  0  0  0  0  0  0  0  0  0
   36.4160   28.1400   32.7570 C   0  0  1  0  0  3  0  0  0  0  0  0
   36.6890   28.2520   34.0110 O   0  0  0  0  0  1  0  0  0  0  0  0
   36.8090   24.5870   32.1780 C   0  0  0  0  0  0  0  0  0  0  0  0
   35.7830   24.2700   31.2750 C   0  0  0  0  0  0  0  0  0  0  0  0
   34.9390   25.3010   30.8510 C   0  0  0  0  0  0  0  0  0  0  0  0
   35.1400   26.5740   31.3280 N   0  0  0  0  0  0  0  0  0  0  0  0
   36.1260   26.8340   32.1850 C   0  0  0  0  0  0  0  0  0  0  0  0
   36.9280   25.8520   32.5860 N   0  0  0  0  0  0  0  0  0  0  0  0
   37.4090   23.7330   32.4490 H   0  0  0  0  0  0  0  0  0  0  0  0
   35.5380   23.3040   30.8400 H   0  0  0  0  0  0  0  0  0  0  0  0
   34.1080   25.2210   30.1630 H   0  0  0  0  0  0  0  0  0  0  0  0
  1  6  1  0  0  0  0
  1 23  1  0  0  0  0
  2  1  2  0  0  0  0
  3  4  2  0  0  0  0
  3  2  1  0  0  0  0
  4  5  1  0  0  0  0
  5 10  1  0  0  0  0
  5  6  2  0  0  0  0
  6 12  1  0  0  0  0
  7  2  1  0  0  0  0
  8  3  1  0  0  0  0
  9  4  1  0  0  0  0
 11 18  1  0  0  0  0
 12 11  2  0  0  0  0
 12 13  1  0  0  0  0
 13 15  2  0  0  0  0
 14 13  1  0  0  0  0
 15 17  1  0  0  0  0
 15 16  1  0  0  0  0
 18 17  2  0  0  0  0
 19 20  1  0  0  0  0
 20 21  2  0  0  0  0
 20 11  1  0  0  0  0
 22 20  2  0  0  0  0
 23 24  1  1  0  0  0
 25 31  1  0  0  0  0
 25 30  1  0  0  0  0
 26 25  2  0  0  0  0
 27 26  1  0  0  0  0
 27 28  2  0  0  0  0
 28 29  1  0  0  0  0
 29 30  2  0  0  0  0
 29 23  1  0  0  0  0
 32 26  1  0  0  0  0
 33 27  1  0  0  0  0
M  END
>  <minimizedAffinity>
-5.2249794

$$$$

 OpenBabel03272509393D

 33 35  0  0  1  0  0  0  0  0999 V2000
   35.9640   26.4040   31.6820 C   0  0  0  0  0  0  0  0  0  0  0  0
   35.0540   25.7130   30.8730 C   0  0  0  0  0  0  0  0  0  0  0  0
   35.0420   24.3120   30.8030 C   0  0  0  0  0  0  0  0  0  0  0  0
   35.9790   23.5880   31.5750 C   0  0  0  0  0  0  0  0  0  0  0  0
   36.8750   24.2930   32.3730 C   0  0  0  0  0  0  0  0  0  0  0  0
   36.8700   25.6770   32.4270 C   0  0  0  0  0  0  0  0  0  0  0  0
   34.3340   26.2590   30.2800 H   0  0  0  0  0  0  0  0  0  0  0  0
   34.3390   23.7900   30.1780 H   0  0  0  0  0  0  0  0  0  0  0  0
   35.9470   22.5090   31.5010 H   0  0  0  0  0  0  0  0  0  0  0  0
   37.5450   23.6440   32.9190 H   0  0  0  0  0  0  0  0  0  0  0  0
   39.1760   26.6040   33.1550 C   0  0  0  0  0  0  0  0  0  0  0  0
   37.8700   26.1960   33.3340 C   0  0  0  0  0  0  0  0  0  0  0  0
   37.3520   26.2380   34.6350 C   0  0  0  0  0  0  0  0  0  0  0  0
   36.3430   25.9550   34.9650 H   0  0  0  0  0  0  0  0  0  0  0  0
   38.1380   26.6800   35.7060 C   0  0  0  0  0  0  0  0  0  0  0  0
   37.7770   26.7280   36.7250 H   0  0  0  0  0  0  0  0  0  0  0  0
   39.4410   27.0820   35.5010 C   0  0  0  0  0  3  0  0  0  0  0  0
   39.9380   27.0350   34.2170 C   0  0  0  0  0  3  0  0  0  0  0  0
   38.6240   26.3850   30.6320 H   0  0  0  0  0  0  0  0  0  0  0  0
   39.6850   26.5330   31.4830 S   0  0  0  0  0  0  0  0  0  0  0  0
   40.4620   27.7400   31.0590 O   0  0  0  0  0  0  0  0  0  0  0  0
   40.5680   25.3220   31.2490 O   0  0  0  0  0  0  0  0  0  0  0  0
   35.9320   27.8540   31.6760 C   0  0  1  0  0  3  0  0  0  0  0  0
   36.6030   28.3850   30.7140 O   0  0  0  0  0  1  0  0  0  0  0  0
   35.5370   30.0760   34.5080 C   0  0  0  0  0  0  0  0  0  0  0  0
   34.1620   30.3530   34.5390 C   0  0  0  0  0  0  0  0  0  0  0  0
   33.3500   29.7600   33.5680 C   0  0  0  0  0  0  0  0  0  0  0  0
   33.9190   28.9370   32.6260 N   0  0  0  0  0  0  0  0  0  0  0  0
   35.2300   28.6980   32.6320 C   0  0  0  0  0  0  0  0  0  0  0  0
   36.0000   29.2630   33.5570 N   0  0  0  0  0  0  0  0  0  0  0  0
   36.0840   30.5740   35.2930 H   0  0  0  0  0  0  0  0  0  0  0  0
   33.6150   30.9860   35.2330 H   0  0  0  0  0  0  0  0  0  0  0  0
   32.2800   29.8730   33.4560 H   0  0  0  0  0  0  0  0  0  0  0  0
  1  6  1  0  0  0  0
  2  1  2  0  0  0  0
  3  2  1  0  0  0  0
  3  4  2  0  0  0  0
  4  5  1  0  0  0  0
  5  6  2  0  0  0  0
  5 10  1  0  0  0  0
  6 12  1  0  0  0  0
  7  2  1  0  0  0  0
  8  3  1  0  0  0  0
  9  4  1  0  0  0  0
 11 12  2  0  0  0  0
 11 18  1  0  0  0  0
 12 13  1  0  0  0  0
 13 14  1  0  0  0  0
 13 15  2  0  0  0  0
 15 16  1  0  0  0  0
 17 15  1  0  0  0  0
 18 17  2  0  0  0  0
 19 20  1  0  0  0  0
 20 11  1  0  0  0  0
 21 20  2  0  0  0  0
 22 20  2  0  0  0  0
 23 24  1  6  0  0  0
 23  1  1  0  0  0  0
 23 29  1  0  0  0  0
 25 26  1  0  0  0  0
 25 31  1  0  0  0  0
 26 32  1  0  0  0  0
 27 26  2  0  0  0  0
 28 29  2  0  0  0  0
 28 27  1  0  0  0  0
 29 30  1  0  0  0  0
 30 25  2  0  0  0  0
 33 27  1  0  0  0  0
M  END
>  <minimizedAffinity>
-5.17328596

$$$$

 OpenBabel03272509393D

 33 35  0  0  1  0  0  0  0  0999 V2000
   39.7250   25.9430   34.8100 C   0  0  0  0  0  0  0  0  0  0  0  0
   40.8260   26.7910   34.6460 C   0  0  0  0  0  0  0  0  0  0  0  0
   42.0960   26.2980   34.3130 C   0  0  0  0  0  0  0  0  0  0  0  0
   42.2580   24.9050   34.1390 C   0  0  0  0  0  0  0  0  0  0  0  0
   41.1500   24.0780   34.3060 C   0  0  0  0  0  0  0  0  0  0  0  0
   39.9050   24.5860   34.6360 C   0  0  0  0  0  0  0  0  0  0  0  0
   40.7110   27.8580   34.7770 H   0  0  0  0  0  0  0  0  0  0  0  0
   42.9360   26.9590   34.1890 H   0  0  0  0  0  0  0  0  0  0  0  0
   43.2480   24.5530   33.8820 H   0  0  0  0  0  0  0  0  0  0  0  0
   41.3850   23.0340   34.1510 H   0  0  0  0  0  0  0  0  0  0  0  0
   38.4290   22.8030   35.7980 C   0  0  0  0  0  0  0  0  0  0  0  0
   38.8980   23.5510   34.7380 C   0  0  0  0  0  0  0  0  0  0  0  0
   38.3590   23.2910   33.4710 C   0  0  0  0  0  0  0  0  0  0  0  0
   38.6080   23.7830   32.5220 H   0  0  0  0  0  0  0  0  0  0  0  0
   37.3790   22.3050   33.2990 C   0  0  0  0  0  0  0  0  0  0  0  0
   36.9360   22.0730   32.3400 H   0  0  0  0  0  0  0  0  0  0  0  0
   36.9270   21.5700   34.3740 C   0  0  0  0  0  3  0  0  0  0  0  0
   37.4660   21.8360   35.6130 C   0  0  0  0  0  3  0  0  0  0  0  0
   39.7320   24.4930   37.2680 H   0  0  0  0  0  0  0  0  0  0  0  0
   39.1600   23.2510   37.3220 S   0  0  0  0  0  0  0  0  0  0  0  0
   38.1900   23.2300   38.4620 O   0  0  0  0  0  0  0  0  0  0  0  0
   40.2870   22.2970   37.6690 O   0  0  0  0  0  0  0  0  0  0  0  0
   38.4510   26.5270   35.1850 C   0  0  1  0  0  3  0  0  0  0  0  0
   38.1860   26.4320   36.4420 O   0  0  0  0  0  1  0  0  0  0  0  0
   36.6840   27.1520   32.0860 C   0  0  0  0  0  0  0  0  0  0  0  0
   35.8100   28.2050   32.3950 C   0  0  0  0  0  0  0  0  0  0  0  0
   35.8310   28.7160   33.6960 C   0  0  0  0  0  0  0  0  0  0  0  0
   36.6950   28.1760   34.6180 N   0  0  0  0  0  0  0  0  0  0  0  0
   37.5100   27.1760   34.2850 C   0  0  0  0  0  0  0  0  0  0  0  0
   37.4890   26.6920   33.0460 N   0  0  0  0  0  0  0  0  0  0  0  0
   36.6000   26.8220   31.0630 H   0  0  0  0  0  0  0  0  0  0  0  0
   35.0910   28.7000   31.7460 H   0  0  0  0  0  0  0  0  0  0  0  0
   35.2240   29.5200   34.0890 H   0  0  0  0  0  0  0  0  0  0  0  0
  1 23  1  0  0  0  0
  2  7  1  0  0  0  0
  2  1  1  0  0  0  0
  3  2  2  0  0  0  0
  4  5  2  0  0  0  0
  4  3  1  0  0  0  0
  5  6  1  0  0  0  0
  6 12  1  0  0  0  0
  6  1  2  0  0  0  0
  8  3  1  0  0  0  0
  9  4  1  0  0  0  0
 10  5  1  0  0  0  0
 11 20  1  0  0  0  0
 12 11  2  0  0  0  0
 13 12  1  0  0  0  0
 14 13  1  0  0  0  0
 15 13  2  0  0  0  0
 15 17  1  0  0  0  0
 16 15  1  0  0  0  0
 17 18  2  0  0  0  0
 18 11  1  0  0  0  0
 19 20  1  0  0  0  0
 20 22  2  0  0  0  0
 20 21  2  0  0  0  0
 23 24  1  1  0  0  0
 25 26  2  0  0  0  0
 25 30  1  0  0  0  0
 26 27  1  0  0  0  0
 27 33  1  0  0  0  0
 27 28  2  0  0  0  0
 29 28  1  0  0  0  0
 29 23  1  0  0  0  0
 30 29  2  0  0  0  0
 31 25  1  0  0  0  0
 32 26  1  0  0  0  0
M  END
>  <minimizedAffinity>
-5.15126848

$$$$

 OpenBabel03272509393D

 33 35  0  0  1  0  0  0  0  0999 V2000
   37.1090   21.5470   33.1640 C   0  0  0  0  0  0  0  0  0  0  0  0
   36.2310   20.6410   33.7710 C   0  0  0  0  0  0  0  0  0  0  0  0
   35.1140   20.1290   33.0960 C   0  0  0  0  0  0  0  0  0  0  0  0
   34.8760   20.5460   31.7660 C   0  0  0  0  0  0  0  0  0  0  0  0
   35.7610   21.4470   31.1800 C   0  0  0  0  0  0  0  0  0  0  0  0
   36.8590   21.9400   31.8650 C   0  0  0  0  0  0  0  0  0  0  0  0
   36.4060   20.3180   34.7870 H   0  0  0  0  0  0  0  0  0  0  0  0
   34.4440   19.4340   33.5710 H   0  0  0  0  0  0  0  0  0  0  0  0
   34.0070   20.1350   31.2710 H   0  0  0  0  0  0  0  0  0  0  0  0
   35.4870   21.6970   30.1650 H   0  0  0  0  0  0  0  0  0  0  0  0
   37.6060   24.2090   30.8640 C   0  0  0  0  0  0  0  0  0  0  0  0
   37.6500   22.8430   31.0590 C   0  0  0  0  0  0  0  0  0  0  0  0
   38.6100   22.1180   30.3410 C   0  0  0  0  0  0  0  0  0  0  0  0
   38.7910   21.0350   30.3680 H   0  0  0  0  0  0  0  0  0  0  0  0
   39.4870   22.7640   29.4610 C   0  0  0  0  0  0  0  0  0  0  0  0
   40.2420   22.2420   28.8890 H   0  0  0  0  0  0  0  0  0  0  0  0
   39.4230   24.1300   29.2840 C   0  0  0  0  0  3  0  0  0  0  0  0
   38.4740   24.8310   29.9950 C   0  0  0  0  0  3  0  0  0  0  0  0
   36.0850   24.2680   32.9620 H   0  0  0  0  0  0  0  0  0  0  0  0
   36.3880   24.9940   31.8430 S   0  0  0  0  0  0  0  0  0  0  0  0
   36.7860   26.3730   32.2720 O   0  0  0  0  0  0  0  0  0  0  0  0
   35.0880   25.1180   31.0720 O   0  0  0  0  0  0  0  0  0  0  0  0
   38.2260   22.0540   33.9400 C   0  0  1  0  0  3  0  0  0  0  0  0
   39.3480   21.4830   33.6680 O   0  0  0  0  0  1  0  0  0  0  0  0
   38.6080   25.3780   35.3230 C   0  0  0  0  0  0  0  0  0  0  0  0
   38.1310   25.2610   36.6370 C   0  0  0  0  0  0  0  0  0  0  0  0
   37.6710   24.0100   37.0600 C   0  0  0  0  0  0  0  0  0  0  0  0
   37.7010   22.9510   36.1850 N   0  0  0  0  0  0  0  0  0  0  0  0
   38.1620   23.1040   34.9450 C   0  0  0  0  0  0  0  0  0  0  0  0
   38.6000   24.2940   34.5450 N   0  0  0  0  0  0  0  0  0  0  0  0
   38.9410   26.3750   35.0840 H   0  0  0  0  0  0  0  0  0  0  0  0
   38.0630   26.0290   37.4040 H   0  0  0  0  0  0  0  0  0  0  0  0
   37.2750   23.7570   38.0340 H   0  0  0  0  0  0  0  0  0  0  0  0
  1  2  1  0  0  0  0
  1 23  1  0  0  0  0
  2  7  1  0  0  0  0
  3  8  1  0  0  0  0
  3  2  2  0  0  0  0
  4  3  1  0  0  0  0
  5  4  2  0  0  0  0
  5  6  1  0  0  0  0
  6  1  2  0  0  0  0
  9  4  1  0  0  0  0
 10  5  1  0  0  0  0
 11 12  1  0  0  0  0
 11 20  1  0  0  0  0
 12  6  1  0  0  0  0
 13 14  1  0  0  0  0
 13 12  2  0  0  0  0
 15 13  1  0  0  0  0
 16 15  1  0  0  0  0
 17 15  2  0  0  0  0
 17 18  1  0  0  0  0
 18 11  2  0  0  0  0
 20 21  2  0  0  0  0
 20 19  1  0  0  0  0
 22 20  2  0  0  0  0
 23 24  1  6  0  0  0
 23 29  1  0  0  0  0
 25 26  1  0  0  0  0
 26 27  2  0  0  0  0
 26 32  1  0  0  0  0
 27 33  1  0  0  0  0
 28 27  1  0  0  0  0
 29 28  2  0  0  0  0
 30 29  1  0  0  0  0
 30 25  2  0  0  0  0
 31 25  1  0  0  0  0
M  END
>  <minimizedAffinity>
-5.13569832

$$$$

 OpenBabel03272509393D

 33 35  0  0  1  0  0  0  0  0999 V2000
   37.3560   27.2590   33.9830 C   0  0  0  0  0  0  0  0  0  0  0  0
   36.7190   28.2920   34.6800 C   0  0  0  0  0  0  0  0  0  0  0  0
   35.6990   29.0590   34.0970 C   0  0  0  0  0  0  0  0  0  0  0  0
   35.3110   28.7710   32.7690 C   0  0  0  0  0  0  0  0  0  0  0  0
   35.9570   27.7400   32.0920 C   0  0  0  0  0  0  0  0  0  0  0  0
   36.9620   26.9960   32.6870 C   0  0  0  0  0  0  0  0  0  0  0  0
   37.0090   28.5180   35.6960 H   0  0  0  0  0  0  0  0  0  0  0  0
   35.2150   29.8510   34.6410 H   0  0  0  0  0  0  0  0  0  0  0  0
   34.5220   29.3790   32.3450 H   0  0  0  0  0  0  0  0  0  0  0  0
   35.5840   27.6050   31.0860 H   0  0  0  0  0  0  0  0  0  0  0  0
   38.5590   25.9160   30.9570 C   0  0  0  0  0  0  0  0  0  0  0  0
   37.4760   25.9650   31.8110 C   0  0  0  0  0  0  0  0  0  0  0  0
   36.6460   24.8370   31.8710 C   0  0  0  0  0  0  0  0  0  0  0  0
   35.7480   24.6970   32.4870 H   0  0  0  0  0  0  0  0  0  0  0  0
   36.9150   23.7070   31.0890 C   0  0  0  0  0  0  0  0  0  0  0  0
   36.3020   22.8170   31.1050 H   0  0  0  0  0  0  0  0  0  0  0  0
   38.0040   23.6830   30.2430 C   0  0  0  0  0  3  0  0  0  0  0  0
   38.8110   24.7990   30.1930 C   0  0  0  0  0  3  0  0  0  0  0  0
   39.5640   27.9200   32.2570 H   0  0  0  0  0  0  0  0  0  0  0  0
   39.5270   27.3720   31.0040 S   0  0  0  0  0  0  0  0  0  0  0  0
   40.9340   27.1500   30.5460 O   0  0  0  0  0  0  0  0  0  0  0  0
   38.9230   28.4380   30.1110 O   0  0  0  0  0  0  0  0  0  0  0  0
   38.4230   26.5330   34.6460 C   0  0  2  0  0  3  0  0  0  0  0  0
   39.5750   27.0990   34.5480 O   0  0  0  0  0  1  0  0  0  0  0  0
   37.9870   24.3690   37.5160 C   0  0  0  0  0  0  0  0  0  0  0  0
   37.9730   23.0750   36.9730 C   0  0  0  0  0  0  0  0  0  0  0  0
   38.1220   22.9420   35.5900 C   0  0  0  0  0  0  0  0  0  0  0  0
   38.2730   24.0690   34.8180 N   0  0  0  0  0  0  0  0  0  0  0  0
   38.2810   25.2790   35.3720 C   0  0  0  0  0  0  0  0  0  0  0  0
   38.1400   25.4040   36.6890 N   0  0  0  0  0  0  0  0  0  0  0  0
   37.8660   24.3760   38.5880 H   0  0  0  0  0  0  0  0  0  0  0  0
   37.8600   22.1250   37.4900 H   0  0  0  0  0  0  0  0  0  0  0  0
   38.1330   22.0220   35.0220 H   0  0  0  0  0  0  0  0  0  0  0  0
  1 23  1  0  0  0  0
  1  2  1  0  0  0  0
  2  7  1  0  0  0  0
  3  8  1  0  0  0  0
  3  2  2  0  0  0  0
  4  3  1  0  0  0  0
  5  6  1  0  0  0  0
  5  4  2  0  0  0  0
  6  1  2  0  0  0  0
  9  4  1  0  0  0  0
 10  5  1  0  0  0  0
 11 20  1  0  0  0  0
 11 12  1  0  0  0  0
 12 13  2  0  0  0  0
 12  6  1  0  0  0  0
 13 14  1  0  0  0  0
 15 16  1  0  0  0  0
 15 13  1  0  0  0  0
 17 15  2  0  0  0  0
 18 17  1  0  0  0  0
 18 11  2  0  0  0  0
 20 19  1  0  0  0  0
 21 20  2  0  0  0  0
 22 20  2  0  0  0  0
 23 24  1  6  0  0  0
 23 29  1  0  0  0  0
 25 31  1  0  0  0  0
 26 32  1  0  0  0  0
 26 25  1  0  0  0  0
 27 26  2  0  0  0  0
 28 29  2  0  0  0  0
 28 27  1  0  0  0  0
 29 30  1  0  0  0  0
 30 25  2  0  0  0  0
 33 27  1  0  0  0  0
M  END
>  <minimizedAffinity>
-5.12590837

$$$$
