
     RDKit          3D

 32 34  0  0  0  0  0  0  0  0999 V2000
   37.5186   30.4358   50.9320 C   0  0  0  0  0  0  0  0  0  0  0  0
   37.1967   31.0612   49.7079 C   0  0  0  0  0  0  0  0  0  0  0  0
   35.9543   30.7767   49.1231 C   0  0  0  0  0  0  0  0  0  0  0  0
   35.1254   29.9068   49.7767 N   0  0  0  0  0  0  0  0  0  0  0  0
   35.4840   29.3312   50.9550 C   0  0  0  0  0  0  0  0  0  0  0  0
   36.6662   29.5885   51.5317 N   0  0  0  0  0  0  0  0  0  0  0  0
   38.0754   31.9830   49.0233 C   0  0  0  0  0  0  0  0  0  0  0  0
   38.5463   33.1391   49.5785 C   0  0  0  0  0  0  0  0  0  0  0  0
   39.3871   34.0280   48.9377 C   0  0  0  0  0  0  0  0  0  0  0  0
   39.7941   33.7475   47.6401 C   0  0  0  0  0  0  0  0  0  0  0  0
   39.3172   32.5868   47.0914 C   0  0  0  0  0  0  0  0  0  0  0  0
   38.5098   31.7835   47.7767 N   0  0  0  0  0  0  0  0  0  0  0  0
   38.4915   30.7162   51.3012 H   0  0  0  0  0  0  0  0  0  0  0  0
   35.6269   31.2049   48.1965 H   0  0  0  0  0  0  0  0  0  0  0  0
   34.8153   28.6441   51.4600 H   0  0  0  0  0  0  0  0  0  0  0  0
   38.2454   33.3902   50.5985 H   0  0  0  0  0  0  0  0  0  0  0  0
   39.7058   34.9259   49.4741 H   0  0  0  0  0  0  0  0  0  0  0  0
   40.4456   34.4998   47.2320 H   0  0  0  0  0  0  0  0  0  0  0  0
   37.7723   34.7655   45.5915 H   0  0  0  0  0  0  0  0  0  0  0  0
   37.5223   33.6655   44.8199 S   0  0  0  0  0  0  0  0  0  0  0  0
   37.0726   34.0819   43.4312 O   0  0  0  0  0  0  0  0  0  0  0  0
   36.4442   32.8034   45.4551 O   0  0  0  0  0  0  0  0  0  0  0  0
   38.9841   32.7264   44.6607 C   0  0  0  0  0  0  0  0  0  0  0  0
   39.7353   32.2789   45.7306 C   0  0  0  0  0  0  0  0  0  0  0  0
   40.8648   31.5484   45.4358 C   0  0  0  0  0  0  0  0  0  0  0  0
   41.5058   31.1625   46.2118 H   0  0  0  0  0  0  0  0  0  0  0  0
   41.3036   31.2295   44.1681 C   0  0  0  0  0  0  0  0  0  0  0  0
   42.1970   30.6529   43.9731 H   0  0  0  0  0  0  0  0  0  0  0  0
   40.5598   31.6722   43.0957 C   0  0  0  0  0  0  0  0  0  0  0  0
   39.4317   32.4014   43.3738 C   0  0  0  0  0  0  0  0  0  0  0  0
   40.8463   31.4581   42.0757 H   0  0  0  0  0  0  0  0  0  0  0  0
   38.8599   32.7400   42.4942 H   0  0  0  0  0  0  0  0  0  0  0  0
  1  6  2  0
  2  1  1  0
  3  2  2  0
  3  4  1  0
  4  5  2  0
  5  6  1  0
  7  8  2  0
  7  2  1  0
  9  8  1  0
 10  9  2  0
 11 10  1  0
 11 12  2  0
 12  7  1  0
  1 13  1  0
  3 14  1  0
  5 15  1  0
  8 16  1  0
  9 17  1  0
 10 18  1  0
 19 20  1  0
 20 21  2  0
 20 22  2  0
 20 23  1  0
 23 24  2  0
 24 25  1  0
 25 26  1  0
 25 27  2  0
 27 28  1  0
 27 29  1  0
 29 30  2  0
 30 23  1  0
 29 31  1  0
 30 32  1  0
 11 24  1  0
M  ISO  8  13  14  14  14  15  14  16  14  17  14  18  14  19  12  26  15
M  ISO  1  28  16
M  END
>  <DihAtoms>  (1) 
9,10,23,22

>  <DihDeg>  (1) 
-179.91046260644188

$$$$
