REMARK  Name = 
REMARK  7 active torsions:
REMARK  status: ('A' for Active; 'I' for Inactive)
REMARK    1  A    between atoms: C_1  and  C_4
REMARK    2  A    between atoms: C_3  and  C_11
REMARK    3  A    between atoms: C_4  and  C_7
REMARK    4  A    between atoms: C_11  and  C_12
REMARK    5  A    between atoms: C_12  and  C_14
REMARK    6  A    between atoms: C_21  and  C_45
REMARK    7  A    between atoms: S_41  and  C_44
REMARK                            x       y       z     vdW  Elec       q    Type
REMARK                         _______ _______ _______ _____ _____    ______ ____
ROOT
ATOM      1  C   UNL     1      39.400  28.787  43.155  0.00  0.00    +0.000 A 
ATOM      2  C   UNL     1      40.353  29.757  42.893  0.00  0.00    +0.000 A 
ATOM      3  C   UNL     1      41.152  29.629  41.765  0.00  0.00    +0.000 A 
ATOM      4  C   UNL     1      41.032  28.576  40.901  0.00  0.00    +0.000 A 
ATOM      5  N   UNL     1      41.688  28.260  39.773  0.00  0.00    +0.000 N 
ATOM      6  C   UNL     1      41.148  27.101  39.334  0.00  0.00    +0.000 A 
ATOM      7  C   UNL     1      40.133  26.637  40.163  0.00  0.00    +0.000 A 
ATOM      8  C   UNL     1      40.087  27.611  41.160  0.00  0.00    +0.000 A 
ATOM      9  C   UNL     1      39.296  27.729  42.266  0.00  0.00    +0.000 A 
ATOM     10  H   UNL     1      38.730  28.780  43.989  0.00  0.00    +0.000 HD
ATOM     11  H   UNL     1      41.895  30.419  41.594  0.00  0.00    +0.000 HD
ATOM     12  H   UNL     1      42.461  28.770  39.292  0.00  0.00    +0.000 HD
ATOM     13  H   UNL     1      41.474  26.590  38.433  0.00  0.00    +0.000 HD
ATOM     14  H   UNL     1      39.552  25.748  40.037  0.00  0.00    +0.000 HD
ENDROOT
BRANCH   9  16
ATOM     15  C   UNL     1      37.076  26.758  43.130  0.00  0.00    +0.000 A 
ATOM     16  C   UNL     1      38.294  26.674  42.510  0.00  0.00    +0.000 A 
ATOM     17  C   UNL     1      38.742  25.454  41.999  0.00  0.00    +0.000 A 
ATOM     18  H   UNL     1      39.691  25.270  41.486  0.00  0.00    +0.000 HD
ATOM     19  C   UNL     1      37.977  24.307  42.103  0.00  0.00    +0.000 A 
ATOM     20  H   UNL     1      38.267  23.353  41.734  0.00  0.00    +0.000 HD
ATOM     21  C   UNL     1      36.749  24.403  42.732  0.00  0.00    +0.000 A 
ATOM     22  C   UNL     1      36.315  25.612  43.233  0.00  0.00    +0.000 A 
BRANCH  15  24
ATOM     23  H   UNL     1      36.789  29.263  42.691  0.00  0.00    +0.000 HD
ATOM     24  S   UNL     1      36.675  28.344  43.706  0.00  0.00    +0.000 S 
ATOM     25  O   UNL     1      37.486  28.753  44.903  0.00  0.00    +0.000 OA
ATOM     26  O   UNL     1      35.228  28.337  44.120  0.00  0.00    +0.000 OA
ENDBRANCH  15  24
ENDBRANCH   9  16
BRANCH   2  27
ATOM     27  C   UNL     1      40.480  30.908  43.841  0.00  0.00    +0.000 C 
ATOM     28  H   UNL     1      40.067  31.805  43.331  0.00  0.00    +0.000 HD
ATOM     29  H   UNL     1      41.537  31.036  44.144  0.00  0.00    +0.000 HD
BRANCH  27  30
ATOM     30  C   UNL     1      39.662  30.585  45.071  0.00  0.00    +0.000 C 
ATOM     31  H   UNL     1      39.979  29.570  45.386  0.00  0.00    +0.000 HD
ATOM     32  H   UNL     1      38.605  30.659  44.754  0.00  0.00    +0.000 HD
BRANCH  30  35
ATOM     33  C   UNL     1      38.748  32.120  46.852  0.00  0.00    +0.000 C 
ATOM     34  C   UNL     1      39.767  32.964  46.122  0.00  0.00    +0.000 C 
ATOM     35  C   UNL     1      39.916  31.498  46.216  0.00  0.00    +0.000 C 
ATOM     36  H   UNL     1      37.748  31.968  46.378  0.00  0.00    +0.000 HD
ATOM     37  H   UNL     1      40.402  33.661  46.682  0.00  0.00    +0.000 HD
ATOM     38  H   UNL     1      39.433  33.328  45.129  0.00  0.00    +0.000 HD
ATOM     39  H   UNL     1      40.717  31.187  46.950  0.00  0.00    +0.000 HD
BRANCH  33  40
ATOM     40  C   UNL     1      38.678  32.337  48.332  0.00  0.00    +0.000 C 
ATOM     41  H   UNL     1      39.676  32.416  48.791  0.00  0.00    +0.000 HD
ATOM     42  H   UNL     1      38.111  33.301  48.479  0.00  0.00    +0.000 HD
BRANCH  40  45
ATOM     43  C   UNL     1      37.441  30.032  51.018  0.00  0.00    +0.000 A 
ATOM     44  C   UNL     1      38.144  31.082  50.345  0.00  0.00    +0.000 A 
ATOM     45  C   UNL     1      37.940  31.244  49.005  0.00  0.00    +0.000 A 
ATOM     46  N   UNL     1      37.086  30.404  48.383  0.00  0.00    +0.000 NA
ATOM     47  C   UNL     1      36.432  29.425  49.018  0.00  0.00    +0.000 A 
ATOM     48  N   UNL     1      36.618  29.252  50.328  0.00  0.00    +0.000 NA
ATOM     49  H   UNL     1      37.665  29.981  52.075  0.00  0.00    +0.000 HD
ATOM     50  H   UNL     1      38.821  31.733  50.885  0.00  0.00    +0.000 HD
ATOM     51  H   UNL     1      35.752  28.754  48.531  0.00  0.00    +0.000 HD
ENDBRANCH  40  45
ENDBRANCH  33  40
ENDBRANCH  30  35
ENDBRANCH  27  30
ENDBRANCH   2  27
TORSDOF 7
