
 OpenBabel03262522333D

 30 32  0  0  0  0  0  0  0  0999 V2000
   38.3260   25.6530   33.2920 C   0  0  0  0  0  0  0  0  0  0  0  0
   38.9710   26.8540   33.3680 C   0  0  0  0  0  0  0  0  0  0  0  0
   40.0690   27.1030   34.1680 C   0  0  0  0  0  0  0  0  0  0  0  0
   40.5690   26.0750   34.9570 C   0  0  0  0  0  0  0  0  0  0  0  0
   39.9160   24.8740   34.8740 C   0  0  0  0  0  0  0  0  0  0  0  0
   38.8640   24.7170   34.0770 N   0  0  0  0  0  0  0  0  0  0  0  0
   38.6030   27.6860   32.7600 H   0  0  0  0  0  0  0  0  0  0  0  0
   40.5110   28.1030   34.1550 H   0  0  0  0  0  0  0  0  0  0  0  0
   41.4220   26.3700   35.5420 H   0  0  0  0  0  0  0  0  0  0  0  0
   36.7310   24.1200   32.0850 C   0  0  0  0  0  0  0  0  0  0  0  0
   37.1750   25.4090   32.4510 C   0  0  0  0  0  0  0  0  0  0  0  0
   36.4590   26.5190   31.9770 C   0  0  0  0  0  0  0  0  0  0  0  0
   35.3690   26.2830   31.1850 N   0  0  0  0  0  0  0  0  0  0  0  0
   34.9830   25.0200   30.8610 C   0  0  0  0  0  0  0  0  0  0  0  0
   35.6520   23.9460   31.3030 N   0  0  0  0  0  0  0  0  0  0  0  0
   37.3440   23.3350   32.4960 H   0  0  0  0  0  0  0  0  0  0  0  0
   36.7240   27.5320   32.2040 H   0  0  0  0  0  0  0  0  0  0  0  0
   34.1170   24.8520   30.2320 H   0  0  0  0  0  0  0  0  0  0  0  0
   39.6900   23.3270   36.7700 C   0  0  0  0  0  0  0  0  0  0  0  0
   40.4280   23.7860   35.6950 C   0  0  0  0  0  0  0  0  0  0  0  0
   41.6360   23.1670   35.4610 C   0  0  0  0  0  0  0  0  0  0  0  0
   42.2730   23.4640   34.6430 H   0  0  0  0  0  0  0  0  0  0  0  0
   42.1650   22.1360   36.2070 C   0  0  0  0  0  0  0  0  0  0  0  0
   43.1190   21.6730   35.9940 H   0  0  0  0  0  0  0  0  0  0  0  0
   41.4360   21.6730   37.2800 C   0  0  0  0  0  3  0  0  0  0  0  0
   40.2300   22.2790   37.5260 C   0  0  0  0  0  3  0  0  0  0  0  0
   37.8510   25.0640   36.4600 H   0  0  0  0  0  0  0  0  0  0  0  0
   38.1380   23.9740   37.2350 S   0  0  0  0  0  0  0  0  0  0  0  0
   37.0930   22.8910   37.0340 O   0  0  0  0  0  0  0  0  0  0  0  0
   38.1790   24.3610   38.7040 O   0  0  0  0  0  0  0  0  0  0  0  0
  1  2  2  0  0  0  0
  1  6  1  0  0  0  0
  2  3  1  0  0  0  0
  3  4  2  0  0  0  0
  4  9  1  0  0  0  0
  5  4  1  0  0  0  0
  5 20  1  0  0  0  0
  6  5  2  0  0  0  0
  7  2  1  0  0  0  0
  8  3  1  0  0  0  0
 10 11  1  0  0  0  0
 10 16  1  0  0  0  0
 11  1  1  0  0  0  0
 12 17  1  0  0  0  0
 12 11  2  0  0  0  0
 13 12  1  0  0  0  0
 14 13  2  0  0  0  0
 14 15  1  0  0  0  0
 15 10  2  0  0  0  0
 18 14  1  0  0  0  0
 19 28  1  0  0  0  0
 19 26  1  0  0  0  0
 20 19  2  0  0  0  0
 21 20  1  0  0  0  0
 21 23  2  0  0  0  0
 22 21  1  0  0  0  0
 23 25  1  0  0  0  0
 24 23  1  0  0  0  0
 25 26  2  0  0  0  0
 27 28  1  0  0  0  0
 28 30  2  0  0  0  0
 29 28  2  0  0  0  0
M  END
>  <minimizedAffinity>
-5.75738001

$$$$

 OpenBabel03262522333D

 30 32  0  0  0  0  0  0  0  0999 V2000
   36.6760   27.8540   33.5830 C   0  0  0  0  0  0  0  0  0  0  0  0
   36.7510   28.3630   32.3180 C   0  0  0  0  0  0  0  0  0  0  0  0
   36.2490   29.5930   31.9390 C   0  0  0  0  0  0  0  0  0  0  0  0
   35.6220   30.3830   32.8940 C   0  0  0  0  0  0  0  0  0  0  0  0
   35.5510   29.8640   34.1600 C   0  0  0  0  0  0  0  0  0  0  0  0
   36.0600   28.6690   34.4420 N   0  0  0  0  0  0  0  0  0  0  0  0
   37.2390   27.7670   31.5420 H   0  0  0  0  0  0  0  0  0  0  0  0
   36.3620   29.9070   30.8980 H   0  0  0  0  0  0  0  0  0  0  0  0
   35.2670   31.3180   32.4990 H   0  0  0  0  0  0  0  0  0  0  0  0
   37.5370   26.2120   35.2900 C   0  0  0  0  0  0  0  0  0  0  0  0
   37.2040   26.5630   33.9630 C   0  0  0  0  0  0  0  0  0  0  0  0
   37.3920   25.6050   32.9560 C   0  0  0  0  0  0  0  0  0  0  0  0
   37.8880   24.3840   33.3210 N   0  0  0  0  0  0  0  0  0  0  0  0
   38.1930   24.0970   34.6140 C   0  0  0  0  0  0  0  0  0  0  0  0
   38.0220   24.9960   35.5930 N   0  0  0  0  0  0  0  0  0  0  0  0
   37.3590   27.0110   35.9900 H   0  0  0  0  0  0  0  0  0  0  0  0
   37.1670   25.7840   31.9240 H   0  0  0  0  0  0  0  0  0  0  0  0
   38.5850   23.1240   34.8860 H   0  0  0  0  0  0  0  0  0  0  0  0
   33.5380   30.5470   35.3920 C   0  0  0  0  0  0  0  0  0  0  0  0
   34.8960   30.6800   35.1720 C   0  0  0  0  0  0  0  0  0  0  0  0
   35.5640   31.6030   35.9470 C   0  0  0  0  0  0  0  0  0  0  0  0
   36.6240   31.7680   35.8390 H   0  0  0  0  0  0  0  0  0  0  0  0
   34.9920   32.3980   36.9160 C   0  0  0  0  0  0  0  0  0  0  0  0
   35.5480   33.1140   37.5060 H   0  0  0  0  0  0  0  0  0  0  0  0
   33.6380   32.2710   37.1420 C   0  0  0  0  0  3  0  0  0  0  0  0
   32.9590   31.3570   36.3780 C   0  0  0  0  0  3  0  0  0  0  0  0
   33.2860   28.6310   33.7310 H   0  0  0  0  0  0  0  0  0  0  0  0
   32.5130   29.4370   34.5200 S   0  0  0  0  0  0  0  0  0  0  0  0
   31.7420   28.6080   35.5320 O   0  0  0  0  0  0  0  0  0  0  0  0
   31.5310   30.2290   33.6730 O   0  0  0  0  0  0  0  0  0  0  0  0
  1 11  1  0  0  0  0
  1  6  1  0  0  0  0
  2  1  2  0  0  0  0
  3  2  1  0  0  0  0
  3  4  2  0  0  0  0
  4  5  1  0  0  0  0
  5  6  2  0  0  0  0
  5 20  1  0  0  0  0
  7  2  1  0  0  0  0
  8  3  1  0  0  0  0
  9  4  1  0  0  0  0
 10 15  1  0  0  0  0
 10 16  1  0  0  0  0
 11 10  2  0  0  0  0
 12 13  2  0  0  0  0
 12 11  1  0  0  0  0
 13 14  1  0  0  0  0
 14 18  1  0  0  0  0
 14 15  2  0  0  0  0
 17 12  1  0  0  0  0
 19 26  1  0  0  0  0
 20 19  2  0  0  0  0
 20 21  1  0  0  0  0
 21 23  2  0  0  0  0
 22 21  1  0  0  0  0
 23 25  1  0  0  0  0
 23 24  1  0  0  0  0
 26 25  2  0  0  0  0
 27 28  1  0  0  0  0
 28 19  1  0  0  0  0
 28 29  2  0  0  0  0
 30 28  2  0  0  0  0
M  END
>  <minimizedAffinity>
-5.51655197

$$$$

 OpenBabel03262522333D

 30 32  0  0  0  0  0  0  0  0999 V2000
   36.1270   27.8430   31.9610 C   0  0  0  0  0  0  0  0  0  0  0  0
   36.4560   28.6640   30.9190 C   0  0  0  0  0  0  0  0  0  0  0  0
   36.3370   30.0400   30.9400 C   0  0  0  0  0  0  0  0  0  0  0  0
   35.8520   30.6520   32.0880 C   0  0  0  0  0  0  0  0  0  0  0  0
   35.5250   29.8220   33.1270 C   0  0  0  0  0  0  0  0  0  0  0  0
   35.6690   28.5050   33.0250 N   0  0  0  0  0  0  0  0  0  0  0  0
   36.8410   28.2140   30.0000 H   0  0  0  0  0  0  0  0  0  0  0  0
   36.6290   30.6040   30.0500 H   0  0  0  0  0  0  0  0  0  0  0  0
   35.7980   31.7230   32.0030 H   0  0  0  0  0  0  0  0  0  0  0  0
   37.1780   25.6780   32.7050 C   0  0  0  0  0  0  0  0  0  0  0  0
   36.2550   26.4040   31.9220 C   0  0  0  0  0  0  0  0  0  0  0  0
   35.4090   25.6900   31.0600 C   0  0  0  0  0  0  0  0  0  0  0  0
   35.5310   24.3280   31.0300 N   0  0  0  0  0  0  0  0  0  0  0  0
   36.4390   23.6770   31.8050 C   0  0  0  0  0  0  0  0  0  0  0  0
   37.2560   24.3380   32.6360 N   0  0  0  0  0  0  0  0  0  0  0  0
   37.7820   26.3120   33.3330 H   0  0  0  0  0  0  0  0  0  0  0  0
   34.6790   26.1570   30.4300 H   0  0  0  0  0  0  0  0  0  0  0  0
   36.5220   22.5970   31.7690 H   0  0  0  0  0  0  0  0  0  0  0  0
   33.6620   30.4040   34.6200 C   0  0  0  0  0  0  0  0  0  0  0  0
   35.0140   30.4490   34.3380 C   0  0  0  0  0  0  0  0  0  0  0  0
   35.8180   31.1040   35.2460 C   0  0  0  0  0  0  0  0  0  0  0  0
   36.8830   31.1840   35.1010 H   0  0  0  0  0  0  0  0  0  0  0  0
   35.3860   31.7120   36.4040 C   0  0  0  0  0  0  0  0  0  0  0  0
   36.0460   32.2180   37.0950 H   0  0  0  0  0  0  0  0  0  0  0  0
   34.0390   31.6720   36.6930 C   0  0  0  0  0  3  0  0  0  0  0  0
   33.2250   31.0240   35.7990 C   0  0  0  0  0  3  0  0  0  0  0  0
   32.9830   28.4410   33.1450 H   0  0  0  0  0  0  0  0  0  0  0  0
   32.4780   29.6260   33.6030 S   0  0  0  0  0  0  0  0  0  0  0  0
   31.2270   29.3870   34.4280 O   0  0  0  0  0  0  0  0  0  0  0  0
   32.1410   30.5450   32.4400 O   0  0  0  0  0  0  0  0  0  0  0  0
  1  6  1  0  0  0  0
  2  3  1  0  0  0  0
  2  1  2  0  0  0  0
  3  4  2  0  0  0  0
  4  5  1  0  0  0  0
  5 20  1  0  0  0  0
  6  5  2  0  0  0  0
  7  2  1  0  0  0  0
  8  3  1  0  0  0  0
  9  4  1  0  0  0  0
 10 16  1  0  0  0  0
 11  1  1  0  0  0  0
 11 10  2  0  0  0  0
 12 11  1  0  0  0  0
 13 12  2  0  0  0  0
 13 14  1  0  0  0  0
 14 15  2  0  0  0  0
 15 10  1  0  0  0  0
 17 12  1  0  0  0  0
 18 14  1  0  0  0  0
 19 26  1  0  0  0  0
 20 19  2  0  0  0  0
 20 21  1  0  0  0  0
 21 23  2  0  0  0  0
 22 21  1  0  0  0  0
 23 25  1  0  0  0  0
 23 24  1  0  0  0  0
 26 25  2  0  0  0  0
 27 28  1  0  0  0  0
 28 29  2  0  0  0  0
 28 19  1  0  0  0  0
 30 28  2  0  0  0  0
M  END
>  <minimizedAffinity>
-5.3519249

$$$$

 OpenBabel03262522333D

 30 32  0  0  0  0  0  0  0  0999 V2000
   40.3300   23.0920   36.8160 C   0  0  0  0  0  0  0  0  0  0  0  0
   39.6010   22.8370   37.9440 C   0  0  0  0  0  0  0  0  0  0  0  0
   38.3900   23.4290   38.2420 C   0  0  0  0  0  0  0  0  0  0  0  0
   37.8550   24.3480   37.3480 C   0  0  0  0  0  0  0  0  0  0  0  0
   38.5920   24.5960   36.2200 C   0  0  0  0  0  0  0  0  0  0  0  0
   39.7520   23.9840   36.0090 N   0  0  0  0  0  0  0  0  0  0  0  0
   39.9930   22.1190   38.6690 H   0  0  0  0  0  0  0  0  0  0  0  0
   37.8880   23.1540   39.1740 H   0  0  0  0  0  0  0  0  0  0  0  0
   36.9120   24.7500   37.6720 H   0  0  0  0  0  0  0  0  0  0  0  0
   42.5740   23.0360   35.6740 C   0  0  0  0  0  0  0  0  0  0  0  0
   41.5990   22.4660   36.5200 C   0  0  0  0  0  0  0  0  0  0  0  0
   41.8750   21.2240   37.1120 C   0  0  0  0  0  0  0  0  0  0  0  0
   43.0790   20.6380   36.8320 N   0  0  0  0  0  0  0  0  0  0  0  0
   43.9850   21.2300   36.0090 C   0  0  0  0  0  0  0  0  0  0  0  0
   43.7420   22.4150   35.4330 N   0  0  0  0  0  0  0  0  0  0  0  0
   42.2710   23.9870   35.2680 H   0  0  0  0  0  0  0  0  0  0  0  0
   41.1940   20.7190   37.7670 H   0  0  0  0  0  0  0  0  0  0  0  0
   44.9340   20.7520   35.7980 H   0  0  0  0  0  0  0  0  0  0  0  0
   37.7360   25.1590   33.9870 C   0  0  0  0  0  0  0  0  0  0  0  0
   38.0460   25.5580   35.2730 C   0  0  0  0  0  0  0  0  0  0  0  0
   37.8110   26.8780   35.5880 C   0  0  0  0  0  0  0  0  0  0  0  0
   38.0250   27.2710   36.5700 H   0  0  0  0  0  0  0  0  0  0  0  0
   37.2970   27.8270   34.7310 C   0  0  0  0  0  0  0  0  0  0  0  0
   37.1260   28.8570   35.0130 H   0  0  0  0  0  0  0  0  0  0  0  0
   36.9850   27.4370   33.4460 C   0  0  0  0  0  3  0  0  0  0  0  0
   37.2130   26.1250   33.1170 C   0  0  0  0  0  3  0  0  0  0  0  0
   37.9480   22.6610   34.4400 H   0  0  0  0  0  0  0  0  0  0  0  0
   37.9570   23.5350   33.3890 S   0  0  0  0  0  0  0  0  0  0  0  0
   36.8220   23.2240   32.4310 O   0  0  0  0  0  0  0  0  0  0  0  0
   39.2770   23.4550   32.6410 O   0  0  0  0  0  0  0  0  0  0  0  0
  1  2  1  0  0  0  0
  2  3  2  0  0  0  0
  2  7  1  0  0  0  0
  3  8  1  0  0  0  0
  4  9  1  0  0  0  0
  4  3  1  0  0  0  0
  5  4  2  0  0  0  0
  6  5  1  0  0  0  0
  6  1  2  0  0  0  0
 10 11  1  0  0  0  0
 11  1  1  0  0  0  0
 11 12  2  0  0  0  0
 12 17  1  0  0  0  0
 13 12  1  0  0  0  0
 14 13  2  0  0  0  0
 15 10  2  0  0  0  0
 15 14  1  0  0  0  0
 16 10  1  0  0  0  0
 18 14  1  0  0  0  0
 19 20  1  0  0  0  0
 20 21  2  0  0  0  0
 20  5  1  0  0  0  0
 21 22  1  0  0  0  0
 23 24  1  0  0  0  0
 23 21  1  0  0  0  0
 25 23  2  0  0  0  0
 26 25  1  0  0  0  0
 26 19  2  0  0  0  0
 28 19  1  0  0  0  0
 28 27  1  0  0  0  0
 29 28  2  0  0  0  0
 30 28  2  0  0  0  0
M  END
>  <minimizedAffinity>
-5.25718641

$$$$

 OpenBabel03262522333D

 30 32  0  0  0  0  0  0  0  0999 V2000
   36.2640   23.6910   31.6240 C   0  0  0  0  0  0  0  0  0  0  0  0
   35.2940   24.5500   31.1890 C   0  0  0  0  0  0  0  0  0  0  0  0
   35.4170   25.9260   31.1750 C   0  0  0  0  0  0  0  0  0  0  0  0
   36.5990   26.4960   31.6290 C   0  0  0  0  0  0  0  0  0  0  0  0
   37.5660   25.6280   32.0630 C   0  0  0  0  0  0  0  0  0  0  0  0
   37.3670   24.3140   32.0440 N   0  0  0  0  0  0  0  0  0  0  0  0
   34.3510   24.1340   30.8250 H   0  0  0  0  0  0  0  0  0  0  0  0
   34.5790   26.5230   30.8060 H   0  0  0  0  0  0  0  0  0  0  0  0
   36.5950   27.5710   31.5780 H   0  0  0  0  0  0  0  0  0  0  0  0
   35.0650   21.5770   32.2880 C   0  0  0  0  0  0  0  0  0  0  0  0
   36.1180   22.2530   31.6340 C   0  0  0  0  0  0  0  0  0  0  0  0
   37.0760   21.4880   30.9520 C   0  0  0  0  0  0  0  0  0  0  0  0
   36.9320   20.1280   30.9610 N   0  0  0  0  0  0  0  0  0  0  0  0
   35.8980   19.5260   31.6080 C   0  0  0  0  0  0  0  0  0  0  0  0
   34.9710   20.2360   32.2660 N   0  0  0  0  0  0  0  0  0  0  0  0
   34.3820   22.2480   32.7830 H   0  0  0  0  0  0  0  0  0  0  0  0
   37.9070   21.9160   30.4290 H   0  0  0  0  0  0  0  0  0  0  0  0
   35.7990   18.4470   31.6050 H   0  0  0  0  0  0  0  0  0  0  0  0
   39.0170   26.3760   33.8990 C   0  0  0  0  0  0  0  0  0  0  0  0
   38.8100   26.2110   32.5430 C   0  0  0  0  0  0  0  0  0  0  0  0
   39.8250   26.6200   31.7050 C   0  0  0  0  0  0  0  0  0  0  0  0
   39.7440   26.5260   30.6340 H   0  0  0  0  0  0  0  0  0  0  0  0
   41.0200   27.1760   32.1070 C   0  0  0  0  0  0  0  0  0  0  0  0
   41.7950   27.4870   31.4200 H   0  0  0  0  0  0  0  0  0  0  0  0
   41.2330   27.3440   33.4580 C   0  0  0  0  0  3  0  0  0  0  0  0
   40.2320   26.9420   34.3050 C   0  0  0  0  0  3  0  0  0  0  0  0
   36.5970   26.1900   34.6740 H   0  0  0  0  0  0  0  0  0  0  0  0
   37.8600   25.9240   35.1240 S   0  0  0  0  0  0  0  0  0  0  0  0
   38.0220   24.4420   35.4060 O   0  0  0  0  0  0  0  0  0  0  0  0
   38.1480   26.7080   36.3940 O   0  0  0  0  0  0  0  0  0  0  0  0
  1 11  1  0  0  0  0
  1  6  1  0  0  0  0
  2  1  2  0  0  0  0
  3  2  1  0  0  0  0
  3  4  2  0  0  0  0
  4  5  1  0  0  0  0
  5 20  1  0  0  0  0
  6  5  2  0  0  0  0
  7  2  1  0  0  0  0
  8  3  1  0  0  0  0
  9  4  1  0  0  0  0
 10 16  1  0  0  0  0
 11 10  2  0  0  0  0
 12 13  2  0  0  0  0
 12 11  1  0  0  0  0
 13 14  1  0  0  0  0
 14 15  2  0  0  0  0
 15 10  1  0  0  0  0
 17 12  1  0  0  0  0
 18 14  1  0  0  0  0
 19 26  1  0  0  0  0
 19 28  1  0  0  0  0
 20 19  2  0  0  0  0
 21 23  2  0  0  0  0
 21 20  1  0  0  0  0
 22 21  1  0  0  0  0
 23 25  1  0  0  0  0
 24 23  1  0  0  0  0
 25 26  2  0  0  0  0
 27 28  1  0  0  0  0
 28 29  2  0  0  0  0
 28 30  2  0  0  0  0
M  END
>  <minimizedAffinity>
-5.1827507

$$$$

 OpenBabel03262522333D

 30 32  0  0  0  0  0  0  0  0999 V2000
   36.0090   23.3210   31.6170 C   0  0  0  0  0  0  0  0  0  0  0  0
   35.2480   24.1340   30.8260 C   0  0  0  0  0  0  0  0  0  0  0  0
   35.2610   25.5140   30.8810 C   0  0  0  0  0  0  0  0  0  0  0  0
   36.0990   26.1390   31.7960 C   0  0  0  0  0  0  0  0  0  0  0  0
   36.8580   25.3160   32.5850 C   0  0  0  0  0  0  0  0  0  0  0  0
   36.7850   23.9940   32.4690 N   0  0  0  0  0  0  0  0  0  0  0  0
   34.5780   23.6750   30.0940 H   0  0  0  0  0  0  0  0  0  0  0  0
   34.6110   26.0720   30.2020 H   0  0  0  0  0  0  0  0  0  0  0  0
   36.0350   27.2120   31.7610 H   0  0  0  0  0  0  0  0  0  0  0  0
   36.9400   21.1070   30.8530 C   0  0  0  0  0  0  0  0  0  0  0  0
   35.9810   21.8770   31.5480 C   0  0  0  0  0  0  0  0  0  0  0  0
   34.9450   21.2050   32.2140 C   0  0  0  0  0  0  0  0  0  0  0  0
   34.9250   19.8390   32.1490 N   0  0  0  0  0  0  0  0  0  0  0  0
   35.8740   19.1450   31.4650 C   0  0  0  0  0  0  0  0  0  0  0  0
   36.8720   19.7650   30.8220 N   0  0  0  0  0  0  0  0  0  0  0  0
   37.6940   21.7110   30.3760 H   0  0  0  0  0  0  0  0  0  0  0  0
   34.1760   21.7080   32.7640 H   0  0  0  0  0  0  0  0  0  0  0  0
   35.8430   18.0620   31.4240 H   0  0  0  0  0  0  0  0  0  0  0  0
   39.0700   26.1680   33.2340 C   0  0  0  0  0  0  0  0  0  0  0  0
   37.7410   25.9560   33.5500 C   0  0  0  0  0  0  0  0  0  0  0  0
   37.3230   26.3750   34.7940 C   0  0  0  0  0  0  0  0  0  0  0  0
   36.3030   26.2470   35.1190 H   0  0  0  0  0  0  0  0  0  0  0  0
   38.1170   26.9840   35.7420 C   0  0  0  0  0  0  0  0  0  0  0  0
   37.7540   27.3010   36.7100 H   0  0  0  0  0  0  0  0  0  0  0  0
   39.4420   27.1990   35.4340 C   0  0  0  0  0  3  0  0  0  0  0  0
   39.8740   26.7870   34.1990 C   0  0  0  0  0  3  0  0  0  0  0  0
   39.2710   24.5190   31.3020 H   0  0  0  0  0  0  0  0  0  0  0  0
   39.7960   25.7120   31.7150 S   0  0  0  0  0  0  0  0  0  0  0  0
   39.4980   26.8020   30.7010 O   0  0  0  0  0  0  0  0  0  0  0  0
   41.3000   25.5980   31.8970 O   0  0  0  0  0  0  0  0  0  0  0  0
  1  6  1  0  0  0  0
  2  3  1  0  0  0  0
  2  1  2  0  0  0  0
  3  4  2  0  0  0  0
  4  5  1  0  0  0  0
  5 20  1  0  0  0  0
  6  5  2  0  0  0  0
  7  2  1  0  0  0  0
  8  3  1  0  0  0  0
  9  4  1  0  0  0  0
 10 11  1  0  0  0  0
 11  1  1  0  0  0  0
 11 12  2  0  0  0  0
 12 17  1  0  0  0  0
 13 12  1  0  0  0  0
 14 13  2  0  0  0  0
 15 10  2  0  0  0  0
 15 14  1  0  0  0  0
 16 10  1  0  0  0  0
 18 14  1  0  0  0  0
 19 20  2  0  0  0  0
 19 26  1  0  0  0  0
 20 21  1  0  0  0  0
 21 22  1  0  0  0  0
 21 23  2  0  0  0  0
 23 24  1  0  0  0  0
 25 23  1  0  0  0  0
 26 25  2  0  0  0  0
 27 28  1  0  0  0  0
 28 30  2  0  0  0  0
 28 19  1  0  0  0  0
 29 28  2  0  0  0  0
M  END
>  <minimizedAffinity>
-5.16921234

$$$$

 OpenBabel03262522333D

 30 32  0  0  0  0  0  0  0  0999 V2000
   36.6120   29.5860   31.6480 C   0  0  0  0  0  0  0  0  0  0  0  0
   37.0100   28.3230   31.9820 C   0  0  0  0  0  0  0  0  0  0  0  0
   36.7940   27.7340   33.2120 C   0  0  0  0  0  0  0  0  0  0  0  0
   36.1270   28.4570   34.1920 C   0  0  0  0  0  0  0  0  0  0  0  0
   35.7310   29.7230   33.8490 C   0  0  0  0  0  0  0  0  0  0  0  0
   35.9800   30.2160   32.6400 N   0  0  0  0  0  0  0  0  0  0  0  0
   37.5380   27.7250   31.2330 H   0  0  0  0  0  0  0  0  0  0  0  0
   37.1540   26.7150   33.3760 H   0  0  0  0  0  0  0  0  0  0  0  0
   36.0090   27.9120   35.1120 H   0  0  0  0  0  0  0  0  0  0  0  0
   36.5090   31.5220   30.0390 C   0  0  0  0  0  0  0  0  0  0  0  0
   36.8490   30.1890   30.3550 C   0  0  0  0  0  0  0  0  0  0  0  0
   37.4540   29.4040   29.3630 C   0  0  0  0  0  0  0  0  0  0  0  0
   37.6800   29.9800   28.1430 N   0  0  0  0  0  0  0  0  0  0  0  0
   37.3330   31.2700   27.8900 C   0  0  0  0  0  0  0  0  0  0  0  0
   36.7540   32.0380   28.8230 N   0  0  0  0  0  0  0  0  0  0  0  0
   36.0500   32.0430   30.8630 H   0  0  0  0  0  0  0  0  0  0  0  0
   37.7450   28.3840   29.5150 H   0  0  0  0  0  0  0  0  0  0  0  0
   37.5190   31.7110   26.9170 H   0  0  0  0  0  0  0  0  0  0  0  0
   33.6520   30.4500   34.9380 C   0  0  0  0  0  0  0  0  0  0  0  0
   35.0310   30.4950   34.8660 C   0  0  0  0  0  0  0  0  0  0  0  0
   35.6770   31.2900   35.7870 C   0  0  0  0  0  0  0  0  0  0  0  0
   36.7510   31.3810   35.8000 H   0  0  0  0  0  0  0  0  0  0  0  0
   35.0620   32.0390   36.7680 C   0  0  0  0  0  0  0  0  0  0  0  0
   35.6010   32.6540   37.4760 H   0  0  0  0  0  0  0  0  0  0  0  0
   33.6870   32.0000   36.8460 C   0  0  0  0  0  3  0  0  0  0  0  0
   33.0300   31.2120   35.9350 C   0  0  0  0  0  3  0  0  0  0  0  0
   33.2410   28.2930   33.6450 H   0  0  0  0  0  0  0  0  0  0  0  0
   32.6500   29.5060   33.8670 S   0  0  0  0  0  0  0  0  0  0  0  0
   31.2940   29.3220   34.5250 O   0  0  0  0  0  0  0  0  0  0  0  0
   32.4710   30.2590   32.5590 O   0  0  0  0  0  0  0  0  0  0  0  0
  1  2  2  0  0  0  0
  1  6  1  0  0  0  0
  2  3  1  0  0  0  0
  3  8  1  0  0  0  0
  3  4  2  0  0  0  0
  4  9  1  0  0  0  0
  5  4  1  0  0  0  0
  5 20  1  0  0  0  0
  6  5  2  0  0  0  0
  7  2  1  0  0  0  0
 10 11  1  0  0  0  0
 10 16  1  0  0  0  0
 11  1  1  0  0  0  0
 12 17  1  0  0  0  0
 12 11  2  0  0  0  0
 13 12  1  0  0  0  0
 14 13  2  0  0  0  0
 14 15  1  0  0  0  0
 15 10  2  0  0  0  0
 18 14  1  0  0  0  0
 19 26  1  0  0  0  0
 20 19  2  0  0  0  0
 20 21  1  0  0  0  0
 21 22  1  0  0  0  0
 21 23  2  0  0  0  0
 23 25  1  0  0  0  0
 23 24  1  0  0  0  0
 26 25  2  0  0  0  0
 27 28  1  0  0  0  0
 28 29  2  0  0  0  0
 28 19  1  0  0  0  0
 30 28  2  0  0  0  0
M  END
>  <minimizedAffinity>
-5.16645813

$$$$

 OpenBabel03262522333D

 30 32  0  0  0  0  0  0  0  0999 V2000
   37.1210   23.4280   31.2400 C   0  0  0  0  0  0  0  0  0  0  0  0
   38.1700   23.6610   30.3970 C   0  0  0  0  0  0  0  0  0  0  0  0
   38.7770   24.8900   30.2260 C   0  0  0  0  0  0  0  0  0  0  0  0
   38.3060   25.9760   30.9510 C   0  0  0  0  0  0  0  0  0  0  0  0
   37.2540   25.7330   31.7950 C   0  0  0  0  0  0  0  0  0  0  0  0
   36.7260   24.5180   31.9010 N   0  0  0  0  0  0  0  0  0  0  0  0
   38.5660   22.8280   29.8100 H   0  0  0  0  0  0  0  0  0  0  0  0
   39.6110   24.9690   29.5230 H   0  0  0  0  0  0  0  0  0  0  0  0
   38.8450   26.8850   30.7470 H   0  0  0  0  0  0  0  0  0  0  0  0
   35.2970   21.9320   32.1250 C   0  0  0  0  0  0  0  0  0  0  0  0
   36.4940   22.1350   31.4060 C   0  0  0  0  0  0  0  0  0  0  0  0
   37.1110   21.0230   30.8140 C   0  0  0  0  0  0  0  0  0  0  0  0
   36.5120   19.8030   30.9700 N   0  0  0  0  0  0  0  0  0  0  0  0
   35.3580   19.6620   31.6740 C   0  0  0  0  0  0  0  0  0  0  0  0
   34.7510   20.7100   32.2470 N   0  0  0  0  0  0  0  0  0  0  0  0
   34.9000   22.8440   32.5410 H   0  0  0  0  0  0  0  0  0  0  0  0
   38.0210   21.0840   30.2510 H   0  0  0  0  0  0  0  0  0  0  0  0
   34.8960   18.6880   31.7870 H   0  0  0  0  0  0  0  0  0  0  0  0
   37.2150   27.0890   33.8440 C   0  0  0  0  0  0  0  0  0  0  0  0
   36.7490   26.8620   32.5630 C   0  0  0  0  0  0  0  0  0  0  0  0
   35.8070   27.7430   32.0780 C   0  0  0  0  0  0  0  0  0  0  0  0
   35.3920   27.6370   31.0890 H   0  0  0  0  0  0  0  0  0  0  0  0
   35.2960   28.8250   32.7630 C   0  0  0  0  0  0  0  0  0  0  0  0
   34.5560   29.4970   32.3500 H   0  0  0  0  0  0  0  0  0  0  0  0
   35.7560   29.0580   34.0400 C   0  0  0  0  0  3  0  0  0  0  0  0
   36.6940   28.1890   34.5370 C   0  0  0  0  0  3  0  0  0  0  0  0
   39.0660   25.3430   33.7050 H   0  0  0  0  0  0  0  0  0  0  0  0
   38.4050   26.0930   34.6390 S   0  0  0  0  0  0  0  0  0  0  0  0
   39.3740   27.0040   35.3710 O   0  0  0  0  0  0  0  0  0  0  0  0
   37.7090   25.1940   35.6470 O   0  0  0  0  0  0  0  0  0  0  0  0
  1 11  1  0  0  0  0
  1  6  1  0  0  0  0
  2  1  2  0  0  0  0
  3  2  1  0  0  0  0
  3  4  2  0  0  0  0
  4  5  1  0  0  0  0
  5  6  2  0  0  0  0
  5 20  1  0  0  0  0
  7  2  1  0  0  0  0
  8  3  1  0  0  0  0
  9  4  1  0  0  0  0
 10 15  1  0  0  0  0
 10 16  1  0  0  0  0
 11 10  2  0  0  0  0
 12 13  2  0  0  0  0
 12 11  1  0  0  0  0
 13 14  1  0  0  0  0
 14 18  1  0  0  0  0
 14 15  2  0  0  0  0
 17 12  1  0  0  0  0
 19 26  1  0  0  0  0
 19 28  1  0  0  0  0
 20 19  2  0  0  0  0
 21 20  1  0  0  0  0
 21 23  2  0  0  0  0
 22 21  1  0  0  0  0
 23 25  1  0  0  0  0
 24 23  1  0  0  0  0
 25 26  2  0  0  0  0
 27 28  1  0  0  0  0
 28 29  2  0  0  0  0
 28 30  2  0  0  0  0
M  END
>  <minimizedAffinity>
-5.01109505

$$$$

 OpenBabel03262522333D

 30 32  0  0  0  0  0  0  0  0999 V2000
   37.3890   24.5580   32.8160 C   0  0  0  0  0  0  0  0  0  0  0  0
   36.7800   23.4850   32.2290 C   0  0  0  0  0  0  0  0  0  0  0  0
   37.0220   22.1670   32.5640 C   0  0  0  0  0  0  0  0  0  0  0  0
   37.9430   21.8900   33.5660 C   0  0  0  0  0  0  0  0  0  0  0  0
   38.5490   22.9710   34.1500 C   0  0  0  0  0  0  0  0  0  0  0  0
   38.2600   24.2110   33.7670 N   0  0  0  0  0  0  0  0  0  0  0  0
   36.0490   23.6680   31.4360 H   0  0  0  0  0  0  0  0  0  0  0  0
   36.4790   21.3830   32.0310 H   0  0  0  0  0  0  0  0  0  0  0  0
   38.0600   20.8370   33.7510 H   0  0  0  0  0  0  0  0  0  0  0  0
   36.9730   26.3720   31.1190 C   0  0  0  0  0  0  0  0  0  0  0  0
   37.1260   25.9320   32.4510 C   0  0  0  0  0  0  0  0  0  0  0  0
   37.0130   26.8770   33.4820 C   0  0  0  0  0  0  0  0  0  0  0  0
   36.7610   28.1750   33.1310 N   0  0  0  0  0  0  0  0  0  0  0  0
   36.6220   28.5480   31.8310 C   0  0  0  0  0  0  0  0  0  0  0  0
   36.7260   27.6620   30.8310 N   0  0  0  0  0  0  0  0  0  0  0  0
   37.0770   25.5760   30.4010 H   0  0  0  0  0  0  0  0  0  0  0  0
   37.1150   26.6320   34.5200 H   0  0  0  0  0  0  0  0  0  0  0  0
   36.4220   29.5810   31.5710 H   0  0  0  0  0  0  0  0  0  0  0  0
   39.1790   22.9080   36.5240 C   0  0  0  0  0  0  0  0  0  0  0  0
   39.5180   22.6970   35.2010 C   0  0  0  0  0  0  0  0  0  0  0  0
   40.7890   22.2280   34.9520 C   0  0  0  0  0  0  0  0  0  0  0  0
   41.1340   22.0370   33.9480 H   0  0  0  0  0  0  0  0  0  0  0  0
   41.7430   21.9530   35.9090 C   0  0  0  0  0  0  0  0  0  0  0  0
   42.7330   21.5850   35.6770 H   0  0  0  0  0  0  0  0  0  0  0  0
   41.4120   22.1610   37.2300 C   0  0  0  0  0  3  0  0  0  0  0  0
   40.1500   22.6280   37.4940 C   0  0  0  0  0  3  0  0  0  0  0  0
   37.2070   24.4900   36.2060 H   0  0  0  0  0  0  0  0  0  0  0  0
   37.6240   23.4970   37.0500 S   0  0  0  0  0  0  0  0  0  0  0  0
   36.6450   22.3370   37.0280 O   0  0  0  0  0  0  0  0  0  0  0  0
   37.7440   24.0220   38.4710 O   0  0  0  0  0  0  0  0  0  0  0  0
  1  6  1  0  0  0  0
  2  3  1  0  0  0  0
  2  1  2  0  0  0  0
  3  4  2  0  0  0  0
  4  9  1  0  0  0  0
  4  5  1  0  0  0  0
  5 20  1  0  0  0  0
  6  5  2  0  0  0  0
  7  2  1  0  0  0  0
  8  3  1  0  0  0  0
 10 11  1  0  0  0  0
 11  1  1  0  0  0  0
 11 12  2  0  0  0  0
 12 17  1  0  0  0  0
 13 12  1  0  0  0  0
 14 13  2  0  0  0  0
 15 10  2  0  0  0  0
 15 14  1  0  0  0  0
 16 10  1  0  0  0  0
 18 14  1  0  0  0  0
 19 28  1  0  0  0  0
 19 26  1  0  0  0  0
 20 19  2  0  0  0  0
 21 20  1  0  0  0  0
 21 23  2  0  0  0  0
 22 21  1  0  0  0  0
 23 25  1  0  0  0  0
 24 23  1  0  0  0  0
 25 26  2  0  0  0  0
 27 28  1  0  0  0  0
 28 30  2  0  0  0  0
 29 28  2  0  0  0  0
M  END
>  <minimizedAffinity>
-4.96114874

$$$$
