
 OpenBabel03272509213D

 49 53  0  0  0  0  0  0  0  0999 V2000
   40.1420   31.0420   44.0720 C   0  0  0  0  0  0  0  0  0  0  0  0
   39.5840   31.8980   44.9980 C   0  0  0  0  0  0  0  0  0  0  0  0
   38.4910   32.6810   44.6130 C   0  0  0  0  0  0  0  0  0  0  0  0
   37.9670   32.6060   43.3170 C   0  0  0  0  0  0  0  0  0  0  0  0
   36.9600   33.2050   42.6620 N   0  0  0  0  0  0  0  0  0  0  0  0
   36.8950   32.7460   41.3940 C   0  0  0  0  0  0  0  0  0  0  0  0
   37.8930   31.8280   41.2510 N   0  0  0  0  0  0  0  0  0  0  0  0
   38.5580   31.7330   42.4220 C   0  0  0  0  0  0  0  0  0  0  0  0
   39.6420   30.9530   42.7990 C   0  0  0  0  0  0  0  0  0  0  0  0
   40.9680   30.4880   44.4600 H   0  0  0  0  0  0  0  0  0  0  0  0
   37.9520   33.3970   45.2310 H   0  0  0  0  0  0  0  0  0  0  0  0
   36.3280   33.9210   43.0840 H   0  0  0  0  0  0  0  0  0  0  0  0
   36.1720   33.0530   40.6220 H   0  0  0  0  0  0  0  0  0  0  0  0
   39.9620   28.6900   41.7670 C   0  0  0  0  0  0  0  0  0  0  0  0
   40.2730   30.0300   41.8630 C   0  0  0  0  0  0  0  0  0  0  0  0
   41.2400   30.5730   41.0390 C   0  0  0  0  0  0  0  0  0  0  0  0
   41.5450   31.6240   41.0510 H   0  0  0  0  0  0  0  0  0  0  0  0
   41.8610   29.7290   40.1400 C   0  0  0  0  0  0  0  0  0  0  0  0
   42.6310   30.1410   39.4760 H   0  0  0  0  0  0  0  0  0  0  0  0
   41.5910   28.3650   39.9930 C   0  0  0  0  0  0  0  0  0  0  0  0
   40.6010   27.8930   40.8630 C   0  0  0  0  0  0  0  0  0  0  0  0
   38.6610   26.6870   42.8070 H   0  0  0  0  0  0  0  0  0  0  0  0
   38.7280   28.0470   42.8340 S   0  0  0  0  0  0  0  0  0  0  0  0
   38.8780   28.5620   44.2200 O   0  0  0  0  0  0  0  0  0  0  0  0
   37.4100   28.5650   42.2770 O   0  0  0  0  0  0  0  0  0  0  0  0
   39.9190   32.1400   46.3010 O   0  0  0  0  0  0  0  0  0  0  0  0
   38.1010   31.3720   47.7040 C   0  0  0  0  0  0  0  0  0  0  0  0
   37.2250   31.4580   48.7820 C   0  0  0  0  0  0  0  0  0  0  0  0
   37.3990   32.5900   49.5800 C   0  0  0  0  0  0  0  0  0  0  0  0
   38.3900   33.5540   49.2950 C   0  0  0  0  0  0  0  0  0  0  0  0
   39.2260   33.3700   48.1760 C   0  0  0  0  0  0  0  0  0  0  0  0
   39.0650   32.2460   47.3700 C   0  0  0  0  0  0  0  0  0  0  0  0
   36.7590   32.7330   50.4370 H   0  0  0  0  0  0  0  0  0  0  0  0
   38.5150   34.4220   49.9170 H   0  0  0  0  0  0  0  0  0  0  0  0
   39.9850   34.1050   47.9540 H   0  0  0  0  0  0  0  0  0  0  0  0
   35.1130   30.3500   48.2350 C   0  0  0  0  0  0  0  0  0  0  0  0
   36.2210   30.4830   49.0710 C   0  0  0  0  0  0  0  0  0  0  0  0
   36.3040   29.6320   50.1850 C   0  0  0  0  0  0  0  0  0  0  0  0
   35.3050   28.7370   50.3820 N   0  0  0  0  0  0  0  0  0  0  0  0
   34.2420   28.6410   49.5410 C   0  0  0  0  0  0  0  0  0  0  0  0
   34.1490   29.4430   48.4760 N   0  0  0  0  0  0  0  0  0  0  0  0
   34.9940   30.9840   47.3520 H   0  0  0  0  0  0  0  0  0  0  0  0
   33.5460   27.8720   49.8540 H   0  0  0  0  0  0  0  0  0  0  0  0
   37.4620   29.7290   51.1110 C   0  0  0  0  0  0  0  0  0  0  0  0
   37.7930   28.6800   51.2820 H   0  0  0  0  0  0  0  0  0  0  0  0
   38.3000   30.2050   50.5490 H   0  0  0  0  0  0  0  0  0  0  0  0
   37.2340   30.2560   52.0540 H   0  0  0  0  0  0  0  0  0  0  0  0
   38.0020   30.2670   46.8440 O   0  0  0  0  0  0  0  0  0  0  0  0
   37.0770   29.9170   46.6040 H   0  0  0  0  0  0  0  0  0  0  0  0
  1 10  1  0  0  0  0
  1  2  1  0  0  0  0
  2 26  1  0  0  0  0
  3  2  2  0  0  0  0
  3 11  1  0  0  0  0
  4  3  1  0  0  0  0
  5 12  1  0  0  0  0
  5  4  1  0  0  0  0
  6  5  1  0  0  0  0
  7  6  2  0  0  0  0
  7  8  1  0  0  0  0
  8  9  1  0  0  0  0
  8  4  2  0  0  0  0
  9  1  2  0  0  0  0
 13  6  1  0  0  0  0
 14 15  1  0  0  0  0
 14 23  1  0  0  0  0
 15  9  1  0  0  0  0
 16 17  1  0  0  0  0
 16 15  2  0  0  0  0
 18 16  1  0  0  0  0
 19 18  1  0  0  0  0
 20 18  2  0  0  0  0
 20 21  1  0  0  0  0
 21 14  2  0  0  0  0
 22 23  1  0  0  0  0
 23 24  2  0  0  0  0
 25 23  2  0  0  0  0
 26 32  1  0  0  0  0
 27 28  1  0  0  0  0
 28 37  1  0  0  0  0
 28 29  2  0  0  0  0
 29 33  1  0  0  0  0
 30 29  1  0  0  0  0
 30 34  1  0  0  0  0
 31 30  2  0  0  0  0
 32 27  2  0  0  0  0
 32 31  1  0  0  0  0
 35 31  1  0  0  0  0
 36 41  2  0  0  0  0
 36 37  1  0  0  0  0
 37 38  2  0  0  0  0
 38 39  1  0  0  0  0
 38 44  1  0  0  0  0
 40 43  1  0  0  0  0
 40 39  2  0  0  0  0
 41 40  1  0  0  0  0
 42 36  1  0  0  0  0
 44 45  1  0  0  0  0
 44 47  1  0  0  0  0
 46 44  1  0  0  0  0
 48 27  1  0  0  0  0
 49 48  1  0  0  0  0
M  END
>  <minimizedAffinity>
-7.45021629

>  <minimizedRMSD>
0.648110509

$$$$
