
 OpenBabel03272501333D

 30 32  0  0  1  0  0  0  0  0999 V2000
   37.2990   26.6460   34.8060 C   0  0  2  0  0  0  0  0  0  0  0  0
   38.4640   27.4170   35.5320 C   0  0  0  0  0  0  0  0  0  0  0  0
   38.0970   25.9750   35.8000 C   0  0  2  0  0  0  0  0  0  0  0  0
   36.3420   27.1930   35.0250 H   0  0  0  0  0  0  0  0  0  0  0  0
   39.3390   27.6770   34.9530 H   0  0  0  0  0  0  0  0  0  0  0  0
   38.1080   28.2190   36.1910 H   0  0  0  0  0  0  0  0  0  0  0  0
   37.6090   25.9050   36.8430 H   0  0  0  0  0  0  0  0  0  0  0  0
   39.0870   23.7390   36.2470 C   0  0  0  0  0  0  0  0  0  0  0  0
   39.1670   25.0010   35.6410 C   0  0  0  0  0  0  0  0  0  0  0  0
   40.3460   25.1870   34.9470 C   0  0  0  0  0  0  0  0  0  0  0  0
   40.5470   26.1080   34.4590 H   0  0  0  0  0  0  0  0  0  0  0  0
   41.3580   24.2550   34.8370 C   0  0  0  0  0  0  0  0  0  0  0  0
   42.2650   24.4420   34.2820 H   0  0  0  0  0  0  0  0  0  0  0  0
   41.1660   23.0470   35.4750 C   0  0  0  0  0  3  0  0  0  0  0  0
   40.0350   22.7390   36.2000 C   0  0  0  0  0  3  0  0  0  0  0  0
   36.7540   24.4650   37.1070 H   0  0  0  0  0  0  0  0  0  0  0  0
   37.6100   23.4030   37.1620 S   0  0  0  0  0  0  0  0  0  0  0  0
   37.9440   23.1900   38.6220 O   0  0  0  0  0  0  0  0  0  0  0  0
   36.8780   22.2240   36.6010 O   0  0  0  0  0  0  0  0  0  0  0  0
   37.5330   26.5680   33.3450 C   0  0  0  0  0  0  0  0  0  0  0  0
   38.2470   27.4830   32.8570 O   0  0  0  0  0  0  0  0  0  0  0  0
   35.3060   24.7580   30.9570 C   0  0  0  0  0  0  0  0  0  0  0  0
   35.9180   25.7710   31.6820 C   0  0  0  0  0  0  0  0  0  0  0  0
   36.9460   25.4940   32.5880 C   0  0  0  0  0  0  0  0  0  0  0  0
   37.3000   24.2180   32.7120 N   0  0  0  0  0  0  0  0  0  0  0  0
   36.6940   23.2360   31.9960 C   0  0  0  0  0  0  0  0  0  0  0  0
   35.7110   23.4810   31.1260 N   0  0  0  0  0  0  0  0  0  0  0  0
   34.5260   25.1140   30.2910 H   0  0  0  0  0  0  0  0  0  0  0  0
   35.6270   26.8140   31.5790 H   0  0  0  0  0  0  0  0  0  0  0  0
   37.0120   22.2150   32.1270 H   0  0  0  0  0  0  0  0  0  0  0  0
  1  4  1  1  0  0  0
  1  2  1  0  0  0  0
  1  3  1  0  0  0  0
  2  3  1  0  0  0  0
  2  6  1  0  0  0  0
  3  7  1  1  0  0  0
  5  2  1  0  0  0  0
  8 17  1  0  0  0  0
  9  3  1  0  0  0  0
  9  8  2  0  0  0  0
 10  9  1  0  0  0  0
 11 10  1  0  0  0  0
 12 10  2  0  0  0  0
 12 14  1  0  0  0  0
 13 12  1  0  0  0  0
 14 15  2  0  0  0  0
 15  8  1  0  0  0  0
 16 17  1  0  0  0  0
 17 18  2  0  0  0  0
 19 17  2  0  0  0  0
 20  1  1  0  0  0  0
 21 20  2  0  0  0  0
 22 27  2  0  0  0  0
 22 23  1  0  0  0  0
 23 24  2  0  0  0  0
 24 25  1  0  0  0  0
 24 20  1  0  0  0  0
 26 30  1  0  0  0  0
 26 25  2  0  0  0  0
 27 26  1  0  0  0  0
 28 22  1  0  0  0  0
 29 23  1  0  0  0  0
M  END
>  <minimizedAffinity>
-5.18140459

$$$$

 OpenBabel03272501333D

 30 32  0  0  1  0  0  0  0  0999 V2000
   37.3320   26.6580   34.8100 C   0  0  2  0  0  0  0  0  0  0  0  0
   38.5010   27.4170   35.5430 C   0  0  0  0  0  0  0  0  0  0  0  0
   38.1200   25.9780   35.8050 C   0  0  2  0  0  0  0  0  0  0  0  0
   36.3790   27.2130   35.0270 H   0  0  0  0  0  0  0  0  0  0  0  0
   39.3800   27.6710   34.9680 H   0  0  0  0  0  0  0  0  0  0  0  0
   38.1480   28.2200   36.2030 H   0  0  0  0  0  0  0  0  0  0  0  0
   37.6290   25.9080   36.8460 H   0  0  0  0  0  0  0  0  0  0  0  0
   39.0990   23.7380   36.2630 C   0  0  0  0  0  0  0  0  0  0  0  0
   39.1830   24.9960   35.6470 C   0  0  0  0  0  0  0  0  0  0  0  0
   40.3590   25.1680   34.9440 C   0  0  0  0  0  0  0  0  0  0  0  0
   40.5620   26.0840   34.4480 H   0  0  0  0  0  0  0  0  0  0  0  0
   41.3640   24.2290   34.8350 C   0  0  0  0  0  0  0  0  0  0  0  0
   42.2690   24.4060   34.2730 H   0  0  0  0  0  0  0  0  0  0  0  0
   41.1680   23.0270   35.4830 C   0  0  0  0  0  3  0  0  0  0  0  0
   40.0400   22.7320   36.2190 C   0  0  0  0  0  3  0  0  0  0  0  0
   36.7850   24.4940   37.1490 H   0  0  0  0  0  0  0  0  0  0  0  0
   37.6250   23.4200   37.1900 S   0  0  0  0  0  0  0  0  0  0  0  0
   37.9690   23.1940   38.6460 O   0  0  0  0  0  0  0  0  0  0  0  0
   36.8710   22.2550   36.6300 O   0  0  0  0  0  0  0  0  0  0  0  0
   37.5700   26.5820   33.3500 C   0  0  0  0  0  0  0  0  0  0  0  0
   38.3630   27.4410   32.8820 O   0  0  0  0  0  0  0  0  0  0  0  0
   36.7400   23.2540   31.8780 C   0  0  0  0  0  0  0  0  0  0  0  0
   37.3410   24.2490   32.6360 C   0  0  0  0  0  0  0  0  0  0  0  0
   36.9010   25.5740   32.5730 C   0  0  0  0  0  0  0  0  0  0  0  0
   35.8830   25.8220   31.7530 N   0  0  0  0  0  0  0  0  0  0  0  0
   35.3030   24.8400   31.0170 C   0  0  0  0  0  0  0  0  0  0  0  0
   35.7100   23.5690   31.0640 N   0  0  0  0  0  0  0  0  0  0  0  0
   37.1810   22.2720   32.0250 H   0  0  0  0  0  0  0  0  0  0  0  0
   38.1730   24.0430   33.3060 H   0  0  0  0  0  0  0  0  0  0  0  0
   34.4810   25.0850   30.3650 H   0  0  0  0  0  0  0  0  0  0  0  0
  1  4  1  1  0  0  0
  1  2  1  0  0  0  0
  1  3  1  0  0  0  0
  2  3  1  0  0  0  0
  2  6  1  0  0  0  0
  3  7  1  1  0  0  0
  5  2  1  0  0  0  0
  8 17  1  0  0  0  0
  9  3  1  0  0  0  0
  9  8  2  0  0  0  0
 10  9  1  0  0  0  0
 11 10  1  0  0  0  0
 12 10  2  0  0  0  0
 12 14  1  0  0  0  0
 13 12  1  0  0  0  0
 14 15  2  0  0  0  0
 15  8  1  0  0  0  0
 16 17  1  0  0  0  0
 17 18  2  0  0  0  0
 19 17  2  0  0  0  0
 20  1  1  0  0  0  0
 21 20  2  0  0  0  0
 22 28  1  0  0  0  0
 22 23  1  0  0  0  0
 23 29  1  0  0  0  0
 24 23  2  0  0  0  0
 24 20  1  0  0  0  0
 25 24  1  0  0  0  0
 26 27  1  0  0  0  0
 26 25  2  0  0  0  0
 27 22  2  0  0  0  0
 30 26  1  0  0  0  0
M  END
>  <minimizedAffinity>
-5.1760006

$$$$

 OpenBabel03272501333D

 30 32  0  0  1  0  0  0  0  0999 V2000
   39.6770   25.4940   34.1180 C   0  0  2  0  0  0  0  0  0  0  0  0
   39.8240   26.7160   35.1000 C   0  0  0  0  0  0  0  0  0  0  0  0
   39.3480   26.8230   33.6690 C   0  0  2  0  0  0  0  0  0  0  0  0
   40.6910   25.0220   34.0100 H   0  0  0  0  0  0  0  0  0  0  0  0
   39.1350   26.7870   35.9300 H   0  0  0  0  0  0  0  0  0  0  0  0
   40.8670   26.9370   35.3630 H   0  0  0  0  0  0  0  0  0  0  0  0
   40.1680   27.3370   33.0430 H   0  0  0  0  0  0  0  0  0  0  0  0
   37.5490   27.6800   32.1820 C   0  0  0  0  0  0  0  0  0  0  0  0
   38.0490   27.4500   33.4720 C   0  0  0  0  0  0  0  0  0  0  0  0
   37.2020   27.9070   34.4610 C   0  0  0  0  0  0  0  0  0  0  0  0
   37.4690   27.8170   35.4850 H   0  0  0  0  0  0  0  0  0  0  0  0
   35.9880   28.5250   34.2450 C   0  0  0  0  0  0  0  0  0  0  0  0
   35.3550   28.8670   35.0500 H   0  0  0  0  0  0  0  0  0  0  0  0
   35.6000   28.6950   32.9320 C   0  0  0  0  0  3  0  0  0  0  0  0
   36.3550   28.2850   31.8540 C   0  0  0  0  0  3  0  0  0  0  0  0
   39.8880   27.2490   31.1530 H   0  0  0  0  0  0  0  0  0  0  0  0
   38.5640   27.1280   30.8410 S   0  0  0  0  0  0  0  0  0  0  0  0
   38.3250   27.9930   29.6220 O   0  0  0  0  0  0  0  0  0  0  0  0
   38.3200   25.6840   30.5310 O   0  0  0  0  0  0  0  0  0  0  0  0
   38.6940   24.5100   34.6270 C   0  0  0  0  0  0  0  0  0  0  0  0
   37.8110   24.1460   33.8060 O   0  0  0  0  0  0  0  0  0  0  0  0
   37.9080   24.0360   38.2450 C   0  0  0  0  0  0  0  0  0  0  0  0
   37.8300   24.4400   36.9190 C   0  0  0  0  0  0  0  0  0  0  0  0
   38.7920   24.0450   35.9850 C   0  0  0  0  0  0  0  0  0  0  0  0
   39.7730   23.2680   36.4340 N   0  0  0  0  0  0  0  0  0  0  0  0
   39.8380   22.8800   37.7340 C   0  0  0  0  0  0  0  0  0  0  0  0
   38.9300   23.2470   38.6420 N   0  0  0  0  0  0  0  0  0  0  0  0
   37.0980   24.4150   38.8610 H   0  0  0  0  0  0  0  0  0  0  0  0
   37.0270   25.0750   36.5540 H   0  0  0  0  0  0  0  0  0  0  0  0
   40.6510   22.2490   38.0560 H   0  0  0  0  0  0  0  0  0  0  0  0
  1  4  1  6  0  0  0
  1 20  1  0  0  0  0
  1  2  1  0  0  0  0
  2  6  1  0  0  0  0
  2  5  1  0  0  0  0
  3  7  1  6  0  0  0
  3  1  1  0  0  0  0
  3  2  1  0  0  0  0
  8  9  1  0  0  0  0
  9  3  1  0  0  0  0
  9 10  2  0  0  0  0
 10 11  1  0  0  0  0
 12 10  1  0  0  0  0
 12 13  1  0  0  0  0
 14 12  2  0  0  0  0
 15  8  2  0  0  0  0
 15 14  1  0  0  0  0
 17 16  1  0  0  0  0
 17  8  1  0  0  0  0
 18 17  2  0  0  0  0
 19 17  2  0  0  0  0
 20 24  1  0  0  0  0
 21 20  2  0  0  0  0
 22 27  1  0  0  0  0
 22 28  1  0  0  0  0
 23 22  2  0  0  0  0
 24 25  2  0  0  0  0
 24 23  1  0  0  0  0
 25 26  1  0  0  0  0
 26 30  1  0  0  0  0
 26 27  2  0  0  0  0
 29 23  1  0  0  0  0
M  END
>  <minimizedAffinity>
-5.02331877

$$$$

 OpenBabel03272501333D

 30 32  0  0  1  0  0  0  0  0999 V2000
   37.1740   26.6600   35.0370 C   0  0  2  0  0  0  0  0  0  0  0  0
   38.4320   27.5170   35.4400 C   0  0  0  0  0  0  0  0  0  0  0  0
   38.1640   26.1130   35.9290 C   0  0  2  0  0  0  0  0  0  0  0  0
   36.2600   27.2210   35.3740 H   0  0  0  0  0  0  0  0  0  0  0  0
   39.1740   27.7170   34.6800 H   0  0  0  0  0  0  0  0  0  0  0  0
   38.1820   28.3860   36.0630 H   0  0  0  0  0  0  0  0  0  0  0  0
   37.8840   26.1560   37.0460 H   0  0  0  0  0  0  0  0  0  0  0  0
   39.1450   23.8470   36.2270 C   0  0  0  0  0  0  0  0  0  0  0  0
   39.2140   25.1350   35.6770 C   0  0  0  0  0  0  0  0  0  0  0  0
   40.3620   25.3400   34.9390 C   0  0  0  0  0  0  0  0  0  0  0  0
   40.5520   26.2810   34.4850 H   0  0  0  0  0  0  0  0  0  0  0  0
   41.3560   24.4040   34.7390 C   0  0  0  0  0  0  0  0  0  0  0  0
   42.2400   24.6070   34.1530 H   0  0  0  0  0  0  0  0  0  0  0  0
   41.1770   23.1700   35.3290 C   0  0  0  0  0  3  0  0  0  0  0  0
   40.0770   22.8410   36.0910 C   0  0  0  0  0  3  0  0  0  0  0  0
   36.8550   24.5520   37.2120 H   0  0  0  0  0  0  0  0  0  0  0  0
   37.7070   23.4850   37.1920 S   0  0  0  0  0  0  0  0  0  0  0  0
   38.1020   23.2190   38.6280 O   0  0  0  0  0  0  0  0  0  0  0  0
   36.9450   22.3300   36.6220 O   0  0  0  0  0  0  0  0  0  0  0  0
   37.1310   26.4190   33.5770 C   0  0  0  0  0  0  0  0  0  0  0  0
   37.2490   25.2180   33.2180 O   0  0  0  0  0  0  0  0  0  0  0  0
   37.7140   28.7240   30.6980 C   0  0  0  0  0  0  0  0  0  0  0  0
   37.8170   27.6490   31.5700 C   0  0  0  0  0  0  0  0  0  0  0  0
   36.9720   27.5310   32.6780 C   0  0  0  0  0  0  0  0  0  0  0  0
   36.0740   28.4980   32.8440 N   0  0  0  0  0  0  0  0  0  0  0  0
   35.9830   29.5440   31.9840 C   0  0  0  0  0  0  0  0  0  0  0  0
   36.7800   29.6740   30.9200 N   0  0  0  0  0  0  0  0  0  0  0  0
   38.4300   28.6890   29.8820 H   0  0  0  0  0  0  0  0  0  0  0  0
   38.5520   26.8600   31.4320 H   0  0  0  0  0  0  0  0  0  0  0  0
   35.2400   30.3050   32.1560 H   0  0  0  0  0  0  0  0  0  0  0  0
  1  4  1  1  0  0  0
  1  2  1  0  0  0  0
  1  3  1  0  0  0  0
  2  3  1  0  0  0  0
  2  6  1  0  0  0  0
  3  7  1  1  0  0  0
  5  2  1  0  0  0  0
  8 17  1  0  0  0  0
  9  3  1  0  0  0  0
  9  8  2  0  0  0  0
 10  9  1  0  0  0  0
 11 10  1  0  0  0  0
 12 10  2  0  0  0  0
 12 14  1  0  0  0  0
 13 12  1  0  0  0  0
 14 15  2  0  0  0  0
 15  8  1  0  0  0  0
 17 16  1  0  0  0  0
 17 18  2  0  0  0  0
 19 17  2  0  0  0  0
 20  1  1  0  0  0  0
 21 20  2  0  0  0  0
 22 27  2  0  0  0  0
 22 23  1  0  0  0  0
 23 24  2  0  0  0  0
 24 25  1  0  0  0  0
 24 20  1  0  0  0  0
 26 30  1  0  0  0  0
 26 25  2  0  0  0  0
 27 26  1  0  0  0  0
 28 22  1  0  0  0  0
 29 23  1  0  0  0  0
M  END
>  <minimizedAffinity>
-4.93223047

$$$$

 OpenBabel03272501333D

 30 32  0  0  1  0  0  0  0  0999 V2000
   39.3120   24.8650   33.5520 C   0  0  2  0  0  0  0  0  0  0  0  0
   37.8830   24.2110   33.6470 C   0  0  0  0  0  0  0  0  0  0  0  0
   39.0980   23.7230   34.4020 C   0  0  2  0  0  0  0  0  0  0  0  0
   39.6420   24.8030   32.4790 H   0  0  0  0  0  0  0  0  0  0  0  0
   37.1010   24.7710   34.1400 H   0  0  0  0  0  0  0  0  0  0  0  0
   37.5670   23.7230   32.7160 H   0  0  0  0  0  0  0  0  0  0  0  0
   39.4340   22.7160   33.9530 H   0  0  0  0  0  0  0  0  0  0  0  0
   39.9490   23.0260   36.6320 C   0  0  0  0  0  0  0  0  0  0  0  0
   38.9630   23.6450   35.8500 C   0  0  0  0  0  0  0  0  0  0  0  0
   37.9010   24.1090   36.6000 C   0  0  0  0  0  0  0  0  0  0  0  0
   37.0730   24.5790   36.1300 H   0  0  0  0  0  0  0  0  0  0  0  0
   37.7860   23.9960   37.9700 C   0  0  0  0  0  0  0  0  0  0  0  0
   36.9350   24.3740   38.5170 H   0  0  0  0  0  0  0  0  0  0  0  0
   38.8200   23.3680   38.6330 C   0  0  0  0  0  3  0  0  0  0  0  0
   39.9340   22.8600   38.0000 C   0  0  0  0  0  3  0  0  0  0  0  0
   41.0120   22.0090   34.5000 H   0  0  0  0  0  0  0  0  0  0  0  0
   41.3560   22.3970   35.7620 S   0  0  0  0  0  0  0  0  0  0  0  0
   41.8890   21.1660   36.4630 O   0  0  0  0  0  0  0  0  0  0  0  0
   42.4210   23.4390   35.6230 O   0  0  0  0  0  0  0  0  0  0  0  0
   39.2920   26.2730   34.0110 C   0  0  0  0  0  0  0  0  0  0  0  0
   40.2360   26.6110   34.7720 O   0  0  0  0  0  0  0  0  0  0  0  0
   36.2260   28.3980   34.1380 C   0  0  0  0  0  0  0  0  0  0  0  0
   37.2830   27.5810   34.5170 C   0  0  0  0  0  0  0  0  0  0  0  0
   38.2290   27.1440   33.5860 C   0  0  0  0  0  0  0  0  0  0  0  0
   38.0610   27.5520   32.3310 N   0  0  0  0  0  0  0  0  0  0  0  0
   37.0230   28.3510   31.9740 C   0  0  0  0  0  0  0  0  0  0  0  0
   36.1080   28.7790   32.8480 N   0  0  0  0  0  0  0  0  0  0  0  0
   35.5670   28.6620   34.9600 H   0  0  0  0  0  0  0  0  0  0  0  0
   37.4180   27.2490   35.5430 H   0  0  0  0  0  0  0  0  0  0  0  0
   36.9240   28.6590   30.9460 H   0  0  0  0  0  0  0  0  0  0  0  0
  1  4  1  6  0  0  0
  1  2  1  0  0  0  0
  1 20  1  0  0  0  0
  1  3  1  0  0  0  0
  2  5  1  0  0  0  0
  2  3  1  0  0  0  0
  3  7  1  6  0  0  0
  3  9  1  0  0  0  0
  6  2  1  0  0  0  0
  8 15  1  0  0  0  0
  9 10  1  0  0  0  0
  9  8  2  0  0  0  0
 10 12  2  0  0  0  0
 11 10  1  0  0  0  0
 12 13  1  0  0  0  0
 12 14  1  0  0  0  0
 15 14  2  0  0  0  0
 16 17  1  0  0  0  0
 17 18  2  0  0  0  0
 17  8  1  0  0  0  0
 19 17  2  0  0  0  0
 20 21  2  0  0  0  0
 22 23  1  0  0  0  0
 22 28  1  0  0  0  0
 23 29  1  0  0  0  0
 24 20  1  0  0  0  0
 24 23  2  0  0  0  0
 25 24  1  0  0  0  0
 26 25  2  0  0  0  0
 26 27  1  0  0  0  0
 27 22  2  0  0  0  0
 30 26  1  0  0  0  0
M  END
>  <minimizedAffinity>
-4.7461915

$$$$

 OpenBabel03272501333D

 30 32  0  0  1  0  0  0  0  0999 V2000
   41.2980   24.0560   34.4450 C   0  0  2  0  0  0  0  0  0  0  0  0
   41.9600   25.4740   34.6180 C   0  0  0  0  0  0  0  0  0  0  0  0
   40.6770   25.2180   33.8620 C   0  0  2  0  0  0  0  0  0  0  0  0
   42.0380   23.3990   33.9110 H   0  0  0  0  0  0  0  0  0  0  0  0
   41.9550   25.9200   35.6030 H   0  0  0  0  0  0  0  0  0  0  0  0
   42.9150   25.5730   34.0860 H   0  0  0  0  0  0  0  0  0  0  0  0
   40.8750   25.3580   32.7350 H   0  0  0  0  0  0  0  0  0  0  0  0
   38.3040   25.9130   33.5920 C   0  0  0  0  0  0  0  0  0  0  0  0
   39.5140   25.9770   34.3000 C   0  0  0  0  0  0  0  0  0  0  0  0
   39.4550   26.8340   35.3800 C   0  0  0  0  0  0  0  0  0  0  0  0
   40.3100   26.9950   35.9900 H   0  0  0  0  0  0  0  0  0  0  0  0
   38.3470   27.5640   35.7560 C   0  0  0  0  0  0  0  0  0  0  0  0
   38.3450   28.2240   36.6110 H   0  0  0  0  0  0  0  0  0  0  0  0
   37.2130   27.4180   34.9840 C   0  0  0  0  0  3  0  0  0  0  0  0
   37.1420   26.5960   33.8800 C   0  0  0  0  0  3  0  0  0  0  0  0
   39.5380   24.4240   31.8680 H   0  0  0  0  0  0  0  0  0  0  0  0
   38.2780   24.8370   32.1870 S   0  0  0  0  0  0  0  0  0  0  0  0
   37.7450   25.5780   30.9800 O   0  0  0  0  0  0  0  0  0  0  0  0
   37.4720   23.6060   32.4590 O   0  0  0  0  0  0  0  0  0  0  0  0
   40.9280   23.4700   35.7540 C   0  0  0  0  0  0  0  0  0  0  0  0
   41.8740   23.3170   36.5700 O   0  0  0  0  0  0  0  0  0  0  0  0
   37.5960   23.2900   37.4280 C   0  0  0  0  0  0  0  0  0  0  0  0
   38.9070   23.6360   37.1310 C   0  0  0  0  0  0  0  0  0  0  0  0
   39.5580   23.1120   36.0100 C   0  0  0  0  0  0  0  0  0  0  0  0
   38.8560   22.2740   35.2530 N   0  0  0  0  0  0  0  0  0  0  0  0
   37.5740   21.9440   35.5540 C   0  0  0  0  0  0  0  0  0  0  0  0
   36.9350   22.4330   36.6200 N   0  0  0  0  0  0  0  0  0  0  0  0
   37.2150   23.7690   38.3250 H   0  0  0  0  0  0  0  0  0  0  0  0
   39.4800   24.3210   37.7520 H   0  0  0  0  0  0  0  0  0  0  0  0
   37.0410   21.2610   34.9130 H   0  0  0  0  0  0  0  0  0  0  0  0
  1  4  1  6  0  0  0
  1  2  1  0  0  0  0
  1 20  1  0  0  0  0
  2  5  1  0  0  0  0
  3  7  1  6  0  0  0
  3  9  1  0  0  0  0
  3  1  1  0  0  0  0
  3  2  1  0  0  0  0
  6  2  1  0  0  0  0
  8 15  2  0  0  0  0
  8  9  1  0  0  0  0
  9 10  2  0  0  0  0
 10 12  1  0  0  0  0
 10 11  1  0  0  0  0
 12 13  1  0  0  0  0
 14 12  2  0  0  0  0
 15 14  1  0  0  0  0
 16 17  1  0  0  0  0
 17 19  2  0  0  0  0
 17  8  1  0  0  0  0
 18 17  2  0  0  0  0
 20 24  1  0  0  0  0
 20 21  2  0  0  0  0
 22 28  1  0  0  0  0
 23 22  1  0  0  0  0
 23 29  1  0  0  0  0
 24 23  2  0  0  0  0
 25 26  2  0  0  0  0
 25 24  1  0  0  0  0
 26 27  1  0  0  0  0
 27 22  2  0  0  0  0
 30 26  1  0  0  0  0
M  END
>  <minimizedAffinity>
-4.68803072

$$$$

 OpenBabel03272501333D

 30 32  0  0  1  0  0  0  0  0999 V2000
   37.8700   25.6620   34.3020 C   0  0  2  0  0  0  0  0  0  0  0  0
   39.0980   26.5480   34.7320 C   0  0  0  0  0  0  0  0  0  0  0  0
   38.5420   25.4050   35.5490 C   0  0  2  0  0  0  0  0  0  0  0  0
   36.9830   26.3440   34.1890 H   0  0  0  0  0  0  0  0  0  0  0  0
   40.0180   26.4470   34.1740 H   0  0  0  0  0  0  0  0  0  0  0  0
   38.8230   27.5870   34.9600 H   0  0  0  0  0  0  0  0  0  0  0  0
   38.0140   25.8350   36.4800 H   0  0  0  0  0  0  0  0  0  0  0  0
   39.2790   23.5570   37.0420 C   0  0  0  0  0  0  0  0  0  0  0  0
   39.4850   24.3540   35.9060 C   0  0  0  0  0  0  0  0  0  0  0  0
   40.6520   24.0420   35.2390 C   0  0  0  0  0  0  0  0  0  0  0  0
   40.9420   24.5850   34.3740 H   0  0  0  0  0  0  0  0  0  0  0  0
   41.5440   23.0590   35.6160 C   0  0  0  0  0  0  0  0  0  0  0  0
   42.4480   22.8480   35.0640 H   0  0  0  0  0  0  0  0  0  0  0  0
   41.2340   22.3380   36.7510 C   0  0  0  0  0  3  0  0  0  0  0  0
   40.1010   22.5530   37.5060 C   0  0  0  0  0  3  0  0  0  0  0  0
   36.8090   24.3300   37.1490 H   0  0  0  0  0  0  0  0  0  0  0  0
   37.8050   23.8800   37.9660 S   0  0  0  0  0  0  0  0  0  0  0  0
   38.0610   24.9740   38.9810 O   0  0  0  0  0  0  0  0  0  0  0  0
   37.2960   22.6400   38.6310 O   0  0  0  0  0  0  0  0  0  0  0  0
   38.1410   24.9440   33.0350 C   0  0  0  0  0  0  0  0  0  0  0  0
   38.9870   25.4820   32.2740 O   0  0  0  0  0  0  0  0  0  0  0  0
   35.7160   22.5560   31.5000 C   0  0  0  0  0  0  0  0  0  0  0  0
   36.4330   23.7110   31.7820 C   0  0  0  0  0  0  0  0  0  0  0  0
   37.4420   23.7190   32.7490 C   0  0  0  0  0  0  0  0  0  0  0  0
   37.6740   22.5690   33.3750 N   0  0  0  0  0  0  0  0  0  0  0  0
   36.9670   21.4460   33.0900 C   0  0  0  0  0  0  0  0  0  0  0  0
   35.9990   21.4180   32.1700 N   0  0  0  0  0  0  0  0  0  0  0  0
   34.9640   22.6920   30.7290 H   0  0  0  0  0  0  0  0  0  0  0  0
   36.2420   24.6510   31.2690 H   0  0  0  0  0  0  0  0  0  0  0  0
   37.1870   20.5350   33.6210 H   0  0  0  0  0  0  0  0  0  0  0  0
  1  4  1  1  0  0  0
  1  2  1  0  0  0  0
  1  3  1  0  0  0  0
  2  6  1  0  0  0  0
  2  3  1  0  0  0  0
  3  9  1  0  0  0  0
  3  7  1  1  0  0  0
  5  2  1  0  0  0  0
  8 15  1  0  0  0  0
  8 17  1  0  0  0  0
  9  8  2  0  0  0  0
 10 12  2  0  0  0  0
 10  9  1  0  0  0  0
 11 10  1  0  0  0  0
 12 14  1  0  0  0  0
 13 12  1  0  0  0  0
 14 15  2  0  0  0  0
 16 17  1  0  0  0  0
 17 19  2  0  0  0  0
 17 18  2  0  0  0  0
 20  1  1  0  0  0  0
 21 20  2  0  0  0  0
 22 23  2  0  0  0  0
 22 27  1  0  0  0  0
 23 24  1  0  0  0  0
 24 20  1  0  0  0  0
 24 25  2  0  0  0  0
 26 25  1  0  0  0  0
 26 30  1  0  0  0  0
 27 26  2  0  0  0  0
 28 22  1  0  0  0  0
 29 23  1  0  0  0  0
M  END
>  <minimizedAffinity>
-4.66682482

$$$$

 OpenBabel03272501333D

 30 32  0  0  1  0  0  0  0  0999 V2000
   34.4820   29.0820   32.6290 C   0  0  2  0  0  0  0  0  0  0  0  0
   33.9230   30.4910   32.2040 C   0  0  0  0  0  0  0  0  0  0  0  0
   33.7490   29.8820   33.5760 C   0  0  2  0  0  0  0  0  0  0  0  0
   34.0160   28.3150   31.9530 H   0  0  0  0  0  0  0  0  0  0  0  0
   34.6330   31.2870   32.0280 H   0  0  0  0  0  0  0  0  0  0  0  0
   33.1210   30.4320   31.4570 H   0  0  0  0  0  0  0  0  0  0  0  0
   32.6440   29.5800   33.7110 H   0  0  0  0  0  0  0  0  0  0  0  0
   33.4210   30.8880   35.8270 C   0  0  0  0  0  0  0  0  0  0  0  0
   34.2260   30.6790   34.6970 C   0  0  0  0  0  0  0  0  0  0  0  0
   35.4430   31.3250   34.7820 C   0  0  0  0  0  0  0  0  0  0  0  0
   36.1420   31.2700   33.9840 H   0  0  0  0  0  0  0  0  0  0  0  0
   35.8600   32.1000   35.8460 C   0  0  0  0  0  0  0  0  0  0  0  0
   36.8220   32.5880   35.8710 H   0  0  0  0  0  0  0  0  0  0  0  0
   34.9810   32.2320   36.9020 C   0  0  0  0  0  3  0  0  0  0  0  0
   33.7380   31.6390   36.9380 C   0  0  0  0  0  3  0  0  0  0  0  0
   31.7990   29.1050   34.8800 H   0  0  0  0  0  0  0  0  0  0  0  0
   31.8380   30.0990   35.8140 S   0  0  0  0  0  0  0  0  0  0  0  0
   30.7660   31.0960   35.4310 O   0  0  0  0  0  0  0  0  0  0  0  0
   31.5340   29.4670   37.1360 O   0  0  0  0  0  0  0  0  0  0  0  0
   35.9590   29.0360   32.5310 C   0  0  0  0  0  0  0  0  0  0  0  0
   36.4860   29.9290   31.8160 O   0  0  0  0  0  0  0  0  0  0  0  0
   38.2240   26.1310   33.1360 C   0  0  0  0  0  0  0  0  0  0  0  0
   37.5300   27.1550   32.5060 C   0  0  0  0  0  0  0  0  0  0  0  0
   36.6860   28.0070   33.2250 C   0  0  0  0  0  0  0  0  0  0  0  0
   36.5880   27.7820   34.5320 N   0  0  0  0  0  0  0  0  0  0  0  0
   37.2720   26.7770   35.1360 C   0  0  0  0  0  0  0  0  0  0  0  0
   38.0840   25.9530   34.4680 N   0  0  0  0  0  0  0  0  0  0  0  0
   38.8430   25.5480   32.4600 H   0  0  0  0  0  0  0  0  0  0  0  0
   37.6120   27.3370   31.4370 H   0  0  0  0  0  0  0  0  0  0  0  0
   37.1640   26.6300   36.1980 H   0  0  0  0  0  0  0  0  0  0  0  0
  1  4  1  6  0  0  0
  1  3  1  0  0  0  0
  2  1  1  0  0  0  0
  2  3  1  0  0  0  0
  3  7  1  1  0  0  0
  3  9  1  0  0  0  0
  5  2  1  0  0  0  0
  6  2  1  0  0  0  0
  8 15  1  0  0  0  0
  9 10  1  0  0  0  0
  9  8  2  0  0  0  0
 10 12  2  0  0  0  0
 11 10  1  0  0  0  0
 12 13  1  0  0  0  0
 12 14  1  0  0  0  0
 14 15  2  0  0  0  0
 16 17  1  0  0  0  0
 17  8  1  0  0  0  0
 17 19  2  0  0  0  0
 18 17  2  0  0  0  0
 20  1  1  0  0  0  0
 20 24  1  0  0  0  0
 21 20  2  0  0  0  0
 22 27  1  0  0  0  0
 23 22  2  0  0  0  0
 23 24  1  0  0  0  0
 24 25  2  0  0  0  0
 25 26  1  0  0  0  0
 26 30  1  0  0  0  0
 27 26  2  0  0  0  0
 28 22  1  0  0  0  0
 29 23  1  0  0  0  0
M  END
>  <minimizedAffinity>
-4.65000439

$$$$

 OpenBabel03272501333D

 30 32  0  0  1  0  0  0  0  0999 V2000
   38.8970   25.7500   33.9490 C   0  0  2  0  0  0  0  0  0  0  0  0
   37.4370   25.9120   34.5150 C   0  0  0  0  0  0  0  0  0  0  0  0
   38.2840   24.6710   34.6790 C   0  0  2  0  0  0  0  0  0  0  0  0
   38.8430   25.8710   32.8330 H   0  0  0  0  0  0  0  0  0  0  0  0
   37.2830   26.6010   35.3330 H   0  0  0  0  0  0  0  0  0  0  0  0
   36.6720   25.9700   33.7300 H   0  0  0  0  0  0  0  0  0  0  0  0
   37.8440   23.8320   34.0230 H   0  0  0  0  0  0  0  0  0  0  0  0
   39.5060   23.2880   36.3460 C   0  0  0  0  0  0  0  0  0  0  0  0
   38.5040   24.2220   36.0470 C   0  0  0  0  0  0  0  0  0  0  0  0
   37.7810   24.6030   37.1600 C   0  0  0  0  0  0  0  0  0  0  0  0
   36.9750   25.2890   37.0720 H   0  0  0  0  0  0  0  0  0  0  0  0
   37.9920   24.1390   38.4420 C   0  0  0  0  0  0  0  0  0  0  0  0
   37.4010   24.4650   39.2850 H   0  0  0  0  0  0  0  0  0  0  0  0
   39.0090   23.2220   38.6130 C   0  0  0  0  0  3  0  0  0  0  0  0
   39.8010   22.7610   37.5840 C   0  0  0  0  0  3  0  0  0  0  0  0
   40.7490   23.7650   34.1230 H   0  0  0  0  0  0  0  0  0  0  0  0
   40.4910   22.7370   34.9830 S   0  0  0  0  0  0  0  0  0  0  0  0
   39.7390   21.6890   34.1920 O   0  0  0  0  0  0  0  0  0  0  0  0
   41.8150   22.2120   35.4440 O   0  0  0  0  0  0  0  0  0  0  0  0
   39.8170   26.7500   34.5380 C   0  0  0  0  0  0  0  0  0  0  0  0
   39.2980   27.5560   35.3540 O   0  0  0  0  0  0  0  0  0  0  0  0
   42.9410   27.5460   32.6550 C   0  0  0  0  0  0  0  0  0  0  0  0
   41.6180   27.5400   33.0750 C   0  0  0  0  0  0  0  0  0  0  0  0
   41.2030   26.7530   34.1530 C   0  0  0  0  0  0  0  0  0  0  0  0
   42.1400   26.0200   34.7480 N   0  0  0  0  0  0  0  0  0  0  0  0
   43.4310   26.0350   34.3280 C   0  0  0  0  0  0  0  0  0  0  0  0
   43.8470   26.7790   33.3000 N   0  0  0  0  0  0  0  0  0  0  0  0
   43.1230   28.2010   31.8080 H   0  0  0  0  0  0  0  0  0  0  0  0
   40.8540   28.1410   32.5870 H   0  0  0  0  0  0  0  0  0  0  0  0
   44.1590   25.4250   34.8380 H   0  0  0  0  0  0  0  0  0  0  0  0
  1  4  1  6  0  0  0
  1  2  1  0  0  0  0
  1 20  1  0  0  0  0
  1  3  1  0  0  0  0
  2  3  1  0  0  0  0
  2  5  1  0  0  0  0
  3  7  1  6  0  0  0
  3  9  1  0  0  0  0
  6  2  1  0  0  0  0
  8 15  1  0  0  0  0
  9  8  2  0  0  0  0
  9 10  1  0  0  0  0
 10 12  2  0  0  0  0
 11 10  1  0  0  0  0
 12 14  1  0  0  0  0
 12 13  1  0  0  0  0
 15 14  2  0  0  0  0
 16 17  1  0  0  0  0
 17 19  2  0  0  0  0
 17  8  1  0  0  0  0
 18 17  2  0  0  0  0
 20 21  2  0  0  0  0
 22 23  2  0  0  0  0
 22 27  1  0  0  0  0
 23 24  1  0  0  0  0
 24 20  1  0  0  0  0
 24 25  2  0  0  0  0
 26 25  1  0  0  0  0
 26 30  1  0  0  0  0
 27 26  2  0  0  0  0
 28 22  1  0  0  0  0
 29 23  1  0  0  0  0
M  END
>  <minimizedAffinity>
-4.61487103

$$$$
