
 OpenBabel03272501373D

 39 42  0  0  1  0  0  0  0  0999 V2000
   36.1040   29.9340   31.7250 C   0  0  0  0  0  0  0  0  0  0  0  0
   36.6740   28.7010   31.9440 C   0  0  0  0  0  0  0  0  0  0  0  0
   36.6240   28.0650   33.2020 C   0  0  0  0  0  0  0  0  0  0  0  0
   36.0020   28.7120   34.1530 N   0  0  0  0  0  0  0  0  0  0  0  0
   35.4350   29.9430   33.9240 C   0  0  0  0  0  0  0  0  0  0  0  0
   35.4820   30.5450   32.7370 N   0  0  0  0  0  0  0  0  0  0  0  0
   36.1450   30.4160   30.7580 H   0  0  0  0  0  0  0  0  0  0  0  0
   37.1630   28.2360   31.1130 H   0  0  0  0  0  0  0  0  0  0  0  0
   33.4020   30.4990   35.2910 C   0  0  0  0  0  0  0  0  0  0  0  0
   34.7440   30.6360   35.0260 C   0  0  0  0  0  0  0  0  0  0  0  0
   35.4650   31.4790   35.8580 C   0  0  0  0  0  0  0  0  0  0  0  0
   36.5400   31.6090   35.6720 H   0  0  0  0  0  0  0  0  0  0  0  0
   34.9330   32.1810   36.9190 C   0  0  0  0  0  0  0  0  0  0  0  0
   35.5750   32.8180   37.5160 H   0  0  0  0  0  0  0  0  0  0  0  0
   33.5880   32.0440   37.1840 C   0  0  0  0  0  3  0  0  0  0  0  0
   32.8680   31.2060   36.3600 C   0  0  0  0  0  3  0  0  0  0  0  0
   33.0250   28.2910   33.9940 H   0  0  0  0  0  0  0  0  0  0  0  0
   32.4270   29.4680   34.3080 S   0  0  0  0  0  0  0  0  0  0  0  0
   31.9630   30.2520   33.1070 O   0  0  0  0  0  0  0  0  0  0  0  0
   31.1690   29.1320   35.1040 O   0  0  0  0  0  0  0  0  0  0  0  0
   37.2650   26.7930   33.3560 C   0  0  1  0  0  3  0  0  0  0  0  0
   37.6190   26.0400   32.3660 O   0  0  0  0  0  1  0  0  0  0  0  0
   37.5480   26.3150   34.7590 C   0  0  2  0  0  0  0  0  0  0  0  0
   39.0060   26.8330   35.1440 C   0  0  0  0  0  0  0  0  0  0  0  0
   38.6010   25.3870   35.0130 C   0  0  1  0  0  0  0  0  0  0  0  0
   36.8440   26.6680   35.5710 H   0  0  0  0  0  0  0  0  0  0  0  0
   39.0830   27.2680   36.1470 H   0  0  0  0  0  0  0  0  0  0  0  0
   39.6050   27.2880   34.3670 H   0  0  0  0  0  0  0  0  0  0  0  0
   39.0640   24.8840   34.1070 H   0  0  0  0  0  0  0  0  0  0  0  0
   38.7650   24.5760   36.2200 C   0  0  0  0  0  0  0  0  0  0  0  0
   37.9310   24.8540   37.2980 C   0  0  0  0  0  0  0  0  0  0  0  0
   38.0910   24.0920   38.4270 C   0  0  0  0  0  0  0  0  0  0  0  0
   39.0370   23.0830   38.5150 C   0  0  0  0  0  0  0  0  0  0  0  0
   39.8490   22.8410   37.4140 C   0  0  0  0  0  0  0  0  0  0  0  0
   39.6920   23.5860   36.3100 N   0  0  0  0  0  0  0  0  0  0  0  0
   37.1760   25.6250   37.2920 H   0  0  0  0  0  0  0  0  0  0  0  0
   37.4680   24.2640   39.2940 H   0  0  0  0  0  0  0  0  0  0  0  0
   39.1710   22.4700   39.4120 H   0  0  0  0  0  0  0  0  0  0  0  0
   40.6040   22.0700   37.4170 H   0  0  0  0  0  0  0  0  0  0  0  0
  1  2  2  0  0  0  0
  1  6  1  0  0  0  0
  2  3  1  0  0  0  0
  3 21  1  0  0  0  0
  3  4  2  0  0  0  0
  5  4  1  0  0  0  0
  5 10  1  0  0  0  0
  6  5  2  0  0  0  0
  7  1  1  0  0  0  0
  8  2  1  0  0  0  0
  9 16  1  0  0  0  0
 10  9  2  0  0  0  0
 10 11  1  0  0  0  0
 11 13  2  0  0  0  0
 12 11  1  0  0  0  0
 13 15  1  0  0  0  0
 13 14  1  0  0  0  0
 16 15  2  0  0  0  0
 17 18  1  0  0  0  0
 18 20  2  0  0  0  0
 18  9  1  0  0  0  0
 19 18  2  0  0  0  0
 21 22  1  6  0  0  0
 21 23  1  0  0  0  0
 23 25  1  0  0  0  0
 23 24  1  0  0  0  0
 23 26  1  1  0  0  0
 24 27  1  0  0  0  0
 25 29  1  6  0  0  0
 25 24  1  0  0  0  0
 25 30  1  0  0  0  0
 28 24  1  0  0  0  0
 30 35  2  0  0  0  0
 30 31  1  0  0  0  0
 31 32  2  0  0  0  0
 32 33  1  0  0  0  0
 32 37  1  0  0  0  0
 33 38  1  0  0  0  0
 34 39  1  0  0  0  0
 34 33  2  0  0  0  0
 35 34  1  0  0  0  0
 36 31  1  0  0  0  0
M  END
>  <minimizedAffinity>
-6.64010096

$$$$

 OpenBabel03272501373D

 39 42  0  0  1  0  0  0  0  0999 V2000
   35.1960   29.8970   31.6900 C   0  0  0  0  0  0  0  0  0  0  0  0
   36.1760   28.9600   31.9180 C   0  0  0  0  0  0  0  0  0  0  0  0
   36.3640   28.3640   33.1820 C   0  0  0  0  0  0  0  0  0  0  0  0
   35.5520   28.7510   34.1300 N   0  0  0  0  0  0  0  0  0  0  0  0
   34.5750   29.6880   33.8930 C   0  0  0  0  0  0  0  0  0  0  0  0
   34.3970   30.2520   32.7000 N   0  0  0  0  0  0  0  0  0  0  0  0
   35.0570   30.3510   30.7180 H   0  0  0  0  0  0  0  0  0  0  0  0
   36.7990   28.6950   31.0880 H   0  0  0  0  0  0  0  0  0  0  0  0
   33.8850   31.2110   35.7680 C   0  0  0  0  0  0  0  0  0  0  0  0
   33.6820   30.0940   34.9930 C   0  0  0  0  0  0  0  0  0  0  0  0
   32.5660   29.3240   35.2830 C   0  0  0  0  0  0  0  0  0  0  0  0
   32.3770   28.4240   34.6810 H   0  0  0  0  0  0  0  0  0  0  0  0
   31.6590   29.5980   36.2840 C   0  0  0  0  0  0  0  0  0  0  0  0
   30.8150   28.9370   36.4390 H   0  0  0  0  0  0  0  0  0  0  0  0
   31.8630   30.7170   37.0620 C   0  0  0  0  0  3  0  0  0  0  0  0
   32.9700   31.4870   36.7760 C   0  0  0  0  0  3  0  0  0  0  0  0
   35.3440   32.6550   34.1920 H   0  0  0  0  0  0  0  0  0  0  0  0
   35.2470   32.2300   35.4770 S   0  0  0  0  0  0  0  0  0  0  0  0
   36.4840   31.5290   35.9780 O   0  0  0  0  0  0  0  0  0  0  0  0
   35.0840   33.4730   36.3480 O   0  0  0  0  0  0  0  0  0  0  0  0
   37.4250   27.4140   33.3450 C   0  0  1  0  0  3  0  0  0  0  0  0
   38.3040   27.1530   32.4340 O   0  0  0  0  0  1  0  0  0  0  0  0
   37.5200   26.6880   34.6640 C   0  0  2  0  0  0  0  0  0  0  0  0
   38.6880   27.3830   35.4970 C   0  0  0  0  0  0  0  0  0  0  0  0
   38.6960   25.9570   35.0090 C   0  0  1  0  0  0  0  0  0  0  0  0
   36.5980   26.6920   35.3180 H   0  0  0  0  0  0  0  0  0  0  0  0
   38.4430   27.5770   36.5480 H   0  0  0  0  0  0  0  0  0  0  0  0
   39.3020   28.1180   34.9950 H   0  0  0  0  0  0  0  0  0  0  0  0
   39.4490   25.7840   34.1770 H   0  0  0  0  0  0  0  0  0  0  0  0
   38.8030   24.9360   36.0520 C   0  0  0  0  0  0  0  0  0  0  0  0
   37.9500   25.0430   37.1450 C   0  0  0  0  0  0  0  0  0  0  0  0
   38.0570   24.0840   38.1200 C   0  0  0  0  0  0  0  0  0  0  0  0
   38.9680   23.0440   38.0420 C   0  0  0  0  0  0  0  0  0  0  0  0
   39.8010   22.9760   36.9320 C   0  0  0  0  0  0  0  0  0  0  0  0
   39.6960   23.9140   35.9800 N   0  0  0  0  0  0  0  0  0  0  0  0
   37.2190   25.8290   37.2640 H   0  0  0  0  0  0  0  0  0  0  0  0
   37.4170   24.1190   38.9910 H   0  0  0  0  0  0  0  0  0  0  0  0
   39.0590   22.2740   38.8150 H   0  0  0  0  0  0  0  0  0  0  0  0
   40.5320   22.1920   36.8110 H   0  0  0  0  0  0  0  0  0  0  0  0
  1  2  2  0  0  0  0
  1  6  1  0  0  0  0
  2  3  1  0  0  0  0
  3 21  1  0  0  0  0
  3  4  2  0  0  0  0
  5  4  1  0  0  0  0
  5 10  1  0  0  0  0
  6  5  2  0  0  0  0
  7  1  1  0  0  0  0
  8  2  1  0  0  0  0
  9 16  1  0  0  0  0
 10 11  1  0  0  0  0
 10  9  2  0  0  0  0
 11 13  2  0  0  0  0
 12 11  1  0  0  0  0
 13 14  1  0  0  0  0
 13 15  1  0  0  0  0
 16 15  2  0  0  0  0
 17 18  1  0  0  0  0
 18  9  1  0  0  0  0
 18 19  2  0  0  0  0
 18 20  2  0  0  0  0
 21 22  1  1  0  0  0
 21 23  1  0  0  0  0
 23 25  1  0  0  0  0
 23 26  1  1  0  0  0
 23 24  1  0  0  0  0
 24 27  1  0  0  0  0
 25 29  1  6  0  0  0
 25 24  1  0  0  0  0
 25 30  1  0  0  0  0
 28 24  1  0  0  0  0
 30 31  1  0  0  0  0
 31 36  1  0  0  0  0
 31 32  2  0  0  0  0
 32 37  1  0  0  0  0
 33 32  1  0  0  0  0
 33 38  1  0  0  0  0
 34 33  2  0  0  0  0
 35 30  2  0  0  0  0
 35 34  1  0  0  0  0
 39 34  1  0  0  0  0
M  END
>  <minimizedAffinity>
-6.32890606

$$$$

 OpenBabel03272501373D

 39 42  0  0  1  0  0  0  0  0999 V2000
   37.7040   27.2300   35.1470 C   0  0  0  0  0  0  0  0  0  0  0  0
   37.3300   27.0730   33.8330 C   0  0  0  0  0  0  0  0  0  0  0  0
   37.7540   25.9730   33.0590 C   0  0  0  0  0  0  0  0  0  0  0  0
   38.5230   25.1050   33.6610 N   0  0  0  0  0  0  0  0  0  0  0  0
   38.8910   25.2700   34.9750 C   0  0  0  0  0  0  0  0  0  0  0  0
   38.4930   26.3090   35.7070 N   0  0  0  0  0  0  0  0  0  0  0  0
   37.3760   28.0760   35.7350 H   0  0  0  0  0  0  0  0  0  0  0  0
   36.6970   27.8280   33.4130 H   0  0  0  0  0  0  0  0  0  0  0  0
   39.3160   23.3430   36.5300 C   0  0  0  0  0  0  0  0  0  0  0  0
   39.7610   24.2650   35.6130 C   0  0  0  0  0  0  0  0  0  0  0  0
   41.1080   24.2250   35.2870 C   0  0  0  0  0  0  0  0  0  0  0  0
   41.4940   24.9500   34.5560 H   0  0  0  0  0  0  0  0  0  0  0  0
   42.0190   23.3360   35.8150 C   0  0  0  0  0  0  0  0  0  0  0  0
   43.0550   23.3800   35.5000 H   0  0  0  0  0  0  0  0  0  0  0  0
   41.5730   22.4120   36.7350 C   0  0  0  0  0  3  0  0  0  0  0  0
   40.2350   22.4470   37.0600 C   0  0  0  0  0  3  0  0  0  0  0  0
   36.9490   24.3910   36.5550 H   0  0  0  0  0  0  0  0  0  0  0  0
   37.6540   23.3180   36.9940 S   0  0  0  0  0  0  0  0  0  0  0  0
   37.5760   23.1110   38.4850 O   0  0  0  0  0  0  0  0  0  0  0  0
   37.0210   22.0800   36.3640 O   0  0  0  0  0  0  0  0  0  0  0  0
   37.3420   25.8950   31.6880 C   0  0  1  0  0  3  0  0  0  0  0  0
   37.2870   26.9140   30.8940 O   0  0  0  0  0  1  0  0  0  0  0  0
   36.9620   24.5400   31.1450 C   0  0  2  0  0  0  0  0  0  0  0  0
   35.3710   24.5040   31.0520 C   0  0  0  0  0  0  0  0  0  0  0  0
   36.2120   23.6220   31.9400 C   0  0  1  0  0  0  0  0  0  0  0  0
   37.3610   24.2690   30.1230 H   0  0  0  0  0  0  0  0  0  0  0  0
   34.9810   24.0860   30.1160 H   0  0  0  0  0  0  0  0  0  0  0  0
   34.8170   25.3230   31.4910 H   0  0  0  0  0  0  0  0  0  0  0  0
   36.1000   23.8760   33.0400 H   0  0  0  0  0  0  0  0  0  0  0  0
   36.0810   22.1830   31.7040 C   0  0  0  0  0  0  0  0  0  0  0  0
   35.0280   21.5240   32.3290 C   0  0  0  0  0  0  0  0  0  0  0  0
   34.9110   20.1760   32.1060 C   0  0  0  0  0  0  0  0  0  0  0  0
   35.7930   19.4780   31.2970 C   0  0  0  0  0  0  0  0  0  0  0  0
   36.8300   20.1780   30.6930 C   0  0  0  0  0  0  0  0  0  0  0  0
   36.9440   21.4960   30.9120 N   0  0  0  0  0  0  0  0  0  0  0  0
   34.3080   22.0110   32.9710 H   0  0  0  0  0  0  0  0  0  0  0  0
   34.1100   19.6140   32.5670 H   0  0  0  0  0  0  0  0  0  0  0  0
   35.7070   18.4020   31.1130 H   0  0  0  0  0  0  0  0  0  0  0  0
   37.5510   19.6940   30.0520 H   0  0  0  0  0  0  0  0  0  0  0  0
  1  6  1  0  0  0  0
  1  7  1  0  0  0  0
  2  1  2  0  0  0  0
  3  4  2  0  0  0  0
  3  2  1  0  0  0  0
  4  5  1  0  0  0  0
  5 10  1  0  0  0  0
  5  6  2  0  0  0  0
  8  2  1  0  0  0  0
  9 18  1  0  0  0  0
  9 16  1  0  0  0  0
 10  9  2  0  0  0  0
 11 10  1  0  0  0  0
 11 13  2  0  0  0  0
 12 11  1  0  0  0  0
 13 15  1  0  0  0  0
 14 13  1  0  0  0  0
 15 16  2  0  0  0  0
 17 18  1  0  0  0  0
 18 19  2  0  0  0  0
 20 18  2  0  0  0  0
 21 22  1  6  0  0  0
 21  3  1  0  0  0  0
 23 26  1  6  0  0  0
 23 21  1  0  0  0  0
 23 25  1  0  0  0  0
 24 23  1  0  0  0  0
 24 28  1  0  0  0  0
 24 25  1  0  0  0  0
 25 29  1  1  0  0  0
 27 24  1  0  0  0  0
 30 25  1  0  0  0  0
 30 31  1  0  0  0  0
 31 36  1  0  0  0  0
 32 31  2  0  0  0  0
 32 37  1  0  0  0  0
 33 32  1  0  0  0  0
 34 35  1  0  0  0  0
 34 33  2  0  0  0  0
 35 30  2  0  0  0  0
 38 33  1  0  0  0  0
 39 34  1  0  0  0  0
M  END
>  <minimizedAffinity>
-6.32853651

$$$$

 OpenBabel03272501373D

 39 42  0  0  1  0  0  0  0  0999 V2000
   40.1190   27.0670   33.3910 C   0  0  0  0  0  0  0  0  0  0  0  0
   39.1430   26.9470   32.4300 C   0  0  0  0  0  0  0  0  0  0  0  0
   38.0450   26.0750   32.5800 C   0  0  0  0  0  0  0  0  0  0  0  0
   38.0030   25.3840   33.6880 N   0  0  0  0  0  0  0  0  0  0  0  0
   38.9830   25.5100   34.6440 C   0  0  0  0  0  0  0  0  0  0  0  0
   40.0210   26.3320   34.5030 N   0  0  0  0  0  0  0  0  0  0  0  0
   40.9590   27.7370   33.2700 H   0  0  0  0  0  0  0  0  0  0  0  0
   39.2490   27.5490   31.5510 H   0  0  0  0  0  0  0  0  0  0  0  0
   39.5080   23.4920   36.0450 C   0  0  0  0  0  0  0  0  0  0  0  0
   38.8940   24.7100   35.8790 C   0  0  0  0  0  0  0  0  0  0  0  0
   38.1550   25.1910   36.9500 C   0  0  0  0  0  0  0  0  0  0  0  0
   37.6520   26.1630   36.8470 H   0  0  0  0  0  0  0  0  0  0  0  0
   37.9970   24.5380   38.1530 C   0  0  0  0  0  0  0  0  0  0  0  0
   37.3990   24.9910   38.9350 H   0  0  0  0  0  0  0  0  0  0  0  0
   38.6120   23.3160   38.3200 C   0  0  0  0  0  3  0  0  0  0  0  0
   39.3480   22.8350   37.2580 C   0  0  0  0  0  3  0  0  0  0  0  0
   41.2460   23.7200   34.1410 H   0  0  0  0  0  0  0  0  0  0  0  0
   40.4500   22.8170   34.7660 S   0  0  0  0  0  0  0  0  0  0  0  0
   39.5270   22.0750   33.8330 O   0  0  0  0  0  0  0  0  0  0  0  0
   41.3670   21.7620   35.3800 O   0  0  0  0  0  0  0  0  0  0  0  0
   37.0830   25.9880   31.5210 C   0  0  1  0  0  3  0  0  0  0  0  0
   36.5150   27.0150   30.9790 O   0  0  0  0  0  1  0  0  0  0  0  0
   36.7270   24.6150   31.0060 C   0  0  2  0  0  0  0  0  0  0  0  0
   35.1460   24.4620   31.1400 C   0  0  0  0  0  0  0  0  0  0  0  0
   36.1680   23.6340   31.8780 C   0  0  1  0  0  0  0  0  0  0  0  0
   36.9940   24.3870   29.9320 H   0  0  0  0  0  0  0  0  0  0  0  0
   34.6560   24.0280   30.2610 H   0  0  0  0  0  0  0  0  0  0  0  0
   34.6040   25.2320   31.6720 H   0  0  0  0  0  0  0  0  0  0  0  0
   36.1980   23.8650   32.9890 H   0  0  0  0  0  0  0  0  0  0  0  0
   36.1070   22.1930   31.6310 C   0  0  0  0  0  0  0  0  0  0  0  0
   35.0500   21.4880   32.1960 C   0  0  0  0  0  0  0  0  0  0  0  0
   35.0000   20.1380   31.9620 C   0  0  0  0  0  0  0  0  0  0  0  0
   35.9520   19.4810   31.1990 C   0  0  0  0  0  0  0  0  0  0  0  0
   36.9910   20.2250   30.6540 C   0  0  0  0  0  0  0  0  0  0  0  0
   37.0390   21.5450   30.8840 N   0  0  0  0  0  0  0  0  0  0  0  0
   34.2770   21.9420   32.7990 H   0  0  0  0  0  0  0  0  0  0  0  0
   34.1990   19.5420   32.3760 H   0  0  0  0  0  0  0  0  0  0  0  0
   35.9190   18.4030   31.0070 H   0  0  0  0  0  0  0  0  0  0  0  0
   37.7640   19.7740   30.0520 H   0  0  0  0  0  0  0  0  0  0  0  0
  1  6  1  0  0  0  0
  2  3  1  0  0  0  0
  2  1  2  0  0  0  0
  3  4  2  0  0  0  0
  4  5  1  0  0  0  0
  5 10  1  0  0  0  0
  6  5  2  0  0  0  0
  7  1  1  0  0  0  0
  8  2  1  0  0  0  0
  9 16  1  0  0  0  0
 10  9  2  0  0  0  0
 10 11  1  0  0  0  0
 11 13  2  0  0  0  0
 12 11  1  0  0  0  0
 13 15  1  0  0  0  0
 13 14  1  0  0  0  0
 16 15  2  0  0  0  0
 17 18  1  0  0  0  0
 18 20  2  0  0  0  0
 18  9  1  0  0  0  0
 19 18  2  0  0  0  0
 21 22  1  6  0  0  0
 21  3  1  0  0  0  0
 23 26  1  6  0  0  0
 23 24  1  0  0  0  0
 23 21  1  0  0  0  0
 23 25  1  0  0  0  0
 24 28  1  0  0  0  0
 24 25  1  0  0  0  0
 25 29  1  1  0  0  0
 27 24  1  0  0  0  0
 30 25  1  0  0  0  0
 30 31  1  0  0  0  0
 31 36  1  0  0  0  0
 32 31  2  0  0  0  0
 32 37  1  0  0  0  0
 33 32  1  0  0  0  0
 34 35  1  0  0  0  0
 34 33  2  0  0  0  0
 35 30  2  0  0  0  0
 38 33  1  0  0  0  0
 39 34  1  0  0  0  0
M  END
>  <minimizedAffinity>
-6.14675188

$$$$

 OpenBabel03272501373D

 39 42  0  0  1  0  0  0  0  0999 V2000
   37.3660   27.8360   35.0290 C   0  0  0  0  0  0  0  0  0  0  0  0
   36.9440   27.6200   33.7380 C   0  0  0  0  0  0  0  0  0  0  0  0
   37.2000   26.4110   33.0580 C   0  0  0  0  0  0  0  0  0  0  0  0
   37.8620   25.5020   33.7230 N   0  0  0  0  0  0  0  0  0  0  0  0
   38.2810   25.7270   35.0130 C   0  0  0  0  0  0  0  0  0  0  0  0
   38.0400   26.8680   35.6560 N   0  0  0  0  0  0  0  0  0  0  0  0
   37.1670   28.7640   35.5450 H   0  0  0  0  0  0  0  0  0  0  0  0
   36.4050   28.4130   33.2630 H   0  0  0  0  0  0  0  0  0  0  0  0
   40.3050   24.2910   35.4000 C   0  0  0  0  0  0  0  0  0  0  0  0
   39.0250   24.6730   35.7240 C   0  0  0  0  0  0  0  0  0  0  0  0
   38.4230   24.0120   36.7850 C   0  0  0  0  0  0  0  0  0  0  0  0
   37.4000   24.2950   37.0680 H   0  0  0  0  0  0  0  0  0  0  0  0
   39.0140   23.0110   37.5260 C   0  0  0  0  0  0  0  0  0  0  0  0
   38.4660   22.5510   38.3390 H   0  0  0  0  0  0  0  0  0  0  0  0
   40.2970   22.6280   37.2010 C   0  0  0  0  0  3  0  0  0  0  0  0
   40.8990   23.2830   36.1480 C   0  0  0  0  0  3  0  0  0  0  0  0
   40.3500   25.2780   33.0080 H   0  0  0  0  0  0  0  0  0  0  0  0
   41.1320   25.0590   34.0950 S   0  0  0  0  0  0  0  0  0  0  0  0
   42.3840   24.2750   33.7940 O   0  0  0  0  0  0  0  0  0  0  0  0
   41.6000   26.4250   34.5910 O   0  0  0  0  0  0  0  0  0  0  0  0
   36.7490   26.2730   31.7040 C   0  0  1  0  0  3  0  0  0  0  0  0
   36.4590   27.2730   30.9370 O   0  0  0  0  0  1  0  0  0  0  0  0
   36.6160   24.8780   31.1470 C   0  0  2  0  0  0  0  0  0  0  0  0
   35.0650   24.6290   30.8740 C   0  0  0  0  0  0  0  0  0  0  0  0
   35.9070   23.8710   31.8680 C   0  0  1  0  0  0  0  0  0  0  0  0
   37.1630   24.6580   30.1820 H   0  0  0  0  0  0  0  0  0  0  0  0
   34.8440   24.1600   29.9080 H   0  0  0  0  0  0  0  0  0  0  0  0
   34.3610   25.3690   31.2310 H   0  0  0  0  0  0  0  0  0  0  0  0
   35.6360   24.1120   32.9430 H   0  0  0  0  0  0  0  0  0  0  0  0
   35.9950   22.4270   31.6460 C   0  0  0  0  0  0  0  0  0  0  0  0
   35.0080   21.6290   32.2160 C   0  0  0  0  0  0  0  0  0  0  0  0
   35.0970   20.2760   32.0070 C   0  0  0  0  0  0  0  0  0  0  0  0
   36.1170   19.7060   31.2620 C   0  0  0  0  0  0  0  0  0  0  0  0
   37.0810   20.5410   30.7120 C   0  0  0  0  0  0  0  0  0  0  0  0
   36.9940   21.8630   30.9170 N   0  0  0  0  0  0  0  0  0  0  0  0
   34.1890   22.0130   32.8060 H   0  0  0  0  0  0  0  0  0  0  0  0
   34.3570   19.6100   32.4260 H   0  0  0  0  0  0  0  0  0  0  0  0
   36.1950   18.6270   31.0900 H   0  0  0  0  0  0  0  0  0  0  0  0
   37.9010   20.1600   30.1230 H   0  0  0  0  0  0  0  0  0  0  0  0
  1  7  1  0  0  0  0
  1  6  1  0  0  0  0
  2  1  2  0  0  0  0
  3  4  2  0  0  0  0
  3  2  1  0  0  0  0
  4  5  1  0  0  0  0
  5  6  2  0  0  0  0
  5 10  1  0  0  0  0
  8  2  1  0  0  0  0
  9 10  2  0  0  0  0
  9 16  1  0  0  0  0
 10 11  1  0  0  0  0
 11 12  1  0  0  0  0
 11 13  2  0  0  0  0
 13 14  1  0  0  0  0
 15 13  1  0  0  0  0
 16 15  2  0  0  0  0
 17 18  1  0  0  0  0
 18 20  2  0  0  0  0
 18  9  1  0  0  0  0
 19 18  2  0  0  0  0
 21 22  1  6  0  0  0
 21  3  1  0  0  0  0
 23 26  1  6  0  0  0
 23 21  1  0  0  0  0
 23 25  1  0  0  0  0
 24 23  1  0  0  0  0
 24 28  1  0  0  0  0
 24 25  1  0  0  0  0
 25 29  1  1  0  0  0
 27 24  1  0  0  0  0
 30 25  1  0  0  0  0
 30 31  1  0  0  0  0
 31 36  1  0  0  0  0
 32 31  2  0  0  0  0
 32 37  1  0  0  0  0
 33 32  1  0  0  0  0
 34 35  1  0  0  0  0
 34 33  2  0  0  0  0
 35 30  2  0  0  0  0
 38 33  1  0  0  0  0
 39 34  1  0  0  0  0
M  END
>  <minimizedAffinity>
-6.05197954

$$$$

 OpenBabel03272501373D

 39 42  0  0  1  0  0  0  0  0999 V2000
   36.1840   28.3480   31.8900 C   0  0  0  0  0  0  0  0  0  0  0  0
   35.5570   27.1860   31.5040 C   0  0  0  0  0  0  0  0  0  0  0  0
   36.1810   25.9270   31.6110 C   0  0  0  0  0  0  0  0  0  0  0  0
   37.3930   25.9210   32.1010 N   0  0  0  0  0  0  0  0  0  0  0  0
   38.0110   27.0870   32.4850 C   0  0  0  0  0  0  0  0  0  0  0  0
   37.4240   28.2780   32.3840 N   0  0  0  0  0  0  0  0  0  0  0  0
   35.7000   29.3110   31.8050 H   0  0  0  0  0  0  0  0  0  0  0  0
   34.5640   27.2750   31.1140 H   0  0  0  0  0  0  0  0  0  0  0  0
   39.6710   26.6410   34.3170 C   0  0  0  0  0  0  0  0  0  0  0  0
   39.3790   27.0320   33.0330 C   0  0  0  0  0  0  0  0  0  0  0  0
   40.4490   27.3920   32.2280 C   0  0  0  0  0  0  0  0  0  0  0  0
   40.2470   27.7100   31.1950 H   0  0  0  0  0  0  0  0  0  0  0  0
   41.7690   27.3830   32.6230 C   0  0  0  0  0  0  0  0  0  0  0  0
   42.5410   27.6810   31.9240 H   0  0  0  0  0  0  0  0  0  0  0  0
   42.0620   26.9910   33.9120 C   0  0  0  0  0  3  0  0  0  0  0  0
   41.0010   26.6320   34.7150 C   0  0  0  0  0  3  0  0  0  0  0  0
   37.1910   26.0680   34.7860 H   0  0  0  0  0  0  0  0  0  0  0  0
   38.4010   26.1750   35.3900 S   0  0  0  0  0  0  0  0  0  0  0  0
   38.4070   27.1100   36.5730 O   0  0  0  0  0  0  0  0  0  0  0  0
   38.7500   24.7950   35.9400 O   0  0  0  0  0  0  0  0  0  0  0  0
   35.4710   24.7650   31.1630 C   0  0  1  0  0  3  0  0  0  0  0  0
   34.5080   24.7990   30.3000 O   0  0  0  0  0  1  0  0  0  0  0  0
   35.8830   23.4280   31.7270 C   0  0  2  0  0  0  0  0  0  0  0  0
   37.0740   22.8840   30.8170 C   0  0  0  0  0  0  0  0  0  0  0  0
   35.7210   22.2350   30.9620 C   0  0  1  0  0  0  0  0  0  0  0  0
   36.2490   23.4160   32.7970 H   0  0  0  0  0  0  0  0  0  0  0  0
   37.9190   22.4670   31.3770 H   0  0  0  0  0  0  0  0  0  0  0  0
   37.3070   23.4240   29.9090 H   0  0  0  0  0  0  0  0  0  0  0  0
   35.0930   22.3160   30.0210 H   0  0  0  0  0  0  0  0  0  0  0  0
   35.7320   20.8670   31.4840 C   0  0  0  0  0  0  0  0  0  0  0  0
   35.3040   20.6760   32.7940 C   0  0  0  0  0  0  0  0  0  0  0  0
   35.3200   19.3930   33.2780 C   0  0  0  0  0  0  0  0  0  0  0  0
   35.7400   18.3160   32.5140 C   0  0  0  0  0  0  0  0  0  0  0  0
   36.1590   18.5530   31.2110 C   0  0  0  0  0  0  0  0  0  0  0  0
   36.1440   19.8080   30.7380 N   0  0  0  0  0  0  0  0  0  0  0  0
   34.9650   21.4730   33.4390 H   0  0  0  0  0  0  0  0  0  0  0  0
   34.9960   19.1870   34.2890 H   0  0  0  0  0  0  0  0  0  0  0  0
   35.7540   17.2880   32.8920 H   0  0  0  0  0  0  0  0  0  0  0  0
   36.4990   17.7590   30.5640 H   0  0  0  0  0  0  0  0  0  0  0  0
  1  6  1  0  0  0  0
  2  3  1  0  0  0  0
  2  1  2  0  0  0  0
  3  4  2  0  0  0  0
  4  5  1  0  0  0  0
  5 10  1  0  0  0  0
  6  5  2  0  0  0  0
  7  1  1  0  0  0  0
  8  2  1  0  0  0  0
  9 16  1  0  0  0  0
  9 18  1  0  0  0  0
 10  9  2  0  0  0  0
 11 13  2  0  0  0  0
 11 10  1  0  0  0  0
 12 11  1  0  0  0  0
 13 15  1  0  0  0  0
 14 13  1  0  0  0  0
 15 16  2  0  0  0  0
 17 18  1  0  0  0  0
 18 20  2  0  0  0  0
 18 19  2  0  0  0  0
 21 22  1  6  0  0  0
 21  3  1  0  0  0  0
 21 23  1  0  0  0  0
 23 26  1  1  0  0  0
 24 25  1  0  0  0  0
 24 27  1  0  0  0  0
 24 23  1  0  0  0  0
 25 29  1  6  0  0  0
 25 30  1  0  0  0  0
 25 23  1  0  0  0  0
 28 24  1  0  0  0  0
 30 31  1  0  0  0  0
 31 32  2  0  0  0  0
 31 36  1  0  0  0  0
 32 37  1  0  0  0  0
 33 38  1  0  0  0  0
 33 32  1  0  0  0  0
 34 33  2  0  0  0  0
 35 34  1  0  0  0  0
 35 30  2  0  0  0  0
 39 34  1  0  0  0  0
M  END
>  <minimizedAffinity>
-5.88774967

$$$$

 OpenBabel03272501373D

 39 42  0  0  1  0  0  0  0  0999 V2000
   39.7270   26.9660   33.2120 C   0  0  0  0  0  0  0  0  0  0  0  0
   38.6150   27.4800   32.5870 C   0  0  0  0  0  0  0  0  0  0  0  0
   37.3060   27.1460   32.9920 C   0  0  0  0  0  0  0  0  0  0  0  0
   37.2050   26.3190   33.9990 N   0  0  0  0  0  0  0  0  0  0  0  0
   38.3230   25.8100   34.6170 C   0  0  0  0  0  0  0  0  0  0  0  0
   39.5600   26.1240   34.2350 N   0  0  0  0  0  0  0  0  0  0  0  0
   40.7290   27.2250   32.8970 H   0  0  0  0  0  0  0  0  0  0  0  0
   38.7820   28.1520   31.7710 H   0  0  0  0  0  0  0  0  0  0  0  0
   38.0570   23.5170   35.6080 C   0  0  0  0  0  0  0  0  0  0  0  0
   38.1610   24.8800   35.7490 C   0  0  0  0  0  0  0  0  0  0  0  0
   38.1070   25.3820   37.0400 C   0  0  0  0  0  0  0  0  0  0  0  0
   38.1880   26.4690   37.1860 H   0  0  0  0  0  0  0  0  0  0  0  0
   37.9590   24.6170   38.1770 C   0  0  0  0  0  0  0  0  0  0  0  0
   37.9270   25.0980   39.1470 H   0  0  0  0  0  0  0  0  0  0  0  0
   37.8540   23.2500   38.0350 C   0  0  0  0  0  3  0  0  0  0  0  0
   37.9070   22.7470   36.7540 C   0  0  0  0  0  3  0  0  0  0  0  0
   37.8130   23.6670   33.0350 H   0  0  0  0  0  0  0  0  0  0  0  0
   38.1150   22.8030   34.0370 S   0  0  0  0  0  0  0  0  0  0  0  0
   37.2600   21.5620   34.0440 O   0  0  0  0  0  0  0  0  0  0  0  0
   39.5460   22.3290   33.8020 O   0  0  0  0  0  0  0  0  0  0  0  0
   36.1990   27.7040   32.2730 C   0  0  1  0  0  3  0  0  0  0  0  0
   35.8960   27.3850   31.0570 O   0  0  0  0  0  1  0  0  0  0  0  0
   35.3360   28.7140   32.9870 C   0  0  2  0  0  0  0  0  0  0  0  0
   35.8060   30.1580   32.5010 C   0  0  0  0  0  0  0  0  0  0  0  0
   35.9090   29.6370   33.9120 C   0  0  1  0  0  0  0  0  0  0  0  0
   34.2210   28.6510   32.8090 H   0  0  0  0  0  0  0  0  0  0  0  0
   34.9870   30.8430   32.2530 H   0  0  0  0  0  0  0  0  0  0  0  0
   36.7000   30.2240   31.8950 H   0  0  0  0  0  0  0  0  0  0  0  0
   36.9800   29.4390   34.2280 H   0  0  0  0  0  0  0  0  0  0  0  0
   35.1840   30.4100   34.9220 C   0  0  0  0  0  0  0  0  0  0  0  0
   33.8040   30.2490   34.9850 C   0  0  0  0  0  0  0  0  0  0  0  0
   33.1300   30.9770   35.9310 C   0  0  0  0  0  0  0  0  0  0  0  0
   33.7740   31.8430   36.8000 C   0  0  0  0  0  0  0  0  0  0  0  0
   35.1540   31.9720   36.7010 C   0  0  0  0  0  0  0  0  0  0  0  0
   35.8120   31.2600   35.7750 N   0  0  0  0  0  0  0  0  0  0  0  0
   33.2440   29.5900   34.3370 H   0  0  0  0  0  0  0  0  0  0  0  0
   32.0560   30.8890   36.0240 H   0  0  0  0  0  0  0  0  0  0  0  0
   33.2440   32.4270   37.5590 H   0  0  0  0  0  0  0  0  0  0  0  0
   35.7160   32.6300   37.3470 H   0  0  0  0  0  0  0  0  0  0  0  0
  1  6  1  0  0  0  0
  2  3  1  0  0  0  0
  2  1  2  0  0  0  0
  3  4  2  0  0  0  0
  4  5  1  0  0  0  0
  5 10  1  0  0  0  0
  6  5  2  0  0  0  0
  7  1  1  0  0  0  0
  8  2  1  0  0  0  0
  9 10  2  0  0  0  0
  9 16  1  0  0  0  0
 10 11  1  0  0  0  0
 11 12  1  0  0  0  0
 11 13  2  0  0  0  0
 13 14  1  0  0  0  0
 15 13  1  0  0  0  0
 16 15  2  0  0  0  0
 17 18  1  0  0  0  0
 18 19  2  0  0  0  0
 18  9  1  0  0  0  0
 20 18  2  0  0  0  0
 21 22  1  1  0  0  0
 21 23  1  0  0  0  0
 21  3  1  0  0  0  0
 23 26  1  1  0  0  0
 23 25  1  0  0  0  0
 24 23  1  0  0  0  0
 24 25  1  0  0  0  0
 25 29  1  1  0  0  0
 25 30  1  0  0  0  0
 27 24  1  0  0  0  0
 28 24  1  0  0  0  0
 30 31  2  0  0  0  0
 30 35  1  0  0  0  0
 31 32  1  0  0  0  0
 32 37  1  0  0  0  0
 32 33  2  0  0  0  0
 33 38  1  0  0  0  0
 34 33  1  0  0  0  0
 34 39  1  0  0  0  0
 35 34  2  0  0  0  0
 36 31  1  0  0  0  0
M  END
>  <minimizedAffinity>
-5.80885458

$$$$

 OpenBabel03272501373D

 39 42  0  0  1  0  0  0  0  0999 V2000
   36.8860   24.2700   32.0240 C   0  0  0  0  0  0  0  0  0  0  0  0
   36.6690   25.6260   31.9610 C   0  0  0  0  0  0  0  0  0  0  0  0
   37.1100   26.5040   32.9740 C   0  0  0  0  0  0  0  0  0  0  0  0
   37.7390   25.9570   33.9800 N   0  0  0  0  0  0  0  0  0  0  0  0
   37.9520   24.5990   34.0340 C   0  0  0  0  0  0  0  0  0  0  0  0
   37.5360   23.7690   33.0790 N   0  0  0  0  0  0  0  0  0  0  0  0
   36.5460   23.6020   31.2450 H   0  0  0  0  0  0  0  0  0  0  0  0
   36.1470   25.9970   31.1030 H   0  0  0  0  0  0  0  0  0  0  0  0
   40.0140   23.7510   35.1910 C   0  0  0  0  0  0  0  0  0  0  0  0
   38.6670   24.0260   35.1880 C   0  0  0  0  0  0  0  0  0  0  0  0
   37.9650   23.7370   36.3490 C   0  0  0  0  0  0  0  0  0  0  0  0
   36.8860   23.9450   36.3770 H   0  0  0  0  0  0  0  0  0  0  0  0
   38.5200   23.2000   37.4900 C   0  0  0  0  0  0  0  0  0  0  0  0
   37.8920   23.0060   38.3520 H   0  0  0  0  0  0  0  0  0  0  0  0
   39.8700   22.9240   37.4940 C   0  0  0  0  0  3  0  0  0  0  0  0
   40.5710   23.2110   36.3420 C   0  0  0  0  0  3  0  0  0  0  0  0
   40.2950   23.9110   32.6240 H   0  0  0  0  0  0  0  0  0  0  0  0
   40.9670   24.0800   33.7910 S   0  0  0  0  0  0  0  0  0  0  0  0
   42.2400   23.2770   33.8790 O   0  0  0  0  0  0  0  0  0  0  0  0
   41.3870   25.5460   33.8560 O   0  0  0  0  0  0  0  0  0  0  0  0
   36.8220   27.9020   32.8470 C   0  0  1  0  0  3  0  0  0  0  0  0
   37.3510   28.6670   31.9490 O   0  0  0  0  0  1  0  0  0  0  0  0
   35.8350   28.5060   33.8150 C   0  0  2  0  0  0  0  0  0  0  0  0
   34.7000   29.2130   32.9470 C   0  0  0  0  0  0  0  0  0  0  0  0
   35.6510   29.9200   33.8790 C   0  0  1  0  0  0  0  0  0  0  0  0
   35.3170   27.7970   34.5260 H   0  0  0  0  0  0  0  0  0  0  0  0
   33.6780   29.0160   33.2900 H   0  0  0  0  0  0  0  0  0  0  0  0
   34.8520   29.2890   31.8780 H   0  0  0  0  0  0  0  0  0  0  0  0
   36.4110   30.5570   33.3280 H   0  0  0  0  0  0  0  0  0  0  0  0
   35.0230   30.6600   34.9750 C   0  0  0  0  0  0  0  0  0  0  0  0
   35.8080   31.5840   35.6580 C   0  0  0  0  0  0  0  0  0  0  0  0
   35.2140   32.2720   36.6840 C   0  0  0  0  0  0  0  0  0  0  0  0
   33.8910   32.0740   37.0450 C   0  0  0  0  0  0  0  0  0  0  0  0
   33.1450   31.1420   36.3350 C   0  0  0  0  0  0  0  0  0  0  0  0
   33.7260   30.4680   35.3310 N   0  0  0  0  0  0  0  0  0  0  0  0
   36.8430   31.7830   35.4250 H   0  0  0  0  0  0  0  0  0  0  0  0
   35.7780   33.0030   37.2480 H   0  0  0  0  0  0  0  0  0  0  0  0
   33.4100   32.6200   37.8630 H   0  0  0  0  0  0  0  0  0  0  0  0
   32.1110   30.9400   36.5660 H   0  0  0  0  0  0  0  0  0  0  0  0
  1  6  1  0  0  0  0
  2  1  2  0  0  0  0
  2  3  1  0  0  0  0
  3  4  2  0  0  0  0
  4  5  1  0  0  0  0
  5 10  1  0  0  0  0
  6  5  2  0  0  0  0
  7  1  1  0  0  0  0
  8  2  1  0  0  0  0
  9 16  1  0  0  0  0
 10  9  2  0  0  0  0
 10 11  1  0  0  0  0
 11 12  1  0  0  0  0
 11 13  2  0  0  0  0
 13 15  1  0  0  0  0
 13 14  1  0  0  0  0
 16 15  2  0  0  0  0
 17 18  1  0  0  0  0
 18 20  2  0  0  0  0
 18 19  2  0  0  0  0
 18  9  1  0  0  0  0
 21 22  1  6  0  0  0
 21  3  1  0  0  0  0
 21 23  1  0  0  0  0
 23 25  1  0  0  0  0
 23 26  1  1  0  0  0
 24 27  1  0  0  0  0
 24 23  1  0  0  0  0
 24 25  1  0  0  0  0
 25 29  1  6  0  0  0
 25 30  1  0  0  0  0
 28 24  1  0  0  0  0
 30 35  2  0  0  0  0
 30 31  1  0  0  0  0
 31 32  2  0  0  0  0
 32 33  1  0  0  0  0
 32 37  1  0  0  0  0
 33 38  1  0  0  0  0
 34 39  1  0  0  0  0
 34 33  2  0  0  0  0
 35 34  1  0  0  0  0
 36 31  1  0  0  0  0
M  END
>  <minimizedAffinity>
-5.80486012

$$$$

 OpenBabel03272501373D

 39 42  0  0  1  0  0  0  0  0999 V2000
   37.4470   27.6890   35.0420 C   0  0  0  0  0  0  0  0  0  0  0  0
   36.8870   27.4800   33.8030 C   0  0  0  0  0  0  0  0  0  0  0  0
   37.4680   26.6150   32.8530 C   0  0  0  0  0  0  0  0  0  0  0  0
   38.5730   26.0170   33.2140 N   0  0  0  0  0  0  0  0  0  0  0  0
   39.1260   26.2320   34.4540 C   0  0  0  0  0  0  0  0  0  0  0  0
   38.5790   27.0490   35.3520 N   0  0  0  0  0  0  0  0  0  0  0  0
   36.9970   28.3530   35.7660 H   0  0  0  0  0  0  0  0  0  0  0  0
   35.9800   28.0050   33.5840 H   0  0  0  0  0  0  0  0  0  0  0  0
   40.4100   24.3020   35.4240 C   0  0  0  0  0  0  0  0  0  0  0  0
   40.3730   25.5360   34.8190 C   0  0  0  0  0  0  0  0  0  0  0  0
   41.5920   26.1380   34.5480 C   0  0  0  0  0  0  0  0  0  0  0  0
   41.5960   27.1250   34.0640 H   0  0  0  0  0  0  0  0  0  0  0  0
   42.8230   25.5910   34.8400 C   0  0  0  0  0  0  0  0  0  0  0  0
   43.7260   26.1350   34.5910 H   0  0  0  0  0  0  0  0  0  0  0  0
   42.8600   24.3530   35.4470 C   0  0  0  0  0  3  0  0  0  0  0  0
   41.6500   23.7510   35.7180 C   0  0  0  0  0  3  0  0  0  0  0  0
   38.0210   23.5250   34.8000 H   0  0  0  0  0  0  0  0  0  0  0  0
   38.9400   23.4780   35.7980 S   0  0  0  0  0  0  0  0  0  0  0  0
   38.4270   23.9910   37.1190 O   0  0  0  0  0  0  0  0  0  0  0  0
   39.2840   22.0080   36.0200 O   0  0  0  0  0  0  0  0  0  0  0  0
   36.8360   26.4710   31.5750 C   0  0  1  0  0  3  0  0  0  0  0  0
   36.4750   27.4670   30.8340 O   0  0  0  0  0  1  0  0  0  0  0  0
   36.5900   25.0720   31.0670 C   0  0  2  0  0  0  0  0  0  0  0  0
   35.0100   24.8780   30.9760 C   0  0  0  0  0  0  0  0  0  0  0  0
   35.9310   24.1060   31.8850 C   0  0  1  0  0  0  0  0  0  0  0  0
   37.0150   24.8140   30.0510 H   0  0  0  0  0  0  0  0  0  0  0  0
   34.6630   24.4020   30.0520 H   0  0  0  0  0  0  0  0  0  0  0  0
   34.3790   25.6510   31.3950 H   0  0  0  0  0  0  0  0  0  0  0  0
   35.7940   24.3750   32.9790 H   0  0  0  0  0  0  0  0  0  0  0  0
   35.9400   22.6550   31.6860 C   0  0  0  0  0  0  0  0  0  0  0  0
   36.9750   22.1180   30.9280 C   0  0  0  0  0  0  0  0  0  0  0  0
   36.9770   20.7590   30.7430 C   0  0  0  0  0  0  0  0  0  0  0  0
   36.0010   19.9360   31.2790 C   0  0  0  0  0  0  0  0  0  0  0  0
   34.9860   20.5160   32.0300 C   0  0  0  0  0  0  0  0  0  0  0  0
   34.9840   21.8440   32.2100 N   0  0  0  0  0  0  0  0  0  0  0  0
   37.7650   22.7060   30.4840 H   0  0  0  0  0  0  0  0  0  0  0  0
   37.7590   20.2890   30.1620 H   0  0  0  0  0  0  0  0  0  0  0  0
   35.9950   18.8500   31.1370 H   0  0  0  0  0  0  0  0  0  0  0  0
   34.1950   19.9310   32.4740 H   0  0  0  0  0  0  0  0  0  0  0  0
  1  6  1  0  0  0  0
  1  7  1  0  0  0  0
  2  1  2  0  0  0  0
  3  4  2  0  0  0  0
  3  2  1  0  0  0  0
  4  5  1  0  0  0  0
  5 10  1  0  0  0  0
  5  6  2  0  0  0  0
  8  2  1  0  0  0  0
  9 16  1  0  0  0  0
  9 18  1  0  0  0  0
 10  9  2  0  0  0  0
 11 10  1  0  0  0  0
 11 13  2  0  0  0  0
 12 11  1  0  0  0  0
 13 15  1  0  0  0  0
 14 13  1  0  0  0  0
 15 16  2  0  0  0  0
 17 18  1  0  0  0  0
 18 20  2  0  0  0  0
 18 19  2  0  0  0  0
 21 22  1  6  0  0  0
 21  3  1  0  0  0  0
 23 26  1  6  0  0  0
 23 21  1  0  0  0  0
 23 25  1  0  0  0  0
 24 23  1  0  0  0  0
 24 28  1  0  0  0  0
 24 25  1  0  0  0  0
 25 29  1  1  0  0  0
 27 24  1  0  0  0  0
 30 25  1  0  0  0  0
 30 35  1  0  0  0  0
 31 30  2  0  0  0  0
 32 31  1  0  0  0  0
 32 33  2  0  0  0  0
 33 34  1  0  0  0  0
 34 35  2  0  0  0  0
 34 39  1  0  0  0  0
 36 31  1  0  0  0  0
 37 32  1  0  0  0  0
 38 33  1  0  0  0  0
M  END
>  <minimizedAffinity>
-5.76666689

$$$$
