
     RDKit          3D

 45 48  0  0  0  0  0  0  0  0999 V2000
   35.1173   29.6267   47.5634 C   0  0  0  0  0  0  0  0  0  0  0  0
   35.2826   30.0548   46.2431 C   0  0  0  0  0  0  0  0  0  0  0  0
   34.2577   29.9107   45.3280 C   0  0  0  0  0  0  0  0  0  0  0  0
   33.0948   29.3408   45.7628 N   0  0  0  0  0  0  0  0  0  0  0  0
   32.9576   28.9351   47.0413 C   0  0  0  0  0  0  0  0  0  0  0  0
   33.9566   29.0729   47.9429 N   0  0  0  0  0  0  0  0  0  0  0  0
   36.1307   29.7436   48.5624 N   0  0  0  0  0  0  0  0  0  0  0  0
   36.1902   28.8892   49.7211 C   0  0  0  0  0  0  0  0  0  0  0  0
   36.4656   29.5952   51.0107 C   0  0  0  0  0  0  0  0  0  0  0  0
   37.2123   30.8030   50.9568 N   0  0  0  0  0  0  0  0  0  0  0  0
   36.9477   31.6074   49.7659 C   0  0  0  0  0  0  0  0  0  0  0  0
   37.2031   30.6811   48.5804 C   0  0  0  0  0  0  0  0  0  0  0  0
   31.6958   28.3307   47.4679 C   0  0  0  0  0  0  0  0  0  0  0  0
   31.6456   27.4379   48.5000 C   0  0  0  0  0  0  0  0  0  0  0  0
   30.4737   26.8452   48.9376 C   0  0  0  0  0  0  0  0  0  0  0  0
   29.3593   27.2095   48.2694 N   0  0  0  0  0  0  0  0  0  0  0  0
   29.3935   28.0792   47.2607 C   0  0  0  0  0  0  0  0  0  0  0  0
   30.5559   28.6319   46.8678 N   0  0  0  0  0  0  0  0  0  0  0  0
   36.2371   30.4986   45.9733 H   0  0  0  0  0  0  0  0  0  0  0  0
   34.3643   30.2330   44.3090 H   0  0  0  0  0  0  0  0  0  0  0  0
   37.0434   28.1821   49.5337 H   0  0  0  0  0  0  0  0  0  0  0  0
   35.2839   28.2641   49.8572 H   0  0  0  0  0  0  0  0  0  0  0  0
   35.4975   29.7792   51.5235 H   0  0  0  0  0  0  0  0  0  0  0  0
   37.0118   28.8833   51.6781 H   0  0  0  0  0  0  0  0  0  0  0  0
   38.2304   30.5454   50.9696 H   0  0  0  0  0  0  0  0  0  0  0  0
   35.8727   31.8353   49.7644 H   0  0  0  0  0  0  0  0  0  0  0  0
   37.6169   32.4747   49.7849 H   0  0  0  0  0  0  0  0  0  0  0  0
   38.1818   30.1861   48.7651 H   0  0  0  0  0  0  0  0  0  0  0  0
   37.3058   31.2463   47.6351 H   0  0  0  0  0  0  0  0  0  0  0  0
   32.5472   27.1475   49.0355 H   0  0  0  0  0  0  0  0  0  0  0  0
   30.4230   26.1503   49.7383 H   0  0  0  0  0  0  0  0  0  0  0  0
   28.1163   32.3012   47.0433 H   0  0  0  0  0  0  0  0  0  0  0  0
   28.7574   31.0931   47.3214 S   0  0  0  0  0  0  0  0  0  0  0  0
   28.6946   30.8924   48.8090 O   0  0  0  0  0  0  0  0  0  0  0  0
   30.1509   31.2601   46.8118 O   0  0  0  0  0  0  0  0  0  0  0  0
   27.8636   29.8630   46.4668 C   0  0  0  0  0  0  0  0  0  0  0  0
   28.2138   28.5191   46.4875 C   0  0  0  0  0  0  0  0  0  0  0  0
   27.4305   27.6082   45.7682 C   0  0  0  0  0  0  0  0  0  0  0  0
   27.7115   26.5640   45.7908 H   0  0  0  0  0  0  0  0  0  0  0  0
   26.3266   27.9748   45.0380 C   0  0  0  0  0  0  0  0  0  0  0  0
   25.7621   27.2345   44.5053 H   0  0  0  0  0  0  0  0  0  0  0  0
   25.9487   29.2987   44.9938 C   0  0  0  0  0  0  0  0  0  0  0  0
   26.7307   30.1803   45.7072 C   0  0  0  0  0  0  0  0  0  0  0  0
   25.0965   29.6650   44.4443 H   0  0  0  0  0  0  0  0  0  0  0  0
   26.4334   31.2318   45.6742 H   0  0  0  0  0  0  0  0  0  0  0  0
  1  6  1  0
  1  7  1  0
  2  1  2  0
  3  4  2  0
  3  2  1  0
  4  5  1  0
  5 13  1  0
  5  6  2  0
  7 12  1  0
  7  8  1  0
  8  9  1  0
 10  9  1  0
 11 10  1  0
 12 11  1  0
 13 14  2  0
 14 15  1  0
 16 15  2  0
 17 16  1  0
 18 17  2  0
 18 13  1  0
  2 19  1  0
  3 20  1  0
  8 21  1  0
  8 22  1  0
  9 23  1  0
  9 24  1  0
 10 25  1  0
 11 26  1  0
 11 27  1  0
 12 28  1  0
 12 29  1  0
 14 30  1  0
 15 31  1  0
 32 33  1  0
 33 34  2  0
 33 35  2  0
 33 36  1  0
 36 37  2  0
 37 38  1  0
 38 39  1  0
 38 40  2  0
 40 41  1  0
 40 42  1  0
 42 43  2  0
 43 36  1  0
 42 44  1  0
 43 45  1  0
 17 37  1  0
M  ISO  8  19  14  20  14  21  13  22  13  23  13  24  13  25   5  26  13
M  ISO  8  27  13  28  13  29  13  30  14  31  14  32  12  39  15  41  16
M  END
>  <DihAtoms>  (1) 
15,16,36,35

>  <DihDeg>  (1) 
-0.3149172440937027

$$$$
