
 OpenBabel03272505583D

 47 50  0  0  1  0  0  0  0  0999 V2000
   35.3940   30.4500   49.4200 C   0  0  2  0  0  0  0  0  0  0  0  0
   36.3010   31.1530   48.4870 C   0  0  0  0  0  0  0  0  0  0  0  0
   37.7530   30.6730   48.6010 C   0  0  2  0  0  0  0  0  0  0  0  0
   38.3160   30.7580   49.9520 C   0  0  0  0  0  0  0  0  0  0  0  0
   37.3180   30.3980   51.0490 C   0  0  0  0  0  0  0  0  0  0  0  0
   36.1250   29.6730   50.4920 C   0  0  0  0  0  0  0  0  0  0  0  0
   34.7250   31.1590   49.9940 H   0  0  0  0  0  0  0  0  0  0  0  0
   36.1310   31.1880   47.4390 H   0  0  0  0  0  0  0  0  0  0  0  0
   36.3750   32.2300   48.8620 H   0  0  0  0  0  0  0  0  0  0  0  0
   37.7590   29.6750   48.1640 H   0  0  0  0  0  0  0  0  0  0  0  0
   39.2220   30.1140   49.9980 H   0  0  0  0  0  0  0  0  0  0  0  0
   38.6430   31.7860   50.1890 H   0  0  0  0  0  0  0  0  0  0  0  0
   37.8390   29.6780   51.7150 H   0  0  0  0  0  0  0  0  0  0  0  0
   37.0430   31.2500   51.6840 H   0  0  0  0  0  0  0  0  0  0  0  0
   36.4560   28.7050   50.0620 H   0  0  0  0  0  0  0  0  0  0  0  0
   35.4400   29.4770   51.3360 H   0  0  0  0  0  0  0  0  0  0  0  0
   37.9210   29.7200   45.8160 Cl  0  0  0  0  0  0  0  0  0  0  0  0
   38.6780   31.2100   46.3530 C   0  0  0  0  0  0  0  0  0  0  0  0
   38.5030   31.5720   47.6760 C   0  0  0  0  0  0  0  0  0  0  0  0
   39.1130   32.7710   47.9970 C   0  0  0  0  0  0  0  0  0  0  0  0
   39.8230   33.5140   47.0760 C   0  0  0  0  0  0  0  0  0  0  0  0
   39.9520   33.0780   45.7640 C   0  0  0  0  0  0  0  0  0  0  0  0
   39.3660   31.8990   45.3990 C   0  0  0  0  0  0  0  0  0  0  0  0
   39.0140   33.1200   49.0160 H   0  0  0  0  0  0  0  0  0  0  0  0
   40.2670   34.4450   47.4260 H   0  0  0  0  0  0  0  0  0  0  0  0
   40.5120   33.6760   45.0580 H   0  0  0  0  0  0  0  0  0  0  0  0
   38.6270   31.6010   42.9660 C   0  0  0  0  0  0  0  0  0  0  0  0
   39.4940   31.4310   44.0250 C   0  0  0  0  0  0  0  0  0  0  0  0
   40.6820   30.7260   43.8400 C   0  0  0  0  0  0  0  0  0  0  0  0
   41.4420   30.5310   44.6070 H   0  0  0  0  0  0  0  0  0  0  0  0
   40.9960   30.1890   42.5890 C   0  0  0  0  0  0  0  0  0  0  0  0
   41.9330   29.6310   42.4350 H   0  0  0  0  0  0  0  0  0  0  0  0
   40.1110   30.3690   41.5320 C   0  0  0  0  0  0  0  0  0  0  0  0
   38.9340   31.0740   41.7330 C   0  0  0  0  0  0  0  0  0  0  0  0
   37.3420   33.2680   44.4600 H   0  0  0  0  0  0  0  0  0  0  0  0
   37.1940   32.4980   43.3490 S   0  0  0  0  0  0  0  0  0  0  0  0
   36.1110   31.4930   43.6530 O   0  0  0  0  0  0  0  0  0  0  0  0
   36.6870   33.3320   42.2110 O   0  0  0  0  0  0  0  0  0  0  0  0
   34.4780   29.5130   48.7500 C   0  0  0  0  0  0  0  0  0  0  0  0
   34.5270   29.5380   47.3550 C   0  0  0  0  0  0  0  0  0  0  0  0
   33.6860   28.6550   46.6620 C   0  0  0  0  0  0  0  0  0  0  0  0
   32.8550   27.8080   47.3880 N   0  0  0  0  0  0  0  0  0  0  0  0
   32.8480   27.8260   48.7380 C   0  0  0  0  0  0  0  0  0  0  0  0
   33.6550   28.6740   49.3750 N   0  0  0  0  0  0  0  0  0  0  0  0
   35.0300   30.0540   46.5570 H   0  0  0  0  0  0  0  0  0  0  0  0
   33.5260   28.4680   45.6270 H   0  0  0  0  0  0  0  0  0  0  0  0
   32.2040   27.1700   49.3060 H   0  0  0  0  0  0  0  0  0  0  0  0
  1  7  1  1  0  0  0
  1  6  1  0  0  0  0
  2  3  1  0  0  0  0
  2  9  1  0  0  0  0
  2  1  1  0  0  0  0
  3 10  1  6  0  0  0
  3  4  1  0  0  0  0
  4 11  1  0  0  0  0
  4 12  1  0  0  0  0
  4  5  1  0  0  0  0
  5 14  1  0  0  0  0
  5 13  1  0  0  0  0
  6  5  1  0  0  0  0
  6 16  1  0  0  0  0
  8  2  1  0  0  0  0
 15  6  1  0  0  0  0
 17 18  1  0  0  0  0
 18 19  1  0  0  0  0
 19 20  2  0  0  0  0
 19  3  1  0  0  0  0
 20 24  1  0  0  0  0
 21 25  1  0  0  0  0
 21 20  1  0  0  0  0
 22 21  2  0  0  0  0
 23 22  1  0  0  0  0
 23 18  2  0  0  0  0
 26 22  1  0  0  0  0
 27 36  1  0  0  0  0
 27 28  1  0  0  0  0
 28 23  1  0  0  0  0
 29 28  2  0  0  0  0
 29 30  1  0  0  0  0
 31 29  1  0  0  0  0
 32 31  1  0  0  0  0
 33 34  1  0  0  0  0
 33 31  2  0  0  0  0
 34 27  2  0  0  0  0
 36 37  2  0  0  0  0
 36 35  1  0  0  0  0
 38 36  2  0  0  0  0
 39 44  1  0  0  0  0
 39  1  1  0  0  0  0
 40 39  2  0  0  0  0
 41 40  1  0  0  0  0
 41 42  2  0  0  0  0
 42 43  1  0  0  0  0
 43 47  1  0  0  0  0
 43 44  2  0  0  0  0
 45 40  1  0  0  0  0
 46 41  1  0  0  0  0
M  END
>  <minimizedAffinity>
-6.9944768

>  <minimizedRMSD>
1.66765749

$$$$
