
 OpenBabel03272510173D

 31 33  0  0  0  0  0  0  0  0999 V2000
   37.2090   29.2490   50.9140 Br  0  0  0  0  0  0  0  0  0  0  0  0
   35.9490   29.2910   49.4720 C   0  0  0  0  0  0  0  0  0  0  0  0
   36.0050   30.2770   48.5140 C   0  0  0  0  0  0  0  0  0  0  0  0
   35.0670   30.2390   47.5110 C   0  0  0  0  0  0  0  0  0  0  0  0
   34.0770   29.2620   47.4240 C   0  0  0  0  0  0  0  0  0  0  0  0
   34.0650   28.3040   48.4030 C   0  0  0  0  0  0  0  0  0  0  0  0
   34.9950   28.3190   49.4180 C   0  0  0  0  0  0  0  0  0  0  0  0
   35.1580   31.0500   46.7730 H   0  0  0  0  0  0  0  0  0  0  0  0
   33.2830   27.5660   48.2960 H   0  0  0  0  0  0  0  0  0  0  0  0
   34.9320   27.5290   50.1660 H   0  0  0  0  0  0  0  0  0  0  0  0
   37.8610   33.2080   49.6520 C   0  0  0  0  0  0  0  0  0  0  0  0
   38.9310   33.3080   48.7250 C   0  0  0  0  0  0  0  0  0  0  0  0
   38.9910   32.3520   47.7150 C   0  0  0  0  0  0  0  0  0  0  0  0
   38.0340   31.3820   47.6680 N   0  0  0  0  0  0  0  0  0  0  0  0
   37.0290   31.3190   48.5700 C   0  0  0  0  0  0  0  0  0  0  0  0
   36.9560   32.2370   49.5540 N   0  0  0  0  0  0  0  0  0  0  0  0
   37.7400   33.9170   50.4730 H   0  0  0  0  0  0  0  0  0  0  0  0
   39.6440   34.1090   48.8370 H   0  0  0  0  0  0  0  0  0  0  0  0
   39.7990   32.4010   46.9910 H   0  0  0  0  0  0  0  0  0  0  0  0
   33.5490   29.5200   44.9750 C   0  0  0  0  0  0  0  0  0  0  0  0
   33.1860   29.4100   46.2790 C   0  0  0  0  0  0  0  0  0  0  0  0
   31.8130   29.4440   46.5490 C   0  0  0  0  0  0  0  0  0  0  0  0
   31.4280   29.3620   47.5780 H   0  0  0  0  0  0  0  0  0  0  0  0
   30.8430   29.5790   45.6000 C   0  0  0  0  0  0  0  0  0  0  0  0
   29.7910   29.6030   45.8380 H   0  0  0  0  0  0  0  0  0  0  0  0
   31.2140   29.6900   44.2850 C   0  0  0  0  0  3  0  0  0  0  0  0
   32.5590   29.6590   44.0000 C   0  0  0  0  0  3  0  0  0  0  0  0
   35.9780   29.3910   45.7240 H   0  0  0  0  0  0  0  0  0  0  0  0
   35.2340   29.4800   44.5960 S   0  0  0  0  0  0  0  0  0  0  0  0
   35.5980   28.4440   43.5680 O   0  0  0  0  0  0  0  0  0  0  0  0
   35.5690   30.8300   43.9780 O   0  0  0  0  0  0  0  0  0  0  0  0
  2  1  1  0  0  0  0
  3 15  1  0  0  0  0
  3  2  2  0  0  0  0
  4  3  1  0  0  0  0
  5  4  2  0  0  0  0
  5  6  1  0  0  0  0
  6  7  2  0  0  0  0
  7  2  1  0  0  0  0
  7 10  1  0  0  0  0
  8  4  1  0  0  0  0
  9  6  1  0  0  0  0
 11 17  1  0  0  0  0
 12 18  1  0  0  0  0
 12 11  2  0  0  0  0
 13 12  1  0  0  0  0
 14 13  2  0  0  0  0
 14 15  1  0  0  0  0
 15 16  2  0  0  0  0
 16 11  1  0  0  0  0
 19 13  1  0  0  0  0
 20 21  1  0  0  0  0
 21 22  2  0  0  0  0
 21  5  1  0  0  0  0
 22 23  1  0  0  0  0
 24 25  1  0  0  0  0
 24 22  1  0  0  0  0
 26 24  2  0  0  0  0
 27 26  1  0  0  0  0
 27 20  2  0  0  0  0
 29 20  1  0  0  0  0
 29 28  1  0  0  0  0
 30 29  2  0  0  0  0
 31 29  2  0  0  0  0
M  END
>  <minimizedAffinity>
-5.69213343

>  <minimizedRMSD>
0.682566047

$$$$
