
 OpenBabel03272508543D

 41 44  0  0  1  0  0  0  0  0999 V2000
   39.0820   31.5280   43.3870 C   0  0  0  0  0  0  0  0  0  0  0  0
   40.2180   30.7870   43.5510 C   0  0  0  0  0  0  0  0  0  0  0  0
   40.9130   30.4560   42.4070 C   0  0  0  0  0  0  0  0  0  0  0  0
   40.4450   30.8730   41.1990 C   0  0  0  0  0  0  0  0  0  0  0  0
   39.3050   31.6200   41.0210 C   0  0  0  0  0  0  0  0  0  0  0  0
   38.6840   31.9020   42.1670 N   0  0  0  0  0  0  0  0  0  0  0  0
   40.5960   30.4530   44.5100 H   0  0  0  0  0  0  0  0  0  0  0  0
   41.8080   29.8750   42.5030 H   0  0  0  0  0  0  0  0  0  0  0  0
   41.0000   30.5500   40.3500 H   0  0  0  0  0  0  0  0  0  0  0  0
   37.9010   31.3990   38.9210 C   0  0  0  0  0  0  0  0  0  0  0  0
   38.6730   32.0830   39.8250 C   0  0  0  0  0  0  0  0  0  0  0  0
   38.8780   33.4210   39.4720 C   0  0  0  0  0  0  0  0  0  0  0  0
   39.4880   34.0620   40.1290 H   0  0  0  0  0  0  0  0  0  0  0  0
   38.3870   34.0540   38.3560 C   0  0  0  0  0  0  0  0  0  0  0  0
   38.5900   35.0830   38.1570 H   0  0  0  0  0  0  0  0  0  0  0  0
   37.6170   33.3240   37.4820 C   0  0  0  0  0  3  0  0  0  0  0  0
   37.3890   32.0030   37.7880 C   0  0  0  0  0  3  0  0  0  0  0  0
   36.6930   29.3090   38.1100 H   0  0  0  0  0  0  0  0  0  0  0  0
   37.6110   29.7140   39.1140 S   0  0  0  0  0  0  0  0  0  0  0  0
   38.7830   28.8280   38.8700 O   0  0  0  0  0  0  0  0  0  0  0  0
   36.9150   29.3310   40.3840 O   0  0  0  0  0  0  0  0  0  0  0  0
   38.2950   31.9030   44.5890 C   0  0  0  0  0  0  0  0  0  0  0  0
   37.1160   32.3460   44.4830 O   0  0  0  0  0  0  0  0  0  0  0  0
   38.9170   31.7470   45.8670 N   0  0  0  0  0  0  0  0  0  0  0  0
   39.9320   31.5510   46.0140 H   0  0  0  0  0  0  0  0  0  0  0  0
   38.4390   31.1960   48.2530 C   0  0  2  0  0  0  0  0  0  0  0  0
   38.7320   32.6370   48.2040 C   0  0  0  0  0  0  0  0  0  0  0  0
   38.0580   31.8720   47.0390 C   0  0  1  0  0  0  0  0  0  0  0  0
   39.3700   30.5690   48.2850 H   0  0  0  0  0  0  0  0  0  0  0  0
   39.7520   33.0050   48.0460 H   0  0  0  0  0  0  0  0  0  0  0  0
   38.0680   33.3710   48.6980 H   0  0  0  0  0  0  0  0  0  0  0  0
   36.9890   32.1510   46.8530 H   0  0  0  0  0  0  0  0  0  0  0  0
   35.1330   30.2140   49.5660 C   0  0  0  0  0  0  0  0  0  0  0  0
   35.4730   29.5420   50.7840 C   0  0  0  0  0  0  0  0  0  0  0  0
   36.8670   29.4560   51.1200 C   0  0  0  0  0  0  0  0  0  0  0  0
   37.7820   30.0040   50.2860 N   0  0  0  0  0  0  0  0  0  0  0  0
   37.3910   30.6290   49.1420 C   0  0  0  0  0  0  0  0  0  0  0  0
   36.0720   30.7510   48.7530 N   0  0  0  0  0  0  0  0  0  0  0  0
   34.0790   30.2710   49.3270 H   0  0  0  0  0  0  0  0  0  0  0  0
   34.6920   29.1280   51.4030 H   0  0  0  0  0  0  0  0  0  0  0  0
   37.1130   28.9530   52.0310 H   0  0  0  0  0  0  0  0  0  0  0  0
  1  2  1  0  0  0  0
  1 22  1  0  0  0  0
  2  7  1  0  0  0  0
  3  8  1  0  0  0  0
  3  2  2  0  0  0  0
  4  3  1  0  0  0  0
  5  4  2  0  0  0  0
  5  6  1  0  0  0  0
  6  1  2  0  0  0  0
  9  4  1  0  0  0  0
 10 19  1  0  0  0  0
 10 11  1  0  0  0  0
 11  5  1  0  0  0  0
 12 11  2  0  0  0  0
 12 13  1  0  0  0  0
 14 12  1  0  0  0  0
 15 14  1  0  0  0  0
 16 17  1  0  0  0  0
 16 14  2  0  0  0  0
 17 10  2  0  0  0  0
 18 19  1  0  0  0  0
 19 21  2  0  0  0  0
 20 19  2  0  0  0  0
 22 24  1  0  0  0  0
 23 22  2  0  0  0  0
 24 25  1  0  0  0  0
 24 28  1  0  0  0  0
 26 29  1  6  0  0  0
 26 37  1  0  0  0  0
 27 26  1  0  0  0  0
 27 31  1  0  0  0  0
 28 32  1  6  0  0  0
 28 27  1  0  0  0  0
 28 26  1  0  0  0  0
 30 27  1  0  0  0  0
 33 34  1  0  0  0  0
 34 35  2  0  0  0  0
 34 40  1  0  0  0  0
 35 41  1  0  0  0  0
 36 35  1  0  0  0  0
 37 36  2  0  0  0  0
 38 37  1  0  0  0  0
 38 33  2  0  0  0  0
 39 33  1  0  0  0  0
M  END
>  <minimizedAffinity>
-4.97894382

>  <minimizedRMSD>
0.538943887

$$$$
