
 OpenBabel03272506123D

 47 50  0  0  1  0  0  0  0  0999 V2000
   36.8250   30.7040   45.5600 C   0  0  1  0  0  0  0  0  0  0  0  0
   35.5780   29.7580   45.6870 C   0  0  0  0  0  0  0  0  0  0  0  0
   34.5860   30.2470   46.7300 C   0  0  0  0  0  0  0  0  0  0  0  0
   35.3140   30.6400   47.9670 C   0  0  0  0  0  0  0  0  0  0  0  0
   36.6660   30.0360   47.9780 C   0  0  0  0  0  0  0  0  0  0  0  0
   37.5200   30.5590   46.8810 C   0  0  2  0  0  0  0  0  0  0  0  0
   36.5060   31.6990   45.6530 H   0  0  0  0  0  0  0  0  0  0  0  0
   36.0120   28.8220   46.0890 H   0  0  0  0  0  0  0  0  0  0  0  0
   35.1510   29.5250   44.7190 H   0  0  0  0  0  0  0  0  0  0  0  0
   33.9900   31.1040   46.3590 H   0  0  0  0  0  0  0  0  0  0  0  0
   33.8790   29.4160   46.8670 H   0  0  0  0  0  0  0  0  0  0  0  0
   35.2380   31.6980   48.2570 H   0  0  0  0  0  0  0  0  0  0  0  0
   34.7510   30.1160   48.8160 H   0  0  0  0  0  0  0  0  0  0  0  0
   37.1230   30.4120   48.9390 H   0  0  0  0  0  0  0  0  0  0  0  0
   36.6140   28.9540   48.0930 H   0  0  0  0  0  0  0  0  0  0  0  0
   38.3140   29.8040   46.7790 H   0  0  0  0  0  0  0  0  0  0  0  0
   37.2130   30.6850   43.1750 C   0  0  0  0  0  0  0  0  0  0  0  0
   38.0400   30.2430   42.1210 C   0  0  0  0  0  0  0  0  0  0  0  0
   39.0790   29.3720   42.2550 C   0  0  0  0  0  0  0  0  0  0  0  0
   39.3750   28.8540   43.5160 C   0  0  0  0  0  0  0  0  0  0  0  0
   38.5720   29.2810   44.5470 C   0  0  0  0  0  0  0  0  0  0  0  0
   37.5200   30.1680   44.4120 C   0  0  0  0  0  0  0  0  0  0  0  0
   37.9450   30.5680   41.0650 H   0  0  0  0  0  0  0  0  0  0  0  0
   39.6710   29.0790   41.4260 H   0  0  0  0  0  0  0  0  0  0  0  0
   40.2090   28.1630   43.5790 H   0  0  0  0  0  0  0  0  0  0  0  0
   38.8940   28.7860   45.4500 H   0  0  0  0  0  0  0  0  0  0  0  0
   34.9430   30.9630   42.3790 C   0  0  0  0  0  0  0  0  0  0  0  0
   36.1680   31.5560   42.7820 C   0  0  0  0  0  0  0  0  0  0  0  0
   36.2420   32.9390   42.7500 C   0  0  0  0  0  0  0  0  0  0  0  0
   35.1390   33.6420   42.3350 N   0  0  0  0  0  0  0  0  0  0  0  0
   33.9990   33.0680   41.9610 C   0  0  0  0  0  0  0  0  0  0  0  0
   33.9140   31.7310   41.9870 N   0  0  0  0  0  0  0  0  0  0  0  0
   34.6490   29.9250   42.3330 H   0  0  0  0  0  0  0  0  0  0  0  0
   36.9890   33.5990   42.9510 H   0  0  0  0  0  0  0  0  0  0  0  0
   33.1370   33.6650   41.6340 H   0  0  0  0  0  0  0  0  0  0  0  0
   38.5940   32.1740   48.5590 C   0  0  0  0  0  0  0  0  0  0  0  0
   38.3150   31.7770   47.2660 C   0  0  0  0  0  0  0  0  0  0  0  0
   38.8310   32.5310   46.2390 C   0  0  0  0  0  0  0  0  0  0  0  0
   38.7280   32.3740   45.1790 H   0  0  0  0  0  0  0  0  0  0  0  0
   39.6120   33.6600   46.4270 C   0  0  0  0  0  0  0  0  0  0  0  0
   40.0500   34.2980   45.6770 H   0  0  0  0  0  0  0  0  0  0  0  0
   39.9070   34.0770   47.7290 C   0  0  0  0  0  0  0  0  0  0  0  0
   39.3850   33.3170   48.7530 C   0  0  0  0  0  0  0  0  0  0  0  0
   38.7660   31.6670   50.9990 H   0  0  0  0  0  0  0  0  0  0  0  0
   37.9660   31.2960   49.9060 S   0  0  0  0  0  0  0  0  0  0  0  0
   38.1700   29.8050   49.8110 O   0  0  0  0  0  0  0  0  0  0  0  0
   36.5910   31.6340   50.3410 O   0  0  0  0  0  0  0  0  0  0  0  0
  1  7  1  6  0  0  0
  1  2  1  0  0  0  0
  1  6  1  0  0  0  0
  2  8  1  0  0  0  0
  2  3  1  0  0  0  0
  3 11  1  0  0  0  0
  3  4  1  0  0  0  0
  4  5  1  0  0  0  0
  4 12  1  0  0  0  0
  4 13  1  0  0  0  0
  5 15  1  0  0  0  0
  5 14  1  0  0  0  0
  6 16  1  6  0  0  0
  6 37  1  0  0  0  0
  6  5  1  0  0  0  0
  9  2  1  0  0  0  0
 10  3  1  0  0  0  0
 17 22  1  0  0  0  0
 18 19  1  0  0  0  0
 18 17  2  0  0  0  0
 19 20  2  0  0  0  0
 20 25  1  0  0  0  0
 20 21  1  0  0  0  0
 21 26  1  0  0  0  0
 22 21  2  0  0  0  0
 22  1  1  0  0  0  0
 23 18  1  0  0  0  0
 24 19  1  0  0  0  0
 27 28  1  0  0  0  0
 28 17  1  0  0  0  0
 29 28  2  0  0  0  0
 29 34  1  0  0  0  0
 30 29  1  0  0  0  0
 31 32  1  0  0  0  0
 31 30  2  0  0  0  0
 32 27  2  0  0  0  0
 33 27  1  0  0  0  0
 35 31  1  0  0  0  0
 36 43  1  0  0  0  0
 36 45  1  0  0  0  0
 37 36  2  0  0  0  0
 38 40  2  0  0  0  0
 38 37  1  0  0  0  0
 39 38  1  0  0  0  0
 40 42  1  0  0  0  0
 41 40  1  0  0  0  0
 42 43  2  0  0  0  0
 45 47  2  0  0  0  0
 45 44  1  0  0  0  0
 46 45  2  0  0  0  0
M  END
>  <minimizedAffinity>
-4.99742031

>  <minimizedRMSD>
4.28797007

$$$$
