
 OpenBabel03272508543D

 41 44  0  0  1  0  0  0  0  0999 V2000
   39.0820   31.5270   43.3870 C   0  0  0  0  0  0  0  0  0  0  0  0
   40.2180   30.7860   43.5510 C   0  0  0  0  0  0  0  0  0  0  0  0
   40.9130   30.4560   42.4060 C   0  0  0  0  0  0  0  0  0  0  0  0
   40.4440   30.8730   41.1990 C   0  0  0  0  0  0  0  0  0  0  0  0
   39.3050   31.6200   41.0210 C   0  0  0  0  0  0  0  0  0  0  0  0
   38.6840   31.9020   42.1660 N   0  0  0  0  0  0  0  0  0  0  0  0
   40.5950   30.4520   44.5100 H   0  0  0  0  0  0  0  0  0  0  0  0
   41.8080   29.8740   42.5030 H   0  0  0  0  0  0  0  0  0  0  0  0
   41.0000   30.5500   40.3490 H   0  0  0  0  0  0  0  0  0  0  0  0
   37.9000   31.3990   38.9210 C   0  0  0  0  0  0  0  0  0  0  0  0
   38.6730   32.0830   39.8250 C   0  0  0  0  0  0  0  0  0  0  0  0
   38.8780   33.4220   39.4710 C   0  0  0  0  0  0  0  0  0  0  0  0
   39.4880   34.0610   40.1290 H   0  0  0  0  0  0  0  0  0  0  0  0
   38.3870   34.0540   38.3550 C   0  0  0  0  0  0  0  0  0  0  0  0
   38.5900   35.0840   38.1570 H   0  0  0  0  0  0  0  0  0  0  0  0
   37.6170   33.3240   37.4830 C   0  0  0  0  0  3  0  0  0  0  0  0
   37.3890   32.0030   37.7880 C   0  0  0  0  0  3  0  0  0  0  0  0
   36.6910   29.3100   38.1110 H   0  0  0  0  0  0  0  0  0  0  0  0
   37.6100   29.7160   39.1140 S   0  0  0  0  0  0  0  0  0  0  0  0
   38.7810   28.8280   38.8710 O   0  0  0  0  0  0  0  0  0  0  0  0
   36.9140   29.3320   40.3840 O   0  0  0  0  0  0  0  0  0  0  0  0
   38.2950   31.9030   44.5890 C   0  0  0  0  0  0  0  0  0  0  0  0
   37.1160   32.3450   44.4830 O   0  0  0  0  0  0  0  0  0  0  0  0
   38.9170   31.7460   45.8670 N   0  0  0  0  0  0  0  0  0  0  0  0
   39.9320   31.5510   46.0140 H   0  0  0  0  0  0  0  0  0  0  0  0
   38.4380   31.1960   48.2530 C   0  0  2  0  0  0  0  0  0  0  0  0
   38.7320   32.6370   48.2040 C   0  0  0  0  0  0  0  0  0  0  0  0
   38.0570   31.8720   47.0390 C   0  0  1  0  0  0  0  0  0  0  0  0
   39.3700   30.5690   48.2840 H   0  0  0  0  0  0  0  0  0  0  0  0
   39.7520   33.0050   48.0460 H   0  0  0  0  0  0  0  0  0  0  0  0
   38.0670   33.3700   48.6980 H   0  0  0  0  0  0  0  0  0  0  0  0
   36.9880   32.1500   46.8530 H   0  0  0  0  0  0  0  0  0  0  0  0
   35.1330   30.2130   49.5660 C   0  0  0  0  0  0  0  0  0  0  0  0
   35.4730   29.5420   50.7840 C   0  0  0  0  0  0  0  0  0  0  0  0
   36.8670   29.4560   51.1200 C   0  0  0  0  0  0  0  0  0  0  0  0
   37.7820   30.0050   50.2860 N   0  0  0  0  0  0  0  0  0  0  0  0
   37.3910   30.6290   49.1420 C   0  0  0  0  0  0  0  0  0  0  0  0
   36.0720   30.7500   48.7530 N   0  0  0  0  0  0  0  0  0  0  0  0
   34.0790   30.2690   49.3260 H   0  0  0  0  0  0  0  0  0  0  0  0
   34.6920   29.1270   51.4030 H   0  0  0  0  0  0  0  0  0  0  0  0
   37.1130   28.9540   52.0310 H   0  0  0  0  0  0  0  0  0  0  0  0
  1  2  1  0  0  0  0
  1 22  1  0  0  0  0
  2  7  1  0  0  0  0
  3  8  1  0  0  0  0
  3  2  2  0  0  0  0
  4  3  1  0  0  0  0
  5  4  2  0  0  0  0
  5  6  1  0  0  0  0
  6  1  2  0  0  0  0
  9  4  1  0  0  0  0
 10 19  1  0  0  0  0
 10 11  1  0  0  0  0
 11  5  1  0  0  0  0
 12 11  2  0  0  0  0
 12 13  1  0  0  0  0
 14 12  1  0  0  0  0
 15 14  1  0  0  0  0
 16 17  1  0  0  0  0
 16 14  2  0  0  0  0
 17 10  2  0  0  0  0
 18 19  1  0  0  0  0
 19 21  2  0  0  0  0
 20 19  2  0  0  0  0
 22 24  1  0  0  0  0
 23 22  2  0  0  0  0
 24 25  1  0  0  0  0
 24 28  1  0  0  0  0
 26 29  1  6  0  0  0
 26 37  1  0  0  0  0
 27 26  1  0  0  0  0
 27 31  1  0  0  0  0
 28 32  1  6  0  0  0
 28 27  1  0  0  0  0
 28 26  1  0  0  0  0
 30 27  1  0  0  0  0
 33 34  1  0  0  0  0
 34 35  2  0  0  0  0
 34 40  1  0  0  0  0
 35 41  1  0  0  0  0
 36 35  1  0  0  0  0
 37 36  2  0  0  0  0
 38 37  1  0  0  0  0
 38 33  2  0  0  0  0
 39 33  1  0  0  0  0
M  END
>  <minimizedAffinity>
-4.97914171

>  <minimizedRMSD>
0.61869967

$$$$
