
     RDKit          3D

 35 37  0  0  0  0  0  0  0  0999 V2000
   34.9381   28.7992   48.6860 C   0  0  0  0  0  0  0  0  0  0  0  0
   34.5941   27.8560   49.4933 O   0  0  0  0  0  0  0  0  0  0  0  0
   32.9994   30.5798   46.2004 C   0  0  0  0  0  0  0  0  0  0  0  0
   32.8163   29.6442   45.1711 C   0  0  0  0  0  0  0  0  0  0  0  0
   33.3673   28.3703   45.3358 C   0  0  0  0  0  0  0  0  0  0  0  0
   34.0617   28.0808   46.4862 N   0  0  0  0  0  0  0  0  0  0  0  0
   34.2132   28.9976   47.4395 C   0  0  0  0  0  0  0  0  0  0  0  0
   33.6874   30.2094   47.2810 N   0  0  0  0  0  0  0  0  0  0  0  0
   36.0660   29.5835   49.1512 C   0  0  0  0  0  0  0  0  0  0  0  0
   36.2708   29.7057   50.5299 C   0  0  0  0  0  0  0  0  0  0  0  0
   37.3551   30.4244   51.0556 C   0  0  0  0  0  0  0  0  0  0  0  0
   38.2589   31.0375   50.1598 C   0  0  0  0  0  0  0  0  0  0  0  0
   38.0384   30.9051   48.7917 C   0  0  0  0  0  0  0  0  0  0  0  0
   36.9613   30.1914   48.2935 C   0  0  0  0  0  0  0  0  0  0  0  0
   32.5415   31.5334   45.9881 H   0  0  0  0  0  0  0  0  0  0  0  0
   32.2888   29.7693   44.2285 H   0  0  0  0  0  0  0  0  0  0  0  0
   33.3152   27.5428   44.6409 H   0  0  0  0  0  0  0  0  0  0  0  0
   35.5845   29.2402   51.2217 H   0  0  0  0  0  0  0  0  0  0  0  0
   37.5040   30.5124   52.1185 H   0  0  0  0  0  0  0  0  0  0  0  0
   39.0861   31.5851   50.5942 H   0  0  0  0  0  0  0  0  0  0  0  0
   38.7872   31.4115   48.1993 H   0  0  0  0  0  0  0  0  0  0  0  0
   36.6427   32.8973   47.8590 H   0  0  0  0  0  0  0  0  0  0  0  0
   37.2585   32.7860   46.6421 S   0  0  0  0  0  0  0  0  0  0  0  0
   38.7097   33.1055   46.8194 O   0  0  0  0  0  0  0  0  0  0  0  0
   36.6573   33.8783   45.7788 O   0  0  0  0  0  0  0  0  0  0  0  0
   36.9905   31.2168   45.9160 C   0  0  0  0  0  0  0  0  0  0  0  0
   36.9149   30.2021   46.8479 C   0  0  0  0  0  0  0  0  0  0  0  0
   36.7273   28.8979   46.3708 C   0  0  0  0  0  0  0  0  0  0  0  0
   36.6453   27.9738   46.9594 H   0  0  0  0  0  0  0  0  0  0  0  0
   36.6207   28.6446   44.9981 C   0  0  0  0  0  0  0  0  0  0  0  0
   36.4757   27.6549   44.5878 H   0  0  0  0  0  0  0  0  0  0  0  0
   36.6986   29.6773   44.0866 C   0  0  0  0  0  0  0  0  0  0  0  0
   36.8835   30.9545   44.5687 C   0  0  0  0  0  0  0  0  0  0  0  0
   36.6303   29.6035   43.0162 H   0  0  0  0  0  0  0  0  0  0  0  0
   36.9665   31.8802   43.9911 H   0  0  0  0  0  0  0  0  0  0  0  0
  1  9  1  0
  1  2  2  0
  3  8  2  0
  4  5  2  0
  4  3  1  0
  5  6  1  0
  6  7  2  0
  7  1  1  0
  8  7  1  0
  9 10  2  0
 10 11  1  0
 12 11  2  0
 13 12  1  0
 14 13  2  0
 14  9  1  0
  3 15  1  0
  4 16  1  0
  5 17  1  0
 10 18  1  0
 11 19  1  0
 12 20  1  0
 13 21  1  0
 22 23  1  0
 23 24  2  0
 23 25  2  0
 23 26  1  0
 26 27  2  0
 27 28  1  0
 28 29  1  0
 28 30  2  0
 30 31  1  0
 30 32  1  0
 32 33  2  0
 33 26  1  0
 32 34  1  0
 33 35  1  0
 14 27  1  0
M  ISO  8  15  14  16  14  17  14  18  14  19  14  20  14  21  14  22  12
M  ISO  2  29  15  31  16
M  END
>  <DihAtoms>  (1) 
12,13,26,25

>  <DihDeg>  (1) 
-79.94388530950967

$$$$
