
     RDKit          3D

 24 25  0  0  0  0  0  0  0  0999 V2000
   37.3041   29.9969   51.1780 C   0  0  0  0  0  0  0  0  0  0  0  0
   37.9505   30.9169   50.3528 C   0  0  0  0  0  0  0  0  0  0  0  0
   37.2722   31.3825   49.2388 C   0  0  0  0  0  0  0  0  0  0  0  0
   36.0198   30.9208   49.0099 N   0  0  0  0  0  0  0  0  0  0  0  0
   35.3977   30.0293   49.8125 C   0  0  0  0  0  0  0  0  0  0  0  0
   36.0635   29.5905   50.8808 N   0  0  0  0  0  0  0  0  0  0  0  0
   38.0863   29.6071   52.2593 O   0  0  0  0  0  0  0  0  0  0  0  0
   38.9480   31.3115   50.4980 H   0  0  0  0  0  0  0  0  0  0  0  0
   37.7078   32.0829   48.5713 H   0  0  0  0  0  0  0  0  0  0  0  0
   38.7272   28.8480   52.1426 H   0  0  0  0  0  0  0  0  0  0  0  0
   34.6801   31.7794   47.3528 H   0  0  0  0  0  0  0  0  0  0  0  0
   34.2501   30.5299   47.0254 S   0  0  0  0  0  0  0  0  0  0  0  0
   33.2837   30.5939   45.8501 O   0  0  0  0  0  0  0  0  0  0  0  0
   35.4153   29.7061   46.4935 O   0  0  0  0  0  0  0  0  0  0  0  0
   33.4322   29.7103   48.3329 C   0  0  0  0  0  0  0  0  0  0  0  0
   34.0483   29.5390   49.5559 C   0  0  0  0  0  0  0  0  0  0  0  0
   33.3384   28.8791   50.5464 C   0  0  0  0  0  0  0  0  0  0  0  0
   33.8445   28.7555   51.5032 H   0  0  0  0  0  0  0  0  0  0  0  0
   32.0647   28.3926   50.3709 C   0  0  0  0  0  0  0  0  0  0  0  0
   31.5533   27.8883   51.1655 H   0  0  0  0  0  0  0  0  0  0  0  0
   31.4272   28.5476   49.1677 C   0  0  0  0  0  0  0  0  0  0  0  0
   32.1372   29.2051   48.1839 C   0  0  0  0  0  0  0  0  0  0  0  0
   30.4283   28.1948   48.9493 H   0  0  0  0  0  0  0  0  0  0  0  0
   31.6678   29.3520   47.2060 H   0  0  0  0  0  0  0  0  0  0  0  0
  1  7  1  0
  2  1  2  0
  3  2  1  0
  4  3  2  0
  4  5  1  0
  5  6  2  0
  6  1  1  0
  2  8  1  0
  3  9  1  0
  7 10  1  0
 11 12  1  0
 12 13  2  0
 12 14  2  0
 12 15  1  0
 15 16  2  0
 16 17  1  0
 17 18  1  0
 17 19  2  0
 19 20  1  0
 19 21  1  0
 21 22  2  0
 22 15  1  0
 21 23  1  0
 22 24  1  0
  5 16  1  0
M  ISO  6   8  14   9  14  10   3  11  12  18  15  20  16
M  END
>  <DihAtoms>  (1) 
3,4,15,14

>  <DihDeg>  (1) 
-0.00506283691891109

$$$$
