REMARK  Name = 
REMARK  5 active torsions:
REMARK  status: ('A' for Active; 'I' for Inactive)
REMARK    1  A    between atoms: N_1  and  C_11
REMARK    2  A    between atoms: C_3  and  C_15
REMARK    3  A    between atoms: N_6  and  C_21
REMARK    4  A    between atoms: C_19  and  C_37
REMARK    5  A    between atoms: S_33  and  C_36
REMARK                            x       y       z     vdW  Elec       q    Type
REMARK                         _______ _______ _______ _____ _____    ______ ____
ROOT
ATOM      1  N   UNL     1      37.370  31.060  47.145  0.00  0.00    +0.000 N 
ATOM      2  C   UNL     1      36.785  30.717  45.967  0.00  0.00    +0.000 A 
ATOM      3  C   UNL     1      37.247  31.187  44.750  0.00  0.00    +0.000 A 
ATOM      4  C   UNL     1      38.362  32.045  44.762  0.00  0.00    +0.000 A 
ATOM      5  O   UNL     1      38.818  32.496  43.686  0.00  0.00    +0.000 OA
ATOM      6  N   UNL     1      38.945  32.384  45.963  0.00  0.00    +0.000 N 
ATOM      7  C   UNL     1      38.411  31.871  47.054  0.00  0.00    +0.000 A 
ATOM      8  O   UNL     1      38.974  32.207  48.122  0.00  0.00    +0.000 OA
ATOM      9  H   UNL     1      35.920  30.052  45.952  0.00  0.00    +0.000 HD
ENDROOT
BRANCH   1  12
ATOM     10  C   UNL     1      37.242  29.475  50.502  0.00  0.00    +0.000 A 
ATOM     11  C   UNL     1      37.739  29.957  49.273  0.00  0.00    +0.000 A 
ATOM     12  C   UNL     1      36.891  30.578  48.363  0.00  0.00    +0.000 A 
ATOM     13  N   UNL     1      35.598  30.694  48.706  0.00  0.00    +0.000 NA
ATOM     14  C   UNL     1      35.096  30.237  49.885  0.00  0.00    +0.000 A 
ATOM     15  N   UNL     1      35.942  29.627  50.772  0.00  0.00    +0.000 NA
ATOM     16  H   UNL     1      37.934  29.001  51.175  0.00  0.00    +0.000 HD
ATOM     17  H   UNL     1      38.779  29.847  49.034  0.00  0.00    +0.000 HD
ATOM     18  H   UNL     1      34.057  30.340  50.138  0.00  0.00    +0.000 HD
ENDBRANCH   1  12
BRANCH   3  19
ATOM     19  C   UNL     1      36.659  30.852  43.471  0.00  0.00    +0.000 A 
ATOM     20  C   UNL     1      37.003  29.764  42.724  0.00  0.00    +0.000 A 
ATOM     21  C   UNL     1      36.458  29.428  41.511  0.00  0.00    +0.000 A 
ATOM     22  C   UNL     1      35.467  30.265  40.986  0.00  0.00    +0.000 A 
ATOM     23  C   UNL     1      35.132  31.362  41.756  0.00  0.00    +0.000 A 
ATOM     24  N   UNL     1      35.718  31.597  42.916  0.00  0.00    +0.000 NA
ATOM     25  H   UNL     1      37.773  29.077  43.088  0.00  0.00    +0.000 HD
ATOM     26  H   UNL     1      36.756  28.549  40.937  0.00  0.00    +0.000 HD
ATOM     27  H   UNL     1      35.050  30.003  40.051  0.00  0.00    +0.000 HD
BRANCH  23  29
ATOM     28  C   UNL     1      32.948  32.495  42.035  0.00  0.00    +0.000 A 
ATOM     29  C   UNL     1      34.107  32.282  41.278  0.00  0.00    +0.000 A 
ATOM     30  C   UNL     1      34.213  32.975  40.091  0.00  0.00    +0.000 A 
ATOM     31  H   UNL     1      35.068  32.865  39.458  0.00  0.00    +0.000 HD
ATOM     32  C   UNL     1      33.270  33.855  39.599  0.00  0.00    +0.000 A 
ATOM     33  H   UNL     1      33.386  34.382  38.663  0.00  0.00    +0.000 HD
ATOM     34  C   UNL     1      32.127  34.071  40.336  0.00  0.00    +0.000 A 
ATOM     35  C   UNL     1      31.997  33.390  41.526  0.00  0.00    +0.000 A 
BRANCH  28  37
ATOM     36  H   UNL     1      33.660  31.940  44.483  0.00  0.00    +0.000 HD
ATOM     37  S   UNL     1      32.685  31.684  43.556  0.00  0.00    +0.000 S 
ATOM     38  O   UNL     1      32.381  30.225  43.406  0.00  0.00    +0.000 OA
ATOM     39  O   UNL     1      31.421  32.284  44.159  0.00  0.00    +0.000 OA
ENDBRANCH  28  37
ENDBRANCH  23  29
ENDBRANCH   3  19
BRANCH   6  40
ATOM     40  C   UNL     1      40.088  33.264  45.969  0.00  0.00    +0.000 C 
ATOM     41  F   UNL     1      39.965  34.227  45.034  0.00  0.00    +0.000 F 
ATOM     42  F   UNL     1      41.284  32.608  45.690  0.00  0.00    +0.000 F 
ATOM     43  F   UNL     1      40.165  33.887  47.219  0.00  0.00    +0.000 F 
ENDBRANCH   6  40
TORSDOF 5
