
 OpenBabel03272507203D

 33 35  0  0  1  0  0  0  0  0999 V2000
   37.1730   31.1270   49.1220 C   0  0  0  0  0  0  0  0  0  0  0  0
   37.9060   32.2910   49.2380 C   0  0  0  0  0  0  0  0  0  0  0  0
   38.5430   32.7190   48.0760 C   0  0  0  0  0  0  0  0  0  0  0  0
   38.4170   31.9900   46.9140 N   0  0  0  0  0  0  0  0  0  0  0  0
   37.6860   30.8600   46.8700 C   0  0  0  0  0  0  0  0  0  0  0  0
   37.0490   30.4040   47.9740 N   0  0  0  0  0  0  0  0  0  0  0  0
   37.9640   32.8150   50.1790 H   0  0  0  0  0  0  0  0  0  0  0  0
   39.1220   33.6220   48.1330 H   0  0  0  0  0  0  0  0  0  0  0  0
   37.0000   30.2610   44.4640 C   0  0  0  0  0  0  0  0  0  0  0  0
   37.8640   30.5030   45.4900 C   0  0  0  0  0  0  0  0  0  0  0  0
   39.2390   30.4050   45.2440 C   0  0  0  0  0  0  0  0  0  0  0  0
   40.1580   30.5320   45.8280 H   0  0  0  0  0  0  0  0  0  0  0  0
   39.6480   30.0640   43.9490 C   0  0  0  0  0  0  0  0  0  0  0  0
   40.6610   29.9470   43.5900 H   0  0  0  0  0  0  0  0  0  0  0  0
   38.6970   29.8400   42.9790 C   0  0  0  0  0  3  0  0  0  0  0  0
   37.3410   29.9250   43.1780 C   0  0  0  0  0  3  0  0  0  0  0  0
   35.2860   31.1200   46.1300 H   0  0  0  0  0  0  0  0  0  0  0  0
   35.3300   30.4000   44.9650 S   0  0  0  0  0  0  0  0  0  0  0  0
   34.9080   28.9660   45.2730 O   0  0  0  0  0  0  0  0  0  0  0  0
   34.4690   30.9880   43.9140 O   0  0  0  0  0  0  0  0  0  0  0  0
   36.4430   30.6840   50.3540 C   0  0  1  0  0  0  0  0  0  0  0  0
   35.7580   29.3950   50.4230 C   0  0  2  0  0  0  0  0  0  0  0  0
   37.1230   29.4770   51.0340 C   0  0  0  0  0  0  0  0  0  0  0  0
   36.1740   31.5070   51.0500 H   0  0  0  0  0  0  0  0  0  0  0  0
   34.8170   29.4320   51.0550 H   0  0  0  0  0  0  0  0  0  0  0  0
   37.9490   28.9690   50.4960 H   0  0  0  0  0  0  0  0  0  0  0  0
   37.2360   29.5570   52.1250 H   0  0  0  0  0  0  0  0  0  0  0  0
   35.5880   28.7010   49.2340 O   0  0  0  0  0  0  0  0  0  0  0  0
   34.4440   28.3700   48.5840 C   0  0  0  0  0  0  0  0  0  0  0  0
   34.1080   27.1870   48.4080 O   0  0  0  0  0  0  0  0  0  0  0  0
   33.7940   29.5410   48.1930 N   0  0  0  0  0  0  0  0  0  0  0  0
   34.1770   30.3460   47.6490 H   0  0  0  0  0  0  0  0  0  0  0  0
   32.9690   30.1880   48.1320 H   0  0  0  0  0  0  0  0  0  0  0  0
  1  2  1  0  0  0  0
  1 21  1  0  0  0  0
  2  7  1  0  0  0  0
  3  8  1  0  0  0  0
  3  2  2  0  0  0  0
  4  3  1  0  0  0  0
  5  4  2  0  0  0  0
  5  6  1  0  0  0  0
  6  1  2  0  0  0  0
  9 18  1  0  0  0  0
  9 10  1  0  0  0  0
 10  5  1  0  0  0  0
 11 10  2  0  0  0  0
 11 12  1  0  0  0  0
 13 11  1  0  0  0  0
 14 13  1  0  0  0  0
 15 16  1  0  0  0  0
 15 13  2  0  0  0  0
 16  9  2  0  0  0  0
 18 19  2  0  0  0  0
 18 17  1  0  0  0  0
 20 18  2  0  0  0  0
 21 22  1  0  0  0  0
 21 23  1  0  0  0  0
 21 24  1  1  0  0  0
 22 23  1  0  0  0  0
 22 25  1  1  0  0  0
 23 27  1  0  0  0  0
 26 23  1  0  0  0  0
 28 22  1  0  0  0  0
 29 28  1  0  0  0  0
 30 29  2  0  0  0  0
 31 29  1  0  0  0  0
 32 31  1  0  0  0  0
 33 31  1  0  0  0  0
M  END
>  <minimizedAffinity>
-5.35397196

>  <minimizedRMSD>
0.989908516

$$$$
