
 OpenBabel03262522103D

 32 34  0  0  0  0  0  0  0  0999 V2000
   38.1830   31.7540   46.1870 C   0  0  0  0  0  0  0  0  0  0  0  0
   39.1170   32.4490   46.9230 C   0  0  0  0  0  0  0  0  0  0  0  0
   40.1130   33.1660   46.2640 C   0  0  0  0  0  0  0  0  0  0  0  0
   40.0820   33.1190   44.8780 C   0  0  0  0  0  0  0  0  0  0  0  0
   39.1490   32.4240   44.1570 C   0  0  0  0  0  0  0  0  0  0  0  0
   38.2040   31.7440   44.8370 N   0  0  0  0  0  0  0  0  0  0  0  0
   39.0860   32.4470   48.0040 H   0  0  0  0  0  0  0  0  0  0  0  0
   40.8360   33.7060   46.8350 H   0  0  0  0  0  0  0  0  0  0  0  0
   40.8790   33.6940   44.4330 H   0  0  0  0  0  0  0  0  0  0  0  0
   39.7770   31.3680   42.0170 C   0  0  0  0  0  0  0  0  0  0  0  0
   39.1640   32.4080   42.6980 C   0  0  0  0  0  0  0  0  0  0  0  0
   38.5760   33.4130   41.9600 C   0  0  0  0  0  0  0  0  0  0  0  0
   38.0780   34.2610   42.4070 H   0  0  0  0  0  0  0  0  0  0  0  0
   38.5630   33.4440   40.5770 C   0  0  0  0  0  0  0  0  0  0  0  0
   38.1000   34.2380   40.0050 H   0  0  0  0  0  0  0  0  0  0  0  0
   39.1610   32.4300   39.8760 C   0  0  0  0  0  0  0  0  0  0  0  0
   39.7430   31.4350   40.6330 C   0  0  0  0  0  0  0  0  0  0  0  0
   41.2330   30.4540   43.9180 H   0  0  0  0  0  0  0  0  0  0  0  0
   40.5530   30.0400   42.8030 S   0  0  0  0  0  0  0  0  0  0  0  0
   41.5930   29.4720   41.8450 O   0  0  0  0  0  0  0  0  0  0  0  0
   39.6190   28.9280   43.1750 O   0  0  0  0  0  0  0  0  0  0  0  0
   37.1720   31.0250   46.9350 C   0  0  0  0  0  0  0  0  0  0  0  0
   36.2240   30.4860   46.3630 O   0  0  0  0  0  0  0  0  0  0  0  0
   37.5310   29.6220   48.9560 C   0  0  0  0  0  0  0  0  0  0  0  0
   37.2290   30.8920   48.4010 C   0  0  0  0  0  0  0  0  0  0  0  0
   37.0020   31.9490   49.2500 C   0  0  0  0  0  0  0  0  0  0  0  0
   37.0730   31.7440   50.6010 N   0  0  0  0  0  0  0  0  0  0  0  0
   37.3670   30.5060   51.1080 C   0  0  0  0  0  0  0  0  0  0  0  0
   37.5890   29.4810   50.3070 N   0  0  0  0  0  0  0  0  0  0  0  0
   37.7130   28.7810   48.3000 H   0  0  0  0  0  0  0  0  0  0  0  0
   36.7690   32.9260   48.8400 H   0  0  0  0  0  0  0  0  0  0  0  0
   37.4050   30.4290   52.1930 H   0  0  0  0  0  0  0  0  0  0  0  0
  1  2  1  0  0  0  0
  1 22  1  0  0  0  0
  2  7  1  0  0  0  0
  3  8  1  0  0  0  0
  3  2  2  0  0  0  0
  4  3  1  0  0  0  0
  5  6  1  0  0  0  0
  5  4  2  0  0  0  0
  6  1  2  0  0  0  0
  9  4  1  0  0  0  0
 10 11  1  0  0  0  0
 10 19  1  0  0  0  0
 11  5  1  0  0  0  0
 12 13  1  0  0  0  0
 12 11  2  0  0  0  0
 14 12  1  0  0  0  0
 15 14  1  0  0  0  0
 16 14  2  0  0  0  0
 16 17  1  0  0  0  0
 17 10  2  0  0  0  0
 19 21  2  0  0  0  0
 19 18  1  0  0  0  0
 20 19  2  0  0  0  0
 22 25  1  0  0  0  0
 23 22  2  0  0  0  0
 24 29  1  0  0  0  0
 25 24  2  0  0  0  0
 25 26  1  0  0  0  0
 26 27  2  0  0  0  0
 27 28  1  0  0  0  0
 28 32  1  0  0  0  0
 29 28  2  0  0  0  0
 30 24  1  0  0  0  0
 31 26  1  0  0  0  0
M  END
>  <minimizedAffinity>
-5.37767363

>  <minimizedRMSD>
3.42823315

$$$$
