
 OpenBabel03272506133D

 47 50  0  0  1  0  0  0  0  0999 V2000
   38.9820   23.1120   33.2910 C   0  0  1  0  0  0  0  0  0  0  0  0
   39.8790   22.3440   32.2560 C   0  0  0  0  0  0  0  0  0  0  0  0
   41.1770   23.0780   31.9600 C   0  0  0  0  0  0  0  0  0  0  0  0
   40.8950   24.5210   31.7310 C   0  0  0  0  0  0  0  0  0  0  0  0
   39.4610   24.7180   31.4180 C   0  0  0  0  0  0  0  0  0  0  0  0
   38.5850   24.3620   32.5640 C   0  0  2  0  0  0  0  0  0  0  0  0
   39.6010   23.5390   34.0240 H   0  0  0  0  0  0  0  0  0  0  0  0
   39.2810   22.3870   31.3250 H   0  0  0  0  0  0  0  0  0  0  0  0
   39.9900   21.2990   32.5180 H   0  0  0  0  0  0  0  0  0  0  0  0
   41.9070   22.9670   32.7860 H   0  0  0  0  0  0  0  0  0  0  0  0
   41.6100   22.5590   31.0930 H   0  0  0  0  0  0  0  0  0  0  0  0
   41.3510   25.2220   32.4440 H   0  0  0  0  0  0  0  0  0  0  0  0
   41.4450   24.7740   30.7590 H   0  0  0  0  0  0  0  0  0  0  0  0
   39.3640   25.8330   31.2830 H   0  0  0  0  0  0  0  0  0  0  0  0
   39.2050   24.2910   30.4480 H   0  0  0  0  0  0  0  0  0  0  0  0
   37.5980   24.2030   32.1060 H   0  0  0  0  0  0  0  0  0  0  0  0
   37.5530   21.9730   34.8720 C   0  0  0  0  0  0  0  0  0  0  0  0
   36.4060   21.1710   35.0560 C   0  0  0  0  0  0  0  0  0  0  0  0
   35.6790   20.6050   34.0530 C   0  0  0  0  0  0  0  0  0  0  0  0
   36.0690   20.8090   32.7290 C   0  0  0  0  0  0  0  0  0  0  0  0
   37.1850   21.5890   32.5440 C   0  0  0  0  0  0  0  0  0  0  0  0
   37.9220   22.1680   33.5610 C   0  0  0  0  0  0  0  0  0  0  0  0
   35.9600   20.9240   36.0400 H   0  0  0  0  0  0  0  0  0  0  0  0
   34.8210   20.0150   34.2520 H   0  0  0  0  0  0  0  0  0  0  0  0
   35.4630   20.3400   31.9610 H   0  0  0  0  0  0  0  0  0  0  0  0
   37.3860   21.6420   31.4840 H   0  0  0  0  0  0  0  0  0  0  0  0
   37.3720   23.1730   36.9660 C   0  0  0  0  0  0  0  0  0  0  0  0
   38.1660   22.4120   36.0700 C   0  0  0  0  0  0  0  0  0  0  0  0
   39.4780   22.1660   36.4390 C   0  0  0  0  0  0  0  0  0  0  0  0
   39.9250   22.6700   37.6350 N   0  0  0  0  0  0  0  0  0  0  0  0
   39.1660   23.3820   38.4630 C   0  0  0  0  0  0  0  0  0  0  0  0
   37.8930   23.6270   38.1180 N   0  0  0  0  0  0  0  0  0  0  0  0
   36.3380   23.4770   36.9030 H   0  0  0  0  0  0  0  0  0  0  0  0
   40.2500   21.6890   35.9810 H   0  0  0  0  0  0  0  0  0  0  0  0
   39.5590   23.7690   39.4120 H   0  0  0  0  0  0  0  0  0  0  0  0
   37.3290   26.4760   33.2930 C   0  0  0  0  0  0  0  0  0  0  0  0
   38.3040   25.5170   33.4870 C   0  0  0  0  0  0  0  0  0  0  0  0
   39.0610   25.5940   34.6320 C   0  0  0  0  0  0  0  0  0  0  0  0
   39.8510   24.9390   34.9550 H   0  0  0  0  0  0  0  0  0  0  0  0
   38.9010   26.5750   35.5980 C   0  0  0  0  0  0  0  0  0  0  0  0
   39.4510   26.7000   36.5160 H   0  0  0  0  0  0  0  0  0  0  0  0
   37.9180   27.5540   35.4200 C   0  0  0  0  0  3  0  0  0  0  0  0
   37.1650   27.4700   34.2700 C   0  0  0  0  0  3  0  0  0  0  0  0
   37.2540   26.4560   30.7970 H   0  0  0  0  0  0  0  0  0  0  0  0
   36.3500   26.4640   31.8720 S   0  0  0  0  0  0  0  0  0  0  0  0
   35.5640   27.7330   31.6620 O   0  0  0  0  0  0  0  0  0  0  0  0
   35.5180   25.2600   31.6440 O   0  0  0  0  0  0  0  0  0  0  0  0
  1 22  1  0  0  0  0
  1  7  1  1  0  0  0
  2  9  1  0  0  0  0
  2  1  1  0  0  0  0
  3  2  1  0  0  0  0
  3 10  1  0  0  0  0
  4  3  1  0  0  0  0
  4 12  1  0  0  0  0
  5  4  1  0  0  0  0
  5  6  1  0  0  0  0
  6 16  1  6  0  0  0
  6  1  1  0  0  0  0
  6 37  1  0  0  0  0
  8  2  1  0  0  0  0
 11  3  1  0  0  0  0
 13  4  1  0  0  0  0
 14  5  1  0  0  0  0
 15  5  1  0  0  0  0
 17 18  1  0  0  0  0
 17 28  1  0  0  0  0
 18 23  1  0  0  0  0
 19 24  1  0  0  0  0
 19 18  2  0  0  0  0
 20 19  1  0  0  0  0
 21 20  2  0  0  0  0
 21 22  1  0  0  0  0
 22 17  2  0  0  0  0
 25 20  1  0  0  0  0
 26 21  1  0  0  0  0
 27 32  1  0  0  0  0
 28 29  1  0  0  0  0
 28 27  2  0  0  0  0
 29 30  2  0  0  0  0
 30 31  1  0  0  0  0
 31 35  1  0  0  0  0
 32 31  2  0  0  0  0
 33 27  1  0  0  0  0
 34 29  1  0  0  0  0
 36 37  2  0  0  0  0
 36 43  1  0  0  0  0
 37 38  1  0  0  0  0
 38 39  1  0  0  0  0
 38 40  2  0  0  0  0
 40 41  1  0  0  0  0
 42 40  1  0  0  0  0
 43 42  2  0  0  0  0
 44 45  1  0  0  0  0
 45 36  1  0  0  0  0
 46 45  2  0  0  0  0
 47 45  2  0  0  0  0
M  END
>  <minimizedAffinity>
-6.09681416

$$$$

 OpenBabel03272506133D

 47 50  0  0  1  0  0  0  0  0999 V2000
   39.3350   25.0520   33.8960 C   0  0  1  0  0  0  0  0  0  0  0  0
   40.8460   24.6910   33.6690 C   0  0  0  0  0  0  0  0  0  0  0  0
   41.7790   25.8040   34.1180 C   0  0  0  0  0  0  0  0  0  0  0  0
   41.2730   27.1130   33.6200 C   0  0  0  0  0  0  0  0  0  0  0  0
   40.3190   26.9020   32.5070 C   0  0  0  0  0  0  0  0  0  0  0  0
   39.0920   26.1910   32.9510 C   0  0  2  0  0  0  0  0  0  0  0  0
   39.2430   25.5710   34.8030 H   0  0  0  0  0  0  0  0  0  0  0  0
   40.9300   24.6440   32.5650 H   0  0  0  0  0  0  0  0  0  0  0  0
   41.0850   23.7070   34.0510 H   0  0  0  0  0  0  0  0  0  0  0  0
   41.8770   25.8370   35.2210 H   0  0  0  0  0  0  0  0  0  0  0  0
   42.7690   25.5260   33.7280 H   0  0  0  0  0  0  0  0  0  0  0  0
   40.9890   27.8450   34.3890 H   0  0  0  0  0  0  0  0  0  0  0  0
   42.1830   27.6120   33.1360 H   0  0  0  0  0  0  0  0  0  0  0  0
   39.9940   27.9450   32.2280 H   0  0  0  0  0  0  0  0  0  0  0  0
   40.8230   26.5150   31.6220 H   0  0  0  0  0  0  0  0  0  0  0  0
   38.6650   25.7900   32.0200 H   0  0  0  0  0  0  0  0  0  0  0  0
   38.2490   23.0250   34.6370 C   0  0  0  0  0  0  0  0  0  0  0  0
   37.4500   21.9180   34.2770 C   0  0  0  0  0  0  0  0  0  0  0  0
   37.0800   21.6030   33.0050 C   0  0  0  0  0  0  0  0  0  0  0  0
   37.5060   22.4100   31.9510 C   0  0  0  0  0  0  0  0  0  0  0  0
   38.2850   23.4890   32.2950 C   0  0  0  0  0  0  0  0  0  0  0  0
   38.6580   23.8130   33.5870 C   0  0  0  0  0  0  0  0  0  0  0  0
   37.0220   21.1890   34.9940 H   0  0  0  0  0  0  0  0  0  0  0  0
   36.4720   20.7600   32.7940 H   0  0  0  0  0  0  0  0  0  0  0  0
   37.1900   22.1240   30.9530 H   0  0  0  0  0  0  0  0  0  0  0  0
   38.5620   24.0070   31.3890 H   0  0  0  0  0  0  0  0  0  0  0  0
   37.5830   23.7740   36.8410 C   0  0  0  0  0  0  0  0  0  0  0  0
   38.5380   23.1200   36.0190 C   0  0  0  0  0  0  0  0  0  0  0  0
   39.6790   22.6350   36.6380 C   0  0  0  0  0  0  0  0  0  0  0  0
   39.8130   22.8160   37.9930 N   0  0  0  0  0  0  0  0  0  0  0  0
   38.9070   23.4320   38.7460 C   0  0  0  0  0  0  0  0  0  0  0  0
   37.7990   23.9060   38.1600 N   0  0  0  0  0  0  0  0  0  0  0  0
   36.6300   24.2160   36.5920 H   0  0  0  0  0  0  0  0  0  0  0  0
   40.5120   22.1670   36.2900 H   0  0  0  0  0  0  0  0  0  0  0  0
   39.0510   23.5570   39.8270 H   0  0  0  0  0  0  0  0  0  0  0  0
   36.9350   27.5420   32.6340 C   0  0  0  0  0  0  0  0  0  0  0  0
   37.9950   27.1140   33.4090 C   0  0  0  0  0  0  0  0  0  0  0  0
   38.0410   27.5300   34.7190 C   0  0  0  0  0  0  0  0  0  0  0  0
   38.7770   27.2940   35.4670 H   0  0  0  0  0  0  0  0  0  0  0  0
   37.0890   28.3510   35.3010 C   0  0  0  0  0  0  0  0  0  0  0  0
   37.0570   28.7170   36.3140 H   0  0  0  0  0  0  0  0  0  0  0  0
   36.0080   28.7940   34.5330 C   0  0  0  0  0  3  0  0  0  0  0  0
   35.9690   28.3730   33.2220 C   0  0  0  0  0  3  0  0  0  0  0  0
   38.0540   26.5070   30.6550 H   0  0  0  0  0  0  0  0  0  0  0  0
   36.8140   27.0840   30.9750 S   0  0  0  0  0  0  0  0  0  0  0  0
   36.7130   28.2500   30.0250 O   0  0  0  0  0  0  0  0  0  0  0  0
   35.8340   26.0230   30.6450 O   0  0  0  0  0  0  0  0  0  0  0  0
  1  7  1  1  0  0  0
  2  1  1  0  0  0  0
  2  9  1  0  0  0  0
  2  3  1  0  0  0  0
  3 10  1  0  0  0  0
  4  3  1  0  0  0  0
  4 12  1  0  0  0  0
  5  6  1  0  0  0  0
  5  4  1  0  0  0  0
  6 16  1  6  0  0  0
  6 37  1  0  0  0  0
  6  1  1  0  0  0  0
  8  2  1  0  0  0  0
 11  3  1  0  0  0  0
 13  4  1  0  0  0  0
 14  5  1  0  0  0  0
 15  5  1  0  0  0  0
 17 28  1  0  0  0  0
 18 17  1  0  0  0  0
 18 23  1  0  0  0  0
 19 18  2  0  0  0  0
 20 21  2  0  0  0  0
 20 19  1  0  0  0  0
 21 22  1  0  0  0  0
 22  1  1  0  0  0  0
 22 17  2  0  0  0  0
 24 19  1  0  0  0  0
 25 20  1  0  0  0  0
 26 21  1  0  0  0  0
 27 32  1  0  0  0  0
 28 29  1  0  0  0  0
 28 27  2  0  0  0  0
 29 30  2  0  0  0  0
 30 31  1  0  0  0  0
 31 35  1  0  0  0  0
 32 31  2  0  0  0  0
 33 27  1  0  0  0  0
 34 29  1  0  0  0  0
 36 43  2  0  0  0  0
 36 37  1  0  0  0  0
 37 38  2  0  0  0  0
 38 40  1  0  0  0  0
 38 39  1  0  0  0  0
 40 41  1  0  0  0  0
 42 40  2  0  0  0  0
 43 42  1  0  0  0  0
 44 45  1  0  0  0  0
 45 36  1  0  0  0  0
 46 45  2  0  0  0  0
 47 45  2  0  0  0  0
M  END
>  <minimizedAffinity>
-5.97406197

$$$$

 OpenBabel03272506133D

 47 50  0  0  1  0  0  0  0  0999 V2000
   36.2840   27.0550   31.5780 C   0  0  1  0  0  0  0  0  0  0  0  0
   35.5200   26.1490   30.5480 C   0  0  0  0  0  0  0  0  0  0  0  0
   35.1200   24.8080   31.1430 C   0  0  0  0  0  0  0  0  0  0  0  0
   36.2700   24.2290   31.8900 C   0  0  0  0  0  0  0  0  0  0  0  0
   37.5330   24.8770   31.4660 C   0  0  0  0  0  0  0  0  0  0  0  0
   37.5680   26.3190   31.8210 C   0  0  2  0  0  0  0  0  0  0  0  0
   35.8470   26.9340   32.5240 H   0  0  0  0  0  0  0  0  0  0  0  0
   36.2930   25.9300   29.7850 H   0  0  0  0  0  0  0  0  0  0  0  0
   34.7240   26.6890   30.0510 H   0  0  0  0  0  0  0  0  0  0  0  0
   34.2470   24.9040   31.8170 H   0  0  0  0  0  0  0  0  0  0  0  0
   34.7870   24.2020   30.2880 H   0  0  0  0  0  0  0  0  0  0  0  0
   36.1210   24.0850   32.9690 H   0  0  0  0  0  0  0  0  0  0  0  0
   36.3510   23.1520   31.5110 H   0  0  0  0  0  0  0  0  0  0  0  0
   38.3200   24.3770   32.1020 H   0  0  0  0  0  0  0  0  0  0  0  0
   37.7880   24.6120   30.4400 H   0  0  0  0  0  0  0  0  0  0  0  0
   38.3420   26.7370   31.1600 H   0  0  0  0  0  0  0  0  0  0  0  0
   35.8370   29.4270   31.4670 C   0  0  0  0  0  0  0  0  0  0  0  0
   36.1220   30.6490   30.8220 C   0  0  0  0  0  0  0  0  0  0  0  0
   36.8830   30.7820   29.7010 C   0  0  0  0  0  0  0  0  0  0  0  0
   37.4380   29.6440   29.1150 C   0  0  0  0  0  0  0  0  0  0  0  0
   37.1640   28.4500   29.7390 C   0  0  0  0  0  0  0  0  0  0  0  0
   36.3940   28.3150   30.8800 C   0  0  0  0  0  0  0  0  0  0  0  0
   35.7680   31.6420   31.1660 H   0  0  0  0  0  0  0  0  0  0  0  0
   37.0690   31.7290   29.2620 H   0  0  0  0  0  0  0  0  0  0  0  0
   38.0370   29.7930   28.2230 H   0  0  0  0  0  0  0  0  0  0  0  0
   37.6290   27.6590   29.1710 H   0  0  0  0  0  0  0  0  0  0  0  0
   35.5630   29.9850   33.8070 C   0  0  0  0  0  0  0  0  0  0  0  0
   34.9830   29.5360   32.5910 C   0  0  0  0  0  0  0  0  0  0  0  0
   33.6310   29.2370   32.6080 C   0  0  0  0  0  0  0  0  0  0  0  0
   32.9440   29.3890   33.7870 N   0  0  0  0  0  0  0  0  0  0  0  0
   33.5040   29.8110   34.9160 C   0  0  0  0  0  0  0  0  0  0  0  0
   34.8120   30.1050   34.9140 N   0  0  0  0  0  0  0  0  0  0  0  0
   36.5760   30.2840   34.0320 H   0  0  0  0  0  0  0  0  0  0  0  0
   32.9910   28.8770   31.9050 H   0  0  0  0  0  0  0  0  0  0  0  0
   32.9210   29.9210   35.8400 H   0  0  0  0  0  0  0  0  0  0  0  0
   39.4950   26.8010   33.4430 C   0  0  0  0  0  0  0  0  0  0  0  0
   38.1560   26.5900   33.1790 C   0  0  0  0  0  0  0  0  0  0  0  0
   37.2750   26.6690   34.2320 C   0  0  0  0  0  0  0  0  0  0  0  0
   36.2060   26.5440   34.2170 H   0  0  0  0  0  0  0  0  0  0  0  0
   37.6530   26.9460   35.5360 C   0  0  0  0  0  0  0  0  0  0  0  0
   37.0260   27.0240   36.4080 H   0  0  0  0  0  0  0  0  0  0  0  0
   39.0040   27.1630   35.8220 C   0  0  0  0  0  3  0  0  0  0  0  0
   39.8810   27.0820   34.7620 C   0  0  0  0  0  3  0  0  0  0  0  0
   40.0130   27.1460   31.0240 H   0  0  0  0  0  0  0  0  0  0  0  0
   40.6690   26.6980   32.1820 S   0  0  0  0  0  0  0  0  0  0  0  0
   41.0700   25.2860   31.8360 O   0  0  0  0  0  0  0  0  0  0  0  0
   41.8470   27.5910   32.2910 O   0  0  0  0  0  0  0  0  0  0  0  0
  1  6  1  0  0  0  0
  1  7  1  1  0  0  0
  2  3  1  0  0  0  0
  2  1  1  0  0  0  0
  3 10  1  0  0  0  0
  3  4  1  0  0  0  0
  4 12  1  0  0  0  0
  5  6  1  0  0  0  0
  5  4  1  0  0  0  0
  5 14  1  0  0  0  0
  6 16  1  6  0  0  0
  6 37  1  0  0  0  0
  8  2  1  0  0  0  0
  9  2  1  0  0  0  0
 11  3  1  0  0  0  0
 13  4  1  0  0  0  0
 15  5  1  0  0  0  0
 17 28  1  0  0  0  0
 18 23  1  0  0  0  0
 18 17  2  0  0  0  0
 19 18  1  0  0  0  0
 20 19  2  0  0  0  0
 20 21  1  0  0  0  0
 21 22  2  0  0  0  0
 22 17  1  0  0  0  0
 22  1  1  0  0  0  0
 24 19  1  0  0  0  0
 25 20  1  0  0  0  0
 26 21  1  0  0  0  0
 27 33  1  0  0  0  0
 27 32  1  0  0  0  0
 28 29  1  0  0  0  0
 28 27  2  0  0  0  0
 29 30  2  0  0  0  0
 30 31  1  0  0  0  0
 31 35  1  0  0  0  0
 32 31  2  0  0  0  0
 34 29  1  0  0  0  0
 36 43  1  0  0  0  0
 37 36  2  0  0  0  0
 37 38  1  0  0  0  0
 38 40  2  0  0  0  0
 39 38  1  0  0  0  0
 40 42  1  0  0  0  0
 40 41  1  0  0  0  0
 43 42  2  0  0  0  0
 44 45  1  0  0  0  0
 45 47  2  0  0  0  0
 45 36  1  0  0  0  0
 46 45  2  0  0  0  0
M  END
>  <minimizedAffinity>
-5.94517756

$$$$

 OpenBabel03272506133D

 47 50  0  0  1  0  0  0  0  0999 V2000
   38.3740   23.5840   32.4220 C   0  0  1  0  0  0  0  0  0  0  0  0
   39.4290   23.5860   31.2600 C   0  0  0  0  0  0  0  0  0  0  0  0
   40.7150   22.8730   31.6460 C   0  0  0  0  0  0  0  0  0  0  0  0
   41.1430   23.3130   33.0020 C   0  0  0  0  0  0  0  0  0  0  0  0
   40.4780   24.5880   33.3590 C   0  0  0  0  0  0  0  0  0  0  0  0
   39.0060   24.4350   33.4830 C   0  0  2  0  0  0  0  0  0  0  0  0
   38.4120   22.6570   32.9130 H   0  0  0  0  0  0  0  0  0  0  0  0
   39.6890   24.6580   31.1580 H   0  0  0  0  0  0  0  0  0  0  0  0
   38.9920   23.2710   30.3200 H   0  0  0  0  0  0  0  0  0  0  0  0
   40.5930   21.7730   31.6320 H   0  0  0  0  0  0  0  0  0  0  0  0
   41.4310   23.1150   30.8470 H   0  0  0  0  0  0  0  0  0  0  0  0
   41.1740   22.5330   33.7760 H   0  0  0  0  0  0  0  0  0  0  0  0
   42.2500   23.5820   32.8860 H   0  0  0  0  0  0  0  0  0  0  0  0
   40.8600   24.8110   34.3970 H   0  0  0  0  0  0  0  0  0  0  0  0
   40.8410   25.4100   32.7410 H   0  0  0  0  0  0  0  0  0  0  0  0
   38.6220   25.4610   33.3850 H   0  0  0  0  0  0  0  0  0  0  0  0
   36.0890   23.3170   31.6820 C   0  0  0  0  0  0  0  0  0  0  0  0
   34.9230   23.9570   31.2080 C   0  0  0  0  0  0  0  0  0  0  0  0
   34.8380   25.2720   30.8650 C   0  0  0  0  0  0  0  0  0  0  0  0
   35.9700   26.0800   30.9750 C   0  0  0  0  0  0  0  0  0  0  0  0
   37.1080   25.4630   31.4350 C   0  0  0  0  0  0  0  0  0  0  0  0
   37.1950   24.1280   31.7880 C   0  0  0  0  0  0  0  0  0  0  0  0
   33.9410   23.4610   31.0760 H   0  0  0  0  0  0  0  0  0  0  0  0
   33.9310   25.7000   30.5190 H   0  0  0  0  0  0  0  0  0  0  0  0
   35.8590   27.1210   30.6910 H   0  0  0  0  0  0  0  0  0  0  0  0
   37.9050   26.1910   31.4450 H   0  0  0  0  0  0  0  0  0  0  0  0
   36.1530   21.0500   30.8370 C   0  0  0  0  0  0  0  0  0  0  0  0
   35.9440   21.9310   31.9300 C   0  0  0  0  0  0  0  0  0  0  0  0
   35.6090   21.3620   33.1470 C   0  0  0  0  0  0  0  0  0  0  0  0
   35.5000   19.9950   33.2190 N   0  0  0  0  0  0  0  0  0  0  0  0
   35.7000   19.1850   32.1840 C   0  0  0  0  0  0  0  0  0  0  0  0
   36.0250   19.7230   31.0000 N   0  0  0  0  0  0  0  0  0  0  0  0
   36.4300   21.2560   29.8140 H   0  0  0  0  0  0  0  0  0  0  0  0
   35.3810   21.7530   34.0570 H   0  0  0  0  0  0  0  0  0  0  0  0
   35.6030   18.0960   32.2810 H   0  0  0  0  0  0  0  0  0  0  0  0
   38.2010   24.9820   35.8550 C   0  0  0  0  0  0  0  0  0  0  0  0
   38.5530   24.0780   34.8720 C   0  0  0  0  0  0  0  0  0  0  0  0
   38.4510   22.7390   35.1670 C   0  0  0  0  0  0  0  0  0  0  0  0
   38.6700   21.8980   34.5320 H   0  0  0  0  0  0  0  0  0  0  0  0
   38.0160   22.2480   36.3880 C   0  0  0  0  0  0  0  0  0  0  0  0
   37.9090   21.2200   36.6910 H   0  0  0  0  0  0  0  0  0  0  0  0
   37.6540   23.1480   37.3950 C   0  0  0  0  0  3  0  0  0  0  0  0
   37.7590   24.4880   37.0920 C   0  0  0  0  0  3  0  0  0  0  0  0
   37.9070   27.2870   36.7720 H   0  0  0  0  0  0  0  0  0  0  0  0
   38.3210   26.6810   35.5750 S   0  0  0  0  0  0  0  0  0  0  0  0
   37.3380   27.2020   34.5580 O   0  0  0  0  0  0  0  0  0  0  0  0
   39.6800   27.2270   35.3520 O   0  0  0  0  0  0  0  0  0  0  0  0
  1  7  1  1  0  0  0
  1  6  1  0  0  0  0
  2  3  1  0  0  0  0
  2  1  1  0  0  0  0
  3  4  1  0  0  0  0
  4  5  1  0  0  0  0
  4 12  1  0  0  0  0
  5  6  1  0  0  0  0
  5 14  1  0  0  0  0
  6 16  1  6  0  0  0
  6 37  1  0  0  0  0
  8  2  1  0  0  0  0
  9  2  1  0  0  0  0
 10  3  1  0  0  0  0
 11  3  1  0  0  0  0
 13  4  1  0  0  0  0
 15  5  1  0  0  0  0
 17 22  1  0  0  0  0
 17 28  1  0  0  0  0
 18 17  2  0  0  0  0
 19 20  2  0  0  0  0
 19 18  1  0  0  0  0
 20 21  1  0  0  0  0
 21 26  1  0  0  0  0
 21 22  2  0  0  0  0
 22  1  1  0  0  0  0
 23 18  1  0  0  0  0
 24 19  1  0  0  0  0
 25 20  1  0  0  0  0
 27 32  2  0  0  0  0
 27 28  1  0  0  0  0
 28 29  2  0  0  0  0
 29 30  1  0  0  0  0
 29 34  1  0  0  0  0
 31 35  1  0  0  0  0
 31 30  2  0  0  0  0
 32 31  1  0  0  0  0
 33 27  1  0  0  0  0
 36 43  1  0  0  0  0
 37 38  1  0  0  0  0
 37 36  2  0  0  0  0
 38 40  2  0  0  0  0
 39 38  1  0  0  0  0
 40 41  1  0  0  0  0
 40 42  1  0  0  0  0
 43 42  2  0  0  0  0
 45 36  1  0  0  0  0
 45 44  1  0  0  0  0
 46 45  2  0  0  0  0
 47 45  2  0  0  0  0
M  END
>  <minimizedAffinity>
-5.78206158

$$$$

 OpenBabel03272506133D

 47 50  0  0  1  0  0  0  0  0999 V2000
   39.4710   24.1690   33.5510 C   0  0  1  0  0  0  0  0  0  0  0  0
   39.3530   23.5680   32.1060 C   0  0  0  0  0  0  0  0  0  0  0  0
   38.1900   22.5990   31.9760 C   0  0  0  0  0  0  0  0  0  0  0  0
   38.1790   21.6710   33.1400 C   0  0  0  0  0  0  0  0  0  0  0  0
   39.5030   21.6690   33.8040 C   0  0  0  0  0  0  0  0  0  0  0  0
   39.8290   22.9880   34.4030 C   0  0  2  0  0  0  0  0  0  0  0  0
   38.5060   24.3500   33.9220 H   0  0  0  0  0  0  0  0  0  0  0  0
   40.2740   22.9590   32.0110 H   0  0  0  0  0  0  0  0  0  0  0  0
   39.3990   24.3380   31.3460 H   0  0  0  0  0  0  0  0  0  0  0  0
   37.2200   23.1300   31.9130 H   0  0  0  0  0  0  0  0  0  0  0  0
   38.3340   22.1030   31.0050 H   0  0  0  0  0  0  0  0  0  0  0  0
   37.2950   21.7220   33.7910 H   0  0  0  0  0  0  0  0  0  0  0  0
   38.0800   20.6270   32.6790 H   0  0  0  0  0  0  0  0  0  0  0  0
   39.3720   20.9550   34.6670 H   0  0  0  0  0  0  0  0  0  0  0  0
   40.2620   21.2110   33.1700 H   0  0  0  0  0  0  0  0  0  0  0  0
   40.9230   22.9620   34.5260 H   0  0  0  0  0  0  0  0  0  0  0  0
   40.1320   26.4930   33.5790 C   0  0  0  0  0  0  0  0  0  0  0  0
   41.2040   27.4120   33.5830 C   0  0  0  0  0  0  0  0  0  0  0  0
   42.5160   27.0830   33.4240 C   0  0  0  0  0  0  0  0  0  0  0  0
   42.8650   25.7450   33.2380 C   0  0  0  0  0  0  0  0  0  0  0  0
   41.8260   24.8460   33.2330 C   0  0  0  0  0  0  0  0  0  0  0  0
   40.4940   25.1780   33.3990 C   0  0  0  0  0  0  0  0  0  0  0  0
   41.0970   28.5050   33.7300 H   0  0  0  0  0  0  0  0  0  0  0  0
   43.2810   27.8170   33.4410 H   0  0  0  0  0  0  0  0  0  0  0  0
   43.9210   25.5260   33.1150 H   0  0  0  0  0  0  0  0  0  0  0  0
   42.2340   23.8620   33.0560 H   0  0  0  0  0  0  0  0  0  0  0  0
   38.1770   27.4560   32.5260 C   0  0  0  0  0  0  0  0  0  0  0  0
   38.8510   27.0790   33.7170 C   0  0  0  0  0  0  0  0  0  0  0  0
   38.2010   27.3210   34.9160 C   0  0  0  0  0  0  0  0  0  0  0  0
   36.9600   27.9060   34.8780 N   0  0  0  0  0  0  0  0  0  0  0  0
   36.3440   28.2530   33.7520 C   0  0  0  0  0  0  0  0  0  0  0  0
   36.9610   28.0230   32.5840 N   0  0  0  0  0  0  0  0  0  0  0  0
   38.4720   27.3570   31.4920 H   0  0  0  0  0  0  0  0  0  0  0  0
   38.4630   27.1820   35.8880 H   0  0  0  0  0  0  0  0  0  0  0  0
   35.3500   28.7190   33.7630 H   0  0  0  0  0  0  0  0  0  0  0  0
   40.1100   22.7780   36.9440 C   0  0  0  0  0  0  0  0  0  0  0  0
   39.3730   23.1300   35.8300 C   0  0  0  0  0  0  0  0  0  0  0  0
   38.1330   23.6890   36.0320 C   0  0  0  0  0  0  0  0  0  0  0  0
   37.4280   24.0300   35.2940 H   0  0  0  0  0  0  0  0  0  0  0  0
   37.5850   23.9190   37.2840 C   0  0  0  0  0  0  0  0  0  0  0  0
   36.6270   24.3510   37.5210 H   0  0  0  0  0  0  0  0  0  0  0  0
   38.3160   23.5710   38.4230 C   0  0  0  0  0  3  0  0  0  0  0  0
   39.5570   23.0110   38.2130 C   0  0  0  0  0  3  0  0  0  0  0  0
   41.6180   21.3380   35.5680 H   0  0  0  0  0  0  0  0  0  0  0  0
   41.6650   22.0500   36.7780 S   0  0  0  0  0  0  0  0  0  0  0  0
   41.9510   20.9820   37.8030 O   0  0  0  0  0  0  0  0  0  0  0  0
   42.8170   22.9660   36.6060 O   0  0  0  0  0  0  0  0  0  0  0  0
  1  7  1  1  0  0  0
  1  6  1  0  0  0  0
  2  1  1  0  0  0  0
  3  2  1  0  0  0  0
  3  4  1  0  0  0  0
  4 12  1  0  0  0  0
  4  5  1  0  0  0  0
  5  6  1  0  0  0  0
  5 14  1  0  0  0  0
  6 16  1  1  0  0  0
  6 37  1  0  0  0  0
  8  2  1  0  0  0  0
  9  2  1  0  0  0  0
 10  3  1  0  0  0  0
 11  3  1  0  0  0  0
 13  4  1  0  0  0  0
 15  5  1  0  0  0  0
 17 18  1  0  0  0  0
 17 28  1  0  0  0  0
 18 23  1  0  0  0  0
 19 24  1  0  0  0  0
 19 18  2  0  0  0  0
 20 19  1  0  0  0  0
 21 20  2  0  0  0  0
 21 22  1  0  0  0  0
 22  1  1  0  0  0  0
 22 17  2  0  0  0  0
 25 20  1  0  0  0  0
 26 21  1  0  0  0  0
 27 32  2  0  0  0  0
 27 28  1  0  0  0  0
 28 29  2  0  0  0  0
 29 34  1  0  0  0  0
 30 29  1  0  0  0  0
 31 35  1  0  0  0  0
 31 30  2  0  0  0  0
 32 31  1  0  0  0  0
 33 27  1  0  0  0  0
 36 43  1  0  0  0  0
 37 38  1  0  0  0  0
 37 36  2  0  0  0  0
 38 40  2  0  0  0  0
 39 38  1  0  0  0  0
 40 41  1  0  0  0  0
 40 42  1  0  0  0  0
 43 42  2  0  0  0  0
 44 45  1  0  0  0  0
 45 36  1  0  0  0  0
 45 46  2  0  0  0  0
 47 45  2  0  0  0  0
M  END
>  <minimizedAffinity>
-5.76593781

$$$$

 OpenBabel03272506133D

 47 50  0  0  1  0  0  0  0  0999 V2000
   38.4440   25.6660   33.6950 C   0  0  1  0  0  0  0  0  0  0  0  0
   37.1320   26.4790   33.9810 C   0  0  0  0  0  0  0  0  0  0  0  0
   37.3780   27.6690   34.8950 C   0  0  0  0  0  0  0  0  0  0  0  0
   38.2250   27.2500   36.0450 C   0  0  0  0  0  0  0  0  0  0  0  0
   38.1940   25.7760   36.1930 C   0  0  0  0  0  0  0  0  0  0  0  0
   38.8050   25.0850   35.0290 C   0  0  2  0  0  0  0  0  0  0  0  0
   39.2430   26.3380   33.5890 H   0  0  0  0  0  0  0  0  0  0  0  0
   36.5160   25.7650   34.5630 H   0  0  0  0  0  0  0  0  0  0  0  0
   36.5910   26.7020   33.0700 H   0  0  0  0  0  0  0  0  0  0  0  0
   37.8650   28.5050   34.3570 H   0  0  0  0  0  0  0  0  0  0  0  0
   36.3770   28.0260   35.1790 H   0  0  0  0  0  0  0  0  0  0  0  0
   39.2070   27.7380   36.1250 H   0  0  0  0  0  0  0  0  0  0  0  0
   37.6810   27.6500   36.9690 H   0  0  0  0  0  0  0  0  0  0  0  0
   38.8740   25.5780   37.0710 H   0  0  0  0  0  0  0  0  0  0  0  0
   37.2100   25.4330   36.5140 H   0  0  0  0  0  0  0  0  0  0  0  0
   38.4040   24.0610   35.0870 H   0  0  0  0  0  0  0  0  0  0  0  0
   38.4060   24.9650   31.3830 C   0  0  0  0  0  0  0  0  0  0  0  0
   38.1110   23.9270   30.4720 C   0  0  0  0  0  0  0  0  0  0  0  0
   37.4980   22.7550   30.7950 C   0  0  0  0  0  0  0  0  0  0  0  0
   37.1140   22.5280   32.1170 C   0  0  0  0  0  0  0  0  0  0  0  0
   37.3980   23.5350   33.0080 C   0  0  0  0  0  0  0  0  0  0  0  0
   38.0250   24.7240   32.6820 C   0  0  0  0  0  0  0  0  0  0  0  0
   38.3600   23.9460   29.3920 H   0  0  0  0  0  0  0  0  0  0  0  0
   37.3060   22.0080   30.0680 H   0  0  0  0  0  0  0  0  0  0  0  0
   36.6280   21.5820   32.3320 H   0  0  0  0  0  0  0  0  0  0  0  0
   37.0280   23.2400   33.9780 H   0  0  0  0  0  0  0  0  0  0  0  0
   38.1470   27.1710   30.4210 C   0  0  0  0  0  0  0  0  0  0  0  0
   39.0070   26.1080   30.8030 C   0  0  0  0  0  0  0  0  0  0  0  0
   40.3620   26.2750   30.5700 C   0  0  0  0  0  0  0  0  0  0  0  0
   40.7850   27.4450   29.9890 N   0  0  0  0  0  0  0  0  0  0  0  0
   39.9640   28.4300   29.6380 C   0  0  0  0  0  0  0  0  0  0  0  0
   38.6500   28.2820   29.8580 N   0  0  0  0  0  0  0  0  0  0  0  0
   37.0760   27.2740   30.5110 H   0  0  0  0  0  0  0  0  0  0  0  0
   41.1700   25.6750   30.7140 H   0  0  0  0  0  0  0  0  0  0  0  0
   40.3410   29.3520   29.1750 H   0  0  0  0  0  0  0  0  0  0  0  0
   40.8450   23.7600   35.8430 C   0  0  0  0  0  0  0  0  0  0  0  0
   40.2800   24.8360   35.1850 C   0  0  0  0  0  0  0  0  0  0  0  0
   41.1280   25.7400   34.5890 C   0  0  0  0  0  0  0  0  0  0  0  0
   40.8740   26.6240   34.0310 H   0  0  0  0  0  0  0  0  0  0  0  0
   42.5100   25.6330   34.6120 C   0  0  0  0  0  0  0  0  0  0  0  0
   43.2350   26.2960   34.1700 H   0  0  0  0  0  0  0  0  0  0  0  0
   43.1000   24.5500   35.2710 C   0  0  0  0  0  3  0  0  0  0  0  0
   42.2440   23.6500   35.8660 C   0  0  0  0  0  3  0  0  0  0  0  0
   40.7250   21.5610   37.0200 H   0  0  0  0  0  0  0  0  0  0  0  0
   39.8530   22.5930   36.6360 S   0  0  0  0  0  0  0  0  0  0  0  0
   38.8730   21.9020   35.7210 O   0  0  0  0  0  0  0  0  0  0  0  0
   39.2150   23.0090   37.9070 O   0  0  0  0  0  0  0  0  0  0  0  0
  1  7  1  6  0  0  0
  1  2  1  0  0  0  0
  1  6  1  0  0  0  0
  2  8  1  0  0  0  0
  2  3  1  0  0  0  0
  3 11  1  0  0  0  0
  3  4  1  0  0  0  0
  4 12  1  0  0  0  0
  4  5  1  0  0  0  0
  4 13  1  0  0  0  0
  5 15  1  0  0  0  0
  5 14  1  0  0  0  0
  6 16  1  1  0  0  0
  6 37  1  0  0  0  0
  6  5  1  0  0  0  0
  9  2  1  0  0  0  0
 10  3  1  0  0  0  0
 17 22  1  0  0  0  0
 18 19  1  0  0  0  0
 18 17  2  0  0  0  0
 19 20  2  0  0  0  0
 20 25  1  0  0  0  0
 20 21  1  0  0  0  0
 21 26  1  0  0  0  0
 22 21  2  0  0  0  0
 22  1  1  0  0  0  0
 23 18  1  0  0  0  0
 24 19  1  0  0  0  0
 27 33  1  0  0  0  0
 27 28  1  0  0  0  0
 28 17  1  0  0  0  0
 29 34  1  0  0  0  0
 29 28  2  0  0  0  0
 30 29  1  0  0  0  0
 31 32  1  0  0  0  0
 31 30  2  0  0  0  0
 32 27  2  0  0  0  0
 35 31  1  0  0  0  0
 36 43  1  0  0  0  0
 36 45  1  0  0  0  0
 37 36  2  0  0  0  0
 38 40  2  0  0  0  0
 38 37  1  0  0  0  0
 39 38  1  0  0  0  0
 40 42  1  0  0  0  0
 41 40  1  0  0  0  0
 42 43  2  0  0  0  0
 45 44  1  0  0  0  0
 45 47  2  0  0  0  0
 46 45  2  0  0  0  0
M  END
>  <minimizedAffinity>
-5.67050791

$$$$

 OpenBabel03272506133D

 47 50  0  0  1  0  0  0  0  0999 V2000
   39.6400   26.1000   34.3340 C   0  0  1  0  0  0  0  0  0  0  0  0
   39.2840   27.2400   35.3530 C   0  0  0  0  0  0  0  0  0  0  0  0
   37.8150   27.2290   35.7430 C   0  0  0  0  0  0  0  0  0  0  0  0
   36.9750   27.0710   34.5240 C   0  0  0  0  0  0  0  0  0  0  0  0
   37.7580   27.4180   33.3150 C   0  0  0  0  0  0  0  0  0  0  0  0
   38.8880   26.4800   33.0930 C   0  0  2  0  0  0  0  0  0  0  0  0
   39.1020   25.2360   34.5910 H   0  0  0  0  0  0  0  0  0  0  0  0
   39.4390   28.1640   34.7610 H   0  0  0  0  0  0  0  0  0  0  0  0
   39.9810   27.2690   36.1820 H   0  0  0  0  0  0  0  0  0  0  0  0
   37.5880   26.4160   36.4600 H   0  0  0  0  0  0  0  0  0  0  0  0
   37.6530   28.1730   36.2830 H   0  0  0  0  0  0  0  0  0  0  0  0
   36.3600   26.1610   34.4750 H   0  0  0  0  0  0  0  0  0  0  0  0
   36.1830   27.8940   34.6070 H   0  0  0  0  0  0  0  0  0  0  0  0
   37.0350   27.2470   32.4670 H   0  0  0  0  0  0  0  0  0  0  0  0
   37.9850   28.4840   33.2840 H   0  0  0  0  0  0  0  0  0  0  0  0
   39.5660   27.0330   32.4270 H   0  0  0  0  0  0  0  0  0  0  0  0
   41.8100   25.1270   34.7630 C   0  0  0  0  0  0  0  0  0  0  0  0
   43.1970   25.1840   34.5050 C   0  0  0  0  0  0  0  0  0  0  0  0
   43.8230   26.1750   33.8130 C   0  0  0  0  0  0  0  0  0  0  0  0
   43.0690   27.2340   33.3070 C   0  0  0  0  0  0  0  0  0  0  0  0
   41.7180   27.1850   33.5550 C   0  0  0  0  0  0  0  0  0  0  0  0
   41.0810   26.1770   34.2540 C   0  0  0  0  0  0  0  0  0  0  0  0
   43.9300   24.4170   34.8270 H   0  0  0  0  0  0  0  0  0  0  0  0
   44.8700   26.1620   33.6450 H   0  0  0  0  0  0  0  0  0  0  0  0
   43.6070   28.0040   32.7620 H   0  0  0  0  0  0  0  0  0  0  0  0
   41.2670   28.0710   33.1330 H   0  0  0  0  0  0  0  0  0  0  0  0
   42.4160   23.2190   36.1230 C   0  0  0  0  0  0  0  0  0  0  0  0
   41.3980   24.0210   35.5440 C   0  0  0  0  0  0  0  0  0  0  0  0
   40.0860   23.6500   35.7860 C   0  0  0  0  0  0  0  0  0  0  0  0
   39.8530   22.5410   36.5610 N   0  0  0  0  0  0  0  0  0  0  0  0
   40.8200   21.8020   37.0960 C   0  0  0  0  0  0  0  0  0  0  0  0
   42.0950   22.1500   36.8710 N   0  0  0  0  0  0  0  0  0  0  0  0
   43.4900   23.3160   36.0860 H   0  0  0  0  0  0  0  0  0  0  0  0
   39.1910   24.0200   35.4750 H   0  0  0  0  0  0  0  0  0  0  0  0
   40.5950   20.9220   37.7120 H   0  0  0  0  0  0  0  0  0  0  0  0
   38.6860   25.2250   30.8660 C   0  0  0  0  0  0  0  0  0  0  0  0
   38.5270   25.2970   32.2360 C   0  0  0  0  0  0  0  0  0  0  0  0
   38.0340   24.1890   32.8840 C   0  0  0  0  0  0  0  0  0  0  0  0
   37.8530   24.0580   33.9370 H   0  0  0  0  0  0  0  0  0  0  0  0
   37.6890   23.0100   32.2430 C   0  0  0  0  0  0  0  0  0  0  0  0
   37.2990   22.1050   32.6790 H   0  0  0  0  0  0  0  0  0  0  0  0
   37.8440   22.9170   30.8560 C   0  0  0  0  0  3  0  0  0  0  0  0
   38.3380   24.0320   30.2140 C   0  0  0  0  0  3  0  0  0  0  0  0
   39.3210   26.1530   28.6360 H   0  0  0  0  0  0  0  0  0  0  0  0
   39.2780   26.5780   29.9740 S   0  0  0  0  0  0  0  0  0  0  0  0
   40.7130   26.9280   30.2780 O   0  0  0  0  0  0  0  0  0  0  0  0
   38.4160   27.7820   29.9360 O   0  0  0  0  0  0  0  0  0  0  0  0
  1  7  1  1  0  0  0
  1  2  1  0  0  0  0
  2  3  1  0  0  0  0
  2  9  1  0  0  0  0
  3 11  1  0  0  0  0
  3 10  1  0  0  0  0
  4 13  1  0  0  0  0
  4  3  1  0  0  0  0
  5  4  1  0  0  0  0
  6 16  1  6  0  0  0
  6  5  1  0  0  0  0
  6  1  1  0  0  0  0
  8  2  1  0  0  0  0
 12  4  1  0  0  0  0
 14  5  1  0  0  0  0
 15  5  1  0  0  0  0
 17 28  1  0  0  0  0
 18 17  1  0  0  0  0
 18 23  1  0  0  0  0
 19 18  2  0  0  0  0
 20 21  2  0  0  0  0
 20 19  1  0  0  0  0
 21 22  1  0  0  0  0
 22  1  1  0  0  0  0
 22 17  2  0  0  0  0
 24 19  1  0  0  0  0
 25 20  1  0  0  0  0
 26 21  1  0  0  0  0
 27 32  1  0  0  0  0
 28 29  1  0  0  0  0
 28 27  2  0  0  0  0
 29 30  2  0  0  0  0
 30 31  1  0  0  0  0
 31 35  1  0  0  0  0
 32 31  2  0  0  0  0
 33 27  1  0  0  0  0
 34 29  1  0  0  0  0
 36 37  1  0  0  0  0
 37 38  2  0  0  0  0
 37  6  1  0  0  0  0
 38 39  1  0  0  0  0
 40 41  1  0  0  0  0
 40 38  1  0  0  0  0
 42 40  2  0  0  0  0
 43 42  1  0  0  0  0
 43 36  2  0  0  0  0
 44 45  1  0  0  0  0
 45 46  2  0  0  0  0
 45 36  1  0  0  0  0
 47 45  2  0  0  0  0
M  END
>  <minimizedAffinity>
-5.60311174

$$$$

 OpenBabel03272506133D

 47 50  0  0  1  0  0  0  0  0999 V2000
   39.0210   22.9900   34.6290 C   0  0  1  0  0  0  0  0  0  0  0  0
   37.9820   21.8940   34.2000 C   0  0  0  0  0  0  0  0  0  0  0  0
   38.0580   21.5750   32.7160 C   0  0  0  0  0  0  0  0  0  0  0  0
   38.1270   22.8400   31.9340 C   0  0  0  0  0  0  0  0  0  0  0  0
   37.6600   23.9770   32.7610 C   0  0  0  0  0  0  0  0  0  0  0  0
   38.5500   24.2270   33.9230 C   0  0  2  0  0  0  0  0  0  0  0  0
   39.9150   22.8330   34.1030 H   0  0  0  0  0  0  0  0  0  0  0  0
   37.0070   22.3960   34.3580 H   0  0  0  0  0  0  0  0  0  0  0  0
   38.0100   21.0350   34.8590 H   0  0  0  0  0  0  0  0  0  0  0  0
   38.9350   20.9410   32.4780 H   0  0  0  0  0  0  0  0  0  0  0  0
   37.1690   20.9630   32.5060 H   0  0  0  0  0  0  0  0  0  0  0  0
   39.0420   22.9950   31.3460 H   0  0  0  0  0  0  0  0  0  0  0  0
   37.3320   22.7220   31.1190 H   0  0  0  0  0  0  0  0  0  0  0  0
   37.7710   24.8700   32.0810 H   0  0  0  0  0  0  0  0  0  0  0  0
   36.5900   23.9060   32.9620 H   0  0  0  0  0  0  0  0  0  0  0  0
   37.9270   24.8110   34.6160 H   0  0  0  0  0  0  0  0  0  0  0  0
   40.0670   22.9460   36.8070 C   0  0  0  0  0  0  0  0  0  0  0  0
   39.8990   23.1240   38.1970 C   0  0  0  0  0  0  0  0  0  0  0  0
   38.7060   23.3330   38.8190 C   0  0  0  0  0  0  0  0  0  0  0  0
   37.5380   23.3780   38.0570 C   0  0  0  0  0  0  0  0  0  0  0  0
   37.6950   23.2050   36.7030 C   0  0  0  0  0  0  0  0  0  0  0  0
   38.9070   22.9970   36.0700 C   0  0  0  0  0  0  0  0  0  0  0  0
   40.7240   23.1270   38.9370 H   0  0  0  0  0  0  0  0  0  0  0  0
   38.6410   23.4660   39.8690 H   0  0  0  0  0  0  0  0  0  0  0  0
   36.6090   23.5460   38.5920 H   0  0  0  0  0  0  0  0  0  0  0  0
   36.7190   23.2370   36.2440 H   0  0  0  0  0  0  0  0  0  0  0  0
   41.8690   21.3610   36.4910 C   0  0  0  0  0  0  0  0  0  0  0  0
   41.3990   22.6970   36.3990 C   0  0  0  0  0  0  0  0  0  0  0  0
   42.2870   23.6490   35.9240 C   0  0  0  0  0  0  0  0  0  0  0  0
   43.5520   23.2450   35.5770 N   0  0  0  0  0  0  0  0  0  0  0  0
   43.9750   21.9880   35.6700 C   0  0  0  0  0  0  0  0  0  0  0  0
   43.1260   21.0570   36.1270 N   0  0  0  0  0  0  0  0  0  0  0  0
   41.3670   20.4620   36.8140 H   0  0  0  0  0  0  0  0  0  0  0  0
   42.2210   24.6550   35.7910 H   0  0  0  0  0  0  0  0  0  0  0  0
   44.9950   21.7040   35.3820 H   0  0  0  0  0  0  0  0  0  0  0  0
   39.7360   26.4930   34.1040 C   0  0  0  0  0  0  0  0  0  0  0  0
   39.6620   25.1980   33.6300 C   0  0  0  0  0  0  0  0  0  0  0  0
   40.7010   24.7370   32.8570 C   0  0  0  0  0  0  0  0  0  0  0  0
   40.8210   23.7640   32.4130 H   0  0  0  0  0  0  0  0  0  0  0  0
   41.8130   25.4950   32.5280 C   0  0  0  0  0  0  0  0  0  0  0  0
   42.6630   25.2050   31.9320 H   0  0  0  0  0  0  0  0  0  0  0  0
   41.9080   26.8080   32.9990 C   0  0  0  0  0  3  0  0  0  0  0  0
   40.8620   27.2630   33.7720 C   0  0  0  0  0  3  0  0  0  0  0  0
   38.8230   28.4970   35.2820 H   0  0  0  0  0  0  0  0  0  0  0  0
   38.4640   27.1570   35.0620 S   0  0  0  0  0  0  0  0  0  0  0  0
   38.3840   26.5810   36.4530 O   0  0  0  0  0  0  0  0  0  0  0  0
   37.1280   27.2460   34.4290 O   0  0  0  0  0  0  0  0  0  0  0  0
  1  7  1  6  0  0  0
  1 22  1  0  0  0  0
  2  8  1  0  0  0  0
  2  1  1  0  0  0  0
  2  9  1  0  0  0  0
  3  2  1  0  0  0  0
  4  3  1  0  0  0  0
  4  5  1  0  0  0  0
  5 15  1  0  0  0  0
  5  6  1  0  0  0  0
  6 16  1  1  0  0  0
  6  1  1  0  0  0  0
 10  3  1  0  0  0  0
 11  3  1  0  0  0  0
 12  4  1  0  0  0  0
 13  4  1  0  0  0  0
 14  5  1  0  0  0  0
 17 18  1  0  0  0  0
 18 19  2  0  0  0  0
 18 23  1  0  0  0  0
 19 24  1  0  0  0  0
 20 25  1  0  0  0  0
 20 19  1  0  0  0  0
 21 20  2  0  0  0  0
 22 21  1  0  0  0  0
 22 17  2  0  0  0  0
 26 21  1  0  0  0  0
 27 33  1  0  0  0  0
 28 27  1  0  0  0  0
 28 17  1  0  0  0  0
 29 28  2  0  0  0  0
 30 31  2  0  0  0  0
 30 29  1  0  0  0  0
 31 32  1  0  0  0  0
 32 27  2  0  0  0  0
 34 29  1  0  0  0  0
 35 31  1  0  0  0  0
 36 45  1  0  0  0  0
 37  6  1  0  0  0  0
 37 36  2  0  0  0  0
 38 37  1  0  0  0  0
 39 38  1  0  0  0  0
 40 38  2  0  0  0  0
 40 42  1  0  0  0  0
 41 40  1  0  0  0  0
 42 43  2  0  0  0  0
 43 36  1  0  0  0  0
 45 44  1  0  0  0  0
 45 46  2  0  0  0  0
 47 45  2  0  0  0  0
M  END
>  <minimizedAffinity>
-5.51578665

$$$$

 OpenBabel03272506133D

 47 50  0  0  1  0  0  0  0  0999 V2000
   37.9070   26.2170   33.1460 C   0  0  1  0  0  0  0  0  0  0  0  0
   37.5090   27.7350   33.1880 C   0  0  0  0  0  0  0  0  0  0  0  0
   36.0530   27.9610   32.8120 C   0  0  0  0  0  0  0  0  0  0  0  0
   35.7210   27.1670   31.5970 C   0  0  0  0  0  0  0  0  0  0  0  0
   36.9610   26.7780   30.8860 C   0  0  0  0  0  0  0  0  0  0  0  0
   37.8030   25.8580   31.6940 C   0  0  2  0  0  0  0  0  0  0  0  0
   37.1060   25.6470   33.5120 H   0  0  0  0  0  0  0  0  0  0  0  0
   38.1110   28.1760   32.3690 H   0  0  0  0  0  0  0  0  0  0  0  0
   37.8260   28.2080   34.1090 H   0  0  0  0  0  0  0  0  0  0  0  0
   35.3690   27.6840   33.6370 H   0  0  0  0  0  0  0  0  0  0  0  0
   35.9550   29.0480   32.6810 H   0  0  0  0  0  0  0  0  0  0  0  0
   34.9540   26.3910   31.7230 H   0  0  0  0  0  0  0  0  0  0  0  0
   35.2020   27.9100   30.8970 H   0  0  0  0  0  0  0  0  0  0  0  0
   36.5910   26.1760   30.0070 H   0  0  0  0  0  0  0  0  0  0  0  0
   37.4550   27.6460   30.4480 H   0  0  0  0  0  0  0  0  0  0  0  0
   38.8010   25.9420   31.2390 H   0  0  0  0  0  0  0  0  0  0  0  0
   39.5860   25.1780   34.5400 C   0  0  0  0  0  0  0  0  0  0  0  0
   40.9450   25.1470   34.9200 C   0  0  0  0  0  0  0  0  0  0  0  0
   41.8870   26.0480   34.5270 C   0  0  0  0  0  0  0  0  0  0  0  0
   41.5170   27.0980   33.6860 C   0  0  0  0  0  0  0  0  0  0  0  0
   40.1950   27.1340   33.3130 C   0  0  0  0  0  0  0  0  0  0  0  0
   39.2380   26.2170   33.7080 C   0  0  0  0  0  0  0  0  0  0  0  0
   41.4000   24.3740   35.5710 H   0  0  0  0  0  0  0  0  0  0  0  0
   42.8970   25.9710   34.8400 H   0  0  0  0  0  0  0  0  0  0  0  0
   42.2980   27.7940   33.3980 H   0  0  0  0  0  0  0  0  0  0  0  0
   40.0450   28.0040   32.6910 H   0  0  0  0  0  0  0  0  0  0  0  0
   38.1640   24.4440   36.3560 C   0  0  0  0  0  0  0  0  0  0  0  0
   38.7880   24.1600   35.1130 C   0  0  0  0  0  0  0  0  0  0  0  0
   38.5680   22.9060   34.5670 C   0  0  0  0  0  0  0  0  0  0  0  0
   37.7710   22.0250   35.2560 N   0  0  0  0  0  0  0  0  0  0  0  0
   37.1950   22.3090   36.4200 C   0  0  0  0  0  0  0  0  0  0  0  0
   37.3990   23.5200   36.9590 N   0  0  0  0  0  0  0  0  0  0  0  0
   38.1780   25.3400   36.9580 H   0  0  0  0  0  0  0  0  0  0  0  0
   38.9090   22.4450   33.7280 H   0  0  0  0  0  0  0  0  0  0  0  0
   36.5640   21.5780   36.9410 H   0  0  0  0  0  0  0  0  0  0  0  0
   38.3410   23.4880   30.8760 C   0  0  0  0  0  0  0  0  0  0  0  0
   37.4920   24.4040   31.4670 C   0  0  0  0  0  0  0  0  0  0  0  0
   36.2750   23.9510   31.9200 C   0  0  0  0  0  0  0  0  0  0  0  0
   35.4960   24.5090   32.4090 H   0  0  0  0  0  0  0  0  0  0  0  0
   35.8550   22.6340   31.8190 C   0  0  0  0  0  0  0  0  0  0  0  0
   34.9230   22.2070   32.1490 H   0  0  0  0  0  0  0  0  0  0  0  0
   36.7010   21.6920   31.2250 C   0  0  0  0  0  3  0  0  0  0  0  0
   37.9180   22.1540   30.7730 C   0  0  0  0  0  3  0  0  0  0  0  0
   40.4020   22.8420   29.6230 H   0  0  0  0  0  0  0  0  0  0  0  0
   39.8760   23.9780   30.2600 S   0  0  0  0  0  0  0  0  0  0  0  0
   40.8930   24.2830   31.3310 O   0  0  0  0  0  0  0  0  0  0  0  0
   39.8720   25.0110   29.1990 O   0  0  0  0  0  0  0  0  0  0  0  0
  1  2  1  0  0  0  0
  1  7  1  1  0  0  0
  1 22  1  0  0  0  0
  2  9  1  0  0  0  0
  3  2  1  0  0  0  0
  3 10  1  0  0  0  0
  4 12  1  0  0  0  0
  4  3  1  0  0  0  0
  5  4  1  0  0  0  0
  5  6  1  0  0  0  0
  6 16  1  6  0  0  0
  6  1  1  0  0  0  0
  8  2  1  0  0  0  0
 11  3  1  0  0  0  0
 13  4  1  0  0  0  0
 14  5  1  0  0  0  0
 15  5  1  0  0  0  0
 17 18  1  0  0  0  0
 17 28  1  0  0  0  0
 18 23  1  0  0  0  0
 19 24  1  0  0  0  0
 19 18  2  0  0  0  0
 20 19  1  0  0  0  0
 21 20  2  0  0  0  0
 21 22  1  0  0  0  0
 22 17  2  0  0  0  0
 25 20  1  0  0  0  0
 26 21  1  0  0  0  0
 27 33  1  0  0  0  0
 27 32  1  0  0  0  0
 28 27  2  0  0  0  0
 29 28  1  0  0  0  0
 29 30  2  0  0  0  0
 30 31  1  0  0  0  0
 31 35  1  0  0  0  0
 31 32  2  0  0  0  0
 34 29  1  0  0  0  0
 36 37  1  0  0  0  0
 37  6  1  0  0  0  0
 37 38  2  0  0  0  0
 38 39  1  0  0  0  0
 40 38  1  0  0  0  0
 40 41  1  0  0  0  0
 42 40  2  0  0  0  0
 43 36  2  0  0  0  0
 43 42  1  0  0  0  0
 44 45  1  0  0  0  0
 45 36  1  0  0  0  0
 45 46  2  0  0  0  0
 47 45  2  0  0  0  0
M  END
>  <minimizedAffinity>
-5.50080299

$$$$
