
 OpenBabel03262520523D

 51 55  0  0  1  0  0  0  0  0999 V2000
   35.8990   28.7320   33.9750 C   0  0  0  0  0  0  0  0  0  0  0  0
   36.5030   28.1510   32.8720 C   0  0  0  0  0  0  0  0  0  0  0  0
   36.4380   28.8030   31.6480 C   0  0  0  0  0  0  0  0  0  0  0  0
   35.7960   30.0000   31.4910 C   0  0  0  0  0  0  0  0  0  0  0  0
   35.6130   30.7880   30.4200 N   0  0  0  0  0  0  0  0  0  0  0  0
   34.9010   31.8530   30.8510 C   0  0  0  0  0  0  0  0  0  0  0  0
   34.6030   31.7820   32.2080 C   0  0  0  0  0  0  0  0  0  0  0  0
   35.1940   30.5770   32.5850 C   0  0  0  0  0  0  0  0  0  0  0  0
   35.2550   29.9450   33.7930 C   0  0  0  0  0  0  0  0  0  0  0  0
   35.8850   28.3250   34.9650 H   0  0  0  0  0  0  0  0  0  0  0  0
   36.9290   28.3090   30.7990 H   0  0  0  0  0  0  0  0  0  0  0  0
   35.9360   30.6530   29.4370 H   0  0  0  0  0  0  0  0  0  0  0  0
   34.5950   32.6720   30.2070 H   0  0  0  0  0  0  0  0  0  0  0  0
   34.0540   32.4950   32.7860 H   0  0  0  0  0  0  0  0  0  0  0  0
   33.3000   30.5030   35.3700 C   0  0  0  0  0  0  0  0  0  0  0  0
   34.5980   30.5950   34.9430 C   0  0  0  0  0  0  0  0  0  0  0  0
   35.5100   31.3980   35.6320 C   0  0  0  0  0  0  0  0  0  0  0  0
   36.5650   31.5460   35.3830 H   0  0  0  0  0  0  0  0  0  0  0  0
   35.1340   32.1150   36.7520 C   0  0  0  0  0  0  0  0  0  0  0  0
   35.7840   32.7400   37.3140 H   0  0  0  0  0  0  0  0  0  0  0  0
   33.8210   32.0140   37.1730 C   0  0  0  0  0  3  0  0  0  0  0  0
   32.9270   31.2190   36.4870 C   0  0  0  0  0  3  0  0  0  0  0  0
   33.0400   28.4180   33.9090 H   0  0  0  0  0  0  0  0  0  0  0  0
   32.3020   29.4650   34.4020 S   0  0  0  0  0  0  0  0  0  0  0  0
   31.5950   30.1990   33.2970 O   0  0  0  0  0  0  0  0  0  0  0  0
   31.2480   28.8670   35.2950 O   0  0  0  0  0  0  0  0  0  0  0  0
   37.2050   26.8420   33.0490 C   0  0  0  0  0  0  0  0  0  0  0  0
   37.1850   26.3200   32.0680 H   0  0  0  0  0  0  0  0  0  0  0  0
   36.7220   26.2570   33.8550 H   0  0  0  0  0  0  0  0  0  0  0  0
   38.6320   27.1340   33.4540 C   0  0  0  0  0  0  0  0  0  0  0  0
   38.7250   28.2390   33.4550 H   0  0  0  0  0  0  0  0  0  0  0  0
   39.2660   26.6200   32.7080 H   0  0  0  0  0  0  0  0  0  0  0  0
   37.8980   26.0550   35.6130 C   0  0  1  0  0  0  0  0  0  0  0  0
   38.5240   27.3610   36.0450 C   0  0  0  0  0  0  0  0  0  0  0  0
   38.9740   26.6660   34.8230 C   0  0  2  0  0  0  0  0  0  0  0  0
   36.8620   26.0760   35.1950 H   0  0  0  0  0  0  0  0  0  0  0  0
   39.1270   27.4020   36.9600 H   0  0  0  0  0  0  0  0  0  0  0  0
   37.8940   28.2540   35.8580 H   0  0  0  0  0  0  0  0  0  0  0  0
   39.9740   26.1560   34.9540 H   0  0  0  0  0  0  0  0  0  0  0  0
   38.1490   24.8920   36.5220 C   0  0  0  0  0  0  0  0  0  0  0  0
   38.7240   25.1770   37.4170 H   0  0  0  0  0  0  0  0  0  0  0  0
   37.1320   24.5090   36.8260 H   0  0  0  0  0  0  0  0  0  0  0  0
   38.8990   22.0930   34.1430 C   0  0  0  0  0  0  0  0  0  0  0  0
   38.2150   23.1450   34.8320 C   0  0  0  0  0  0  0  0  0  0  0  0
   38.8770   23.8080   35.8250 C   0  0  0  0  0  0  0  0  0  0  0  0
   40.1430   23.4350   36.1070 N   0  0  0  0  0  0  0  0  0  0  0  0
   40.7770   22.4510   35.4590 C   0  0  0  0  0  0  0  0  0  0  0  0
   40.1460   21.7920   34.4850 N   0  0  0  0  0  0  0  0  0  0  0  0
   38.2970   21.6270   33.3740 H   0  0  0  0  0  0  0  0  0  0  0  0
   37.1970   23.4100   34.5720 H   0  0  0  0  0  0  0  0  0  0  0  0
   41.7820   22.1490   35.6770 H   0  0  0  0  0  0  0  0  0  0  0  0
  1 10  1  0  0  0  0
  2 27  1  0  0  0  0
  2  1  2  0  0  0  0
  3  2  1  0  0  0  0
  4  3  2  0  0  0  0
  4  8  1  0  0  0  0
  5  6  1  0  0  0  0
  5  4  1  0  0  0  0
  6  7  2  0  0  0  0
  7  8  1  0  0  0  0
  7 14  1  0  0  0  0
  8  9  2  0  0  0  0
  9  1  1  0  0  0  0
  9 16  1  0  0  0  0
 11  3  1  0  0  0  0
 12  5  1  0  0  0  0
 13  6  1  0  0  0  0
 15 22  1  0  0  0  0
 16 15  2  0  0  0  0
 16 17  1  0  0  0  0
 17 19  2  0  0  0  0
 18 17  1  0  0  0  0
 19 21  1  0  0  0  0
 19 20  1  0  0  0  0
 22 21  2  0  0  0  0
 23 24  1  0  0  0  0
 24 26  2  0  0  0  0
 24 15  1  0  0  0  0
 25 24  2  0  0  0  0
 27 30  1  0  0  0  0
 27 29  1  0  0  0  0
 28 27  1  0  0  0  0
 30 31  1  0  0  0  0
 30 35  1  0  0  0  0
 32 30  1  0  0  0  0
 33 36  1  6  0  0  0
 33 34  1  0  0  0  0
 33 40  1  0  0  0  0
 34 37  1  0  0  0  0
 35 39  1  1  0  0  0
 35 33  1  0  0  0  0
 35 34  1  0  0  0  0
 38 34  1  0  0  0  0
 40 42  1  0  0  0  0
 40 41  1  0  0  0  0
 43 48  2  0  0  0  0
 43 44  1  0  0  0  0
 44 45  2  0  0  0  0
 45 46  1  0  0  0  0
 45 40  1  0  0  0  0
 47 51  1  0  0  0  0
 47 46  2  0  0  0  0
 48 47  1  0  0  0  0
 49 43  1  0  0  0  0
 50 44  1  0  0  0  0
M  END
>  <minimizedAffinity>
-6.55060196

$$$$

 OpenBabel03262520523D

 51 55  0  0  1  0  0  0  0  0999 V2000
   35.5040   28.8970   34.1250 C   0  0  0  0  0  0  0  0  0  0  0  0
   36.2730   28.5740   33.0200 C   0  0  0  0  0  0  0  0  0  0  0  0
   36.0470   29.2430   31.8240 C   0  0  0  0  0  0  0  0  0  0  0  0
   35.0900   30.2110   31.6980 C   0  0  0  0  0  0  0  0  0  0  0  0
   34.7100   30.9690   30.6570 N   0  0  0  0  0  0  0  0  0  0  0  0
   33.7120   31.7600   31.1100 C   0  0  0  0  0  0  0  0  0  0  0  0
   33.4190   31.5350   32.4510 C   0  0  0  0  0  0  0  0  0  0  0  0
   34.3250   30.5330   32.7950 C   0  0  0  0  0  0  0  0  0  0  0  0
   34.5400   29.8820   33.9750 C   0  0  0  0  0  0  0  0  0  0  0  0
   35.5870   28.4520   35.0950 H   0  0  0  0  0  0  0  0  0  0  0  0
   36.6780   28.9560   30.9720 H   0  0  0  0  0  0  0  0  0  0  0  0
   35.0780   30.9840   29.6810 H   0  0  0  0  0  0  0  0  0  0  0  0
   33.1960   32.4890   30.4920 H   0  0  0  0  0  0  0  0  0  0  0  0
   32.6750   32.0280   33.0400 H   0  0  0  0  0  0  0  0  0  0  0  0
   33.8440   31.2910   36.0110 C   0  0  0  0  0  0  0  0  0  0  0  0
   33.7000   30.2540   35.1290 C   0  0  0  0  0  0  0  0  0  0  0  0
   32.6300   29.3650   35.2560 C   0  0  0  0  0  0  0  0  0  0  0  0
   32.4160   28.5060   34.6130 H   0  0  0  0  0  0  0  0  0  0  0  0
   31.6970   29.5030   36.2660 C   0  0  0  0  0  0  0  0  0  0  0  0
   30.8640   28.8580   36.4100 H   0  0  0  0  0  0  0  0  0  0  0  0
   31.8540   30.5540   37.1520 C   0  0  0  0  0  3  0  0  0  0  0  0
   32.9120   31.4270   37.0180 C   0  0  0  0  0  3  0  0  0  0  0  0
   35.1910   32.7800   34.4250 H   0  0  0  0  0  0  0  0  0  0  0  0
   35.2240   32.2990   35.7110 S   0  0  0  0  0  0  0  0  0  0  0  0
   36.5270   31.6060   35.9970 O   0  0  0  0  0  0  0  0  0  0  0  0
   35.1360   33.4940   36.6210 O   0  0  0  0  0  0  0  0  0  0  0  0
   37.3190   27.5140   33.1620 C   0  0  0  0  0  0  0  0  0  0  0  0
   37.4140   27.2850   34.2460 H   0  0  0  0  0  0  0  0  0  0  0  0
   38.2710   27.8560   32.7120 H   0  0  0  0  0  0  0  0  0  0  0  0
   36.8430   26.2910   32.4110 C   0  0  0  0  0  0  0  0  0  0  0  0
   36.9230   26.5490   31.3350 H   0  0  0  0  0  0  0  0  0  0  0  0
   35.8110   26.1070   32.7640 H   0  0  0  0  0  0  0  0  0  0  0  0
   38.1370   24.8300   34.0080 C   0  0  1  0  0  0  0  0  0  0  0  0
   39.1300   25.1560   32.9170 C   0  0  0  0  0  0  0  0  0  0  0  0
   37.6820   25.0850   32.6360 C   0  0  2  0  0  0  0  0  0  0  0  0
   37.9290   25.6050   34.7850 H   0  0  0  0  0  0  0  0  0  0  0  0
   39.8380   24.3910   32.5740 H   0  0  0  0  0  0  0  0  0  0  0  0
   39.5380   26.1860   32.9620 H   0  0  0  0  0  0  0  0  0  0  0  0
   37.3910   24.1480   32.0750 H   0  0  0  0  0  0  0  0  0  0  0  0
   38.2280   23.4420   34.5630 C   0  0  0  0  0  0  0  0  0  0  0  0
   37.3080   22.8620   34.3930 H   0  0  0  0  0  0  0  0  0  0  0  0
   39.0950   22.9510   34.0340 H   0  0  0  0  0  0  0  0  0  0  0  0
   37.9230   24.2260   38.2170 C   0  0  0  0  0  0  0  0  0  0  0  0
   37.6740   24.1950   36.8080 C   0  0  0  0  0  0  0  0  0  0  0  0
   38.5070   23.4580   36.0170 C   0  0  0  0  0  0  0  0  0  0  0  0
   39.5250   22.7950   36.6060 N   0  0  0  0  0  0  0  0  0  0  0  0
   39.7520   22.8280   37.9240 C   0  0  0  0  0  0  0  0  0  0  0  0
   38.9470   23.5430   38.7130 N   0  0  0  0  0  0  0  0  0  0  0  0
   37.2120   24.8340   38.7610 H   0  0  0  0  0  0  0  0  0  0  0  0
   36.8440   24.7430   36.3780 H   0  0  0  0  0  0  0  0  0  0  0  0
   40.5580   22.3040   38.3990 H   0  0  0  0  0  0  0  0  0  0  0  0
  1 10  1  0  0  0  0
  2 27  1  0  0  0  0
  2  1  2  0  0  0  0
  3  2  1  0  0  0  0
  4  3  2  0  0  0  0
  4  8  1  0  0  0  0
  5  6  1  0  0  0  0
  5  4  1  0  0  0  0
  6  7  2  0  0  0  0
  7  8  1  0  0  0  0
  7 14  1  0  0  0  0
  8  9  2  0  0  0  0
  9  1  1  0  0  0  0
  9 16  1  0  0  0  0
 11  3  1  0  0  0  0
 12  5  1  0  0  0  0
 13  6  1  0  0  0  0
 15 22  1  0  0  0  0
 16 17  1  0  0  0  0
 16 15  2  0  0  0  0
 17 19  2  0  0  0  0
 18 17  1  0  0  0  0
 19 20  1  0  0  0  0
 19 21  1  0  0  0  0
 22 21  2  0  0  0  0
 23 24  1  0  0  0  0
 24 25  2  0  0  0  0
 24 15  1  0  0  0  0
 24 26  2  0  0  0  0
 27 28  1  0  0  0  0
 29 27  1  0  0  0  0
 30 35  1  0  0  0  0
 30 32  1  0  0  0  0
 30 27  1  0  0  0  0
 31 30  1  0  0  0  0
 33 40  1  0  0  0  0
 33 36  1  1  0  0  0
 34 38  1  0  0  0  0
 34 33  1  0  0  0  0
 35 39  1  6  0  0  0
 35 34  1  0  0  0  0
 35 33  1  0  0  0  0
 37 34  1  0  0  0  0
 40 45  1  0  0  0  0
 41 40  1  0  0  0  0
 42 40  1  0  0  0  0
 43 48  1  0  0  0  0
 43 49  1  0  0  0  0
 44 43  2  0  0  0  0
 45 46  2  0  0  0  0
 45 44  1  0  0  0  0
 46 47  1  0  0  0  0
 47 51  1  0  0  0  0
 47 48  2  0  0  0  0
 50 44  1  0  0  0  0
M  END
>  <minimizedAffinity>
-6.40312576

$$$$

 OpenBabel03262520523D

 51 55  0  0  1  0  0  0  0  0999 V2000
   35.9510   28.7180   33.8680 C   0  0  0  0  0  0  0  0  0  0  0  0
   36.5510   28.1550   32.7540 C   0  0  0  0  0  0  0  0  0  0  0  0
   36.5070   28.8400   31.5470 C   0  0  0  0  0  0  0  0  0  0  0  0
   35.8900   30.0530   31.4180 C   0  0  0  0  0  0  0  0  0  0  0  0
   35.7310   30.8730   30.3660 N   0  0  0  0  0  0  0  0  0  0  0  0
   35.0360   31.9400   30.8210 C   0  0  0  0  0  0  0  0  0  0  0  0
   34.7270   31.8390   32.1730 C   0  0  0  0  0  0  0  0  0  0  0  0
   35.2920   30.6130   32.5220 C   0  0  0  0  0  0  0  0  0  0  0  0
   35.3310   29.9480   33.7140 C   0  0  0  0  0  0  0  0  0  0  0  0
   35.9220   28.2860   34.8460 H   0  0  0  0  0  0  0  0  0  0  0  0
   36.9950   28.3590   30.6890 H   0  0  0  0  0  0  0  0  0  0  0  0
   36.0570   30.7580   29.3820 H   0  0  0  0  0  0  0  0  0  0  0  0
   34.7510   32.7810   30.1970 H   0  0  0  0  0  0  0  0  0  0  0  0
   34.1880   32.5470   32.7660 H   0  0  0  0  0  0  0  0  0  0  0  0
   33.3860   30.4750   35.3110 C   0  0  0  0  0  0  0  0  0  0  0  0
   34.6790   30.5810   34.8760 C   0  0  0  0  0  0  0  0  0  0  0  0
   35.5910   31.3820   35.5670 C   0  0  0  0  0  0  0  0  0  0  0  0
   36.6440   31.5400   35.3120 H   0  0  0  0  0  0  0  0  0  0  0  0
   35.2190   32.0840   36.6980 C   0  0  0  0  0  0  0  0  0  0  0  0
   35.8700   32.7060   37.2630 H   0  0  0  0  0  0  0  0  0  0  0  0
   33.9100   31.9690   37.1280 C   0  0  0  0  0  3  0  0  0  0  0  0
   33.0160   31.1750   36.4400 C   0  0  0  0  0  3  0  0  0  0  0  0
   33.1090   28.3620   33.8940 H   0  0  0  0  0  0  0  0  0  0  0  0
   32.3860   29.4420   34.3390 S   0  0  0  0  0  0  0  0  0  0  0  0
   31.7340   30.1680   33.1970 O   0  0  0  0  0  0  0  0  0  0  0  0
   31.2900   28.8960   35.2150 O   0  0  0  0  0  0  0  0  0  0  0  0
   37.2260   26.8280   32.9000 C   0  0  0  0  0  0  0  0  0  0  0  0
   36.4720   26.0450   32.6690 H   0  0  0  0  0  0  0  0  0  0  0  0
   37.6500   26.7270   33.9180 H   0  0  0  0  0  0  0  0  0  0  0  0
   38.3580   26.7730   31.8990 C   0  0  0  0  0  0  0  0  0  0  0  0
   38.4770   27.8090   31.5220 H   0  0  0  0  0  0  0  0  0  0  0  0
   38.0440   26.0380   31.1340 H   0  0  0  0  0  0  0  0  0  0  0  0
   39.9220   26.7680   33.8790 C   0  0  1  0  0  0  0  0  0  0  0  0
   40.7560   27.3260   32.7490 C   0  0  0  0  0  0  0  0  0  0  0  0
   39.6610   26.3690   32.4900 C   0  0  2  0  0  0  0  0  0  0  0  0
   39.1860   27.4430   34.3790 H   0  0  0  0  0  0  0  0  0  0  0  0
   41.8140   27.0530   32.6630 H   0  0  0  0  0  0  0  0  0  0  0  0
   40.5190   28.3760   32.4810 H   0  0  0  0  0  0  0  0  0  0  0  0
   40.0370   25.3340   32.2390 H   0  0  0  0  0  0  0  0  0  0  0  0
   40.6520   25.8730   34.8320 C   0  0  0  0  0  0  0  0  0  0  0  0
   41.4920   25.3470   34.3520 H   0  0  0  0  0  0  0  0  0  0  0  0
   41.0380   26.5420   35.6540 H   0  0  0  0  0  0  0  0  0  0  0  0
   37.7000   24.3560   36.5770 C   0  0  0  0  0  0  0  0  0  0  0  0
   38.5910   25.3140   35.9950 C   0  0  0  0  0  0  0  0  0  0  0  0
   39.7470   24.8630   35.4270 C   0  0  0  0  0  0  0  0  0  0  0  0
   39.9910   23.5350   35.4420 N   0  0  0  0  0  0  0  0  0  0  0  0
   39.1540   22.6460   35.9870 C   0  0  0  0  0  0  0  0  0  0  0  0
   38.0190   23.0680   36.5470 N   0  0  0  0  0  0  0  0  0  0  0  0
   36.8130   24.8050   37.0010 H   0  0  0  0  0  0  0  0  0  0  0  0
   38.3550   26.3710   36.0060 H   0  0  0  0  0  0  0  0  0  0  0  0
   39.3400   21.5900   36.0030 H   0  0  0  0  0  0  0  0  0  0  0  0
  1 10  1  0  0  0  0
  2 27  1  0  0  0  0
  2  1  2  0  0  0  0
  3  2  1  0  0  0  0
  4  3  2  0  0  0  0
  4  8  1  0  0  0  0
  5  6  1  0  0  0  0
  5  4  1  0  0  0  0
  6  7  2  0  0  0  0
  7  8  1  0  0  0  0
  7 14  1  0  0  0  0
  8  9  2  0  0  0  0
  9  1  1  0  0  0  0
  9 16  1  0  0  0  0
 11  3  1  0  0  0  0
 12  5  1  0  0  0  0
 13  6  1  0  0  0  0
 15 22  1  0  0  0  0
 16 15  2  0  0  0  0
 16 17  1  0  0  0  0
 17 19  2  0  0  0  0
 18 17  1  0  0  0  0
 19 21  1  0  0  0  0
 19 20  1  0  0  0  0
 22 21  2  0  0  0  0
 23 24  1  0  0  0  0
 24 26  2  0  0  0  0
 24 15  1  0  0  0  0
 25 24  2  0  0  0  0
 27 29  1  0  0  0  0
 28 27  1  0  0  0  0
 30 35  1  0  0  0  0
 30 27  1  0  0  0  0
 31 30  1  0  0  0  0
 32 30  1  0  0  0  0
 33 36  1  1  0  0  0
 33 40  1  0  0  0  0
 34 33  1  0  0  0  0
 35 39  1  6  0  0  0
 35 34  1  0  0  0  0
 35 33  1  0  0  0  0
 37 34  1  0  0  0  0
 38 34  1  0  0  0  0
 40 45  1  0  0  0  0
 40 42  1  0  0  0  0
 41 40  1  0  0  0  0
 43 49  1  0  0  0  0
 44 50  1  0  0  0  0
 44 43  2  0  0  0  0
 45 46  2  0  0  0  0
 45 44  1  0  0  0  0
 46 47  1  0  0  0  0
 47 51  1  0  0  0  0
 47 48  2  0  0  0  0
 48 43  1  0  0  0  0
M  END
>  <minimizedAffinity>
-6.33089876

$$$$

 OpenBabel03262520523D

 51 55  0  0  1  0  0  0  0  0999 V2000
   36.0450   28.7280   34.5220 C   0  0  0  0  0  0  0  0  0  0  0  0
   36.6890   28.0190   33.5210 C   0  0  0  0  0  0  0  0  0  0  0  0
   36.6080   28.4770   32.2130 C   0  0  0  0  0  0  0  0  0  0  0  0
   35.9130   29.6050   31.8760 C   0  0  0  0  0  0  0  0  0  0  0  0
   35.7080   30.2160   30.6980 N   0  0  0  0  0  0  0  0  0  0  0  0
   34.9410   31.2980   30.9620 C   0  0  0  0  0  0  0  0  0  0  0  0
   34.6310   31.4160   32.3120 C   0  0  0  0  0  0  0  0  0  0  0  0
   35.2730   30.3100   32.8680 C   0  0  0  0  0  0  0  0  0  0  0  0
   35.3470   29.8680   34.1570 C   0  0  0  0  0  0  0  0  0  0  0  0
   36.0380   28.4730   35.5610 H   0  0  0  0  0  0  0  0  0  0  0  0
   37.1320   27.8860   31.4500 H   0  0  0  0  0  0  0  0  0  0  0  0
   36.0480   29.9510   29.7470 H   0  0  0  0  0  0  0  0  0  0  0  0
   34.6060   31.9960   30.2010 H   0  0  0  0  0  0  0  0  0  0  0  0
   34.0420   32.1790   32.7750 H   0  0  0  0  0  0  0  0  0  0  0  0
   33.3420   30.5830   35.6000 C   0  0  0  0  0  0  0  0  0  0  0  0
   34.6470   30.6500   35.1940 C   0  0  0  0  0  0  0  0  0  0  0  0
   35.5230   31.5620   35.7870 C   0  0  0  0  0  0  0  0  0  0  0  0
   36.5810   31.7030   35.5440 H   0  0  0  0  0  0  0  0  0  0  0  0
   35.1030   32.4140   36.7920 C   0  0  0  0  0  0  0  0  0  0  0  0
   35.7250   33.1250   37.2790 H   0  0  0  0  0  0  0  0  0  0  0  0
   33.7820   32.3370   37.1930 C   0  0  0  0  0  3  0  0  0  0  0  0
   32.9240   31.4330   36.6020 C   0  0  0  0  0  3  0  0  0  0  0  0
   33.1840   28.3550   34.3520 H   0  0  0  0  0  0  0  0  0  0  0  0
   32.3910   29.3990   34.7600 S   0  0  0  0  0  0  0  0  0  0  0  0
   31.6210   29.9800   33.6080 O   0  0  0  0  0  0  0  0  0  0  0  0
   31.3930   28.8280   35.7320 O   0  0  0  0  0  0  0  0  0  0  0  0
   37.4490   26.7850   33.8950 C   0  0  0  0  0  0  0  0  0  0  0  0
   38.4060   26.8020   33.3310 H   0  0  0  0  0  0  0  0  0  0  0  0
   36.8410   25.8850   33.6800 H   0  0  0  0  0  0  0  0  0  0  0  0
   37.7180   26.8420   35.3820 C   0  0  0  0  0  0  0  0  0  0  0  0
   36.7250   26.7750   35.8710 H   0  0  0  0  0  0  0  0  0  0  0  0
   38.2510   27.7960   35.5520 H   0  0  0  0  0  0  0  0  0  0  0  0
   39.2700   24.9140   34.8950 C   0  0  1  0  0  0  0  0  0  0  0  0
   38.1470   24.2930   35.6920 C   0  0  0  0  0  0  0  0  0  0  0  0
   38.5320   25.7050   35.8870 C   0  0  2  0  0  0  0  0  0  0  0  0
   39.0950   25.1310   33.8130 H   0  0  0  0  0  0  0  0  0  0  0  0
   38.3670   23.5130   36.4300 H   0  0  0  0  0  0  0  0  0  0  0  0
   37.2060   24.1490   35.1230 H   0  0  0  0  0  0  0  0  0  0  0  0
   39.1050   25.8740   36.8460 H   0  0  0  0  0  0  0  0  0  0  0  0
   40.6360   24.3690   35.1790 C   0  0  0  0  0  0  0  0  0  0  0  0
   40.7860   24.1520   36.2480 H   0  0  0  0  0  0  0  0  0  0  0  0
   40.7220   23.4170   34.5790 H   0  0  0  0  0  0  0  0  0  0  0  0
   42.3310   27.2500   33.4810 C   0  0  0  0  0  0  0  0  0  0  0  0
   41.3240   26.3300   33.9180 C   0  0  0  0  0  0  0  0  0  0  0  0
   41.6950   25.3060   34.7400 C   0  0  0  0  0  0  0  0  0  0  0  0
   42.9930   25.2110   35.0970 N   0  0  0  0  0  0  0  0  0  0  0  0
   43.9290   26.0740   34.6850 C   0  0  0  0  0  0  0  0  0  0  0  0
   43.5850   27.0830   33.8820 N   0  0  0  0  0  0  0  0  0  0  0  0
   41.9440   28.0260   32.8350 H   0  0  0  0  0  0  0  0  0  0  0  0
   40.2930   26.4450   33.6050 H   0  0  0  0  0  0  0  0  0  0  0  0
   44.9620   26.0060   34.9650 H   0  0  0  0  0  0  0  0  0  0  0  0
  1 10  1  0  0  0  0
  2 27  1  0  0  0  0
  2  1  2  0  0  0  0
  3  2  1  0  0  0  0
  4  3  2  0  0  0  0
  4  8  1  0  0  0  0
  5  6  1  0  0  0  0
  5  4  1  0  0  0  0
  6  7  2  0  0  0  0
  7 14  1  0  0  0  0
  7  8  1  0  0  0  0
  8  9  2  0  0  0  0
  9  1  1  0  0  0  0
  9 16  1  0  0  0  0
 11  3  1  0  0  0  0
 12  5  1  0  0  0  0
 13  6  1  0  0  0  0
 15 22  1  0  0  0  0
 16 15  2  0  0  0  0
 16 17  1  0  0  0  0
 17 19  2  0  0  0  0
 18 17  1  0  0  0  0
 19 21  1  0  0  0  0
 19 20  1  0  0  0  0
 22 21  2  0  0  0  0
 23 24  1  0  0  0  0
 24 15  1  0  0  0  0
 24 26  2  0  0  0  0
 25 24  2  0  0  0  0
 27 30  1  0  0  0  0
 28 27  1  0  0  0  0
 29 27  1  0  0  0  0
 30 32  1  0  0  0  0
 30 31  1  0  0  0  0
 30 35  1  0  0  0  0
 33 36  1  6  0  0  0
 33 40  1  0  0  0  0
 33 34  1  0  0  0  0
 33 35  1  0  0  0  0
 34 35  1  0  0  0  0
 34 37  1  0  0  0  0
 35 39  1  1  0  0  0
 38 34  1  0  0  0  0
 40 41  1  0  0  0  0
 42 40  1  0  0  0  0
 43 48  2  0  0  0  0
 43 44  1  0  0  0  0
 44 45  2  0  0  0  0
 45 46  1  0  0  0  0
 45 40  1  0  0  0  0
 47 51  1  0  0  0  0
 47 46  2  0  0  0  0
 48 47  1  0  0  0  0
 49 43  1  0  0  0  0
 50 44  1  0  0  0  0
M  END
>  <minimizedAffinity>
-6.2164731

$$$$

 OpenBabel03262520523D

 51 55  0  0  1  0  0  0  0  0999 V2000
   40.1860   25.0050   32.8740 C   0  0  0  0  0  0  0  0  0  0  0  0
   41.2030   25.5590   33.6330 C   0  0  0  0  0  0  0  0  0  0  0  0
   40.8760   26.4220   34.6700 C   0  0  0  0  0  0  0  0  0  0  0  0
   39.5820   26.7460   34.9700 C   0  0  0  0  0  0  0  0  0  0  0  0
   39.0490   27.5430   35.9100 N   0  0  0  0  0  0  0  0  0  0  0  0
   37.7100   27.4870   35.7390 C   0  0  0  0  0  0  0  0  0  0  0  0
   37.3400   26.6560   34.6880 C   0  0  0  0  0  0  0  0  0  0  0  0
   38.5700   26.1970   34.2170 C   0  0  0  0  0  0  0  0  0  0  0  0
   38.8820   25.3470   33.1960 C   0  0  0  0  0  0  0  0  0  0  0  0
   40.3160   24.3300   32.0550 H   0  0  0  0  0  0  0  0  0  0  0  0
   41.7110   26.8400   35.2470 H   0  0  0  0  0  0  0  0  0  0  0  0
   39.5270   28.1100   36.6450 H   0  0  0  0  0  0  0  0  0  0  0  0
   37.0020   28.0330   36.3560 H   0  0  0  0  0  0  0  0  0  0  0  0
   36.3470   26.4430   34.3510 H   0  0  0  0  0  0  0  0  0  0  0  0
   37.0400   25.3450   31.4010 C   0  0  0  0  0  0  0  0  0  0  0  0
   37.7690   24.7790   32.4110 C   0  0  0  0  0  0  0  0  0  0  0  0
   37.4950   23.4750   32.8320 C   0  0  0  0  0  0  0  0  0  0  0  0
   38.0110   22.9250   33.6250 H   0  0  0  0  0  0  0  0  0  0  0  0
   36.4910   22.7270   32.2470 C   0  0  0  0  0  0  0  0  0  0  0  0
   36.2400   21.7320   32.5260 H   0  0  0  0  0  0  0  0  0  0  0  0
   35.7610   23.3100   31.2280 C   0  0  0  0  0  3  0  0  0  0  0  0
   36.0390   24.5970   30.8180 C   0  0  0  0  0  3  0  0  0  0  0  0
   38.0110   27.6030   32.1110 H   0  0  0  0  0  0  0  0  0  0  0  0
   37.5090   26.9670   31.0030 S   0  0  0  0  0  0  0  0  0  0  0  0
   36.3960   27.7600   30.3790 O   0  0  0  0  0  0  0  0  0  0  0  0
   38.6310   26.8960   30.0020 O   0  0  0  0  0  0  0  0  0  0  0  0
   42.6170   25.2010   33.3020 C   0  0  0  0  0  0  0  0  0  0  0  0
   43.0720   26.0790   32.7940 H   0  0  0  0  0  0  0  0  0  0  0  0
   42.6420   24.2860   32.6790 H   0  0  0  0  0  0  0  0  0  0  0  0
   43.3380   24.9200   34.6010 C   0  0  0  0  0  0  0  0  0  0  0  0
   42.8900   25.6040   35.3490 H   0  0  0  0  0  0  0  0  0  0  0  0
   44.4090   25.1030   34.3930 H   0  0  0  0  0  0  0  0  0  0  0  0
   42.4180   23.3730   36.3680 C   0  0  1  0  0  0  0  0  0  0  0  0
   43.8780   22.9950   36.2680 C   0  0  0  0  0  0  0  0  0  0  0  0
   43.1470   23.5340   35.1040 C   0  0  2  0  0  0  0  0  0  0  0  0
   42.1460   24.2930   36.9400 H   0  0  0  0  0  0  0  0  0  0  0  0
   44.1770   21.9430   36.3440 H   0  0  0  0  0  0  0  0  0  0  0  0
   44.5710   23.7160   36.7480 H   0  0  0  0  0  0  0  0  0  0  0  0
   42.9020   22.7410   34.3370 H   0  0  0  0  0  0  0  0  0  0  0  0
   41.4750   22.2320   36.5940 C   0  0  0  0  0  0  0  0  0  0  0  0
   41.3590   21.6010   35.6990 H   0  0  0  0  0  0  0  0  0  0  0  0
   41.9160   21.6250   37.4370 H   0  0  0  0  0  0  0  0  0  0  0  0
   37.8960   23.3330   36.3960 C   0  0  0  0  0  0  0  0  0  0  0  0
   39.2000   22.8720   36.0230 C   0  0  0  0  0  0  0  0  0  0  0  0
   40.1350   22.7100   37.0050 C   0  0  0  0  0  0  0  0  0  0  0  0
   39.7830   22.9950   38.2760 N   0  0  0  0  0  0  0  0  0  0  0  0
   38.5630   23.4260   38.6170 C   0  0  0  0  0  0  0  0  0  0  0  0
   37.6350   23.5890   37.6720 N   0  0  0  0  0  0  0  0  0  0  0  0
   37.2240   23.4300   35.5540 H   0  0  0  0  0  0  0  0  0  0  0  0
   39.4390   22.6560   34.9890 H   0  0  0  0  0  0  0  0  0  0  0  0
   38.2750   23.6540   39.6240 H   0  0  0  0  0  0  0  0  0  0  0  0
  1  9  2  0  0  0  0
  1  2  1  0  0  0  0
  2  3  2  0  0  0  0
  3  4  1  0  0  0  0
  3 11  1  0  0  0  0
  4  5  1  0  0  0  0
  5 12  1  0  0  0  0
  6  5  1  0  0  0  0
  6 13  1  0  0  0  0
  7  6  2  0  0  0  0
  8  7  1  0  0  0  0
  8  4  2  0  0  0  0
  9  8  1  0  0  0  0
 10  1  1  0  0  0  0
 14  7  1  0  0  0  0
 15 16  1  0  0  0  0
 16 17  2  0  0  0  0
 16  9  1  0  0  0  0
 17 18  1  0  0  0  0
 19 20  1  0  0  0  0
 19 17  1  0  0  0  0
 21 19  2  0  0  0  0
 22 21  1  0  0  0  0
 22 15  2  0  0  0  0
 24 15  1  0  0  0  0
 24 23  1  0  0  0  0
 25 24  2  0  0  0  0
 26 24  2  0  0  0  0
 27  2  1  0  0  0  0
 27 30  1  0  0  0  0
 28 27  1  0  0  0  0
 29 27  1  0  0  0  0
 30 35  1  0  0  0  0
 30 31  1  0  0  0  0
 32 30  1  0  0  0  0
 33 40  1  0  0  0  0
 33 36  1  1  0  0  0
 34 37  1  0  0  0  0
 34 33  1  0  0  0  0
 34 38  1  0  0  0  0
 35 39  1  6  0  0  0
 35 34  1  0  0  0  0
 35 33  1  0  0  0  0
 40 45  1  0  0  0  0
 40 42  1  0  0  0  0
 41 40  1  0  0  0  0
 43 48  1  0  0  0  0
 44 43  2  0  0  0  0
 44 45  1  0  0  0  0
 45 46  2  0  0  0  0
 46 47  1  0  0  0  0
 47 51  1  0  0  0  0
 48 47  2  0  0  0  0
 49 43  1  0  0  0  0
 50 44  1  0  0  0  0
M  END
>  <minimizedAffinity>
-6.17627192

$$$$

 OpenBabel03262520523D

 51 55  0  0  1  0  0  0  0  0999 V2000
   35.9940   28.3210   33.5230 C   0  0  0  0  0  0  0  0  0  0  0  0
   36.5890   27.6970   32.4390 C   0  0  0  0  0  0  0  0  0  0  0  0
   36.7230   28.3980   31.2490 C   0  0  0  0  0  0  0  0  0  0  0  0
   36.2870   29.6860   31.1070 C   0  0  0  0  0  0  0  0  0  0  0  0
   36.3140   30.5350   30.0670 N   0  0  0  0  0  0  0  0  0  0  0  0
   35.7410   31.6810   30.4990 C   0  0  0  0  0  0  0  0  0  0  0  0
   35.3280   31.6040   31.8250 C   0  0  0  0  0  0  0  0  0  0  0  0
   35.6950   30.3070   32.1820 C   0  0  0  0  0  0  0  0  0  0  0  0
   35.5600   29.6260   33.3570 C   0  0  0  0  0  0  0  0  0  0  0  0
   35.8390   27.8830   34.4870 H   0  0  0  0  0  0  0  0  0  0  0  0
   37.1990   27.8670   30.4140 H   0  0  0  0  0  0  0  0  0  0  0  0
   36.6900   30.3900   29.1050 H   0  0  0  0  0  0  0  0  0  0  0  0
   35.6170   32.5620   29.8770 H   0  0  0  0  0  0  0  0  0  0  0  0
   34.8490   32.3700   32.3970 H   0  0  0  0  0  0  0  0  0  0  0  0
   33.5990   30.3780   34.8420 C   0  0  0  0  0  0  0  0  0  0  0  0
   34.9200   30.3260   34.4880 C   0  0  0  0  0  0  0  0  0  0  0  0
   35.8800   31.0010   35.2450 C   0  0  0  0  0  0  0  0  0  0  0  0
   36.9580   31.0290   35.0570 H   0  0  0  0  0  0  0  0  0  0  0  0
   35.5280   31.7350   36.3630 C   0  0  0  0  0  0  0  0  0  0  0  0
   36.2150   32.2670   36.9760 H   0  0  0  0  0  0  0  0  0  0  0  0
   34.1910   31.7800   36.7110 C   0  0  0  0  0  3  0  0  0  0  0  0
   33.2500   31.1100   35.9580 C   0  0  0  0  0  3  0  0  0  0  0  0
   33.2040   28.4110   33.2540 H   0  0  0  0  0  0  0  0  0  0  0  0
   32.5420   29.4860   33.7960 S   0  0  0  0  0  0  0  0  0  0  0  0
   31.9240   30.3390   32.7240 O   0  0  0  0  0  0  0  0  0  0  0  0
   31.4220   28.9250   34.6320 O   0  0  0  0  0  0  0  0  0  0  0  0
   37.0650   26.2870   32.5990 C   0  0  0  0  0  0  0  0  0  0  0  0
   36.9730   26.0260   33.6760 H   0  0  0  0  0  0  0  0  0  0  0  0
   38.1020   26.1910   32.2220 H   0  0  0  0  0  0  0  0  0  0  0  0
   36.1660   25.3990   31.7690 C   0  0  0  0  0  0  0  0  0  0  0  0
   35.6930   26.0660   31.0190 H   0  0  0  0  0  0  0  0  0  0  0  0
   35.4600   24.9370   32.4840 H   0  0  0  0  0  0  0  0  0  0  0  0
   38.0400   23.7130   31.6850 C   0  0  1  0  0  0  0  0  0  0  0  0
   38.2390   24.5500   30.4430 C   0  0  0  0  0  0  0  0  0  0  0  0
   36.8950   24.3440   31.0180 C   0  0  2  0  0  0  0  0  0  0  0  0
   38.3730   24.1310   32.6660 H   0  0  0  0  0  0  0  0  0  0  0  0
   38.5640   24.0750   29.5100 H   0  0  0  0  0  0  0  0  0  0  0  0
   38.6690   25.5550   30.6330 H   0  0  0  0  0  0  0  0  0  0  0  0
   36.2690   23.6200   30.4160 H   0  0  0  0  0  0  0  0  0  0  0  0
   38.3390   22.2540   31.5290 C   0  0  0  0  0  0  0  0  0  0  0  0
   38.5630   21.9820   30.4860 H   0  0  0  0  0  0  0  0  0  0  0  0
   39.2370   22.0480   32.1800 H   0  0  0  0  0  0  0  0  0  0  0  0
   35.5220   19.7790   31.5110 C   0  0  0  0  0  0  0  0  0  0  0  0
   36.6150   20.5980   31.0820 C   0  0  0  0  0  0  0  0  0  0  0  0
   37.2100   21.4170   31.9970 C   0  0  0  0  0  0  0  0  0  0  0  0
   36.7360   21.4140   33.2610 N   0  0  0  0  0  0  0  0  0  0  0  0
   35.7140   20.6460   33.6560 C   0  0  0  0  0  0  0  0  0  0  0  0
   35.1210   19.8380   32.7750 N   0  0  0  0  0  0  0  0  0  0  0  0
   35.1160   19.1640   30.7190 H   0  0  0  0  0  0  0  0  0  0  0  0
   36.9630   20.5680   30.0560 H   0  0  0  0  0  0  0  0  0  0  0  0
   35.3320   20.6380   34.6570 H   0  0  0  0  0  0  0  0  0  0  0  0
  1 10  1  0  0  0  0
  2 27  1  0  0  0  0
  2  1  2  0  0  0  0
  3  2  1  0  0  0  0
  4  3  2  0  0  0  0
  4  8  1  0  0  0  0
  5  6  1  0  0  0  0
  5  4  1  0  0  0  0
  6  7  2  0  0  0  0
  7  8  1  0  0  0  0
  7 14  1  0  0  0  0
  8  9  2  0  0  0  0
  9  1  1  0  0  0  0
  9 16  1  0  0  0  0
 11  3  1  0  0  0  0
 12  5  1  0  0  0  0
 13  6  1  0  0  0  0
 15 22  1  0  0  0  0
 16 15  2  0  0  0  0
 16 17  1  0  0  0  0
 17 19  2  0  0  0  0
 18 17  1  0  0  0  0
 19 21  1  0  0  0  0
 19 20  1  0  0  0  0
 22 21  2  0  0  0  0
 23 24  1  0  0  0  0
 24 26  2  0  0  0  0
 24 15  1  0  0  0  0
 25 24  2  0  0  0  0
 27 28  1  0  0  0  0
 29 27  1  0  0  0  0
 30 32  1  0  0  0  0
 30 27  1  0  0  0  0
 31 30  1  0  0  0  0
 33 36  1  1  0  0  0
 34 38  1  0  0  0  0
 34 35  1  0  0  0  0
 34 33  1  0  0  0  0
 35 39  1  6  0  0  0
 35 33  1  0  0  0  0
 35 30  1  0  0  0  0
 37 34  1  0  0  0  0
 40 33  1  0  0  0  0
 40 45  1  0  0  0  0
 40 42  1  0  0  0  0
 41 40  1  0  0  0  0
 43 48  1  0  0  0  0
 44 43  2  0  0  0  0
 44 45  1  0  0  0  0
 45 46  2  0  0  0  0
 46 47  1  0  0  0  0
 47 51  1  0  0  0  0
 48 47  2  0  0  0  0
 49 43  1  0  0  0  0
 50 44  1  0  0  0  0
M  END
>  <minimizedAffinity>
-6.08191156

$$$$

 OpenBabel03262520523D

 51 55  0  0  1  0  0  0  0  0999 V2000
   37.9070   23.8890   32.3810 C   0  0  0  0  0  0  0  0  0  0  0  0
   37.8460   23.1510   31.2110 C   0  0  0  0  0  0  0  0  0  0  0  0
   38.2870   23.7270   30.0280 C   0  0  0  0  0  0  0  0  0  0  0  0
   38.7810   25.0010   29.9760 C   0  0  0  0  0  0  0  0  0  0  0  0
   39.2530   25.7410   28.9590 N   0  0  0  0  0  0  0  0  0  0  0  0
   39.6060   26.9320   29.4920 C   0  0  0  0  0  0  0  0  0  0  0  0
   39.3730   26.9960   30.8610 C   0  0  0  0  0  0  0  0  0  0  0  0
   38.8420   25.7360   31.1360 C   0  0  0  0  0  0  0  0  0  0  0  0
   38.4110   25.1780   32.3050 C   0  0  0  0  0  0  0  0  0  0  0  0
   37.5980   23.5520   33.3480 H   0  0  0  0  0  0  0  0  0  0  0  0
   38.2220   23.1090   29.1230 H   0  0  0  0  0  0  0  0  0  0  0  0
   39.3500   25.4940   27.9500 H   0  0  0  0  0  0  0  0  0  0  0  0
   40.0250   27.7490   28.9110 H   0  0  0  0  0  0  0  0  0  0  0  0
   39.5640   27.8230   31.5110 H   0  0  0  0  0  0  0  0  0  0  0  0
   39.5530   26.2080   34.3660 C   0  0  0  0  0  0  0  0  0  0  0  0
   38.4910   25.9980   33.5290 C   0  0  0  0  0  0  0  0  0  0  0  0
   37.2600   26.6060   33.7870 C   0  0  0  0  0  0  0  0  0  0  0  0
   36.3480   26.5100   33.1900 H   0  0  0  0  0  0  0  0  0  0  0  0
   37.0800   27.4280   34.8830 C   0  0  0  0  0  0  0  0  0  0  0  0
   36.1680   27.9160   35.1270 H   0  0  0  0  0  0  0  0  0  0  0  0
   38.1600   27.6330   35.7220 C   0  0  0  0  0  3  0  0  0  0  0  0
   39.3720   27.0290   35.4590 C   0  0  0  0  0  3  0  0  0  0  0  0
   40.7100   24.3380   33.0560 H   0  0  0  0  0  0  0  0  0  0  0  0
   41.0050   25.3800   33.9010 S   0  0  0  0  0  0  0  0  0  0  0  0
   41.8120   24.9110   35.0790 O   0  0  0  0  0  0  0  0  0  0  0  0
   41.8600   26.3400   33.1190 O   0  0  0  0  0  0  0  0  0  0  0  0
   37.3050   21.7570   31.2740 C   0  0  0  0  0  0  0  0  0  0  0  0
   37.7360   21.2740   32.1770 H   0  0  0  0  0  0  0  0  0  0  0  0
   37.5480   21.2130   30.3400 H   0  0  0  0  0  0  0  0  0  0  0  0
   35.8010   21.8510   31.4000 C   0  0  0  0  0  0  0  0  0  0  0  0
   35.3910   21.2720   30.5480 H   0  0  0  0  0  0  0  0  0  0  0  0
   35.5670   22.9310   31.3770 H   0  0  0  0  0  0  0  0  0  0  0  0
   36.2390   20.8130   33.6570 C   0  0  1  0  0  0  0  0  0  0  0  0
   35.3790   19.7970   32.9420 C   0  0  0  0  0  0  0  0  0  0  0  0
   35.2650   21.2390   32.6440 C   0  0  2  0  0  0  0  0  0  0  0  0
   37.3240   20.8650   33.3980 H   0  0  0  0  0  0  0  0  0  0  0  0
   34.6100   19.2450   33.4960 H   0  0  0  0  0  0  0  0  0  0  0  0
   35.9120   19.2090   32.1680 H   0  0  0  0  0  0  0  0  0  0  0  0
   34.3330   21.7030   33.0810 H   0  0  0  0  0  0  0  0  0  0  0  0
   35.9690   20.9640   35.1220 C   0  0  0  0  0  0  0  0  0  0  0  0
   34.9750   21.3930   35.3230 H   0  0  0  0  0  0  0  0  0  0  0  0
   36.0340   19.9260   35.5590 H   0  0  0  0  0  0  0  0  0  0  0  0
   39.2140   22.7180   35.7940 C   0  0  0  0  0  0  0  0  0  0  0  0
   38.2130   21.8970   35.1820 C   0  0  0  0  0  0  0  0  0  0  0  0
   36.9860   21.8190   35.7750 C   0  0  0  0  0  0  0  0  0  0  0  0
   36.7800   22.5200   36.9100 N   0  0  0  0  0  0  0  0  0  0  0  0
   37.7190   23.2860   37.4770 C   0  0  0  0  0  0  0  0  0  0  0  0
   38.9240   23.3750   36.9110 N   0  0  0  0  0  0  0  0  0  0  0  0
   40.1510   22.7190   35.2540 H   0  0  0  0  0  0  0  0  0  0  0  0
   38.4240   21.3510   34.2700 H   0  0  0  0  0  0  0  0  0  0  0  0
   37.5620   23.8450   38.3780 H   0  0  0  0  0  0  0  0  0  0  0  0
  1 10  1  0  0  0  0
  2 27  1  0  0  0  0
  2  1  2  0  0  0  0
  3  2  1  0  0  0  0
  4  3  2  0  0  0  0
  4  8  1  0  0  0  0
  5  6  1  0  0  0  0
  5  4  1  0  0  0  0
  6  7  2  0  0  0  0
  7  8  1  0  0  0  0
  7 14  1  0  0  0  0
  8  9  2  0  0  0  0
  9  1  1  0  0  0  0
  9 16  1  0  0  0  0
 11  3  1  0  0  0  0
 12  5  1  0  0  0  0
 13  6  1  0  0  0  0
 15 22  1  0  0  0  0
 16 17  1  0  0  0  0
 16 15  2  0  0  0  0
 17 19  2  0  0  0  0
 18 17  1  0  0  0  0
 19 20  1  0  0  0  0
 19 21  1  0  0  0  0
 22 21  2  0  0  0  0
 23 24  1  0  0  0  0
 24 15  1  0  0  0  0
 24 25  2  0  0  0  0
 26 24  2  0  0  0  0
 27 30  1  0  0  0  0
 27 28  1  0  0  0  0
 29 27  1  0  0  0  0
 30 35  1  0  0  0  0
 31 30  1  0  0  0  0
 32 30  1  0  0  0  0
 33 36  1  6  0  0  0
 33 40  1  0  0  0  0
 34 37  1  0  0  0  0
 34 33  1  0  0  0  0
 35 34  1  0  0  0  0
 35 39  1  1  0  0  0
 35 33  1  0  0  0  0
 38 34  1  0  0  0  0
 40 41  1  0  0  0  0
 40 42  1  0  0  0  0
 40 45  1  0  0  0  0
 43 48  1  0  0  0  0
 44 45  1  0  0  0  0
 44 43  2  0  0  0  0
 45 46  2  0  0  0  0
 46 47  1  0  0  0  0
 47 51  1  0  0  0  0
 48 47  2  0  0  0  0
 49 43  1  0  0  0  0
 50 44  1  0  0  0  0
M  END
>  <minimizedAffinity>
-6.07688665

$$$$

 OpenBabel03262520523D

 51 55  0  0  1  0  0  0  0  0999 V2000
   36.0370   28.6770   34.5040 C   0  0  0  0  0  0  0  0  0  0  0  0
   36.6680   27.9520   33.5080 C   0  0  0  0  0  0  0  0  0  0  0  0
   36.6070   28.4110   32.1990 C   0  0  0  0  0  0  0  0  0  0  0  0
   35.9440   29.5570   31.8580 C   0  0  0  0  0  0  0  0  0  0  0  0
   35.7620   30.1720   30.6780 N   0  0  0  0  0  0  0  0  0  0  0  0
   35.0220   31.2740   30.9370 C   0  0  0  0  0  0  0  0  0  0  0  0
   34.7060   31.4000   32.2850 C   0  0  0  0  0  0  0  0  0  0  0  0
   35.3160   30.2780   32.8460 C   0  0  0  0  0  0  0  0  0  0  0  0
   35.3710   29.8350   34.1350 C   0  0  0  0  0  0  0  0  0  0  0  0
   36.0160   28.4230   35.5430 H   0  0  0  0  0  0  0  0  0  0  0  0
   37.1200   27.8070   31.4400 H   0  0  0  0  0  0  0  0  0  0  0  0
   36.1010   29.8990   29.7300 H   0  0  0  0  0  0  0  0  0  0  0  0
   34.7090   31.9800   30.1740 H   0  0  0  0  0  0  0  0  0  0  0  0
   34.1350   32.1790   32.7440 H   0  0  0  0  0  0  0  0  0  0  0  0
   33.3770   30.5990   35.5690 C   0  0  0  0  0  0  0  0  0  0  0  0
   34.6850   30.6360   35.1670 C   0  0  0  0  0  0  0  0  0  0  0  0
   35.5790   31.5290   35.7620 C   0  0  0  0  0  0  0  0  0  0  0  0
   36.6410   31.6450   35.5220 H   0  0  0  0  0  0  0  0  0  0  0  0
   35.1740   32.3930   36.7620 C   0  0  0  0  0  0  0  0  0  0  0  0
   35.8100   33.0910   37.2500 H   0  0  0  0  0  0  0  0  0  0  0  0
   33.8510   32.3460   37.1590 C   0  0  0  0  0  3  0  0  0  0  0  0
   32.9750   31.4610   36.5670 C   0  0  0  0  0  3  0  0  0  0  0  0
   33.2010   28.5500   34.0460 H   0  0  0  0  0  0  0  0  0  0  0  0
   32.4030   29.4350   34.7280 S   0  0  0  0  0  0  0  0  0  0  0  0
   31.3930   30.0700   33.8150 O   0  0  0  0  0  0  0  0  0  0  0  0
   31.6470   28.6330   35.7530 O   0  0  0  0  0  0  0  0  0  0  0  0
   37.3930   26.6990   33.8870 C   0  0  0  0  0  0  0  0  0  0  0  0
   38.0790   26.4460   33.0490 H   0  0  0  0  0  0  0  0  0  0  0  0
   36.6680   25.8910   34.1060 H   0  0  0  0  0  0  0  0  0  0  0  0
   38.1870   26.9870   35.1410 C   0  0  0  0  0  0  0  0  0  0  0  0
   38.0400   26.1070   35.8000 H   0  0  0  0  0  0  0  0  0  0  0  0
   37.7810   27.9340   35.5400 H   0  0  0  0  0  0  0  0  0  0  0  0
   40.1700   26.6390   33.6200 C   0  0  1  0  0  0  0  0  0  0  0  0
   40.5700   25.9630   34.9110 C   0  0  0  0  0  0  0  0  0  0  0  0
   39.6490   27.1180   34.9070 C   0  0  2  0  0  0  0  0  0  0  0  0
   39.4690   26.1030   32.9360 H   0  0  0  0  0  0  0  0  0  0  0  0
   41.6050   26.0320   35.2680 H   0  0  0  0  0  0  0  0  0  0  0  0
   40.0770   24.9850   35.0880 H   0  0  0  0  0  0  0  0  0  0  0  0
   40.1420   28.0690   35.2670 H   0  0  0  0  0  0  0  0  0  0  0  0
   41.2740   27.3520   32.9020 C   0  0  0  0  0  0  0  0  0  0  0  0
   41.4940   28.3360   33.3440 H   0  0  0  0  0  0  0  0  0  0  0  0
   42.1800   26.6840   32.9830 H   0  0  0  0  0  0  0  0  0  0  0  0
   39.4870   27.1180   29.6140 C   0  0  0  0  0  0  0  0  0  0  0  0
   39.8200   26.9460   30.9960 C   0  0  0  0  0  0  0  0  0  0  0  0
   40.9520   27.5450   31.4700 C   0  0  0  0  0  0  0  0  0  0  0  0
   41.6990   28.2690   30.6100 N   0  0  0  0  0  0  0  0  0  0  0  0
   41.3820   28.4270   29.3200 C   0  0  0  0  0  0  0  0  0  0  0  0
   40.2790   27.8490   28.8390 N   0  0  0  0  0  0  0  0  0  0  0  0
   38.5760   26.6090   29.3300 H   0  0  0  0  0  0  0  0  0  0  0  0
   39.1910   26.3550   31.6500 H   0  0  0  0  0  0  0  0  0  0  0  0
   41.9700   29.0000   28.6320 H   0  0  0  0  0  0  0  0  0  0  0  0
  1 10  1  0  0  0  0
  2 27  1  0  0  0  0
  2  1  2  0  0  0  0
  3  2  1  0  0  0  0
  4  3  2  0  0  0  0
  4  8  1  0  0  0  0
  5  6  1  0  0  0  0
  5  4  1  0  0  0  0
  6  7  2  0  0  0  0
  7 14  1  0  0  0  0
  7  8  1  0  0  0  0
  8  9  2  0  0  0  0
  9  1  1  0  0  0  0
  9 16  1  0  0  0  0
 11  3  1  0  0  0  0
 12  5  1  0  0  0  0
 13  6  1  0  0  0  0
 15 22  1  0  0  0  0
 16 15  2  0  0  0  0
 16 17  1  0  0  0  0
 17 19  2  0  0  0  0
 18 17  1  0  0  0  0
 19 21  1  0  0  0  0
 19 20  1  0  0  0  0
 22 21  2  0  0  0  0
 23 24  1  0  0  0  0
 24 15  1  0  0  0  0
 24 26  2  0  0  0  0
 25 24  2  0  0  0  0
 27 29  1  0  0  0  0
 27 30  1  0  0  0  0
 28 27  1  0  0  0  0
 30 32  1  0  0  0  0
 30 31  1  0  0  0  0
 33 36  1  6  0  0  0
 33 35  1  0  0  0  0
 33 34  1  0  0  0  0
 34 38  1  0  0  0  0
 34 37  1  0  0  0  0
 35 34  1  0  0  0  0
 35 30  1  0  0  0  0
 35 39  1  1  0  0  0
 40 42  1  0  0  0  0
 40 41  1  0  0  0  0
 40 33  1  0  0  0  0
 43 44  1  0  0  0  0
 44 45  2  0  0  0  0
 44 50  1  0  0  0  0
 45 40  1  0  0  0  0
 46 45  1  0  0  0  0
 47 46  2  0  0  0  0
 48 47  1  0  0  0  0
 48 43  2  0  0  0  0
 49 43  1  0  0  0  0
 51 47  1  0  0  0  0
M  END
>  <minimizedAffinity>
-6.05525589

$$$$

 OpenBabel03262520523D

 51 55  0  0  1  0  0  0  0  0999 V2000
   38.2370   26.3510   35.1860 C   0  0  0  0  0  0  0  0  0  0  0  0
   37.3390   27.0800   34.4240 C   0  0  0  0  0  0  0  0  0  0  0  0
   36.8170   26.5110   33.2700 C   0  0  0  0  0  0  0  0  0  0  0  0
   37.1590   25.2530   32.8580 C   0  0  0  0  0  0  0  0  0  0  0  0
   36.7830   24.5230   31.7960 N   0  0  0  0  0  0  0  0  0  0  0  0
   37.4420   23.3460   31.8940 C   0  0  0  0  0  0  0  0  0  0  0  0
   38.2590   23.2840   33.0170 C   0  0  0  0  0  0  0  0  0  0  0  0
   38.0520   24.5280   33.6120 C   0  0  0  0  0  0  0  0  0  0  0  0
   38.5690   25.0790   34.7480 C   0  0  0  0  0  0  0  0  0  0  0  0
   38.7020   26.6840   36.0900 H   0  0  0  0  0  0  0  0  0  0  0  0
   36.1090   27.1220   32.6950 H   0  0  0  0  0  0  0  0  0  0  0  0
   36.1220   24.7660   31.0260 H   0  0  0  0  0  0  0  0  0  0  0  0
   37.3430   22.5400   31.1730 H   0  0  0  0  0  0  0  0  0  0  0  0
   38.8810   22.4680   33.3190 H   0  0  0  0  0  0  0  0  0  0  0  0
   39.2900   23.4260   36.5820 C   0  0  0  0  0  0  0  0  0  0  0  0
   39.5240   24.2710   35.5310 C   0  0  0  0  0  0  0  0  0  0  0  0
   40.8240   24.4620   35.0570 C   0  0  0  0  0  0  0  0  0  0  0  0
   41.1260   25.1090   34.2280 H   0  0  0  0  0  0  0  0  0  0  0  0
   41.9010   23.8110   35.6290 C   0  0  0  0  0  0  0  0  0  0  0  0
   42.9090   23.9180   35.3090 H   0  0  0  0  0  0  0  0  0  0  0  0
   41.6520   22.9600   36.6900 C   0  0  0  0  0  3  0  0  0  0  0  0
   40.3650   22.7760   37.1510 C   0  0  0  0  0  3  0  0  0  0  0  0
   36.9280   24.4100   36.6210 H   0  0  0  0  0  0  0  0  0  0  0  0
   37.6220   23.3030   37.0440 S   0  0  0  0  0  0  0  0  0  0  0  0
   37.4400   23.0790   38.5190 O   0  0  0  0  0  0  0  0  0  0  0  0
   37.0250   22.1210   36.3290 O   0  0  0  0  0  0  0  0  0  0  0  0
   36.9670   28.4560   34.8800 C   0  0  0  0  0  0  0  0  0  0  0  0
   37.8510   29.1100   34.7180 H   0  0  0  0  0  0  0  0  0  0  0  0
   36.6410   28.4300   35.9380 H   0  0  0  0  0  0  0  0  0  0  0  0
   35.8080   28.9260   34.0300 C   0  0  0  0  0  0  0  0  0  0  0  0
   35.1380   28.0490   33.9220 H   0  0  0  0  0  0  0  0  0  0  0  0
   36.2570   29.2820   33.0840 H   0  0  0  0  0  0  0  0  0  0  0  0
   33.7020   30.3140   34.0580 C   0  0  1  0  0  0  0  0  0  0  0  0
   34.8170   31.3330   34.0240 C   0  0  0  0  0  0  0  0  0  0  0  0
   35.0090   30.0120   34.6550 C   0  0  2  0  0  0  0  0  0  0  0  0
   33.4260   29.7970   33.1070 H   0  0  0  0  0  0  0  0  0  0  0  0
   34.7300   32.2600   34.6040 H   0  0  0  0  0  0  0  0  0  0  0  0
   35.3060   31.4430   33.0350 H   0  0  0  0  0  0  0  0  0  0  0  0
   35.0120   30.0650   35.7840 H   0  0  0  0  0  0  0  0  0  0  0  0
   32.5190   30.6870   34.8970 C   0  0  0  0  0  0  0  0  0  0  0  0
   32.7880   31.3650   35.7230 H   0  0  0  0  0  0  0  0  0  0  0  0
   31.7930   31.2000   34.2020 H   0  0  0  0  0  0  0  0  0  0  0  0
   31.2340   28.2170   37.4080 C   0  0  0  0  0  0  0  0  0  0  0  0
   31.8630   29.3660   36.8300 C   0  0  0  0  0  0  0  0  0  0  0  0
   31.8630   29.4900   35.4710 C   0  0  0  0  0  0  0  0  0  0  0  0
   31.2700   28.5220   34.7410 N   0  0  0  0  0  0  0  0  0  0  0  0
   30.6830   27.4510   35.2870 C   0  0  0  0  0  0  0  0  0  0  0  0
   30.6730   27.3120   36.6140 N   0  0  0  0  0  0  0  0  0  0  0  0
   31.2830   28.2040   38.4880 H   0  0  0  0  0  0  0  0  0  0  0  0
   32.3280   30.1190   37.4550 H   0  0  0  0  0  0  0  0  0  0  0  0
   30.2100   26.6780   34.7140 H   0  0  0  0  0  0  0  0  0  0  0  0
  1 10  1  0  0  0  0
  2 27  1  0  0  0  0
  2  1  2  0  0  0  0
  3  2  1  0  0  0  0
  4  3  2  0  0  0  0
  4  8  1  0  0  0  0
  5  6  1  0  0  0  0
  5  4  1  0  0  0  0
  6  7  2  0  0  0  0
  7 14  1  0  0  0  0
  7  8  1  0  0  0  0
  8  9  2  0  0  0  0
  9  1  1  0  0  0  0
  9 16  1  0  0  0  0
 11  3  1  0  0  0  0
 12  5  1  0  0  0  0
 13  6  1  0  0  0  0
 15 24  1  0  0  0  0
 15 22  1  0  0  0  0
 16 15  2  0  0  0  0
 17 16  1  0  0  0  0
 17 19  2  0  0  0  0
 18 17  1  0  0  0  0
 19 21  1  0  0  0  0
 20 19  1  0  0  0  0
 21 22  2  0  0  0  0
 23 24  1  0  0  0  0
 24 25  2  0  0  0  0
 26 24  2  0  0  0  0
 27 29  1  0  0  0  0
 28 27  1  0  0  0  0
 30 35  1  0  0  0  0
 30 27  1  0  0  0  0
 31 30  1  0  0  0  0
 32 30  1  0  0  0  0
 33 36  1  6  0  0  0
 33 35  1  0  0  0  0
 33 40  1  0  0  0  0
 34 33  1  0  0  0  0
 34 37  1  0  0  0  0
 34 35  1  0  0  0  0
 35 39  1  1  0  0  0
 38 34  1  0  0  0  0
 40 45  1  0  0  0  0
 40 41  1  0  0  0  0
 42 40  1  0  0  0  0
 43 49  1  0  0  0  0
 44 43  1  0  0  0  0
 44 50  1  0  0  0  0
 45 44  2  0  0  0  0
 46 47  2  0  0  0  0
 46 45  1  0  0  0  0
 47 48  1  0  0  0  0
 48 43  2  0  0  0  0
 51 47  1  0  0  0  0
M  END
>  <minimizedAffinity>
-6.05084801

$$$$
