
 OpenBabel03262523563D

 41 41  0  0  1  0  0  0  0  0999 V2000
   37.6620   31.3270   41.5980 C   0  0  1  0  0  0  0  0  0  0  0  0
   38.8110   32.0970   42.0600 C   0  0  0  0  0  0  0  0  0  0  0  0
   40.0630   31.4920   41.5000 C   0  0  0  0  0  0  0  0  0  0  0  0
   40.0060   30.0180   41.5430 C   0  0  0  0  0  0  0  0  0  0  0  0
   39.0320   29.4300   42.4850 C   0  0  0  0  0  0  0  0  0  0  0  0
   37.6250   30.0170   42.3830 C   0  0  0  0  0  3  0  0  0  0  0  0
   37.8150   31.0040   40.5270 H   0  0  0  0  0  0  0  0  0  0  0  0
   38.7630   33.1670   41.7060 H   0  0  0  0  0  0  0  0  0  0  0  0
   38.8910   32.1860   43.1680 H   0  0  0  0  0  0  0  0  0  0  0  0
   40.9110   31.8540   42.1490 H   0  0  0  0  0  0  0  0  0  0  0  0
   40.2890   31.9110   40.4980 H   0  0  0  0  0  0  0  0  0  0  0  0
   41.0090   29.6330   41.8170 H   0  0  0  0  0  0  0  0  0  0  0  0
   39.8150   29.6340   40.5210 H   0  0  0  0  0  0  0  0  0  0  0  0
   39.4040   29.4720   43.5420 H   0  0  0  0  0  0  0  0  0  0  0  0
   38.9390   28.3480   42.2660 H   0  0  0  0  0  0  0  0  0  0  0  0
   36.9780   29.3200   41.7990 H   0  0  0  0  0  0  0  0  0  0  0  0
   34.1300   32.2610   40.9550 C   0  0  0  0  0  0  0  0  0  0  0  0
   35.3990   31.6410   40.7900 C   0  0  0  0  0  0  0  0  0  0  0  0
   36.3410   31.9430   41.7670 C   0  0  0  0  0  0  0  0  0  0  0  0
   36.0220   32.7910   42.8070 N   0  0  0  0  0  0  0  0  0  0  0  0
   34.8130   33.3510   42.9200 C   0  0  0  0  0  0  0  0  0  0  0  0
   33.8560   33.0950   41.9990 N   0  0  0  0  0  0  0  0  0  0  0  0
   33.4050   32.0090   40.1690 H   0  0  0  0  0  0  0  0  0  0  0  0
   35.5890   30.9860   39.9540 H   0  0  0  0  0  0  0  0  0  0  0  0
   34.5340   34.0180   43.7200 H   0  0  0  0  0  0  0  0  0  0  0  0
   37.5700   30.3240   45.0020 C   0  0  0  0  0  3  0  0  0  0  0  0
   38.8180   30.4210   44.9790 O   0  0  0  0  0  0  0  0  0  0  0  0
   37.0460   30.1450   43.6940 N   0  0  0  0  0  1  0  0  0  0  0  0
   35.9970   30.0730   43.5120 H   0  0  0  0  0  0  0  0  0  0  0  0
   35.3350   29.8940   45.6730 C   0  0  0  0  0  0  0  0  0  0  0  0
   36.5940   30.3570   46.0500 C   0  0  0  0  0  0  0  0  0  0  0  0
   36.8490   30.7920   47.3340 C   0  0  0  0  0  0  0  0  0  0  0  0
   37.8370   31.1450   47.5890 H   0  0  0  0  0  0  0  0  0  0  0  0
   35.7940   30.7500   48.2400 C   0  0  0  0  0  0  0  0  0  0  0  0
   35.9790   31.0830   49.2370 H   0  0  0  0  0  0  0  0  0  0  0  0
   34.5520   30.3060   47.9100 C   0  0  0  0  0  3  0  0  0  0  0  0
   34.3060   29.8710   46.6190 C   0  0  0  0  0  3  0  0  0  0  0  0
   35.9580   29.6690   43.2030 H   0  0  0  0  0  0  0  0  0  0  0  0
   34.9560   29.3380   44.0690 S   0  0  0  0  0  0  0  0  0  0  0  0
   33.6920   29.9670   43.5250 O   0  0  0  0  0  0  0  0  0  0  0  0
   34.8710   27.8430   44.0950 O   0  0  0  0  0  0  0  0  0  0  0  0
  1  7  1  6  0  0  0
  1 19  1  0  0  0  0
  1  2  1  0  0  0  0
  1  6  1  0  0  0  0
  2  9  1  0  0  0  0
  3  4  1  0  0  0  0
  3  2  1  0  0  0  0
  3 10  1  0  0  0  0
  4 12  1  0  0  0  0
  4  5  1  0  0  0  0
  5 14  1  0  0  0  0
  6  5  1  0  0  0  0
  8  2  1  0  0  0  0
 11  3  1  0  0  0  0
 13  4  1  0  0  0  0
 15  5  1  0  0  0  0
 16  6  1  0  0  0  0
 17 22  1  0  0  0  0
 18 17  2  0  0  0  0
 18 19  1  0  0  0  0
 19 20  2  0  0  0  0
 20 21  1  0  0  0  0
 21 25  1  0  0  0  0
 22 21  2  0  0  0  0
 23 17  1  0  0  0  0
 24 18  1  0  0  0  0
 26 31  1  0  0  0  0
 27 26  2  0  0  0  0
 29 28  1  0  0  0  0
 30 31  2  0  0  0  0
 30 37  1  0  0  0  0
 31 32  1  0  0  0  0
 32 33  1  0  0  0  0
 32 34  2  0  0  0  0
 34 35  1  0  0  0  0
 36 34  1  0  0  0  0
 37 36  2  0  0  0  0
 38 39  1  0  0  0  0
 39 41  2  0  0  0  0
 39 30  1  0  0  0  0
 40 39  2  0  0  0  0
M  END
>  <minimizedAffinity>
-3.6862309

>  <minimizedRMSD>
6.6809454

$$$$
