
     RDKit          3D

 37 39  0  0  0  0  0  0  0  0999 V2000
   38.1118   31.1791   47.8959 C   0  0  0  0  0  0  0  0  0  0  0  0
   38.3945   30.3861   46.7888 C   0  0  0  0  0  0  0  0  0  0  0  0
   39.1783   30.8134   45.7276 C   0  0  0  0  0  0  0  0  0  0  0  0
   39.7142   32.1314   45.7829 C   0  0  0  0  0  0  0  0  0  0  0  0
   39.4203   32.8864   46.8806 C   0  0  0  0  0  0  0  0  0  0  0  0
   38.6552   32.4607   47.9185 C   0  0  0  0  0  0  0  0  0  0  0  0
   37.8522   29.9693   49.9742 C   0  0  0  0  0  0  0  0  0  0  0  0
   37.2328   30.5993   48.8819 C   0  0  0  0  0  0  0  0  0  0  0  0
   35.8306   30.5980   48.8649 C   0  0  0  0  0  0  0  0  0  0  0  0
   35.1312   30.0192   49.8513 N   0  0  0  0  0  0  0  0  0  0  0  0
   35.7524   29.4153   50.8985 C   0  0  0  0  0  0  0  0  0  0  0  0
   37.0963   29.3993   50.9433 N   0  0  0  0  0  0  0  0  0  0  0  0
   39.3484   34.2946   49.2206 C   0  0  0  0  0  0  0  0  0  0  0  0
   40.3650   34.3086   48.4417 O   0  0  0  0  0  0  0  0  0  0  0  0
   38.3858   33.2434   49.0454 N   0  0  0  0  0  0  0  0  0  0  0  0
   37.9871   29.3675   46.7356 H   0  0  0  0  0  0  0  0  0  0  0  0
   39.3326   30.0950   44.9046 H   0  0  0  0  0  0  0  0  0  0  0  0
   40.2912   32.3024   44.8880 H   0  0  0  0  0  0  0  0  0  0  0  0
   39.8889   33.8224   46.6595 H   0  0  0  0  0  0  0  0  0  0  0  0
   38.9090   29.8892   50.1272 H   0  0  0  0  0  0  0  0  0  0  0  0
   35.4031   31.0983   47.9992 H   0  0  0  0  0  0  0  0  0  0  0  0
   35.0521   29.0084   51.5884 H   0  0  0  0  0  0  0  0  0  0  0  0
   37.6006   33.0844   49.6608 H   0  0  0  0  0  0  0  0  0  0  0  0
   40.0588   38.3717   48.5701 H   0  0  0  0  0  0  0  0  0  0  0  0
   39.1997   37.2826   48.4762 S   0  0  0  0  0  0  0  0  0  0  0  0
   39.6852   36.3207   47.4729 O   0  0  0  0  0  0  0  0  0  0  0  0
   37.8465   37.8337   48.0549 O   0  0  0  0  0  0  0  0  0  0  0  0
   39.0411   36.6660   50.0900 C   0  0  0  0  0  0  0  0  0  0  0  0
   39.1320   35.3041   50.2748 C   0  0  0  0  0  0  0  0  0  0  0  0
   39.0087   34.8075   51.5565 C   0  0  0  0  0  0  0  0  0  0  0  0
   39.0617   33.7537   51.8392 H   0  0  0  0  0  0  0  0  0  0  0  0
   38.7980   35.6764   52.6220 C   0  0  0  0  0  0  0  0  0  0  0  0
   38.6939   35.3575   53.6361 H   0  0  0  0  0  0  0  0  0  0  0  0
   38.7077   37.0395   52.4283 C   0  0  0  0  0  0  0  0  0  0  0  0
   38.8322   37.5366   51.1374 C   0  0  0  0  0  0  0  0  0  0  0  0
   38.5424   37.7510   53.2387 H   0  0  0  0  0  0  0  0  0  0  0  0
   38.7708   38.6108   50.9024 H   0  0  0  0  0  0  0  0  0  0  0  0
  1  6  1  0
  1  8  1  0
  2  1  2  0
  3  4  2  0
  3  2  1  0
  4  5  1  0
  5  6  2  0
  6 15  1  0
  7 12  2  0
  8  9  2  0
  8  7  1  0
  9 10  1  0
 10 11  2  0
 11 12  1  0
 14 13  2  0
 15 13  1  0
  2 16  1  0
  3 17  1  0
  4 18  1  0
  5 19  1  0
  7 20  1  0
  9 21  1  0
 11 22  1  0
 15 23  1  0
 24 25  1  0
 25 26  2  0
 25 27  2  0
 25 28  1  0
 28 29  2  0
 29 30  1  0
 30 31  1  0
 30 32  2  0
 32 33  1  0
 32 34  1  0
 34 35  2  0
 35 28  1  0
 34 36  1  0
 35 37  1  0
 13 29  1  0
M  ISO  8  16  14  17  14  18  14  19  14  20  14  21  14  22  14  24  12
M  ISO  2  31  15  33  16
M  END
>  <DihAtoms>  (1) 
13,12,28,27

>  <DihDeg>  (1) 
-62.16937031518014

$$$$
