
     RDKit          3D

 43 45  0  0  0  0  0  0  0  0999 V2000
   38.1320   30.5688   47.3275 C   0  0  1  0  0  0  0  0  0  0  0  0
   37.5038   30.7477   46.0243 C   0  0  0  0  0  0  0  0  0  0  0  0
   38.5414   30.5861   44.9540 C   0  0  0  0  0  0  0  0  0  0  0  0
   39.8073   31.2391   45.3390 C   0  0  0  0  0  0  0  0  0  0  0  0
   39.7156   32.2665   46.3963 C   0  0  0  0  0  0  0  0  0  0  0  0
   38.9434   31.8249   47.6382 C   0  0  1  0  0  0  0  0  0  0  0  0
   36.9372   29.6286   50.7124 C   0  0  0  0  0  0  0  0  0  0  0  0
   37.8213   29.8379   49.6176 C   0  0  0  0  0  0  0  0  0  0  0  0
   37.2361   30.3669   48.4717 C   0  0  0  0  0  0  0  0  0  0  0  0
   35.8872   30.6527   48.4453 N   0  0  0  0  0  0  0  0  0  0  0  0
   35.0951   30.4379   49.5009 C   0  0  0  0  0  0  0  0  0  0  0  0
   35.6077   29.9255   50.6428 N   0  0  0  0  0  0  0  0  0  0  0  0
   38.2715   33.8188   49.2301 C   0  0  0  0  0  0  0  0  0  0  0  0
   39.3330   33.6203   49.8634 O   0  0  0  0  0  0  0  0  0  0  0  0
   38.1503   32.9163   48.1404 N   0  0  0  0  0  0  0  0  0  0  0  0
   38.9043   29.7461   47.2775 H   0  0  0  0  0  0  0  0  0  0  0  0
   36.7021   29.9752   45.8398 H   0  0  0  0  0  0  0  0  0  0  0  0
   36.9719   31.7189   45.8979 H   0  0  0  0  0  0  0  0  0  0  0  0
   38.1277   31.0837   44.0308 H   0  0  0  0  0  0  0  0  0  0  0  0
   38.6459   29.5201   44.6651 H   0  0  0  0  0  0  0  0  0  0  0  0
   40.2444   31.7216   44.4423 H   0  0  0  0  0  0  0  0  0  0  0  0
   40.5378   30.4610   45.6370 H   0  0  0  0  0  0  0  0  0  0  0  0
   39.3098   33.2331   45.9980 H   0  0  0  0  0  0  0  0  0  0  0  0
   40.7415   32.5151   46.7348 H   0  0  0  0  0  0  0  0  0  0  0  0
   39.6662   31.5416   48.4389 H   0  0  0  0  0  0  0  0  0  0  0  0
   37.4235   29.2083   51.6031 H   0  0  0  0  0  0  0  0  0  0  0  0
   38.8687   29.5936   49.6987 H   0  0  0  0  0  0  0  0  0  0  0  0
   34.0381   30.6499   49.5104 H   0  0  0  0  0  0  0  0  0  0  0  0
   37.3232   32.9538   47.4663 H   0  0  0  0  0  0  0  0  0  0  0  0
   38.9099   37.6504   47.5751 H   0  0  0  0  0  0  0  0  0  0  0  0
   39.0326   36.5170   48.3260 S   0  0  0  0  0  0  0  0  0  0  0  0
   39.6318   35.4638   47.4204 O   0  0  0  0  0  0  0  0  0  0  0  0
   39.9338   36.8439   49.4777 O   0  0  0  0  0  0  0  0  0  0  0  0
   37.4838   36.0402   48.9594 C   0  0  0  0  0  0  0  0  0  0  0  0
   37.1894   34.7449   49.3774 C   0  0  0  0  0  0  0  0  0  0  0  0
   35.9466   34.4131   49.8764 C   0  0  0  0  0  0  0  0  0  0  0  0
   35.7550   33.3977   50.1932 H   0  0  0  0  0  0  0  0  0  0  0  0
   34.9975   35.4274   49.9456 C   0  0  0  0  0  0  0  0  0  0  0  0
   34.0328   35.1821   50.3287 H   0  0  0  0  0  0  0  0  0  0  0  0
   35.2481   36.7038   49.5471 C   0  0  0  0  0  0  0  0  0  0  0  0
   36.4975   37.0261   49.0476 C   0  0  0  0  0  0  0  0  0  0  0  0
   34.5288   37.4967   49.5939 H   0  0  0  0  0  0  0  0  0  0  0  0
   36.7154   38.0277   48.7303 H   0  0  0  0  0  0  0  0  0  0  0  0
  1  6  1  0
  1  9  1  0
  2  1  1  0
  3  4  1  0
  3  2  1  0
  4  5  1  0
  5  6  1  0
  6 15  1  0
  8  7  2  0
  9  8  1  0
 10  9  2  0
 10 11  1  0
 11 12  2  0
 12  7  1  0
 13 14  2  0
 15 13  1  0
  1 16  1  6
  2 17  1  0
  2 18  1  0
  3 19  1  0
  3 20  1  0
  4 21  1  0
  4 22  1  0
  5 23  1  0
  5 24  1  0
  6 25  1  1
  7 26  1  0
  8 27  1  0
 11 28  1  0
 15 29  1  0
 30 31  1  0
 31 32  2  0
 31 33  2  0
 31 34  1  0
 34 35  2  0
 35 36  1  0
 36 37  1  0
 36 38  2  0
 38 39  1  0
 38 40  1  0
 40 41  2  0
 41 34  1  0
 40 42  1  0
 41 43  1  0
 13 35  1  0
M  ISO  8  16  13  17  13  18  13  19  13  20  13  21  13  22  13  23  13
M  ISO  8  24  13  25  13  26  14  27  14  28  14  30  12  37  15  39  16
M  END
>  <DihAtoms>  (1) 
13,12,34,33

>  <DihDeg>  (1) 
45.58365297690329

$$$$
