REMARK  Name = 
REMARK  4 active torsions:
REMARK  status: ('A' for Active; 'I' for Inactive)
REMARK    1  A    between atoms: C_1  and  C_9
REMARK    2  A    between atoms: C_6  and  N_15
REMARK    3  A    between atoms: C_13  and  C_35
REMARK    4  A    between atoms: S_31  and  C_34
REMARK                            x       y       z     vdW  Elec       q    Type
REMARK                         _______ _______ _______ _____ _____    ______ ____
ROOT
ATOM      1  C   UNL     1      38.132  30.569  47.328  0.00  0.00    +0.000 C 
ATOM      2  C   UNL     1      37.504  30.748  46.024  0.00  0.00    +0.000 C 
ATOM      3  C   UNL     1      38.541  30.586  44.954  0.00  0.00    +0.000 C 
ATOM      4  C   UNL     1      39.807  31.239  45.339  0.00  0.00    +0.000 C 
ATOM      5  C   UNL     1      39.716  32.267  46.396  0.00  0.00    +0.000 C 
ATOM      6  C   UNL     1      38.943  31.825  47.638  0.00  0.00    +0.000 C 
ATOM      7  H   UNL     1      38.904  29.746  47.278  0.00  0.00    +0.000 HD
ATOM      8  H   UNL     1      36.702  29.975  45.840  0.00  0.00    +0.000 HD
ATOM      9  H   UNL     1      36.972  31.719  45.898  0.00  0.00    +0.000 HD
ATOM     10  H   UNL     1      38.128  31.084  44.031  0.00  0.00    +0.000 HD
ATOM     11  H   UNL     1      38.646  29.520  44.665  0.00  0.00    +0.000 HD
ATOM     12  H   UNL     1      40.244  31.722  44.442  0.00  0.00    +0.000 HD
ATOM     13  H   UNL     1      40.538  30.461  45.637  0.00  0.00    +0.000 HD
ATOM     14  H   UNL     1      39.310  33.233  45.998  0.00  0.00    +0.000 HD
ATOM     15  H   UNL     1      40.742  32.515  46.735  0.00  0.00    +0.000 HD
ATOM     16  H   UNL     1      39.666  31.542  48.439  0.00  0.00    +0.000 HD
ENDROOT
BRANCH   1  19
ATOM     17  C   UNL     1      36.937  29.629  50.712  0.00  0.00    +0.000 A 
ATOM     18  C   UNL     1      37.821  29.838  49.618  0.00  0.00    +0.000 A 
ATOM     19  C   UNL     1      37.236  30.367  48.472  0.00  0.00    +0.000 A 
ATOM     20  N   UNL     1      35.887  30.653  48.445  0.00  0.00    +0.000 NA
ATOM     21  C   UNL     1      35.095  30.438  49.501  0.00  0.00    +0.000 A 
ATOM     22  N   UNL     1      35.608  29.925  50.643  0.00  0.00    +0.000 NA
ATOM     23  H   UNL     1      37.423  29.208  51.603  0.00  0.00    +0.000 HD
ATOM     24  H   UNL     1      38.869  29.594  49.699  0.00  0.00    +0.000 HD
ATOM     25  H   UNL     1      34.038  30.650  49.510  0.00  0.00    +0.000 HD
ENDBRANCH   1  19
BRANCH   6  28
ATOM     26  C   UNL     1      38.272  33.819  49.230  0.00  0.00    +0.000 C 
ATOM     27  O   UNL     1      39.333  33.620  49.863  0.00  0.00    +0.000 OA
ATOM     28  N   UNL     1      38.150  32.916  48.140  0.00  0.00    +0.000 N 
ATOM     29  H   UNL     1      37.323  32.954  47.466  0.00  0.00    +0.000 HD
BRANCH  26  31
ATOM     30  C   UNL     1      36.159  34.295  50.200  0.00  0.00    +0.000 A 
ATOM     31  C   UNL     1      37.189  34.745  49.377  0.00  0.00    +0.000 A 
ATOM     32  C   UNL     1      37.145  35.987  48.779  0.00  0.00    +0.000 A 
ATOM     33  H   UNL     1      37.962  36.302  48.146  0.00  0.00    +0.000 HD
ATOM     34  C   UNL     1      36.026  36.775  49.031  0.00  0.00    +0.000 A 
ATOM     35  H   UNL     1      35.981  37.738  48.575  0.00  0.00    +0.000 HD
ATOM     36  C   UNL     1      35.001  36.370  49.828  0.00  0.00    +0.000 A 
ATOM     37  C   UNL     1      35.055  35.122  50.424  0.00  0.00    +0.000 A 
BRANCH  30  39
ATOM     38  H   UNL     1      35.322  32.745  52.054  0.00  0.00    +0.000 HD
ATOM     39  S   UNL     1      36.160  32.739  50.976  0.00  0.00    +0.000 S 
ATOM     40  O   UNL     1      37.528  32.356  51.497  0.00  0.00    +0.000 OA
ATOM     41  O   UNL     1      35.627  31.727  50.008  0.00  0.00    +0.000 OA
ENDBRANCH  30  39
ENDBRANCH  26  31
ENDBRANCH   6  28
TORSDOF 4
