REMARK  Name = 
REMARK  4 active torsions:
REMARK  status: ('A' for Active; 'I' for Inactive)
REMARK    1  A    between atoms: C_1  and  C_8
REMARK    2  A    between atoms: C_6  and  N_15
REMARK    3  A    between atoms: C_13  and  C_29
REMARK    4  A    between atoms: S_25  and  C_28
REMARK                            x       y       z     vdW  Elec       q    Type
REMARK                         _______ _______ _______ _____ _____    ______ ____
ROOT
ATOM      1  C   UNL     1      38.112  31.179  47.896  0.00  0.00    +0.000 A 
ATOM      2  C   UNL     1      38.395  30.386  46.789  0.00  0.00    +0.000 A 
ATOM      3  C   UNL     1      39.178  30.813  45.728  0.00  0.00    +0.000 A 
ATOM      4  C   UNL     1      39.714  32.131  45.783  0.00  0.00    +0.000 A 
ATOM      5  C   UNL     1      39.420  32.886  46.881  0.00  0.00    +0.000 A 
ATOM      6  C   UNL     1      38.655  32.461  47.919  0.00  0.00    +0.000 A 
ATOM      7  H   UNL     1      37.987  29.367  46.736  0.00  0.00    +0.000 HD
ATOM      8  H   UNL     1      39.333  30.095  44.905  0.00  0.00    +0.000 HD
ATOM      9  H   UNL     1      40.291  32.302  44.888  0.00  0.00    +0.000 HD
ATOM     10  H   UNL     1      39.889  33.822  46.660  0.00  0.00    +0.000 HD
ENDROOT
BRANCH   1  12
ATOM     11  C   UNL     1      37.852  29.969  49.974  0.00  0.00    +0.000 A 
ATOM     12  C   UNL     1      37.233  30.599  48.882  0.00  0.00    +0.000 A 
ATOM     13  C   UNL     1      35.831  30.598  48.865  0.00  0.00    +0.000 A 
ATOM     14  N   UNL     1      35.131  30.019  49.851  0.00  0.00    +0.000 NA
ATOM     15  C   UNL     1      35.752  29.415  50.898  0.00  0.00    +0.000 A 
ATOM     16  N   UNL     1      37.096  29.399  50.943  0.00  0.00    +0.000 NA
ATOM     17  H   UNL     1      38.909  29.889  50.127  0.00  0.00    +0.000 HD
ATOM     18  H   UNL     1      35.403  31.098  47.999  0.00  0.00    +0.000 HD
ATOM     19  H   UNL     1      35.052  29.008  51.588  0.00  0.00    +0.000 HD
ENDBRANCH   1  12
BRANCH   6  22
ATOM     20  C   UNL     1      39.348  34.295  49.221  0.00  0.00    +0.000 C 
ATOM     21  O   UNL     1      40.365  34.309  48.442  0.00  0.00    +0.000 OA
ATOM     22  N   UNL     1      38.386  33.243  49.045  0.00  0.00    +0.000 N 
ATOM     23  H   UNL     1      37.601  33.084  49.661  0.00  0.00    +0.000 HD
BRANCH  20  25
ATOM     24  C   UNL     1      39.325  36.662  50.152  0.00  0.00    +0.000 A 
ATOM     25  C   UNL     1      39.132  35.304  50.275  0.00  0.00    +0.000 A 
ATOM     26  C   UNL     1      38.691  34.812  51.487  0.00  0.00    +0.000 A 
ATOM     27  H   UNL     1      38.500  33.762  51.716  0.00  0.00    +0.000 HD
ATOM     28  C   UNL     1      38.453  35.683  52.545  0.00  0.00    +0.000 A 
ATOM     29  H   UNL     1      38.111  35.367  53.507  0.00  0.00    +0.000 HD
ATOM     30  C   UNL     1      38.648  37.042  52.414  0.00  0.00    +0.000 A 
ATOM     31  C   UNL     1      39.092  37.534  51.193  0.00  0.00    +0.000 A 
BRANCH  24  33
ATOM     32  H   UNL     1      40.893  38.178  48.927  0.00  0.00    +0.000 HD
ATOM     33  S   UNL     1      39.882  37.272  48.626  0.00  0.00    +0.000 S 
ATOM     34  O   UNL     1      40.357  36.258  47.671  0.00  0.00    +0.000 OA
ATOM     35  O   UNL     1      38.749  38.077  48.007  0.00  0.00    +0.000 OA
ENDBRANCH  24  33
ENDBRANCH  20  25
ENDBRANCH   6  22
TORSDOF 4
