REMARK  Name = 
REMARK  4 active torsions:
REMARK  status: ('A' for Active; 'I' for Inactive)
REMARK    1  A    between atoms: C_1  and  C_7
REMARK    2  A    between atoms: C_6  and  N_15
REMARK    3  A    between atoms: C_13  and  C_35
REMARK    4  A    between atoms: S_31  and  C_34
REMARK                            x       y       z     vdW  Elec       q    Type
REMARK                         _______ _______ _______ _____ _____    ______ ____
ROOT
ATOM      1  C   UNL     1      36.077  30.687  49.064  0.00  0.00    +0.000 C 
ATOM      2  C   UNL     1      37.015  31.643  49.740  0.00  0.00    +0.000 C 
ATOM      3  C   UNL     1      38.046  30.942  50.605  0.00  0.00    +0.000 C 
ATOM      4  C   UNL     1      37.345  30.074  51.651  0.00  0.00    +0.000 C 
ATOM      5  C   UNL     1      36.115  29.377  51.144  0.00  0.00    +0.000 C 
ATOM      6  C   UNL     1      36.195  29.307  49.609  0.00  0.00    +0.000 C 
ATOM      7  H   UNL     1      34.988  30.988  49.160  0.00  0.00    +0.000 HD
ATOM      8  H   UNL     1      36.357  32.182  50.507  0.00  0.00    +0.000 HD
ATOM      9  H   UNL     1      37.435  32.428  49.145  0.00  0.00    +0.000 HD
ATOM     10  H   UNL     1      38.719  30.285  50.043  0.00  0.00    +0.000 HD
ATOM     11  H   UNL     1      38.592  31.727  51.142  0.00  0.00    +0.000 HD
ATOM     12  H   UNL     1      37.039  30.699  52.517  0.00  0.00    +0.000 HD
ATOM     13  H   UNL     1      38.085  29.316  51.971  0.00  0.00    +0.000 HD
ATOM     14  H   UNL     1      35.164  29.814  51.463  0.00  0.00    +0.000 HD
ATOM     15  H   UNL     1      36.111  28.315  51.467  0.00  0.00    +0.000 HD
ATOM     16  H   UNL     1      37.166  28.906  49.494  0.00  0.00    +0.000 HD
ENDROOT
BRANCH   1  17
ATOM     17  C   UNL     1      36.325  30.648  47.600  0.00  0.00    +0.000 A 
ATOM     18  C   UNL     1      37.588  31.110  47.177  0.00  0.00    +0.000 A 
ATOM     19  C   UNL     1      37.833  31.077  45.803  0.00  0.00    +0.000 A 
ATOM     20  N   UNL     1      36.850  30.605  44.957  0.00  0.00    +0.000 NA
ATOM     21  C   UNL     1      35.634  30.165  45.424  0.00  0.00    +0.000 A 
ATOM     22  N   UNL     1      35.397  30.198  46.747  0.00  0.00    +0.000 NA
ATOM     23  H   UNL     1      38.423  31.481  47.743  0.00  0.00    +0.000 HD
ATOM     24  H   UNL     1      38.752  31.400  45.332  0.00  0.00    +0.000 HD
ATOM     25  H   UNL     1      34.969  29.824  44.656  0.00  0.00    +0.000 HD
ENDBRANCH   1  17
BRANCH   6  28
ATOM     26  C   UNL     1      33.933  28.204  49.234  0.00  0.00    +0.000 C 
ATOM     27  O   UNL     1      33.129  28.851  49.958  0.00  0.00    +0.000 OA
ATOM     28  N   UNL     1      35.326  28.350  49.014  0.00  0.00    +0.000 N 
ATOM     29  H   UNL     1      35.653  27.613  48.317  0.00  0.00    +0.000 HD
BRANCH  26  31
ATOM     30  C   UNL     1      33.215  26.697  47.318  0.00  0.00    +0.000 A 
ATOM     31  C   UNL     1      33.099  27.177  48.601  0.00  0.00    +0.000 A 
ATOM     32  C   UNL     1      32.113  26.678  49.441  0.00  0.00    +0.000 A 
ATOM     33  H   UNL     1      31.961  27.011  50.459  0.00  0.00    +0.000 HD
ATOM     34  C   UNL     1      31.256  25.703  48.981  0.00  0.00    +0.000 A 
ATOM     35  H   UNL     1      30.460  25.258  49.581  0.00  0.00    +0.000 HD
ATOM     36  C   UNL     1      31.347  25.203  47.702  0.00  0.00    +0.000 A 
ATOM     37  C   UNL     1      32.340  25.714  46.876  0.00  0.00    +0.000 A 
BRANCH  30  39
ATOM     38  H   UNL     1      35.648  27.554  47.035  0.00  0.00    +0.000 HD
ATOM     39  S   UNL     1      34.491  27.396  46.339  0.00  0.00    +0.000 S 
ATOM     40  O   UNL     1      34.792  26.440  45.208  0.00  0.00    +0.000 OA
ATOM     41  O   UNL     1      34.017  28.677  45.688  0.00  0.00    +0.000 OA
ENDBRANCH  30  39
ENDBRANCH  26  31
ENDBRANCH   6  28
TORSDOF 4
