
 OpenBabel03272503243D

 35 37  0  0  1  0  0  0  0  0999 V2000
   36.9490   30.3080   48.6880 N   0  0  0  0  0  0  0  0  0  0  0  0
   37.4180   31.4150   47.9390 C   0  0  1  0  0  0  0  0  0  0  0  0
   38.3130   32.1810   48.9060 C   0  0  0  0  0  0  0  0  0  0  0  0
   38.2540   31.3480   50.2090 C   0  0  0  0  0  0  0  0  0  0  0  0
   37.9950   29.9790   49.6200 C   0  0  0  0  0  0  0  0  0  0  0  0
   36.5210   32.1720   47.8360 H   0  0  0  0  0  0  0  0  0  0  0  0
   38.0330   33.2190   49.0620 H   0  0  0  0  0  0  0  0  0  0  0  0
   39.3480   32.0600   48.5110 H   0  0  0  0  0  0  0  0  0  0  0  0
   39.2110   31.4080   50.7520 H   0  0  0  0  0  0  0  0  0  0  0  0
   37.3680   31.6660   50.7560 H   0  0  0  0  0  0  0  0  0  0  0  0
   37.6420   29.3160   50.4300 H   0  0  0  0  0  0  0  0  0  0  0  0
   38.8850   29.5770   49.0970 H   0  0  0  0  0  0  0  0  0  0  0  0
   35.6840   29.6660   48.5520 C   0  0  0  0  0  0  0  0  0  0  0  0
   34.8250   30.1040   47.5280 C   0  0  0  0  0  0  0  0  0  0  0  0
   33.5910   29.4630   47.3710 C   0  0  0  0  0  0  0  0  0  0  0  0
   33.3060   28.4420   48.2360 N   0  0  0  0  0  0  0  0  0  0  0  0
   34.1570   28.0450   49.2100 C   0  0  0  0  0  0  0  0  0  0  0  0
   35.3590   28.6670   49.3670 N   0  0  0  0  0  0  0  0  0  0  0  0
   35.0620   30.9020   46.8630 H   0  0  0  0  0  0  0  0  0  0  0  0
   32.9090   29.7760   46.5940 H   0  0  0  0  0  0  0  0  0  0  0  0
   33.8320   27.2290   49.8380 H   0  0  0  0  0  0  0  0  0  0  0  0
   37.9160   31.1990   46.6160 C   0  0  0  0  0  0  0  0  0  0  0  0
   38.8740   30.4270   46.5220 O   0  0  0  0  0  0  0  0  0  0  0  0
   38.6030   32.4170   44.5550 C   0  0  0  0  0  0  0  0  0  0  0  0
   37.7710   31.5450   45.2110 C   0  0  0  0  0  0  0  0  0  0  0  0
   36.7840   30.9720   44.4440 C   0  0  0  0  0  0  0  0  0  0  0  0
   36.0450   30.2580   44.7450 H   0  0  0  0  0  0  0  0  0  0  0  0
   36.5500   31.1820   43.1050 C   0  0  0  0  0  0  0  0  0  0  0  0
   35.8030   30.7710   42.4490 H   0  0  0  0  0  0  0  0  0  0  0  0
   37.4010   32.0620   42.4730 C   0  0  0  0  0  0  0  0  0  0  0  0
   38.4070   32.6690   43.1780 C   0  0  0  0  0  0  0  0  0  0  0  0
   39.6600   33.4600   46.6320 H   0  0  0  0  0  0  0  0  0  0  0  0
   39.9210   33.2600   45.3200 S   0  0  0  0  0  0  0  0  0  0  0  0
   40.2240   34.5030   44.5380 O   0  0  0  0  0  0  0  0  0  0  0  0
   41.1780   32.4050   45.2740 O   0  0  0  0  0  0  0  0  0  0  0  0
  1  5  1  0  0  0  0
  2  6  1  6  0  0  0
  2  1  1  0  0  0  0
  2  3  1  0  0  0  0
  3  7  1  0  0  0  0
  3  4  1  0  0  0  0
  4  9  1  0  0  0  0
  4 10  1  0  0  0  0
  5  4  1  0  0  0  0
  5 11  1  0  0  0  0
  8  3  1  0  0  0  0
 12  5  1  0  0  0  0
 13  1  1  0  0  0  0
 13 18  1  0  0  0  0
 14 13  2  0  0  0  0
 15 14  1  0  0  0  0
 15 16  2  0  0  0  0
 16 17  1  0  0  0  0
 17 18  2  0  0  0  0
 17 21  1  0  0  0  0
 19 14  1  0  0  0  0
 20 15  1  0  0  0  0
 22  2  1  0  0  0  0
 23 22  2  0  0  0  0
 24 25  1  0  0  0  0
 24 33  1  0  0  0  0
 25 22  1  0  0  0  0
 26 27  1  0  0  0  0
 26 25  2  0  0  0  0
 28 26  1  0  0  0  0
 29 28  1  0  0  0  0
 30 28  2  0  0  0  0
 30 31  1  0  0  0  0
 31 24  2  0  0  0  0
 33 32  1  0  0  0  0
 34 33  2  0  0  0  0
 35 33  2  0  0  0  0
M  END
>  <minimizedAffinity>
-5.63833904

>  <minimizedRMSD>
2.19726801

$$$$
