
 OpenBabel03272503243D

 35 37  0  0  1  0  0  0  0  0999 V2000
   37.3070   30.8680   47.6950 N   0  0  0  0  0  0  0  0  0  0  0  0
   38.0880   31.6600   46.8170 C   0  0  1  0  0  0  0  0  0  0  0  0
   38.8360   32.6220   47.7320 C   0  0  0  0  0  0  0  0  0  0  0  0
   38.3620   32.2310   49.1530 C   0  0  0  0  0  0  0  0  0  0  0  0
   38.0540   30.7690   48.9210 C   0  0  0  0  0  0  0  0  0  0  0  0
   37.3550   32.4080   46.2780 H   0  0  0  0  0  0  0  0  0  0  0  0
   38.6770   33.6740   47.5160 H   0  0  0  0  0  0  0  0  0  0  0  0
   39.9060   32.3170   47.6710 H   0  0  0  0  0  0  0  0  0  0  0  0
   39.1670   32.3890   49.8880 H   0  0  0  0  0  0  0  0  0  0  0  0
   37.4290   32.7590   49.3390 H   0  0  0  0  0  0  0  0  0  0  0  0
   37.4350   30.4080   49.7620 H   0  0  0  0  0  0  0  0  0  0  0  0
   38.9740   30.1670   48.7810 H   0  0  0  0  0  0  0  0  0  0  0  0
   36.0290   30.3010   47.4170 C   0  0  0  0  0  0  0  0  0  0  0  0
   35.6090   30.2410   46.0760 C   0  0  0  0  0  0  0  0  0  0  0  0
   34.3660   29.6630   45.7920 C   0  0  0  0  0  0  0  0  0  0  0  0
   33.6410   29.1920   46.8520 N   0  0  0  0  0  0  0  0  0  0  0  0
   34.0770   29.2660   48.1310 C   0  0  0  0  0  0  0  0  0  0  0  0
   35.2860   29.8280   48.4130 N   0  0  0  0  0  0  0  0  0  0  0  0
   36.1860   30.6130   45.2620 H   0  0  0  0  0  0  0  0  0  0  0  0
   34.0140   29.6020   44.7720 H   0  0  0  0  0  0  0  0  0  0  0  0
   33.4250   28.8640   48.8920 H   0  0  0  0  0  0  0  0  0  0  0  0
   38.8400   31.0180   45.7850 C   0  0  0  0  0  0  0  0  0  0  0  0
   40.0530   30.9240   45.9840 O   0  0  0  0  0  0  0  0  0  0  0  0
   38.5560   31.0780   43.3110 C   0  0  0  0  0  0  0  0  0  0  0  0
   38.7790   30.3870   44.4750 C   0  0  0  0  0  0  0  0  0  0  0  0
   38.9820   29.0350   44.3370 C   0  0  0  0  0  0  0  0  0  0  0  0
   39.1910   28.3170   45.1040 H   0  0  0  0  0  0  0  0  0  0  0  0
   38.9840   28.3130   43.1650 C   0  0  0  0  0  0  0  0  0  0  0  0
   39.1340   27.2640   42.9860 H   0  0  0  0  0  0  0  0  0  0  0  0
   38.7570   29.0340   42.0120 C   0  0  0  0  0  3  0  0  0  0  0  0
   38.5470   30.3870   42.0790 C   0  0  0  0  0  3  0  0  0  0  0  0
   38.4250   33.3520   44.4650 H   0  0  0  0  0  0  0  0  0  0  0  0
   38.2740   32.7950   43.2420 S   0  0  0  0  0  0  0  0  0  0  0  0
   36.9450   33.0460   42.5910 O   0  0  0  0  0  0  0  0  0  0  0  0
   39.3190   33.4550   42.3550 O   0  0  0  0  0  0  0  0  0  0  0  0
  1  5  1  0  0  0  0
  2  6  1  6  0  0  0
  2  1  1  0  0  0  0
  2  3  1  0  0  0  0
  3  4  1  0  0  0  0
  4 10  1  0  0  0  0
  4  9  1  0  0  0  0
  5  4  1  0  0  0  0
  5 11  1  0  0  0  0
  7  3  1  0  0  0  0
  8  3  1  0  0  0  0
 12  5  1  0  0  0  0
 13  1  1  0  0  0  0
 13 18  1  0  0  0  0
 14 13  2  0  0  0  0
 15 14  1  0  0  0  0
 15 16  2  0  0  0  0
 16 17  1  0  0  0  0
 17 18  2  0  0  0  0
 17 21  1  0  0  0  0
 19 14  1  0  0  0  0
 20 15  1  0  0  0  0
 22 23  2  0  0  0  0
 22  2  1  0  0  0  0
 24 25  1  0  0  0  0
 25 22  1  0  0  0  0
 26 25  2  0  0  0  0
 26 27  1  0  0  0  0
 28 26  1  0  0  0  0
 29 28  1  0  0  0  0
 30 31  1  0  0  0  0
 30 28  2  0  0  0  0
 31 24  2  0  0  0  0
 33 24  1  0  0  0  0
 33 32  1  0  0  0  0
 34 33  2  0  0  0  0
 35 33  2  0  0  0  0
M  END
>  <minimizedAffinity>
-4.92396259

>  <minimizedRMSD>
2.04581022

$$$$
