REMARK  Name = 
REMARK  4 active torsions:
REMARK  status: ('A' for Active; 'I' for Inactive)
REMARK    1  A    between atoms: C_3  and  C_10
REMARK    2  A    between atoms: C_7  and  N_16
REMARK    3  A    between atoms: C_14  and  C_29
REMARK    4  A    between atoms: S_25  and  C_28
REMARK                            x       y       z     vdW  Elec       q    Type
REMARK                         _______ _______ _______ _____ _____    ______ ____
ROOT
ATOM      1  F   UNL     1      38.456  30.438  47.302  0.00  0.00    +0.000 F 
ATOM      2  C   UNL     1      38.749  31.662  47.787  0.00  0.00    +0.000 A 
ATOM      3  C   UNL     1      38.235  32.083  48.993  0.00  0.00    +0.000 A 
ATOM      4  C   UNL     1      38.577  33.335  49.423  0.00  0.00    +0.000 A 
ATOM      5  C   UNL     1      39.401  34.174  48.706  0.00  0.00    +0.000 A 
ATOM      6  C   UNL     1      39.914  33.739  47.492  0.00  0.00    +0.000 A 
ATOM      7  C   UNL     1      39.578  32.478  47.046  0.00  0.00    +0.000 A 
ATOM      8  H   UNL     1      38.164  33.660  50.381  0.00  0.00    +0.000 HD
ATOM      9  H   UNL     1      39.661  35.148  49.051  0.00  0.00    +0.000 HD
ATOM     10  H   UNL     1      40.570  34.344  46.873  0.00  0.00    +0.000 HD
ENDROOT
BRANCH   3  13
ATOM     11  C   UNL     1      36.929  29.602  51.542  0.00  0.00    +0.000 A 
ATOM     12  C   UNL     1      37.777  30.489  50.862  0.00  0.00    +0.000 A 
ATOM     13  C   UNL     1      37.362  31.150  49.717  0.00  0.00    +0.000 A 
ATOM     14  N   UNL     1      36.087  30.900  49.276  0.00  0.00    +0.000 NA
ATOM     15  C   UNL     1      35.289  30.045  49.944  0.00  0.00    +0.000 A 
ATOM     16  N   UNL     1      35.690  29.418  51.035  0.00  0.00    +0.000 NA
ATOM     17  H   UNL     1      37.422  29.181  52.410  0.00  0.00    +0.000 HD
ATOM     18  H   UNL     1      38.803  30.728  51.167  0.00  0.00    +0.000 HD
ATOM     19  H   UNL     1      34.274  29.852  49.583  0.00  0.00    +0.000 HD
ENDBRANCH   3  13
BRANCH   7  22
ATOM     20  C   UNL     1      39.192  32.169  44.679  0.00  0.00    +0.000 C 
ATOM     21  O   UNL     1      38.076  32.716  44.979  0.00  0.00    +0.000 OA
ATOM     22  N   UNL     1      40.097  32.006  45.789  0.00  0.00    +0.000 N 
ATOM     23  H   UNL     1      41.045  31.611  45.841  0.00  0.00    +0.000 HD
BRANCH  20  25
ATOM     24  C   UNL     1      38.843  31.070  42.528  0.00  0.00    +0.000 A 
ATOM     25  C   UNL     1      39.731  31.674  43.417  0.00  0.00    +0.000 A 
ATOM     26  C   UNL     1      41.082  31.839  43.190  0.00  0.00    +0.000 A 
ATOM     27  H   UNL     1      41.703  32.320  43.935  0.00  0.00    +0.000 HD
ATOM     28  C   UNL     1      41.583  31.359  41.972  0.00  0.00    +0.000 A 
ATOM     29  H   UNL     1      42.650  31.476  41.764  0.00  0.00    +0.000 HD
ATOM     30  C   UNL     1      40.716  30.755  41.075  0.00  0.00    +0.000 A 
ATOM     31  C   UNL     1      39.364  30.596  41.316  0.00  0.00    +0.000 A 
BRANCH  24  33
ATOM     32  H   UNL     1      36.888  31.835  43.916  0.00  0.00    +0.000 HD
ATOM     33  S   UNL     1      37.146  30.919  42.933  0.00  0.00    +0.000 S 
ATOM     34  O   UNL     1      36.294  31.154  41.720  0.00  0.00    +0.000 OA
ATOM     35  O   UNL     1      36.941  29.528  43.495  0.00  0.00    +0.000 OA
ENDBRANCH  24  33
ENDBRANCH  20  25
ENDBRANCH   7  22
TORSDOF 4
