
 OpenBabel03272503243D

 35 37  0  0  1  0  0  0  0  0999 V2000
   37.3870   30.7370   48.0390 N   0  0  0  0  0  0  0  0  0  0  0  0
   37.9100   31.5370   46.9930 C   0  0  1  0  0  0  0  0  0  0  0  0
   38.6200   32.6830   47.7050 C   0  0  0  0  0  0  0  0  0  0  0  0
   38.4100   32.3750   49.2070 C   0  0  0  0  0  0  0  0  0  0  0  0
   38.3020   30.8680   49.1420 C   0  0  0  0  0  0  0  0  0  0  0  0
   37.0040   32.1170   46.5120 H   0  0  0  0  0  0  0  0  0  0  0  0
   38.2740   33.6750   47.4310 H   0  0  0  0  0  0  0  0  0  0  0  0
   39.7050   32.5260   47.5070 H   0  0  0  0  0  0  0  0  0  0  0  0
   39.2750   32.7180   49.7980 H   0  0  0  0  0  0  0  0  0  0  0  0
   37.4420   32.7840   49.4890 H   0  0  0  0  0  0  0  0  0  0  0  0
   37.8660   30.5120   50.0930 H   0  0  0  0  0  0  0  0  0  0  0  0
   39.2750   30.3910   48.9140 H   0  0  0  0  0  0  0  0  0  0  0  0
   36.1860   29.9710   48.0020 C   0  0  0  0  0  0  0  0  0  0  0  0
   35.3340   30.1270   46.8940 C   0  0  0  0  0  0  0  0  0  0  0  0
   34.1640   29.3610   46.8380 C   0  0  0  0  0  0  0  0  0  0  0  0
   33.9300   28.5050   47.8800 N   0  0  0  0  0  0  0  0  0  0  0  0
   34.7720   28.3790   48.9310 C   0  0  0  0  0  0  0  0  0  0  0  0
   35.9130   29.1240   48.9900 N   0  0  0  0  0  0  0  0  0  0  0  0
   35.5310   30.7990   46.0910 H   0  0  0  0  0  0  0  0  0  0  0  0
   33.4890   29.4580   46.0000 H   0  0  0  0  0  0  0  0  0  0  0  0
   34.4920   27.6740   49.6980 H   0  0  0  0  0  0  0  0  0  0  0  0
   38.6030   30.9060   45.9140 C   0  0  0  0  0  0  0  0  0  0  0  0
   39.8320   30.8720   46.0110 O   0  0  0  0  0  0  0  0  0  0  0  0
   37.9060   30.8380   43.5230 C   0  0  0  0  0  0  0  0  0  0  0  0
   38.4630   30.2420   44.6270 C   0  0  0  0  0  0  0  0  0  0  0  0
   38.9260   28.9600   44.4420 C   0  0  0  0  0  0  0  0  0  0  0  0
   39.4080   28.3240   45.1570 H   0  0  0  0  0  0  0  0  0  0  0  0
   38.8880   28.2260   43.2800 C   0  0  0  0  0  0  0  0  0  0  0  0
   39.2290   27.2280   43.0680 H   0  0  0  0  0  0  0  0  0  0  0  0
   38.3240   28.8490   42.1890 C   0  0  0  0  0  3  0  0  0  0  0  0
   37.8420   30.1280   42.3030 C   0  0  0  0  0  3  0  0  0  0  0  0
   37.5530   33.0880   44.6740 H   0  0  0  0  0  0  0  0  0  0  0  0
   37.2540   32.4520   43.5190 S   0  0  0  0  0  0  0  0  0  0  0  0
   35.7920   32.3880   43.1910 O   0  0  0  0  0  0  0  0  0  0  0  0
   37.9070   33.2710   42.4160 O   0  0  0  0  0  0  0  0  0  0  0  0
  1  5  1  0  0  0  0
  2  6  1  6  0  0  0
  2  3  1  0  0  0  0
  2  1  1  0  0  0  0
  3  4  1  0  0  0  0
  4 10  1  0  0  0  0
  4  9  1  0  0  0  0
  5  4  1  0  0  0  0
  5 11  1  0  0  0  0
  7  3  1  0  0  0  0
  8  3  1  0  0  0  0
 12  5  1  0  0  0  0
 13  1  1  0  0  0  0
 13 18  1  0  0  0  0
 14 13  2  0  0  0  0
 15 14  1  0  0  0  0
 15 16  2  0  0  0  0
 16 17  1  0  0  0  0
 17 18  2  0  0  0  0
 17 21  1  0  0  0  0
 19 14  1  0  0  0  0
 20 15  1  0  0  0  0
 22 23  2  0  0  0  0
 22  2  1  0  0  0  0
 24 25  1  0  0  0  0
 25 22  1  0  0  0  0
 26 25  2  0  0  0  0
 26 27  1  0  0  0  0
 28 26  1  0  0  0  0
 29 28  1  0  0  0  0
 30 31  1  0  0  0  0
 30 28  2  0  0  0  0
 31 24  2  0  0  0  0
 33 24  1  0  0  0  0
 33 32  1  0  0  0  0
 34 33  2  0  0  0  0
 35 33  2  0  0  0  0
M  END
>  <minimizedAffinity>
-4.88688135

>  <minimizedRMSD>
2.09470963

$$$$
