
 OpenBabel03272503073D

 35 37  0  0  0  0  0  0  0  0999 V2000
   37.3460   27.8140   35.7220 F   0  0  0  0  0  0  0  0  0  0  0  0
   37.3730   27.7840   34.3740 C   0  0  0  0  0  0  0  0  0  0  0  0
   36.4960   28.5460   33.6350 C   0  0  0  0  0  0  0  0  0  0  0  0
   36.5840   28.4670   32.2720 C   0  0  0  0  0  0  0  0  0  0  0  0
   37.5000   27.6670   31.6260 C   0  0  0  0  0  0  0  0  0  0  0  0
   38.3790   26.9030   32.3810 C   0  0  0  0  0  0  0  0  0  0  0  0
   38.3030   26.9730   33.7560 C   0  0  0  0  0  0  0  0  0  0  0  0
   35.8840   29.0760   31.6950 H   0  0  0  0  0  0  0  0  0  0  0  0
   37.5590   27.6130   30.5630 H   0  0  0  0  0  0  0  0  0  0  0  0
   39.1280   26.2510   31.9410 H   0  0  0  0  0  0  0  0  0  0  0  0
   35.0060   31.3020   35.7650 C   0  0  0  0  0  0  0  0  0  0  0  0
   35.9330   30.5150   35.0660 C   0  0  0  0  0  0  0  0  0  0  0  0
   35.5400   29.3810   34.3730 C   0  0  0  0  0  0  0  0  0  0  0  0
   34.2060   29.0610   34.3990 N   0  0  0  0  0  0  0  0  0  0  0  0
   33.3330   29.8310   35.0760 C   0  0  0  0  0  0  0  0  0  0  0  0
   33.7130   30.9100   35.7350 N   0  0  0  0  0  0  0  0  0  0  0  0
   35.4930   32.1430   36.2450 H   0  0  0  0  0  0  0  0  0  0  0  0
   37.0090   30.7210   35.0090 H   0  0  0  0  0  0  0  0  0  0  0  0
   32.2710   29.5660   35.0910 H   0  0  0  0  0  0  0  0  0  0  0  0
   38.8780   24.7860   34.6110 C   0  0  0  0  0  0  0  0  0  0  0  0
   37.8500   24.4530   33.9280 O   0  0  0  0  0  0  0  0  0  0  0  0
   39.2030   26.1890   34.5600 N   0  0  0  0  0  0  0  0  0  0  0  0
   39.9630   26.7270   34.9970 H   0  0  0  0  0  0  0  0  0  0  0  0
   39.3160   23.5280   36.6570 C   0  0  0  0  0  0  0  0  0  0  0  0
   39.7950   24.0100   35.4390 C   0  0  0  0  0  0  0  0  0  0  0  0
   41.0730   23.8080   34.9620 C   0  0  0  0  0  0  0  0  0  0  0  0
   41.3660   24.2200   34.0030 H   0  0  0  0  0  0  0  0  0  0  0  0
   41.9410   23.0610   35.7700 C   0  0  0  0  0  0  0  0  0  0  0  0
   42.9610   22.8840   35.4160 H   0  0  0  0  0  0  0  0  0  0  0  0
   41.4840   22.5730   36.9820 C   0  0  0  0  0  3  0  0  0  0  0  0
   40.2000   22.7840   37.4490 C   0  0  0  0  0  3  0  0  0  0  0  0
   37.2050   24.8660   36.3590 H   0  0  0  0  0  0  0  0  0  0  0  0
   37.6680   23.8540   37.1530 S   0  0  0  0  0  0  0  0  0  0  0  0
   36.8270   22.6170   37.0230 O   0  0  0  0  0  0  0  0  0  0  0  0
   37.7210   24.3410   38.5870 O   0  0  0  0  0  0  0  0  0  0  0  0
  2  1  1  0  0  0  0
  3 13  1  0  0  0  0
  3  2  2  0  0  0  0
  4  3  1  0  0  0  0
  5  4  2  0  0  0  0
  5  6  1  0  0  0  0
  6  7  2  0  0  0  0
  7  2  1  0  0  0  0
  7 22  1  0  0  0  0
  8  4  1  0  0  0  0
  9  5  1  0  0  0  0
 10  6  1  0  0  0  0
 11 17  1  0  0  0  0
 12 11  2  0  0  0  0
 13 14  2  0  0  0  0
 13 12  1  0  0  0  0
 14 15  1  0  0  0  0
 15 19  1  0  0  0  0
 15 16  2  0  0  0  0
 16 11  1  0  0  0  0
 18 12  1  0  0  0  0
 20 25  1  0  0  0  0
 21 20  2  0  0  0  0
 22 20  1  0  0  0  0
 22 23  1  0  0  0  0
 24 33  1  0  0  0  0
 24 31  1  0  0  0  0
 25 24  2  0  0  0  0
 26 25  1  0  0  0  0
 26 28  2  0  0  0  0
 27 26  1  0  0  0  0
 28 30  1  0  0  0  0
 29 28  1  0  0  0  0
 30 31  2  0  0  0  0
 32 33  1  0  0  0  0
 33 35  2  0  0  0  0
 34 33  2  0  0  0  0
M  END
>  <minimizedAffinity>
-5.88462591

$$$$

 OpenBabel03272503073D

 35 37  0  0  0  0  0  0  0  0999 V2000
   40.2280   24.1900   34.5900 F   0  0  0  0  0  0  0  0  0  0  0  0
   39.6570   23.9460   35.7870 C   0  0  0  0  0  0  0  0  0  0  0  0
   40.3000   23.1730   36.7280 C   0  0  0  0  0  0  0  0  0  0  0  0
   39.6620   22.9700   37.9210 C   0  0  0  0  0  0  0  0  0  0  0  0
   38.4240   23.5000   38.2080 C   0  0  0  0  0  0  0  0  0  0  0  0
   37.7860   24.2780   37.2520 C   0  0  0  0  0  0  0  0  0  0  0  0
   38.4170   24.4920   36.0450 C   0  0  0  0  0  0  0  0  0  0  0  0
   40.1800   22.3550   38.6610 H   0  0  0  0  0  0  0  0  0  0  0  0
   37.9360   23.3350   39.1410 H   0  0  0  0  0  0  0  0  0  0  0  0
   36.8100   24.7290   37.4070 H   0  0  0  0  0  0  0  0  0  0  0  0
   44.0350   22.8300   36.1890 C   0  0  0  0  0  0  0  0  0  0  0  0
   42.7840   23.3630   36.5340 C   0  0  0  0  0  0  0  0  0  0  0  0
   41.6180   22.6320   36.3720 C   0  0  0  0  0  0  0  0  0  0  0  0
   41.7380   21.3650   35.8600 N   0  0  0  0  0  0  0  0  0  0  0  0
   42.9490   20.8720   35.5360 C   0  0  0  0  0  0  0  0  0  0  0  0
   44.0570   21.5740   35.6930 N   0  0  0  0  0  0  0  0  0  0  0  0
   44.8280   23.5420   36.3830 H   0  0  0  0  0  0  0  0  0  0  0  0
   42.6260   24.3670   36.9470 H   0  0  0  0  0  0  0  0  0  0  0  0
   43.0340   19.8600   35.1270 H   0  0  0  0  0  0  0  0  0  0  0  0
   38.1300   26.6900   35.0790 C   0  0  0  0  0  0  0  0  0  0  0  0
   38.9690   26.9980   35.9940 O   0  0  0  0  0  0  0  0  0  0  0  0
   37.7740   25.2940   35.0370 N   0  0  0  0  0  0  0  0  0  0  0  0
   37.1410   24.7730   34.4170 H   0  0  0  0  0  0  0  0  0  0  0  0
   37.9830   27.4600   32.7670 C   0  0  0  0  0  0  0  0  0  0  0  0
   37.4590   27.4880   34.0590 C   0  0  0  0  0  0  0  0  0  0  0  0
   36.3530   28.2180   34.4430 C   0  0  0  0  0  0  0  0  0  0  0  0
   36.0120   28.1850   35.4710 H   0  0  0  0  0  0  0  0  0  0  0  0
   35.7200   28.9790   33.4510 C   0  0  0  0  0  0  0  0  0  0  0  0
   34.8400   29.5670   33.7260 H   0  0  0  0  0  0  0  0  0  0  0  0
   36.2250   28.9630   32.1610 C   0  0  0  0  0  3  0  0  0  0  0  0
   37.3350   28.2270   31.7900 C   0  0  0  0  0  3  0  0  0  0  0  0
   40.1730   26.4820   33.5300 H   0  0  0  0  0  0  0  0  0  0  0  0
   39.3970   26.4910   32.4040 S   0  0  0  0  0  0  0  0  0  0  0  0
   38.9930   25.1040   31.9980 O   0  0  0  0  0  0  0  0  0  0  0  0
   40.1500   27.1970   31.2960 O   0  0  0  0  0  0  0  0  0  0  0  0
  1  2  1  0  0  0  0
  2  7  2  0  0  0  0
  2  3  1  0  0  0  0
  3  4  2  0  0  0  0
  4  5  1  0  0  0  0
  4  8  1  0  0  0  0
  5  9  1  0  0  0  0
  6 10  1  0  0  0  0
  6  5  2  0  0  0  0
  7  6  1  0  0  0  0
 11 17  1  0  0  0  0
 11 12  1  0  0  0  0
 12 18  1  0  0  0  0
 13 12  2  0  0  0  0
 13  3  1  0  0  0  0
 14 13  1  0  0  0  0
 15 16  1  0  0  0  0
 15 14  2  0  0  0  0
 16 11  2  0  0  0  0
 19 15  1  0  0  0  0
 20 21  2  0  0  0  0
 22 20  1  0  0  0  0
 22  7  1  0  0  0  0
 23 22  1  0  0  0  0
 24 25  1  0  0  0  0
 25 26  2  0  0  0  0
 25 20  1  0  0  0  0
 26 27  1  0  0  0  0
 28 29  1  0  0  0  0
 28 26  1  0  0  0  0
 30 28  2  0  0  0  0
 31 30  1  0  0  0  0
 31 24  2  0  0  0  0
 33 24  1  0  0  0  0
 33 32  1  0  0  0  0
 34 33  2  0  0  0  0
 35 33  2  0  0  0  0
M  END
>  <minimizedAffinity>
-5.82874727

$$$$

 OpenBabel03272503073D

 35 37  0  0  0  0  0  0  0  0999 V2000
   38.5300   27.2710   32.7030 F   0  0  0  0  0  0  0  0  0  0  0  0
   37.4980   26.5470   32.2230 C   0  0  0  0  0  0  0  0  0  0  0  0
   36.4820   27.1520   31.5180 C   0  0  0  0  0  0  0  0  0  0  0  0
   35.4690   26.3550   31.0600 C   0  0  0  0  0  0  0  0  0  0  0  0
   35.4310   24.9960   31.2750 C   0  0  0  0  0  0  0  0  0  0  0  0
   36.4610   24.3960   31.9870 C   0  0  0  0  0  0  0  0  0  0  0  0
   37.4890   25.1880   32.4550 C   0  0  0  0  0  0  0  0  0  0  0  0
   34.6680   26.8450   30.5010 H   0  0  0  0  0  0  0  0  0  0  0  0
   34.6370   24.3840   30.9130 H   0  0  0  0  0  0  0  0  0  0  0  0
   36.4980   23.3310   32.1950 H   0  0  0  0  0  0  0  0  0  0  0  0
   37.2350   30.5470   30.0130 C   0  0  0  0  0  0  0  0  0  0  0  0
   37.1590   29.1580   30.1900 C   0  0  0  0  0  0  0  0  0  0  0  0
   36.5710   28.6040   31.3170 C   0  0  0  0  0  0  0  0  0  0  0  0
   36.0680   29.4720   32.2520 N   0  0  0  0  0  0  0  0  0  0  0  0
   36.1500   30.8030   32.0620 C   0  0  0  0  0  0  0  0  0  0  0  0
   36.7110   31.3250   30.9870 N   0  0  0  0  0  0  0  0  0  0  0  0
   37.7250   30.7940   29.0790 H   0  0  0  0  0  0  0  0  0  0  0  0
   37.5430   28.4170   29.4780 H   0  0  0  0  0  0  0  0  0  0  0  0
   35.7460   31.4870   32.8150 H   0  0  0  0  0  0  0  0  0  0  0  0
   38.5030   24.8180   34.6180 C   0  0  0  0  0  0  0  0  0  0  0  0
   37.4970   25.5070   35.0010 O   0  0  0  0  0  0  0  0  0  0  0  0
   38.5670   24.5880   33.1970 N   0  0  0  0  0  0  0  0  0  0  0  0
   39.2470   24.0750   32.6210 H   0  0  0  0  0  0  0  0  0  0  0  0
   39.3010   23.4320   36.4630 C   0  0  0  0  0  0  0  0  0  0  0  0
   39.6110   24.2130   35.3510 C   0  0  0  0  0  0  0  0  0  0  0  0
   40.8890   24.4570   34.8930 C   0  0  0  0  0  0  0  0  0  0  0  0
   41.0430   25.0790   34.0190 H   0  0  0  0  0  0  0  0  0  0  0  0
   41.9420   23.8690   35.6080 C   0  0  0  0  0  0  0  0  0  0  0  0
   42.9660   24.0440   35.2670 H   0  0  0  0  0  0  0  0  0  0  0  0
   41.6530   23.0890   36.7150 C   0  0  0  0  0  3  0  0  0  0  0  0
   40.3670   22.8530   37.1630 C   0  0  0  0  0  3  0  0  0  0  0  0
   36.9550   24.3350   36.6030 H   0  0  0  0  0  0  0  0  0  0  0  0
   37.6330   23.1970   36.9450 S   0  0  0  0  0  0  0  0  0  0  0  0
   37.0580   21.9850   36.2720 O   0  0  0  0  0  0  0  0  0  0  0  0
   37.6190   23.0540   38.4530 O   0  0  0  0  0  0  0  0  0  0  0  0
  2  7  1  0  0  0  0
  2  1  1  0  0  0  0
  3  2  2  0  0  0  0
  4  5  2  0  0  0  0
  4  3  1  0  0  0  0
  5  6  1  0  0  0  0
  6 10  1  0  0  0  0
  6  7  2  0  0  0  0
  7 22  1  0  0  0  0
  8  4  1  0  0  0  0
  9  5  1  0  0  0  0
 11 12  2  0  0  0  0
 11 16  1  0  0  0  0
 12 13  1  0  0  0  0
 13  3  1  0  0  0  0
 13 14  2  0  0  0  0
 15 14  1  0  0  0  0
 15 19  1  0  0  0  0
 16 15  2  0  0  0  0
 17 11  1  0  0  0  0
 18 12  1  0  0  0  0
 20 21  2  0  0  0  0
 20 25  1  0  0  0  0
 22 20  1  0  0  0  0
 23 22  1  0  0  0  0
 24 33  1  0  0  0  0
 24 31  1  0  0  0  0
 25 24  2  0  0  0  0
 26 25  1  0  0  0  0
 26 28  2  0  0  0  0
 27 26  1  0  0  0  0
 28 30  1  0  0  0  0
 29 28  1  0  0  0  0
 30 31  2  0  0  0  0
 32 33  1  0  0  0  0
 33 35  2  0  0  0  0
 34 33  2  0  0  0  0
M  END
>  <minimizedAffinity>
-5.51920033

$$$$

 OpenBabel03272503073D

 35 37  0  0  0  0  0  0  0  0999 V2000
   36.3750   27.9310   34.8830 F   0  0  0  0  0  0  0  0  0  0  0  0
   36.9800   27.9080   33.6790 C   0  0  0  0  0  0  0  0  0  0  0  0
   36.4760   28.6350   32.6230 C   0  0  0  0  0  0  0  0  0  0  0  0
   37.1440   28.5660   31.4320 C   0  0  0  0  0  0  0  0  0  0  0  0
   38.2810   27.8090   31.2540 C   0  0  0  0  0  0  0  0  0  0  0  0
   38.7810   27.0810   32.3250 C   0  0  0  0  0  0  0  0  0  0  0  0
   38.1180   27.1420   33.5330 C   0  0  0  0  0  0  0  0  0  0  0  0
   36.7360   29.1460   30.6010 H   0  0  0  0  0  0  0  0  0  0  0  0
   38.7940   27.7630   30.3210 H   0  0  0  0  0  0  0  0  0  0  0  0
   39.6720   26.4640   32.2600 H   0  0  0  0  0  0  0  0  0  0  0  0
   34.1400   31.4590   33.5840 C   0  0  0  0  0  0  0  0  0  0  0  0
   35.3100   30.7190   33.3590 C   0  0  0  0  0  0  0  0  0  0  0  0
   35.2620   29.4250   32.8670 C   0  0  0  0  0  0  0  0  0  0  0  0
   34.0220   28.8970   32.6090 N   0  0  0  0  0  0  0  0  0  0  0  0
   32.9110   29.6260   32.8320 C   0  0  0  0  0  0  0  0  0  0  0  0
   32.9630   30.8590   33.3010 N   0  0  0  0  0  0  0  0  0  0  0  0
   34.3720   32.4450   33.9690 H   0  0  0  0  0  0  0  0  0  0  0  0
   36.3260   31.0870   33.5460 H   0  0  0  0  0  0  0  0  0  0  0  0
   31.9260   29.1950   32.6240 H   0  0  0  0  0  0  0  0  0  0  0  0
   38.2010   25.0140   34.6790 C   0  0  0  0  0  0  0  0  0  0  0  0
   37.4650   24.6660   33.6930 O   0  0  0  0  0  0  0  0  0  0  0  0
   38.6170   26.3940   34.6570 N   0  0  0  0  0  0  0  0  0  0  0  0
   39.2040   26.9380   35.3030 H   0  0  0  0  0  0  0  0  0  0  0  0
   39.9200   23.6050   35.6880 C   0  0  0  0  0  0  0  0  0  0  0  0
   38.7070   24.2770   35.8310 C   0  0  0  0  0  0  0  0  0  0  0  0
   37.9490   24.2940   36.9840 C   0  0  0  0  0  0  0  0  0  0  0  0
   37.0150   24.8430   37.0110 H   0  0  0  0  0  0  0  0  0  0  0  0
   38.4490   23.5810   38.0820 C   0  0  0  0  0  0  0  0  0  0  0  0
   37.8700   23.5780   39.0100 H   0  0  0  0  0  0  0  0  0  0  0  0
   39.6530   22.9080   37.9590 C   0  0  0  0  0  3  0  0  0  0  0  0
   40.4020   22.8990   36.7970 C   0  0  0  0  0  3  0  0  0  0  0  0
   39.8740   23.4350   33.1770 H   0  0  0  0  0  0  0  0  0  0  0  0
   40.7900   23.6590   34.1680 S   0  0  0  0  0  0  0  0  0  0  0  0
   41.4740   24.9840   34.0020 O   0  0  0  0  0  0  0  0  0  0  0  0
   41.7850   22.5170   34.1820 O   0  0  0  0  0  0  0  0  0  0  0  0
  2  1  1  0  0  0  0
  3 13  1  0  0  0  0
  3  2  2  0  0  0  0
  4  3  1  0  0  0  0
  5  4  2  0  0  0  0
  5  6  1  0  0  0  0
  6  7  2  0  0  0  0
  7  2  1  0  0  0  0
  7 22  1  0  0  0  0
  8  4  1  0  0  0  0
  9  5  1  0  0  0  0
 10  6  1  0  0  0  0
 11 17  1  0  0  0  0
 12 18  1  0  0  0  0
 12 11  1  0  0  0  0
 13 12  2  0  0  0  0
 14 15  2  0  0  0  0
 14 13  1  0  0  0  0
 15 16  1  0  0  0  0
 16 11  2  0  0  0  0
 19 15  1  0  0  0  0
 20 25  1  0  0  0  0
 21 20  2  0  0  0  0
 22 20  1  0  0  0  0
 22 23  1  0  0  0  0
 24 25  2  0  0  0  0
 24 31  1  0  0  0  0
 25 26  1  0  0  0  0
 26 27  1  0  0  0  0
 26 28  2  0  0  0  0
 28 29  1  0  0  0  0
 30 28  1  0  0  0  0
 31 30  2  0  0  0  0
 32 33  1  0  0  0  0
 33 35  2  0  0  0  0
 33 24  1  0  0  0  0
 34 33  2  0  0  0  0
M  END
>  <minimizedAffinity>
-5.5074625

$$$$

 OpenBabel03272503073D

 35 37  0  0  0  0  0  0  0  0999 V2000
   38.2910   26.5010   34.9530 F   0  0  0  0  0  0  0  0  0  0  0  0
   38.1520   25.5310   34.0260 C   0  0  0  0  0  0  0  0  0  0  0  0
   38.2250   24.2020   34.3810 C   0  0  0  0  0  0  0  0  0  0  0  0
   38.0730   23.2740   33.3890 C   0  0  0  0  0  0  0  0  0  0  0  0
   37.8530   23.6140   32.0720 C   0  0  0  0  0  0  0  0  0  0  0  0
   37.7800   24.9560   31.7260 C   0  0  0  0  0  0  0  0  0  0  0  0
   37.9320   25.9040   32.7160 C   0  0  0  0  0  0  0  0  0  0  0  0
   38.1320   22.2230   33.6800 H   0  0  0  0  0  0  0  0  0  0  0  0
   37.7350   22.8820   31.3070 H   0  0  0  0  0  0  0  0  0  0  0  0
   37.6090   25.2990   30.7100 H   0  0  0  0  0  0  0  0  0  0  0  0
   39.8080   22.9470   37.5860 C   0  0  0  0  0  0  0  0  0  0  0  0
   39.5990   23.2320   36.2290 C   0  0  0  0  0  0  0  0  0  0  0  0
   38.4610   23.8940   35.7970 C   0  0  0  0  0  0  0  0  0  0  0  0
   37.5480   24.2600   36.7540 N   0  0  0  0  0  0  0  0  0  0  0  0
   37.7690   23.9770   38.0520 C   0  0  0  0  0  0  0  0  0  0  0  0
   38.8550   23.3450   38.4570 N   0  0  0  0  0  0  0  0  0  0  0  0
   40.7470   22.4260   37.7340 H   0  0  0  0  0  0  0  0  0  0  0  0
   40.2920   22.9650   35.4220 H   0  0  0  0  0  0  0  0  0  0  0  0
   37.0330   24.2730   38.8070 H   0  0  0  0  0  0  0  0  0  0  0  0
   36.5560   27.7420   31.9600 C   0  0  0  0  0  0  0  0  0  0  0  0
   35.6610   26.8290   31.9600 O   0  0  0  0  0  0  0  0  0  0  0  0
   37.8620   27.3020   32.3810 N   0  0  0  0  0  0  0  0  0  0  0  0
   38.7510   27.8090   32.4810 H   0  0  0  0  0  0  0  0  0  0  0  0
   36.0350   30.0450   32.5780 C   0  0  0  0  0  0  0  0  0  0  0  0
   36.5080   29.1580   31.6130 C   0  0  0  0  0  0  0  0  0  0  0  0
   36.9330   29.5220   30.3520 C   0  0  0  0  0  0  0  0  0  0  0  0
   37.2870   28.7670   29.6590 H   0  0  0  0  0  0  0  0  0  0  0  0
   36.8810   30.8860   30.0340 C   0  0  0  0  0  0  0  0  0  0  0  0
   37.2140   31.2040   29.0410 H   0  0  0  0  0  0  0  0  0  0  0  0
   36.4150   31.7830   30.9800 C   0  0  0  0  0  3  0  0  0  0  0  0
   35.9910   31.4050   32.2410 C   0  0  0  0  0  3  0  0  0  0  0  0
   36.0660   28.2150   34.3050 H   0  0  0  0  0  0  0  0  0  0  0  0
   35.5210   29.4590   34.1470 S   0  0  0  0  0  0  0  0  0  0  0  0
   35.9630   30.4000   35.2290 O   0  0  0  0  0  0  0  0  0  0  0  0
   34.0120   29.3300   34.1040 O   0  0  0  0  0  0  0  0  0  0  0  0
  2  3  1  0  0  0  0
  2  1  1  0  0  0  0
  3 13  1  0  0  0  0
  4  8  1  0  0  0  0
  4  3  2  0  0  0  0
  5  4  1  0  0  0  0
  6  5  2  0  0  0  0
  6  7  1  0  0  0  0
  7  2  2  0  0  0  0
  9  5  1  0  0  0  0
 10  6  1  0  0  0  0
 11 17  1  0  0  0  0
 11 16  1  0  0  0  0
 12 11  2  0  0  0  0
 13 12  1  0  0  0  0
 13 14  2  0  0  0  0
 14 15  1  0  0  0  0
 15 16  2  0  0  0  0
 15 19  1  0  0  0  0
 18 12  1  0  0  0  0
 20 22  1  0  0  0  0
 21 20  2  0  0  0  0
 22 23  1  0  0  0  0
 22  7  1  0  0  0  0
 24 33  1  0  0  0  0
 25 20  1  0  0  0  0
 25 24  2  0  0  0  0
 26 25  1  0  0  0  0
 27 26  1  0  0  0  0
 28 26  2  0  0  0  0
 28 30  1  0  0  0  0
 29 28  1  0  0  0  0
 30 31  2  0  0  0  0
 31 24  1  0  0  0  0
 33 32  1  0  0  0  0
 33 34  2  0  0  0  0
 35 33  2  0  0  0  0
M  END
>  <minimizedAffinity>
-5.46792221

$$$$

 OpenBabel03272503073D

 35 37  0  0  0  0  0  0  0  0999 V2000
   36.0170   27.4350   33.4310 F   0  0  0  0  0  0  0  0  0  0  0  0
   36.2460   28.1650   32.3200 C   0  0  0  0  0  0  0  0  0  0  0  0
   36.5660   27.5520   31.1290 C   0  0  0  0  0  0  0  0  0  0  0  0
   36.7830   28.3540   30.0440 C   0  0  0  0  0  0  0  0  0  0  0  0
   36.6950   29.7280   30.0980 C   0  0  0  0  0  0  0  0  0  0  0  0
   36.3710   30.3350   31.3030 C   0  0  0  0  0  0  0  0  0  0  0  0
   36.1490   29.5380   32.4070 C   0  0  0  0  0  0  0  0  0  0  0  0
   37.0360   27.8580   29.1040 H   0  0  0  0  0  0  0  0  0  0  0  0
   36.8650   30.3430   29.2460 H   0  0  0  0  0  0  0  0  0  0  0  0
   36.2820   31.4110   31.4220 H   0  0  0  0  0  0  0  0  0  0  0  0
   35.6140   23.8850   31.0650 C   0  0  0  0  0  0  0  0  0  0  0  0
   35.5180   25.2840   31.0690 C   0  0  0  0  0  0  0  0  0  0  0  0
   36.6470   26.0850   31.1260 C   0  0  0  0  0  0  0  0  0  0  0  0
   37.8630   25.4520   31.1780 N   0  0  0  0  0  0  0  0  0  0  0  0
   37.9330   24.1070   31.1730 C   0  0  0  0  0  0  0  0  0  0  0  0
   36.8530   23.3480   31.1180 N   0  0  0  0  0  0  0  0  0  0  0  0
   34.6330   23.4270   31.0180 H   0  0  0  0  0  0  0  0  0  0  0  0
   34.5760   25.8450   31.0280 H   0  0  0  0  0  0  0  0  0  0  0  0
   38.9080   23.6120   31.2160 H   0  0  0  0  0  0  0  0  0  0  0  0
   34.4230   30.5030   33.7980 C   0  0  0  0  0  0  0  0  0  0  0  0
   33.7030   30.2170   32.7810 O   0  0  0  0  0  0  0  0  0  0  0  0
   35.8130   30.1450   33.6680 N   0  0  0  0  0  0  0  0  0  0  0  0
   36.6050   30.2490   34.3150 H   0  0  0  0  0  0  0  0  0  0  0  0
   33.0590   30.5850   35.8210 C   0  0  0  0  0  0  0  0  0  0  0  0
   34.1050   31.1280   35.0770 C   0  0  0  0  0  0  0  0  0  0  0  0
   34.8620   32.2160   35.4630 C   0  0  0  0  0  0  0  0  0  0  0  0
   35.6590   32.5770   34.8240 H   0  0  0  0  0  0  0  0  0  0  0  0
   34.5430   32.8050   36.6950 C   0  0  0  0  0  0  0  0  0  0  0  0
   35.1270   33.6680   37.0270 H   0  0  0  0  0  0  0  0  0  0  0  0
   33.5080   32.2780   37.4480 C   0  0  0  0  0  3  0  0  0  0  0  0
   32.7570   31.1870   37.0490 C   0  0  0  0  0  3  0  0  0  0  0  0
   32.8820   28.6970   34.1660 H   0  0  0  0  0  0  0  0  0  0  0  0
   32.1710   29.1990   35.2200 S   0  0  0  0  0  0  0  0  0  0  0  0
   31.9940   28.1780   36.3070 O   0  0  0  0  0  0  0  0  0  0  0  0
   30.8370   29.7070   34.7140 O   0  0  0  0  0  0  0  0  0  0  0  0
  2  7  1  0  0  0  0
  2  1  1  0  0  0  0
  3  2  2  0  0  0  0
  4  5  2  0  0  0  0
  4  3  1  0  0  0  0
  5  6  1  0  0  0  0
  6 10  1  0  0  0  0
  6  7  2  0  0  0  0
  7 22  1  0  0  0  0
  8  4  1  0  0  0  0
  9  5  1  0  0  0  0
 11 12  2  0  0  0  0
 11 16  1  0  0  0  0
 12 13  1  0  0  0  0
 13  3  1  0  0  0  0
 13 14  2  0  0  0  0
 15 14  1  0  0  0  0
 15 19  1  0  0  0  0
 16 15  2  0  0  0  0
 17 11  1  0  0  0  0
 18 12  1  0  0  0  0
 20 25  1  0  0  0  0
 21 20  2  0  0  0  0
 22 20  1  0  0  0  0
 22 23  1  0  0  0  0
 24 31  1  0  0  0  0
 25 26  1  0  0  0  0
 25 24  2  0  0  0  0
 26 28  2  0  0  0  0
 27 26  1  0  0  0  0
 28 29  1  0  0  0  0
 28 30  1  0  0  0  0
 31 30  2  0  0  0  0
 32 33  1  0  0  0  0
 33 24  1  0  0  0  0
 33 34  2  0  0  0  0
 35 33  2  0  0  0  0
M  END
>  <minimizedAffinity>
-5.42926455

$$$$

 OpenBabel03272503073D

 35 37  0  0  0  0  0  0  0  0999 V2000
   38.2670   26.5150   35.2500 F   0  0  0  0  0  0  0  0  0  0  0  0
   38.3100   25.5900   34.2690 C   0  0  0  0  0  0  0  0  0  0  0  0
   38.4880   24.2570   34.5650 C   0  0  0  0  0  0  0  0  0  0  0  0
   38.5190   23.3770   33.5200 C   0  0  0  0  0  0  0  0  0  0  0  0
   38.3820   23.7680   32.2060 C   0  0  0  0  0  0  0  0  0  0  0  0
   38.2020   25.1140   31.9190 C   0  0  0  0  0  0  0  0  0  0  0  0
   38.1680   26.0140   32.9640 C   0  0  0  0  0  0  0  0  0  0  0  0
   38.6610   22.3210   33.7650 H   0  0  0  0  0  0  0  0  0  0  0  0
   38.4070   23.0720   31.3990 H   0  0  0  0  0  0  0  0  0  0  0  0
   38.0850   25.4960   30.9090 H   0  0  0  0  0  0  0  0  0  0  0  0
   37.8000   23.8220   38.2660 C   0  0  0  0  0  0  0  0  0  0  0  0
   37.6480   24.1780   36.9170 C   0  0  0  0  0  0  0  0  0  0  0  0
   38.6300   23.8940   35.9810 C   0  0  0  0  0  0  0  0  0  0  0  0
   39.7560   23.2500   36.4280 N   0  0  0  0  0  0  0  0  0  0  0  0
   39.8810   22.9170   37.7270 C   0  0  0  0  0  0  0  0  0  0  0  0
   38.9420   23.1900   38.6150 N   0  0  0  0  0  0  0  0  0  0  0  0
   36.9360   24.1230   38.8460 H   0  0  0  0  0  0  0  0  0  0  0  0
   36.7730   24.6920   36.5020 H   0  0  0  0  0  0  0  0  0  0  0  0
   40.7840   22.4050   38.0740 H   0  0  0  0  0  0  0  0  0  0  0  0
   36.6820   27.7470   32.1670 C   0  0  0  0  0  0  0  0  0  0  0  0
   35.8910   26.7510   32.0380 O   0  0  0  0  0  0  0  0  0  0  0  0
   37.9830   27.4150   32.6900 N   0  0  0  0  0  0  0  0  0  0  0  0
   38.8020   28.0010   32.9000 H   0  0  0  0  0  0  0  0  0  0  0  0
   37.0170   29.6500   30.6750 C   0  0  0  0  0  0  0  0  0  0  0  0
   36.5190   29.1690   31.8850 C   0  0  0  0  0  0  0  0  0  0  0  0
   35.8840   29.9410   32.8360 C   0  0  0  0  0  0  0  0  0  0  0  0
   35.5260   29.4870   33.7530 H   0  0  0  0  0  0  0  0  0  0  0  0
   35.7350   31.3050   32.5490 C   0  0  0  0  0  0  0  0  0  0  0  0
   35.2350   31.9410   33.2850 H   0  0  0  0  0  0  0  0  0  0  0  0
   36.2230   31.8010   31.3520 C   0  0  0  0  0  3  0  0  0  0  0  0
   36.8580   31.0160   30.4080 C   0  0  0  0  0  3  0  0  0  0  0  0
   37.1420   27.3730   29.6100 H   0  0  0  0  0  0  0  0  0  0  0  0
   37.8070   28.5660   29.5470 S   0  0  0  0  0  0  0  0  0  0  0  0
   37.7830   29.1420   28.1620 O   0  0  0  0  0  0  0  0  0  0  0  0
   39.2250   28.3630   30.0410 O   0  0  0  0  0  0  0  0  0  0  0  0
  2  3  1  0  0  0  0
  2  1  1  0  0  0  0
  3 13  1  0  0  0  0
  4  8  1  0  0  0  0
  4  3  2  0  0  0  0
  5  4  1  0  0  0  0
  6  5  2  0  0  0  0
  6  7  1  0  0  0  0
  7  2  2  0  0  0  0
  9  5  1  0  0  0  0
 10  6  1  0  0  0  0
 11 16  1  0  0  0  0
 11 17  1  0  0  0  0
 12 11  2  0  0  0  0
 13 14  2  0  0  0  0
 13 12  1  0  0  0  0
 14 15  1  0  0  0  0
 15 19  1  0  0  0  0
 15 16  2  0  0  0  0
 18 12  1  0  0  0  0
 20 22  1  0  0  0  0
 21 20  2  0  0  0  0
 22 23  1  0  0  0  0
 22  7  1  0  0  0  0
 24 25  1  0  0  0  0
 25 20  1  0  0  0  0
 25 26  2  0  0  0  0
 26 27  1  0  0  0  0
 28 26  1  0  0  0  0
 28 29  1  0  0  0  0
 30 28  2  0  0  0  0
 31 24  2  0  0  0  0
 31 30  1  0  0  0  0
 33 32  1  0  0  0  0
 33 35  2  0  0  0  0
 33 24  1  0  0  0  0
 34 33  2  0  0  0  0
M  END
>  <minimizedAffinity>
-5.4129858

$$$$

 OpenBabel03272503073D

 35 37  0  0  0  0  0  0  0  0999 V2000
   38.7360   26.3050   32.0220 F   0  0  0  0  0  0  0  0  0  0  0  0
   37.8230   27.2320   32.3800 C   0  0  0  0  0  0  0  0  0  0  0  0
   37.5610   28.3120   31.5670 C   0  0  0  0  0  0  0  0  0  0  0  0
   36.6220   29.2100   31.9930 C   0  0  0  0  0  0  0  0  0  0  0  0
   35.9420   29.0740   33.1830 C   0  0  0  0  0  0  0  0  0  0  0  0
   36.2130   27.9810   33.9930 C   0  0  0  0  0  0  0  0  0  0  0  0
   37.1580   27.0670   33.5770 C   0  0  0  0  0  0  0  0  0  0  0  0
   36.4210   30.0640   31.3410 H   0  0  0  0  0  0  0  0  0  0  0  0
   35.2110   29.7800   33.5040 H   0  0  0  0  0  0  0  0  0  0  0  0
   35.7160   27.8080   34.9440 H   0  0  0  0  0  0  0  0  0  0  0  0
   38.4420   28.8310   27.9180 C   0  0  0  0  0  0  0  0  0  0  0  0
   37.7060   28.7420   29.1100 C   0  0  0  0  0  0  0  0  0  0  0  0
   38.3140   28.4090   30.3100 C   0  0  0  0  0  0  0  0  0  0  0  0
   39.6650   28.1710   30.2840 N   0  0  0  0  0  0  0  0  0  0  0  0
   40.3520   28.2620   29.1290 C   0  0  0  0  0  0  0  0  0  0  0  0
   39.7670   28.5800   27.9880 N   0  0  0  0  0  0  0  0  0  0  0  0
   37.8020   29.1010   27.0860 H   0  0  0  0  0  0  0  0  0  0  0  0
   36.6280   28.9220   29.1920 H   0  0  0  0  0  0  0  0  0  0  0  0
   41.4290   28.0690   29.1190 H   0  0  0  0  0  0  0  0  0  0  0  0
   38.4940   26.1580   35.3760 C   0  0  0  0  0  0  0  0  0  0  0  0
   38.9790   27.3410   35.3640 O   0  0  0  0  0  0  0  0  0  0  0  0
   37.4570   25.9260   34.4020 N   0  0  0  0  0  0  0  0  0  0  0  0
   36.8960   25.0900   34.1920 H   0  0  0  0  0  0  0  0  0  0  0  0
   39.8480   24.1710   35.7950 C   0  0  0  0  0  0  0  0  0  0  0  0
   38.7910   24.9870   36.1940 C   0  0  0  0  0  0  0  0  0  0  0  0
   38.0040   24.7680   37.3050 C   0  0  0  0  0  0  0  0  0  0  0  0
   37.1990   25.4530   37.5440 H   0  0  0  0  0  0  0  0  0  0  0  0
   38.3020   23.6390   38.0800 C   0  0  0  0  0  0  0  0  0  0  0  0
   37.6950   23.4400   38.9680 H   0  0  0  0  0  0  0  0  0  0  0  0
   39.3500   22.8160   37.7010 C   0  0  0  0  0  3  0  0  0  0  0  0
   40.1300   23.0480   36.5830 C   0  0  0  0  0  3  0  0  0  0  0  0
   39.9130   25.1440   33.4740 H   0  0  0  0  0  0  0  0  0  0  0  0
   40.7750   24.5580   34.3590 S   0  0  0  0  0  0  0  0  0  0  0  0
   41.9200   25.4660   34.7020 O   0  0  0  0  0  0  0  0  0  0  0  0
   41.2610   23.2470   33.7740 O   0  0  0  0  0  0  0  0  0  0  0  0
  1  2  1  0  0  0  0
  2  7  1  0  0  0  0
  3  4  1  0  0  0  0
  3  2  2  0  0  0  0
  4  5  2  0  0  0  0
  5  9  1  0  0  0  0
  5  6  1  0  0  0  0
  6 10  1  0  0  0  0
  7  6  2  0  0  0  0
  7 22  1  0  0  0  0
  8  4  1  0  0  0  0
 11 16  2  0  0  0  0
 11 12  1  0  0  0  0
 12 18  1  0  0  0  0
 12 13  2  0  0  0  0
 13  3  1  0  0  0  0
 14 13  1  0  0  0  0
 15 14  2  0  0  0  0
 16 15  1  0  0  0  0
 17 11  1  0  0  0  0
 19 15  1  0  0  0  0
 20 25  1  0  0  0  0
 21 20  2  0  0  0  0
 22 20  1  0  0  0  0
 23 22  1  0  0  0  0
 24 25  2  0  0  0  0
 24 31  1  0  0  0  0
 25 26  1  0  0  0  0
 26 27  1  0  0  0  0
 26 28  2  0  0  0  0
 28 29  1  0  0  0  0
 30 28  1  0  0  0  0
 31 30  2  0  0  0  0
 32 33  1  0  0  0  0
 33 34  2  0  0  0  0
 33 24  1  0  0  0  0
 35 33  2  0  0  0  0
M  END
>  <minimizedAffinity>
-5.34125376

$$$$

 OpenBabel03272503073D

 35 37  0  0  0  0  0  0  0  0999 V2000
   37.5670   27.9250   35.2850 F   0  0  0  0  0  0  0  0  0  0  0  0
   37.2270   27.7790   33.9880 C   0  0  0  0  0  0  0  0  0  0  0  0
   38.0350   27.0740   33.1240 C   0  0  0  0  0  0  0  0  0  0  0  0
   37.6260   26.9640   31.8240 C   0  0  0  0  0  0  0  0  0  0  0  0
   36.4580   27.5240   31.3570 C   0  0  0  0  0  0  0  0  0  0  0  0
   35.6510   28.2320   32.2370 C   0  0  0  0  0  0  0  0  0  0  0  0
   36.0500   28.3500   33.5510 C   0  0  0  0  0  0  0  0  0  0  0  0
   38.2740   26.4030   31.1460 H   0  0  0  0  0  0  0  0  0  0  0  0
   36.1490   27.4320   30.3410 H   0  0  0  0  0  0  0  0  0  0  0  0
   34.7160   28.6990   31.9410 H   0  0  0  0  0  0  0  0  0  0  0  0
   41.6420   26.6200   34.1940 C   0  0  0  0  0  0  0  0  0  0  0  0
   40.4720   27.1860   33.6640 C   0  0  0  0  0  0  0  0  0  0  0  0
   39.2700   26.4980   33.6730 C   0  0  0  0  0  0  0  0  0  0  0  0
   39.2710   25.2400   34.2220 N   0  0  0  0  0  0  0  0  0  0  0  0
   40.4040   24.7160   34.7260 C   0  0  0  0  0  0  0  0  0  0  0  0
   41.5480   25.3770   34.7150 N   0  0  0  0  0  0  0  0  0  0  0  0
   42.4800   27.3000   34.1000 H   0  0  0  0  0  0  0  0  0  0  0  0
   40.4110   28.1840   33.2150 H   0  0  0  0  0  0  0  0  0  0  0  0
   40.3940   23.7120   35.1600 H   0  0  0  0  0  0  0  0  0  0  0  0
   35.2530   30.5090   34.2920 C   0  0  0  0  0  0  0  0  0  0  0  0
   35.9870   30.9050   33.3220 O   0  0  0  0  0  0  0  0  0  0  0  0
   35.2300   29.0800   34.4820 N   0  0  0  0  0  0  0  0  0  0  0  0
   34.7340   28.4930   35.1640 H   0  0  0  0  0  0  0  0  0  0  0  0
   33.0630   31.3410   34.9780 C   0  0  0  0  0  0  0  0  0  0  0  0
   34.4250   31.2320   35.2510 C   0  0  0  0  0  0  0  0  0  0  0  0
   35.0490   31.7600   36.3630 C   0  0  0  0  0  0  0  0  0  0  0  0
   36.1160   31.6310   36.5000 H   0  0  0  0  0  0  0  0  0  0  0  0
   34.2400   32.4520   37.2750 C   0  0  0  0  0  0  0  0  0  0  0  0
   34.7070   32.8810   38.1660 H   0  0  0  0  0  0  0  0  0  0  0  0
   32.8830   32.5700   37.0210 C   0  0  0  0  0  3  0  0  0  0  0  0
   32.2720   32.0360   35.9020 C   0  0  0  0  0  3  0  0  0  0  0  0
   33.2700   30.8780   32.5130 H   0  0  0  0  0  0  0  0  0  0  0  0
   32.3890   30.6250   33.5270 S   0  0  0  0  0  0  0  0  0  0  0  0
   32.1730   29.1520   33.7210 O   0  0  0  0  0  0  0  0  0  0  0  0
   31.0880   31.3440   33.2370 O   0  0  0  0  0  0  0  0  0  0  0  0
  2  1  1  0  0  0  0
  3 13  1  0  0  0  0
  3  2  2  0  0  0  0
  4  3  1  0  0  0  0
  5  4  2  0  0  0  0
  5  6  1  0  0  0  0
  6  7  2  0  0  0  0
  7  2  1  0  0  0  0
  7 22  1  0  0  0  0
  8  4  1  0  0  0  0
  9  5  1  0  0  0  0
 10  6  1  0  0  0  0
 11 16  1  0  0  0  0
 12 13  1  0  0  0  0
 12 11  2  0  0  0  0
 13 14  2  0  0  0  0
 14 15  1  0  0  0  0
 15 19  1  0  0  0  0
 16 15  2  0  0  0  0
 17 11  1  0  0  0  0
 18 12  1  0  0  0  0
 20 22  1  0  0  0  0
 20 25  1  0  0  0  0
 21 20  2  0  0  0  0
 22 23  1  0  0  0  0
 24 25  2  0  0  0  0
 24 31  1  0  0  0  0
 25 26  1  0  0  0  0
 26 27  1  0  0  0  0
 26 28  2  0  0  0  0
 28 29  1  0  0  0  0
 30 28  1  0  0  0  0
 31 30  2  0  0  0  0
 32 33  1  0  0  0  0
 33 34  2  0  0  0  0
 33 24  1  0  0  0  0
 35 33  2  0  0  0  0
M  END
>  <minimizedAffinity>
-5.19062567

$$$$
