REMARK  Name = 
REMARK  3 active torsions:
REMARK  status: ('A' for Active; 'I' for Inactive)
REMARK    1  A    between atoms: C_3  and  C_7
REMARK    2  A    between atoms: C_7  and  C_17
REMARK    3  A    between atoms: S_13  and  C_16
REMARK                            x       y       z     vdW  Elec       q    Type
REMARK                         _______ _______ _______ _____ _____    ______ ____
ROOT
ATOM      1  C   UNL     1      36.501  30.147  46.332  0.00  0.00    +0.000 A 
ATOM      2  C   UNL     1      37.854  30.345  46.517  0.00  0.00    +0.000 A 
ATOM      3  C   UNL     1      38.744  29.976  45.527  0.00  0.00    +0.000 A 
ATOM      4  H   UNL     1      39.783  30.149  45.715  0.00  0.00    +0.000 HD
ATOM      5  C   UNL     1      38.359  29.412  44.343  0.00  0.00    +0.000 A 
ATOM      6  H   UNL     1      39.134  29.155  43.623  0.00  0.00    +0.000 HD
ATOM      7  C   UNL     1      37.003  29.208  44.145  0.00  0.00    +0.000 A 
ATOM      8  C   UNL     1      36.089  29.576  45.137  0.00  0.00    +0.000 A 
ENDROOT
BRANCH   1  10
ATOM      9  H   UNL     1      35.549  31.398  48.401  0.00  0.00    +0.000 HD
ATOM     10  S   UNL     1      35.211  30.526  47.422  0.00  0.00    +0.000 S 
ATOM     11  O   UNL     1      34.725  29.232  48.051  0.00  0.00    +0.000 OA
ATOM     12  O   UNL     1      34.000  31.066  46.671  0.00  0.00    +0.000 OA
ENDBRANCH   1  10
BRANCH   2  13
ATOM     13  C   UNL     1      38.211  30.950  47.797  0.00  0.00    +0.000 C 
ATOM     14  O   UNL     1      39.045  31.876  47.809  0.00  0.00    +0.000 OA
BRANCH  13  17
ATOM     15  C   UNL     1      37.354  30.230  51.365  0.00  0.00    +0.000 A 
ATOM     16  C   UNL     1      38.014  30.764  50.256  0.00  0.00    +0.000 A 
ATOM     17  C   UNL     1      37.560  30.422  48.988  0.00  0.00    +0.000 A 
ATOM     18  N   UNL     1      36.501  29.587  48.929  0.00  0.00    +0.000 NA
ATOM     19  C   UNL     1      35.878  29.083  49.997  0.00  0.00    +0.000 A 
ATOM     20  N   UNL     1      36.297  29.399  51.222  0.00  0.00    +0.000 NA
ATOM     21  H   UNL     1      37.647  30.449  52.368  0.00  0.00    +0.000 HD
ATOM     22  H   UNL     1      38.864  31.433  50.401  0.00  0.00    +0.000 HD
ATOM     23  H   UNL     1      35.022  28.411  49.841  0.00  0.00    +0.000 HD
ENDBRANCH  13  17
ENDBRANCH   2  13
TORSDOF 3
