
 OpenBabel03262522083D

 23 24  0  0  0  0  0  0  0  0999 V2000
   39.5050   32.9070   47.1200 C   0  0  0  0  0  0  0  0  0  0  0  0
   38.7100   32.2110   47.9850 C   0  0  0  0  0  0  0  0  0  0  0  0
   38.5160   32.7140   49.2550 C   0  0  0  0  0  0  0  0  0  0  0  0
   37.8680   32.1210   49.9200 H   0  0  0  0  0  0  0  0  0  0  0  0
   39.0860   33.8820   49.6840 C   0  0  0  0  0  0  0  0  0  0  0  0
   38.8580   34.1730   50.6990 H   0  0  0  0  0  0  0  0  0  0  0  0
   39.8940   34.5870   48.7980 C   0  0  0  0  0  3  0  0  0  0  0  0
   40.1060   34.0970   47.5070 C   0  0  0  0  0  3  0  0  0  0  0  0
   38.7430   31.6820   45.0230 H   0  0  0  0  0  0  0  0  0  0  0  0
   39.8360   32.3930   45.4990 S   0  0  0  0  0  0  0  0  0  0  0  0
   39.9900   33.5720   44.5600 O   0  0  0  0  0  0  0  0  0  0  0  0
   41.0690   31.5850   45.3780 O   0  0  0  0  0  0  0  0  0  0  0  0
   38.0900   30.9610   47.5520 C   0  0  0  0  0  0  0  0  0  0  0  0
   38.1430   30.2640   46.5400 O   0  0  0  0  0  0  0  0  0  0  0  0
   37.7610   29.7550   49.7250 C   0  0  0  0  0  0  0  0  0  0  0  0
   37.1890   30.4420   48.6110 C   0  0  0  0  0  0  0  0  0  0  0  0
   35.7960   30.5960   48.5700 C   0  0  0  0  0  0  0  0  0  0  0  0
   35.0690   30.0850   49.5850 N   0  0  0  0  0  0  0  0  0  0  0  0
   35.6380   29.4420   50.6220 C   0  0  0  0  0  0  0  0  0  0  0  0
   36.9650   29.2730   50.7010 N   0  0  0  0  0  0  0  0  0  0  0  0
   38.8380   29.6250   49.7740 H   0  0  0  0  0  0  0  0  0  0  0  0
   35.3940   31.1210   47.7140 H   0  0  0  0  0  0  0  0  0  0  0  0
   35.0000   29.0460   51.4220 H   0  0  0  0  0  0  0  0  0  0  0  0
  1  8  2  0  0  0  0
  1  2  1  0  0  0  0
  2  3  2  0  0  0  0
  3  5  1  0  0  0  0
  3  4  1  0  0  0  0
  5  6  1  0  0  0  0
  7  5  2  0  0  0  0
  8  7  1  0  0  0  0
  9 10  1  0  0  0  0
 10  1  1  0  0  0  0
 11 10  2  0  0  0  0
 12 10  2  0  0  0  0
 13  2  1  0  0  0  0
 13 16  1  0  0  0  0
 14 13  2  0  0  0  0
 15 21  1  0  0  0  0
 15 20  1  0  0  0  0
 16 15  2  0  0  0  0
 17 16  1  0  0  0  0
 17 18  2  0  0  0  0
 18 19  1  0  0  0  0
 19 20  2  0  0  0  0
 19 23  1  0  0  0  0
 22 17  1  0  0  0  0
M  END
>  <minimizedAffinity>
-5.49719191

>  <minimizedRMSD>
3.81022382

$$$$
