
 OpenBabel03272501303D

 23 24  0  0  0  0  0  0  0  0999 V2000
   38.6220   31.1870   45.6670 C   0  0  0  0  0  0  0  0  0  0  0  0
   37.5330   31.1250   46.5130 C   0  0  0  0  0  0  0  0  0  0  0  0
   36.3490   30.5710   46.0680 C   0  0  0  0  0  0  0  0  0  0  0  0
   35.5320   30.5440   46.7580 H   0  0  0  0  0  0  0  0  0  0  0  0
   36.1830   30.0650   44.8080 C   0  0  0  0  0  0  0  0  0  0  0  0
   35.2110   29.6490   44.5500 H   0  0  0  0  0  0  0  0  0  0  0  0
   37.2680   30.1230   43.9490 C   0  0  0  0  0  0  0  0  0  0  0  0
   38.4750   30.6820   44.3850 C   0  0  0  0  0  0  0  0  0  0  0  0
   40.5080   31.8740   47.3190 H   0  0  0  0  0  0  0  0  0  0  0  0
   40.1930   31.8320   46.0030 S   0  0  0  0  0  0  0  0  0  0  0  0
   40.2630   33.2360   45.4270 O   0  0  0  0  0  0  0  0  0  0  0  0
   41.2730   31.0590   45.2570 O   0  0  0  0  0  0  0  0  0  0  0  0
   37.7630   31.6780   47.8450 C   0  0  0  0  0  0  0  0  0  0  0  0
   38.2210   32.8330   47.9430 O   0  0  0  0  0  0  0  0  0  0  0  0
   37.5940   30.2710   51.3060 C   0  0  0  0  0  0  0  0  0  0  0  0
   37.9350   31.1170   50.2480 C   0  0  0  0  0  0  0  0  0  0  0  0
   37.4390   30.8290   48.9830 C   0  0  0  0  0  0  0  0  0  0  0  0
   36.6540   29.7350   48.8760 N   0  0  0  0  0  0  0  0  0  0  0  0
   36.3350   28.9340   49.8940 C   0  0  0  0  0  0  0  0  0  0  0  0
   36.8000   29.1930   51.1160 N   0  0  0  0  0  0  0  0  0  0  0  0
   37.9380   30.4310   52.3040 H   0  0  0  0  0  0  0  0  0  0  0  0
   38.5780   31.9810   50.4310 H   0  0  0  0  0  0  0  0  0  0  0  0
   35.6860   28.0670   49.7010 H   0  0  0  0  0  0  0  0  0  0  0  0
  1 10  1  0  0  0  0
  1  2  1  0  0  0  0
  2 13  1  0  0  0  0
  3  2  2  0  0  0  0
  3  4  1  0  0  0  0
  5  3  1  0  0  0  0
  6  5  1  0  0  0  0
  7  8  1  0  0  0  0
  7  5  2  0  0  0  0
  8  1  2  0  0  0  0
 10  9  1  0  0  0  0
 11 10  2  0  0  0  0
 12 10  2  0  0  0  0
 13 14  2  0  0  0  0
 13 17  1  0  0  0  0
 15 21  1  0  0  0  0
 16 22  1  0  0  0  0
 16 15  2  0  0  0  0
 17 16  1  0  0  0  0
 18 17  2  0  0  0  0
 18 19  1  0  0  0  0
 19 20  2  0  0  0  0
 20 15  1  0  0  0  0
 23 19  1  0  0  0  0
M  END
>  <minimizedAffinity>
-4.81058025

>  <minimizedRMSD>
0.890405715

$$$$
