
     RDKit          3D

 25 26  0  0  0  0  0  0  0  0999 V2000
   37.3536   30.2303   51.3648 C   0  0  0  0  0  0  0  0  0  0  0  0
   38.0138   30.7641   50.2556 C   0  0  0  0  0  0  0  0  0  0  0  0
   37.5597   30.4215   48.9881 C   0  0  0  0  0  0  0  0  0  0  0  0
   36.5009   29.5875   48.9290 N   0  0  0  0  0  0  0  0  0  0  0  0
   35.8777   29.0833   49.9967 C   0  0  0  0  0  0  0  0  0  0  0  0
   36.2969   29.3990   51.2219 N   0  0  0  0  0  0  0  0  0  0  0  0
   38.2114   30.9495   47.7965 C   0  0  0  0  0  0  0  0  0  0  0  0
   39.0450   31.8757   47.8094 O   0  0  0  0  0  0  0  0  0  0  0  0
   37.6469   30.4494   52.3684 H   0  0  0  0  0  0  0  0  0  0  0  0
   38.8644   31.4329   50.4014 H   0  0  0  0  0  0  0  0  0  0  0  0
   35.0220   28.4107   49.8410 H   0  0  0  0  0  0  0  0  0  0  0  0
   38.3702   33.4579   46.6392 H   0  0  0  0  0  0  0  0  0  0  0  0
   37.6925   32.9753   45.5716 S   0  0  0  0  0  0  0  0  0  0  0  0
   36.2715   33.5124   45.5962 O   0  0  0  0  0  0  0  0  0  0  0  0
   38.2973   33.5495   44.2972 O   0  0  0  0  0  0  0  0  0  0  0  0
   37.6162   31.2472   45.5003 C   0  0  0  0  0  0  0  0  0  0  0  0
   37.8541   30.3448   46.5170 C   0  0  0  0  0  0  0  0  0  0  0  0
   37.7446   28.9900   46.2723 C   0  0  0  0  0  0  0  0  0  0  0  0
   37.9382   28.3282   47.0902 H   0  0  0  0  0  0  0  0  0  0  0  0
   37.4061   28.4716   45.0528 C   0  0  0  0  0  0  0  0  0  0  0  0
   37.3451   27.3891   44.9578 H   0  0  0  0  0  0  0  0  0  0  0  0
   37.1648   29.3667   44.0243 C   0  0  0  0  0  0  0  0  0  0  0  0
   37.2715   30.7422   44.2558 C   0  0  0  0  0  0  0  0  0  0  0  0
   36.8970   28.9603   43.0593 H   0  0  0  0  0  0  0  0  0  0  0  0
   37.0597   31.3474   43.3760 H   0  0  0  0  0  0  0  0  0  0  0  0
  2  1  2  0
  3  2  1  0
  4  3  2  0
  4  5  1  0
  5  6  2  0
  6  1  1  0
  7  3  1  0
  8  7  2  0
  1  9  1  0
  2 10  1  0
  5 11  1  0
 12 13  1  0
 13 14  2  0
 13 15  2  0
 13 16  1  0
 16 17  2  0
 17 18  1  0
 18 19  1  0
 18 20  2  0
 20 21  1  0
 20 22  1  0
 22 23  2  0
 23 16  1  0
 22 24  1  0
 23 25  1  0
  7 17  1  0
M  ISO  6   9  14  10  14  11  14  12  12  19  15  21  16
M  END
>  <DihAtoms>  (1) 
2,6,16,15

>  <DihDeg>  (1) 
-135.0021187446883

$$$$
