REMARK  Name = 
REMARK  7 active torsions:
REMARK  status: ('A' for Active; 'I' for Inactive)
REMARK    1  A    between atoms: C_1  and  C_4
REMARK    2  A    between atoms: C_3  and  C_11
REMARK    3  A    between atoms: C_4  and  C_7
REMARK    4  A    between atoms: C_11  and  C_12
REMARK    5  A    between atoms: C_12  and  C_14
REMARK    6  A    between atoms: C_21  and  N_40
REMARK    7  A    between atoms: C_45  and  N_46
REMARK                            x       y       z     vdW  Elec       q    Type
REMARK                         _______ _______ _______ _____ _____    ______ ____
ROOT
ATOM      1  C   UNL     1      39.403  28.774  43.165  0.00  0.00    +0.000 A 
ATOM      2  C   UNL     1      40.325  29.766  42.880  0.00  0.00    +0.000 A 
ATOM      3  C   UNL     1      41.131  29.667  41.740  0.00  0.00    +0.000 A 
ATOM      4  C   UNL     1      41.014  28.582  40.894  0.00  0.00    +0.000 A 
ATOM      5  N   UNL     1      41.666  28.270  39.758  0.00  0.00    +0.000 N 
ATOM      6  C   UNL     1      41.160  27.102  39.339  0.00  0.00    +0.000 A 
ATOM      7  C   UNL     1      40.184  26.629  40.174  0.00  0.00    +0.000 A 
ATOM      8  C   UNL     1      40.098  27.589  41.171  0.00  0.00    +0.000 A 
ATOM      9  C   UNL     1      39.309  27.697  42.297  0.00  0.00    +0.000 A 
ATOM     10  H   UNL     1      38.731  28.748  44.010  0.00  0.00    +0.000 HD
ATOM     11  H   UNL     1      41.841  30.469  41.556  0.00  0.00    +0.000 HD
ATOM     12  H   UNL     1      42.415  28.859  39.325  0.00  0.00    +0.000 HD
ATOM     13  H   UNL     1      41.521  26.631  38.435  0.00  0.00    +0.000 HD
ATOM     14  H   UNL     1      39.609  25.719  40.083  0.00  0.00    +0.000 HD
ENDROOT
BRANCH   9  15
ATOM     15  N   UNL     1      38.378  26.644  42.538  0.00  0.00    +0.000 N 
ATOM     16  C   UNL     1      37.160  26.712  41.936  0.00  0.00    +0.000 A 
ATOM     17  H   UNL     1      36.733  27.462  41.266  0.00  0.00    +0.000 HD
ATOM     18  N   UNL     1      36.466  25.608  42.318  0.00  0.00    +0.000 NA
ATOM     19  C   UNL     1      37.244  24.874  43.140  0.00  0.00    +0.000 A 
ATOM     20  C   UNL     1      37.143  23.686  43.847  0.00  0.00    +0.000 A 
ATOM     21  N   UNL     1      38.163  23.251  44.590  0.00  0.00    +0.000 NA
ATOM     22  C   UNL     1      39.322  23.917  44.699  0.00  0.00    +0.000 A 
ATOM     23  H   UNL     1      40.072  23.471  45.327  0.00  0.00    +0.000 HD
ATOM     24  N   UNL     1      39.468  25.085  44.026  0.00  0.00    +0.000 NA
ATOM     25  C   UNL     1      38.459  25.534  43.279  0.00  0.00    +0.000 A 
BRANCH  20  26
ATOM     26  N   UNL     1      35.916  22.968  43.740  0.00  0.00    +0.000 N 
ATOM     27  H   UNL     1      35.522  22.518  44.614  0.00  0.00    +0.000 HD
ATOM     28  H   UNL     1      35.327  22.812  42.901  0.00  0.00    +0.000 HD
ENDBRANCH  20  26
ENDBRANCH   9  15
BRANCH   2  29
ATOM     29  C   UNL     1      40.431  30.933  43.811  0.00  0.00    +0.000 C 
ATOM     30  H   UNL     1      39.931  31.782  43.276  0.00  0.00    +0.000 HD
ATOM     31  H   UNL     1      41.493  31.179  44.025  0.00  0.00    +0.000 HD
BRANCH  29  32
ATOM     32  C   UNL     1      39.659  30.587  45.064  0.00  0.00    +0.000 C 
ATOM     33  H   UNL     1      39.981  29.557  45.369  0.00  0.00    +0.000 HD
ATOM     34  H   UNL     1      38.579  30.625  44.775  0.00  0.00    +0.000 HD
BRANCH  32  37
ATOM     35  C   UNL     1      38.768  32.120  46.861  0.00  0.00    +0.000 C 
ATOM     36  C   UNL     1      39.809  32.950  46.146  0.00  0.00    +0.000 C 
ATOM     37  C   UNL     1      39.931  31.481  46.218  0.00  0.00    +0.000 C 
ATOM     38  H   UNL     1      37.759  32.009  46.391  0.00  0.00    +0.000 HD
ATOM     39  H   UNL     1      39.564  33.351  45.134  0.00  0.00    +0.000 HD
ATOM     40  H   UNL     1      40.494  33.598  46.697  0.00  0.00    +0.000 HD
ATOM     41  H   UNL     1      40.717  31.141  46.957  0.00  0.00    +0.000 HD
BRANCH  35  42
ATOM     42  C   UNL     1      38.699  32.327  48.339  0.00  0.00    +0.000 C 
ATOM     43  H   UNL     1      38.220  33.325  48.516  0.00  0.00    +0.000 HD
ATOM     44  H   UNL     1      39.713  32.373  48.785  0.00  0.00    +0.000 HD
BRANCH  42  47
ATOM     45  C   UNL     1      37.429  30.029  51.016  0.00  0.00    +0.000 A 
ATOM     46  C   UNL     1      38.138  31.065  50.345  0.00  0.00    +0.000 A 
ATOM     47  C   UNL     1      37.942  31.238  49.004  0.00  0.00    +0.000 A 
ATOM     48  N   UNL     1      37.086  30.418  48.385  0.00  0.00    +0.000 NA
ATOM     49  C   UNL     1      36.418  29.445  49.010  0.00  0.00    +0.000 A 
ATOM     50  N   UNL     1      36.602  29.265  50.325  0.00  0.00    +0.000 NA
ATOM     51  H   UNL     1      37.629  29.941  52.092  0.00  0.00    +0.000 HD
ATOM     52  H   UNL     1      38.822  31.705  50.889  0.00  0.00    +0.000 HD
ATOM     53  H   UNL     1      35.727  28.783  48.508  0.00  0.00    +0.000 HD
ENDBRANCH  42  47
ENDBRANCH  35  42
ENDBRANCH  32  37
ENDBRANCH  29  32
ENDBRANCH   2  29
TORSDOF 7
