REMARK  Name = 
REMARK  8 active torsions:
REMARK  status: ('A' for Active; 'I' for Inactive)
REMARK    1  A    between atoms: C_1  and  C_7
REMARK    2  A    between atoms: C_6  and  C_15
REMARK    3  A    between atoms: C_7  and  O_8
REMARK    4  A    between atoms: C_7  and  C_13
REMARK    5  A    between atoms: C_16  and  C_17
REMARK    6  A    between atoms: C_17  and  S_18
REMARK    7  A    between atoms: S_18  and  C_34
REMARK    8  A    between atoms: C_37  and  N_38
REMARK                            x       y       z     vdW  Elec       q    Type
REMARK                         _______ _______ _______ _____ _____    ______ ____
ROOT
ATOM      1  C   UNL     1      37.080  30.948  49.029  0.00  0.00    +0.000 A 
ATOM      2  C   UNL     1      36.811  31.879  50.035  0.00  0.00    +0.000 A 
ATOM      3  C   UNL     1      37.424  33.123  50.063  0.00  0.00    +0.000 A 
ATOM      4  C   UNL     1      38.337  33.460  49.060  0.00  0.00    +0.000 A 
ATOM      5  C   UNL     1      38.590  32.541  48.085  0.00  0.00    +0.000 A 
ATOM      6  C   UNL     1      37.959  31.306  48.087  0.00  0.00    +0.000 A 
ATOM      7  H   UNL     1      36.092  31.587  50.804  0.00  0.00    +0.000 HD
ATOM      8  H   UNL     1      37.133  33.749  50.888  0.00  0.00    +0.000 HD
ATOM      9  H   UNL     1      38.768  34.445  49.156  0.00  0.00    +0.000 HD
ATOM     10  H   UNL     1      39.321  32.945  47.379  0.00  0.00    +0.000 HD
ENDROOT
BRANCH   1  11
ATOM     11  C   UNL     1      36.467  29.638  49.016  0.00  0.00    +0.000 C 
ATOM     12  H   UNL     1      37.007  29.055  48.174  0.00  0.00    +0.000 HD
BRANCH  11  17
ATOM     13  C   UNL     1      33.613  30.149  46.826  0.00  0.00    +0.000 A 
ATOM     14  C   UNL     1      32.954  28.934  46.844  0.00  0.00    +0.000 A 
ATOM     15  C   UNL     1      33.450  27.938  47.664  0.00  0.00    +0.000 A 
ATOM     16  N   UNL     1      34.572  28.185  48.426  0.00  0.00    +0.000 NA
ATOM     17  C   UNL     1      35.156  29.364  48.362  0.00  0.00    +0.000 A 
ATOM     18  N   UNL     1      34.684  30.352  47.567  0.00  0.00    +0.000 NA
ATOM     19  H   UNL     1      33.228  30.933  46.185  0.00  0.00    +0.000 HD
ATOM     20  H   UNL     1      32.072  28.699  46.262  0.00  0.00    +0.000 HD
ATOM     21  H   UNL     1      32.999  26.962  47.742  0.00  0.00    +0.000 HD
ENDBRANCH  11  17
BRANCH  11  22
ATOM     22  O   UNL     1      36.861  28.900  49.993  0.00  0.00    +0.000 OA
ATOM     23  H   UNL     1      36.643  29.143  50.935  0.00  0.00    +0.000 HD
ENDBRANCH  11  22
ENDBRANCH   1  11
BRANCH   6  24
ATOM     24  C   UNL     1      38.343  30.420  47.013  0.00  0.00    +0.000 C 
ATOM     25  C   UNL     1      38.824  30.837  45.837  0.00  0.00    +0.000 C 
BRANCH  25  26
ATOM     26  C   UNL     1      39.287  30.023  44.689  0.00  0.00    +0.000 C 
ATOM     27  H   UNL     1      38.605  29.151  44.610  0.00  0.00    +0.000 HD
ATOM     28  H   UNL     1      40.304  29.613  44.857  0.00  0.00    +0.000 HD
BRANCH  26  29
ATOM     29  S   UNL     1      39.182  30.988  43.178  0.00  0.00    +0.000 S 
BRANCH  29  32
ATOM     30  H   UNL     1      40.764  28.395  42.434  0.00  0.00    +0.000 HD
ATOM     31  N   UNL     1      40.415  28.951  41.625  0.00  0.00    +0.000 N 
ATOM     32  C   UNL     1      39.716  30.094  41.753  0.00  0.00    +0.000 A 
ATOM     33  N   UNL     1      39.401  30.587  40.541  0.00  0.00    +0.000 NA
ATOM     34  C   UNL     1      39.900  29.759  39.586  0.00  0.00    +0.000 A 
ATOM     35  C   UNL     1      39.882  29.764  38.205  0.00  0.00    +0.000 A 
ATOM     36  N   UNL     1      40.498  28.749  37.534  0.00  0.00    +0.000 NA
ATOM     37  C   UNL     1      41.111  27.761  38.241  0.00  0.00    +0.000 A 
ATOM     38  H   UNL     1      41.589  26.973  37.661  0.00  0.00    +0.000 HD
ATOM     39  N   UNL     1      41.121  27.767  39.605  0.00  0.00    +0.000 NA
ATOM     40  C   UNL     1      40.522  28.756  40.298  0.00  0.00    +0.000 A 
BRANCH  35  41
ATOM     41  N   UNL     1      39.213  30.845  37.558  0.00  0.00    +0.000 N 
ATOM     42  H   UNL     1      38.300  31.236  37.858  0.00  0.00    +0.000 HD
ATOM     43  H   UNL     1      39.752  31.204  36.736  0.00  0.00    +0.000 HD
ENDBRANCH  35  41
ENDBRANCH  29  32
ENDBRANCH  26  29
ENDBRANCH  25  26
ENDBRANCH   6  24
TORSDOF 8
