REMARK  Name = 
REMARK  6 active torsions:
REMARK  status: ('A' for Active; 'I' for Inactive)
REMARK    1  A    between atoms: C_1  and  O_14
REMARK    2  A    between atoms: C_2  and  C_8
REMARK    3  A    between atoms: C_6  and  O_15
REMARK    4  A    between atoms: C_9  and  C_13
REMARK    5  A    between atoms: O_15  and  C_27
REMARK    6  A    between atoms: C_30  and  N_31
REMARK                            x       y       z     vdW  Elec       q    Type
REMARK                         _______ _______ _______ _____ _____    ______ ____
ROOT
ATOM      1  C   UNL     1      38.001  31.399  47.638  0.00  0.00    +0.000 A 
ATOM      2  C   UNL     1      37.080  31.328  48.677  0.00  0.00    +0.000 A 
ATOM      3  C   UNL     1      37.198  32.351  49.618  0.00  0.00    +0.000 A 
ATOM      4  C   UNL     1      38.169  33.344  49.497  0.00  0.00    +0.000 A 
ATOM      5  C   UNL     1      39.051  33.328  48.413  0.00  0.00    +0.000 A 
ATOM      6  C   UNL     1      38.958  32.330  47.467  0.00  0.00    +0.000 A 
ATOM      7  H   UNL     1      36.526  32.382  50.464  0.00  0.00    +0.000 HD
ATOM      8  H   UNL     1      38.227  34.125  50.255  0.00  0.00    +0.000 HD
ATOM      9  H   UNL     1      39.793  34.102  48.337  0.00  0.00    +0.000 HD
ENDROOT
BRANCH   2  11
ATOM     10  C   UNL     1      34.940  30.352  47.986  0.00  0.00    +0.000 A 
ATOM     11  C   UNL     1      36.086  30.310  48.800  0.00  0.00    +0.000 A 
ATOM     12  C   UNL     1      36.199  29.257  49.705  0.00  0.00    +0.000 A 
ATOM     13  N   UNL     1      35.197  28.333  49.749  0.00  0.00    +0.000 NA
ATOM     14  C   UNL     1      34.101  28.407  48.944  0.00  0.00    +0.000 A 
ATOM     15  N   UNL     1      33.979  29.415  48.069  0.00  0.00    +0.000 NA
ATOM     16  H   UNL     1      34.822  31.162  47.270  0.00  0.00    +0.000 HD
ATOM     17  H   UNL     1      33.313  27.671  48.986  0.00  0.00    +0.000 HD
BRANCH  12  18
ATOM     18  C   UNL     1      37.373  29.156  50.584  0.00  0.00    +0.000 C 
ATOM     19  H   UNL     1      36.987  28.954  51.621  0.00  0.00    +0.000 HD
ATOM     20  H   UNL     1      37.996  28.298  50.273  0.00  0.00    +0.000 HD
ATOM     21  H   UNL     1      37.927  30.110  50.553  0.00  0.00    +0.000 HD
ENDBRANCH  12  18
ENDBRANCH   2  11
BRANCH   1  22
ATOM     22  O   UNL     1      37.943  30.392  46.639  0.00  0.00    +0.000 OA
ATOM     23  H   UNL     1      38.717  29.735  46.657  0.00  0.00    +0.000 HD
ENDBRANCH   1  22
BRANCH   6  24
ATOM     24  O   UNL     1      39.841  32.342  46.411  0.00  0.00    +0.000 OA
BRANCH  24  27
ATOM     25  H   UNL     1      40.606  33.807  44.092  0.00  0.00    +0.000 HD
ATOM     26  N   UNL     1      39.831  33.143  44.036  0.00  0.00    +0.000 N 
ATOM     27  C   UNL     1      39.434  32.429  45.105  0.00  0.00    +0.000 A 
ATOM     28  N   UNL     1      38.400  31.669  44.668  0.00  0.00    +0.000 NA
ATOM     29  C   UNL     1      38.175  31.915  43.367  0.00  0.00    +0.000 A 
ATOM     30  C   UNL     1      37.304  31.492  42.365  0.00  0.00    +0.000 A 
ATOM     31  N   UNL     1      37.379  31.985  41.115  0.00  0.00    +0.000 NA
ATOM     32  C   UNL     1      38.312  32.917  40.786  0.00  0.00    +0.000 A 
ATOM     33  H   UNL     1      38.420  33.348  39.803  0.00  0.00    +0.000 HD
ATOM     34  N   UNL     1      39.193  33.379  41.704  0.00  0.00    +0.000 NA
ATOM     35  C   UNL     1      39.091  32.864  42.947  0.00  0.00    +0.000 A 
BRANCH  30  36
ATOM     36  N   UNL     1      36.334  30.514  42.730  0.00  0.00    +0.000 N 
ATOM     37  H   UNL     1      35.477  30.619  43.324  0.00  0.00    +0.000 HD
ATOM     38  H   UNL     1      36.627  29.613  42.284  0.00  0.00    +0.000 HD
ENDBRANCH  30  36
ENDBRANCH  24  27
ENDBRANCH   6  24
TORSDOF 6
