
 OpenBabel03272507163D

 31 34  0  0  1  0  0  0  0  0999 V2000
   36.5870   30.6580   50.4810 C   0  0  1  0  0  0  0  0  0  0  0  0
   35.7930   29.4520   50.4070 C   0  0  2  0  0  0  0  0  0  0  0  0
   37.1290   29.3700   51.1140 C   0  0  0  0  0  0  0  0  0  0  0  0
   36.4040   31.4670   51.2290 H   0  0  0  0  0  0  0  0  0  0  0  0
   34.8580   29.4150   50.9910 H   0  0  0  0  0  0  0  0  0  0  0  0
   37.0220   29.2790   52.2050 H   0  0  0  0  0  0  0  0  0  0  0  0
   37.9430   28.8380   50.6190 H   0  0  0  0  0  0  0  0  0  0  0  0
   37.4280   31.1160   49.3170 C   0  0  0  0  0  0  0  0  0  0  0  0
   38.0130   32.3760   49.4430 C   0  0  0  0  0  0  0  0  0  0  0  0
   38.7710   32.7970   48.3420 C   0  0  0  0  0  0  0  0  0  0  0  0
   38.8950   31.9900   47.2440 N   0  0  0  0  0  0  0  0  0  0  0  0
   38.3080   30.7720   47.1700 C   0  0  0  0  0  0  0  0  0  0  0  0
   37.5600   30.3230   48.2220 N   0  0  0  0  0  0  0  0  0  0  0  0
   37.8740   32.9640   50.3400 H   0  0  0  0  0  0  0  0  0  0  0  0
   39.2470   33.7650   48.3840 H   0  0  0  0  0  0  0  0  0  0  0  0
   38.4090   30.1370   46.3010 H   0  0  0  0  0  0  0  0  0  0  0  0
   35.7300   28.7510   49.1910 O   0  0  0  0  0  0  0  0  0  0  0  0
   34.8840   26.8900   47.2090 H   0  0  0  0  0  0  0  0  0  0  0  0
   34.1770   27.3090   47.8510 N   0  0  0  0  0  0  0  0  0  0  0  0
   34.5180   28.1920   48.8060 C   0  0  0  0  0  0  0  0  0  0  0  0
   33.3600   28.4990   49.4180 N   0  0  0  0  0  0  0  0  0  0  0  0
   32.3230   27.8430   48.8810 C   0  0  0  0  0  0  0  0  0  0  0  0
   30.9600   27.7340   49.0530 C   0  0  0  0  0  0  0  0  0  0  0  0
   30.1980   26.9380   48.2940 N   0  0  0  0  0  0  0  0  0  0  0  0
   30.7450   26.1930   47.3060 C   0  0  0  0  0  0  0  0  0  0  0  0
   30.0640   25.5810   46.7430 H   0  0  0  0  0  0  0  0  0  0  0  0
   32.0750   26.2780   47.1130 N   0  0  0  0  0  0  0  0  0  0  0  0
   32.8670   27.0650   47.8550 C   0  0  0  0  0  0  0  0  0  0  0  0
   30.3730   28.5000   50.0740 N   0  0  0  0  0  0  0  0  0  0  0  0
   30.4040   28.2940   51.1100 H   0  0  0  0  0  0  0  0  0  0  0  0
   29.8130   29.3470   50.2960 H   0  0  0  0  0  0  0  0  0  0  0  0
  1  3  1  0  0  0  0
  1  4  1  1  0  0  0
  2  1  1  0  0  0  0
  2  5  1  1  0  0  0
  2  3  1  0  0  0  0
  3  6  1  0  0  0  0
  7  3  1  0  0  0  0
  8  9  1  0  0  0  0
  8  1  1  0  0  0  0
  9 14  1  0  0  0  0
 10 15  1  0  0  0  0
 10  9  2  0  0  0  0
 11 10  1  0  0  0  0
 12 11  2  0  0  0  0
 12 13  1  0  0  0  0
 13  8  2  0  0  0  0
 16 12  1  0  0  0  0
 17  2  1  0  0  0  0
 18 19  1  0  0  0  0
 19 28  1  0  0  0  0
 19 20  1  0  0  0  0
 20 17  1  0  0  0  0
 20 21  2  0  0  0  0
 22 23  1  0  0  0  0
 22 21  1  0  0  0  0
 23 29  1  0  0  0  0
 24 23  2  0  0  0  0
 25 24  1  0  0  0  0
 26 25  1  0  0  0  0
 27 25  2  0  0  0  0
 27 28  1  0  0  0  0
 28 22  2  0  0  0  0
 29 31  1  0  0  0  0
 29 30  1  0  0  0  0
M  END
>  <minimizedAffinity>
-6.1982398

>  <minimizedRMSD>
1.48277402

$$$$
