
     RDKit          3D

 24 26  0  0  0  0  0  0  0  0999 V2000
   37.2655   30.1792   51.4194 C   0  0  0  0  0  0  0  0  0  0  0  0
   38.1129   30.7558   50.4711 C   0  0  0  0  0  0  0  0  0  0  0  0
   37.8448   30.5477   49.1083 C   0  0  0  0  0  0  0  0  0  0  0  0
   36.7599   29.7859   48.7885 N   0  0  0  0  0  0  0  0  0  0  0  0
   35.9657   29.2462   49.7190 C   0  0  0  0  0  0  0  0  0  0  0  0
   36.2069   29.4348   51.0386 N   0  0  0  0  0  0  0  0  0  0  0  0
   34.5463   28.2494   49.2892 S   0  0  0  0  0  0  0  0  0  0  0  0
   37.4683   30.3369   52.4680 H   0  0  0  0  0  0  0  0  0  0  0  0
   38.9818   31.3665   50.7653 H   0  0  0  0  0  0  0  0  0  0  0  0
   38.4712   30.9727   48.3295 H   0  0  0  0  0  0  0  0  0  0  0  0
   34.1358   25.7512   47.4537 H   0  0  0  0  0  0  0  0  0  0  0  0
   34.7281   25.5324   48.2627 N   0  0  0  0  0  0  0  0  0  0  0  0
   34.9925   26.5176   49.1448 C   0  0  0  0  0  0  0  0  0  0  0  0
   35.7682   26.0256   50.1055 N   0  0  0  0  0  0  0  0  0  0  0  0
   36.0014   24.7229   49.8388 C   0  0  0  0  0  0  0  0  0  0  0  0
   36.7055   23.7090   50.4381 C   0  0  0  0  0  0  0  0  0  0  0  0
   37.3861   24.0449   51.6503 N   0  0  0  0  0  0  0  0  0  0  0  0
   38.0928   24.8146   51.4774 H   0  0  0  0  0  0  0  0  0  0  0  0
   36.7229   22.4910   49.8788 N   0  0  0  0  0  0  0  0  0  0  0  0
   36.0766   22.2063   48.7442 C   0  0  0  0  0  0  0  0  0  0  0  0
   36.1530   21.1941   48.3751 H   0  0  0  0  0  0  0  0  0  0  0  0
   35.3651   23.1857   48.1171 N   0  0  0  0  0  0  0  0  0  0  0  0
   35.3415   24.4109   48.6700 C   0  0  0  0  0  0  0  0  0  0  0  0
   37.3718   23.7376   52.6463 H   0  0  0  0  0  0  0  0  0  0  0  0
  2  1  2  0
  3  2  1  0
  4  3  2  0
  4  5  1  0
  5  6  2  0
  6  1  1  0
  7  5  1  0
  1  8  1  0
  2  9  1  0
  3 10  1  0
 11 12  1  0
 12 13  1  0
 13 14  2  0
 14 15  1  0
 15 16  2  0
 16 17  1  0
 17 18  1  0
 16 19  1  0
 19 20  2  0
 20 21  1  0
 20 22  1  0
 22 23  2  0
 23 12  1  0
 23 15  1  0
 17 24  1  0
  7 13  1  0
M  ISO  6   8  14   9  14  10  14  11   9  18   5  21  16
M  END
>  <DihAtoms>  (1) 
4,6,12,11

>  <DihDeg>  (1) 
-0.001295915944830496

$$$$
