
 OpenBabel03272509443D

 43 46  0  0  1  0  0  0  0  0999 V2000
   36.5560   25.1750   31.1450 C   0  0  0  0  0  0  0  0  0  0  0  0
   35.3430   24.4840   31.1540 C   0  0  0  0  0  0  0  0  0  0  0  0
   35.2910   23.0980   31.1670 C   0  0  0  0  0  0  0  0  0  0  0  0
   36.4830   22.3670   31.1720 C   0  0  0  0  0  0  0  0  0  0  0  0
   37.6590   23.0560   31.1630 C   0  0  0  0  0  0  0  0  0  0  0  0
   37.6750   24.4430   31.1500 C   0  0  0  0  0  0  0  0  0  0  0  0
   34.4290   25.0820   31.1510 H   0  0  0  0  0  0  0  0  0  0  0  0
   34.2980   22.6850   31.1720 H   0  0  0  0  0  0  0  0  0  0  0  0
   36.3540   21.2960   31.1820 H   0  0  0  0  0  0  0  0  0  0  0  0
   38.4970   22.3530   31.1660 H   0  0  0  0  0  0  0  0  0  0  0  0
   36.6130   26.6200   31.0990 C   0  0  2  0  0  0  0  0  0  0  0  0
   37.7360   26.8800   30.9910 H   0  0  0  0  0  0  0  0  0  0  0  0
   35.5520   29.3520   33.2460 C   0  0  0  0  0  0  0  0  0  0  0  0
   36.0120   28.9930   34.4990 C   0  0  0  0  0  0  0  0  0  0  0  0
   36.7530   27.8310   34.6100 C   0  0  0  0  0  0  0  0  0  0  0  0
   37.0030   27.0780   33.4840 N   0  0  0  0  0  0  0  0  0  0  0  0
   36.5340   27.4730   32.3180 C   0  0  0  0  0  0  0  0  0  0  0  0
   35.8090   28.6090   32.1890 N   0  0  0  0  0  0  0  0  0  0  0  0
   34.9710   30.2620   33.1530 H   0  0  0  0  0  0  0  0  0  0  0  0
   35.8380   29.5550   35.4080 H   0  0  0  0  0  0  0  0  0  0  0  0
   37.1520   27.4770   35.5470 H   0  0  0  0  0  0  0  0  0  0  0  0
   36.2350   27.0910   29.9630 O   0  0  0  0  0  0  0  0  0  0  0  0
   35.2940   26.9810   29.6530 H   0  0  0  0  0  0  0  0  0  0  0  0
   38.9890   25.0410   31.1120 C   0  0  0  0  0  3  0  0  0  0  0  0
   40.1050   24.4170   31.5040 C   0  0  0  0  0  3  0  0  0  0  0  0
   41.5000   24.9130   31.4690 C   0  0  0  0  0  0  0  0  0  0  0  0
   41.4900   25.8780   30.9210 H   0  0  0  0  0  0  0  0  0  0  0  0
   42.1660   24.2340   30.8970 H   0  0  0  0  0  0  0  0  0  0  0  0
   42.0890   25.1940   33.1420 S   0  0  0  0  0  0  0  0  0  0  0  0
   39.4480   26.4460   34.2560 H   0  0  0  0  0  0  0  0  0  0  0  0
   39.7480   25.5580   34.7130 N   0  0  0  0  0  0  0  0  0  0  0  0
   40.8560   24.8790   34.3660 C   0  0  0  0  0  0  0  0  0  0  0  0
   40.9860   23.7760   35.1260 N   0  0  0  0  0  0  0  0  0  0  0  0
   39.9440   23.7180   35.9960 C   0  0  0  0  0  0  0  0  0  0  0  0
   39.5690   22.8310   36.9880 C   0  0  0  0  0  0  0  0  0  0  0  0
   38.4300   23.0790   37.6970 N   0  0  0  0  0  0  0  0  0  0  0  0
   37.6970   24.1890   37.4100 C   0  0  0  0  0  0  0  0  0  0  0  0
   36.7970   24.3430   38.0030 H   0  0  0  0  0  0  0  0  0  0  0  0
   38.0790   25.0570   36.4290 N   0  0  0  0  0  0  0  0  0  0  0  0
   39.1990   24.8400   35.7100 C   0  0  0  0  0  0  0  0  0  0  0  0
   40.4060   21.6980   37.2110 N   0  0  0  0  0  0  0  0  0  0  0  0
   40.8330   21.1240   36.4590 H   0  0  0  0  0  0  0  0  0  0  0  0
   40.5440   21.5070   38.2300 H   0  0  0  0  0  0  0  0  0  0  0  0
  1  6  2  0  0  0  0
  1  2  1  0  0  0  0
  2  3  2  0  0  0  0
  3  4  1  0  0  0  0
  3  8  1  0  0  0  0
  4  9  1  0  0  0  0
  5 10  1  0  0  0  0
  5  4  2  0  0  0  0
  6  5  1  0  0  0  0
  7  2  1  0  0  0  0
 11 12  1  6  0  0  0
 11  1  1  0  0  0  0
 11 17  1  0  0  0  0
 13 14  1  0  0  0  0
 14 15  2  0  0  0  0
 14 20  1  0  0  0  0
 15 21  1  0  0  0  0
 16 15  1  0  0  0  0
 17 16  2  0  0  0  0
 18 17  1  0  0  0  0
 18 13  2  0  0  0  0
 19 13  1  0  0  0  0
 22 11  1  0  0  0  0
 23 22  1  0  0  0  0
 24  6  1  0  0  0  0
 24 25  2  0  0  0  0
 26 25  1  0  0  0  0
 26 29  1  0  0  0  0
 27 26  1  0  0  0  0
 28 26  1  0  0  0  0
 29 32  1  0  0  0  0
 30 31  1  0  0  0  0
 31 40  1  0  0  0  0
 32 31  1  0  0  0  0
 32 33  2  0  0  0  0
 33 34  1  0  0  0  0
 34 35  1  0  0  0  0
 35 41  1  0  0  0  0
 35 36  2  0  0  0  0
 37 36  1  0  0  0  0
 37 38  1  0  0  0  0
 39 37  2  0  0  0  0
 40 34  2  0  0  0  0
 40 39  1  0  0  0  0
 41 43  1  0  0  0  0
 42 41  1  0  0  0  0
M  END
>  <minimizedAffinity>
-6.01072931

$$$$

 OpenBabel03272509443D

 43 46  0  0  1  0  0  0  0  0999 V2000
   37.7340   27.7550   31.3320 C   0  0  0  0  0  0  0  0  0  0  0  0
   36.9180   28.7060   30.7150 C   0  0  0  0  0  0  0  0  0  0  0  0
   37.3880   29.5210   29.6950 C   0  0  0  0  0  0  0  0  0  0  0  0
   38.7130   29.3920   29.2700 C   0  0  0  0  0  0  0  0  0  0  0  0
   39.4970   28.4600   29.8830 C   0  0  0  0  0  0  0  0  0  0  0  0
   38.9950   27.6610   30.8990 C   0  0  0  0  0  0  0  0  0  0  0  0
   35.8870   28.7820   31.0680 H   0  0  0  0  0  0  0  0  0  0  0  0
   36.6630   30.2110   29.3010 H   0  0  0  0  0  0  0  0  0  0  0  0
   38.9970   30.0630   28.4740 H   0  0  0  0  0  0  0  0  0  0  0  0
   40.5000   28.4790   29.4470 H   0  0  0  0  0  0  0  0  0  0  0  0
   37.2550   26.9270   32.4180 C   0  0  2  0  0  0  0  0  0  0  0  0
   38.2060   26.4730   32.8990 H   0  0  0  0  0  0  0  0  0  0  0  0
   35.1280   24.3080   31.0690 C   0  0  0  0  0  0  0  0  0  0  0  0
   35.7490   23.1370   31.4600 C   0  0  0  0  0  0  0  0  0  0  0  0
   36.8790   23.2330   32.2500 C   0  0  0  0  0  0  0  0  0  0  0  0
   37.3440   24.4770   32.6170 N   0  0  0  0  0  0  0  0  0  0  0  0
   36.7080   25.5560   32.2100 C   0  0  0  0  0  0  0  0  0  0  0  0
   35.6000   25.4830   31.4380 N   0  0  0  0  0  0  0  0  0  0  0  0
   34.2420   24.2380   30.4500 H   0  0  0  0  0  0  0  0  0  0  0  0
   35.4180   22.1410   31.1930 H   0  0  0  0  0  0  0  0  0  0  0  0
   37.4250   22.3720   32.6020 H   0  0  0  0  0  0  0  0  0  0  0  0
   36.8810   27.6180   33.4360 O   0  0  0  0  0  0  0  0  0  0  0  0
   36.0960   28.2300   33.3760 H   0  0  0  0  0  0  0  0  0  0  0  0
   39.9440   26.7390   31.4790 C   0  0  0  0  0  3  0  0  0  0  0  0
   41.0450   27.1160   32.1370 C   0  0  0  0  0  3  0  0  0  0  0  0
   42.0570   26.2640   32.8050 C   0  0  0  0  0  0  0  0  0  0  0  0
   42.2530   26.7110   33.8020 H   0  0  0  0  0  0  0  0  0  0  0  0
   43.0240   26.2700   32.2620 H   0  0  0  0  0  0  0  0  0  0  0  0
   41.4060   24.6050   33.0230 S   0  0  0  0  0  0  0  0  0  0  0  0
   38.8840   25.8930   34.3480 H   0  0  0  0  0  0  0  0  0  0  0  0
   39.3200   25.1130   34.8850 N   0  0  0  0  0  0  0  0  0  0  0  0
   40.4100   24.4420   34.4710 C   0  0  0  0  0  0  0  0  0  0  0  0
   40.7430   23.4930   35.3650 N   0  0  0  0  0  0  0  0  0  0  0  0
   39.8580   23.5320   36.3960 C   0  0  0  0  0  0  0  0  0  0  0  0
   39.7140   22.8100   37.5660 C   0  0  0  0  0  0  0  0  0  0  0  0
   38.6840   23.1180   38.4070 N   0  0  0  0  0  0  0  0  0  0  0  0
   37.8310   24.1240   38.0720 C   0  0  0  0  0  0  0  0  0  0  0  0
   37.0260   24.3310   38.7750 H   0  0  0  0  0  0  0  0  0  0  0  0
   37.9850   24.8290   36.9150 N   0  0  0  0  0  0  0  0  0  0  0  0
   38.9920   24.5500   36.0620 C   0  0  0  0  0  0  0  0  0  0  0  0
   40.6610   21.7770   37.8250 N   0  0  0  0  0  0  0  0  0  0  0  0
   41.0080   21.1050   37.1140 H   0  0  0  0  0  0  0  0  0  0  0  0
   40.9710   21.7700   38.8230 H   0  0  0  0  0  0  0  0  0  0  0  0
  1 11  1  0  0  0  0
  2  7  1  0  0  0  0
  2  1  2  0  0  0  0
  3  2  1  0  0  0  0
  4  3  2  0  0  0  0
  4  5  1  0  0  0  0
  5  6  2  0  0  0  0
  6  1  1  0  0  0  0
  6 24  1  0  0  0  0
  8  3  1  0  0  0  0
  9  4  1  0  0  0  0
 10  5  1  0  0  0  0
 11 12  1  1  0  0  0
 11 22  1  0  0  0  0
 13 18  2  0  0  0  0
 13 14  1  0  0  0  0
 14 15  2  0  0  0  0
 15 21  1  0  0  0  0
 15 16  1  0  0  0  0
 17 11  1  0  0  0  0
 17 16  2  0  0  0  0
 18 17  1  0  0  0  0
 19 13  1  0  0  0  0
 20 14  1  0  0  0  0
 23 22  1  0  0  0  0
 24 25  2  0  0  0  0
 25 26  1  0  0  0  0
 26 29  1  0  0  0  0
 26 27  1  0  0  0  0
 28 26  1  0  0  0  0
 29 32  1  0  0  0  0
 30 31  1  0  0  0  0
 31 40  1  0  0  0  0
 32 31  1  0  0  0  0
 32 33  2  0  0  0  0
 33 34  1  0  0  0  0
 34 35  1  0  0  0  0
 35 41  1  0  0  0  0
 35 36  2  0  0  0  0
 37 36  1  0  0  0  0
 37 38  1  0  0  0  0
 39 37  2  0  0  0  0
 40 34  2  0  0  0  0
 40 39  1  0  0  0  0
 41 43  1  0  0  0  0
 42 41  1  0  0  0  0
M  END
>  <minimizedAffinity>
-5.9841342

$$$$

 OpenBabel03272509443D

 43 46  0  0  1  0  0  0  0  0999 V2000
   40.4400   25.2500   34.3290 C   0  0  0  0  0  0  0  0  0  0  0  0
   41.7840   24.8710   34.3060 C   0  0  0  0  0  0  0  0  0  0  0  0
   42.7910   25.7640   33.9700 C   0  0  0  0  0  0  0  0  0  0  0  0
   42.4570   27.0820   33.6450 C   0  0  0  0  0  0  0  0  0  0  0  0
   41.1410   27.4380   33.6720 C   0  0  0  0  0  0  0  0  0  0  0  0
   40.1600   26.5190   34.0130 C   0  0  0  0  0  0  0  0  0  0  0  0
   42.0140   23.8340   34.5660 H   0  0  0  0  0  0  0  0  0  0  0  0
   43.7830   25.3510   33.9890 H   0  0  0  0  0  0  0  0  0  0  0  0
   43.2980   27.7110   33.3970 H   0  0  0  0  0  0  0  0  0  0  0  0
   41.0380   28.4910   33.3950 H   0  0  0  0  0  0  0  0  0  0  0  0
   39.3860   24.3110   34.6470 C   0  0  2  0  0  0  0  0  0  0  0  0
   38.4020   24.9160   34.5640 H   0  0  0  0  0  0  0  0  0  0  0  0
   39.7360   22.7740   37.9200 C   0  0  0  0  0  0  0  0  0  0  0  0
   38.7420   23.3650   38.6770 C   0  0  0  0  0  0  0  0  0  0  0  0
   37.8940   24.2580   38.0510 C   0  0  0  0  0  0  0  0  0  0  0  0
   38.0650   24.5280   36.7100 N   0  0  0  0  0  0  0  0  0  0  0  0
   39.0330   23.9330   36.0450 C   0  0  0  0  0  0  0  0  0  0  0  0
   39.8730   23.0540   36.6400 N   0  0  0  0  0  0  0  0  0  0  0  0
   40.4040   22.0720   38.4070 H   0  0  0  0  0  0  0  0  0  0  0  0
   38.5740   23.1820   39.7310 H   0  0  0  0  0  0  0  0  0  0  0  0
   37.0910   24.7640   38.5630 H   0  0  0  0  0  0  0  0  0  0  0  0
   39.1480   23.4930   33.6830 O   0  0  0  0  0  0  0  0  0  0  0  0
   39.8370   22.8330   33.3940 H   0  0  0  0  0  0  0  0  0  0  0  0
   38.8070   27.0230   33.9710 C   0  0  0  0  0  3  0  0  0  0  0  0
   38.1510   27.3100   32.8420 C   0  0  0  0  0  3  0  0  0  0  0  0
   36.7580   27.7870   32.6790 C   0  0  0  0  0  0  0  0  0  0  0  0
   36.8090   28.8730   32.4550 H   0  0  0  0  0  0  0  0  0  0  0  0
   36.1750   27.6860   33.6180 H   0  0  0  0  0  0  0  0  0  0  0  0
   35.9820   26.9390   31.3000 S   0  0  0  0  0  0  0  0  0  0  0  0
   38.3560   25.4140   29.9530 H   0  0  0  0  0  0  0  0  0  0  0  0
   37.6630   24.8120   30.4460 N   0  0  0  0  0  0  0  0  0  0  0  0
   36.5790   25.2920   31.0820 C   0  0  0  0  0  0  0  0  0  0  0  0
   35.8690   24.2850   31.6240 N   0  0  0  0  0  0  0  0  0  0  0  0
   36.4930   23.1100   31.3450 C   0  0  0  0  0  0  0  0  0  0  0  0
   36.2240   21.7870   31.6390 C   0  0  0  0  0  0  0  0  0  0  0  0
   37.0820   20.8250   31.1920 N   0  0  0  0  0  0  0  0  0  0  0  0
   38.1750   21.1940   30.4690 C   0  0  0  0  0  0  0  0  0  0  0  0
   38.8300   20.3910   30.1350 H   0  0  0  0  0  0  0  0  0  0  0  0
   38.4280   22.5040   30.1850 N   0  0  0  0  0  0  0  0  0  0  0  0
   37.6000   23.4780   30.6130 C   0  0  0  0  0  0  0  0  0  0  0  0
   35.0530   21.5040   32.4020 N   0  0  0  0  0  0  0  0  0  0  0  0
   34.7420   22.0510   33.2280 H   0  0  0  0  0  0  0  0  0  0  0  0
   34.5350   20.6750   32.0320 H   0  0  0  0  0  0  0  0  0  0  0  0
  1 11  1  0  0  0  0
  2  1  1  0  0  0  0
  2  7  1  0  0  0  0
  3  8  1  0  0  0  0
  3  2  2  0  0  0  0
  4  5  2  0  0  0  0
  4  3  1  0  0  0  0
  5  6  1  0  0  0  0
  6  1  2  0  0  0  0
  9  4  1  0  0  0  0
 10  5  1  0  0  0  0
 11 12  1  6  0  0  0
 11 17  1  0  0  0  0
 13 19  1  0  0  0  0
 13 14  1  0  0  0  0
 14 20  1  0  0  0  0
 15 21  1  0  0  0  0
 15 14  2  0  0  0  0
 16 15  1  0  0  0  0
 17 18  1  0  0  0  0
 17 16  2  0  0  0  0
 18 13  2  0  0  0  0
 22 11  1  0  0  0  0
 23 22  1  0  0  0  0
 24  6  1  0  0  0  0
 25 24  2  0  0  0  0
 26 25  1  0  0  0  0
 26 28  1  0  0  0  0
 27 26  1  0  0  0  0
 29 26  1  0  0  0  0
 30 31  1  0  0  0  0
 31 40  1  0  0  0  0
 31 32  1  0  0  0  0
 32 29  1  0  0  0  0
 32 33  2  0  0  0  0
 34 33  1  0  0  0  0
 34 35  1  0  0  0  0
 35 41  1  0  0  0  0
 36 35  2  0  0  0  0
 37 36  1  0  0  0  0
 38 37  1  0  0  0  0
 39 37  2  0  0  0  0
 39 40  1  0  0  0  0
 40 34  2  0  0  0  0
 41 42  1  0  0  0  0
 43 41  1  0  0  0  0
M  END
>  <minimizedAffinity>
-5.979949

$$$$

 OpenBabel03272509443D

 43 46  0  0  1  0  0  0  0  0999 V2000
   37.9700   23.1060   33.1160 C   0  0  0  0  0  0  0  0  0  0  0  0
   37.5700   21.8280   32.7170 C   0  0  0  0  0  0  0  0  0  0  0  0
   36.5270   21.6340   31.8240 C   0  0  0  0  0  0  0  0  0  0  0  0
   35.8520   22.7430   31.3060 C   0  0  0  0  0  0  0  0  0  0  0  0
   36.2530   23.9840   31.7060 C   0  0  0  0  0  0  0  0  0  0  0  0
   37.3010   24.1420   32.6000 C   0  0  0  0  0  0  0  0  0  0  0  0
   38.1180   20.9810   33.1380 H   0  0  0  0  0  0  0  0  0  0  0  0
   36.3160   20.6040   31.5960 H   0  0  0  0  0  0  0  0  0  0  0  0
   35.0540   22.5050   30.6190 H   0  0  0  0  0  0  0  0  0  0  0  0
   35.6340   24.7440   31.2220 H   0  0  0  0  0  0  0  0  0  0  0  0
   39.0360   23.3090   34.0720 C   0  0  2  0  0  0  0  0  0  0  0  0
   39.5790   22.2900   34.1480 H   0  0  0  0  0  0  0  0  0  0  0  0
   39.7720   22.8010   37.5940 C   0  0  0  0  0  0  0  0  0  0  0  0
   38.7480   23.4590   38.2500 C   0  0  0  0  0  0  0  0  0  0  0  0
   37.7510   24.0340   37.4850 C   0  0  0  0  0  0  0  0  0  0  0  0
   37.8100   23.9360   36.1110 N   0  0  0  0  0  0  0  0  0  0  0  0
   38.8150   23.2980   35.5460 C   0  0  0  0  0  0  0  0  0  0  0  0
   39.7980   22.7260   36.2790 N   0  0  0  0  0  0  0  0  0  0  0  0
   40.5550   22.3480   38.1890 H   0  0  0  0  0  0  0  0  0  0  0  0
   38.6640   23.5590   39.3240 H   0  0  0  0  0  0  0  0  0  0  0  0
   36.9140   24.5640   37.9110 H   0  0  0  0  0  0  0  0  0  0  0  0
   40.0200   23.9730   33.5780 O   0  0  0  0  0  0  0  0  0  0  0  0
   39.9050   24.9230   33.2990 H   0  0  0  0  0  0  0  0  0  0  0  0
   37.5990   25.5090   32.9590 C   0  0  0  0  0  3  0  0  0  0  0  0
   36.7830   26.5400   32.7140 C   0  0  0  0  0  3  0  0  0  0  0  0
   36.9660   27.9660   33.0730 C   0  0  0  0  0  0  0  0  0  0  0  0
   37.9170   28.3010   32.6100 H   0  0  0  0  0  0  0  0  0  0  0  0
   37.0820   28.1040   34.1680 H   0  0  0  0  0  0  0  0  0  0  0  0
   35.6130   28.9390   32.4030 S   0  0  0  0  0  0  0  0  0  0  0  0
   32.6030   28.7950   33.2370 H   0  0  0  0  0  0  0  0  0  0  0  0
   33.2080   29.3780   33.8530 N   0  0  0  0  0  0  0  0  0  0  0  0
   34.5260   29.5550   33.6500 C   0  0  0  0  0  0  0  0  0  0  0  0
   35.0430   30.3530   34.6020 N   0  0  0  0  0  0  0  0  0  0  0  0
   34.0510   30.7150   35.4570 C   0  0  0  0  0  0  0  0  0  0  0  0
   34.0000   31.5040   36.5910 C   0  0  0  0  0  0  0  0  0  0  0  0
   32.8050   31.6640   37.2290 N   0  0  0  0  0  0  0  0  0  0  0  0
   31.6990   31.0450   36.7330 C   0  0  0  0  0  0  0  0  0  0  0  0
   30.7690   31.2020   37.2770 H   0  0  0  0  0  0  0  0  0  0  0  0
   31.7630   30.2690   35.6130 N   0  0  0  0  0  0  0  0  0  0  0  0
   32.9280   30.0910   34.9590 C   0  0  0  0  0  0  0  0  0  0  0  0
   35.2140   32.1090   37.0290 N   0  0  0  0  0  0  0  0  0  0  0  0
   36.1350   31.6310   37.0530 H   0  0  0  0  0  0  0  0  0  0  0  0
   35.0730   33.1010   37.3270 H   0  0  0  0  0  0  0  0  0  0  0  0
  1 11  1  0  0  0  0
  2  1  1  0  0  0  0
  2  7  1  0  0  0  0
  3  2  2  0  0  0  0
  4  5  2  0  0  0  0
  4  3  1  0  0  0  0
  5  6  1  0  0  0  0
  6 24  1  0  0  0  0
  6  1  2  0  0  0  0
  8  3  1  0  0  0  0
  9  4  1  0  0  0  0
 10  5  1  0  0  0  0
 11 12  1  6  0  0  0
 11 17  1  0  0  0  0
 13 19  1  0  0  0  0
 13 14  1  0  0  0  0
 14 20  1  0  0  0  0
 15 21  1  0  0  0  0
 15 14  2  0  0  0  0
 16 15  1  0  0  0  0
 17 16  2  0  0  0  0
 17 18  1  0  0  0  0
 18 13  2  0  0  0  0
 22 11  1  0  0  0  0
 23 22  1  0  0  0  0
 25 24  2  0  0  0  0
 25 26  1  0  0  0  0
 26 28  1  0  0  0  0
 27 26  1  0  0  0  0
 29 26  1  0  0  0  0
 29 32  1  0  0  0  0
 30 31  1  0  0  0  0
 31 40  1  0  0  0  0
 32 31  1  0  0  0  0
 32 33  2  0  0  0  0
 33 34  1  0  0  0  0
 34 35  1  0  0  0  0
 35 41  1  0  0  0  0
 35 36  2  0  0  0  0
 37 36  1  0  0  0  0
 37 38  1  0  0  0  0
 39 37  2  0  0  0  0
 40 34  2  0  0  0  0
 40 39  1  0  0  0  0
 41 42  1  0  0  0  0
 41 43  1  0  0  0  0
M  END
>  <minimizedAffinity>
-5.93799448

$$$$

 OpenBabel03272509443D

 43 46  0  0  1  0  0  0  0  0999 V2000
   37.5350   27.5290   34.2710 C   0  0  0  0  0  0  0  0  0  0  0  0
   36.4210   28.2330   34.7330 C   0  0  0  0  0  0  0  0  0  0  0  0
   35.6160   28.9710   33.8780 C   0  0  0  0  0  0  0  0  0  0  0  0
   35.9240   29.0160   32.5160 C   0  0  0  0  0  0  0  0  0  0  0  0
   37.0150   28.3240   32.0790 C   0  0  0  0  0  0  0  0  0  0  0  0
   37.7980   27.5950   32.9620 C   0  0  0  0  0  0  0  0  0  0  0  0
   36.2060   28.1780   35.8030 H   0  0  0  0  0  0  0  0  0  0  0  0
   34.7900   29.4680   34.3550 H   0  0  0  0  0  0  0  0  0  0  0  0
   35.2490   29.6120   31.9210 H   0  0  0  0  0  0  0  0  0  0  0  0
   37.1270   28.4560   30.9990 H   0  0  0  0  0  0  0  0  0  0  0  0
   38.3950   26.7850   35.1660 C   0  0  2  0  0  0  0  0  0  0  0  0
   39.2690   26.4070   34.5080 H   0  0  0  0  0  0  0  0  0  0  0  0
   38.0910   23.1740   34.8990 C   0  0  0  0  0  0  0  0  0  0  0  0
   37.9300   22.7530   36.2050 C   0  0  0  0  0  0  0  0  0  0  0  0
   37.8590   23.7160   37.1940 C   0  0  0  0  0  0  0  0  0  0  0  0
   37.9520   25.0480   36.8500 N   0  0  0  0  0  0  0  0  0  0  0  0
   38.1080   25.3840   35.5860 C   0  0  0  0  0  0  0  0  0  0  0  0
   38.1770   24.4560   34.6040 N   0  0  0  0  0  0  0  0  0  0  0  0
   38.1470   22.4230   34.1200 H   0  0  0  0  0  0  0  0  0  0  0  0
   37.8540   21.7200   36.5180 H   0  0  0  0  0  0  0  0  0  0  0  0
   37.7330   23.4780   38.2380 H   0  0  0  0  0  0  0  0  0  0  0  0
   39.0940   27.5510   35.9280 O   0  0  0  0  0  0  0  0  0  0  0  0
   38.6540   28.1290   36.6100 H   0  0  0  0  0  0  0  0  0  0  0  0
   38.9380   26.9370   32.3690 C   0  0  0  0  0  3  0  0  0  0  0  0
   39.2570   27.0180   31.0730 C   0  0  0  0  0  3  0  0  0  0  0  0
   40.4180   26.4240   30.3690 C   0  0  0  0  0  0  0  0  0  0  0  0
   41.1240   26.0680   31.1470 H   0  0  0  0  0  0  0  0  0  0  0  0
   40.9660   27.1780   29.7680 H   0  0  0  0  0  0  0  0  0  0  0  0
   39.8790   25.0250   29.3810 S   0  0  0  0  0  0  0  0  0  0  0  0
   36.8270   25.1500   30.0490 H   0  0  0  0  0  0  0  0  0  0  0  0
   37.3190   24.2900   30.3720 N   0  0  0  0  0  0  0  0  0  0  0  0
   38.6300   24.0630   30.1740 C   0  0  0  0  0  0  0  0  0  0  0  0
   38.9840   22.8750   30.6990 N   0  0  0  0  0  0  0  0  0  0  0  0
   37.8870   22.2990   31.2580 C   0  0  0  0  0  0  0  0  0  0  0  0
   37.6610   21.1090   31.9230 C   0  0  0  0  0  0  0  0  0  0  0  0
   36.4020   20.8310   32.3680 N   0  0  0  0  0  0  0  0  0  0  0  0
   35.4050   21.7310   32.1450 C   0  0  0  0  0  0  0  0  0  0  0  0
   34.4180   21.4650   32.5190 H   0  0  0  0  0  0  0  0  0  0  0  0
   35.6420   22.9020   31.4870 N   0  0  0  0  0  0  0  0  0  0  0  0
   36.8750   23.2060   31.0350 C   0  0  0  0  0  0  0  0  0  0  0  0
   38.7720   20.2330   32.1070 N   0  0  0  0  0  0  0  0  0  0  0  0
   39.4840   20.0260   31.3800 H   0  0  0  0  0  0  0  0  0  0  0  0
   38.7910   19.8190   33.0660 H   0  0  0  0  0  0  0  0  0  0  0  0
  1  2  1  0  0  0  0
  1 11  1  0  0  0  0
  2  7  1  0  0  0  0
  3  8  1  0  0  0  0
  3  2  2  0  0  0  0
  4  3  1  0  0  0  0
  5  4  2  0  0  0  0
  5  6  1  0  0  0  0
  6  1  2  0  0  0  0
  9  4  1  0  0  0  0
 10  5  1  0  0  0  0
 11 12  1  6  0  0  0
 11 17  1  0  0  0  0
 11 22  1  0  0  0  0
 13 14  1  0  0  0  0
 14 20  1  0  0  0  0
 14 15  2  0  0  0  0
 15 21  1  0  0  0  0
 16 15  1  0  0  0  0
 17 16  2  0  0  0  0
 18 13  2  0  0  0  0
 18 17  1  0  0  0  0
 19 13  1  0  0  0  0
 22 23  1  0  0  0  0
 24  6  1  0  0  0  0
 25 24  2  0  0  0  0
 26 25  1  0  0  0  0
 26 27  1  0  0  0  0
 28 26  1  0  0  0  0
 29 32  1  0  0  0  0
 29 26  1  0  0  0  0
 30 31  1  0  0  0  0
 31 40  1  0  0  0  0
 32 31  1  0  0  0  0
 32 33  2  0  0  0  0
 33 34  1  0  0  0  0
 34 35  1  0  0  0  0
 35 41  1  0  0  0  0
 35 36  2  0  0  0  0
 37 36  1  0  0  0  0
 37 38  1  0  0  0  0
 39 37  2  0  0  0  0
 40 34  2  0  0  0  0
 40 39  1  0  0  0  0
 41 43  1  0  0  0  0
 42 41  1  0  0  0  0
M  END
>  <minimizedAffinity>
-5.90299892

$$$$

 OpenBabel03272509443D

 43 46  0  0  1  0  0  0  0  0999 V2000
   38.1780   25.8840   33.4700 C   0  0  0  0  0  0  0  0  0  0  0  0
   39.0690   25.3800   34.4210 C   0  0  0  0  0  0  0  0  0  0  0  0
   39.2050   25.9590   35.6740 C   0  0  0  0  0  0  0  0  0  0  0  0
   38.4330   27.0770   36.0000 C   0  0  0  0  0  0  0  0  0  0  0  0
   37.5680   27.5580   35.0620 C   0  0  0  0  0  0  0  0  0  0  0  0
   37.4570   26.9550   33.8180 C   0  0  0  0  0  0  0  0  0  0  0  0
   39.6570   24.5040   34.1360 H   0  0  0  0  0  0  0  0  0  0  0  0
   39.9230   25.4780   36.3150 H   0  0  0  0  0  0  0  0  0  0  0  0
   38.6000   27.4650   36.9930 H   0  0  0  0  0  0  0  0  0  0  0  0
   37.0410   28.4300   35.4590 H   0  0  0  0  0  0  0  0  0  0  0  0
   38.0580   25.3020   32.1510 C   0  0  2  0  0  0  0  0  0  0  0  0
   37.1520   25.8330   31.6630 H   0  0  0  0  0  0  0  0  0  0  0  0
   35.4220   22.9170   31.3980 C   0  0  0  0  0  0  0  0  0  0  0  0
   36.0990   21.7390   31.1420 C   0  0  0  0  0  0  0  0  0  0  0  0
   37.4730   21.7340   31.2890 C   0  0  0  0  0  0  0  0  0  0  0  0
   38.1160   22.8890   31.6780 N   0  0  0  0  0  0  0  0  0  0  0  0
   37.4150   23.9810   31.9040 C   0  0  0  0  0  0  0  0  0  0  0  0
   36.0680   24.0040   31.7690 N   0  0  0  0  0  0  0  0  0  0  0  0
   34.3450   22.9260   31.2850 H   0  0  0  0  0  0  0  0  0  0  0  0
   35.6330   20.8110   30.8350 H   0  0  0  0  0  0  0  0  0  0  0  0
   38.0800   20.8600   31.1120 H   0  0  0  0  0  0  0  0  0  0  0  0
   38.9510   25.7410   31.3360 O   0  0  0  0  0  0  0  0  0  0  0  0
   39.9170   25.5430   31.4850 H   0  0  0  0  0  0  0  0  0  0  0  0
   36.5250   27.5860   32.9120 C   0  0  0  0  0  3  0  0  0  0  0  0
   36.8010   28.6870   32.2050 C   0  0  0  0  0  3  0  0  0  0  0  0
   35.9450   29.3900   31.2220 C   0  0  0  0  0  0  0  0  0  0  0  0
   35.0510   28.7550   31.0540 H   0  0  0  0  0  0  0  0  0  0  0  0
   36.4470   29.4940   30.2380 H   0  0  0  0  0  0  0  0  0  0  0  0
   35.4230   30.9730   31.8920 S   0  0  0  0  0  0  0  0  0  0  0  0
   32.7520   29.6370   32.8180 H   0  0  0  0  0  0  0  0  0  0  0  0
   33.2610   30.1720   33.5540 N   0  0  0  0  0  0  0  0  0  0  0  0
   34.4250   30.8110   33.3380 C   0  0  0  0  0  0  0  0  0  0  0  0
   34.8450   31.4120   34.4670 N   0  0  0  0  0  0  0  0  0  0  0  0
   33.9440   31.1680   35.4550 C   0  0  0  0  0  0  0  0  0  0  0  0
   33.8590   31.5250   36.7870 C   0  0  0  0  0  0  0  0  0  0  0  0
   32.7880   31.0990   37.5170 N   0  0  0  0  0  0  0  0  0  0  0  0
   31.8340   30.3370   36.9140 C   0  0  0  0  0  0  0  0  0  0  0  0
   30.9990   30.0220   37.5370 H   0  0  0  0  0  0  0  0  0  0  0  0
   31.9300   29.9920   35.5980 N   0  0  0  0  0  0  0  0  0  0  0  0
   32.9770   30.3960   34.8500 C   0  0  0  0  0  0  0  0  0  0  0  0
   34.9090   32.3260   37.3240 N   0  0  0  0  0  0  0  0  0  0  0  0
   35.9190   32.1810   37.1290 H   0  0  0  0  0  0  0  0  0  0  0  0
   34.5460   33.0850   37.9440 H   0  0  0  0  0  0  0  0  0  0  0  0
  1  6  2  0  0  0  0
  1  2  1  0  0  0  0
  2  3  2  0  0  0  0
  3  4  1  0  0  0  0
  3  8  1  0  0  0  0
  4  9  1  0  0  0  0
  5 10  1  0  0  0  0
  5  4  2  0  0  0  0
  6  5  1  0  0  0  0
  7  2  1  0  0  0  0
 11 12  1  6  0  0  0
 11  1  1  0  0  0  0
 13 18  1  0  0  0  0
 14 15  1  0  0  0  0
 14 13  2  0  0  0  0
 15 16  2  0  0  0  0
 16 17  1  0  0  0  0
 17 11  1  0  0  0  0
 18 17  2  0  0  0  0
 19 13  1  0  0  0  0
 20 14  1  0  0  0  0
 21 15  1  0  0  0  0
 22 23  1  0  0  0  0
 22 11  1  0  0  0  0
 24  6  1  0  0  0  0
 25 24  2  0  0  0  0
 26 29  1  0  0  0  0
 26 25  1  0  0  0  0
 27 26  1  0  0  0  0
 28 26  1  0  0  0  0
 29 32  1  0  0  0  0
 30 31  1  0  0  0  0
 31 40  1  0  0  0  0
 32 31  1  0  0  0  0
 32 33  2  0  0  0  0
 33 34  1  0  0  0  0
 34 35  1  0  0  0  0
 35 41  1  0  0  0  0
 35 36  2  0  0  0  0
 37 36  1  0  0  0  0
 37 38  1  0  0  0  0
 39 37  2  0  0  0  0
 40 34  2  0  0  0  0
 40 39  1  0  0  0  0
 41 43  1  0  0  0  0
 42 41  1  0  0  0  0
M  END
>  <minimizedAffinity>
-5.78424931

$$$$

 OpenBabel03272509443D

 43 46  0  0  1  0  0  0  0  0999 V2000
   38.1140   27.1850   34.1100 C   0  0  0  0  0  0  0  0  0  0  0  0
   36.8260   27.7200   34.0210 C   0  0  0  0  0  0  0  0  0  0  0  0
   36.3330   28.2430   32.8350 C   0  0  0  0  0  0  0  0  0  0  0  0
   37.1410   28.2380   31.6940 C   0  0  0  0  0  0  0  0  0  0  0  0
   38.3950   27.7120   31.7970 C   0  0  0  0  0  0  0  0  0  0  0  0
   38.8570   27.1970   32.9990 C   0  0  0  0  0  0  0  0  0  0  0  0
   36.2190   27.7090   34.9290 H   0  0  0  0  0  0  0  0  0  0  0  0
   35.3290   28.6250   32.8950 H   0  0  0  0  0  0  0  0  0  0  0  0
   36.6810   28.6630   30.8150 H   0  0  0  0  0  0  0  0  0  0  0  0
   38.9030   27.7810   30.8310 H   0  0  0  0  0  0  0  0  0  0  0  0
   38.6420   26.6680   35.3540 C   0  0  2  0  0  0  0  0  0  0  0  0
   39.7530   26.4260   35.1380 H   0  0  0  0  0  0  0  0  0  0  0  0
   37.7060   23.9350   37.5570 C   0  0  0  0  0  0  0  0  0  0  0  0
   37.6850   22.8280   36.7290 C   0  0  0  0  0  0  0  0  0  0  0  0
   38.0560   22.9980   35.4080 C   0  0  0  0  0  0  0  0  0  0  0  0
   38.4290   24.2490   34.9650 N   0  0  0  0  0  0  0  0  0  0  0  0
   38.4260   25.2640   35.8050 C   0  0  0  0  0  0  0  0  0  0  0  0
   38.0680   25.1180   37.1010 N   0  0  0  0  0  0  0  0  0  0  0  0
   37.4160   23.8070   38.5930 H   0  0  0  0  0  0  0  0  0  0  0  0
   37.3990   21.8300   37.0360 H   0  0  0  0  0  0  0  0  0  0  0  0
   38.0710   22.1910   34.6940 H   0  0  0  0  0  0  0  0  0  0  0  0
   38.8510   27.5940   36.2220 O   0  0  0  0  0  0  0  0  0  0  0  0
   38.0920   28.1160   36.6030 H   0  0  0  0  0  0  0  0  0  0  0  0
   40.2130   26.7010   32.9720 C   0  0  0  0  0  3  0  0  0  0  0  0
   41.2860   27.4450   33.2610 C   0  0  0  0  0  3  0  0  0  0  0  0
   42.7080   27.0330   33.3080 C   0  0  0  0  0  0  0  0  0  0  0  0
   43.0500   27.1550   34.3570 H   0  0  0  0  0  0  0  0  0  0  0  0
   43.3500   27.6930   32.6890 H   0  0  0  0  0  0  0  0  0  0  0  0
   42.8570   25.3050   32.8400 S   0  0  0  0  0  0  0  0  0  0  0  0
   41.1800   25.2090   35.4780 H   0  0  0  0  0  0  0  0  0  0  0  0
   41.7140   24.3410   35.2570 N   0  0  0  0  0  0  0  0  0  0  0  0
   42.4880   24.2000   34.1660 C   0  0  0  0  0  0  0  0  0  0  0  0
   43.0490   22.9770   34.1450 N   0  0  0  0  0  0  0  0  0  0  0  0
   42.6410   22.2880   35.2440 C   0  0  0  0  0  0  0  0  0  0  0  0
   42.8930   21.0200   35.7300 C   0  0  0  0  0  0  0  0  0  0  0  0
   42.3050   20.6340   36.8990 N   0  0  0  0  0  0  0  0  0  0  0  0
   41.4890   21.5060   37.5520 C   0  0  0  0  0  0  0  0  0  0  0  0
   41.0420   21.1520   38.4800 H   0  0  0  0  0  0  0  0  0  0  0  0
   41.2490   22.7550   37.0610 N   0  0  0  0  0  0  0  0  0  0  0  0
   41.8150   23.1680   35.9080 C   0  0  0  0  0  0  0  0  0  0  0  0
   43.7630   20.1820   34.9720 N   0  0  0  0  0  0  0  0  0  0  0  0
   43.7420   20.0940   33.9380 H   0  0  0  0  0  0  0  0  0  0  0  0
   44.4340   19.6600   35.5810 H   0  0  0  0  0  0  0  0  0  0  0  0
  1 11  1  0  0  0  0
  2  1  1  0  0  0  0
  2  7  1  0  0  0  0
  3  8  1  0  0  0  0
  3  2  2  0  0  0  0
  4  5  2  0  0  0  0
  4  3  1  0  0  0  0
  5  6  1  0  0  0  0
  6  1  2  0  0  0  0
  9  4  1  0  0  0  0
 10  5  1  0  0  0  0
 11 12  1  6  0  0  0
 11 17  1  0  0  0  0
 11 22  1  0  0  0  0
 13 19  1  0  0  0  0
 14 20  1  0  0  0  0
 14 13  2  0  0  0  0
 15 14  1  0  0  0  0
 16 15  2  0  0  0  0
 16 17  1  0  0  0  0
 17 18  2  0  0  0  0
 18 13  1  0  0  0  0
 21 15  1  0  0  0  0
 22 23  1  0  0  0  0
 24  6  1  0  0  0  0
 24 25  2  0  0  0  0
 25 26  1  0  0  0  0
 26 27  1  0  0  0  0
 28 26  1  0  0  0  0
 29 26  1  0  0  0  0
 29 32  1  0  0  0  0
 31 30  1  0  0  0  0
 31 40  1  0  0  0  0
 32 31  1  0  0  0  0
 33 32  2  0  0  0  0
 33 34  1  0  0  0  0
 34 35  2  0  0  0  0
 34 40  1  0  0  0  0
 35 36  1  0  0  0  0
 36 37  2  0  0  0  0
 37 38  1  0  0  0  0
 39 37  1  0  0  0  0
 40 39  2  0  0  0  0
 41 43  1  0  0  0  0
 41 35  1  0  0  0  0
 42 41  1  0  0  0  0
M  END
>  <minimizedAffinity>
-5.67510843

$$$$

 OpenBabel03272509443D

 43 46  0  0  1  0  0  0  0  0999 V2000
   37.6100   22.4530   32.6540 C   0  0  0  0  0  0  0  0  0  0  0  0
   37.5490   21.0620   32.5470 C   0  0  0  0  0  0  0  0  0  0  0  0
   36.5500   20.4270   31.8230 C   0  0  0  0  0  0  0  0  0  0  0  0
   35.5750   21.1960   31.1820 C   0  0  0  0  0  0  0  0  0  0  0  0
   35.6470   22.5530   31.2960 C   0  0  0  0  0  0  0  0  0  0  0  0
   36.6590   23.1550   32.0280 C   0  0  0  0  0  0  0  0  0  0  0  0
   38.3260   20.4890   33.0580 H   0  0  0  0  0  0  0  0  0  0  0  0
   36.6130   19.3530   31.8160 H   0  0  0  0  0  0  0  0  0  0  0  0
   34.8350   20.6250   30.6420 H   0  0  0  0  0  0  0  0  0  0  0  0
   34.8200   23.0130   30.7470 H   0  0  0  0  0  0  0  0  0  0  0  0
   38.6310   23.1160   33.4360 C   0  0  2  0  0  0  0  0  0  0  0  0
   39.3520   22.2750   33.7740 H   0  0  0  0  0  0  0  0  0  0  0  0
   38.2270   25.3110   36.3030 C   0  0  0  0  0  0  0  0  0  0  0  0
   37.7940   24.4700   37.3110 C   0  0  0  0  0  0  0  0  0  0  0  0
   37.6960   23.1190   37.0340 C   0  0  0  0  0  0  0  0  0  0  0  0
   38.0280   22.6610   35.7760 N   0  0  0  0  0  0  0  0  0  0  0  0
   38.4320   23.5140   34.8580 C   0  0  0  0  0  0  0  0  0  0  0  0
   38.5360   24.8390   35.1110 N   0  0  0  0  0  0  0  0  0  0  0  0
   38.3060   26.3700   36.5160 H   0  0  0  0  0  0  0  0  0  0  0  0
   37.5240   24.7880   38.3100 H   0  0  0  0  0  0  0  0  0  0  0  0
   37.3700   22.3920   37.7600 H   0  0  0  0  0  0  0  0  0  0  0  0
   39.4730   23.7560   32.7040 O   0  0  0  0  0  0  0  0  0  0  0  0
   39.1830   24.5430   32.1640 H   0  0  0  0  0  0  0  0  0  0  0  0
   36.5960   24.5960   32.0900 C   0  0  0  0  0  3  0  0  0  0  0  0
   36.2370   25.3730   31.0620 C   0  0  0  0  0  3  0  0  0  0  0  0
   36.0960   26.8470   31.0260 C   0  0  0  0  0  0  0  0  0  0  0  0
   35.0100   27.0720   30.9960 H   0  0  0  0  0  0  0  0  0  0  0  0
   36.5330   27.2810   30.1020 H   0  0  0  0  0  0  0  0  0  0  0  0
   36.8020   27.5620   32.5140 S   0  0  0  0  0  0  0  0  0  0  0  0
   36.6760   29.3590   35.0700 H   0  0  0  0  0  0  0  0  0  0  0  0
   35.8360   29.4020   34.4540 N   0  0  0  0  0  0  0  0  0  0  0  0
   35.7130   28.6980   33.3140 C   0  0  0  0  0  0  0  0  0  0  0  0
   34.5260   28.9530   32.7330 N   0  0  0  0  0  0  0  0  0  0  0  0
   33.8450   29.8450   33.5000 C   0  0  0  0  0  0  0  0  0  0  0  0
   32.6080   30.4520   33.3970 C   0  0  0  0  0  0  0  0  0  0  0  0
   32.2190   31.3230   34.3720 N   0  0  0  0  0  0  0  0  0  0  0  0
   33.0570   31.5700   35.4160 C   0  0  0  0  0  0  0  0  0  0  0  0
   32.7020   32.2730   36.1680 H   0  0  0  0  0  0  0  0  0  0  0  0
   34.2760   30.9640   35.5050 N   0  0  0  0  0  0  0  0  0  0  0  0
   34.6900   30.0980   34.5580 C   0  0  0  0  0  0  0  0  0  0  0  0
   31.8040   30.1250   32.2660 N   0  0  0  0  0  0  0  0  0  0  0  0
   32.1620   30.0370   31.2950 H   0  0  0  0  0  0  0  0  0  0  0  0
   30.8010   29.9820   32.5250 H   0  0  0  0  0  0  0  0  0  0  0  0
  1 11  1  0  0  0  0
  2  1  1  0  0  0  0
  2  7  1  0  0  0  0
  3  2  2  0  0  0  0
  4  5  2  0  0  0  0
  4  3  1  0  0  0  0
  5  6  1  0  0  0  0
  6 24  1  0  0  0  0
  6  1  2  0  0  0  0
  8  3  1  0  0  0  0
  9  4  1  0  0  0  0
 10  5  1  0  0  0  0
 11 12  1  1  0  0  0
 11 17  1  0  0  0  0
 13 19  1  0  0  0  0
 13 14  1  0  0  0  0
 14 20  1  0  0  0  0
 15 14  2  0  0  0  0
 15 21  1  0  0  0  0
 16 15  1  0  0  0  0
 17 18  1  0  0  0  0
 17 16  2  0  0  0  0
 18 13  2  0  0  0  0
 22 11  1  0  0  0  0
 23 22  1  0  0  0  0
 25 24  2  0  0  0  0
 26 25  1  0  0  0  0
 26 29  1  0  0  0  0
 27 26  1  0  0  0  0
 28 26  1  0  0  0  0
 29 32  1  0  0  0  0
 31 40  1  0  0  0  0
 31 30  1  0  0  0  0
 32 31  1  0  0  0  0
 33 32  2  0  0  0  0
 33 34  1  0  0  0  0
 34 40  1  0  0  0  0
 35 34  2  0  0  0  0
 35 36  1  0  0  0  0
 36 37  2  0  0  0  0
 37 39  1  0  0  0  0
 37 38  1  0  0  0  0
 40 39  2  0  0  0  0
 41 43  1  0  0  0  0
 41 35  1  0  0  0  0
 42 41  1  0  0  0  0
M  END
>  <minimizedAffinity>
-5.66520309

$$$$

 OpenBabel03272509443D

 43 46  0  0  1  0  0  0  0  0999 V2000
   35.5310   30.9990   34.1630 C   0  0  0  0  0  0  0  0  0  0  0  0
   35.6980   31.8330   35.2720 C   0  0  0  0  0  0  0  0  0  0  0  0
   36.3060   33.0750   35.1680 C   0  0  0  0  0  0  0  0  0  0  0  0
   36.7680   33.5100   33.9230 C   0  0  0  0  0  0  0  0  0  0  0  0
   36.5990   32.6860   32.8500 C   0  0  0  0  0  0  0  0  0  0  0  0
   35.9860   31.4500   32.9890 C   0  0  0  0  0  0  0  0  0  0  0  0
   35.3260   31.4650   36.2310 H   0  0  0  0  0  0  0  0  0  0  0  0
   36.3750   33.6200   36.0930 H   0  0  0  0  0  0  0  0  0  0  0  0
   37.2280   34.4860   33.9290 H   0  0  0  0  0  0  0  0  0  0  0  0
   37.0100   33.1590   31.9540 H   0  0  0  0  0  0  0  0  0  0  0  0
   34.9270   29.6900   34.2750 C   0  0  2  0  0  0  0  0  0  0  0  0
   34.8700   29.2850   33.1920 H   0  0  0  0  0  0  0  0  0  0  0  0
   31.4670   29.1890   33.2840 C   0  0  0  0  0  0  0  0  0  0  0  0
   30.8310   28.8260   34.4560 C   0  0  0  0  0  0  0  0  0  0  0  0
   31.5750   28.8120   35.6210 C   0  0  0  0  0  0  0  0  0  0  0  0
   32.9100   29.1530   35.5760 N   0  0  0  0  0  0  0  0  0  0  0  0
   33.4580   29.4870   34.4260 C   0  0  0  0  0  0  0  0  0  0  0  0
   32.7460   29.5090   33.2760 N   0  0  0  0  0  0  0  0  0  0  0  0
   30.8880   29.2020   32.3680 H   0  0  0  0  0  0  0  0  0  0  0  0
   29.7870   28.5510   34.5350 H   0  0  0  0  0  0  0  0  0  0  0  0
   31.1600   28.5440   36.5800 H   0  0  0  0  0  0  0  0  0  0  0  0
   35.7450   28.8070   34.7280 O   0  0  0  0  0  0  0  0  0  0  0  0
   36.1010   28.8720   35.6570 H   0  0  0  0  0  0  0  0  0  0  0  0
   35.9000   30.6690   31.7770 C   0  0  0  0  0  3  0  0  0  0  0  0
   36.7530   29.6900   31.4580 C   0  0  0  0  0  3  0  0  0  0  0  0
   36.7360   28.8010   30.2720 C   0  0  0  0  0  0  0  0  0  0  0  0
   36.8420   29.4480   29.3770 H   0  0  0  0  0  0  0  0  0  0  0  0
   35.7650   28.2740   30.1660 H   0  0  0  0  0  0  0  0  0  0  0  0
   38.1250   27.6650   30.3440 S   0  0  0  0  0  0  0  0  0  0  0  0
   37.9400   24.6750   31.2410 H   0  0  0  0  0  0  0  0  0  0  0  0
   38.0480   25.3660   32.0140 N   0  0  0  0  0  0  0  0  0  0  0  0
   38.1430   26.6940   31.8180 C   0  0  0  0  0  0  0  0  0  0  0  0
   38.2730   27.3320   32.9950 N   0  0  0  0  0  0  0  0  0  0  0  0
   38.2650   26.4130   33.9960 C   0  0  0  0  0  0  0  0  0  0  0  0
   38.3630   26.4910   35.3720 C   0  0  0  0  0  0  0  0  0  0  0  0
   38.3170   25.3390   36.1020 N   0  0  0  0  0  0  0  0  0  0  0  0
   38.1770   24.1490   35.4570 C   0  0  0  0  0  0  0  0  0  0  0  0
   38.1460   23.2580   36.0820 H   0  0  0  0  0  0  0  0  0  0  0  0
   38.0810   24.0860   34.0970 N   0  0  0  0  0  0  0  0  0  0  0  0
   38.1230   25.2060   33.3480 C   0  0  0  0  0  0  0  0  0  0  0  0
   38.5060   27.7850   35.9520 N   0  0  0  0  0  0  0  0  0  0  0  0
   39.1220   28.5330   35.5780 H   0  0  0  0  0  0  0  0  0  0  0  0
   37.9150   27.9000   36.8060 H   0  0  0  0  0  0  0  0  0  0  0  0
  1 11  1  0  0  0  0
  1  2  1  0  0  0  0
  2  7  1  0  0  0  0
  3  2  2  0  0  0  0
  3  8  1  0  0  0  0
  4  9  1  0  0  0  0
  4  3  1  0  0  0  0
  5  6  1  0  0  0  0
  5  4  2  0  0  0  0
  6  1  2  0  0  0  0
 10  5  1  0  0  0  0
 11 12  1  6  0  0  0
 11 17  1  0  0  0  0
 11 22  1  0  0  0  0
 13 14  1  0  0  0  0
 14 20  1  0  0  0  0
 14 15  2  0  0  0  0
 15 21  1  0  0  0  0
 16 15  1  0  0  0  0
 17 16  2  0  0  0  0
 18 13  2  0  0  0  0
 18 17  1  0  0  0  0
 19 13  1  0  0  0  0
 22 23  1  0  0  0  0
 24  6  1  0  0  0  0
 25 24  2  0  0  0  0
 26 29  1  0  0  0  0
 26 25  1  0  0  0  0
 27 26  1  0  0  0  0
 28 26  1  0  0  0  0
 29 32  1  0  0  0  0
 30 31  1  0  0  0  0
 31 40  1  0  0  0  0
 32 31  1  0  0  0  0
 32 33  2  0  0  0  0
 33 34  1  0  0  0  0
 34 35  1  0  0  0  0
 35 41  1  0  0  0  0
 35 36  2  0  0  0  0
 37 38  1  0  0  0  0
 37 36  1  0  0  0  0
 39 37  2  0  0  0  0
 40 34  2  0  0  0  0
 40 39  1  0  0  0  0
 41 43  1  0  0  0  0
 42 41  1  0  0  0  0
M  END
>  <minimizedAffinity>
-5.63144255

$$$$
