
 OpenBabel03272508273D

 43 47  0  0  1  0  0  0  0  0999 V2000
   33.8770   28.9550   47.2670 C   0  0  2  0  0  0  0  0  0  0  0  0
   34.5990   28.1720   48.3490 C   0  0  2  0  0  0  0  0  0  0  0  0
   33.6940   28.0120   49.3600 O   0  0  0  0  0  0  0  0  0  0  0  0
   32.4200   28.0930   48.8770 C   0  0  0  0  0  0  0  0  0  0  0  0
   32.4940   28.3110   47.3820 C   0  0  1  0  0  0  0  0  0  0  0  0
   33.7540   30.0160   47.5260 H   0  0  0  0  0  0  0  0  0  0  0  0
   34.8820   27.2080   47.8690 H   0  0  0  0  0  0  0  0  0  0  0  0
   31.8870   27.1080   49.0190 H   0  0  0  0  0  0  0  0  0  0  0  0
   31.8540   28.8680   49.4060 H   0  0  0  0  0  0  0  0  0  0  0  0
   32.5810   27.3260   46.8730 H   0  0  0  0  0  0  0  0  0  0  0  0
   35.6930   30.4100   49.0550 C   0  0  1  0  0  0  0  0  0  0  0  0
   35.7700   28.9940   48.7870 C   0  0  1  0  0  0  0  0  0  0  0  0
   35.9410   29.4240   50.2080 C   0  0  0  0  0  0  0  0  0  0  0  0
   34.7890   31.0140   49.2620 H   0  0  0  0  0  0  0  0  0  0  0  0
   36.7310   28.6380   48.3120 H   0  0  0  0  0  0  0  0  0  0  0  0
   35.0780   29.1460   50.8470 H   0  0  0  0  0  0  0  0  0  0  0  0
   36.9310   29.4140   50.6850 H   0  0  0  0  0  0  0  0  0  0  0  0
   36.8890   31.3210   48.8250 C   0  0  0  0  0  0  0  0  0  0  0  0
   37.0720   32.3720   49.7240 C   0  0  0  0  0  0  0  0  0  0  0  0
   38.1640   33.1850   49.4470 C   0  0  0  0  0  0  0  0  0  0  0  0
   38.9770   32.9460   48.3680 N   0  0  0  0  0  0  0  0  0  0  0  0
   38.7530   31.9090   47.5260 C   0  0  0  0  0  0  0  0  0  0  0  0
   37.6990   31.0910   47.7590 N   0  0  0  0  0  0  0  0  0  0  0  0
   36.4240   32.5310   50.5510 H   0  0  0  0  0  0  0  0  0  0  0  0
   38.3950   34.0280   50.0820 H   0  0  0  0  0  0  0  0  0  0  0  0
   39.4230   31.7660   46.6930 H   0  0  0  0  0  0  0  0  0  0  0  0
   34.4150   28.7830   46.0060 O   0  0  0  0  0  0  0  0  0  0  0  0
   33.7930   29.1560   45.3610 H   0  0  0  0  0  0  0  0  0  0  0  0
   31.5100   29.1050   46.8590 O   0  0  0  0  0  0  0  0  0  0  0  0
   30.9450   26.5220   45.7980 H   0  0  0  0  0  0  0  0  0  0  0  0
   30.2640   27.3000   45.7110 N   0  0  0  0  0  0  0  0  0  0  0  0
   30.4350   28.5490   46.1760 C   0  0  0  0  0  0  0  0  0  0  0  0
   29.3050   29.2000   45.8350 N   0  0  0  0  0  0  0  0  0  0  0  0
   28.4550   28.3850   45.1780 C   0  0  0  0  0  0  0  0  0  0  0  0
   27.2000   28.5500   44.6300 C   0  0  0  0  0  0  0  0  0  0  0  0
   26.5500   27.5400   44.0090 N   0  0  0  0  0  0  0  0  0  0  0  0
   27.1790   26.3410   43.9430 C   0  0  0  0  0  0  0  0  0  0  0  0
   26.8320   25.4180   43.4940 H   0  0  0  0  0  0  0  0  0  0  0  0
   28.4080   26.1640   44.4760 N   0  0  0  0  0  0  0  0  0  0  0  0
   29.0800   27.1500   45.0990 C   0  0  0  0  0  0  0  0  0  0  0  0
   26.5680   29.8230   44.7180 N   0  0  0  0  0  0  0  0  0  0  0  0
   25.6740   30.0450   45.2420 H   0  0  0  0  0  0  0  0  0  0  0  0
   27.0650   30.5650   44.2080 H   0  0  0  0  0  0  0  0  0  0  0  0
  1  5  1  0  0  0  0
  1  6  1  1  0  0  0
  1  2  1  0  0  0  0
  2  7  1  6  0  0  0
  2 12  1  0  0  0  0
  2  3  1  0  0  0  0
  4  8  1  0  0  0  0
  4  3  1  0  0  0  0
  4  9  1  0  0  0  0
  5 10  1  6  0  0  0
  5  4  1  0  0  0  0
 11 14  1  6  0  0  0
 11 13  1  0  0  0  0
 12 15  1  6  0  0  0
 12 11  1  0  0  0  0
 12 13  1  0  0  0  0
 13 17  1  0  0  0  0
 13 16  1  0  0  0  0
 18 11  1  0  0  0  0
 18 19  1  0  0  0  0
 19 24  1  0  0  0  0
 20 19  2  0  0  0  0
 20 25  1  0  0  0  0
 21 20  1  0  0  0  0
 22 23  1  0  0  0  0
 22 21  2  0  0  0  0
 23 18  2  0  0  0  0
 26 22  1  0  0  0  0
 27  1  1  0  0  0  0
 28 27  1  0  0  0  0
 29  5  1  0  0  0  0
 31 30  1  0  0  0  0
 31 32  1  0  0  0  0
 32 29  1  0  0  0  0
 33 32  2  0  0  0  0
 34 33  1  0  0  0  0
 35 41  1  0  0  0  0
 35 34  2  0  0  0  0
 36 35  1  0  0  0  0
 37 36  2  0  0  0  0
 37 39  1  0  0  0  0
 38 37  1  0  0  0  0
 39 40  2  0  0  0  0
 40 34  1  0  0  0  0
 40 31  1  0  0  0  0
 41 42  1  0  0  0  0
 43 41  1  0  0  0  0
M  END
>  <minimizedAffinity>
-5.40928411

>  <minimizedRMSD>
0.837524831

$$$$
