
 OpenBabel03262522153D

 50 54  0  0  1  0  0  0  0  0999 V2000
   39.3850   29.6120   42.4650 C   0  0  1  0  0  0  0  0  0  0  0  0
   38.9650   31.0330   42.1230 C   0  0  0  0  0  0  0  0  0  0  0  0
   39.9420   31.8440   42.9200 C   0  0  2  0  0  0  0  0  0  0  0  0
   40.6450   30.9960   43.7200 O   0  0  0  0  0  0  0  0  0  0  0  0
   39.9170   29.8290   43.8710 C   0  0  0  0  0  0  0  0  0  0  0  0
   40.2510   29.2890   41.8400 H   0  0  0  0  0  0  0  0  0  0  0  0
   37.9680   31.1830   42.5480 H   0  0  0  0  0  0  0  0  0  0  0  0
   39.0400   31.2130   41.0320 H   0  0  0  0  0  0  0  0  0  0  0  0
   40.6610   32.3300   42.2130 H   0  0  0  0  0  0  0  0  0  0  0  0
   40.6490   29.0390   44.1660 H   0  0  0  0  0  0  0  0  0  0  0  0
   39.0790   29.9360   44.5830 H   0  0  0  0  0  0  0  0  0  0  0  0
   39.2520   32.9410   43.6890 C   0  0  0  0  0  0  0  0  0  0  0  0
   38.2330   32.6820   44.0000 H   0  0  0  0  0  0  0  0  0  0  0  0
   39.1920   33.8360   43.0230 H   0  0  0  0  0  0  0  0  0  0  0  0
   40.3410   33.4160   45.0560 S   0  0  0  0  0  0  0  0  0  0  0  0
   37.7670   31.8050   47.6060 C   0  0  0  0  0  0  0  0  0  0  0  0
   38.0160   32.4650   48.8100 C   0  0  0  0  0  0  0  0  0  0  0  0
   38.9880   33.4380   48.8950 C   0  0  0  0  0  0  0  0  0  0  0  0
   39.6780   33.7070   47.7420 C   0  0  0  0  0  0  0  0  0  0  0  0
   39.4220   33.0530   46.5740 C   0  0  0  0  0  0  0  0  0  0  0  0
   38.4690   32.0960   46.4830 N   0  0  0  0  0  0  0  0  0  0  0  0
   37.4340   32.2060   49.6880 H   0  0  0  0  0  0  0  0  0  0  0  0
   39.1820   33.9550   49.8370 H   0  0  0  0  0  0  0  0  0  0  0  0
   40.4590   34.4600   47.7240 H   0  0  0  0  0  0  0  0  0  0  0  0
   36.7320   30.7990   47.6000 C   0  0  0  0  0  0  0  0  0  0  0  0
   36.2680   30.3590   46.5480 O   0  0  0  0  0  0  0  0  0  0  0  0
   37.0580   29.6270   49.7500 C   0  0  0  0  0  0  0  0  0  0  0  0
   36.1720   30.2410   48.8470 C   0  0  0  0  0  0  0  0  0  0  0  0
   34.7990   30.3080   49.1450 C   0  0  0  0  0  0  0  0  0  0  0  0
   34.3780   29.7590   50.3310 N   0  0  0  0  0  0  0  0  0  0  0  0
   35.2410   29.1760   51.1810 C   0  0  0  0  0  0  0  0  0  0  0  0
   36.5520   29.1120   50.8950 N   0  0  0  0  0  0  0  0  0  0  0  0
   38.0970   29.5820   49.5130 H   0  0  0  0  0  0  0  0  0  0  0  0
   34.1550   30.7840   48.4320 H   0  0  0  0  0  0  0  0  0  0  0  0
   34.7380   28.8030   52.0510 H   0  0  0  0  0  0  0  0  0  0  0  0
   38.3030   28.7540   42.4450 O   0  0  0  0  0  0  0  0  0  0  0  0
   40.2380   26.7960   43.1730 H   0  0  0  0  0  0  0  0  0  0  0  0
   39.2410   26.4940   43.1140 N   0  0  0  0  0  0  0  0  0  0  0  0
   38.3040   27.4170   42.7680 C   0  0  0  0  0  0  0  0  0  0  0  0
   37.0760   26.8190   42.7500 N   0  0  0  0  0  0  0  0  0  0  0  0
   37.2540   25.5170   43.0880 C   0  0  0  0  0  0  0  0  0  0  0  0
   36.4310   24.4120   43.2450 C   0  0  0  0  0  0  0  0  0  0  0  0
   36.9780   23.2480   43.5990 N   0  0  0  0  0  0  0  0  0  0  0  0
   38.2940   23.0700   43.8150 C   0  0  0  0  0  0  0  0  0  0  0  0
   38.6860   22.0890   44.1020 H   0  0  0  0  0  0  0  0  0  0  0  0
   39.1400   24.1330   43.6700 N   0  0  0  0  0  0  0  0  0  0  0  0
   38.6030   25.3260   43.3120 C   0  0  0  0  0  0  0  0  0  0  0  0
   35.0440   24.6220   43.0120 N   0  0  0  0  0  0  0  0  0  0  0  0
   34.2160   24.7860   43.6580 H   0  0  0  0  0  0  0  0  0  0  0  0
   34.7160   24.6250   42.0220 H   0  0  0  0  0  0  0  0  0  0  0  0
  1  6  1  6  0  0  0
  1  5  1  0  0  0  0
  2  1  1  0  0  0  0
  2  7  1  0  0  0  0
  2  3  1  0  0  0  0
  3  9  1  6  0  0  0
  3 12  1  0  0  0  0
  3  4  1  0  0  0  0
  4  5  1  0  0  0  0
  5 10  1  0  0  0  0
  5 11  1  0  0  0  0
  8  2  1  0  0  0  0
 12 13  1  0  0  0  0
 12 15  1  0  0  0  0
 14 12  1  0  0  0  0
 15 20  1  0  0  0  0
 16 17  1  0  0  0  0
 17 18  2  0  0  0  0
 17 22  1  0  0  0  0
 18 23  1  0  0  0  0
 19 18  1  0  0  0  0
 20 19  2  0  0  0  0
 21 20  1  0  0  0  0
 21 16  2  0  0  0  0
 24 19  1  0  0  0  0
 25 16  1  0  0  0  0
 25 28  1  0  0  0  0
 26 25  2  0  0  0  0
 27 32  1  0  0  0  0
 28 29  1  0  0  0  0
 28 27  2  0  0  0  0
 29 30  2  0  0  0  0
 30 31  1  0  0  0  0
 31 35  1  0  0  0  0
 32 31  2  0  0  0  0
 33 27  1  0  0  0  0
 34 29  1  0  0  0  0
 36  1  1  0  0  0  0
 36 39  1  0  0  0  0
 38 37  1  0  0  0  0
 38 47  1  0  0  0  0
 39 38  1  0  0  0  0
 40 39  2  0  0  0  0
 40 41  1  0  0  0  0
 41 42  2  0  0  0  0
 41 47  1  0  0  0  0
 42 43  1  0  0  0  0
 43 44  2  0  0  0  0
 44 45  1  0  0  0  0
 46 44  1  0  0  0  0
 47 46  2  0  0  0  0
 48 42  1  0  0  0  0
 48 49  1  0  0  0  0
 50 48  1  0  0  0  0
M  END
>  <minimizedAffinity>
-5.58923197

>  <minimizedRMSD>
2.49545622

$$$$
