
 OpenBabel03262522163D

 50 54  0  0  1  0  0  0  0  0999 V2000
   39.1140   29.7590   42.2200 C   0  0  1  0  0  0  0  0  0  0  0  0
   38.9900   31.2590   41.9970 C   0  0  0  0  0  0  0  0  0  0  0  0
   40.0170   31.7990   42.9460 C   0  0  2  0  0  0  0  0  0  0  0  0
   40.4790   30.7660   43.7050 O   0  0  0  0  0  0  0  0  0  0  0  0
   39.5420   29.7480   43.6770 C   0  0  0  0  0  0  0  0  0  0  0  0
   39.9630   29.3360   41.6330 H   0  0  0  0  0  0  0  0  0  0  0  0
   38.0010   31.5550   42.3590 H   0  0  0  0  0  0  0  0  0  0  0  0
   39.1980   31.5170   40.9400 H   0  0  0  0  0  0  0  0  0  0  0  0
   40.8750   32.2010   42.3500 H   0  0  0  0  0  0  0  0  0  0  0  0
   40.0900   28.8120   43.9440 H   0  0  0  0  0  0  0  0  0  0  0  0
   38.6740   29.9470   44.3320 H   0  0  0  0  0  0  0  0  0  0  0  0
   39.4660   32.9330   43.7710 C   0  0  0  0  0  0  0  0  0  0  0  0
   38.4110   32.8070   44.0370 H   0  0  0  0  0  0  0  0  0  0  0  0
   39.5610   33.8680   43.1670 H   0  0  0  0  0  0  0  0  0  0  0  0
   40.5640   33.1540   45.1940 S   0  0  0  0  0  0  0  0  0  0  0  0
   37.7730   31.7750   47.6520 C   0  0  0  0  0  0  0  0  0  0  0  0
   37.9510   32.5120   48.8230 C   0  0  0  0  0  0  0  0  0  0  0  0
   38.9380   33.4690   48.9140 C   0  0  0  0  0  0  0  0  0  0  0  0
   39.7160   33.6440   47.7990 C   0  0  0  0  0  0  0  0  0  0  0  0
   39.5290   32.9160   46.6620 C   0  0  0  0  0  0  0  0  0  0  0  0
   38.5610   31.9730   46.5660 N   0  0  0  0  0  0  0  0  0  0  0  0
   37.3010   32.3260   49.6720 H   0  0  0  0  0  0  0  0  0  0  0  0
   39.0770   34.0460   49.8300 H   0  0  0  0  0  0  0  0  0  0  0  0
   40.5150   34.3780   47.7880 H   0  0  0  0  0  0  0  0  0  0  0  0
   36.7170   30.7920   47.6380 C   0  0  0  0  0  0  0  0  0  0  0  0
   36.2370   30.3770   46.5830 O   0  0  0  0  0  0  0  0  0  0  0  0
   37.0370   29.6280   49.7930 C   0  0  0  0  0  0  0  0  0  0  0  0
   36.1520   30.2280   48.8810 C   0  0  0  0  0  0  0  0  0  0  0  0
   34.7750   30.2770   49.1640 C   0  0  0  0  0  0  0  0  0  0  0  0
   34.3500   29.7240   50.3470 N   0  0  0  0  0  0  0  0  0  0  0  0
   35.2120   29.1540   51.2070 C   0  0  0  0  0  0  0  0  0  0  0  0
   36.5270   29.1080   50.9330 N   0  0  0  0  0  0  0  0  0  0  0  0
   38.0790   29.5970   49.5670 H   0  0  0  0  0  0  0  0  0  0  0  0
   34.1320   30.7420   48.4440 H   0  0  0  0  0  0  0  0  0  0  0  0
   34.7060   28.7760   52.0720 H   0  0  0  0  0  0  0  0  0  0  0  0
   37.9030   29.1250   42.0300 O   0  0  0  0  0  0  0  0  0  0  0  0
   35.9370   27.6090   43.4260 H   0  0  0  0  0  0  0  0  0  0  0  0
   36.6790   27.0860   42.9120 N   0  0  0  0  0  0  0  0  0  0  0  0
   37.6260   27.7950   42.2400 C   0  0  0  0  0  0  0  0  0  0  0  0
   38.4920   26.9230   41.6420 N   0  0  0  0  0  0  0  0  0  0  0  0
   38.0800   25.6670   41.9460 C   0  0  0  0  0  0  0  0  0  0  0  0
   38.5140   24.3840   41.6570 C   0  0  0  0  0  0  0  0  0  0  0  0
   37.8330   23.3470   42.1470 N   0  0  0  0  0  0  0  0  0  0  0  0
   36.7350   23.4650   42.9160 C   0  0  0  0  0  0  0  0  0  0  0  0
   36.2170   22.5770   43.2900 H   0  0  0  0  0  0  0  0  0  0  0  0
   36.2740   24.7130   43.2250 N   0  0  0  0  0  0  0  0  0  0  0  0
   36.9520   25.7800   42.7360 C   0  0  0  0  0  0  0  0  0  0  0  0
   39.6770   24.2800   40.8430 N   0  0  0  0  0  0  0  0  0  0  0  0
   39.8240   24.0960   39.8080 H   0  0  0  0  0  0  0  0  0  0  0  0
   40.6030   24.4050   41.3060 H   0  0  0  0  0  0  0  0  0  0  0  0
  1  6  1  6  0  0  0
  1  5  1  0  0  0  0
  2  1  1  0  0  0  0
  2  7  1  0  0  0  0
  2  3  1  0  0  0  0
  3  9  1  6  0  0  0
  3  4  1  0  0  0  0
  3 12  1  0  0  0  0
  5  4  1  0  0  0  0
  5 10  1  0  0  0  0
  5 11  1  0  0  0  0
  8  2  1  0  0  0  0
 12 13  1  0  0  0  0
 12 15  1  0  0  0  0
 14 12  1  0  0  0  0
 15 20  1  0  0  0  0
 16 17  1  0  0  0  0
 17 18  2  0  0  0  0
 17 22  1  0  0  0  0
 18 23  1  0  0  0  0
 19 18  1  0  0  0  0
 20 19  2  0  0  0  0
 21 20  1  0  0  0  0
 21 16  2  0  0  0  0
 24 19  1  0  0  0  0
 25 16  1  0  0  0  0
 25 28  1  0  0  0  0
 26 25  2  0  0  0  0
 27 32  1  0  0  0  0
 28 29  1  0  0  0  0
 28 27  2  0  0  0  0
 29 30  2  0  0  0  0
 30 31  1  0  0  0  0
 31 35  1  0  0  0  0
 32 31  2  0  0  0  0
 33 27  1  0  0  0  0
 34 29  1  0  0  0  0
 36  1  1  0  0  0  0
 36 39  1  0  0  0  0
 38 37  1  0  0  0  0
 39 38  1  0  0  0  0
 40 41  1  0  0  0  0
 40 39  2  0  0  0  0
 41 47  1  0  0  0  0
 42 41  2  0  0  0  0
 42 43  1  0  0  0  0
 43 44  2  0  0  0  0
 44 46  1  0  0  0  0
 44 45  1  0  0  0  0
 47 38  1  0  0  0  0
 47 46  2  0  0  0  0
 48 50  1  0  0  0  0
 48 42  1  0  0  0  0
 49 48  1  0  0  0  0
M  END
>  <minimizedAffinity>
-5.62488985

>  <minimizedRMSD>
1.60255933

$$$$
