
 OpenBabel03262520523D

 53 58  0  0  1  0  0  0  0  0999 V2000
   37.7870   26.1430   33.5620 C   0  0  0  0  0  0  0  0  0  0  0  0
   36.9880   26.8280   32.6640 C   0  0  0  0  0  0  0  0  0  0  0  0
   36.1970   26.1230   31.7500 C   0  0  0  0  0  0  0  0  0  0  0  0
   36.2080   24.7420   31.7370 C   0  0  0  0  0  0  0  0  0  0  0  0
   35.5460   23.8580   30.9670 N   0  0  0  0  0  0  0  0  0  0  0  0
   35.9240   22.6400   31.3770 C   0  0  0  0  0  0  0  0  0  0  0  0
   36.8270   22.6940   32.4040 C   0  0  0  0  0  0  0  0  0  0  0  0
   37.0020   24.0520   32.6280 C   0  0  0  0  0  0  0  0  0  0  0  0
   37.7770   24.7570   33.5240 C   0  0  0  0  0  0  0  0  0  0  0  0
   38.4320   26.5820   34.3090 H   0  0  0  0  0  0  0  0  0  0  0  0
   35.5850   26.7020   31.0640 H   0  0  0  0  0  0  0  0  0  0  0  0
   34.8740   24.1210   30.2080 H   0  0  0  0  0  0  0  0  0  0  0  0
   35.5290   21.7470   30.9110 H   0  0  0  0  0  0  0  0  0  0  0  0
   37.2970   21.8730   32.9260 H   0  0  0  0  0  0  0  0  0  0  0  0
   38.5800   23.9960   34.4240 N   0  0  0  0  0  0  0  0  0  0  0  0
   39.6190   23.2820   33.9140 C   0  0  0  0  0  0  0  0  0  0  0  0
   39.9780   23.1730   32.8880 H   0  0  0  0  0  0  0  0  0  0  0  0
   40.2200   22.6530   34.9580 N   0  0  0  0  0  0  0  0  0  0  0  0
   39.5620   22.9750   36.0900 C   0  0  0  0  0  0  0  0  0  0  0  0
   39.6570   22.6840   37.4420 C   0  0  0  0  0  0  0  0  0  0  0  0
   38.7900   23.2070   38.3110 N   0  0  0  0  0  0  0  0  0  0  0  0
   37.7960   24.0300   37.9430 C   0  0  0  0  0  0  0  0  0  0  0  0
   37.1590   24.3910   38.7310 H   0  0  0  0  0  0  0  0  0  0  0  0
   37.6620   24.3440   36.6310 N   0  0  0  0  0  0  0  0  0  0  0  0
   38.5210   23.8290   35.7500 C   0  0  0  0  0  0  0  0  0  0  0  0
   40.7090   21.8110   37.8470 N   0  0  0  0  0  0  0  0  0  0  0  0
   40.5000   21.0820   38.5860 H   0  0  0  0  0  0  0  0  0  0  0  0
   41.6920   21.7810   37.5130 H   0  0  0  0  0  0  0  0  0  0  0  0
   36.9910   28.3240   32.7000 C   0  0  0  0  0  0  0  0  0  0  0  0
   37.3680   28.6420   31.6930 H   0  0  0  0  0  0  0  0  0  0  0  0
   37.6590   28.7040   33.5030 H   0  0  0  0  0  0  0  0  0  0  0  0
   35.5610   28.7780   32.8820 C   0  0  0  0  0  0  0  0  0  0  0  0
   34.9090   27.8950   32.6520 H   0  0  0  0  0  0  0  0  0  0  0  0
   35.4130   29.6150   32.1550 H   0  0  0  0  0  0  0  0  0  0  0  0
   34.2890   30.3410   34.4040 C   0  0  1  0  0  0  0  0  0  0  0  0
   35.7250   30.4650   34.8590 C   0  0  0  0  0  0  0  0  0  0  0  0
   35.2260   29.2100   34.2630 C   0  0  2  0  0  0  0  0  0  0  0  0
   33.9690   30.8980   33.4890 H   0  0  0  0  0  0  0  0  0  0  0  0
   36.4370   31.0370   34.2180 H   0  0  0  0  0  0  0  0  0  0  0  0
   35.9820   30.5190   35.9190 H   0  0  0  0  0  0  0  0  0  0  0  0
   35.0590   28.3950   35.0300 H   0  0  0  0  0  0  0  0  0  0  0  0
   33.2720   30.3900   35.4980 C   0  0  0  0  0  0  0  0  0  0  0  0
   32.7770   31.3950   35.4500 H   0  0  0  0  0  0  0  0  0  0  0  0
   33.7520   30.3150   36.4950 H   0  0  0  0  0  0  0  0  0  0  0  0
   31.0480   27.5120   36.4060 C   0  0  0  0  0  0  0  0  0  0  0  0
   31.9920   28.5740   36.4930 C   0  0  0  0  0  0  0  0  0  0  0  0
   32.2830   29.2920   35.3680 C   0  0  0  0  0  0  0  0  0  0  0  0
   31.6600   28.9590   34.2330 N   0  0  0  0  0  0  0  0  0  0  0  0
   30.7740   27.9640   34.1460 C   0  0  0  0  0  0  0  0  0  0  0  0
   30.4800   27.2510   35.2420 N   0  0  0  0  0  0  0  0  0  0  0  0
   30.8560   26.9730   37.3430 H   0  0  0  0  0  0  0  0  0  0  0  0
   32.4720   28.8070   37.4360 H   0  0  0  0  0  0  0  0  0  0  0  0
   30.2720   27.6950   33.2270 H   0  0  0  0  0  0  0  0  0  0  0  0
  1 10  1  0  0  0  0
  2 29  1  0  0  0  0
  2  1  2  0  0  0  0
  3  2  1  0  0  0  0
  4  3  2  0  0  0  0
  4  8  1  0  0  0  0
  5  6  1  0  0  0  0
  5  4  1  0  0  0  0
  6  7  2  0  0  0  0
  7  8  1  0  0  0  0
  7 14  1  0  0  0  0
  8  9  2  0  0  0  0
  9  1  1  0  0  0  0
  9 15  1  0  0  0  0
 11  3  1  0  0  0  0
 12  5  1  0  0  0  0
 13  6  1  0  0  0  0
 15 25  1  0  0  0  0
 16 15  1  0  0  0  0
 16 18  2  0  0  0  0
 17 16  1  0  0  0  0
 18 19  1  0  0  0  0
 19 20  1  0  0  0  0
 20 26  1  0  0  0  0
 20 21  2  0  0  0  0
 22 21  1  0  0  0  0
 22 23  1  0  0  0  0
 24 22  2  0  0  0  0
 25 19  2  0  0  0  0
 25 24  1  0  0  0  0
 26 27  1  0  0  0  0
 28 26  1  0  0  0  0
 29 32  1  0  0  0  0
 29 31  1  0  0  0  0
 30 29  1  0  0  0  0
 32 37  1  0  0  0  0
 33 32  1  0  0  0  0
 34 32  1  0  0  0  0
 35 38  1  6  0  0  0
 35 36  1  0  0  0  0
 35 42  1  0  0  0  0
 36 40  1  0  0  0  0
 37 35  1  0  0  0  0
 37 36  1  0  0  0  0
 37 41  1  1  0  0  0
 39 36  1  0  0  0  0
 42 44  1  0  0  0  0
 43 42  1  0  0  0  0
 45 46  1  0  0  0  0
 45 51  1  0  0  0  0
 46 52  1  0  0  0  0
 47 42  1  0  0  0  0
 47 46  2  0  0  0  0
 48 47  1  0  0  0  0
 49 48  2  0  0  0  0
 49 50  1  0  0  0  0
 50 45  2  0  0  0  0
 53 49  1  0  0  0  0
M  END
>  <minimizedAffinity>
-7.00547647

$$$$

 OpenBabel03262520523D

 53 58  0  0  1  0  0  0  0  0999 V2000
   35.9220   29.5600   33.1530 C   0  0  0  0  0  0  0  0  0  0  0  0
   35.5740   30.8720   32.8870 C   0  0  0  0  0  0  0  0  0  0  0  0
   35.8410   31.4270   31.6300 C   0  0  0  0  0  0  0  0  0  0  0  0
   36.4530   30.6730   30.6490 C   0  0  0  0  0  0  0  0  0  0  0  0
   36.8060   30.9790   29.3860 N   0  0  0  0  0  0  0  0  0  0  0  0
   37.3660   29.8760   28.8700 C   0  0  0  0  0  0  0  0  0  0  0  0
   37.3940   28.8410   29.7650 C   0  0  0  0  0  0  0  0  0  0  0  0
   36.8040   29.3640   30.9060 C   0  0  0  0  0  0  0  0  0  0  0  0
   36.5360   28.8270   32.1480 C   0  0  0  0  0  0  0  0  0  0  0  0
   35.7630   29.0300   34.0800 H   0  0  0  0  0  0  0  0  0  0  0  0
   35.5500   32.4620   31.4660 H   0  0  0  0  0  0  0  0  0  0  0  0
   36.6510   31.9130   28.9390 H   0  0  0  0  0  0  0  0  0  0  0  0
   37.7380   29.8630   27.8550 H   0  0  0  0  0  0  0  0  0  0  0  0
   37.7830   27.8430   29.6220 H   0  0  0  0  0  0  0  0  0  0  0  0
   36.9180   27.4700   32.3620 N   0  0  0  0  0  0  0  0  0  0  0  0
   38.0260   27.2250   33.1120 C   0  0  0  0  0  0  0  0  0  0  0  0
   38.7190   27.9060   33.6100 H   0  0  0  0  0  0  0  0  0  0  0  0
   38.1760   25.8750   33.1690 N   0  0  0  0  0  0  0  0  0  0  0  0
   37.1780   25.3020   32.4660 C   0  0  0  0  0  0  0  0  0  0  0  0
   36.7680   24.0190   32.1410 C   0  0  0  0  0  0  0  0  0  0  0  0
   35.6820   23.8240   31.3900 N   0  0  0  0  0  0  0  0  0  0  0  0
   34.9340   24.8310   30.9140 C   0  0  0  0  0  0  0  0  0  0  0  0
   34.0820   24.5540   30.3200 H   0  0  0  0  0  0  0  0  0  0  0  0
   35.2970   26.1050   31.2050 N   0  0  0  0  0  0  0  0  0  0  0  0
   36.3790   26.3160   31.9550 C   0  0  0  0  0  0  0  0  0  0  0  0
   37.5520   22.9380   32.6400 N   0  0  0  0  0  0  0  0  0  0  0  0
   37.7350   22.1130   32.0010 H   0  0  0  0  0  0  0  0  0  0  0  0
   37.9910   22.8330   33.5750 H   0  0  0  0  0  0  0  0  0  0  0  0
   34.9100   31.6690   33.9650 C   0  0  0  0  0  0  0  0  0  0  0  0
   33.9560   31.1240   34.1880 H   0  0  0  0  0  0  0  0  0  0  0  0
   34.6960   32.7040   33.6250 H   0  0  0  0  0  0  0  0  0  0  0  0
   35.8150   31.6390   35.1760 C   0  0  0  0  0  0  0  0  0  0  0  0
   36.4220   32.5810   35.1500 H   0  0  0  0  0  0  0  0  0  0  0  0
   36.4480   30.7240   35.0590 H   0  0  0  0  0  0  0  0  0  0  0  0
   33.6470   31.8810   36.4460 C   0  0  1  0  0  0  0  0  0  0  0  0
   34.5880   32.8470   37.1280 C   0  0  0  0  0  0  0  0  0  0  0  0
   35.0990   31.6250   36.4770 C   0  0  2  0  0  0  0  0  0  0  0  0
   33.1700   32.1910   35.4830 H   0  0  0  0  0  0  0  0  0  0  0  0
   34.8420   33.7990   36.6050 H   0  0  0  0  0  0  0  0  0  0  0  0
   34.6030   32.9520   38.2150 H   0  0  0  0  0  0  0  0  0  0  0  0
   35.3940   30.8230   37.2170 H   0  0  0  0  0  0  0  0  0  0  0  0
   32.7010   31.1690   37.3570 C   0  0  0  0  0  0  0  0  0  0  0  0
   31.9230   31.9090   37.6790 H   0  0  0  0  0  0  0  0  0  0  0  0
   33.2150   30.8220   38.2770 H   0  0  0  0  0  0  0  0  0  0  0  0
   31.2590   28.9800   34.6760 C   0  0  0  0  0  0  0  0  0  0  0  0
   31.8480   30.0870   35.3490 C   0  0  0  0  0  0  0  0  0  0  0  0
   32.0880   29.9940   36.6910 C   0  0  0  0  0  0  0  0  0  0  0  0
   31.7540   28.8560   37.3090 N   0  0  0  0  0  0  0  0  0  0  0  0
   31.2020   27.8130   36.6820 C   0  0  0  0  0  0  0  0  0  0  0  0
   30.9620   27.8930   35.3660 N   0  0  0  0  0  0  0  0  0  0  0  0
   31.0920   29.1160   33.5990 H   0  0  0  0  0  0  0  0  0  0  0  0
   32.1010   30.9900   34.8050 H   0  0  0  0  0  0  0  0  0  0  0  0
   30.9330   26.8950   37.1830 H   0  0  0  0  0  0  0  0  0  0  0  0
  1 10  1  0  0  0  0
  2  1  1  0  0  0  0
  2 29  1  0  0  0  0
  3  2  2  0  0  0  0
  4  8  2  0  0  0  0
  4  3  1  0  0  0  0
  5  4  1  0  0  0  0
  6  5  1  0  0  0  0
  6  7  2  0  0  0  0
  7  8  1  0  0  0  0
  8  9  1  0  0  0  0
  9 15  1  0  0  0  0
  9  1  2  0  0  0  0
 11  3  1  0  0  0  0
 12  5  1  0  0  0  0
 13  6  1  0  0  0  0
 14  7  1  0  0  0  0
 15 16  1  0  0  0  0
 16 18  2  0  0  0  0
 16 17  1  0  0  0  0
 19 18  1  0  0  0  0
 20 19  1  0  0  0  0
 20 26  1  0  0  0  0
 21 20  2  0  0  0  0
 22 24  2  0  0  0  0
 22 21  1  0  0  0  0
 23 22  1  0  0  0  0
 24 25  1  0  0  0  0
 25 15  1  0  0  0  0
 25 19  2  0  0  0  0
 26 28  1  0  0  0  0
 27 26  1  0  0  0  0
 29 30  1  0  0  0  0
 29 32  1  0  0  0  0
 31 29  1  0  0  0  0
 32 37  1  0  0  0  0
 33 32  1  0  0  0  0
 34 32  1  0  0  0  0
 35 38  1  6  0  0  0
 35 37  1  0  0  0  0
 35 36  1  0  0  0  0
 35 42  1  0  0  0  0
 36 40  1  0  0  0  0
 37 36  1  0  0  0  0
 37 41  1  1  0  0  0
 39 36  1  0  0  0  0
 42 43  1  0  0  0  0
 42 44  1  0  0  0  0
 45 46  2  0  0  0  0
 45 50  1  0  0  0  0
 46 47  1  0  0  0  0
 47 48  2  0  0  0  0
 47 42  1  0  0  0  0
 49 53  1  0  0  0  0
 49 48  1  0  0  0  0
 50 49  2  0  0  0  0
 51 45  1  0  0  0  0
 52 46  1  0  0  0  0
M  END
>  <minimizedAffinity>
-6.71833134

$$$$

 OpenBabel03262520523D

 53 58  0  0  1  0  0  0  0  0999 V2000
   37.4580   26.9000   34.4480 C   0  0  0  0  0  0  0  0  0  0  0  0
   36.6750   27.7160   33.6490 C   0  0  0  0  0  0  0  0  0  0  0  0
   36.2320   27.2590   32.4030 C   0  0  0  0  0  0  0  0  0  0  0  0
   36.5710   25.9960   31.9610 C   0  0  0  0  0  0  0  0  0  0  0  0
   36.2710   25.3460   30.8200 N   0  0  0  0  0  0  0  0  0  0  0  0
   36.8560   24.1430   30.9040 C   0  0  0  0  0  0  0  0  0  0  0  0
   37.5410   23.9790   32.0780 C   0  0  0  0  0  0  0  0  0  0  0  0
   37.3510   25.1770   32.7500 C   0  0  0  0  0  0  0  0  0  0  0  0
   37.7820   25.6380   33.9760 C   0  0  0  0  0  0  0  0  0  0  0  0
   37.8510   27.1460   35.4230 H   0  0  0  0  0  0  0  0  0  0  0  0
   35.6190   27.9330   31.8100 H   0  0  0  0  0  0  0  0  0  0  0  0
   35.6880   25.7450   30.0480 H   0  0  0  0  0  0  0  0  0  0  0  0
   36.7640   23.4220   30.1040 H   0  0  0  0  0  0  0  0  0  0  0  0
   38.1020   23.1180   32.4110 H   0  0  0  0  0  0  0  0  0  0  0  0
   38.5860   24.7530   34.7540 N   0  0  0  0  0  0  0  0  0  0  0  0
   39.7100   24.2380   34.1860 C   0  0  0  0  0  0  0  0  0  0  0  0
   40.1410   24.3810   33.1930 H   0  0  0  0  0  0  0  0  0  0  0  0
   40.2930   23.4360   35.1160 N   0  0  0  0  0  0  0  0  0  0  0  0
   39.5400   23.4580   36.2350 C   0  0  0  0  0  0  0  0  0  0  0  0
   39.5730   22.8840   37.4960 C   0  0  0  0  0  0  0  0  0  0  0  0
   38.6130   23.1450   38.3850 N   0  0  0  0  0  0  0  0  0  0  0  0
   37.5800   23.9610   38.1240 C   0  0  0  0  0  0  0  0  0  0  0  0
   36.8670   24.0970   38.9170 H   0  0  0  0  0  0  0  0  0  0  0  0
   37.5050   24.5460   36.9030 N   0  0  0  0  0  0  0  0  0  0  0  0
   38.4560   24.2950   36.0030 C   0  0  0  0  0  0  0  0  0  0  0  0
   40.6650   22.0150   37.7880 N   0  0  0  0  0  0  0  0  0  0  0  0
   40.4700   21.1290   38.3340 H   0  0  0  0  0  0  0  0  0  0  0  0
   41.6660   22.1240   37.5340 H   0  0  0  0  0  0  0  0  0  0  0  0
   36.3180   29.0800   34.1520 C   0  0  0  0  0  0  0  0  0  0  0  0
   37.2570   29.6840   34.0540 H   0  0  0  0  0  0  0  0  0  0  0  0
   35.9880   29.0420   35.2120 H   0  0  0  0  0  0  0  0  0  0  0  0
   35.2500   29.6360   33.2380 C   0  0  0  0  0  0  0  0  0  0  0  0
   34.7470   28.7580   32.7550 H   0  0  0  0  0  0  0  0  0  0  0  0
   35.7880   30.2770   32.4970 H   0  0  0  0  0  0  0  0  0  0  0  0
   34.4990   30.9060   35.2870 C   0  0  1  0  0  0  0  0  0  0  0  0
   33.4180   29.8720   35.0730 C   0  0  0  0  0  0  0  0  0  0  0  0
   34.1890   30.4080   33.9340 C   0  0  2  0  0  0  0  0  0  0  0  0
   35.4530   30.5880   35.7770 H   0  0  0  0  0  0  0  0  0  0  0  0
   33.6420   28.8100   35.3320 H   0  0  0  0  0  0  0  0  0  0  0  0
   32.3620   30.1200   35.2030 H   0  0  0  0  0  0  0  0  0  0  0  0
   33.5980   31.1450   33.3130 H   0  0  0  0  0  0  0  0  0  0  0  0
   34.0170   32.2360   35.7670 C   0  0  0  0  0  0  0  0  0  0  0  0
   33.6170   32.0930   36.8050 H   0  0  0  0  0  0  0  0  0  0  0  0
   33.1760   32.6050   35.1460 H   0  0  0  0  0  0  0  0  0  0  0  0
   37.4000   33.7790   35.2860 C   0  0  0  0  0  0  0  0  0  0  0  0
   36.3350   32.8350   35.3250 C   0  0  0  0  0  0  0  0  0  0  0  0
   35.1010   33.2480   35.7400 C   0  0  0  0  0  0  0  0  0  0  0  0
   34.9550   34.5300   36.0920 N   0  0  0  0  0  0  0  0  0  0  0  0
   35.9510   35.4190   36.0580 C   0  0  0  0  0  0  0  0  0  0  0  0
   37.1660   35.0260   35.6530 N   0  0  0  0  0  0  0  0  0  0  0  0
   38.3670   33.3860   34.9440 H   0  0  0  0  0  0  0  0  0  0  0  0
   36.5020   31.8060   35.0300 H   0  0  0  0  0  0  0  0  0  0  0  0
   35.8310   36.4550   36.3430 H   0  0  0  0  0  0  0  0  0  0  0  0
  1 10  1  0  0  0  0
  2 29  1  0  0  0  0
  2  1  2  0  0  0  0
  3  2  1  0  0  0  0
  4  3  2  0  0  0  0
  4  8  1  0  0  0  0
  5  6  1  0  0  0  0
  5  4  1  0  0  0  0
  6  7  2  0  0  0  0
  7 14  1  0  0  0  0
  7  8  1  0  0  0  0
  8  9  2  0  0  0  0
  9  1  1  0  0  0  0
  9 15  1  0  0  0  0
 11  3  1  0  0  0  0
 12  5  1  0  0  0  0
 13  6  1  0  0  0  0
 15 25  1  0  0  0  0
 16 15  1  0  0  0  0
 16 18  2  0  0  0  0
 17 16  1  0  0  0  0
 18 19  1  0  0  0  0
 19 20  1  0  0  0  0
 20 26  1  0  0  0  0
 20 21  2  0  0  0  0
 22 21  1  0  0  0  0
 22 23  1  0  0  0  0
 24 22  2  0  0  0  0
 25 19  2  0  0  0  0
 25 24  1  0  0  0  0
 26 27  1  0  0  0  0
 28 26  1  0  0  0  0
 29 31  1  0  0  0  0
 30 29  1  0  0  0  0
 32 37  1  0  0  0  0
 32 29  1  0  0  0  0
 33 32  1  0  0  0  0
 34 32  1  0  0  0  0
 35 42  1  0  0  0  0
 35 38  1  1  0  0  0
 36 40  1  0  0  0  0
 36 35  1  0  0  0  0
 36 39  1  0  0  0  0
 37 41  1  6  0  0  0
 37 36  1  0  0  0  0
 37 35  1  0  0  0  0
 42 43  1  0  0  0  0
 44 42  1  0  0  0  0
 45 46  2  0  0  0  0
 45 50  1  0  0  0  0
 46 47  1  0  0  0  0
 47 42  1  0  0  0  0
 47 48  2  0  0  0  0
 49 48  1  0  0  0  0
 49 53  1  0  0  0  0
 50 49  2  0  0  0  0
 51 45  1  0  0  0  0
 52 46  1  0  0  0  0
M  END
>  <minimizedAffinity>
-6.66756582

$$$$

 OpenBabel03262520523D

 53 58  0  0  1  0  0  0  0  0999 V2000
   38.3190   24.8750   32.5480 C   0  0  0  0  0  0  0  0  0  0  0  0
   37.5190   25.3620   31.5290 C   0  0  0  0  0  0  0  0  0  0  0  0
   36.4980   24.5650   30.9970 C   0  0  0  0  0  0  0  0  0  0  0  0
   36.2830   23.2900   31.4830 C   0  0  0  0  0  0  0  0  0  0  0  0
   35.3800   22.3520   31.1390 N   0  0  0  0  0  0  0  0  0  0  0  0
   35.6120   21.2960   31.9300 C   0  0  0  0  0  0  0  0  0  0  0  0
   36.6520   21.5110   32.7930 C   0  0  0  0  0  0  0  0  0  0  0  0
   37.0760   22.7970   32.4970 C   0  0  0  0  0  0  0  0  0  0  0  0
   38.0790   23.5910   33.0130 C   0  0  0  0  0  0  0  0  0  0  0  0
   39.1290   25.3990   33.0320 H   0  0  0  0  0  0  0  0  0  0  0  0
   35.8950   24.9890   30.1990 H   0  0  0  0  0  0  0  0  0  0  0  0
   34.6570   22.4730   30.3920 H   0  0  0  0  0  0  0  0  0  0  0  0
   35.0130   20.3990   31.8500 H   0  0  0  0  0  0  0  0  0  0  0  0
   37.0540   20.8380   33.5370 H   0  0  0  0  0  0  0  0  0  0  0  0
   38.8700   23.0340   34.0610 N   0  0  0  0  0  0  0  0  0  0  0  0
   39.9150   22.2330   33.7210 C   0  0  0  0  0  0  0  0  0  0  0  0
   40.2860   21.9150   32.7450 H   0  0  0  0  0  0  0  0  0  0  0  0
   40.5030   21.8340   34.8800 N   0  0  0  0  0  0  0  0  0  0  0  0
   39.8300   22.3810   35.9140 C   0  0  0  0  0  0  0  0  0  0  0  0
   39.9090   22.3760   37.2970 C   0  0  0  0  0  0  0  0  0  0  0  0
   39.0320   23.0650   38.0290 N   0  0  0  0  0  0  0  0  0  0  0  0
   38.0430   23.7920   37.4870 C   0  0  0  0  0  0  0  0  0  0  0  0
   37.3960   24.3060   38.1760 H   0  0  0  0  0  0  0  0  0  0  0  0
   37.9250   23.8280   36.1370 N   0  0  0  0  0  0  0  0  0  0  0  0
   38.7940   23.1440   35.3910 C   0  0  0  0  0  0  0  0  0  0  0  0
   40.9560   21.6080   37.8870 N   0  0  0  0  0  0  0  0  0  0  0  0
   40.7370   21.0470   38.7580 H   0  0  0  0  0  0  0  0  0  0  0  0
   41.9420   21.5120   37.5780 H   0  0  0  0  0  0  0  0  0  0  0  0
   37.7710   26.7470   31.0220 C   0  0  0  0  0  0  0  0  0  0  0  0
   36.8640   27.0080   30.4160 H   0  0  0  0  0  0  0  0  0  0  0  0
   38.6840   26.7830   30.3910 H   0  0  0  0  0  0  0  0  0  0  0  0
   37.8680   27.6610   32.2230 C   0  0  0  0  0  0  0  0  0  0  0  0
   37.9530   28.7070   31.8280 H   0  0  0  0  0  0  0  0  0  0  0  0
   38.7870   27.3400   32.7740 H   0  0  0  0  0  0  0  0  0  0  0  0
   36.4530   28.8120   33.9680 C   0  0  1  0  0  0  0  0  0  0  0  0
   36.7710   27.4650   34.5750 C   0  0  0  0  0  0  0  0  0  0  0  0
   36.6790   27.6330   33.1120 C   0  0  2  0  0  0  0  0  0  0  0  0
   37.2340   29.6120   34.0070 H   0  0  0  0  0  0  0  0  0  0  0  0
   37.8020   27.2880   34.9630 H   0  0  0  0  0  0  0  0  0  0  0  0
   36.0150   26.8980   35.1240 H   0  0  0  0  0  0  0  0  0  0  0  0
   35.7240   27.2070   32.6800 H   0  0  0  0  0  0  0  0  0  0  0  0
   35.0800   29.3270   34.2540 C   0  0  0  0  0  0  0  0  0  0  0  0
   34.6750   28.7410   35.1190 H   0  0  0  0  0  0  0  0  0  0  0  0
   34.3990   29.1490   33.3980 H   0  0  0  0  0  0  0  0  0  0  0  0
   35.8910   32.5880   35.9180 C   0  0  0  0  0  0  0  0  0  0  0  0
   35.8510   31.2000   35.6070 C   0  0  0  0  0  0  0  0  0  0  0  0
   35.0970   30.7820   34.5470 C   0  0  0  0  0  0  0  0  0  0  0  0
   34.4290   31.7060   33.8490 N   0  0  0  0  0  0  0  0  0  0  0  0
   34.4630   33.0100   34.1370 C   0  0  0  0  0  0  0  0  0  0  0  0
   35.1990   33.4330   35.1740 N   0  0  0  0  0  0  0  0  0  0  0  0
   36.5140   32.8610   36.7790 H   0  0  0  0  0  0  0  0  0  0  0  0
   36.4100   30.4870   36.2010 H   0  0  0  0  0  0  0  0  0  0  0  0
   33.9220   33.7560   33.5720 H   0  0  0  0  0  0  0  0  0  0  0  0
  1  9  1  0  0  0  0
  1 10  1  0  0  0  0
  2  1  2  0  0  0  0
  3  4  2  0  0  0  0
  3  2  1  0  0  0  0
  4  8  1  0  0  0  0
  5  4  1  0  0  0  0
  5  6  1  0  0  0  0
  6  7  2  0  0  0  0
  7 14  1  0  0  0  0
  8  7  1  0  0  0  0
  8  9  2  0  0  0  0
  9 15  1  0  0  0  0
 11  3  1  0  0  0  0
 12  5  1  0  0  0  0
 13  6  1  0  0  0  0
 15 25  1  0  0  0  0
 16 15  1  0  0  0  0
 16 18  2  0  0  0  0
 17 16  1  0  0  0  0
 18 19  1  0  0  0  0
 19 20  1  0  0  0  0
 20 26  1  0  0  0  0
 20 21  2  0  0  0  0
 22 21  1  0  0  0  0
 22 23  1  0  0  0  0
 24 22  2  0  0  0  0
 25 19  2  0  0  0  0
 25 24  1  0  0  0  0
 26 27  1  0  0  0  0
 28 26  1  0  0  0  0
 29  2  1  0  0  0  0
 29 32  1  0  0  0  0
 30 29  1  0  0  0  0
 31 29  1  0  0  0  0
 32 34  1  0  0  0  0
 32 37  1  0  0  0  0
 33 32  1  0  0  0  0
 35 38  1  1  0  0  0
 35 42  1  0  0  0  0
 35 36  1  0  0  0  0
 36 39  1  0  0  0  0
 36 40  1  0  0  0  0
 37 41  1  6  0  0  0
 37 35  1  0  0  0  0
 37 36  1  0  0  0  0
 42 47  1  0  0  0  0
 42 43  1  0  0  0  0
 44 42  1  0  0  0  0
 45 51  1  0  0  0  0
 46 45  1  0  0  0  0
 46 52  1  0  0  0  0
 47 46  2  0  0  0  0
 48 49  2  0  0  0  0
 48 47  1  0  0  0  0
 49 50  1  0  0  0  0
 50 45  2  0  0  0  0
 53 49  1  0  0  0  0
M  END
>  <minimizedAffinity>
-6.61330175

$$$$

 OpenBabel03262520523D

 53 58  0  0  1  0  0  0  0  0999 V2000
   39.4970   25.1750   35.1840 C   0  0  0  0  0  0  0  0  0  0  0  0
   40.6400   25.8020   34.7200 C   0  0  0  0  0  0  0  0  0  0  0  0
   41.8910   25.1990   34.8980 C   0  0  0  0  0  0  0  0  0  0  0  0
   41.9940   23.9790   35.5370 C   0  0  0  0  0  0  0  0  0  0  0  0
   43.0660   23.2160   35.8210 N   0  0  0  0  0  0  0  0  0  0  0  0
   42.6010   22.1290   36.4520 C   0  0  0  0  0  0  0  0  0  0  0  0
   41.2400   22.1530   36.5940 C   0  0  0  0  0  0  0  0  0  0  0  0
   40.8590   23.3480   36.0020 C   0  0  0  0  0  0  0  0  0  0  0  0
   39.6320   23.9510   35.8210 C   0  0  0  0  0  0  0  0  0  0  0  0
   38.4850   25.5440   35.0990 H   0  0  0  0  0  0  0  0  0  0  0  0
   42.7610   25.7280   34.5180 H   0  0  0  0  0  0  0  0  0  0  0  0
   44.0520   23.4650   35.5750 H   0  0  0  0  0  0  0  0  0  0  0  0
   43.2720   21.3510   36.7890 H   0  0  0  0  0  0  0  0  0  0  0  0
   40.6020   21.4150   37.0590 H   0  0  0  0  0  0  0  0  0  0  0  0
   38.4910   23.2570   36.3200 N   0  0  0  0  0  0  0  0  0  0  0  0
   38.1510   23.4330   37.6260 C   0  0  0  0  0  0  0  0  0  0  0  0
   38.6110   24.0380   38.4100 H   0  0  0  0  0  0  0  0  0  0  0  0
   37.0450   22.6770   37.8530 N   0  0  0  0  0  0  0  0  0  0  0  0
   36.7110   22.0480   36.7080 C   0  0  0  0  0  0  0  0  0  0  0  0
   35.7300   21.1680   36.2770 C   0  0  0  0  0  0  0  0  0  0  0  0
   35.7130   20.7380   35.0150 N   0  0  0  0  0  0  0  0  0  0  0  0
   36.6190   21.1190   34.1020 C   0  0  0  0  0  0  0  0  0  0  0  0
   36.5060   20.7070   33.1150 H   0  0  0  0  0  0  0  0  0  0  0  0
   37.5990   21.9780   34.4760 N   0  0  0  0  0  0  0  0  0  0  0  0
   37.6300   22.4180   35.7350 C   0  0  0  0  0  0  0  0  0  0  0  0
   34.7600   20.7550   37.2360 N   0  0  0  0  0  0  0  0  0  0  0  0
   34.4550   19.7410   37.2370 H   0  0  0  0  0  0  0  0  0  0  0  0
   34.2870   21.3220   37.9670 H   0  0  0  0  0  0  0  0  0  0  0  0
   40.5020   27.1220   34.0290 C   0  0  0  0  0  0  0  0  0  0  0  0
   41.0870   27.8450   34.6570 H   0  0  0  0  0  0  0  0  0  0  0  0
   39.4370   27.4330   33.9680 H   0  0  0  0  0  0  0  0  0  0  0  0
   41.1400   26.9910   32.6650 C   0  0  0  0  0  0  0  0  0  0  0  0
   41.6310   25.9830   32.6320 H   0  0  0  0  0  0  0  0  0  0  0  0
   41.8810   27.8260   32.5950 H   0  0  0  0  0  0  0  0  0  0  0  0
   38.7480   26.9200   31.8620 C   0  0  1  0  0  0  0  0  0  0  0  0
   39.4450   25.8520   31.0510 C   0  0  0  0  0  0  0  0  0  0  0  0
   40.1800   27.0370   31.5330 C   0  0  2  0  0  0  0  0  0  0  0  0
   38.4500   26.6820   32.9130 H   0  0  0  0  0  0  0  0  0  0  0  0
   39.7160   24.8950   31.5550 H   0  0  0  0  0  0  0  0  0  0  0  0
   39.2310   25.7180   29.9880 H   0  0  0  0  0  0  0  0  0  0  0  0
   40.3880   27.7890   30.7130 H   0  0  0  0  0  0  0  0  0  0  0  0
   37.7030   27.6940   31.1250 C   0  0  0  0  0  0  0  0  0  0  0  0
   37.2270   26.9970   30.3870 H   0  0  0  0  0  0  0  0  0  0  0  0
   38.1550   28.5210   30.5420 H   0  0  0  0  0  0  0  0  0  0  0  0
   35.9400   28.5900   34.3110 C   0  0  0  0  0  0  0  0  0  0  0  0
   36.8850   28.0560   33.3910 C   0  0  0  0  0  0  0  0  0  0  0  0
   36.6980   28.2670   32.0540 C   0  0  0  0  0  0  0  0  0  0  0  0
   35.6270   28.9720   31.6750 N   0  0  0  0  0  0  0  0  0  0  0  0
   34.7370   29.4760   32.5340 C   0  0  0  0  0  0  0  0  0  0  0  0
   34.9100   29.2750   33.8480 N   0  0  0  0  0  0  0  0  0  0  0  0
   36.1460   28.3870   35.3700 H   0  0  0  0  0  0  0  0  0  0  0  0
   37.7390   27.4900   33.7450 H   0  0  0  0  0  0  0  0  0  0  0  0
   33.8720   30.0450   32.2260 H   0  0  0  0  0  0  0  0  0  0  0  0
  1  9  1  0  0  0  0
  2  3  1  0  0  0  0
  2  1  2  0  0  0  0
  3  4  2  0  0  0  0
  4  5  1  0  0  0  0
  4  8  1  0  0  0  0
  5  6  1  0  0  0  0
  6  7  2  0  0  0  0
  6 13  1  0  0  0  0
  7 14  1  0  0  0  0
  8  7  1  0  0  0  0
  9  8  2  0  0  0  0
  9 15  1  0  0  0  0
 10  1  1  0  0  0  0
 11  3  1  0  0  0  0
 12  5  1  0  0  0  0
 15 16  1  0  0  0  0
 16 18  2  0  0  0  0
 16 17  1  0  0  0  0
 19 18  1  0  0  0  0
 20 19  1  0  0  0  0
 20 26  1  0  0  0  0
 21 20  2  0  0  0  0
 22 24  2  0  0  0  0
 22 21  1  0  0  0  0
 23 22  1  0  0  0  0
 24 25  1  0  0  0  0
 25 15  1  0  0  0  0
 25 19  2  0  0  0  0
 26 27  1  0  0  0  0
 26 28  1  0  0  0  0
 29 30  1  0  0  0  0
 29  2  1  0  0  0  0
 31 29  1  0  0  0  0
 32 29  1  0  0  0  0
 33 32  1  0  0  0  0
 34 32  1  0  0  0  0
 35 38  1  1  0  0  0
 36 37  1  0  0  0  0
 36 39  1  0  0  0  0
 36 35  1  0  0  0  0
 37 41  1  6  0  0  0
 37 35  1  0  0  0  0
 37 32  1  0  0  0  0
 40 36  1  0  0  0  0
 42 35  1  0  0  0  0
 42 47  1  0  0  0  0
 43 42  1  0  0  0  0
 44 42  1  0  0  0  0
 45 51  1  0  0  0  0
 46 52  1  0  0  0  0
 46 45  2  0  0  0  0
 47 46  1  0  0  0  0
 48 47  2  0  0  0  0
 48 49  1  0  0  0  0
 49 50  2  0  0  0  0
 50 45  1  0  0  0  0
 53 49  1  0  0  0  0
M  END
>  <minimizedAffinity>
-6.51191473

$$$$

 OpenBabel03262520523D

 53 58  0  0  1  0  0  0  0  0999 V2000
   37.7710   26.0980   33.5910 C   0  0  0  0  0  0  0  0  0  0  0  0
   36.9680   26.7820   32.6940 C   0  0  0  0  0  0  0  0  0  0  0  0
   36.1820   26.0750   31.7770 C   0  0  0  0  0  0  0  0  0  0  0  0
   36.2020   24.6940   31.7590 C   0  0  0  0  0  0  0  0  0  0  0  0
   35.5460   23.8090   30.9840 N   0  0  0  0  0  0  0  0  0  0  0  0
   35.9320   22.5920   31.3900 C   0  0  0  0  0  0  0  0  0  0  0  0
   36.8320   22.6480   32.4190 C   0  0  0  0  0  0  0  0  0  0  0  0
   36.9990   24.0050   32.6480 C   0  0  0  0  0  0  0  0  0  0  0  0
   37.7690   24.7120   33.5480 C   0  0  0  0  0  0  0  0  0  0  0  0
   38.4120   26.5380   34.3400 H   0  0  0  0  0  0  0  0  0  0  0  0
   35.5680   26.6530   31.0920 H   0  0  0  0  0  0  0  0  0  0  0  0
   34.8740   24.0710   30.2260 H   0  0  0  0  0  0  0  0  0  0  0  0
   35.5420   21.6990   30.9210 H   0  0  0  0  0  0  0  0  0  0  0  0
   37.3070   21.8280   32.9380 H   0  0  0  0  0  0  0  0  0  0  0  0
   38.5760   23.9530   34.4460 N   0  0  0  0  0  0  0  0  0  0  0  0
   39.6060   23.2290   33.9310 C   0  0  0  0  0  0  0  0  0  0  0  0
   39.9540   23.1110   32.9030 H   0  0  0  0  0  0  0  0  0  0  0  0
   40.2120   22.6040   34.9750 N   0  0  0  0  0  0  0  0  0  0  0  0
   39.5660   22.9380   36.1110 C   0  0  0  0  0  0  0  0  0  0  0  0
   39.6710   22.6550   37.4630 C   0  0  0  0  0  0  0  0  0  0  0  0
   38.8150   23.1900   38.3360 N   0  0  0  0  0  0  0  0  0  0  0  0
   37.8230   24.0160   37.9720 C   0  0  0  0  0  0  0  0  0  0  0  0
   37.1950   24.3860   38.7620 H   0  0  0  0  0  0  0  0  0  0  0  0
   37.6790   24.3220   36.6580 N   0  0  0  0  0  0  0  0  0  0  0  0
   38.5270   23.7950   35.7730 C   0  0  0  0  0  0  0  0  0  0  0  0
   40.7220   21.7790   37.8660 N   0  0  0  0  0  0  0  0  0  0  0  0
   40.5150   21.0570   38.6110 H   0  0  0  0  0  0  0  0  0  0  0  0
   41.7010   21.7410   37.5230 H   0  0  0  0  0  0  0  0  0  0  0  0
   36.9630   28.2780   32.7360 C   0  0  0  0  0  0  0  0  0  0  0  0
   37.8980   28.5900   32.2020 H   0  0  0  0  0  0  0  0  0  0  0  0
   36.9700   28.6490   33.7830 H   0  0  0  0  0  0  0  0  0  0  0  0
   35.7480   28.7500   31.9690 C   0  0  0  0  0  0  0  0  0  0  0  0
   35.2080   29.4750   32.6320 H   0  0  0  0  0  0  0  0  0  0  0  0
   35.1430   27.8310   31.7640 H   0  0  0  0  0  0  0  0  0  0  0  0
   37.4670   29.4640   30.2630 C   0  0  1  0  0  0  0  0  0  0  0  0
   36.7920   30.7520   30.6740 C   0  0  0  0  0  0  0  0  0  0  0  0
   36.0610   29.4710   30.7090 C   0  0  2  0  0  0  0  0  0  0  0  0
   38.2480   29.0320   30.9370 H   0  0  0  0  0  0  0  0  0  0  0  0
   37.0340   31.1820   31.6750 H   0  0  0  0  0  0  0  0  0  0  0  0
   36.5430   31.5210   29.9390 H   0  0  0  0  0  0  0  0  0  0  0  0
   35.3240   29.3620   29.8580 H   0  0  0  0  0  0  0  0  0  0  0  0
   37.8350   29.3750   28.8180 C   0  0  0  0  0  0  0  0  0  0  0  0
   38.3150   30.3480   28.5330 H   0  0  0  0  0  0  0  0  0  0  0  0
   36.9350   29.2610   28.1810 H   0  0  0  0  0  0  0  0  0  0  0  0
   39.7980   26.2270   29.3650 C   0  0  0  0  0  0  0  0  0  0  0  0
   38.9340   27.3380   29.5770 C   0  0  0  0  0  0  0  0  0  0  0  0
   38.7420   28.2290   28.5590 C   0  0  0  0  0  0  0  0  0  0  0  0
   39.3800   28.0090   27.4050 N   0  0  0  0  0  0  0  0  0  0  0  0
   40.1910   26.9680   27.2010 C   0  0  0  0  0  0  0  0  0  0  0  0
   40.3890   26.0870   28.1920 N   0  0  0  0  0  0  0  0  0  0  0  0
   39.9110   25.5480   30.2200 H   0  0  0  0  0  0  0  0  0  0  0  0
   38.4380   27.4750   30.5300 H   0  0  0  0  0  0  0  0  0  0  0  0
   40.7070   26.7920   26.2680 H   0  0  0  0  0  0  0  0  0  0  0  0
  1 10  1  0  0  0  0
  2 29  1  0  0  0  0
  2  1  2  0  0  0  0
  3  2  1  0  0  0  0
  4  3  2  0  0  0  0
  4  8  1  0  0  0  0
  5  6  1  0  0  0  0
  5  4  1  0  0  0  0
  6  7  2  0  0  0  0
  7  8  1  0  0  0  0
  7 14  1  0  0  0  0
  8  9  2  0  0  0  0
  9  1  1  0  0  0  0
  9 15  1  0  0  0  0
 11  3  1  0  0  0  0
 12  5  1  0  0  0  0
 13  6  1  0  0  0  0
 15 25  1  0  0  0  0
 16 15  1  0  0  0  0
 16 18  2  0  0  0  0
 17 16  1  0  0  0  0
 18 19  1  0  0  0  0
 19 20  1  0  0  0  0
 20 26  1  0  0  0  0
 20 21  2  0  0  0  0
 22 21  1  0  0  0  0
 22 23  1  0  0  0  0
 24 22  2  0  0  0  0
 25 19  2  0  0  0  0
 25 24  1  0  0  0  0
 26 27  1  0  0  0  0
 28 26  1  0  0  0  0
 29 31  1  0  0  0  0
 30 29  1  0  0  0  0
 32 33  1  0  0  0  0
 32 29  1  0  0  0  0
 34 32  1  0  0  0  0
 35 36  1  0  0  0  0
 35 37  1  0  0  0  0
 35 38  1  1  0  0  0
 36 37  1  0  0  0  0
 36 39  1  0  0  0  0
 37 41  1  6  0  0  0
 37 32  1  0  0  0  0
 40 36  1  0  0  0  0
 42 35  1  0  0  0  0
 43 42  1  0  0  0  0
 44 42  1  0  0  0  0
 45 46  1  0  0  0  0
 45 51  1  0  0  0  0
 46 52  1  0  0  0  0
 47 42  1  0  0  0  0
 47 46  2  0  0  0  0
 48 47  1  0  0  0  0
 49 48  2  0  0  0  0
 49 50  1  0  0  0  0
 50 45  2  0  0  0  0
 53 49  1  0  0  0  0
M  END
>  <minimizedAffinity>
-6.48307228

$$$$

 OpenBabel03262520523D

 53 58  0  0  1  0  0  0  0  0999 V2000
   39.4400   25.2070   35.3140 C   0  0  0  0  0  0  0  0  0  0  0  0
   40.5710   25.8260   34.8110 C   0  0  0  0  0  0  0  0  0  0  0  0
   41.8100   25.1790   34.8740 C   0  0  0  0  0  0  0  0  0  0  0  0
   41.9150   23.9230   35.4380 C   0  0  0  0  0  0  0  0  0  0  0  0
   42.9780   23.1140   35.6100 N   0  0  0  0  0  0  0  0  0  0  0  0
   42.5190   22.0080   36.2100 C   0  0  0  0  0  0  0  0  0  0  0  0
   41.1710   22.0630   36.4430 C   0  0  0  0  0  0  0  0  0  0  0  0
   40.7920   23.2990   35.9420 C   0  0  0  0  0  0  0  0  0  0  0  0
   39.5760   23.9460   35.8740 C   0  0  0  0  0  0  0  0  0  0  0  0
   38.4370   25.6080   35.3160 H   0  0  0  0  0  0  0  0  0  0  0  0
   42.6710   25.7030   34.4670 H   0  0  0  0  0  0  0  0  0  0  0  0
   43.9530   23.3490   35.3140 H   0  0  0  0  0  0  0  0  0  0  0  0
   43.1850   21.1930   36.4610 H   0  0  0  0  0  0  0  0  0  0  0  0
   40.5420   21.3180   36.9080 H   0  0  0  0  0  0  0  0  0  0  0  0
   38.4470   23.2580   36.4090 N   0  0  0  0  0  0  0  0  0  0  0  0
   38.1270   23.4650   37.7150 C   0  0  0  0  0  0  0  0  0  0  0  0
   38.5950   24.0920   38.4760 H   0  0  0  0  0  0  0  0  0  0  0  0
   37.0300   22.7070   37.9790 N   0  0  0  0  0  0  0  0  0  0  0  0
   36.6820   22.0480   36.8550 C   0  0  0  0  0  0  0  0  0  0  0  0
   35.7000   21.1520   36.4630 C   0  0  0  0  0  0  0  0  0  0  0  0
   35.6660   20.6890   35.2120 N   0  0  0  0  0  0  0  0  0  0  0  0
   36.5550   21.0530   34.2750 C   0  0  0  0  0  0  0  0  0  0  0  0
   36.4280   20.6150   33.3010 H   0  0  0  0  0  0  0  0  0  0  0  0
   37.5340   21.9270   34.6120 N   0  0  0  0  0  0  0  0  0  0  0  0
   37.5830   22.3990   35.8590 C   0  0  0  0  0  0  0  0  0  0  0  0
   34.7480   20.7570   37.4480 N   0  0  0  0  0  0  0  0  0  0  0  0
   34.4490   19.7410   37.4780 H   0  0  0  0  0  0  0  0  0  0  0  0
   34.2830   21.3390   38.1710 H   0  0  0  0  0  0  0  0  0  0  0  0
   40.4310   27.1860   34.2030 C   0  0  0  0  0  0  0  0  0  0  0  0
   41.4380   27.6650   34.3210 H   0  0  0  0  0  0  0  0  0  0  0  0
   39.6530   27.7810   34.7270 H   0  0  0  0  0  0  0  0  0  0  0  0
   40.1180   26.9980   32.7360 C   0  0  0  0  0  0  0  0  0  0  0  0
   40.4940   25.9810   32.4510 H   0  0  0  0  0  0  0  0  0  0  0  0
   40.6640   27.8160   32.2020 H   0  0  0  0  0  0  0  0  0  0  0  0
   38.1450   25.9220   31.5850 C   0  0  1  0  0  0  0  0  0  0  0  0
   38.1530   27.3400   31.0630 C   0  0  0  0  0  0  0  0  0  0  0  0
   38.6700   27.0270   32.4090 C   0  0  2  0  0  0  0  0  0  0  0  0
   38.8630   25.1870   31.1430 H   0  0  0  0  0  0  0  0  0  0  0  0
   38.9310   27.6270   30.3170 H   0  0  0  0  0  0  0  0  0  0  0  0
   37.2250   27.9020   30.9350 H   0  0  0  0  0  0  0  0  0  0  0  0
   37.9630   27.3400   33.2350 H   0  0  0  0  0  0  0  0  0  0  0  0
   36.7890   25.3400   31.8170 C   0  0  0  0  0  0  0  0  0  0  0  0
   36.0590   25.9380   31.2110 H   0  0  0  0  0  0  0  0  0  0  0  0
   36.4850   25.4420   32.8790 H   0  0  0  0  0  0  0  0  0  0  0  0
   37.9310   21.9140   30.8090 C   0  0  0  0  0  0  0  0  0  0  0  0
   37.9340   23.2930   31.1640 C   0  0  0  0  0  0  0  0  0  0  0  0
   36.7460   23.9030   31.4520 C   0  0  0  0  0  0  0  0  0  0  0  0
   35.6320   23.1670   31.3850 N   0  0  0  0  0  0  0  0  0  0  0  0
   35.6240   21.8740   31.0530 C   0  0  0  0  0  0  0  0  0  0  0  0
   36.7820   21.2640   30.7680 N   0  0  0  0  0  0  0  0  0  0  0  0
   38.9160   21.4820   30.5890 H   0  0  0  0  0  0  0  0  0  0  0  0
   38.8630   23.8480   31.2050 H   0  0  0  0  0  0  0  0  0  0  0  0
   34.7220   21.2810   30.9990 H   0  0  0  0  0  0  0  0  0  0  0  0
  1 10  1  0  0  0  0
  1  9  1  0  0  0  0
  2  3  1  0  0  0  0
  2  1  2  0  0  0  0
  3  4  2  0  0  0  0
  4  5  1  0  0  0  0
  4  8  1  0  0  0  0
  5  6  1  0  0  0  0
  6  7  2  0  0  0  0
  6 13  1  0  0  0  0
  7 14  1  0  0  0  0
  8  7  1  0  0  0  0
  9  8  2  0  0  0  0
  9 15  1  0  0  0  0
 11  3  1  0  0  0  0
 12  5  1  0  0  0  0
 15 16  1  0  0  0  0
 16 18  2  0  0  0  0
 16 17  1  0  0  0  0
 19 18  1  0  0  0  0
 20 19  1  0  0  0  0
 20 26  1  0  0  0  0
 21 20  2  0  0  0  0
 22 24  2  0  0  0  0
 22 21  1  0  0  0  0
 23 22  1  0  0  0  0
 24 25  1  0  0  0  0
 25 15  1  0  0  0  0
 25 19  2  0  0  0  0
 26 27  1  0  0  0  0
 26 28  1  0  0  0  0
 29 30  1  0  0  0  0
 29 31  1  0  0  0  0
 29  2  1  0  0  0  0
 32 29  1  0  0  0  0
 33 32  1  0  0  0  0
 34 32  1  0  0  0  0
 35 38  1  6  0  0  0
 35 42  1  0  0  0  0
 35 37  1  0  0  0  0
 36 35  1  0  0  0  0
 36 37  1  0  0  0  0
 37 32  1  0  0  0  0
 37 41  1  1  0  0  0
 39 36  1  0  0  0  0
 40 36  1  0  0  0  0
 42 44  1  0  0  0  0
 43 42  1  0  0  0  0
 45 46  1  0  0  0  0
 46 52  1  0  0  0  0
 46 47  2  0  0  0  0
 47 42  1  0  0  0  0
 48 47  1  0  0  0  0
 49 48  2  0  0  0  0
 50 45  2  0  0  0  0
 50 49  1  0  0  0  0
 51 45  1  0  0  0  0
 53 49  1  0  0  0  0
M  END
>  <minimizedAffinity>
-6.43893051

$$$$

 OpenBabel03262520523D

 53 58  0  0  1  0  0  0  0  0999 V2000
   36.5990   28.4100   34.8400 C   0  0  0  0  0  0  0  0  0  0  0  0
   37.5750   27.4580   34.6060 C   0  0  0  0  0  0  0  0  0  0  0  0
   37.9500   27.1450   33.2940 C   0  0  0  0  0  0  0  0  0  0  0  0
   37.3490   27.7810   32.2260 C   0  0  0  0  0  0  0  0  0  0  0  0
   37.5360   27.6520   30.8990 N   0  0  0  0  0  0  0  0  0  0  0  0
   36.6910   28.5100   30.3120 C   0  0  0  0  0  0  0  0  0  0  0  0
   35.9430   29.2080   31.2220 C   0  0  0  0  0  0  0  0  0  0  0  0
   36.3740   28.7300   32.4500 C   0  0  0  0  0  0  0  0  0  0  0  0
   36.0130   29.0310   33.7470 C   0  0  0  0  0  0  0  0  0  0  0  0
   36.2350   28.7310   35.8050 H   0  0  0  0  0  0  0  0  0  0  0  0
   38.7210   26.3910   33.1580 H   0  0  0  0  0  0  0  0  0  0  0  0
   38.2230   26.9960   30.4590 H   0  0  0  0  0  0  0  0  0  0  0  0
   36.6470   28.6000   29.2350 H   0  0  0  0  0  0  0  0  0  0  0  0
   35.1890   29.9580   31.0330 H   0  0  0  0  0  0  0  0  0  0  0  0
   35.0010   30.0200   33.9240 N   0  0  0  0  0  0  0  0  0  0  0  0
   35.3740   31.2480   34.3760 C   0  0  0  0  0  0  0  0  0  0  0  0
   36.3550   31.6450   34.6450 H   0  0  0  0  0  0  0  0  0  0  0  0
   34.2450   31.9990   34.4600 N   0  0  0  0  0  0  0  0  0  0  0  0
   33.1970   31.2470   34.0660 C   0  0  0  0  0  0  0  0  0  0  0  0
   31.8280   31.4030   33.9210 C   0  0  0  0  0  0  0  0  0  0  0  0
   31.0730   30.3930   33.4860 N   0  0  0  0  0  0  0  0  0  0  0  0
   31.5760   29.1910   33.1660 C   0  0  0  0  0  0  0  0  0  0  0  0
   30.8710   28.4530   32.8270 H   0  0  0  0  0  0  0  0  0  0  0  0
   32.9110   28.9900   33.2920 N   0  0  0  0  0  0  0  0  0  0  0  0
   33.6800   29.9900   33.7250 C   0  0  0  0  0  0  0  0  0  0  0  0
   31.2790   32.6750   34.2570 N   0  0  0  0  0  0  0  0  0  0  0  0
   30.3570   32.7030   34.7780 H   0  0  0  0  0  0  0  0  0  0  0  0
   31.6620   33.6200   34.0600 H   0  0  0  0  0  0  0  0  0  0  0  0
   38.2140   26.7850   35.7810 C   0  0  0  0  0  0  0  0  0  0  0  0
   37.7710   27.2840   36.6820 H   0  0  0  0  0  0  0  0  0  0  0  0
   39.3170   26.9150   35.7660 H   0  0  0  0  0  0  0  0  0  0  0  0
   37.8080   25.3290   35.7460 C   0  0  0  0  0  0  0  0  0  0  0  0
   38.4080   24.8440   34.9330 H   0  0  0  0  0  0  0  0  0  0  0  0
   36.7110   25.3250   35.5240 H   0  0  0  0  0  0  0  0  0  0  0  0
   38.8210   23.3040   36.8630 C   0  0  1  0  0  0  0  0  0  0  0  0
   37.3990   23.3380   37.3730 C   0  0  0  0  0  0  0  0  0  0  0  0
   38.0980   24.5820   36.9970 C   0  0  2  0  0  0  0  0  0  0  0  0
   39.0110   22.8920   35.8410 H   0  0  0  0  0  0  0  0  0  0  0  0
   36.5790   23.0320   36.6800 H   0  0  0  0  0  0  0  0  0  0  0  0
   37.1650   23.1190   38.4170 H   0  0  0  0  0  0  0  0  0  0  0  0
   38.4280   25.1890   37.8930 H   0  0  0  0  0  0  0  0  0  0  0  0
   39.8420   22.8670   37.8630 C   0  0  0  0  0  0  0  0  0  0  0  0
   39.3720   22.0700   38.4960 H   0  0  0  0  0  0  0  0  0  0  0  0
   40.1170   23.6980   38.5430 H   0  0  0  0  0  0  0  0  0  0  0  0
   42.8030   22.7200   35.5670 C   0  0  0  0  0  0  0  0  0  0  0  0
   41.6210   23.1620   36.2260 C   0  0  0  0  0  0  0  0  0  0  0  0
   41.0740   22.3740   37.2000 C   0  0  0  0  0  0  0  0  0  0  0  0
   41.6830   21.2190   37.4860 N   0  0  0  0  0  0  0  0  0  0  0  0
   42.7920   20.8000   36.8720 C   0  0  0  0  0  0  0  0  0  0  0  0
   43.3380   21.5630   35.9150 N   0  0  0  0  0  0  0  0  0  0  0  0
   43.1930   23.3960   34.7960 H   0  0  0  0  0  0  0  0  0  0  0  0
   41.1630   24.1060   35.9590 H   0  0  0  0  0  0  0  0  0  0  0  0
   43.2820   19.8660   37.1040 H   0  0  0  0  0  0  0  0  0  0  0  0
  1 10  1  0  0  0  0
  2  1  1  0  0  0  0
  2 29  1  0  0  0  0
  3  2  2  0  0  0  0
  4  8  2  0  0  0  0
  4  3  1  0  0  0  0
  5  4  1  0  0  0  0
  6  5  1  0  0  0  0
  6  7  2  0  0  0  0
  7  8  1  0  0  0  0
  8  9  1  0  0  0  0
  9 15  1  0  0  0  0
  9  1  2  0  0  0  0
 11  3  1  0  0  0  0
 12  5  1  0  0  0  0
 13  6  1  0  0  0  0
 14  7  1  0  0  0  0
 15 16  1  0  0  0  0
 16 18  2  0  0  0  0
 16 17  1  0  0  0  0
 19 18  1  0  0  0  0
 20 19  1  0  0  0  0
 20 26  1  0  0  0  0
 21 20  2  0  0  0  0
 22 24  2  0  0  0  0
 22 21  1  0  0  0  0
 23 22  1  0  0  0  0
 24 25  1  0  0  0  0
 25 15  1  0  0  0  0
 25 19  2  0  0  0  0
 26 27  1  0  0  0  0
 28 26  1  0  0  0  0
 29 30  1  0  0  0  0
 31 29  1  0  0  0  0
 32 29  1  0  0  0  0
 32 37  1  0  0  0  0
 33 32  1  0  0  0  0
 34 32  1  0  0  0  0
 35 38  1  6  0  0  0
 35 37  1  0  0  0  0
 35 36  1  0  0  0  0
 35 42  1  0  0  0  0
 36 40  1  0  0  0  0
 37 36  1  0  0  0  0
 37 41  1  1  0  0  0
 39 36  1  0  0  0  0
 42 43  1  0  0  0  0
 42 44  1  0  0  0  0
 45 50  2  0  0  0  0
 45 46  1  0  0  0  0
 46 47  2  0  0  0  0
 47 48  1  0  0  0  0
 47 42  1  0  0  0  0
 49 53  1  0  0  0  0
 49 48  2  0  0  0  0
 50 49  1  0  0  0  0
 51 45  1  0  0  0  0
 52 46  1  0  0  0  0
M  END
>  <minimizedAffinity>
-6.40191078

$$$$

 OpenBabel03262520523D

 53 58  0  0  1  0  0  0  0  0999 V2000
   37.2270   26.8880   34.9390 C   0  0  0  0  0  0  0  0  0  0  0  0
   36.6840   27.7890   34.0400 C   0  0  0  0  0  0  0  0  0  0  0  0
   36.5670   27.4450   32.6880 C   0  0  0  0  0  0  0  0  0  0  0  0
   36.9920   26.2090   32.2430 C   0  0  0  0  0  0  0  0  0  0  0  0
   36.9820   25.6590   31.0130 N   0  0  0  0  0  0  0  0  0  0  0  0
   37.5110   24.4350   31.1420 C   0  0  0  0  0  0  0  0  0  0  0  0
   37.8720   24.1570   32.4330 C   0  0  0  0  0  0  0  0  0  0  0  0
   37.5340   25.3060   33.1320 C   0  0  0  0  0  0  0  0  0  0  0  0
   37.6450   25.6550   34.4620 C   0  0  0  0  0  0  0  0  0  0  0  0
   37.3630   27.0440   35.9990 H   0  0  0  0  0  0  0  0  0  0  0  0
   36.1350   28.1840   32.0180 H   0  0  0  0  0  0  0  0  0  0  0  0
   36.6210   26.1370   30.1550 H   0  0  0  0  0  0  0  0  0  0  0  0
   37.6160   23.7810   30.2870 H   0  0  0  0  0  0  0  0  0  0  0  0
   38.3190   23.2540   32.8230 H   0  0  0  0  0  0  0  0  0  0  0  0
   38.2120   24.6860   35.3400 N   0  0  0  0  0  0  0  0  0  0  0  0
   37.3780   24.0070   36.1740 C   0  0  0  0  0  0  0  0  0  0  0  0
   36.2960   24.0650   36.3080 H   0  0  0  0  0  0  0  0  0  0  0  0
   38.1490   23.1540   36.8990 N   0  0  0  0  0  0  0  0  0  0  0  0
   39.4340   23.3060   36.5170 C   0  0  0  0  0  0  0  0  0  0  0  0
   40.6660   22.7630   36.8460 C   0  0  0  0  0  0  0  0  0  0  0  0
   41.7750   23.1770   36.2320 N   0  0  0  0  0  0  0  0  0  0  0  0
   41.7720   24.1200   35.2780 C   0  0  0  0  0  0  0  0  0  0  0  0
   42.7270   24.3740   34.8530 H   0  0  0  0  0  0  0  0  0  0  0  0
   40.5900   24.6820   34.9210 N   0  0  0  0  0  0  0  0  0  0  0  0
   39.4720   24.2790   35.5260 C   0  0  0  0  0  0  0  0  0  0  0  0
   40.6850   21.7590   37.8580 N   0  0  0  0  0  0  0  0  0  0  0  0
   41.4700   21.7770   38.5690 H   0  0  0  0  0  0  0  0  0  0  0  0
   40.0170   20.9780   38.0100 H   0  0  0  0  0  0  0  0  0  0  0  0
   36.2290   29.1210   34.5480 C   0  0  0  0  0  0  0  0  0  0  0  0
   37.1500   29.6060   34.9660 H   0  0  0  0  0  0  0  0  0  0  0  0
   35.4570   29.0060   35.3380 H   0  0  0  0  0  0  0  0  0  0  0  0
   35.7240   29.9120   33.3630 C   0  0  0  0  0  0  0  0  0  0  0  0
   35.7540   29.2240   32.4770 H   0  0  0  0  0  0  0  0  0  0  0  0
   36.4260   30.7760   33.2520 H   0  0  0  0  0  0  0  0  0  0  0  0
   33.3990   29.5360   34.2730 C   0  0  1  0  0  0  0  0  0  0  0  0
   33.1900   29.7450   32.7910 C   0  0  0  0  0  0  0  0  0  0  0  0
   34.3210   30.3820   33.4930 C   0  0  2  0  0  0  0  0  0  0  0  0
   33.7500   28.5340   34.6260 H   0  0  0  0  0  0  0  0  0  0  0  0
   33.4740   28.9220   32.0940 H   0  0  0  0  0  0  0  0  0  0  0  0
   32.3550   30.3410   32.4150 H   0  0  0  0  0  0  0  0  0  0  0  0
   34.1640   31.4880   33.6660 H   0  0  0  0  0  0  0  0  0  0  0  0
   32.3430   30.1230   35.1510 C   0  0  0  0  0  0  0  0  0  0  0  0
   31.5570   30.5610   34.4830 H   0  0  0  0  0  0  0  0  0  0  0  0
   32.7460   30.9550   35.7620 H   0  0  0  0  0  0  0  0  0  0  0  0
   30.6540   26.9940   36.3420 C   0  0  0  0  0  0  0  0  0  0  0  0
   31.2150   27.9920   35.4960 C   0  0  0  0  0  0  0  0  0  0  0  0
   31.7700   29.1040   36.0650 C   0  0  0  0  0  0  0  0  0  0  0  0
   31.7580   29.1970   37.3990 N   0  0  0  0  0  0  0  0  0  0  0  0
   31.2350   28.2630   38.1970 C   0  0  0  0  0  0  0  0  0  0  0  0
   30.6870   27.1690   37.6510 N   0  0  0  0  0  0  0  0  0  0  0  0
   30.2240   26.1250   35.8260 H   0  0  0  0  0  0  0  0  0  0  0  0
   31.2000   27.8720   34.4200 H   0  0  0  0  0  0  0  0  0  0  0  0
   31.2260   28.3410   39.2740 H   0  0  0  0  0  0  0  0  0  0  0  0
  1 10  1  0  0  0  0
  2 29  1  0  0  0  0
  2  1  2  0  0  0  0
  3  2  1  0  0  0  0
  4  3  2  0  0  0  0
  4  8  1  0  0  0  0
  5  6  1  0  0  0  0
  5  4  1  0  0  0  0
  6  7  2  0  0  0  0
  7 14  1  0  0  0  0
  7  8  1  0  0  0  0
  8  9  2  0  0  0  0
  9  1  1  0  0  0  0
  9 15  1  0  0  0  0
 11  3  1  0  0  0  0
 12  5  1  0  0  0  0
 13  6  1  0  0  0  0
 15 25  1  0  0  0  0
 15 16  1  0  0  0  0
 16 17  1  0  0  0  0
 16 18  2  0  0  0  0
 19 20  1  0  0  0  0
 19 18  1  0  0  0  0
 20 26  1  0  0  0  0
 21 20  2  0  0  0  0
 22 21  1  0  0  0  0
 23 22  1  0  0  0  0
 24 22  2  0  0  0  0
 24 25  1  0  0  0  0
 25 19  2  0  0  0  0
 26 28  1  0  0  0  0
 26 27  1  0  0  0  0
 29 30  1  0  0  0  0
 29 31  1  0  0  0  0
 32 37  1  0  0  0  0
 32 29  1  0  0  0  0
 33 32  1  0  0  0  0
 34 32  1  0  0  0  0
 35 38  1  1  0  0  0
 35 42  1  0  0  0  0
 36 37  1  0  0  0  0
 36 35  1  0  0  0  0
 37 41  1  1  0  0  0
 37 35  1  0  0  0  0
 39 36  1  0  0  0  0
 40 36  1  0  0  0  0
 42 44  1  0  0  0  0
 42 47  1  0  0  0  0
 43 42  1  0  0  0  0
 45 50  1  0  0  0  0
 46 47  1  0  0  0  0
 46 45  2  0  0  0  0
 47 48  2  0  0  0  0
 48 49  1  0  0  0  0
 49 53  1  0  0  0  0
 50 49  2  0  0  0  0
 51 45  1  0  0  0  0
 52 46  1  0  0  0  0
M  END
>  <minimizedAffinity>
-6.39220762

$$$$
