
 OpenBabel03262522153D

 50 54  0  0  1  0  0  0  0  0999 V2000
   39.0470   29.7480   42.2740 C   0  0  1  0  0  0  0  0  0  0  0  0
   38.8970   31.2430   42.0350 C   0  0  0  0  0  0  0  0  0  0  0  0
   39.9680   31.8070   42.9200 C   0  0  2  0  0  0  0  0  0  0  0  0
   40.4790   30.7900   43.6690 O   0  0  0  0  0  0  0  0  0  0  0  0
   39.5520   29.7640   43.7060 C   0  0  0  0  0  0  0  0  0  0  0  0
   39.8680   29.3240   41.6490 H   0  0  0  0  0  0  0  0  0  0  0  0
   37.9260   31.5360   42.4440 H   0  0  0  0  0  0  0  0  0  0  0  0
   39.0460   31.4860   40.9650 H   0  0  0  0  0  0  0  0  0  0  0  0
   40.7890   32.2070   42.2730 H   0  0  0  0  0  0  0  0  0  0  0  0
   40.1220   28.8360   43.9570 H   0  0  0  0  0  0  0  0  0  0  0  0
   38.7180   29.9650   44.4030 H   0  0  0  0  0  0  0  0  0  0  0  0
   39.4510   32.9490   43.7550 C   0  0  0  0  0  0  0  0  0  0  0  0
   38.3930   32.8490   44.0250 H   0  0  0  0  0  0  0  0  0  0  0  0
   39.5660   33.8860   43.1570 H   0  0  0  0  0  0  0  0  0  0  0  0
   40.5600   33.1310   45.1750 S   0  0  0  0  0  0  0  0  0  0  0  0
   37.7700   31.7700   47.6430 C   0  0  0  0  0  0  0  0  0  0  0  0
   37.9530   32.5100   48.8120 C   0  0  0  0  0  0  0  0  0  0  0  0
   38.9430   33.4630   48.8970 C   0  0  0  0  0  0  0  0  0  0  0  0
   39.7190   33.6320   47.7800 C   0  0  0  0  0  0  0  0  0  0  0  0
   39.5270   32.9010   46.6460 C   0  0  0  0  0  0  0  0  0  0  0  0
   38.5560   31.9620   46.5550 N   0  0  0  0  0  0  0  0  0  0  0  0
   37.3040   32.3280   49.6620 H   0  0  0  0  0  0  0  0  0  0  0  0
   39.0870   34.0430   49.8120 H   0  0  0  0  0  0  0  0  0  0  0  0
   40.5210   34.3630   47.7650 H   0  0  0  0  0  0  0  0  0  0  0  0
   36.7100   30.7910   47.6340 C   0  0  0  0  0  0  0  0  0  0  0  0
   36.2220   30.3780   46.5820 O   0  0  0  0  0  0  0  0  0  0  0  0
   37.0370   29.6210   49.7860 C   0  0  0  0  0  0  0  0  0  0  0  0
   36.1490   30.2270   48.8800 C   0  0  0  0  0  0  0  0  0  0  0  0
   34.7750   30.2830   49.1730 C   0  0  0  0  0  0  0  0  0  0  0  0
   34.3550   29.7310   50.3570 N   0  0  0  0  0  0  0  0  0  0  0  0
   35.2200   29.1550   51.2100 C   0  0  0  0  0  0  0  0  0  0  0  0
   36.5320   29.1030   50.9280 N   0  0  0  0  0  0  0  0  0  0  0  0
   38.0780   29.5850   49.5520 H   0  0  0  0  0  0  0  0  0  0  0  0
   34.1290   30.7540   48.4570 H   0  0  0  0  0  0  0  0  0  0  0  0
   34.7170   28.7790   52.0790 H   0  0  0  0  0  0  0  0  0  0  0  0
   37.8340   29.1000   42.1580 O   0  0  0  0  0  0  0  0  0  0  0  0
   38.2560   26.8340   43.8280 H   0  0  0  0  0  0  0  0  0  0  0  0
   37.8370   26.6710   42.8880 N   0  0  0  0  0  0  0  0  0  0  0  0
   37.6270   27.7430   42.0770 C   0  0  0  0  0  0  0  0  0  0  0  0
   37.0750   27.3120   40.9040 N   0  0  0  0  0  0  0  0  0  0  0  0
   36.9410   25.9640   40.9900 C   0  0  0  0  0  0  0  0  0  0  0  0
   36.4610   24.9620   40.1620 C   0  0  0  0  0  0  0  0  0  0  0  0
   36.4860   23.7010   40.5970 N   0  0  0  0  0  0  0  0  0  0  0  0
   36.9520   23.3310   41.8040 C   0  0  0  0  0  0  0  0  0  0  0  0
   36.9470   22.2790   42.1060 H   0  0  0  0  0  0  0  0  0  0  0  0
   37.4330   24.2890   42.6510 N   0  0  0  0  0  0  0  0  0  0  0  0
   37.4170   25.5770   42.2270 C   0  0  0  0  0  0  0  0  0  0  0  0
   35.9740   25.3750   38.8890 N   0  0  0  0  0  0  0  0  0  0  0  0
   34.9990   25.5530   38.5110 H   0  0  0  0  0  0  0  0  0  0  0  0
   36.6750   25.5510   38.1380 H   0  0  0  0  0  0  0  0  0  0  0  0
  1  6  1  6  0  0  0
  1  5  1  0  0  0  0
  2  1  1  0  0  0  0
  2  7  1  0  0  0  0
  2  3  1  0  0  0  0
  3  9  1  6  0  0  0
  3  4  1  0  0  0  0
  3 12  1  0  0  0  0
  4  5  1  0  0  0  0
  5 10  1  0  0  0  0
  5 11  1  0  0  0  0
  8  2  1  0  0  0  0
 12 13  1  0  0  0  0
 12 15  1  0  0  0  0
 14 12  1  0  0  0  0
 15 20  1  0  0  0  0
 16 17  1  0  0  0  0
 17 18  2  0  0  0  0
 17 22  1  0  0  0  0
 18 23  1  0  0  0  0
 19 18  1  0  0  0  0
 20 19  2  0  0  0  0
 21 20  1  0  0  0  0
 21 16  2  0  0  0  0
 24 19  1  0  0  0  0
 25 16  1  0  0  0  0
 25 28  1  0  0  0  0
 26 25  2  0  0  0  0
 27 32  1  0  0  0  0
 28 29  1  0  0  0  0
 28 27  2  0  0  0  0
 29 30  2  0  0  0  0
 30 31  1  0  0  0  0
 31 35  1  0  0  0  0
 32 31  2  0  0  0  0
 33 27  1  0  0  0  0
 34 29  1  0  0  0  0
 36  1  1  0  0  0  0
 38 37  1  0  0  0  0
 39 36  1  0  0  0  0
 39 38  1  0  0  0  0
 40 41  1  0  0  0  0
 40 39  2  0  0  0  0
 41 47  1  0  0  0  0
 42 43  1  0  0  0  0
 42 41  2  0  0  0  0
 43 44  2  0  0  0  0
 44 45  1  0  0  0  0
 44 46  1  0  0  0  0
 47 46  2  0  0  0  0
 47 38  1  0  0  0  0
 48 42  1  0  0  0  0
 49 48  1  0  0  0  0
 50 48  1  0  0  0  0
M  END
>  <minimizedAffinity>
-5.26070118

>  <minimizedRMSD>
1.45856822

$$$$
