
 OpenBabel03262521523D

 28 30  0  0  0  0  0  0  0  0999 V2000
   32.6130   27.3730   48.1220 S   0  0  0  0  0  0  0  0  0  0  0  0
   30.2790   29.0360   46.8680 H   0  0  0  0  0  0  0  0  0  0  0  0
   30.0060   28.6500   47.7910 N   0  0  0  0  0  0  0  0  0  0  0  0
   30.9430   27.9160   48.4180 C   0  0  0  0  0  0  0  0  0  0  0  0
   30.4170   27.4970   49.5960 N   0  0  0  0  0  0  0  0  0  0  0  0
   29.1590   27.9480   49.7420 C   0  0  0  0  0  0  0  0  0  0  0  0
   28.1540   27.8620   50.6790 C   0  0  0  0  0  0  0  0  0  0  0  0
   26.9750   28.4890   50.4360 N   0  0  0  0  0  0  0  0  0  0  0  0
   26.7890   29.1920   49.2870 C   0  0  0  0  0  0  0  0  0  0  0  0
   25.8080   29.6700   49.1670 H   0  0  0  0  0  0  0  0  0  0  0  0
   27.7750   29.2860   48.3490 N   0  0  0  0  0  0  0  0  0  0  0  0
   28.9450   28.6650   48.5850 C   0  0  0  0  0  0  0  0  0  0  0  0
   28.4080   27.1120   51.8640 N   0  0  0  0  0  0  0  0  0  0  0  0
   28.4300   27.7650   52.6730 H   0  0  0  0  0  0  0  0  0  0  0  0
   28.5550   26.0840   51.9660 H   0  0  0  0  0  0  0  0  0  0  0  0
   33.7860   28.7700   48.2170 C   0  0  0  0  0  0  0  0  0  0  0  0
   34.2990   28.8470   47.2280 H   0  0  0  0  0  0  0  0  0  0  0  0
   33.2060   29.7160   48.3190 H   0  0  0  0  0  0  0  0  0  0  0  0
   34.9680   28.5910   49.5640 S   0  0  0  0  0  0  0  0  0  0  0  0
   36.2580   29.7910   49.3480 C   0  0  0  0  0  0  0  0  0  0  0  0
   37.1220   29.9360   50.4270 C   0  0  0  0  0  0  0  0  0  0  0  0
   38.1620   30.8710   50.3140 C   0  0  0  0  0  0  0  0  0  0  0  0
   38.2880   31.5970   49.1630 N   0  0  0  0  0  0  0  0  0  0  0  0
   37.4060   31.4040   48.1500 C   0  0  0  0  0  0  0  0  0  0  0  0
   36.4260   30.5290   48.2420 N   0  0  0  0  0  0  0  0  0  0  0  0
   37.0440   29.3740   51.3470 H   0  0  0  0  0  0  0  0  0  0  0  0
   38.8610   31.0190   51.1290 H   0  0  0  0  0  0  0  0  0  0  0  0
   37.5190   31.9890   47.2400 H   0  0  0  0  0  0  0  0  0  0  0  0
  1 16  1  0  0  0  0
  1  4  1  0  0  0  0
  2  3  1  0  0  0  0
  3  4  1  0  0  0  0
  3 12  1  0  0  0  0
  4  5  2  0  0  0  0
  5  6  1  0  0  0  0
  6  7  1  0  0  0  0
  7 13  1  0  0  0  0
  8  7  2  0  0  0  0
  9  8  1  0  0  0  0
 10  9  1  0  0  0  0
 11 12  1  0  0  0  0
 11  9  2  0  0  0  0
 12  6  2  0  0  0  0
 13 15  1  0  0  0  0
 13 14  1  0  0  0  0
 16 18  1  0  0  0  0
 16 19  1  0  0  0  0
 17 16  1  0  0  0  0
 20 19  1  0  0  0  0
 20 21  1  0  0  0  0
 21 26  1  0  0  0  0
 22 21  2  0  0  0  0
 22 27  1  0  0  0  0
 23 22  1  0  0  0  0
 24 25  1  0  0  0  0
 24 23  2  0  0  0  0
 25 20  2  0  0  0  0
 28 24  1  0  0  0  0
M  END
>  <minimizedAffinity>
-5.66205549

>  <minimizedRMSD>
2.35804248

$$$$
