
 OpenBabel03272509183D

 38 41  0  0  0  0  0  0  0  0999 V2000
   38.1290   31.3050   47.7400 C   0  0  0  0  0  0  0  0  0  0  0  0
   37.1210   31.3200   48.6970 C   0  0  0  0  0  0  0  0  0  0  0  0
   37.1570   32.4240   49.5490 C   0  0  0  0  0  0  0  0  0  0  0  0
   38.1350   33.4100   49.4230 C   0  0  0  0  0  0  0  0  0  0  0  0
   39.1080   33.3030   48.4250 C   0  0  0  0  0  0  0  0  0  0  0  0
   39.0970   32.2240   47.5690 C   0  0  0  0  0  0  0  0  0  0  0  0
   36.4140   32.5260   50.3270 H   0  0  0  0  0  0  0  0  0  0  0  0
   38.1270   34.2560   50.1100 H   0  0  0  0  0  0  0  0  0  0  0  0
   39.8540   34.0730   48.3440 H   0  0  0  0  0  0  0  0  0  0  0  0
   34.9810   30.3480   48.0010 C   0  0  0  0  0  0  0  0  0  0  0  0
   36.1200   30.3100   48.8250 C   0  0  0  0  0  0  0  0  0  0  0  0
   36.2190   29.2680   49.7450 C   0  0  0  0  0  0  0  0  0  0  0  0
   35.2110   28.3510   49.7930 N   0  0  0  0  0  0  0  0  0  0  0  0
   34.1230   28.4200   48.9770 C   0  0  0  0  0  0  0  0  0  0  0  0
   34.0140   29.4180   48.0880 N   0  0  0  0  0  0  0  0  0  0  0  0
   34.8740   31.1490   47.2740 H   0  0  0  0  0  0  0  0  0  0  0  0
   33.3300   27.6900   49.0220 H   0  0  0  0  0  0  0  0  0  0  0  0
   37.3850   29.1720   50.6350 C   0  0  0  0  0  0  0  0  0  0  0  0
   36.9890   28.9860   51.6710 H   0  0  0  0  0  0  0  0  0  0  0  0
   38.0060   28.3060   50.3410 H   0  0  0  0  0  0  0  0  0  0  0  0
   37.9450   30.1220   50.5960 H   0  0  0  0  0  0  0  0  0  0  0  0
   38.1580   30.2110   46.8340 O   0  0  0  0  0  0  0  0  0  0  0  0
   38.9270   29.5650   46.9780 H   0  0  0  0  0  0  0  0  0  0  0  0
   40.0690   32.1480   46.5960 O   0  0  0  0  0  0  0  0  0  0  0  0
   39.4610   34.2500   44.7750 H   0  0  0  0  0  0  0  0  0  0  0  0
   39.5060   33.2870   44.4360 N   0  0  0  0  0  0  0  0  0  0  0  0
   39.7900   32.2610   45.2590 C   0  0  0  0  0  0  0  0  0  0  0  0
   39.7640   31.1530   44.4780 N   0  0  0  0  0  0  0  0  0  0  0  0
   39.4720   31.4980   43.2130 C   0  0  0  0  0  0  0  0  0  0  0  0
   39.3000   30.8730   41.9800 C   0  0  0  0  0  0  0  0  0  0  0  0
   38.9980   31.5750   40.8720 N   0  0  0  0  0  0  0  0  0  0  0  0
   38.8490   32.9260   40.9200 C   0  0  0  0  0  0  0  0  0  0  0  0
   38.6070   33.5410   40.0670 H   0  0  0  0  0  0  0  0  0  0  0  0
   39.0000   33.6050   42.0810 N   0  0  0  0  0  0  0  0  0  0  0  0
   39.3040   32.8710   43.1720 C   0  0  0  0  0  0  0  0  0  0  0  0
   39.4600   29.4570   41.9510 N   0  0  0  0  0  0  0  0  0  0  0  0
   38.8300   28.7100   42.3300 H   0  0  0  0  0  0  0  0  0  0  0  0
   40.3640   29.2620   41.4580 H   0  0  0  0  0  0  0  0  0  0  0  0
  1  2  1  0  0  0  0
  2 11  1  0  0  0  0
  2  3  2  0  0  0  0
  3  7  1  0  0  0  0
  4  3  1  0  0  0  0
  4  8  1  0  0  0  0
  5  4  2  0  0  0  0
  6  1  2  0  0  0  0
  6  5  1  0  0  0  0
  9  5  1  0  0  0  0
 10 15  2  0  0  0  0
 10 11  1  0  0  0  0
 11 12  2  0  0  0  0
 12 13  1  0  0  0  0
 12 18  1  0  0  0  0
 14 17  1  0  0  0  0
 14 13  2  0  0  0  0
 15 14  1  0  0  0  0
 16 10  1  0  0  0  0
 18 19  1  0  0  0  0
 20 18  1  0  0  0  0
 21 18  1  0  0  0  0
 22 23  1  0  0  0  0
 22  1  1  0  0  0  0
 24  6  1  0  0  0  0
 26 25  1  0  0  0  0
 26 27  1  0  0  0  0
 27 24  1  0  0  0  0
 28 27  2  0  0  0  0
 29 28  1  0  0  0  0
 30 29  2  0  0  0  0
 31 32  2  0  0  0  0
 31 30  1  0  0  0  0
 32 34  1  0  0  0  0
 33 32  1  0  0  0  0
 34 35  2  0  0  0  0
 35 29  1  0  0  0  0
 35 26  1  0  0  0  0
 36 30  1  0  0  0  0
 36 37  1  0  0  0  0
 38 36  1  0  0  0  0
M  END
>  <minimizedAffinity>
-6.89001083

>  <minimizedRMSD>
0.469567955

$$$$
