
 OpenBabel03272507163D

 31 34  0  0  1  0  0  0  0  0999 V2000
   36.6850   31.0540   50.3840 C   0  0  1  0  0  0  0  0  0  0  0  0
   36.0040   29.7800   50.3450 C   0  0  2  0  0  0  0  0  0  0  0  0
   37.3240   29.8470   51.0840 C   0  0  0  0  0  0  0  0  0  0  0  0
   36.4120   31.8730   51.0930 H   0  0  0  0  0  0  0  0  0  0  0  0
   35.0620   29.6820   50.9090 H   0  0  0  0  0  0  0  0  0  0  0  0
   37.1970   29.7910   52.1750 H   0  0  0  0  0  0  0  0  0  0  0  0
   38.1940   29.3710   50.6290 H   0  0  0  0  0  0  0  0  0  0  0  0
   37.5120   31.5380   49.2210 C   0  0  0  0  0  0  0  0  0  0  0  0
   38.2720   32.6860   49.4450 C   0  0  0  0  0  0  0  0  0  0  0  0
   39.0150   33.1370   48.3450 C   0  0  0  0  0  0  0  0  0  0  0  0
   38.9620   32.4620   47.1570 N   0  0  0  0  0  0  0  0  0  0  0  0
   38.2090   31.3500   46.9880 C   0  0  0  0  0  0  0  0  0  0  0  0
   37.4690   30.8750   48.0350 N   0  0  0  0  0  0  0  0  0  0  0  0
   38.2680   33.1720   50.4110 H   0  0  0  0  0  0  0  0  0  0  0  0
   39.6210   34.0220   48.4620 H   0  0  0  0  0  0  0  0  0  0  0  0
   38.1700   30.8180   46.0480 H   0  0  0  0  0  0  0  0  0  0  0  0
   36.0350   29.0270   49.1590 O   0  0  0  0  0  0  0  0  0  0  0  0
   34.6790   26.5250   49.2690 H   0  0  0  0  0  0  0  0  0  0  0  0
   34.2480   27.3180   48.7450 N   0  0  0  0  0  0  0  0  0  0  0  0
   34.8420   28.5210   48.6590 C   0  0  0  0  0  0  0  0  0  0  0  0
   34.0000   29.2660   47.9210 N   0  0  0  0  0  0  0  0  0  0  0  0
   32.9160   28.5720   47.5500 C   0  0  0  0  0  0  0  0  0  0  0  0
   31.7580   28.7630   46.8260 C   0  0  0  0  0  0  0  0  0  0  0  0
   30.8500   27.7960   46.6500 N   0  0  0  0  0  0  0  0  0  0  0  0
   31.0340   26.5670   47.1870 C   0  0  0  0  0  0  0  0  0  0  0  0
   30.2570   25.8470   46.9990 H   0  0  0  0  0  0  0  0  0  0  0  0
   32.1570   26.3500   47.9000 N   0  0  0  0  0  0  0  0  0  0  0  0
   33.0860   27.2970   48.0940 C   0  0  0  0  0  0  0  0  0  0  0  0
   31.5480   30.0320   46.2610 N   0  0  0  0  0  0  0  0  0  0  0  0
   31.2340   30.9010   46.7710 H   0  0  0  0  0  0  0  0  0  0  0  0
   31.5730   30.5960   45.3890 H   0  0  0  0  0  0  0  0  0  0  0  0
  1  3  1  0  0  0  0
  1  4  1  1  0  0  0
  2  1  1  0  0  0  0
  2  5  1  1  0  0  0
  2  3  1  0  0  0  0
  3  6  1  0  0  0  0
  7  3  1  0  0  0  0
  8  9  1  0  0  0  0
  8  1  1  0  0  0  0
  9 14  1  0  0  0  0
 10 15  1  0  0  0  0
 10  9  2  0  0  0  0
 11 10  1  0  0  0  0
 12 11  2  0  0  0  0
 12 13  1  0  0  0  0
 13  8  2  0  0  0  0
 16 12  1  0  0  0  0
 17  2  1  0  0  0  0
 19 18  1  0  0  0  0
 20 19  1  0  0  0  0
 20 17  1  0  0  0  0
 21 20  2  0  0  0  0
 22 21  1  0  0  0  0
 22 28  1  0  0  0  0
 23 22  2  0  0  0  0
 24 23  1  0  0  0  0
 24 25  2  0  0  0  0
 25 27  1  0  0  0  0
 26 25  1  0  0  0  0
 27 28  2  0  0  0  0
 28 19  1  0  0  0  0
 29 30  1  0  0  0  0
 29 23  1  0  0  0  0
 31 29  1  0  0  0  0
M  END
>  <minimizedAffinity>
-5.63448191

>  <minimizedRMSD>
1.66996968

$$$$
