
     RDKit          3D

 45 48  0  0  0  0  0  0  0  0999 V2000
   37.0799   30.9481   49.0291 C   0  0  0  0  0  0  0  0  0  0  0  0
   36.8106   31.8790   50.0346 C   0  0  0  0  0  0  0  0  0  0  0  0
   37.4239   33.1234   50.0634 C   0  0  0  0  0  0  0  0  0  0  0  0
   38.3372   33.4601   49.0601 C   0  0  0  0  0  0  0  0  0  0  0  0
   38.5902   32.5414   48.0853 C   0  0  0  0  0  0  0  0  0  0  0  0
   37.9595   31.3057   48.0874 C   0  0  0  0  0  0  0  0  0  0  0  0
   36.4667   29.6377   49.0162 C   0  0  1  0  0  0  0  0  0  0  0  0
   36.8610   28.8996   49.9930 O   0  0  0  0  0  0  0  0  0  0  0  0
   33.6129   30.1487   46.8256 C   0  0  0  0  0  0  0  0  0  0  0  0
   32.9541   28.9343   46.8443 C   0  0  0  0  0  0  0  0  0  0  0  0
   33.4498   27.9384   47.6643 C   0  0  0  0  0  0  0  0  0  0  0  0
   34.5715   28.1851   48.4260 N   0  0  0  0  0  0  0  0  0  0  0  0
   35.1560   29.3645   48.3616 C   0  0  0  0  0  0  0  0  0  0  0  0
   34.6844   30.3520   47.5673 N   0  0  0  0  0  0  0  0  0  0  0  0
   38.3429   30.4198   47.0125 C   0  0  0  0  0  0  0  0  0  0  0  0
   38.8237   30.8374   45.8365 C   0  0  0  0  0  0  0  0  0  0  0  0
   39.2867   30.0231   44.6887 C   0  0  0  0  0  0  0  0  0  0  0  0
   39.1819   30.9878   43.1782 S   0  0  0  0  0  0  0  0  0  0  0  0
   36.0921   31.5871   50.8045 H   0  0  0  0  0  0  0  0  0  0  0  0
   37.1333   33.7486   50.8878 H   0  0  0  0  0  0  0  0  0  0  0  0
   38.7676   34.4447   49.1559 H   0  0  0  0  0  0  0  0  0  0  0  0
   39.3210   32.9450   47.3792 H   0  0  0  0  0  0  0  0  0  0  0  0
   37.0065   29.0551   48.1744 H   0  0  0  0  0  0  0  0  0  0  0  0
   36.6432   29.1431   50.9348 H   0  0  0  0  0  0  0  0  0  0  0  0
   33.2276   30.9326   46.1855 H   0  0  0  0  0  0  0  0  0  0  0  0
   32.0723   28.6992   46.2621 H   0  0  0  0  0  0  0  0  0  0  0  0
   32.9988   26.9624   47.7416 H   0  0  0  0  0  0  0  0  0  0  0  0
   38.3563   29.3293   46.8933 H   0  0  0  0  0  0  0  0  0  0  0  0
   38.9264   31.9328   45.6890 H   0  0  0  0  0  0  0  0  0  0  0  0
   38.6047   29.1513   44.6102 H   0  0  0  0  0  0  0  0  0  0  0  0
   40.3040   29.6130   44.8569 H   0  0  0  0  0  0  0  0  0  0  0  0
   38.1887   28.7233   41.2638 H   0  0  0  0  0  0  0  0  0  0  0  0
   39.1285   29.1153   41.0400 N   0  0  0  0  0  0  0  0  0  0  0  0
   39.7159   30.0937   41.7526 C   0  0  0  0  0  0  0  0  0  0  0  0
   40.9195   30.3939   41.2313 N   0  0  0  0  0  0  0  0  0  0  0  0
   41.1398   29.6007   40.1499 C   0  0  0  0  0  0  0  0  0  0  0  0
   42.1787   29.4717   39.2486 C   0  0  0  0  0  0  0  0  0  0  0  0
   43.3104   30.3228   39.4198 N   0  0  0  0  0  0  0  0  0  0  0  0
   43.2574   31.3323   39.6545 H   0  0  0  0  0  0  0  0  0  0  0  0
   42.0745   28.5480   38.2501 N   0  0  0  0  0  0  0  0  0  0  0  0
   40.9534   27.7810   38.1691 C   0  0  0  0  0  0  0  0  0  0  0  0
   40.9168   27.0587   37.3558 H   0  0  0  0  0  0  0  0  0  0  0  0
   39.9344   27.9183   39.0655 N   0  0  0  0  0  0  0  0  0  0  0  0
   40.0064   28.8217   40.0637 C   0  0  0  0  0  0  0  0  0  0  0  0
   44.2111   29.8100   39.2807 H   0  0  0  0  0  0  0  0  0  0  0  0
  1  7  1  0
  1  2  2  0
  2  3  1  0
  4  3  2  0
  5  6  2  0
  5  4  1  0
  6  1  1  0
  7  8  1  0
  9 10  2  0
  9 14  1  0
 10 11  1  0
 11 12  2  0
 13 12  1  0
 13  7  1  0
 14 13  2  0
 15  6  1  0
 16 15  2  0
 17 16  1  0
 18 17  1  0
  2 19  1  0
  3 20  1  0
  4 21  1  0
  5 22  1  0
  7 23  1  6
  8 24  1  0
  9 25  1  0
 10 26  1  0
 11 27  1  0
 15 28  1  0
 16 29  1  0
 17 30  1  0
 17 31  1  0
 32 33  1  0
 33 34  1  0
 34 35  2  0
 35 36  1  0
 36 37  2  0
 37 38  1  0
 38 39  1  0
 37 40  1  0
 40 41  2  0
 41 42  1  0
 41 43  1  0
 43 44  2  0
 44 33  1  0
 44 36  1  0
 38 45  1  0
 18 34  1  0
M  ISO  8  19  14  20  14  21  14  22  14  23   8  24   3  25  14  26  14
M  ISO  6  27  14  30   8  31   8  32   9  39   5  42  16
M  END
>  <DihAtoms>  (1) 
16,17,33,32

>  <DihDeg>  (1) 
-90.00308879445411

$$$$
