
     RDKit          3D

 53 58  0  0  0  0  0  0  0  0999 V2000
   38.7678   32.1204   46.8611 C   0  0  1  0  0  0  0  0  0  0  0  0
   39.8085   32.9498   46.1458 C   0  0  0  0  0  0  0  0  0  0  0  0
   39.9305   31.4807   46.2182 C   0  0  2  0  0  0  0  0  0  0  0  0
   38.6988   32.3274   48.3385 C   0  0  0  0  0  0  0  0  0  0  0  0
   37.4289   30.0293   51.0162 C   0  0  0  0  0  0  0  0  0  0  0  0
   38.1384   31.0652   50.3446 C   0  0  0  0  0  0  0  0  0  0  0  0
   37.9418   31.2375   49.0035 C   0  0  0  0  0  0  0  0  0  0  0  0
   37.0863   30.4179   48.3853 N   0  0  0  0  0  0  0  0  0  0  0  0
   36.4184   29.4452   49.0097 C   0  0  0  0  0  0  0  0  0  0  0  0
   36.6020   29.2653   50.3251 N   0  0  0  0  0  0  0  0  0  0  0  0
   39.6592   30.5874   45.0644 C   0  0  0  0  0  0  0  0  0  0  0  0
   40.4310   30.9325   43.8110 C   0  0  0  0  0  0  0  0  0  0  0  0
   39.4032   28.7743   43.1651 C   0  0  0  0  0  0  0  0  0  0  0  0
   40.3250   29.7662   42.8797 C   0  0  0  0  0  0  0  0  0  0  0  0
   41.1314   29.6672   41.7401 C   0  0  0  0  0  0  0  0  0  0  0  0
   41.0136   28.5819   40.8942 C   0  0  0  0  0  0  0  0  0  0  0  0
   41.6656   28.2699   39.7578 N   0  0  0  0  0  0  0  0  0  0  0  0
   41.1603   27.1020   39.3387 C   0  0  0  0  0  0  0  0  0  0  0  0
   40.1838   26.6292   40.1740 C   0  0  0  0  0  0  0  0  0  0  0  0
   40.0979   27.5893   41.1710 C   0  0  0  0  0  0  0  0  0  0  0  0
   39.3086   27.6974   42.2969 C   0  0  0  0  0  0  0  0  0  0  0  0
   37.7589   32.0087   46.3908 H   0  0  0  0  0  0  0  0  0  0  0  0
   39.5638   33.3506   45.1340 H   0  0  0  0  0  0  0  0  0  0  0  0
   40.4940   33.5977   46.6965 H   0  0  0  0  0  0  0  0  0  0  0  0
   40.7171   31.1414   46.9567 H   0  0  0  0  0  0  0  0  0  0  0  0
   38.2198   33.3253   48.5155 H   0  0  0  0  0  0  0  0  0  0  0  0
   39.7134   32.3728   48.7845 H   0  0  0  0  0  0  0  0  0  0  0  0
   37.6287   29.9408   52.0917 H   0  0  0  0  0  0  0  0  0  0  0  0
   38.8217   31.7048   50.8887 H   0  0  0  0  0  0  0  0  0  0  0  0
   35.7266   28.7828   48.5082 H   0  0  0  0  0  0  0  0  0  0  0  0
   39.9810   29.5566   45.3694 H   0  0  0  0  0  0  0  0  0  0  0  0
   38.5789   30.6251   44.7747 H   0  0  0  0  0  0  0  0  0  0  0  0
   39.9306   31.7820   43.2755 H   0  0  0  0  0  0  0  0  0  0  0  0
   41.4929   31.1787   44.0253 H   0  0  0  0  0  0  0  0  0  0  0  0
   38.7315   28.7480   44.0099 H   0  0  0  0  0  0  0  0  0  0  0  0
   41.8410   30.4694   41.5560 H   0  0  0  0  0  0  0  0  0  0  0  0
   42.4154   28.8587   39.3246 H   0  0  0  0  0  0  0  0  0  0  0  0
   41.5208   26.6313   38.4355 H   0  0  0  0  0  0  0  0  0  0  0  0
   39.6095   25.7191   40.0825 H   0  0  0  0  0  0  0  0  0  0  0  0
   38.3777   26.6441   42.5378 N   0  0  0  0  0  0  0  0  0  0  0  0
   37.9821   26.4159   43.8191 C   0  0  0  0  0  0  0  0  0  0  0  0
   38.2563   26.9130   44.7521 H   0  0  0  0  0  0  0  0  0  0  0  0
   37.1069   25.3771   43.7856 N   0  0  0  0  0  0  0  0  0  0  0  0
   36.9667   24.9736   42.5056 C   0  0  0  0  0  0  0  0  0  0  0  0
   36.2552   24.0058   41.8146 C   0  0  0  0  0  0  0  0  0  0  0  0
   35.4094   23.1502   42.5790 N   0  0  0  0  0  0  0  0  0  0  0  0
   35.3778   22.1219   42.3275 H   0  0  0  0  0  0  0  0  0  0  0  0
   36.3716   23.8965   40.4897 N   0  0  0  0  0  0  0  0  0  0  0  0
   37.1636   24.6948   39.7584 C   0  0  0  0  0  0  0  0  0  0  0  0
   37.1770   24.5133   38.6985 H   0  0  0  0  0  0  0  0  0  0  0  0
   37.8799   25.6574   40.3903 N   0  0  0  0  0  0  0  0  0  0  0  0
   37.7750   25.7799   41.7139 C   0  0  0  0  0  0  0  0  0  0  0  0
   34.7939   23.3921   43.3784 H   0  0  0  0  0  0  0  0  0  0  0  0
  1  4  1  0
  2  3  1  0
  2  1  1  0
  3  1  1  0
  4  7  1  0
  6  5  2  0
  7  6  1  0
  8  7  2  0
  8  9  1  0
  9 10  2  0
 10  5  1  0
 11  3  1  0
 12 11  1  0
 14 13  2  0
 14 12  1  0
 15 14  1  0
 16 20  1  0
 16 15  2  0
 17 16  1  0
 18 17  1  0
 18 19  2  0
 19 20  1  0
 20 21  2  0
 21 13  1  0
  1 22  1  6
  2 23  1  0
  2 24  1  0
  3 25  1  1
  4 26  1  0
  4 27  1  0
  5 28  1  0
  6 29  1  0
  9 30  1  0
 11 31  1  0
 11 32  1  0
 12 33  1  0
 12 34  1  0
 13 35  1  0
 15 36  1  0
 17 37  1  0
 18 38  1  0
 19 39  1  0
 40 41  1  0
 41 42  1  0
 41 43  2  0
 43 44  1  0
 44 45  2  0
 45 46  1  0
 46 47  1  0
 45 48  1  0
 48 49  2  0
 49 50  1  0
 49 51  1  0
 51 52  2  0
 52 40  1  0
 52 44  1  0
 46 53  1  0
 21 40  1  0
M  ISO  8  22  13  23  13  24  13  25  13  26   8  27   8  28  14  29  14
M  ISO  8  30  14  31   8  32   8  33   8  34   8  35  14  36  14  37   9
M  ISO  5  38  14  39  14  42  15  47   5  50  16
M  END
>  <DihAtoms>  (1) 
19,20,39,40

>  <DihDeg>  (1) 
-85.67781608433725

$$$$
