
 OpenBabel03262521353D

 42 46  0  0  1  0  0  0  0  0999 V2000
   38.3960   31.4500   45.3540 C   0  0  1  0  0  0  0  0  0  0  0  0
   38.7660   32.4250   46.3910 C   0  0  2  0  0  0  0  0  0  0  0  0
   40.2070   32.7910   46.0140 C   0  0  0  0  0  0  0  0  0  0  0  0
   40.7070   31.5740   45.6450 O   0  0  0  0  0  0  0  0  0  0  0  0
   39.7390   30.8380   44.9870 C   0  0  0  0  0  0  0  0  0  0  0  0
   37.9460   31.9770   44.4800 H   0  0  0  0  0  0  0  0  0  0  0  0
   38.1960   33.3760   46.2560 H   0  0  0  0  0  0  0  0  0  0  0  0
   40.7320   33.2090   46.8750 H   0  0  0  0  0  0  0  0  0  0  0  0
   40.2160   33.4690   45.1330 H   0  0  0  0  0  0  0  0  0  0  0  0
   39.9300   30.9730   43.9010 H   0  0  0  0  0  0  0  0  0  0  0  0
   39.7610   29.7690   45.2080 H   0  0  0  0  0  0  0  0  0  0  0  0
   37.5580   32.3750   48.7110 C   0  0  1  0  0  0  0  0  0  0  0  0
   38.7910   33.1040   48.8300 C   0  0  0  0  0  0  0  0  0  0  0  0
   38.7300   31.9370   47.8290 C   0  0  2  0  0  0  0  0  0  0  0  0
   36.7230   32.7710   48.0810 H   0  0  0  0  0  0  0  0  0  0  0  0
   38.8600   34.1300   48.4630 H   0  0  0  0  0  0  0  0  0  0  0  0
   39.3870   32.9320   49.7640 H   0  0  0  0  0  0  0  0  0  0  0  0
   39.3390   31.0760   48.1090 H   0  0  0  0  0  0  0  0  0  0  0  0
   35.5280   29.7580   50.4510 C   0  0  0  0  0  0  0  0  0  0  0  0
   35.8930   30.7280   49.5290 C   0  0  0  0  0  0  0  0  0  0  0  0
   37.1330   31.3260   49.6600 C   0  0  0  0  0  0  0  0  0  0  0  0
   37.9430   30.9270   50.7000 N   0  0  0  0  0  0  0  0  0  0  0  0
   37.5670   29.9790   51.5900 C   0  0  0  0  0  0  0  0  0  0  0  0
   36.3400   29.3800   51.4680 N   0  0  0  0  0  0  0  0  0  0  0  0
   34.5390   29.3470   50.2650 H   0  0  0  0  0  0  0  0  0  0  0  0
   35.2840   31.0650   48.7030 H   0  0  0  0  0  0  0  0  0  0  0  0
   38.2280   29.6900   52.3960 H   0  0  0  0  0  0  0  0  0  0  0  0
   37.5280   30.4480   45.7860 O   0  0  0  0  0  0  0  0  0  0  0  0
   35.9580   31.2570   43.5450 H   0  0  0  0  0  0  0  0  0  0  0  0
   35.5070   30.8260   44.3770 N   0  0  0  0  0  0  0  0  0  0  0  0
   36.1780   30.4190   45.4710 C   0  0  0  0  0  0  0  0  0  0  0  0
   35.2400   29.9180   46.3270 N   0  0  0  0  0  0  0  0  0  0  0  0
   34.0450   30.0360   45.7300 C   0  0  0  0  0  0  0  0  0  0  0  0
   32.7420   29.7060   46.1010 C   0  0  0  0  0  0  0  0  0  0  0  0
   31.7050   29.9510   45.2630 N   0  0  0  0  0  0  0  0  0  0  0  0
   31.8990   30.5200   44.0470 C   0  0  0  0  0  0  0  0  0  0  0  0
   30.9900   30.6690   43.4630 H   0  0  0  0  0  0  0  0  0  0  0  0
   33.1450   30.8420   43.6820 N   0  0  0  0  0  0  0  0  0  0  0  0
   34.1970   30.6160   44.4790 C   0  0  0  0  0  0  0  0  0  0  0  0
   32.5300   29.1080   47.3750 N   0  0  0  0  0  0  0  0  0  0  0  0
   32.5310   29.8790   48.0670 H   0  0  0  0  0  0  0  0  0  0  0  0
   32.3820   28.1610   47.8000 H   0  0  0  0  0  0  0  0  0  0  0  0
  1  6  1  6  0  0  0
  1 28  1  0  0  0  0
  1  2  1  0  0  0  0
  2  7  1  6  0  0  0
  2 14  1  0  0  0  0
  3  2  1  0  0  0  0
  3  8  1  0  0  0  0
  4  3  1  0  0  0  0
  5 11  1  0  0  0  0
  5  1  1  0  0  0  0
  5  4  1  0  0  0  0
  9  3  1  0  0  0  0
 10  5  1  0  0  0  0
 12 15  1  6  0  0  0
 12 13  1  0  0  0  0
 12 21  1  0  0  0  0
 13 17  1  0  0  0  0
 14 18  1  1  0  0  0
 14 12  1  0  0  0  0
 14 13  1  0  0  0  0
 16 13  1  0  0  0  0
 19 24  1  0  0  0  0
 20 21  1  0  0  0  0
 20 19  2  0  0  0  0
 21 22  2  0  0  0  0
 22 23  1  0  0  0  0
 23 27  1  0  0  0  0
 24 23  2  0  0  0  0
 25 19  1  0  0  0  0
 26 20  1  0  0  0  0
 29 30  1  0  0  0  0
 30 39  1  0  0  0  0
 30 31  1  0  0  0  0
 31 28  1  0  0  0  0
 31 32  2  0  0  0  0
 33 34  1  0  0  0  0
 33 32  1  0  0  0  0
 34 40  1  0  0  0  0
 35 34  2  0  0  0  0
 36 35  1  0  0  0  0
 37 36  1  0  0  0  0
 38 36  2  0  0  0  0
 38 39  1  0  0  0  0
 39 33  2  0  0  0  0
 40 42  1  0  0  0  0
 40 41  1  0  0  0  0
M  END
>  <minimizedAffinity>
-6.23123789

>  <minimizedRMSD>
1.28031313

$$$$
