
 OpenBabel03262521483D

 35 37  0  0  0  0  0  0  0  0999 V2000
   38.5350   27.3000   32.9850 O   0  0  0  0  0  0  0  0  0  0  0  0
   37.1240   26.8640   33.3930 P   0  0  2  0  0  0  0  0  0  0  0  0
   36.7470   25.5410   32.4460 O   0  0  0  0  0  0  0  0  0  0  0  0
   35.9850   25.0140   32.8050 H   0  0  0  0  0  0  0  0  0  0  0  0
   36.0780   28.1530   33.1210 O   0  0  0  0  0  0  0  0  0  0  0  0
   35.9770   28.9900   34.2420 C   0  0  0  0  0  0  0  0  0  0  0  0
   36.6070   29.8980   34.0150 H   0  0  0  0  0  0  0  0  0  0  0  0
   36.3880   28.5520   35.1580 H   0  0  0  0  0  0  0  0  0  0  0  0
   34.5630   29.4800   34.3300 C   0  0  0  0  0  0  0  0  0  0  0  0
   33.9000   28.5890   34.5330 H   0  0  0  0  0  0  0  0  0  0  0  0
   34.1950   29.8910   33.3660 H   0  0  0  0  0  0  0  0  0  0  0  0
   34.3530   30.5040   35.3520 C   0  0  0  0  0  0  0  0  0  0  0  0
   35.3710   31.3580   35.7760 C   0  0  0  0  0  0  0  0  0  0  0  0
   35.0660   32.3070   36.7600 C   0  0  0  0  0  0  0  0  0  0  0  0
   33.7790   32.3440   37.2570 N   0  0  0  0  0  0  0  0  0  0  0  0
   32.8210   31.4900   36.8110 C   0  0  0  0  0  0  0  0  0  0  0  0
   33.1300   30.5740   35.8540 N   0  0  0  0  0  0  0  0  0  0  0  0
   36.3430   31.2630   35.3400 H   0  0  0  0  0  0  0  0  0  0  0  0
   35.8270   32.9790   37.1080 H   0  0  0  0  0  0  0  0  0  0  0  0
   31.8180   31.5490   37.2240 H   0  0  0  0  0  0  0  0  0  0  0  0
   37.1080   26.4100   35.0210 O   0  0  0  0  0  0  0  0  0  0  0  0
   39.3400   25.3090   33.8970 H   0  0  0  0  0  0  0  0  0  0  0  0
   38.9670   25.0300   34.8400 N   0  0  0  0  0  0  0  0  0  0  0  0
   37.9050   25.4310   35.5730 C   0  0  0  0  0  0  0  0  0  0  0  0
   37.9110   24.7130   36.7350 N   0  0  0  0  0  0  0  0  0  0  0  0
   38.9610   23.8720   36.7310 C   0  0  0  0  0  0  0  0  0  0  0  0
   39.3580   22.9640   37.6910 C   0  0  0  0  0  0  0  0  0  0  0  0
   40.4630   22.2600   37.3930 N   0  0  0  0  0  0  0  0  0  0  0  0
   41.1410   22.4260   36.2390 C   0  0  0  0  0  0  0  0  0  0  0  0
   42.0370   21.8210   36.0550 H   0  0  0  0  0  0  0  0  0  0  0  0
   40.7040   23.3260   35.3460 N   0  0  0  0  0  0  0  0  0  0  0  0
   39.6180   24.0800   35.5370 C   0  0  0  0  0  0  0  0  0  0  0  0
   38.6430   22.7900   38.9090 N   0  0  0  0  0  0  0  0  0  0  0  0
   38.3240   21.7970   38.8490 H   0  0  0  0  0  0  0  0  0  0  0  0
   38.4630   23.4610   39.6850 H   0  0  0  0  0  0  0  0  0  0  0  0
  2  1  2  6  0  0  0
  2 21  1  0  0  0  0
  3  4  1  0  0  0  0
  3  2  1  0  0  0  0
  5  2  1  0  0  0  0
  5  6  1  0  0  0  0
  6  9  1  0  0  0  0
  6  8  1  0  0  0  0
  7  6  1  0  0  0  0
  9 10  1  0  0  0  0
  9 12  1  0  0  0  0
 11  9  1  0  0  0  0
 12 13  2  0  0  0  0
 12 17  1  0  0  0  0
 13 14  1  0  0  0  0
 14 19  1  0  0  0  0
 14 15  2  0  0  0  0
 16 20  1  0  0  0  0
 16 15  1  0  0  0  0
 17 16  2  0  0  0  0
 18 13  1  0  0  0  0
 21 24  1  0  0  0  0
 22 23  1  0  0  0  0
 23 32  1  0  0  0  0
 23 24  1  0  0  0  0
 24 25  2  0  0  0  0
 26 25  1  0  0  0  0
 26 27  1  0  0  0  0
 27 33  1  0  0  0  0
 28 27  2  0  0  0  0
 29 28  1  0  0  0  0
 30 29  1  0  0  0  0
 31 32  1  0  0  0  0
 31 29  2  0  0  0  0
 32 26  2  0  0  0  0
 33 35  1  0  0  0  0
 34 33  1  0  0  0  0
M  END
>  <minimizedAffinity>
-5.36528015

$$$$

 OpenBabel03262521483D

 35 37  0  0  0  0  0  0  0  0999 V2000
   36.6350   28.2680   33.1920 O   0  0  0  0  0  0  0  0  0  0  0  0
   37.3040   26.8970   33.3270 P   0  0  2  0  0  0  0  0  0  0  0  0
   38.9410   27.1470   33.1080 O   0  0  0  0  0  0  0  0  0  0  0  0
   39.4950   26.3920   33.4390 H   0  0  0  0  0  0  0  0  0  0  0  0
   36.6590   25.8800   32.1530 O   0  0  0  0  0  0  0  0  0  0  0  0
   37.6530   25.1240   31.5120 C   0  0  0  0  0  0  0  0  0  0  0  0
   38.3210   24.7250   32.3300 H   0  0  0  0  0  0  0  0  0  0  0  0
   38.2970   25.7120   30.8500 H   0  0  0  0  0  0  0  0  0  0  0  0
   36.9980   23.9270   30.8930 C   0  0  0  0  0  0  0  0  0  0  0  0
   37.7000   23.5150   30.1110 H   0  0  0  0  0  0  0  0  0  0  0  0
   36.0750   24.1890   30.3330 H   0  0  0  0  0  0  0  0  0  0  0  0
   36.6460   22.8810   31.8520 C   0  0  0  0  0  0  0  0  0  0  0  0
   35.5210   22.0710   31.6950 C   0  0  0  0  0  0  0  0  0  0  0  0
   35.2710   21.0970   32.6700 C   0  0  0  0  0  0  0  0  0  0  0  0
   36.1490   20.9910   33.7300 N   0  0  0  0  0  0  0  0  0  0  0  0
   37.2330   21.8040   33.8380 C   0  0  0  0  0  0  0  0  0  0  0  0
   37.4640   22.7460   32.8830 N   0  0  0  0  0  0  0  0  0  0  0  0
   34.8900   22.2180   30.8440 H   0  0  0  0  0  0  0  0  0  0  0  0
   34.4140   20.4580   32.5790 H   0  0  0  0  0  0  0  0  0  0  0  0
   37.9030   21.6920   34.6850 H   0  0  0  0  0  0  0  0  0  0  0  0
   37.0360   26.2730   34.8760 O   0  0  0  0  0  0  0  0  0  0  0  0
   39.3290   25.1770   33.8760 H   0  0  0  0  0  0  0  0  0  0  0  0
   38.9310   24.9320   34.8180 N   0  0  0  0  0  0  0  0  0  0  0  0
   37.8360   25.3400   35.4980 C   0  0  0  0  0  0  0  0  0  0  0  0
   37.8200   24.6770   36.6910 N   0  0  0  0  0  0  0  0  0  0  0  0
   38.8880   23.8620   36.7610 C   0  0  0  0  0  0  0  0  0  0  0  0
   39.2740   23.0090   37.7740 C   0  0  0  0  0  0  0  0  0  0  0  0
   40.4040   22.3190   37.5450 N   0  0  0  0  0  0  0  0  0  0  0  0
   41.1160   22.4480   36.4070 C   0  0  0  0  0  0  0  0  0  0  0  0
   42.0310   21.8570   36.2800 H   0  0  0  0  0  0  0  0  0  0  0  0
   40.6890   23.2950   35.4590 N   0  0  0  0  0  0  0  0  0  0  0  0
   39.5800   24.0310   35.5790 C   0  0  0  0  0  0  0  0  0  0  0  0
   38.5230   22.8730   38.9750 N   0  0  0  0  0  0  0  0  0  0  0  0
   38.2280   21.8720   38.9520 H   0  0  0  0  0  0  0  0  0  0  0  0
   38.3020   23.5750   39.7130 H   0  0  0  0  0  0  0  0  0  0  0  0
  2  1  2  6  0  0  0
  2 21  1  0  0  0  0
  3  2  1  0  0  0  0
  3  4  1  0  0  0  0
  5  2  1  0  0  0  0
  6  5  1  0  0  0  0
  6  7  1  0  0  0  0
  8  6  1  0  0  0  0
  9  6  1  0  0  0  0
  9 12  1  0  0  0  0
 10  9  1  0  0  0  0
 11  9  1  0  0  0  0
 12 17  1  0  0  0  0
 13 12  2  0  0  0  0
 13 14  1  0  0  0  0
 14 15  2  0  0  0  0
 15 16  1  0  0  0  0
 16 20  1  0  0  0  0
 17 16  2  0  0  0  0
 18 13  1  0  0  0  0
 19 14  1  0  0  0  0
 21 24  1  0  0  0  0
 22 23  1  0  0  0  0
 23 24  1  0  0  0  0
 23 32  1  0  0  0  0
 24 25  2  0  0  0  0
 25 26  1  0  0  0  0
 26 27  1  0  0  0  0
 27 33  1  0  0  0  0
 28 27  2  0  0  0  0
 29 28  1  0  0  0  0
 30 29  1  0  0  0  0
 31 32  1  0  0  0  0
 31 29  2  0  0  0  0
 32 26  2  0  0  0  0
 33 35  1  0  0  0  0
 34 33  1  0  0  0  0
M  END
>  <minimizedAffinity>
-5.26399851

$$$$

 OpenBabel03262521483D

 35 37  0  0  0  0  0  0  0  0999 V2000
   39.5800   22.7000   36.2990 O   0  0  0  0  0  0  0  0  0  0  0  0
   38.3870   23.2460   37.0900 P   0  0  2  0  0  0  0  0  0  0  0  0
   38.7170   22.9550   38.7010 O   0  0  0  0  0  0  0  0  0  0  0  0
   38.1570   23.5000   39.3150 H   0  0  0  0  0  0  0  0  0  0  0  0
   37.0030   22.4420   36.5740 O   0  0  0  0  0  0  0  0  0  0  0  0
   37.2780   21.5440   35.5310 C   0  0  0  0  0  0  0  0  0  0  0  0
   37.8540   20.6910   35.9930 H   0  0  0  0  0  0  0  0  0  0  0  0
   37.9220   21.9610   34.7490 H   0  0  0  0  0  0  0  0  0  0  0  0
   35.9780   20.9610   35.0660 C   0  0  0  0  0  0  0  0  0  0  0  0
   35.1480   21.6380   35.4210 H   0  0  0  0  0  0  0  0  0  0  0  0
   35.7610   19.9780   35.5350 H   0  0  0  0  0  0  0  0  0  0  0  0
   35.8940   20.7820   33.6170 C   0  0  0  0  0  0  0  0  0  0  0  0
   35.4280   19.6040   33.0350 C   0  0  0  0  0  0  0  0  0  0  0  0
   35.3850   19.5330   31.6370 C   0  0  0  0  0  0  0  0  0  0  0  0
   35.8060   20.6300   30.9130 N   0  0  0  0  0  0  0  0  0  0  0  0
   36.2510   21.7570   31.5270 C   0  0  0  0  0  0  0  0  0  0  0  0
   36.2870   21.8130   32.8850 N   0  0  0  0  0  0  0  0  0  0  0  0
   35.1210   18.7980   33.6680 H   0  0  0  0  0  0  0  0  0  0  0  0
   35.0330   18.6400   31.1580 H   0  0  0  0  0  0  0  0  0  0  0  0
   36.5730   22.6020   30.9250 H   0  0  0  0  0  0  0  0  0  0  0  0
   38.2430   24.9120   36.8410 O   0  0  0  0  0  0  0  0  0  0  0  0
   38.4240   23.8260   34.3420 H   0  0  0  0  0  0  0  0  0  0  0  0
   38.0240   24.7800   34.5330 N   0  0  0  0  0  0  0  0  0  0  0  0
   37.8410   25.5000   35.6620 C   0  0  0  0  0  0  0  0  0  0  0  0
   37.2710   26.6880   35.3050 N   0  0  0  0  0  0  0  0  0  0  0  0
   37.0990   26.7150   33.9710 C   0  0  0  0  0  0  0  0  0  0  0  0
   36.5630   27.7080   33.1770 C   0  0  0  0  0  0  0  0  0  0  0  0
   36.5260   27.4350   31.8620 N   0  0  0  0  0  0  0  0  0  0  0  0
   36.9790   26.2730   31.3480 C   0  0  0  0  0  0  0  0  0  0  0  0
   36.9200   26.1100   30.2650 H   0  0  0  0  0  0  0  0  0  0  0  0
   37.4890   25.3470   32.1730 N   0  0  0  0  0  0  0  0  0  0  0  0
   37.5750   25.5110   33.4970 C   0  0  0  0  0  0  0  0  0  0  0  0
   36.0850   28.9340   33.7190 N   0  0  0  0  0  0  0  0  0  0  0  0
   36.7120   29.6420   33.2780 H   0  0  0  0  0  0  0  0  0  0  0  0
   35.3080   29.1140   34.3900 H   0  0  0  0  0  0  0  0  0  0  0  0
  2  1  2  6  0  0  0
  2  3  1  0  0  0  0
  3  4  1  0  0  0  0
  5  2  1  0  0  0  0
  6  7  1  0  0  0  0
  6  5  1  0  0  0  0
  8  6  1  0  0  0  0
  9 10  1  0  0  0  0
  9  6  1  0  0  0  0
  9 11  1  0  0  0  0
 12  9  1  0  0  0  0
 13 12  1  0  0  0  0
 13 18  1  0  0  0  0
 14 13  2  0  0  0  0
 15 16  2  0  0  0  0
 15 14  1  0  0  0  0
 16 17  1  0  0  0  0
 17 12  2  0  0  0  0
 19 14  1  0  0  0  0
 20 16  1  0  0  0  0
 21  2  1  0  0  0  0
 22 23  1  0  0  0  0
 23 24  1  0  0  0  0
 24 21  1  0  0  0  0
 25 24  2  0  0  0  0
 26 25  1  0  0  0  0
 27 33  1  0  0  0  0
 27 26  2  0  0  0  0
 28 27  1  0  0  0  0
 29 28  2  0  0  0  0
 29 31  1  0  0  0  0
 30 29  1  0  0  0  0
 31 32  2  0  0  0  0
 32 26  1  0  0  0  0
 32 23  1  0  0  0  0
 33 35  1  0  0  0  0
 34 33  1  0  0  0  0
M  END
>  <minimizedAffinity>
-5.15803337

$$$$

 OpenBabel03262521483D

 35 37  0  0  0  0  0  0  0  0999 V2000
   38.3740   22.0640   30.5270 O   0  0  0  0  0  0  0  0  0  0  0  0
   38.0500   23.1160   31.5930 P   0  0  2  0  0  0  0  0  0  0  0  0
   36.7010   22.5610   32.4080 O   0  0  0  0  0  0  0  0  0  0  0  0
   36.5650   23.0130   33.2830 H   0  0  0  0  0  0  0  0  0  0  0  0
   37.7590   24.5780   30.8150 O   0  0  0  0  0  0  0  0  0  0  0  0
   36.9110   25.4090   31.5630 C   0  0  0  0  0  0  0  0  0  0  0  0
   36.8440   24.9480   32.5910 H   0  0  0  0  0  0  0  0  0  0  0  0
   35.8860   25.4530   31.1800 H   0  0  0  0  0  0  0  0  0  0  0  0
   37.5970   26.7290   31.7460 C   0  0  0  0  0  0  0  0  0  0  0  0
   36.8900   27.5380   31.4010 H   0  0  0  0  0  0  0  0  0  0  0  0
   38.4900   26.8380   31.0930 H   0  0  0  0  0  0  0  0  0  0  0  0
   38.0260   26.9900   33.1190 C   0  0  0  0  0  0  0  0  0  0  0  0
   37.1430   27.4220   34.1080 C   0  0  0  0  0  0  0  0  0  0  0  0
   37.6530   27.6430   35.3940 C   0  0  0  0  0  0  0  0  0  0  0  0
   38.9990   27.4230   35.6110 N   0  0  0  0  0  0  0  0  0  0  0  0
   39.8190   27.0010   34.6140 C   0  0  0  0  0  0  0  0  0  0  0  0
   39.3100   26.7890   33.3700 N   0  0  0  0  0  0  0  0  0  0  0  0
   36.1140   27.5700   33.8580 H   0  0  0  0  0  0  0  0  0  0  0  0
   37.0010   27.9760   36.1780 H   0  0  0  0  0  0  0  0  0  0  0  0
   40.8720   26.8370   34.8210 H   0  0  0  0  0  0  0  0  0  0  0  0
   39.3390   23.2570   32.6770 O   0  0  0  0  0  0  0  0  0  0  0  0
   37.4830   24.6020   34.1610 H   0  0  0  0  0  0  0  0  0  0  0  0
   38.2230   23.9830   34.5790 N   0  0  0  0  0  0  0  0  0  0  0  0
   39.2200   23.2400   34.0490 C   0  0  0  0  0  0  0  0  0  0  0  0
   39.8780   22.6360   35.0820 N   0  0  0  0  0  0  0  0  0  0  0  0
   39.3040   22.9950   36.2450 C   0  0  0  0  0  0  0  0  0  0  0  0
   39.6340   22.6300   37.5330 C   0  0  0  0  0  0  0  0  0  0  0  0
   38.8620   23.1610   38.4960 N   0  0  0  0  0  0  0  0  0  0  0  0
   37.8350   23.9920   38.2280 C   0  0  0  0  0  0  0  0  0  0  0  0
   37.2420   24.3920   39.0590 H   0  0  0  0  0  0  0  0  0  0  0  0
   37.5640   24.3090   36.9530 N   0  0  0  0  0  0  0  0  0  0  0  0
   38.2650   23.8400   35.9160 C   0  0  0  0  0  0  0  0  0  0  0  0
   40.7180   21.7510   37.8160 N   0  0  0  0  0  0  0  0  0  0  0  0
   41.3610   22.3520   38.3780 H   0  0  0  0  0  0  0  0  0  0  0  0
   40.8650   20.7560   37.5450 H   0  0  0  0  0  0  0  0  0  0  0  0
  2  1  2  6  0  0  0
  2  3  1  0  0  0  0
  2 21  1  0  0  0  0
  3  4  1  0  0  0  0
  5  6  1  0  0  0  0
  5  2  1  0  0  0  0
  6  9  1  0  0  0  0
  6  7  1  0  0  0  0
  8  6  1  0  0  0  0
  9 12  1  0  0  0  0
 10  9  1  0  0  0  0
 11  9  1  0  0  0  0
 12 17  2  0  0  0  0
 12 13  1  0  0  0  0
 13 14  2  0  0  0  0
 14 15  1  0  0  0  0
 14 19  1  0  0  0  0
 16 20  1  0  0  0  0
 16 15  2  0  0  0  0
 17 16  1  0  0  0  0
 18 13  1  0  0  0  0
 21 24  1  0  0  0  0
 22 23  1  0  0  0  0
 23 32  1  0  0  0  0
 24 23  1  0  0  0  0
 24 25  2  0  0  0  0
 25 26  1  0  0  0  0
 26 27  1  0  0  0  0
 27 33  1  0  0  0  0
 27 28  2  0  0  0  0
 29 28  1  0  0  0  0
 29 30  1  0  0  0  0
 31 29  2  0  0  0  0
 32 26  2  0  0  0  0
 32 31  1  0  0  0  0
 33 34  1  0  0  0  0
 35 33  1  0  0  0  0
M  END
>  <minimizedAffinity>
-5.08648682

$$$$

 OpenBabel03262521483D

 35 37  0  0  0  0  0  0  0  0999 V2000
   39.5820   25.9750   34.8480 O   0  0  0  0  0  0  0  0  0  0  0  0
   38.3210   26.4290   35.5910 P   0  0  2  0  0  0  0  0  0  0  0  0
   38.6700   27.9300   36.2360 O   0  0  0  0  0  0  0  0  0  0  0  0
   37.8560   28.4360   36.5000 H   0  0  0  0  0  0  0  0  0  0  0  0
   37.9780   25.2950   36.7840 O   0  0  0  0  0  0  0  0  0  0  0  0
   37.8940   23.9950   36.2620 C   0  0  0  0  0  0  0  0  0  0  0  0
   38.5010   23.9980   35.3100 H   0  0  0  0  0  0  0  0  0  0  0  0
   36.8780   23.7000   35.9770 H   0  0  0  0  0  0  0  0  0  0  0  0
   38.6040   23.0690   37.2020 C   0  0  0  0  0  0  0  0  0  0  0  0
   37.8900   22.2380   37.4740 H   0  0  0  0  0  0  0  0  0  0  0  0
   38.8530   23.5550   38.1700 H   0  0  0  0  0  0  0  0  0  0  0  0
   39.8420   22.5100   36.6620 C   0  0  0  0  0  0  0  0  0  0  0  0
   40.8870   22.0800   37.4790 C   0  0  0  0  0  0  0  0  0  0  0  0
   42.0320   21.5580   36.8620 C   0  0  0  0  0  0  0  0  0  0  0  0
   42.0630   21.4990   35.4840 N   0  0  0  0  0  0  0  0  0  0  0  0
   41.0180   21.9310   34.7310 C   0  0  0  0  0  0  0  0  0  0  0  0
   39.9120   22.4350   35.3420 N   0  0  0  0  0  0  0  0  0  0  0  0
   40.7830   22.1610   38.5400 H   0  0  0  0  0  0  0  0  0  0  0  0
   42.8540   21.2180   37.4620 H   0  0  0  0  0  0  0  0  0  0  0  0
   41.0780   21.8680   33.6480 H   0  0  0  0  0  0  0  0  0  0  0  0
   37.0320   26.5720   34.5070 O   0  0  0  0  0  0  0  0  0  0  0  0
   38.9030   26.3470   32.5310 H   0  0  0  0  0  0  0  0  0  0  0  0
   38.0900   27.0130   32.4880 N   0  0  0  0  0  0  0  0  0  0  0  0
   37.0680   27.2860   33.3300 C   0  0  0  0  0  0  0  0  0  0  0  0
   36.3010   28.2540   32.7480 N   0  0  0  0  0  0  0  0  0  0  0  0
   36.8330   28.5870   31.5580 C   0  0  0  0  0  0  0  0  0  0  0  0
   36.3980   29.5110   30.6320 C   0  0  0  0  0  0  0  0  0  0  0  0
   37.1530   29.6160   29.5260 N   0  0  0  0  0  0  0  0  0  0  0  0
   38.2590   28.8710   29.3280 C   0  0  0  0  0  0  0  0  0  0  0  0
   38.8320   29.0030   28.4020 H   0  0  0  0  0  0  0  0  0  0  0  0
   38.6300   27.9870   30.2660 N   0  0  0  0  0  0  0  0  0  0  0  0
   37.9560   27.8000   31.4050 C   0  0  0  0  0  0  0  0  0  0  0  0
   35.2300   30.2970   30.8410 N   0  0  0  0  0  0  0  0  0  0  0  0
   35.6070   31.2710   30.8610 H   0  0  0  0  0  0  0  0  0  0  0  0
   34.2350   30.0080   30.9510 H   0  0  0  0  0  0  0  0  0  0  0  0
  2  1  2  6  0  0  0
  2  3  1  0  0  0  0
  2  5  1  0  0  0  0
  3  4  1  0  0  0  0
  6  5  1  0  0  0  0
  6  9  1  0  0  0  0
  7  6  1  0  0  0  0
  8  6  1  0  0  0  0
  9 10  1  0  0  0  0
  9 11  1  0  0  0  0
 12  9  1  0  0  0  0
 12 13  1  0  0  0  0
 13 18  1  0  0  0  0
 14 19  1  0  0  0  0
 14 13  2  0  0  0  0
 15 14  1  0  0  0  0
 16 17  1  0  0  0  0
 16 15  2  0  0  0  0
 17 12  2  0  0  0  0
 20 16  1  0  0  0  0
 21  2  1  0  0  0  0
 23 22  1  0  0  0  0
 23 24  1  0  0  0  0
 24 21  1  0  0  0  0
 25 24  2  0  0  0  0
 26 25  1  0  0  0  0
 27 33  1  0  0  0  0
 27 26  2  0  0  0  0
 28 27  1  0  0  0  0
 29 28  2  0  0  0  0
 29 31  1  0  0  0  0
 30 29  1  0  0  0  0
 31 32  2  0  0  0  0
 32 26  1  0  0  0  0
 32 23  1  0  0  0  0
 33 34  1  0  0  0  0
 33 35  1  0  0  0  0
M  END
>  <minimizedAffinity>
-5.07362127

$$$$

 OpenBabel03262521483D

 35 37  0  0  0  0  0  0  0  0999 V2000
   35.7820   22.8360   30.9230 O   0  0  0  0  0  0  0  0  0  0  0  0
   36.5520   24.0850   31.3620 P   0  0  2  0  0  0  0  0  0  0  0  0
   37.6150   24.4430   30.1240 O   0  0  0  0  0  0  0  0  0  0  0  0
   37.9660   25.3720   30.1720 H   0  0  0  0  0  0  0  0  0  0  0  0
   37.3530   23.7300   32.7980 O   0  0  0  0  0  0  0  0  0  0  0  0
   38.2910   24.7180   33.1310 C   0  0  0  0  0  0  0  0  0  0  0  0
   38.1470   25.5540   32.3870 H   0  0  0  0  0  0  0  0  0  0  0  0
   39.3320   24.3910   33.0260 H   0  0  0  0  0  0  0  0  0  0  0  0
   37.9160   25.2840   34.4670 C   0  0  0  0  0  0  0  0  0  0  0  0
   36.7910   25.3690   34.5040 H   0  0  0  0  0  0  0  0  0  0  0  0
   38.2810   26.3240   34.6060 H   0  0  0  0  0  0  0  0  0  0  0  0
   38.3960   24.4960   35.6010 C   0  0  0  0  0  0  0  0  0  0  0  0
   39.6090   23.8090   35.5740 C   0  0  0  0  0  0  0  0  0  0  0  0
   39.9800   23.0820   36.7130 C   0  0  0  0  0  0  0  0  0  0  0  0
   39.1250   23.0860   37.7980 N   0  0  0  0  0  0  0  0  0  0  0  0
   37.9530   23.7720   37.7750 C   0  0  0  0  0  0  0  0  0  0  0  0
   37.6060   24.4740   36.6630 N   0  0  0  0  0  0  0  0  0  0  0  0
   40.2140   23.8560   34.6930 H   0  0  0  0  0  0  0  0  0  0  0  0
   40.9070   22.5420   36.7250 H   0  0  0  0  0  0  0  0  0  0  0  0
   37.3060   23.7530   38.6470 H   0  0  0  0  0  0  0  0  0  0  0  0
   35.4830   25.3780   31.5720 O   0  0  0  0  0  0  0  0  0  0  0  0
   36.7160   26.3700   29.3470 H   0  0  0  0  0  0  0  0  0  0  0  0
   36.4010   26.9690   30.1520 N   0  0  0  0  0  0  0  0  0  0  0  0
   35.7870   26.6990   31.3250 C   0  0  0  0  0  0  0  0  0  0  0  0
   35.6220   27.8820   31.9860 N   0  0  0  0  0  0  0  0  0  0  0  0
   36.1270   28.8820   31.2410 C   0  0  0  0  0  0  0  0  0  0  0  0
   36.1790   30.2330   31.5100 C   0  0  0  0  0  0  0  0  0  0  0  0
   36.7520   30.9870   30.5560 N   0  0  0  0  0  0  0  0  0  0  0  0
   37.2430   30.4640   29.4140 C   0  0  0  0  0  0  0  0  0  0  0  0
   37.6980   31.1330   28.6740 H   0  0  0  0  0  0  0  0  0  0  0  0
   37.1610   29.1410   29.2110 N   0  0  0  0  0  0  0  0  0  0  0  0
   36.6120   28.2960   30.0900 C   0  0  0  0  0  0  0  0  0  0  0  0
   35.6610   30.7850   32.7150 N   0  0  0  0  0  0  0  0  0  0  0  0
   36.5090   31.1930   33.1660 H   0  0  0  0  0  0  0  0  0  0  0  0
   34.6870   30.7960   33.0850 H   0  0  0  0  0  0  0  0  0  0  0  0
  2  1  2  6  0  0  0
  2 21  1  0  0  0  0
  2  5  1  0  0  0  0
  3  4  1  0  0  0  0
  3  2  1  0  0  0  0
  5  6  1  0  0  0  0
  6  9  1  0  0  0  0
  7  6  1  0  0  0  0
  8  6  1  0  0  0  0
  9 10  1  0  0  0  0
  9 11  1  0  0  0  0
  9 12  1  0  0  0  0
 12 17  1  0  0  0  0
 13 12  2  0  0  0  0
 13 14  1  0  0  0  0
 14 19  1  0  0  0  0
 14 15  2  0  0  0  0
 16 15  1  0  0  0  0
 16 20  1  0  0  0  0
 17 16  2  0  0  0  0
 18 13  1  0  0  0  0
 22 23  1  0  0  0  0
 23 24  1  0  0  0  0
 24 21  1  0  0  0  0
 24 25  2  0  0  0  0
 26 27  1  0  0  0  0
 26 25  1  0  0  0  0
 27 33  1  0  0  0  0
 28 27  2  0  0  0  0
 29 28  1  0  0  0  0
 30 29  1  0  0  0  0
 31 29  2  0  0  0  0
 31 32  1  0  0  0  0
 32 23  1  0  0  0  0
 32 26  2  0  0  0  0
 33 35  1  0  0  0  0
 33 34  1  0  0  0  0
M  END
>  <minimizedAffinity>
-5.06887674

$$$$

 OpenBabel03262521483D

 35 37  0  0  0  0  0  0  0  0999 V2000
   37.8080   23.9500   37.3760 O   0  0  0  0  0  0  0  0  0  0  0  0
   38.2630   22.9590   36.3000 P   0  0  2  0  0  0  0  0  0  0  0  0
   39.4950   22.0580   36.9790 O   0  0  0  0  0  0  0  0  0  0  0  0
   39.6780   21.2170   36.4820 H   0  0  0  0  0  0  0  0  0  0  0  0
   38.7870   23.8390   34.9650 O   0  0  0  0  0  0  0  0  0  0  0  0
   38.0430   25.0150   34.7900 C   0  0  0  0  0  0  0  0  0  0  0  0
   38.4910   25.7790   35.4890 H   0  0  0  0  0  0  0  0  0  0  0  0
   36.9900   24.9180   35.0760 H   0  0  0  0  0  0  0  0  0  0  0  0
   38.2990   25.5240   33.4040 C   0  0  0  0  0  0  0  0  0  0  0  0
   39.1750   24.9520   32.9810 H   0  0  0  0  0  0  0  0  0  0  0  0
   38.6270   26.5860   33.3950 H   0  0  0  0  0  0  0  0  0  0  0  0
   37.1490   25.4140   32.5090 C   0  0  0  0  0  0  0  0  0  0  0  0
   36.5040   26.5310   31.9790 C   0  0  0  0  0  0  0  0  0  0  0  0
   35.4100   26.3180   31.1300 C   0  0  0  0  0  0  0  0  0  0  0  0
   35.0300   25.0170   30.8660 N   0  0  0  0  0  0  0  0  0  0  0  0
   35.6920   23.9610   31.4070 C   0  0  0  0  0  0  0  0  0  0  0  0
   36.7530   24.1820   32.2290 N   0  0  0  0  0  0  0  0  0  0  0  0
   36.8600   27.5060   32.2350 H   0  0  0  0  0  0  0  0  0  0  0  0
   34.8910   27.1560   30.7060 H   0  0  0  0  0  0  0  0  0  0  0  0
   35.3660   22.9510   31.1760 H   0  0  0  0  0  0  0  0  0  0  0  0
   36.9850   21.9340   35.8810 O   0  0  0  0  0  0  0  0  0  0  0  0
   38.7700   21.9450   33.8140 H   0  0  0  0  0  0  0  0  0  0  0  0
   37.8190   21.5000   33.7580 N   0  0  0  0  0  0  0  0  0  0  0  0
   36.7980   21.3790   34.6340 C   0  0  0  0  0  0  0  0  0  0  0  0
   35.7950   20.6950   34.0080 N   0  0  0  0  0  0  0  0  0  0  0  0
   36.1800   20.3920   32.7550 C   0  0  0  0  0  0  0  0  0  0  0  0
   35.4950   19.7130   31.7690 C   0  0  0  0  0  0  0  0  0  0  0  0
   36.1550   19.5670   30.6080 N   0  0  0  0  0  0  0  0  0  0  0  0
   37.4000   20.0470   30.4140 C   0  0  0  0  0  0  0  0  0  0  0  0
   37.8860   19.8940   29.4430 H   0  0  0  0  0  0  0  0  0  0  0  0
   38.0140   20.6980   31.4130 N   0  0  0  0  0  0  0  0  0  0  0  0
   37.4530   20.9020   32.6090 C   0  0  0  0  0  0  0  0  0  0  0  0
   34.1810   19.2060   31.9740 N   0  0  0  0  0  0  0  0  0  0  0  0
   33.6170   19.7370   31.2730 H   0  0  0  0  0  0  0  0  0  0  0  0
   33.8340   18.4890   32.6440 H   0  0  0  0  0  0  0  0  0  0  0  0
  2  3  1  0  0  0  0
  2  1  2  1  0  0  0
  4  3  1  0  0  0  0
  5  2  1  0  0  0  0
  6  5  1  0  0  0  0
  6  8  1  0  0  0  0
  6  7  1  0  0  0  0
  9  6  1  0  0  0  0
 10  9  1  0  0  0  0
 11  9  1  0  0  0  0
 12  9  1  0  0  0  0
 13 18  1  0  0  0  0
 13 12  2  0  0  0  0
 14 13  1  0  0  0  0
 15 14  2  0  0  0  0
 15 16  1  0  0  0  0
 16 17  2  0  0  0  0
 17 12  1  0  0  0  0
 19 14  1  0  0  0  0
 20 16  1  0  0  0  0
 21  2  1  0  0  0  0
 23 22  1  0  0  0  0
 23 24  1  0  0  0  0
 24 21  1  0  0  0  0
 25 24  2  0  0  0  0
 26 25  1  0  0  0  0
 27 33  1  0  0  0  0
 27 26  2  0  0  0  0
 28 27  1  0  0  0  0
 29 28  2  0  0  0  0
 29 31  1  0  0  0  0
 30 29  1  0  0  0  0
 31 32  2  0  0  0  0
 32 26  1  0  0  0  0
 32 23  1  0  0  0  0
 33 35  1  0  0  0  0
 34 33  1  0  0  0  0
M  END
>  <minimizedAffinity>
-5.04726315

$$$$

 OpenBabel03262521483D

 35 37  0  0  0  0  0  0  0  0999 V2000
   35.5450   27.2660   31.9570 O   0  0  0  0  0  0  0  0  0  0  0  0
   36.6250   27.9250   32.8210 P   0  0  2  0  0  0  0  0  0  0  0  0
   38.0450   27.8440   31.9450 O   0  0  0  0  0  0  0  0  0  0  0  0
   38.7400   28.4720   32.2770 H   0  0  0  0  0  0  0  0  0  0  0  0
   36.7290   27.0750   34.2690 O   0  0  0  0  0  0  0  0  0  0  0  0
   37.7480   27.5720   35.0960 C   0  0  0  0  0  0  0  0  0  0  0  0
   37.3300   27.5740   36.1440 H   0  0  0  0  0  0  0  0  0  0  0  0
   38.0270   28.6090   34.8760 H   0  0  0  0  0  0  0  0  0  0  0  0
   38.8700   26.5800   35.0990 C   0  0  0  0  0  0  0  0  0  0  0  0
   39.6810   26.9760   35.7760 H   0  0  0  0  0  0  0  0  0  0  0  0
   39.3560   26.4840   34.1040 H   0  0  0  0  0  0  0  0  0  0  0  0
   38.4740   25.2380   35.5230 C   0  0  0  0  0  0  0  0  0  0  0  0
   38.0430   24.9610   36.8200 C   0  0  0  0  0  0  0  0  0  0  0  0
   37.6850   23.6410   37.1260 C   0  0  0  0  0  0  0  0  0  0  0  0
   37.7800   22.6890   36.1300 N   0  0  0  0  0  0  0  0  0  0  0  0
   38.2060   23.0100   34.8810 C   0  0  0  0  0  0  0  0  0  0  0  0
   38.5500   24.2950   34.5970 N   0  0  0  0  0  0  0  0  0  0  0  0
   37.9990   25.7550   37.5340 H   0  0  0  0  0  0  0  0  0  0  0  0
   37.3500   23.3940   38.1150 H   0  0  0  0  0  0  0  0  0  0  0  0
   38.2670   22.2360   34.1220 H   0  0  0  0  0  0  0  0  0  0  0  0
   36.2320   29.5450   33.1020 O   0  0  0  0  0  0  0  0  0  0  0  0
   33.6180   28.8160   33.4040 H   0  0  0  0  0  0  0  0  0  0  0  0
   34.1090   29.4940   34.0400 N   0  0  0  0  0  0  0  0  0  0  0  0
   35.3660   29.9880   34.0770 C   0  0  0  0  0  0  0  0  0  0  0  0
   35.4420   30.8430   35.1390 N   0  0  0  0  0  0  0  0  0  0  0  0
   34.2490   30.8880   35.7600 C   0  0  0  0  0  0  0  0  0  0  0  0
   33.8670   31.6120   36.8690 C   0  0  0  0  0  0  0  0  0  0  0  0
   32.5910   31.4410   37.2540 N   0  0  0  0  0  0  0  0  0  0  0  0
   31.7400   30.6210   36.6060 C   0  0  0  0  0  0  0  0  0  0  0  0
   30.7100   30.5240   36.9710 H   0  0  0  0  0  0  0  0  0  0  0  0
   32.1730   29.9430   35.5330 N   0  0  0  0  0  0  0  0  0  0  0  0
   33.4200   30.0350   35.0610 C   0  0  0  0  0  0  0  0  0  0  0  0
   34.7650   32.4780   37.5540 N   0  0  0  0  0  0  0  0  0  0  0  0
   34.3190   33.4150   37.4350 H   0  0  0  0  0  0  0  0  0  0  0  0
   35.6530   32.2650   38.0560 H   0  0  0  0  0  0  0  0  0  0  0  0
  2  1  2  6  0  0  0
  2 21  1  0  0  0  0
  2  5  1  0  0  0  0
  3  4  1  0  0  0  0
  3  2  1  0  0  0  0
  5  6  1  0  0  0  0
  6  9  1  0  0  0  0
  6  7  1  0  0  0  0
  8  6  1  0  0  0  0
  9 12  1  0  0  0  0
  9 10  1  0  0  0  0
 11  9  1  0  0  0  0
 12 13  1  0  0  0  0
 13 14  2  0  0  0  0
 13 18  1  0  0  0  0
 14 19  1  0  0  0  0
 15 14  1  0  0  0  0
 16 15  2  0  0  0  0
 17 16  1  0  0  0  0
 17 12  2  0  0  0  0
 20 16  1  0  0  0  0
 21 24  1  0  0  0  0
 22 23  1  0  0  0  0
 23 24  1  0  0  0  0
 23 32  1  0  0  0  0
 24 25  2  0  0  0  0
 25 26  1  0  0  0  0
 26 27  1  0  0  0  0
 27 28  2  0  0  0  0
 27 33  1  0  0  0  0
 29 30  1  0  0  0  0
 29 28  1  0  0  0  0
 31 29  2  0  0  0  0
 32 31  1  0  0  0  0
 32 26  2  0  0  0  0
 33 35  1  0  0  0  0
 34 33  1  0  0  0  0
M  END
>  <minimizedAffinity>
-5.04540873

$$$$

 OpenBabel03262521483D

 35 37  0  0  0  0  0  0  0  0999 V2000
   39.3420   26.9690   32.6810 O   0  0  0  0  0  0  0  0  0  0  0  0
   38.5290   25.7450   32.2470 P   0  0  2  0  0  0  0  0  0  0  0  0
   38.7280   25.6090   30.5940 O   0  0  0  0  0  0  0  0  0  0  0  0
   38.4770   24.7120   30.2470 H   0  0  0  0  0  0  0  0  0  0  0  0
   36.9220   26.0070   32.6690 O   0  0  0  0  0  0  0  0  0  0  0  0
   36.6510   27.3680   32.8780 C   0  0  0  0  0  0  0  0  0  0  0  0
   37.6180   27.9160   32.6810 H   0  0  0  0  0  0  0  0  0  0  0  0
   36.3680   27.6080   33.9080 H   0  0  0  0  0  0  0  0  0  0  0  0
   35.6970   27.8200   31.8150 C   0  0  0  0  0  0  0  0  0  0  0  0
   34.8240   28.3220   32.3250 H   0  0  0  0  0  0  0  0  0  0  0  0
   35.2470   26.9710   31.2590 H   0  0  0  0  0  0  0  0  0  0  0  0
   36.2890   28.7240   30.8300 C   0  0  0  0  0  0  0  0  0  0  0  0
   36.1590   30.1100   30.9140 C   0  0  0  0  0  0  0  0  0  0  0  0
   36.7650   30.8880   29.9190 C   0  0  0  0  0  0  0  0  0  0  0  0
   37.4560   30.2430   28.9130 N   0  0  0  0  0  0  0  0  0  0  0  0
   37.5550   28.8880   28.8760 C   0  0  0  0  0  0  0  0  0  0  0  0
   36.9620   28.1440   29.8490 N   0  0  0  0  0  0  0  0  0  0  0  0
   35.6060   30.5310   31.7260 H   0  0  0  0  0  0  0  0  0  0  0  0
   36.6840   31.9570   29.9540 H   0  0  0  0  0  0  0  0  0  0  0  0
   38.1070   28.4150   28.0700 H   0  0  0  0  0  0  0  0  0  0  0  0
   39.1300   24.3550   32.9980 O   0  0  0  0  0  0  0  0  0  0  0  0
   37.6270   25.6970   34.8420 H   0  0  0  0  0  0  0  0  0  0  0  0
   38.2710   24.9020   35.0850 N   0  0  0  0  0  0  0  0  0  0  0  0
   39.0900   24.1130   34.3540 C   0  0  0  0  0  0  0  0  0  0  0  0
   39.6910   23.2360   35.2100 N   0  0  0  0  0  0  0  0  0  0  0  0
   39.2580   23.4700   36.4620 C   0  0  0  0  0  0  0  0  0  0  0  0
   39.5920   22.8310   37.6380 C   0  0  0  0  0  0  0  0  0  0  0  0
   38.9830   23.3000   38.7400 N   0  0  0  0  0  0  0  0  0  0  0  0
   38.1040   24.3220   38.7050 C   0  0  0  0  0  0  0  0  0  0  0  0
   37.6390   24.6570   39.6400 H   0  0  0  0  0  0  0  0  0  0  0  0
   37.8190   24.9010   37.5290 N   0  0  0  0  0  0  0  0  0  0  0  0
   38.3650   24.5170   36.3710 C   0  0  0  0  0  0  0  0  0  0  0  0
   40.5200   21.7520   37.6740 N   0  0  0  0  0  0  0  0  0  0  0  0
   41.2910   22.1300   38.2700 H   0  0  0  0  0  0  0  0  0  0  0  0
   40.4740   20.8110   37.2300 H   0  0  0  0  0  0  0  0  0  0  0  0
  2  5  1  0  0  0  0
  2  1  2  1  0  0  0
  2 21  1  0  0  0  0
  3  2  1  0  0  0  0
  4  3  1  0  0  0  0
  5  6  1  0  0  0  0
  6  8  1  0  0  0  0
  7  6  1  0  0  0  0
  9 10  1  0  0  0  0
  9  6  1  0  0  0  0
 11  9  1  0  0  0  0
 12 13  1  0  0  0  0
 12  9  1  0  0  0  0
 13 18  1  0  0  0  0
 14 19  1  0  0  0  0
 14 13  2  0  0  0  0
 15 14  1  0  0  0  0
 16 15  2  0  0  0  0
 16 17  1  0  0  0  0
 17 12  2  0  0  0  0
 20 16  1  0  0  0  0
 21 24  1  0  0  0  0
 22 23  1  0  0  0  0
 23 32  1  0  0  0  0
 24 23  1  0  0  0  0
 24 25  2  0  0  0  0
 25 26  1  0  0  0  0
 26 27  1  0  0  0  0
 27 33  1  0  0  0  0
 27 28  2  0  0  0  0
 29 28  1  0  0  0  0
 29 30  1  0  0  0  0
 31 29  2  0  0  0  0
 32 26  2  0  0  0  0
 32 31  1  0  0  0  0
 33 34  1  0  0  0  0
 35 33  1  0  0  0  0
M  END
>  <minimizedAffinity>
-4.99181128

$$$$
