
 OpenBabel03272508273D

 43 47  0  0  1  0  0  0  0  0999 V2000
   33.9610   29.0630   47.3660 C   0  0  2  0  0  0  0  0  0  0  0  0
   34.7720   28.2750   48.3800 C   0  0  2  0  0  0  0  0  0  0  0  0
   33.9360   28.0620   49.4400 O   0  0  0  0  0  0  0  0  0  0  0  0
   32.6330   28.1170   49.0380 C   0  0  0  0  0  0  0  0  0  0  0  0
   32.6070   28.3730   47.5480 C   0  0  1  0  0  0  0  0  0  0  0  0
   33.8240   30.1120   47.6600 H   0  0  0  0  0  0  0  0  0  0  0  0
   35.0520   27.3320   47.8580 H   0  0  0  0  0  0  0  0  0  0  0  0
   32.1390   27.1130   49.1870 H   0  0  0  0  0  0  0  0  0  0  0  0
   32.0790   28.8600   49.6220 H   0  0  0  0  0  0  0  0  0  0  0  0
   32.6900   27.4050   47.0090 H   0  0  0  0  0  0  0  0  0  0  0  0
   35.8570   30.5430   48.9960 C   0  0  1  0  0  0  0  0  0  0  0  0
   35.9430   29.1210   48.7660 C   0  0  1  0  0  0  0  0  0  0  0  0
   36.1420   29.5940   50.1700 C   0  0  0  0  0  0  0  0  0  0  0  0
   34.9520   31.1440   49.2070 H   0  0  0  0  0  0  0  0  0  0  0  0
   36.8970   28.7620   48.2800 H   0  0  0  0  0  0  0  0  0  0  0  0
   35.2970   29.3260   50.8370 H   0  0  0  0  0  0  0  0  0  0  0  0
   37.1430   29.6080   50.6250 H   0  0  0  0  0  0  0  0  0  0  0  0
   37.0370   31.4590   48.7120 C   0  0  0  0  0  0  0  0  0  0  0  0
   37.2370   32.5300   49.5840 C   0  0  0  0  0  0  0  0  0  0  0  0
   38.3140   33.3470   49.2580 C   0  0  0  0  0  0  0  0  0  0  0  0
   39.0960   33.0930   48.1610 N   0  0  0  0  0  0  0  0  0  0  0  0
   38.8570   32.0370   47.3470 C   0  0  0  0  0  0  0  0  0  0  0  0
   37.8170   31.2150   47.6270 N   0  0  0  0  0  0  0  0  0  0  0  0
   36.6120   32.7010   50.4260 H   0  0  0  0  0  0  0  0  0  0  0  0
   38.5550   34.2040   49.8680 H   0  0  0  0  0  0  0  0  0  0  0  0
   39.5030   31.8830   46.4960 H   0  0  0  0  0  0  0  0  0  0  0  0
   34.4240   28.9380   46.0700 O   0  0  0  0  0  0  0  0  0  0  0  0
   33.7520   29.3080   45.4750 H   0  0  0  0  0  0  0  0  0  0  0  0
   31.5700   29.1500   47.1090 O   0  0  0  0  0  0  0  0  0  0  0  0
   31.9270   28.3380   44.4020 H   0  0  0  0  0  0  0  0  0  0  0  0
   30.9880   28.3350   44.8450 N   0  0  0  0  0  0  0  0  0  0  0  0
   30.7160   28.6980   46.1100 C   0  0  0  0  0  0  0  0  0  0  0  0
   29.3840   28.5330   46.2350 N   0  0  0  0  0  0  0  0  0  0  0  0
   28.8410   28.0810   45.0870 C   0  0  0  0  0  0  0  0  0  0  0  0
   27.5590   27.7570   44.6960 C   0  0  0  0  0  0  0  0  0  0  0  0
   27.2790   27.3150   43.4490 N   0  0  0  0  0  0  0  0  0  0  0  0
   28.3160   27.1970   42.5820 C   0  0  0  0  0  0  0  0  0  0  0  0
   28.3010   26.8640   41.5500 H   0  0  0  0  0  0  0  0  0  0  0  0
   29.5770   27.5100   42.9500 N   0  0  0  0  0  0  0  0  0  0  0  0
   29.8850   27.9530   44.1830 C   0  0  0  0  0  0  0  0  0  0  0  0
   26.4950   27.8930   45.6310 N   0  0  0  0  0  0  0  0  0  0  0  0
   25.8940   27.1080   46.0180 H   0  0  0  0  0  0  0  0  0  0  0  0
   26.3310   28.8630   45.9300 H   0  0  0  0  0  0  0  0  0  0  0  0
  1  5  1  0  0  0  0
  1  6  1  1  0  0  0
  1  2  1  0  0  0  0
  2  7  1  6  0  0  0
  2 12  1  0  0  0  0
  2  3  1  0  0  0  0
  4  8  1  0  0  0  0
  4  3  1  0  0  0  0
  4  9  1  0  0  0  0
  5 10  1  6  0  0  0
  5  4  1  0  0  0  0
 11 14  1  6  0  0  0
 11 13  1  0  0  0  0
 12 15  1  6  0  0  0
 12 11  1  0  0  0  0
 12 13  1  0  0  0  0
 13 17  1  0  0  0  0
 13 16  1  0  0  0  0
 18 11  1  0  0  0  0
 18 19  1  0  0  0  0
 19 24  1  0  0  0  0
 20 19  2  0  0  0  0
 20 25  1  0  0  0  0
 21 20  1  0  0  0  0
 22 23  1  0  0  0  0
 22 21  2  0  0  0  0
 23 18  2  0  0  0  0
 26 22  1  0  0  0  0
 27  1  1  0  0  0  0
 28 27  1  0  0  0  0
 29  5  1  0  0  0  0
 30 31  1  0  0  0  0
 31 32  1  0  0  0  0
 32 33  2  0  0  0  0
 32 29  1  0  0  0  0
 34 33  1  0  0  0  0
 35 34  1  0  0  0  0
 35 41  1  0  0  0  0
 36 35  2  0  0  0  0
 37 39  2  0  0  0  0
 37 36  1  0  0  0  0
 38 37  1  0  0  0  0
 39 40  1  0  0  0  0
 40 31  1  0  0  0  0
 40 34  2  0  0  0  0
 41 43  1  0  0  0  0
 41 42  1  0  0  0  0
M  END
>  <minimizedAffinity>
-5.1778059

>  <minimizedRMSD>
0.200589761

$$$$
