
 OpenBabel03272509433D

 43 46  0  0  1  0  0  0  0  0999 V2000
   37.0250   30.9150   49.0530 C   0  0  0  0  0  0  0  0  0  0  0  0
   36.7240   31.7940   50.0960 C   0  0  0  0  0  0  0  0  0  0  0  0
   37.3080   33.0490   50.1860 C   0  0  0  0  0  0  0  0  0  0  0  0
   38.2230   33.4510   49.2090 C   0  0  0  0  0  0  0  0  0  0  0  0
   38.5070   32.5820   48.1970 C   0  0  0  0  0  0  0  0  0  0  0  0
   37.9050   31.3340   48.1380 C   0  0  0  0  0  0  0  0  0  0  0  0
   36.0050   31.4520   50.8440 H   0  0  0  0  0  0  0  0  0  0  0  0
   36.9950   33.6310   51.0350 H   0  0  0  0  0  0  0  0  0  0  0  0
   38.6300   34.4400   49.3530 H   0  0  0  0  0  0  0  0  0  0  0  0
   39.2360   33.0330   47.5180 H   0  0  0  0  0  0  0  0  0  0  0  0
   36.4430   29.5930   48.9750 C   0  0  2  0  0  0  0  0  0  0  0  0
   36.9690   29.0780   48.0820 H   0  0  0  0  0  0  0  0  0  0  0  0
   33.5910   30.0770   46.7760 C   0  0  0  0  0  0  0  0  0  0  0  0
   32.8920   28.8890   46.8660 C   0  0  0  0  0  0  0  0  0  0  0  0
   33.3600   27.9240   47.7380 C   0  0  0  0  0  0  0  0  0  0  0  0
   34.4950   28.1750   48.4790 N   0  0  0  0  0  0  0  0  0  0  0  0
   35.1180   29.3280   48.3450 C   0  0  0  0  0  0  0  0  0  0  0  0
   34.6740   30.2850   47.4980 N   0  0  0  0  0  0  0  0  0  0  0  0
   33.2280   30.8370   46.0940 H   0  0  0  0  0  0  0  0  0  0  0  0
   31.9980   28.6510   46.3030 H   0  0  0  0  0  0  0  0  0  0  0  0
   32.8760   26.9700   47.8740 H   0  0  0  0  0  0  0  0  0  0  0  0
   36.8840   28.8050   49.8910 O   0  0  0  0  0  0  0  0  0  0  0  0
   36.6910   28.9830   50.8530 H   0  0  0  0  0  0  0  0  0  0  0  0
   38.3200   30.5060   47.0300 C   0  0  0  0  0  3  0  0  0  0  0  0
   38.9050   30.9770   45.9230 C   0  0  0  0  0  3  0  0  0  0  0  0
   39.4080   30.2210   44.7530 C   0  0  0  0  0  0  0  0  0  0  0  0
   38.6600   29.4330   44.5260 H   0  0  0  0  0  0  0  0  0  0  0  0
   40.3590   29.6960   44.9770 H   0  0  0  0  0  0  0  0  0  0  0  0
   39.5520   31.3170   43.3380 S   0  0  0  0  0  0  0  0  0  0  0  0
   41.2720   28.7870   42.6880 H   0  0  0  0  0  0  0  0  0  0  0  0
   41.1320   29.4470   41.8940 N   0  0  0  0  0  0  0  0  0  0  0  0
   40.4220   30.5860   41.9870 C   0  0  0  0  0  0  0  0  0  0  0  0
   40.4140   31.2300   40.8050 N   0  0  0  0  0  0  0  0  0  0  0  0
   41.1340   30.5080   39.9060 C   0  0  0  0  0  0  0  0  0  0  0  0
   41.4570   30.6800   38.5750 C   0  0  0  0  0  0  0  0  0  0  0  0
   42.2200   29.7350   37.9540 N   0  0  0  0  0  0  0  0  0  0  0  0
   42.6410   28.6510   38.6620 C   0  0  0  0  0  0  0  0  0  0  0  0
   43.2480   27.9250   38.1240 H   0  0  0  0  0  0  0  0  0  0  0  0
   42.3150   28.4930   39.9770 N   0  0  0  0  0  0  0  0  0  0  0  0
   41.5620   29.4090   40.6200 C   0  0  0  0  0  0  0  0  0  0  0  0
   40.9660   31.8490   37.9220 N   0  0  0  0  0  0  0  0  0  0  0  0
   40.0070   32.2290   38.0370 H   0  0  0  0  0  0  0  0  0  0  0  0
   41.6910   32.2890   37.3080 H   0  0  0  0  0  0  0  0  0  0  0  0
  1  2  1  0  0  0  0
  2  3  2  0  0  0  0
  2  7  1  0  0  0  0
  3  8  1  0  0  0  0
  4  9  1  0  0  0  0
  4  3  1  0  0  0  0
  5  4  2  0  0  0  0
  6  5  1  0  0  0  0
  6  1  2  0  0  0  0
 10  5  1  0  0  0  0
 11 12  1  6  0  0  0
 11  1  1  0  0  0  0
 11 22  1  0  0  0  0
 13 14  2  0  0  0  0
 13 18  1  0  0  0  0
 14 15  1  0  0  0  0
 15 21  1  0  0  0  0
 15 16  2  0  0  0  0
 17 16  1  0  0  0  0
 17 11  1  0  0  0  0
 18 17  2  0  0  0  0
 19 13  1  0  0  0  0
 20 14  1  0  0  0  0
 22 23  1  0  0  0  0
 24  6  1  0  0  0  0
 25 24  2  0  0  0  0
 26 28  1  0  0  0  0
 26 25  1  0  0  0  0
 27 26  1  0  0  0  0
 29 26  1  0  0  0  0
 31 32  1  0  0  0  0
 31 30  1  0  0  0  0
 32 29  1  0  0  0  0
 33 32  2  0  0  0  0
 34 40  1  0  0  0  0
 34 33  1  0  0  0  0
 35 34  2  0  0  0  0
 36 35  1  0  0  0  0
 36 37  2  0  0  0  0
 37 39  1  0  0  0  0
 38 37  1  0  0  0  0
 39 40  2  0  0  0  0
 40 31  1  0  0  0  0
 41 42  1  0  0  0  0
 41 35  1  0  0  0  0
 43 41  1  0  0  0  0
M  END
>  <minimizedAffinity>
-6.11624813

>  <minimizedRMSD>
0.837410212

$$$$
