REMARK  Name = 
REMARK  6 active torsions:
REMARK  status: ('A' for Active; 'I' for Inactive)
REMARK    1  A    between atoms: C_3  and  O_7
REMARK    2  A    between atoms: O_7  and  P_9
REMARK    3  A    between atoms: P_9  and  O_10
REMARK    4  A    between atoms: P_9  and  O_11
REMARK    5  A    between atoms: O_11  and  C_18
REMARK    6  A    between atoms: C_21  and  N_22
REMARK                            x       y       z     vdW  Elec       q    Type
REMARK                         _______ _______ _______ _____ _____    ______ ____
ROOT
ATOM      1  O   UNL     1      40.160  31.178  46.421  0.00  0.00    +0.000 OA
ENDROOT
BRANCH   1   4
ATOM      2  H   UNL     1      42.258  30.542  44.797  0.00  0.00    +0.000 HD
ATOM      3  N   UNL     1      41.336  30.042  44.772  0.00  0.00    +0.000 N 
ATOM      4  C   UNL     1      40.171  30.164  45.455  0.00  0.00    +0.000 A 
ATOM      5  N   UNL     1      39.313  29.237  44.994  0.00  0.00    +0.000 NA
ATOM      6  C   UNL     1      39.931  28.534  44.028  0.00  0.00    +0.000 A 
ATOM      7  C   UNL     1      39.438  27.490  43.279  0.00  0.00    +0.000 A 
ATOM      8  N   UNL     1      40.246  26.933  42.358  0.00  0.00    +0.000 NA
ATOM      9  C   UNL     1      41.502  27.435  42.222  0.00  0.00    +0.000 A 
ATOM     10  H   UNL     1      42.220  27.040  41.499  0.00  0.00    +0.000 HD
ATOM     11  N   UNL     1      41.988  28.452  42.949  0.00  0.00    +0.000 NA
ATOM     12  C   UNL     1      41.209  29.030  43.876  0.00  0.00    +0.000 A 
BRANCH   7  13
ATOM     13  N   UNL     1      38.117  26.984  43.443  0.00  0.00    +0.000 N 
ATOM     14  H   UNL     1      37.509  27.401  42.679  0.00  0.00    +0.000 HD
ATOM     15  H   UNL     1      37.631  26.329  44.109  0.00  0.00    +0.000 HD
ENDBRANCH   7  13
ENDBRANCH   1   4
BRANCH   1  17
ATOM     16  O   UNL     1      39.061  32.735  48.140  0.00  0.00    +0.000 OA
ATOM     17  P   UNL     1      38.692  31.720  47.094  0.00  0.00    +0.000 P 
BRANCH  17  18
ATOM     18  O   UNL     1      37.830  32.456  45.837  0.00  0.00    +0.000 OA
ATOM     19  H   UNL     1      36.933  32.757  46.116  0.00  0.00    +0.000 HD
ENDBRANCH  17  18
BRANCH  17  20
ATOM     20  O   UNL     1      37.860  30.386  47.695  0.00  0.00    +0.000 OA
BRANCH  20  23
ATOM     21  C   UNL     1      37.350  30.151  51.359  0.00  0.00    +0.000 A 
ATOM     22  C   UNL     1      37.998  30.506  50.175  0.00  0.00    +0.000 A 
ATOM     23  C   UNL     1      37.413  30.149  48.958  0.00  0.00    +0.000 A 
ATOM     24  N   UNL     1      36.237  29.471  48.992  0.00  0.00    +0.000 NA
ATOM     25  C   UNL     1      35.633  29.142  50.157  0.00  0.00    +0.000 A 
ATOM     26  N   UNL     1      36.187  29.480  51.326  0.00  0.00    +0.000 NA
ATOM     27  H   UNL     1      37.911  30.489  52.215  0.00  0.00    +0.000 HD
ATOM     28  H   UNL     1      38.914  31.033  50.078  0.00  0.00    +0.000 HD
ATOM     29  H   UNL     1      34.693  28.600  50.158  0.00  0.00    +0.000 HD
ENDBRANCH  20  23
ENDBRANCH  17  20
ENDBRANCH   1  17
TORSDOF 6
