
     RDKit          3D

 31 34  0  0  0  0  0  0  0  0999 V2000
   37.5210   31.4039   49.3282 C   0  0  0  0  0  0  0  0  0  0  0  0
   38.1513   32.6464   49.4049 C   0  0  0  0  0  0  0  0  0  0  0  0
   38.9468   32.9825   48.3006 C   0  0  0  0  0  0  0  0  0  0  0  0
   39.0628   32.1178   47.2484 N   0  0  0  0  0  0  0  0  0  0  0  0
   38.4305   30.9210   47.2200 C   0  0  0  0  0  0  0  0  0  0  0  0
   37.6452   30.5529   48.2757 N   0  0  0  0  0  0  0  0  0  0  0  0
   36.6385   31.0374   50.4943 C   0  0  1  0  0  0  0  0  0  0  0  0
   36.1370   29.6917   50.6625 C   0  0  2  0  0  0  0  0  0  0  0  0
   37.3464   30.0972   51.4787 C   0  0  0  0  0  0  0  0  0  0  0  0
   36.3965   28.7372   49.6657 O   0  0  0  0  0  0  0  0  0  0  0  0
   38.0167   33.2828   50.2677 H   0  0  0  0  0  0  0  0  0  0  0  0
   39.4589   33.9333   48.3060 H   0  0  0  0  0  0  0  0  0  0  0  0
   38.5253   30.2404   46.3855 H   0  0  0  0  0  0  0  0  0  0  0  0
   36.1852   31.9279   50.9924 H   0  0  0  0  0  0  0  0  0  0  0  0
   35.1584   29.5659   51.1549 H   0  0  0  0  0  0  0  0  0  0  0  0
   37.1073   30.2348   52.5438 H   0  0  0  0  0  0  0  0  0  0  0  0
   38.3163   29.6766   51.2072 H   0  0  0  0  0  0  0  0  0  0  0  0
   36.2999   25.8923   49.7584 H   0  0  0  0  0  0  0  0  0  0  0  0
   35.4502   26.4234   49.4685 N   0  0  0  0  0  0  0  0  0  0  0  0
   35.4369   27.7674   49.4063 C   0  0  0  0  0  0  0  0  0  0  0  0
   34.1929   28.0785   49.0021 N   0  0  0  0  0  0  0  0  0  0  0  0
   33.4420   26.9859   48.8135 C   0  0  0  0  0  0  0  0  0  0  0  0
   32.1593   26.6601   48.4247 C   0  0  0  0  0  0  0  0  0  0  0  0
   31.2909   27.7177   48.1062 N   0  0  0  0  0  0  0  0  0  0  0  0
   30.7984   28.3519   48.7908 H   0  0  0  0  0  0  0  0  0  0  0  0
   31.7291   25.3958   48.3442 N   0  0  0  0  0  0  0  0  0  0  0  0
   32.5507   24.3646   48.6469 C   0  0  0  0  0  0  0  0  0  0  0  0
   32.1276   23.3798   48.5566 H   0  0  0  0  0  0  0  0  0  0  0  0
   33.8103   24.6506   49.0302 N   0  0  0  0  0  0  0  0  0  0  0  0
   34.2726   25.9057   49.1211 C   0  0  0  0  0  0  0  0  0  0  0  0
   30.8343   28.2501   47.3390 H   0  0  0  0  0  0  0  0  0  0  0  0
  1  2  2  0
  1  7  1  0
  3  2  1  0
  4  3  2  0
  5  4  1  0
  5  6  2  0
  6  1  1  0
  7  8  1  0
  7  9  1  0
  8  9  1  0
 10  8  1  0
  2 11  1  0
  3 12  1  0
  5 13  1  0
  7 14  1  1
  8 15  1  1
  9 16  1  0
  9 17  1  0
 18 19  1  0
 19 20  1  0
 20 21  2  0
 21 22  1  0
 22 23  2  0
 23 24  1  0
 24 25  1  0
 23 26  1  0
 26 27  2  0
 27 28  1  0
 27 29  1  0
 29 30  2  0
 30 19  1  0
 30 22  1  0
 24 31  1  0
 10 20  1  0
M  ISO  8  11  14  12  14  13  14  14  13  15  13  16  13  17  13  18   9
M  ISO  2  25   5  28  16
M  END
>  <DihAtoms>  (1) 
7,9,19,18

>  <DihDeg>  (1) 
0.0018392376490189023

$$$$
