
 OpenBabel03272509433D

 43 46  0  0  1  0  0  0  0  0999 V2000
   37.0150   30.8960   49.1720 C   0  0  0  0  0  0  0  0  0  0  0  0
   36.6670   31.8130   50.1680 C   0  0  0  0  0  0  0  0  0  0  0  0
   37.1960   33.0950   50.1970 C   0  0  0  0  0  0  0  0  0  0  0  0
   38.1010   33.4860   49.2070 C   0  0  0  0  0  0  0  0  0  0  0  0
   38.4310   32.5810   48.2430 C   0  0  0  0  0  0  0  0  0  0  0  0
   37.8840   31.3060   48.2430 C   0  0  0  0  0  0  0  0  0  0  0  0
   35.9560   31.4780   50.9260 H   0  0  0  0  0  0  0  0  0  0  0  0
   36.8500   33.7050   51.0130 H   0  0  0  0  0  0  0  0  0  0  0  0
   38.4640   34.4980   49.3040 H   0  0  0  0  0  0  0  0  0  0  0  0
   39.1460   33.0280   47.5460 H   0  0  0  0  0  0  0  0  0  0  0  0
   36.4900   29.5480   49.1580 C   0  0  2  0  0  0  0  0  0  0  0  0
   36.9440   29.0520   48.2150 H   0  0  0  0  0  0  0  0  0  0  0  0
   33.6910   29.3140   46.8530 C   0  0  0  0  0  0  0  0  0  0  0  0
   32.8080   28.4570   47.4830 C   0  0  0  0  0  0  0  0  0  0  0  0
   33.1370   27.9970   48.7440 C   0  0  0  0  0  0  0  0  0  0  0  0
   34.3210   28.4010   49.3240 N   0  0  0  0  0  0  0  0  0  0  0  0
   35.1210   29.2170   48.6700 C   0  0  0  0  0  0  0  0  0  0  0  0
   34.8150   29.6800   47.4360 N   0  0  0  0  0  0  0  0  0  0  0  0
   33.4370   29.6780   45.8640 H   0  0  0  0  0  0  0  0  0  0  0  0
   31.8700   28.1160   47.0630 H   0  0  0  0  0  0  0  0  0  0  0  0
   32.5080   27.3280   49.3080 H   0  0  0  0  0  0  0  0  0  0  0  0
   37.0620   28.7880   50.0240 O   0  0  0  0  0  0  0  0  0  0  0  0
   36.9610   28.9630   51.0000 H   0  0  0  0  0  0  0  0  0  0  0  0
   38.3440   30.4420   47.1810 C   0  0  0  0  0  3  0  0  0  0  0  0
   38.5750   30.8540   45.9300 C   0  0  0  0  0  3  0  0  0  0  0  0
   39.0860   30.0710   44.7810 C   0  0  0  0  0  0  0  0  0  0  0  0
   38.2740   30.0320   44.0250 H   0  0  0  0  0  0  0  0  0  0  0  0
   39.3050   29.0200   45.0610 H   0  0  0  0  0  0  0  0  0  0  0  0
   40.5120   30.8980   44.0680 S   0  0  0  0  0  0  0  0  0  0  0  0
   42.1470   28.5520   42.8020 H   0  0  0  0  0  0  0  0  0  0  0  0
   41.6940   29.1990   42.1200 N   0  0  0  0  0  0  0  0  0  0  0  0
   40.9540   30.2610   42.4820 C   0  0  0  0  0  0  0  0  0  0  0  0
   40.5010   30.9080   41.3920 N   0  0  0  0  0  0  0  0  0  0  0  0
   40.9480   30.2640   40.2810 C   0  0  0  0  0  0  0  0  0  0  0  0
   40.7990   30.4740   38.9250 C   0  0  0  0  0  0  0  0  0  0  0  0
   41.4000   29.6110   38.0540 N   0  0  0  0  0  0  0  0  0  0  0  0
   42.1270   28.5720   38.5460 C   0  0  0  0  0  0  0  0  0  0  0  0
   42.5860   27.9110   37.8130 H   0  0  0  0  0  0  0  0  0  0  0  0
   42.2660   28.3750   39.8890 N   0  0  0  0  0  0  0  0  0  0  0  0
   41.6840   29.2090   40.7740 C   0  0  0  0  0  0  0  0  0  0  0  0
   40.0190   31.5930   38.5110 N   0  0  0  0  0  0  0  0  0  0  0  0
   39.1190   31.8760   38.9440 H   0  0  0  0  0  0  0  0  0  0  0  0
   40.4580   32.1040   37.7110 H   0  0  0  0  0  0  0  0  0  0  0  0
  1  2  1  0  0  0  0
  2  3  2  0  0  0  0
  2  7  1  0  0  0  0
  3  8  1  0  0  0  0
  4  9  1  0  0  0  0
  4  3  1  0  0  0  0
  5  4  2  0  0  0  0
  6  5  1  0  0  0  0
  6  1  2  0  0  0  0
 10  5  1  0  0  0  0
 11 12  1  6  0  0  0
 11  1  1  0  0  0  0
 11 22  1  0  0  0  0
 13 18  2  0  0  0  0
 13 14  1  0  0  0  0
 14 15  2  0  0  0  0
 15 21  1  0  0  0  0
 15 16  1  0  0  0  0
 17 11  1  0  0  0  0
 17 16  2  0  0  0  0
 18 17  1  0  0  0  0
 19 13  1  0  0  0  0
 20 14  1  0  0  0  0
 22 23  1  0  0  0  0
 24  6  1  0  0  0  0
 25 24  2  0  0  0  0
 26 28  1  0  0  0  0
 26 25  1  0  0  0  0
 27 26  1  0  0  0  0
 29 26  1  0  0  0  0
 31 32  1  0  0  0  0
 31 30  1  0  0  0  0
 32 29  1  0  0  0  0
 33 32  2  0  0  0  0
 34 40  1  0  0  0  0
 34 33  1  0  0  0  0
 35 34  2  0  0  0  0
 36 37  2  0  0  0  0
 36 35  1  0  0  0  0
 37 39  1  0  0  0  0
 38 37  1  0  0  0  0
 39 40  2  0  0  0  0
 40 31  1  0  0  0  0
 41 35  1  0  0  0  0
 41 42  1  0  0  0  0
 43 41  1  0  0  0  0
M  END
>  <minimizedAffinity>
-6.32954931

>  <minimizedRMSD>
1.15295923

$$$$
