
 OpenBabel03272508273D

 43 47  0  0  1  0  0  0  0  0999 V2000
   33.6940   28.9280   47.1650 C   0  0  2  0  0  0  0  0  0  0  0  0
   34.3900   28.0980   48.2300 C   0  0  2  0  0  0  0  0  0  0  0  0
   33.4710   27.9250   49.2260 O   0  0  0  0  0  0  0  0  0  0  0  0
   32.2050   28.0450   48.7320 C   0  0  0  0  0  0  0  0  0  0  0  0
   32.2980   28.3060   47.2460 C   0  0  1  0  0  0  0  0  0  0  0  0
   33.5890   29.9820   47.4540 H   0  0  0  0  0  0  0  0  0  0  0  0
   34.6600   27.1430   47.7240 H   0  0  0  0  0  0  0  0  0  0  0  0
   31.6510   27.0670   48.8390 H   0  0  0  0  0  0  0  0  0  0  0  0
   31.6480   28.8140   49.2790 H   0  0  0  0  0  0  0  0  0  0  0  0
   32.3720   27.3360   46.7080 H   0  0  0  0  0  0  0  0  0  0  0  0
   35.5300   30.3020   48.9690 C   0  0  1  0  0  0  0  0  0  0  0  0
   35.5720   28.8840   48.7040 C   0  0  1  0  0  0  0  0  0  0  0  0
   35.7110   29.3100   50.1300 C   0  0  0  0  0  0  0  0  0  0  0  0
   34.6400   30.9340   49.1480 H   0  0  0  0  0  0  0  0  0  0  0  0
   36.5360   28.4970   48.2610 H   0  0  0  0  0  0  0  0  0  0  0  0
   34.8190   29.0600   50.7420 H   0  0  0  0  0  0  0  0  0  0  0  0
   36.6840   29.2700   50.6390 H   0  0  0  0  0  0  0  0  0  0  0  0
   36.7600   31.1740   48.7780 C   0  0  0  0  0  0  0  0  0  0  0  0
   36.9730   32.1900   49.7100 C   0  0  0  0  0  0  0  0  0  0  0  0
   38.0980   32.9710   49.4670 C   0  0  0  0  0  0  0  0  0  0  0  0
   38.9100   32.7350   48.3880 N   0  0  0  0  0  0  0  0  0  0  0  0
   38.6560   31.7340   47.5120 C   0  0  0  0  0  0  0  0  0  0  0  0
   37.5710   30.9480   47.7110 N   0  0  0  0  0  0  0  0  0  0  0  0
   36.3240   32.3470   50.5360 H   0  0  0  0  0  0  0  0  0  0  0  0
   38.3530   33.7840   50.1290 H   0  0  0  0  0  0  0  0  0  0  0  0
   39.3280   31.5920   46.6800 H   0  0  0  0  0  0  0  0  0  0  0  0
   34.2430   28.7830   45.9050 O   0  0  0  0  0  0  0  0  0  0  0  0
   33.6350   29.1870   45.2650 H   0  0  0  0  0  0  0  0  0  0  0  0
   31.3350   29.1340   46.7370 O   0  0  0  0  0  0  0  0  0  0  0  0
   28.7560   30.1490   46.0830 H   0  0  0  0  0  0  0  0  0  0  0  0
   29.0370   29.1860   45.8180 N   0  0  0  0  0  0  0  0  0  0  0  0
   30.2260   28.6170   46.0810 C   0  0  0  0  0  0  0  0  0  0  0  0
   30.1360   27.3780   45.5560 N   0  0  0  0  0  0  0  0  0  0  0  0
   28.9310   27.1800   44.9860 C   0  0  0  0  0  0  0  0  0  0  0  0
   28.3460   26.1180   44.3280 C   0  0  0  0  0  0  0  0  0  0  0  0
   27.0860   26.1820   43.8390 N   0  0  0  0  0  0  0  0  0  0  0  0
   26.4070   27.3420   44.0190 C   0  0  0  0  0  0  0  0  0  0  0  0
   25.4000   27.5920   43.7060 H   0  0  0  0  0  0  0  0  0  0  0  0
   26.9670   28.3900   44.6600 N   0  0  0  0  0  0  0  0  0  0  0  0
   28.2170   28.3550   45.1570 C   0  0  0  0  0  0  0  0  0  0  0  0
   29.0880   24.9140   44.1570 N   0  0  0  0  0  0  0  0  0  0  0  0
   29.3970   24.4930   43.2340 H   0  0  0  0  0  0  0  0  0  0  0  0
   29.3200   24.4460   45.0430 H   0  0  0  0  0  0  0  0  0  0  0  0
  1  5  1  0  0  0  0
  1  6  1  1  0  0  0
  1  2  1  0  0  0  0
  2  7  1  6  0  0  0
  2 12  1  0  0  0  0
  2  3  1  0  0  0  0
  4  8  1  0  0  0  0
  4  3  1  0  0  0  0
  4  9  1  0  0  0  0
  5 10  1  6  0  0  0
  5  4  1  0  0  0  0
 11 14  1  6  0  0  0
 11 13  1  0  0  0  0
 12 15  1  6  0  0  0
 12 11  1  0  0  0  0
 12 13  1  0  0  0  0
 13 17  1  0  0  0  0
 13 16  1  0  0  0  0
 18 11  1  0  0  0  0
 18 19  1  0  0  0  0
 19 24  1  0  0  0  0
 20 19  2  0  0  0  0
 20 25  1  0  0  0  0
 21 20  1  0  0  0  0
 22 23  1  0  0  0  0
 22 21  2  0  0  0  0
 23 18  2  0  0  0  0
 26 22  1  0  0  0  0
 27  1  1  0  0  0  0
 28 27  1  0  0  0  0
 29  5  1  0  0  0  0
 31 32  1  0  0  0  0
 31 30  1  0  0  0  0
 32 29  1  0  0  0  0
 33 32  2  0  0  0  0
 34 40  1  0  0  0  0
 34 33  1  0  0  0  0
 35 34  2  0  0  0  0
 36 37  2  0  0  0  0
 36 35  1  0  0  0  0
 37 39  1  0  0  0  0
 38 37  1  0  0  0  0
 39 40  2  0  0  0  0
 40 31  1  0  0  0  0
 41 35  1  0  0  0  0
 41 43  1  0  0  0  0
 42 41  1  0  0  0  0
M  END
>  <minimizedAffinity>
-5.32042742

>  <minimizedRMSD>
1.04776955

$$$$
