
 OpenBabel03272509183D

 38 41  0  0  0  0  0  0  0  0999 V2000
   37.9830   31.4170   47.6540 C   0  0  0  0  0  0  0  0  0  0  0  0
   37.0820   31.3320   48.7100 C   0  0  0  0  0  0  0  0  0  0  0  0
   37.2200   32.3420   49.6630 C   0  0  0  0  0  0  0  0  0  0  0  0
   38.1890   33.3350   49.5370 C   0  0  0  0  0  0  0  0  0  0  0  0
   39.0500   33.3340   48.4350 C   0  0  0  0  0  0  0  0  0  0  0  0
   38.9370   32.3490   47.4780 C   0  0  0  0  0  0  0  0  0  0  0  0
   36.5640   32.3620   50.5220 H   0  0  0  0  0  0  0  0  0  0  0  0
   38.2630   34.1060   50.3040 H   0  0  0  0  0  0  0  0  0  0  0  0
   39.7910   34.1080   48.3560 H   0  0  0  0  0  0  0  0  0  0  0  0
   34.9380   30.3560   48.0320 C   0  0  0  0  0  0  0  0  0  0  0  0
   36.0900   30.3130   48.8380 C   0  0  0  0  0  0  0  0  0  0  0  0
   36.2100   29.2590   49.7410 C   0  0  0  0  0  0  0  0  0  0  0  0
   35.2080   28.3340   49.7900 N   0  0  0  0  0  0  0  0  0  0  0  0
   34.1070   28.4090   48.9930 C   0  0  0  0  0  0  0  0  0  0  0  0
   33.9780   29.4180   48.1200 N   0  0  0  0  0  0  0  0  0  0  0  0
   34.8150   31.1670   47.3180 H   0  0  0  0  0  0  0  0  0  0  0  0
   33.3200   27.6720   49.0390 H   0  0  0  0  0  0  0  0  0  0  0  0
   37.3900   29.1570   50.6120 C   0  0  0  0  0  0  0  0  0  0  0  0
   37.0110   28.9530   51.6510 H   0  0  0  0  0  0  0  0  0  0  0  0
   38.0110   28.3000   50.2950 H   0  0  0  0  0  0  0  0  0  0  0  0
   37.9430   30.1120   50.5780 H   0  0  0  0  0  0  0  0  0  0  0  0
   37.9040   30.4240   46.6430 O   0  0  0  0  0  0  0  0  0  0  0  0
   38.6780   29.7660   46.6370 H   0  0  0  0  0  0  0  0  0  0  0  0
   39.8000   32.3750   46.4050 O   0  0  0  0  0  0  0  0  0  0  0  0
   37.6140   33.5230   44.9850 H   0  0  0  0  0  0  0  0  0  0  0  0
   38.3170   32.9800   44.4770 N   0  0  0  0  0  0  0  0  0  0  0  0
   39.3660   32.4190   45.1050 C   0  0  0  0  0  0  0  0  0  0  0  0
   40.0730   31.7900   44.1360 N   0  0  0  0  0  0  0  0  0  0  0  0
   39.4690   31.9640   42.9480 C   0  0  0  0  0  0  0  0  0  0  0  0
   39.6670   31.5980   41.6190 C   0  0  0  0  0  0  0  0  0  0  0  0
   38.8090   31.9750   40.6520 N   0  0  0  0  0  0  0  0  0  0  0  0
   37.7160   32.7290   40.9420 C   0  0  0  0  0  0  0  0  0  0  0  0
   36.9960   33.0600   40.2110 H   0  0  0  0  0  0  0  0  0  0  0  0
   37.4560   33.1250   42.2100 N   0  0  0  0  0  0  0  0  0  0  0  0
   38.3350   32.7300   43.1550 C   0  0  0  0  0  0  0  0  0  0  0  0
   40.8180   30.8080   41.3350 N   0  0  0  0  0  0  0  0  0  0  0  0
   41.0030   29.8000   41.5600 H   0  0  0  0  0  0  0  0  0  0  0  0
   41.4970   31.4270   40.8350 H   0  0  0  0  0  0  0  0  0  0  0  0
  1  2  1  0  0  0  0
  2 11  1  0  0  0  0
  2  3  2  0  0  0  0
  3  7  1  0  0  0  0
  4  3  1  0  0  0  0
  4  8  1  0  0  0  0
  5  4  2  0  0  0  0
  6  1  2  0  0  0  0
  6  5  1  0  0  0  0
  9  5  1  0  0  0  0
 10 15  2  0  0  0  0
 10 11  1  0  0  0  0
 11 12  2  0  0  0  0
 12 13  1  0  0  0  0
 12 18  1  0  0  0  0
 14 17  1  0  0  0  0
 14 13  2  0  0  0  0
 15 14  1  0  0  0  0
 16 10  1  0  0  0  0
 18 19  1  0  0  0  0
 20 18  1  0  0  0  0
 21 18  1  0  0  0  0
 22  1  1  0  0  0  0
 23 22  1  0  0  0  0
 24  6  1  0  0  0  0
 26 25  1  0  0  0  0
 26 27  1  0  0  0  0
 27 24  1  0  0  0  0
 28 27  2  0  0  0  0
 29 35  1  0  0  0  0
 29 28  1  0  0  0  0
 30 29  2  0  0  0  0
 31 32  2  0  0  0  0
 31 30  1  0  0  0  0
 32 34  1  0  0  0  0
 33 32  1  0  0  0  0
 34 35  2  0  0  0  0
 35 26  1  0  0  0  0
 36 37  1  0  0  0  0
 36 30  1  0  0  0  0
 38 36  1  0  0  0  0
M  END
>  <minimizedAffinity>
-7.32026958

>  <minimizedRMSD>
0.116814099

$$$$
