
 OpenBabel03262522163D

 50 54  0  0  1  0  0  0  0  0999 V2000
   39.0830   29.7700   42.2200 C   0  0  1  0  0  0  0  0  0  0  0  0
   38.9970   31.2720   41.9960 C   0  0  0  0  0  0  0  0  0  0  0  0
   40.0220   31.7880   42.9600 C   0  0  2  0  0  0  0  0  0  0  0  0
   40.4480   30.7450   43.7250 O   0  0  0  0  0  0  0  0  0  0  0  0
   39.4890   29.7490   43.6840 C   0  0  0  0  0  0  0  0  0  0  0  0
   39.9300   29.3280   41.6450 H   0  0  0  0  0  0  0  0  0  0  0  0
   38.0090   31.5910   42.3430 H   0  0  0  0  0  0  0  0  0  0  0  0
   39.2260   31.5250   40.9420 H   0  0  0  0  0  0  0  0  0  0  0  0
   40.8970   32.1700   42.3770 H   0  0  0  0  0  0  0  0  0  0  0  0
   40.0110   28.8000   43.9580 H   0  0  0  0  0  0  0  0  0  0  0  0
   38.6160   29.9680   44.3250 H   0  0  0  0  0  0  0  0  0  0  0  0
   39.4850   32.9350   43.7770 C   0  0  0  0  0  0  0  0  0  0  0  0
   38.4270   32.8270   44.0380 H   0  0  0  0  0  0  0  0  0  0  0  0
   39.5980   33.8660   43.1690 H   0  0  0  0  0  0  0  0  0  0  0  0
   40.5790   33.1450   45.2050 S   0  0  0  0  0  0  0  0  0  0  0  0
   37.7770   31.7740   47.6540 C   0  0  0  0  0  0  0  0  0  0  0  0
   37.9490   32.5160   48.8230 C   0  0  0  0  0  0  0  0  0  0  0  0
   38.9350   33.4730   48.9150 C   0  0  0  0  0  0  0  0  0  0  0  0
   39.7180   33.6440   47.8030 C   0  0  0  0  0  0  0  0  0  0  0  0
   39.5370   32.9110   46.6690 C   0  0  0  0  0  0  0  0  0  0  0  0
   38.5700   31.9690   46.5710 N   0  0  0  0  0  0  0  0  0  0  0  0
   37.2940   32.3320   49.6690 H   0  0  0  0  0  0  0  0  0  0  0  0
   39.0690   34.0530   49.8300 H   0  0  0  0  0  0  0  0  0  0  0  0
   40.5170   34.3780   47.7940 H   0  0  0  0  0  0  0  0  0  0  0  0
   36.7200   30.7910   47.6380 C   0  0  0  0  0  0  0  0  0  0  0  0
   36.2430   30.3750   46.5820 O   0  0  0  0  0  0  0  0  0  0  0  0
   37.0360   29.6270   49.7940 C   0  0  0  0  0  0  0  0  0  0  0  0
   36.1530   30.2270   48.8790 C   0  0  0  0  0  0  0  0  0  0  0  0
   34.7760   30.2770   49.1610 C   0  0  0  0  0  0  0  0  0  0  0  0
   34.3480   29.7240   50.3420 N   0  0  0  0  0  0  0  0  0  0  0  0
   35.2090   29.1540   51.2040 C   0  0  0  0  0  0  0  0  0  0  0  0
   36.5240   29.1080   50.9330 N   0  0  0  0  0  0  0  0  0  0  0  0
   38.0790   29.5960   49.5700 H   0  0  0  0  0  0  0  0  0  0  0  0
   34.1340   30.7420   48.4390 H   0  0  0  0  0  0  0  0  0  0  0  0
   34.7000   28.7770   52.0690 H   0  0  0  0  0  0  0  0  0  0  0  0
   37.8600   29.1640   42.0120 O   0  0  0  0  0  0  0  0  0  0  0  0
   35.7960   27.7930   43.4140 H   0  0  0  0  0  0  0  0  0  0  0  0
   36.5360   27.2180   42.9570 N   0  0  0  0  0  0  0  0  0  0  0  0
   37.5300   27.8570   42.2830 C   0  0  0  0  0  0  0  0  0  0  0  0
   38.3870   26.9260   41.7670 N   0  0  0  0  0  0  0  0  0  0  0  0
   37.9200   25.7030   42.1230 C   0  0  0  0  0  0  0  0  0  0  0  0
   38.3200   24.3910   41.9200 C   0  0  0  0  0  0  0  0  0  0  0  0
   37.5870   23.4070   42.4400 N   0  0  0  0  0  0  0  0  0  0  0  0
   36.4660   23.6030   43.1590 C   0  0  0  0  0  0  0  0  0  0  0  0
   35.9050   22.7530   43.5610 H   0  0  0  0  0  0  0  0  0  0  0  0
   36.0370   24.8810   43.3830 N   0  0  0  0  0  0  0  0  0  0  0  0
   36.7700   25.8960   42.8630 C   0  0  0  0  0  0  0  0  0  0  0  0
   39.5080   24.2060   41.1570 N   0  0  0  0  0  0  0  0  0  0  0  0
   39.6840   23.9600   40.1390 H   0  0  0  0  0  0  0  0  0  0  0  0
   40.4200   24.3250   41.6470 H   0  0  0  0  0  0  0  0  0  0  0  0
  1  6  1  6  0  0  0
  1  5  1  0  0  0  0
  2  1  1  0  0  0  0
  2  7  1  0  0  0  0
  2  3  1  0  0  0  0
  3  9  1  6  0  0  0
  3  4  1  0  0  0  0
  3 12  1  0  0  0  0
  5  4  1  0  0  0  0
  5 10  1  0  0  0  0
  5 11  1  0  0  0  0
  8  2  1  0  0  0  0
 12 13  1  0  0  0  0
 12 15  1  0  0  0  0
 14 12  1  0  0  0  0
 15 20  1  0  0  0  0
 16 17  1  0  0  0  0
 17 18  2  0  0  0  0
 17 22  1  0  0  0  0
 18 23  1  0  0  0  0
 19 18  1  0  0  0  0
 20 19  2  0  0  0  0
 21 20  1  0  0  0  0
 21 16  2  0  0  0  0
 24 19  1  0  0  0  0
 25 16  1  0  0  0  0
 25 28  1  0  0  0  0
 26 25  2  0  0  0  0
 27 32  1  0  0  0  0
 28 29  1  0  0  0  0
 28 27  2  0  0  0  0
 29 30  2  0  0  0  0
 30 31  1  0  0  0  0
 31 35  1  0  0  0  0
 32 31  2  0  0  0  0
 33 27  1  0  0  0  0
 34 29  1  0  0  0  0
 36  1  1  0  0  0  0
 36 39  1  0  0  0  0
 38 37  1  0  0  0  0
 39 38  1  0  0  0  0
 40 41  1  0  0  0  0
 40 39  2  0  0  0  0
 41 47  1  0  0  0  0
 42 41  2  0  0  0  0
 42 43  1  0  0  0  0
 43 44  2  0  0  0  0
 44 46  1  0  0  0  0
 44 45  1  0  0  0  0
 47 38  1  0  0  0  0
 47 46  2  0  0  0  0
 48 50  1  0  0  0  0
 48 42  1  0  0  0  0
 49 48  1  0  0  0  0
M  END
>  <minimizedAffinity>
-5.61320066

>  <minimizedRMSD>
2.24758554

$$$$
