
 OpenBabel03262522153D

 50 54  0  0  1  0  0  0  0  0999 V2000
   39.0670   29.7490   42.2770 C   0  0  1  0  0  0  0  0  0  0  0  0
   38.9000   31.2410   42.0350 C   0  0  0  0  0  0  0  0  0  0  0  0
   39.9660   31.8180   42.9170 C   0  0  2  0  0  0  0  0  0  0  0  0
   40.4900   30.8090   43.6670 O   0  0  0  0  0  0  0  0  0  0  0  0
   39.5740   29.7730   43.7080 C   0  0  0  0  0  0  0  0  0  0  0  0
   39.8910   29.3320   41.6510 H   0  0  0  0  0  0  0  0  0  0  0  0
   37.9260   31.5240   42.4450 H   0  0  0  0  0  0  0  0  0  0  0  0
   39.0440   31.4840   40.9640 H   0  0  0  0  0  0  0  0  0  0  0  0
   40.7810   32.2270   42.2680 H   0  0  0  0  0  0  0  0  0  0  0  0
   40.1550   28.8520   43.9600 H   0  0  0  0  0  0  0  0  0  0  0  0
   38.7390   29.9660   44.4060 H   0  0  0  0  0  0  0  0  0  0  0  0
   39.4380   32.9570   43.7510 C   0  0  0  0  0  0  0  0  0  0  0  0
   38.3820   32.8450   44.0240 H   0  0  0  0  0  0  0  0  0  0  0  0
   39.5420   33.8930   43.1510 H   0  0  0  0  0  0  0  0  0  0  0  0
   40.5480   33.1550   45.1680 S   0  0  0  0  0  0  0  0  0  0  0  0
   37.7710   31.7720   47.6400 C   0  0  0  0  0  0  0  0  0  0  0  0
   37.9570   32.5060   48.8110 C   0  0  0  0  0  0  0  0  0  0  0  0
   38.9460   33.4620   48.8980 C   0  0  0  0  0  0  0  0  0  0  0  0
   39.7160   33.6390   47.7790 C   0  0  0  0  0  0  0  0  0  0  0  0
   39.5210   32.9130   46.6420 C   0  0  0  0  0  0  0  0  0  0  0  0
   38.5530   31.9720   46.5490 N   0  0  0  0  0  0  0  0  0  0  0  0
   37.3120   32.3190   49.6640 H   0  0  0  0  0  0  0  0  0  0  0  0
   39.0910   34.0370   49.8150 H   0  0  0  0  0  0  0  0  0  0  0  0
   40.5160   34.3720   47.7640 H   0  0  0  0  0  0  0  0  0  0  0  0
   36.7140   30.7900   47.6290 C   0  0  0  0  0  0  0  0  0  0  0  0
   36.2290   30.3750   46.5760 O   0  0  0  0  0  0  0  0  0  0  0  0
   37.0400   29.6260   49.7840 C   0  0  0  0  0  0  0  0  0  0  0  0
   36.1520   30.2270   48.8740 C   0  0  0  0  0  0  0  0  0  0  0  0
   34.7770   30.2780   49.1630 C   0  0  0  0  0  0  0  0  0  0  0  0
   34.3550   29.7260   50.3470 N   0  0  0  0  0  0  0  0  0  0  0  0
   35.2200   29.1550   51.2040 C   0  0  0  0  0  0  0  0  0  0  0  0
   36.5340   29.1080   50.9260 N   0  0  0  0  0  0  0  0  0  0  0  0
   38.0820   29.5940   49.5540 H   0  0  0  0  0  0  0  0  0  0  0  0
   34.1310   30.7450   48.4460 H   0  0  0  0  0  0  0  0  0  0  0  0
   34.7160   28.7780   52.0720 H   0  0  0  0  0  0  0  0  0  0  0  0
   37.8610   29.0870   42.1640 O   0  0  0  0  0  0  0  0  0  0  0  0
   38.3760   26.8110   43.7960 H   0  0  0  0  0  0  0  0  0  0  0  0
   37.9230   26.6520   42.8700 N   0  0  0  0  0  0  0  0  0  0  0  0
   37.6700   27.7280   42.0780 C   0  0  0  0  0  0  0  0  0  0  0  0
   37.0800   27.3010   40.9220 N   0  0  0  0  0  0  0  0  0  0  0  0
   36.9670   25.9510   40.9990 C   0  0  0  0  0  0  0  0  0  0  0  0
   36.4710   24.9490   40.1800 C   0  0  0  0  0  0  0  0  0  0  0  0
   36.5290   23.6860   40.6000 N   0  0  0  0  0  0  0  0  0  0  0  0
   37.0450   23.3110   41.7860 C   0  0  0  0  0  0  0  0  0  0  0  0
   37.0650   22.2550   42.0780 H   0  0  0  0  0  0  0  0  0  0  0  0
   37.5430   24.2660   42.6230 N   0  0  0  0  0  0  0  0  0  0  0  0
   37.4930   25.5570   42.2130 C   0  0  0  0  0  0  0  0  0  0  0  0
   35.9310   25.3670   38.9300 N   0  0  0  0  0  0  0  0  0  0  0  0
   34.9400   25.5370   38.5890 H   0  0  0  0  0  0  0  0  0  0  0  0
   36.6010   25.5600   38.1550 H   0  0  0  0  0  0  0  0  0  0  0  0
  1  6  1  6  0  0  0
  1  5  1  0  0  0  0
  2  1  1  0  0  0  0
  2  7  1  0  0  0  0
  2  3  1  0  0  0  0
  3  9  1  6  0  0  0
  3  4  1  0  0  0  0
  3 12  1  0  0  0  0
  4  5  1  0  0  0  0
  5 10  1  0  0  0  0
  5 11  1  0  0  0  0
  8  2  1  0  0  0  0
 12 13  1  0  0  0  0
 12 15  1  0  0  0  0
 14 12  1  0  0  0  0
 15 20  1  0  0  0  0
 16 17  1  0  0  0  0
 17 18  2  0  0  0  0
 17 22  1  0  0  0  0
 18 23  1  0  0  0  0
 19 18  1  0  0  0  0
 20 19  2  0  0  0  0
 21 20  1  0  0  0  0
 21 16  2  0  0  0  0
 24 19  1  0  0  0  0
 25 16  1  0  0  0  0
 25 28  1  0  0  0  0
 26 25  2  0  0  0  0
 27 32  1  0  0  0  0
 28 29  1  0  0  0  0
 28 27  2  0  0  0  0
 29 30  2  0  0  0  0
 30 31  1  0  0  0  0
 31 35  1  0  0  0  0
 32 31  2  0  0  0  0
 33 27  1  0  0  0  0
 34 29  1  0  0  0  0
 36  1  1  0  0  0  0
 38 37  1  0  0  0  0
 39 36  1  0  0  0  0
 39 38  1  0  0  0  0
 40 41  1  0  0  0  0
 40 39  2  0  0  0  0
 41 47  1  0  0  0  0
 42 43  1  0  0  0  0
 42 41  2  0  0  0  0
 43 44  2  0  0  0  0
 44 45  1  0  0  0  0
 44 46  1  0  0  0  0
 47 46  2  0  0  0  0
 47 38  1  0  0  0  0
 48 42  1  0  0  0  0
 49 48  1  0  0  0  0
 50 48  1  0  0  0  0
M  END
>  <minimizedAffinity>
-5.27164412

>  <minimizedRMSD>
1.46494555

$$$$
