REMARK  Name = 
REMARK  8 active torsions:
REMARK  status: ('A' for Active; 'I' for Inactive)
REMARK    1  A    between atoms: C_1  and  C_7
REMARK    2  A    between atoms: C_5  and  S_15
REMARK    3  A    between atoms: C_7  and  C_10
REMARK    4  A    between atoms: S_15  and  C_16
REMARK    5  A    between atoms: C_16  and  C_19
REMARK    6  A    between atoms: C_17  and  O_22
REMARK    7  A    between atoms: O_22  and  C_39
REMARK    8  A    between atoms: C_42  and  N_43
REMARK                            x       y       z     vdW  Elec       q    Type
REMARK                         _______ _______ _______ _____ _____    ______ ____
ROOT
ATOM      1  C   UNL     1      38.776  29.785  42.343  0.00  0.00    +0.000 C 
ATOM      2  C   UNL     1      38.820  31.283  42.081  0.00  0.00    +0.000 C 
ATOM      3  C   UNL     1      39.941  31.720  42.975  0.00  0.00    +0.000 C 
ATOM      4  O   UNL     1      40.308  30.659  43.746  0.00  0.00    +0.000 OA
ATOM      5  C   UNL     1      39.258  29.759  43.783  0.00  0.00    +0.000 C 
ATOM      6  H   UNL     1      39.545  29.250  41.737  0.00  0.00    +0.000 HD
ATOM      7  H   UNL     1      37.888  31.703  42.470  0.00  0.00    +0.000 HD
ATOM      8  H   UNL     1      39.014  31.488  41.010  0.00  0.00    +0.000 HD
ATOM      9  H   UNL     1      40.815  32.003  42.336  0.00  0.00    +0.000 HD
ATOM     10  H   UNL     1      39.702  28.771  44.056  0.00  0.00    +0.000 HD
ATOM     11  H   UNL     1      38.446  30.075  44.463  0.00  0.00    +0.000 HD
ENDROOT
BRANCH   3  12
ATOM     12  C   UNL     1      39.561  32.932  43.786  0.00  0.00    +0.000 C 
ATOM     13  H   UNL     1      38.494  32.975  44.033  0.00  0.00    +0.000 HD
ATOM     14  H   UNL     1      39.812  33.837  43.181  0.00  0.00    +0.000 HD
BRANCH  12  15
ATOM     15  S   UNL     1      40.654  32.986  45.229  0.00  0.00    +0.000 S 
BRANCH  15  20
ATOM     16  C   UNL     1      37.775  31.749  47.660  0.00  0.00    +0.000 A 
ATOM     17  C   UNL     1      37.935  32.527  48.807  0.00  0.00    +0.000 A 
ATOM     18  C   UNL     1      38.936  33.470  48.888  0.00  0.00    +0.000 A 
ATOM     19  C   UNL     1      39.746  33.589  47.789  0.00  0.00    +0.000 A 
ATOM     20  C   UNL     1      39.576  32.821  46.676  0.00  0.00    +0.000 A 
ATOM     21  N   UNL     1      38.595  31.892  46.589  0.00  0.00    +0.000 NA
ATOM     22  H   UNL     1      37.259  32.384  49.644  0.00  0.00    +0.000 HD
ATOM     23  H   UNL     1      39.061  34.079  49.786  0.00  0.00    +0.000 HD
ATOM     24  H   UNL     1      40.558  34.308  47.772  0.00  0.00    +0.000 HD
BRANCH  16  25
ATOM     25  C   UNL     1      36.702  30.784  47.654  0.00  0.00    +0.000 C 
ATOM     26  O   UNL     1      36.205  30.379  46.603  0.00  0.00    +0.000 OA
BRANCH  25  28
ATOM     27  C   UNL     1      37.026  29.633  49.816  0.00  0.00    +0.000 A 
ATOM     28  C   UNL     1      36.139  30.227  48.901  0.00  0.00    +0.000 A 
ATOM     29  C   UNL     1      34.763  30.277  49.187  0.00  0.00    +0.000 A 
ATOM     30  N   UNL     1      34.340  29.731  50.373  0.00  0.00    +0.000 NA
ATOM     31  C   UNL     1      35.204  29.167  51.235  0.00  0.00    +0.000 A 
ATOM     32  N   UNL     1      36.518  29.120  50.960  0.00  0.00    +0.000 NA
ATOM     33  H   UNL     1      38.068  29.601  49.588  0.00  0.00    +0.000 HD
ATOM     34  H   UNL     1      34.118  30.738  48.465  0.00  0.00    +0.000 HD
ATOM     35  H   UNL     1      34.699  28.794  52.104  0.00  0.00    +0.000 HD
ENDBRANCH  25  28
ENDBRANCH  16  25
ENDBRANCH  15  20
ENDBRANCH  12  15
ENDBRANCH   3  12
BRANCH   1  36
ATOM     36  O   UNL     1      37.492  29.294  42.216  0.00  0.00    +0.000 OA
BRANCH  36  39
ATOM     37  H   UNL     1      35.043  27.958  41.643  0.00  0.00    +0.000 HD
ATOM     38  N   UNL     1      35.907  27.612  41.171  0.00  0.00    +0.000 N 
ATOM     39  C   UNL     1      37.085  28.239  41.434  0.00  0.00    +0.000 A 
ATOM     40  N   UNL     1      38.080  27.633  40.719  0.00  0.00    +0.000 NA
ATOM     41  C   UNL     1      37.514  26.625  40.010  0.00  0.00    +0.000 A 
ATOM     42  C   UNL     1      37.966  25.664  39.120  0.00  0.00    +0.000 A 
ATOM     43  N   UNL     1      37.089  24.804  38.600  0.00  0.00    +0.000 NA
ATOM     44  C   UNL     1      35.774  24.806  38.886  0.00  0.00    +0.000 A 
ATOM     45  H   UNL     1      35.102  24.074  38.428  0.00  0.00    +0.000 HD
ATOM     46  N   UNL     1      35.288  25.737  39.759  0.00  0.00    +0.000 NA
ATOM     47  C   UNL     1      36.163  26.621  40.298  0.00  0.00    +0.000 A 
BRANCH  42  48
ATOM     48  N   UNL     1      39.360  25.678  38.831  0.00  0.00    +0.000 N 
ATOM     49  H   UNL     1      39.929  26.068  38.025  0.00  0.00    +0.000 HD
ATOM     50  H   UNL     1      40.000  25.228  39.520  0.00  0.00    +0.000 HD
ENDBRANCH  42  48
ENDBRANCH  36  39
ENDBRANCH   1  36
TORSDOF 8
