
 OpenBabel03262522573D

 30 33  0  0  0  0  0  0  0  0999 V2000
   34.7380   29.0350   48.5210 C   0  0  0  0  0  0  0  0  0  0  0  0
   34.5990   28.4620   47.2630 C   0  0  0  0  0  0  0  0  0  0  0  0
   33.3310   27.9440   47.1630 C   0  0  0  0  0  0  0  0  0  0  0  0
   32.7130   28.2090   48.3620 N   0  0  0  0  0  0  0  0  0  0  0  0
   33.5830   28.8560   49.1350 N   0  0  0  0  0  0  0  0  0  0  0  0
   35.3860   28.4420   46.5010 H   0  0  0  0  0  0  0  0  0  0  0  0
   32.9700   27.4350   46.2630 H   0  0  0  0  0  0  0  0  0  0  0  0
   30.6780   27.4690   46.6630 H   0  0  0  0  0  0  0  0  0  0  0  0
   30.4730   27.4780   47.6830 N   0  0  0  0  0  0  0  0  0  0  0  0
   31.3750   27.8200   48.6390 C   0  0  0  0  0  0  0  0  0  0  0  0
   30.7280   27.7050   49.8100 N   0  0  0  0  0  0  0  0  0  0  0  0
   29.4540   27.3040   49.6160 C   0  0  0  0  0  0  0  0  0  0  0  0
   28.3580   27.0240   50.3890 C   0  0  0  0  0  0  0  0  0  0  0  0
   27.2130   26.6340   49.8000 N   0  0  0  0  0  0  0  0  0  0  0  0
   27.1020   26.5060   48.4650 C   0  0  0  0  0  0  0  0  0  0  0  0
   26.1360   26.1870   48.1010 H   0  0  0  0  0  0  0  0  0  0  0  0
   28.1560   26.7720   47.6680 N   0  0  0  0  0  0  0  0  0  0  0  0
   29.2990   27.1610   48.2570 C   0  0  0  0  0  0  0  0  0  0  0  0
   37.7760   29.7160   50.4610 C   0  0  0  0  0  0  0  0  0  0  0  0
   38.1940   30.9740   49.9180 C   0  0  0  0  0  0  0  0  0  0  0  0
   37.4250   31.5480   48.9080 C   0  0  0  0  0  0  0  0  0  0  0  0
   36.3200   30.8860   48.4920 N   0  0  0  0  0  0  0  0  0  0  0  0
   35.9380   29.6920   49.0180 C   0  0  0  0  0  0  0  0  0  0  0  0
   36.6650   29.1300   49.9850 N   0  0  0  0  0  0  0  0  0  0  0  0
   38.4020   29.3010   51.2460 H   0  0  0  0  0  0  0  0  0  0  0  0
   39.0770   31.5080   50.2490 H   0  0  0  0  0  0  0  0  0  0  0  0
   37.6310   32.4750   48.4300 H   0  0  0  0  0  0  0  0  0  0  0  0
   28.5060   27.1680   51.8000 N   0  0  0  0  0  0  0  0  0  0  0  0
   28.3210   26.2520   52.2830 H   0  0  0  0  0  0  0  0  0  0  0  0
   28.7630   28.0620   52.3060 H   0  0  0  0  0  0  0  0  0  0  0  0
  1 23  1  0  0  0  0
  1  5  2  0  0  0  0
  2  1  1  0  0  0  0
  3  2  2  0  0  0  0
  3  4  1  0  0  0  0
  4 10  1  0  0  0  0
  4  5  1  0  0  0  0
  6  2  1  0  0  0  0
  7  3  1  0  0  0  0
  8  9  1  0  0  0  0
  9 18  1  0  0  0  0
  9 10  1  0  0  0  0
 10 11  2  0  0  0  0
 12 11  1  0  0  0  0
 12 13  1  0  0  0  0
 13 28  1  0  0  0  0
 14 13  2  0  0  0  0
 15 14  1  0  0  0  0
 16 15  1  0  0  0  0
 17 18  1  0  0  0  0
 17 15  2  0  0  0  0
 18 12  2  0  0  0  0
 19 25  1  0  0  0  0
 20 26  1  0  0  0  0
 20 19  2  0  0  0  0
 21 20  1  0  0  0  0
 22 21  2  0  0  0  0
 22 23  1  0  0  0  0
 23 24  2  0  0  0  0
 24 19  1  0  0  0  0
 27 21  1  0  0  0  0
 28 29  1  0  0  0  0
 28 30  1  0  0  0  0
M  END
>  <minimizedAffinity>
-6.1957283

>  <minimizedRMSD>
2.86567879

$$$$
