
 OpenBabel03272505093D

 34 37  0  0  0  0  0  0  0  0999 V2000
   35.9510   30.5070   46.2770 Cl  0  0  0  0  0  0  0  0  0  0  0  0
   36.4240   30.1750   47.9200 C   0  0  0  0  0  0  0  0  0  0  0  0
   37.7040   30.5430   48.2810 C   0  0  0  0  0  0  0  0  0  0  0  0
   38.0900   30.2830   49.5850 C   0  0  0  0  0  0  0  0  0  0  0  0
   37.2250   29.6850   50.4590 C   0  0  0  0  0  0  0  0  0  0  0  0
   35.9590   29.3430   50.0270 C   0  0  0  0  0  0  0  0  0  0  0  0
   35.4970   29.5670   48.7510 C   0  0  0  0  0  0  0  0  0  0  0  0
   39.0960   30.5730   49.8680 H   0  0  0  0  0  0  0  0  0  0  0  0
   37.5460   29.4880   51.4810 H   0  0  0  0  0  0  0  0  0  0  0  0
   35.2860   28.8680   50.7410 H   0  0  0  0  0  0  0  0  0  0  0  0
   39.6550   33.1490   46.6470 C   0  0  0  0  0  0  0  0  0  0  0  0
   40.2630   32.4810   45.5530 C   0  0  0  0  0  0  0  0  0  0  0  0
   39.9880   31.1310   45.3960 C   0  0  0  0  0  0  0  0  0  0  0  0
   39.1550   30.5330   46.2970 N   0  0  0  0  0  0  0  0  0  0  0  0
   38.6010   31.1830   47.3090 C   0  0  0  0  0  0  0  0  0  0  0  0
   38.8530   32.4940   47.4830 N   0  0  0  0  0  0  0  0  0  0  0  0
   39.9070   34.2000   46.7170 H   0  0  0  0  0  0  0  0  0  0  0  0
   40.9170   32.9280   44.8370 H   0  0  0  0  0  0  0  0  0  0  0  0
   40.4120   30.5710   44.5970 H   0  0  0  0  0  0  0  0  0  0  0  0
   33.8820   29.1390   48.1740 S   0  0  0  0  0  0  0  0  0  0  0  0
   33.8300   28.3860   45.1390 H   0  0  0  0  0  0  0  0  0  0  0  0
   33.8840   27.5640   45.7510 N   0  0  0  0  0  0  0  0  0  0  0  0
   33.9130   27.7520   47.0780 C   0  0  0  0  0  0  0  0  0  0  0  0
   33.9850   26.5200   47.6510 N   0  0  0  0  0  0  0  0  0  0  0  0
   33.9990   25.6030   46.6430 C   0  0  0  0  0  0  0  0  0  0  0  0
   34.0600   24.2180   46.5800 C   0  0  0  0  0  0  0  0  0  0  0  0
   34.0550   23.5700   45.3990 N   0  0  0  0  0  0  0  0  0  0  0  0
   33.9930   24.2350   44.2350 C   0  0  0  0  0  0  0  0  0  0  0  0
   33.9940   23.6490   43.3420 H   0  0  0  0  0  0  0  0  0  0  0  0
   33.9320   25.5980   44.2670 N   0  0  0  0  0  0  0  0  0  0  0  0
   33.9350   26.2550   45.4400 C   0  0  0  0  0  0  0  0  0  0  0  0
   34.1260   23.5360   47.8430 N   0  0  0  0  0  0  0  0  0  0  0  0
   34.9110   23.1110   48.4070 H   0  0  0  0  0  0  0  0  0  0  0  0
   33.1760   23.4550   48.2830 H   0  0  0  0  0  0  0  0  0  0  0  0
  1  2  1  0  0  0  0
  2  3  2  0  0  0  0
  2  7  1  0  0  0  0
  3  4  1  0  0  0  0
  4  8  1  0  0  0  0
  4  5  2  0  0  0  0
  5  9  1  0  0  0  0
  6  5  1  0  0  0  0
  6 10  1  0  0  0  0
  7  6  2  0  0  0  0
 11 17  1  0  0  0  0
 11 16  1  0  0  0  0
 12 11  2  0  0  0  0
 13 12  1  0  0  0  0
 13 14  2  0  0  0  0
 14 15  1  0  0  0  0
 15 16  2  0  0  0  0
 15  3  1  0  0  0  0
 18 12  1  0  0  0  0
 19 13  1  0  0  0  0
 20  7  1  0  0  0  0
 21 22  1  0  0  0  0
 22 23  1  0  0  0  0
 23 24  2  0  0  0  0
 23 20  1  0  0  0  0
 25 24  1  0  0  0  0
 26 25  1  0  0  0  0
 26 32  1  0  0  0  0
 27 26  2  0  0  0  0
 28 30  2  0  0  0  0
 28 27  1  0  0  0  0
 29 28  1  0  0  0  0
 30 31  1  0  0  0  0
 31 22  1  0  0  0  0
 31 25  2  0  0  0  0
 32 34  1  0  0  0  0
 32 33  1  0  0  0  0
M  END
>  <minimizedAffinity>
-5.45613575

>  <minimizedRMSD>
1.66516745

$$$$
