
 OpenBabel03272509433D

 43 46  0  0  1  0  0  0  0  0999 V2000
   37.1590   30.9160   49.0750 C   0  0  0  0  0  0  0  0  0  0  0  0
   36.9350   31.8900   50.0510 C   0  0  0  0  0  0  0  0  0  0  0  0
   37.5080   33.1500   49.9720 C   0  0  0  0  0  0  0  0  0  0  0  0
   38.3340   33.4610   48.8880 C   0  0  0  0  0  0  0  0  0  0  0  0
   38.5440   32.5010   47.9430 C   0  0  0  0  0  0  0  0  0  0  0  0
   37.9550   31.2500   48.0530 C   0  0  0  0  0  0  0  0  0  0  0  0
   36.2830   31.6170   50.8850 H   0  0  0  0  0  0  0  0  0  0  0  0
   37.2580   33.8090   50.7840 H   0  0  0  0  0  0  0  0  0  0  0  0
   38.7380   34.4620   48.9030 H   0  0  0  0  0  0  0  0  0  0  0  0
   39.2080   32.8880   47.1660 H   0  0  0  0  0  0  0  0  0  0  0  0
   36.5890   29.5900   49.1720 C   0  0  2  0  0  0  0  0  0  0  0  0
   37.0160   29.0060   48.2680 H   0  0  0  0  0  0  0  0  0  0  0  0
   33.6760   29.5080   47.0020 C   0  0  0  0  0  0  0  0  0  0  0  0
   32.8510   28.5640   47.5830 C   0  0  0  0  0  0  0  0  0  0  0  0
   33.2590   27.9870   48.7710 C   0  0  0  0  0  0  0  0  0  0  0  0
   34.4620   28.3650   49.3280 N   0  0  0  0  0  0  0  0  0  0  0  0
   35.2050   29.2690   48.7230 C   0  0  0  0  0  0  0  0  0  0  0  0
   34.8210   29.8470   47.5610 N   0  0  0  0  0  0  0  0  0  0  0  0
   33.3600   29.9630   46.0710 H   0  0  0  0  0  0  0  0  0  0  0  0
   31.9010   28.2390   47.1790 H   0  0  0  0  0  0  0  0  0  0  0  0
   32.6780   27.2450   49.2940 H   0  0  0  0  0  0  0  0  0  0  0  0
   37.1440   28.8820   50.0910 O   0  0  0  0  0  0  0  0  0  0  0  0
   37.0600   29.1370   51.0510 H   0  0  0  0  0  0  0  0  0  0  0  0
   38.2880   30.3210   46.9980 C   0  0  0  0  0  3  0  0  0  0  0  0
   38.6940   30.6900   45.7790 C   0  0  0  0  0  3  0  0  0  0  0  0
   39.1000   29.8310   44.6430 C   0  0  0  0  0  0  0  0  0  0  0  0
   38.1860   29.6150   44.0520 H   0  0  0  0  0  0  0  0  0  0  0  0
   39.4920   28.8510   44.9850 H   0  0  0  0  0  0  0  0  0  0  0  0
   40.2740   30.7100   43.6050 S   0  0  0  0  0  0  0  0  0  0  0  0
   41.9870   31.0450   41.0110 H   0  0  0  0  0  0  0  0  0  0  0  0
   41.5050   30.1260   41.1110 N   0  0  0  0  0  0  0  0  0  0  0  0
   40.7270   29.8040   42.1600 C   0  0  0  0  0  0  0  0  0  0  0  0
   40.2410   28.5570   42.0160 N   0  0  0  0  0  0  0  0  0  0  0  0
   40.7040   28.0370   40.8490 C   0  0  0  0  0  0  0  0  0  0  0  0
   40.5370   26.8270   40.2030 C   0  0  0  0  0  0  0  0  0  0  0  0
   41.1640   26.6270   39.0070 N   0  0  0  0  0  0  0  0  0  0  0  0
   41.9330   27.6200   38.4860 C   0  0  0  0  0  0  0  0  0  0  0  0
   42.4120   27.4130   37.5300 H   0  0  0  0  0  0  0  0  0  0  0  0
   42.0890   28.8100   39.1340 N   0  0  0  0  0  0  0  0  0  0  0  0
   41.4840   29.0410   40.3160 C   0  0  0  0  0  0  0  0  0  0  0  0
   39.7100   25.8510   40.8330 N   0  0  0  0  0  0  0  0  0  0  0  0
   39.7240   25.6350   41.8480 H   0  0  0  0  0  0  0  0  0  0  0  0
   39.0810   25.3710   40.1500 H   0  0  0  0  0  0  0  0  0  0  0  0
  1 11  1  0  0  0  0
  1  2  1  0  0  0  0
  2  7  1  0  0  0  0
  3  2  2  0  0  0  0
  3  8  1  0  0  0  0
  4  9  1  0  0  0  0
  4  3  1  0  0  0  0
  5  6  1  0  0  0  0
  5  4  2  0  0  0  0
  6  1  2  0  0  0  0
 10  5  1  0  0  0  0
 11 12  1  6  0  0  0
 11 22  1  0  0  0  0
 13 18  2  0  0  0  0
 13 14  1  0  0  0  0
 14 15  2  0  0  0  0
 15 21  1  0  0  0  0
 15 16  1  0  0  0  0
 17 11  1  0  0  0  0
 17 16  2  0  0  0  0
 18 17  1  0  0  0  0
 19 13  1  0  0  0  0
 20 14  1  0  0  0  0
 22 23  1  0  0  0  0
 24  6  1  0  0  0  0
 25 24  2  0  0  0  0
 26 28  1  0  0  0  0
 26 25  1  0  0  0  0
 27 26  1  0  0  0  0
 29 26  1  0  0  0  0
 30 31  1  0  0  0  0
 31 32  1  0  0  0  0
 32 29  1  0  0  0  0
 33 32  2  0  0  0  0
 34 33  1  0  0  0  0
 35 41  1  0  0  0  0
 35 34  2  0  0  0  0
 36 35  1  0  0  0  0
 37 36  2  0  0  0  0
 37 39  1  0  0  0  0
 38 37  1  0  0  0  0
 39 40  2  0  0  0  0
 40 34  1  0  0  0  0
 40 31  1  0  0  0  0
 41 42  1  0  0  0  0
 43 41  1  0  0  0  0
M  END
>  <minimizedAffinity>
-6.36724758

>  <minimizedRMSD>
0.713648379

$$$$
