
 OpenBabel03262522173D

 50 54  0  0  1  0  0  0  0  0999 V2000
   38.6330   22.7570   31.6600 C   0  0  1  0  0  0  0  0  0  0  0  0
   37.1130   22.7090   31.6050 C   0  0  0  0  0  0  0  0  0  0  0  0
   36.7950   23.9200   30.7810 C   0  0  2  0  0  0  0  0  0  0  0  0
   37.9480   24.6210   30.5930 O   0  0  0  0  0  0  0  0  0  0  0  0
   38.8480   24.2590   31.5790 C   0  0  0  0  0  0  0  0  0  0  0  0
   39.0810   22.3190   30.7370 H   0  0  0  0  0  0  0  0  0  0  0  0
   36.7510   22.8820   32.6220 H   0  0  0  0  0  0  0  0  0  0  0  0
   36.7680   21.7650   31.1400 H   0  0  0  0  0  0  0  0  0  0  0  0
   36.4280   23.5820   29.7800 H   0  0  0  0  0  0  0  0  0  0  0  0
   39.8620   24.5140   31.1870 H   0  0  0  0  0  0  0  0  0  0  0  0
   38.6270   24.7290   32.5550 H   0  0  0  0  0  0  0  0  0  0  0  0
   35.7020   24.7450   31.4100 C   0  0  0  0  0  0  0  0  0  0  0  0
   35.5850   24.5670   32.4860 H   0  0  0  0  0  0  0  0  0  0  0  0
   34.7410   24.4740   30.9090 H   0  0  0  0  0  0  0  0  0  0  0  0
   36.0110   26.4770   30.9800 S   0  0  0  0  0  0  0  0  0  0  0  0
   35.8860   29.2290   33.8330 C   0  0  0  0  0  0  0  0  0  0  0  0
   36.6310   28.6780   34.8760 C   0  0  0  0  0  0  0  0  0  0  0  0
   37.2080   27.4330   34.7520 C   0  0  0  0  0  0  0  0  0  0  0  0
   37.0040   26.7880   33.5610 C   0  0  0  0  0  0  0  0  0  0  0  0
   36.2740   27.3400   32.5510 C   0  0  0  0  0  0  0  0  0  0  0  0
   35.7040   28.5630   32.6650 N   0  0  0  0  0  0  0  0  0  0  0  0
   36.7550   29.2420   35.7950 H   0  0  0  0  0  0  0  0  0  0  0  0
   37.7910   27.0020   35.5690 H   0  0  0  0  0  0  0  0  0  0  0  0
   37.4240   25.8030   33.3830 H   0  0  0  0  0  0  0  0  0  0  0  0
   35.3160   30.5380   34.0410 C   0  0  0  0  0  0  0  0  0  0  0  0
   35.5130   31.4610   33.2500 O   0  0  0  0  0  0  0  0  0  0  0  0
   33.2070   30.2280   35.2900 C   0  0  0  0  0  0  0  0  0  0  0  0
   34.4660   30.8490   35.2090 C   0  0  0  0  0  0  0  0  0  0  0  0
   34.8800   31.7330   36.2200 C   0  0  0  0  0  0  0  0  0  0  0  0
   34.0170   31.9550   37.2640 N   0  0  0  0  0  0  0  0  0  0  0  0
   32.8170   31.3520   37.3240 C   0  0  0  0  0  0  0  0  0  0  0  0
   32.4220   30.5070   36.3560 N   0  0  0  0  0  0  0  0  0  0  0  0
   32.9030   29.5580   34.5170 H   0  0  0  0  0  0  0  0  0  0  0  0
   35.8470   32.1870   36.1230 H   0  0  0  0  0  0  0  0  0  0  0  0
   32.2790   31.6420   38.2040 H   0  0  0  0  0  0  0  0  0  0  0  0
   39.1070   22.2280   32.8430 O   0  0  0  0  0  0  0  0  0  0  0  0
   37.2820   24.0400   34.0660 H   0  0  0  0  0  0  0  0  0  0  0  0
   37.9680   23.5520   34.6830 N   0  0  0  0  0  0  0  0  0  0  0  0
   38.8470   22.6830   34.1140 C   0  0  0  0  0  0  0  0  0  0  0  0
   39.6480   22.1590   35.0900 N   0  0  0  0  0  0  0  0  0  0  0  0
   39.2620   22.7090   36.2690 C   0  0  0  0  0  0  0  0  0  0  0  0
   39.6630   22.5970   37.5910 C   0  0  0  0  0  0  0  0  0  0  0  0
   39.0300   23.3170   38.5180 N   0  0  0  0  0  0  0  0  0  0  0  0
   38.0120   24.1570   38.2530 C   0  0  0  0  0  0  0  0  0  0  0  0
   37.5310   24.7220   39.0560 H   0  0  0  0  0  0  0  0  0  0  0  0
   37.5880   24.2960   36.9610 N   0  0  0  0  0  0  0  0  0  0  0  0
   38.2190   23.5730   36.0050 C   0  0  0  0  0  0  0  0  0  0  0  0
   40.7410   21.7030   37.8500 N   0  0  0  0  0  0  0  0  0  0  0  0
   40.7840   20.7050   38.2080 H   0  0  0  0  0  0  0  0  0  0  0  0
   41.7080   22.0490   37.6700 H   0  0  0  0  0  0  0  0  0  0  0  0
  1  6  1  6  0  0  0
  1 36  1  0  0  0  0
  2  1  1  0  0  0  0
  2  7  1  0  0  0  0
  3  9  1  6  0  0  0
  3 12  1  0  0  0  0
  3  2  1  0  0  0  0
  4  3  1  0  0  0  0
  4  5  1  0  0  0  0
  5  1  1  0  0  0  0
  5 11  1  0  0  0  0
  8  2  1  0  0  0  0
 10  5  1  0  0  0  0
 12 13  1  0  0  0  0
 14 12  1  0  0  0  0
 15 12  1  0  0  0  0
 15 20  1  0  0  0  0
 16 25  1  0  0  0  0
 16 17  1  0  0  0  0
 17 22  1  0  0  0  0
 18 17  2  0  0  0  0
 18 23  1  0  0  0  0
 19 18  1  0  0  0  0
 20 21  1  0  0  0  0
 20 19  2  0  0  0  0
 21 16  2  0  0  0  0
 24 19  1  0  0  0  0
 25 28  1  0  0  0  0
 26 25  2  0  0  0  0
 27 32  1  0  0  0  0
 28 27  2  0  0  0  0
 28 29  1  0  0  0  0
 29 30  2  0  0  0  0
 30 31  1  0  0  0  0
 31 35  1  0  0  0  0
 32 31  2  0  0  0  0
 33 27  1  0  0  0  0
 34 29  1  0  0  0  0
 36 39  1  0  0  0  0
 37 38  1  0  0  0  0
 38 47  1  0  0  0  0
 39 38  1  0  0  0  0
 39 40  2  0  0  0  0
 40 41  1  0  0  0  0
 41 42  1  0  0  0  0
 42 48  1  0  0  0  0
 42 43  2  0  0  0  0
 44 43  1  0  0  0  0
 44 45  1  0  0  0  0
 46 44  2  0  0  0  0
 47 41  2  0  0  0  0
 47 46  1  0  0  0  0
 48 49  1  0  0  0  0
 50 48  1  0  0  0  0
M  END
>  <minimizedAffinity>
-6.65876389

$$$$

 OpenBabel03262522173D

 50 54  0  0  1  0  0  0  0  0999 V2000
   35.6930   28.8460   32.0390 C   0  0  1  0  0  0  0  0  0  0  0  0
   36.7550   29.4980   31.1660 C   0  0  0  0  0  0  0  0  0  0  0  0
   37.0530   28.4110   30.1780 C   0  0  2  0  0  0  0  0  0  0  0  0
   36.4020   27.2840   30.5780 O   0  0  0  0  0  0  0  0  0  0  0  0
   36.1230   27.3930   31.9280 C   0  0  0  0  0  0  0  0  0  0  0  0
   34.6860   28.9200   31.5660 H   0  0  0  0  0  0  0  0  0  0  0  0
   37.6400   29.6430   31.7930 H   0  0  0  0  0  0  0  0  0  0  0  0
   36.3620   30.4190   30.6930 H   0  0  0  0  0  0  0  0  0  0  0  0
   36.6410   28.7150   29.1820 H   0  0  0  0  0  0  0  0  0  0  0  0
   35.2770   26.6920   32.1300 H   0  0  0  0  0  0  0  0  0  0  0  0
   37.0060   27.2060   32.5650 H   0  0  0  0  0  0  0  0  0  0  0  0
   38.5360   28.2060   30.0120 C   0  0  0  0  0  0  0  0  0  0  0  0
   39.1410   28.8450   30.6650 H   0  0  0  0  0  0  0  0  0  0  0  0
   38.7960   28.4520   28.9530 H   0  0  0  0  0  0  0  0  0  0  0  0
   38.8660   26.4360   30.2020 S   0  0  0  0  0  0  0  0  0  0  0  0
   39.0760   24.8900   33.8480 C   0  0  0  0  0  0  0  0  0  0  0  0
   39.8930   25.7760   34.5510 C   0  0  0  0  0  0  0  0  0  0  0  0
   40.4180   26.8920   33.9370 C   0  0  0  0  0  0  0  0  0  0  0  0
   40.0910   27.0680   32.6180 C   0  0  0  0  0  0  0  0  0  0  0  0
   39.2910   26.1930   31.9460 C   0  0  0  0  0  0  0  0  0  0  0  0
   38.7710   25.0940   32.5420 N   0  0  0  0  0  0  0  0  0  0  0  0
   40.1140   25.5800   35.5950 H   0  0  0  0  0  0  0  0  0  0  0  0
   41.0580   27.5850   34.4880 H   0  0  0  0  0  0  0  0  0  0  0  0
   40.4640   27.9220   32.0620 H   0  0  0  0  0  0  0  0  0  0  0  0
   38.5640   23.7460   34.5630 C   0  0  0  0  0  0  0  0  0  0  0  0
   38.0020   22.8190   33.9790 O   0  0  0  0  0  0  0  0  0  0  0  0
   37.6840   24.2020   36.8260 C   0  0  0  0  0  0  0  0  0  0  0  0
   38.6850   23.6170   36.0300 C   0  0  0  0  0  0  0  0  0  0  0  0
   39.7560   22.9360   36.6340 C   0  0  0  0  0  0  0  0  0  0  0  0
   39.7770   22.8730   38.0050 N   0  0  0  0  0  0  0  0  0  0  0  0
   38.8100   23.4390   38.7490 C   0  0  0  0  0  0  0  0  0  0  0  0
   37.7880   24.0890   38.1700 N   0  0  0  0  0  0  0  0  0  0  0  0
   36.8760   24.7160   36.3560 H   0  0  0  0  0  0  0  0  0  0  0  0
   40.5000   22.5040   35.9940 H   0  0  0  0  0  0  0  0  0  0  0  0
   38.9890   23.2910   39.7960 H   0  0  0  0  0  0  0  0  0  0  0  0
   35.7610   29.3100   33.3380 O   0  0  0  0  0  0  0  0  0  0  0  0
   32.9230   29.0800   33.3510 H   0  0  0  0  0  0  0  0  0  0  0  0
   33.3660   29.6660   34.0920 N   0  0  0  0  0  0  0  0  0  0  0  0
   34.7210   29.7870   34.0990 C   0  0  0  0  0  0  0  0  0  0  0  0
   35.0900   30.5900   35.1420 N   0  0  0  0  0  0  0  0  0  0  0  0
   33.9560   30.9690   35.7830 C   0  0  0  0  0  0  0  0  0  0  0  0
   33.6560   31.7580   36.8820 C   0  0  0  0  0  0  0  0  0  0  0  0
   32.3790   31.9120   37.2340 N   0  0  0  0  0  0  0  0  0  0  0  0
   31.3460   31.3440   36.5850 C   0  0  0  0  0  0  0  0  0  0  0  0
   30.3180   31.5070   36.9220 H   0  0  0  0  0  0  0  0  0  0  0  0
   31.5990   30.5590   35.4960 N   0  0  0  0  0  0  0  0  0  0  0  0
   32.8910   30.3910   35.1220 C   0  0  0  0  0  0  0  0  0  0  0  0
   34.7630   32.3500   37.5540 N   0  0  0  0  0  0  0  0  0  0  0  0
   35.2990   32.0920   38.4330 H   0  0  0  0  0  0  0  0  0  0  0  0
   35.1690   33.2170   37.1420 H   0  0  0  0  0  0  0  0  0  0  0  0
  1  6  1  6  0  0  0
  1 36  1  0  0  0  0
  2  7  1  0  0  0  0
  2  1  1  0  0  0  0
  3  9  1  6  0  0  0
  3  4  1  0  0  0  0
  3  2  1  0  0  0  0
  4  5  1  0  0  0  0
  5  1  1  0  0  0  0
  5 10  1  0  0  0  0
  5 11  1  0  0  0  0
  8  2  1  0  0  0  0
 12  3  1  0  0  0  0
 12 15  1  0  0  0  0
 12 13  1  0  0  0  0
 14 12  1  0  0  0  0
 15 20  1  0  0  0  0
 16 17  1  0  0  0  0
 16 25  1  0  0  0  0
 17 22  1  0  0  0  0
 18 23  1  0  0  0  0
 18 17  2  0  0  0  0
 19 18  1  0  0  0  0
 20 21  1  0  0  0  0
 20 19  2  0  0  0  0
 21 16  2  0  0  0  0
 24 19  1  0  0  0  0
 25 28  1  0  0  0  0
 26 25  2  0  0  0  0
 27 32  1  0  0  0  0
 28 29  1  0  0  0  0
 28 27  2  0  0  0  0
 29 30  2  0  0  0  0
 30 31  1  0  0  0  0
 31 35  1  0  0  0  0
 32 31  2  0  0  0  0
 33 27  1  0  0  0  0
 34 29  1  0  0  0  0
 36 39  1  0  0  0  0
 37 38  1  0  0  0  0
 38 39  1  0  0  0  0
 38 47  1  0  0  0  0
 39 40  2  0  0  0  0
 40 41  1  0  0  0  0
 41 42  1  0  0  0  0
 42 43  2  0  0  0  0
 42 48  1  0  0  0  0
 44 45  1  0  0  0  0
 44 43  1  0  0  0  0
 46 44  2  0  0  0  0
 47 46  1  0  0  0  0
 47 41  2  0  0  0  0
 48 49  1  0  0  0  0
 50 48  1  0  0  0  0
M  END
>  <minimizedAffinity>
-6.44743061

$$$$

 OpenBabel03262522173D

 50 54  0  0  1  0  0  0  0  0999 V2000
   36.1610   28.9120   32.2360 C   0  0  1  0  0  0  0  0  0  0  0  0
   36.5980   27.4990   32.5950 C   0  0  0  0  0  0  0  0  0  0  0  0
   37.8120   27.3230   31.7340 C   0  0  2  0  0  0  0  0  0  0  0  0
   37.8970   28.3930   30.8960 O   0  0  0  0  0  0  0  0  0  0  0  0
   36.6460   28.9760   30.7980 C   0  0  0  0  0  0  0  0  0  0  0  0
   36.7480   29.6690   32.8070 H   0  0  0  0  0  0  0  0  0  0  0  0
   35.8190   26.8220   32.2330 H   0  0  0  0  0  0  0  0  0  0  0  0
   36.8190   27.4210   33.6780 H   0  0  0  0  0  0  0  0  0  0  0  0
   38.7170   27.3240   32.3920 H   0  0  0  0  0  0  0  0  0  0  0  0
   36.8160   30.0270   30.4620 H   0  0  0  0  0  0  0  0  0  0  0  0
   35.9610   28.4120   30.1390 H   0  0  0  0  0  0  0  0  0  0  0  0
   37.7840   26.0050   31.0030 C   0  0  0  0  0  0  0  0  0  0  0  0
   38.6170   25.3430   31.2650 H   0  0  0  0  0  0  0  0  0  0  0  0
   37.8470   26.2230   29.9090 H   0  0  0  0  0  0  0  0  0  0  0  0
   36.1490   25.2710   31.2660 S   0  0  0  0  0  0  0  0  0  0  0  0
   37.7990   22.3470   33.3760 C   0  0  0  0  0  0  0  0  0  0  0  0
   36.9430   21.2620   33.1890 C   0  0  0  0  0  0  0  0  0  0  0  0
   35.8160   21.3770   32.4050 C   0  0  0  0  0  0  0  0  0  0  0  0
   35.5990   22.6030   31.8330 C   0  0  0  0  0  0  0  0  0  0  0  0
   36.4470   23.6530   32.0260 C   0  0  0  0  0  0  0  0  0  0  0  0
   37.5550   23.5480   32.7950 N   0  0  0  0  0  0  0  0  0  0  0  0
   37.1710   20.3160   33.6700 H   0  0  0  0  0  0  0  0  0  0  0  0
   35.1450   20.5270   32.2590 H   0  0  0  0  0  0  0  0  0  0  0  0
   34.7350   22.7770   31.2010 H   0  0  0  0  0  0  0  0  0  0  0  0
   38.9590   22.1440   34.2120 C   0  0  0  0  0  0  0  0  0  0  0  0
   39.9930   21.6440   33.7690 O   0  0  0  0  0  0  0  0  0  0  0  0
   37.8350   23.1580   36.1640 C   0  0  0  0  0  0  0  0  0  0  0  0
   38.9740   22.5240   35.6390 C   0  0  0  0  0  0  0  0  0  0  0  0
   40.0820   22.2690   36.4680 C   0  0  0  0  0  0  0  0  0  0  0  0
   39.9970   22.6610   37.7800 N   0  0  0  0  0  0  0  0  0  0  0  0
   38.8990   23.2670   38.2640 C   0  0  0  0  0  0  0  0  0  0  0  0
   37.8420   23.5090   37.4710 N   0  0  0  0  0  0  0  0  0  0  0  0
   37.0010   23.3460   35.5260 H   0  0  0  0  0  0  0  0  0  0  0  0
   40.9320   21.7830   36.0310 H   0  0  0  0  0  0  0  0  0  0  0  0
   39.0090   23.5010   39.3040 H   0  0  0  0  0  0  0  0  0  0  0  0
   34.7910   29.0490   32.3280 O   0  0  0  0  0  0  0  0  0  0  0  0
   32.0890   29.0080   33.2290 H   0  0  0  0  0  0  0  0  0  0  0  0
   32.7860   29.5260   33.8080 N   0  0  0  0  0  0  0  0  0  0  0  0
   34.0810   29.5550   33.3910 C   0  0  0  0  0  0  0  0  0  0  0  0
   34.8190   30.2780   34.2860 N   0  0  0  0  0  0  0  0  0  0  0  0
   33.9750   30.6990   35.2610 C   0  0  0  0  0  0  0  0  0  0  0  0
   34.0970   31.4500   36.4200 C   0  0  0  0  0  0  0  0  0  0  0  0
   33.0100   31.6710   37.1600 N   0  0  0  0  0  0  0  0  0  0  0  0
   31.7840   31.2060   36.8550 C   0  0  0  0  0  0  0  0  0  0  0  0
   30.9280   31.4200   37.5030 H   0  0  0  0  0  0  0  0  0  0  0  0
   31.6220   30.4620   35.7210 N   0  0  0  0  0  0  0  0  0  0  0  0
   32.7150   30.2270   34.9540 C   0  0  0  0  0  0  0  0  0  0  0  0
   35.4010   31.9320   36.7250 N   0  0  0  0  0  0  0  0  0  0  0  0
   36.1630   31.5950   37.3830 H   0  0  0  0  0  0  0  0  0  0  0  0
   35.7260   32.7900   36.2300 H   0  0  0  0  0  0  0  0  0  0  0  0
  1 36  1  0  0  0  0
  1  2  1  0  0  0  0
  1  6  1  1  0  0  0
  2  8  1  0  0  0  0
  3  9  1  1  0  0  0
  3  2  1  0  0  0  0
  4  3  1  0  0  0  0
  5  4  1  0  0  0  0
  5  1  1  0  0  0  0
  7  2  1  0  0  0  0
 10  5  1  0  0  0  0
 11  5  1  0  0  0  0
 12 13  1  0  0  0  0
 12 15  1  0  0  0  0
 12  3  1  0  0  0  0
 14 12  1  0  0  0  0
 15 20  1  0  0  0  0
 16 25  1  0  0  0  0
 17 16  1  0  0  0  0
 17 22  1  0  0  0  0
 18 17  2  0  0  0  0
 19 20  2  0  0  0  0
 19 18  1  0  0  0  0
 20 21  1  0  0  0  0
 21 16  2  0  0  0  0
 23 18  1  0  0  0  0
 24 19  1  0  0  0  0
 25 28  1  0  0  0  0
 26 25  2  0  0  0  0
 27 32  1  0  0  0  0
 28 27  2  0  0  0  0
 28 29  1  0  0  0  0
 29 30  2  0  0  0  0
 30 31  1  0  0  0  0
 31 35  1  0  0  0  0
 32 31  2  0  0  0  0
 33 27  1  0  0  0  0
 34 29  1  0  0  0  0
 36 39  1  0  0  0  0
 37 38  1  0  0  0  0
 38 47  1  0  0  0  0
 39 38  1  0  0  0  0
 39 40  2  0  0  0  0
 40 41  1  0  0  0  0
 41 42  1  0  0  0  0
 42 48  1  0  0  0  0
 42 43  2  0  0  0  0
 44 43  1  0  0  0  0
 44 45  1  0  0  0  0
 46 44  2  0  0  0  0
 47 41  2  0  0  0  0
 47 46  1  0  0  0  0
 48 49  1  0  0  0  0
 50 48  1  0  0  0  0
M  END
>  <minimizedAffinity>
-6.39641714

$$$$

 OpenBabel03262522173D

 50 54  0  0  1  0  0  0  0  0999 V2000
   35.6010   29.7080   31.3640 C   0  0  1  0  0  0  0  0  0  0  0  0
   36.6080   30.1780   30.3240 C   0  0  0  0  0  0  0  0  0  0  0  0
   37.1020   28.8790   29.7640 C   0  0  2  0  0  0  0  0  0  0  0  0
   36.5920   27.8680   30.5210 O   0  0  0  0  0  0  0  0  0  0  0  0
   36.2300   28.3810   31.7530 C   0  0  0  0  0  0  0  0  0  0  0  0
   34.6190   29.4720   30.8910 H   0  0  0  0  0  0  0  0  0  0  0  0
   37.4310   30.6520   30.8680 H   0  0  0  0  0  0  0  0  0  0  0  0
   36.1180   30.8190   29.5660 H   0  0  0  0  0  0  0  0  0  0  0  0
   36.7060   28.7670   28.7230 H   0  0  0  0  0  0  0  0  0  0  0  0
   35.4790   27.6730   32.1790 H   0  0  0  0  0  0  0  0  0  0  0  0
   37.0960   28.5500   32.4190 H   0  0  0  0  0  0  0  0  0  0  0  0
   38.6070   28.8490   29.6810 C   0  0  0  0  0  0  0  0  0  0  0  0
   39.0940   29.5870   30.3280 H   0  0  0  0  0  0  0  0  0  0  0  0
   38.8930   29.0730   28.6250 H   0  0  0  0  0  0  0  0  0  0  0  0
   39.1350   27.1430   29.9830 S   0  0  0  0  0  0  0  0  0  0  0  0
   39.9790   26.8770   33.8490 C   0  0  0  0  0  0  0  0  0  0  0  0
   41.3350   27.1970   33.9280 C   0  0  0  0  0  0  0  0  0  0  0  0
   42.0550   27.5100   32.7960 C   0  0  0  0  0  0  0  0  0  0  0  0
   41.3630   27.4870   31.6130 C   0  0  0  0  0  0  0  0  0  0  0  0
   40.0390   27.1720   31.5530 C   0  0  0  0  0  0  0  0  0  0  0  0
   39.3250   26.8620   32.6610 N   0  0  0  0  0  0  0  0  0  0  0  0
   41.8240   27.1980   34.8960 H   0  0  0  0  0  0  0  0  0  0  0  0
   43.1160   27.7610   32.8580 H   0  0  0  0  0  0  0  0  0  0  0  0
   41.8570   27.7210   30.6760 H   0  0  0  0  0  0  0  0  0  0  0  0
   39.2960   26.5610   35.0800 C   0  0  0  0  0  0  0  0  0  0  0  0
   38.9600   27.4390   35.8740 O   0  0  0  0  0  0  0  0  0  0  0  0
   39.7370   24.1350   34.9120 C   0  0  0  0  0  0  0  0  0  0  0  0
   38.9610   25.1730   35.4590 C   0  0  0  0  0  0  0  0  0  0  0  0
   37.9050   24.8730   36.3380 C   0  0  0  0  0  0  0  0  0  0  0  0
   37.6750   23.5510   36.6270 N   0  0  0  0  0  0  0  0  0  0  0  0
   38.4270   22.5730   36.0930 C   0  0  0  0  0  0  0  0  0  0  0  0
   39.4350   22.8620   35.2540 N   0  0  0  0  0  0  0  0  0  0  0  0
   40.5360   24.3750   34.2460 H   0  0  0  0  0  0  0  0  0  0  0  0
   37.3360   25.6910   36.7350 H   0  0  0  0  0  0  0  0  0  0  0  0
   38.1050   21.6070   36.4280 H   0  0  0  0  0  0  0  0  0  0  0  0
   35.5380   30.5850   32.4280 O   0  0  0  0  0  0  0  0  0  0  0  0
   33.0110   29.3910   32.9750 H   0  0  0  0  0  0  0  0  0  0  0  0
   33.4510   29.9610   33.7300 N   0  0  0  0  0  0  0  0  0  0  0  0
   34.6580   30.5390   33.4840 C   0  0  0  0  0  0  0  0  0  0  0  0
   35.0520   31.2330   34.5940 N   0  0  0  0  0  0  0  0  0  0  0  0
   34.0820   31.0840   35.5310 C   0  0  0  0  0  0  0  0  0  0  0  0
   33.8830   31.5250   36.8290 C   0  0  0  0  0  0  0  0  0  0  0  0
   32.7680   31.1680   37.4670 N   0  0  0  0  0  0  0  0  0  0  0  0
   31.8070   30.3940   36.9270 C   0  0  0  0  0  0  0  0  0  0  0  0
   30.9130   30.1330   37.5000 H   0  0  0  0  0  0  0  0  0  0  0  0
   31.9650   29.9400   35.6480 N   0  0  0  0  0  0  0  0  0  0  0  0
   33.0920   30.2930   34.9830 C   0  0  0  0  0  0  0  0  0  0  0  0
   34.9110   32.3410   37.3820 N   0  0  0  0  0  0  0  0  0  0  0  0
   35.7220   32.1410   38.0370 H   0  0  0  0  0  0  0  0  0  0  0  0
   34.9150   33.3520   37.1240 H   0  0  0  0  0  0  0  0  0  0  0  0
  1  6  1  6  0  0  0
  1  5  1  0  0  0  0
  1 36  1  0  0  0  0
  2  7  1  0  0  0  0
  2  1  1  0  0  0  0
  3  9  1  6  0  0  0
  3  2  1  0  0  0  0
  3  4  1  0  0  0  0
  4  5  1  0  0  0  0
  5 10  1  0  0  0  0
  5 11  1  0  0  0  0
  8  2  1  0  0  0  0
 12  3  1  0  0  0  0
 12 15  1  0  0  0  0
 12 13  1  0  0  0  0
 14 12  1  0  0  0  0
 15 20  1  0  0  0  0
 16 17  1  0  0  0  0
 16 25  1  0  0  0  0
 17 22  1  0  0  0  0
 18 23  1  0  0  0  0
 18 17  2  0  0  0  0
 19 18  1  0  0  0  0
 20 19  2  0  0  0  0
 20 21  1  0  0  0  0
 21 16  2  0  0  0  0
 24 19  1  0  0  0  0
 25 28  1  0  0  0  0
 25 26  2  0  0  0  0
 27 32  2  0  0  0  0
 27 28  1  0  0  0  0
 28 29  2  0  0  0  0
 29 30  1  0  0  0  0
 29 34  1  0  0  0  0
 31 35  1  0  0  0  0
 31 30  2  0  0  0  0
 32 31  1  0  0  0  0
 33 27  1  0  0  0  0
 36 39  1  0  0  0  0
 37 38  1  0  0  0  0
 38 47  1  0  0  0  0
 39 38  1  0  0  0  0
 39 40  2  0  0  0  0
 40 41  1  0  0  0  0
 41 42  1  0  0  0  0
 42 48  1  0  0  0  0
 42 43  2  0  0  0  0
 44 43  1  0  0  0  0
 44 45  1  0  0  0  0
 46 44  2  0  0  0  0
 47 41  2  0  0  0  0
 47 46  1  0  0  0  0
 48 49  1  0  0  0  0
 50 48  1  0  0  0  0
M  END
>  <minimizedAffinity>
-6.26205826

$$$$

 OpenBabel03262522173D

 50 54  0  0  1  0  0  0  0  0999 V2000
   36.7560   22.9300   32.1170 C   0  0  1  0  0  0  0  0  0  0  0  0
   37.0380   24.3940   32.4160 C   0  0  0  0  0  0  0  0  0  0  0  0
   37.4930   24.9000   31.0800 C   0  0  2  0  0  0  0  0  0  0  0  0
   37.6270   23.8320   30.2450 O   0  0  0  0  0  0  0  0  0  0  0  0
   37.7700   22.6900   31.0120 C   0  0  0  0  0  0  0  0  0  0  0  0
   35.7460   22.8010   31.6600 H   0  0  0  0  0  0  0  0  0  0  0  0
   37.8900   24.4230   33.1010 H   0  0  0  0  0  0  0  0  0  0  0  0
   36.1250   24.9020   32.7840 H   0  0  0  0  0  0  0  0  0  0  0  0
   36.6980   25.5680   30.6630 H   0  0  0  0  0  0  0  0  0  0  0  0
   37.4770   21.8340   30.3570 H   0  0  0  0  0  0  0  0  0  0  0  0
   38.7830   22.5850   31.4400 H   0  0  0  0  0  0  0  0  0  0  0  0
   38.7540   25.7160   31.1980 C   0  0  0  0  0  0  0  0  0  0  0  0
   39.0330   26.2260   30.2690 H   0  0  0  0  0  0  0  0  0  0  0  0
   39.5840   25.0200   31.4720 H   0  0  0  0  0  0  0  0  0  0  0  0
   38.5550   26.8250   32.6150 S   0  0  0  0  0  0  0  0  0  0  0  0
   35.4120   29.2450   32.6310 C   0  0  0  0  0  0  0  0  0  0  0  0
   35.4850   29.9110   31.4080 C   0  0  0  0  0  0  0  0  0  0  0  0
   36.5030   29.6480   30.5180 C   0  0  0  0  0  0  0  0  0  0  0  0
   37.4200   28.7070   30.9090 C   0  0  0  0  0  0  0  0  0  0  0  0
   37.3350   28.0660   32.1080 C   0  0  0  0  0  0  0  0  0  0  0  0
   36.3380   28.3190   32.9880 N   0  0  0  0  0  0  0  0  0  0  0  0
   34.7260   30.6450   31.1570 H   0  0  0  0  0  0  0  0  0  0  0  0
   36.5590   30.1690   29.5600 H   0  0  0  0  0  0  0  0  0  0  0  0
   38.2530   28.4420   30.2670 H   0  0  0  0  0  0  0  0  0  0  0  0
   34.3140   29.5770   33.5070 C   0  0  0  0  0  0  0  0  0  0  0  0
   33.1740   29.1610   33.2970 O   0  0  0  0  0  0  0  0  0  0  0  0
   33.3730   30.6450   35.5260 C   0  0  0  0  0  0  0  0  0  0  0  0
   34.4900   30.4290   34.7000 C   0  0  0  0  0  0  0  0  0  0  0  0
   35.7260   31.0180   35.0220 C   0  0  0  0  0  0  0  0  0  0  0  0
   35.7860   31.7940   36.1520 N   0  0  0  0  0  0  0  0  0  0  0  0
   34.7060   31.9880   36.9290 C   0  0  0  0  0  0  0  0  0  0  0  0
   33.5260   31.4250   36.6200 N   0  0  0  0  0  0  0  0  0  0  0  0
   32.4400   30.1930   35.2720 H   0  0  0  0  0  0  0  0  0  0  0  0
   36.5550   30.8300   34.3680 H   0  0  0  0  0  0  0  0  0  0  0  0
   34.9360   32.6190   37.7650 H   0  0  0  0  0  0  0  0  0  0  0  0
   36.9970   22.1400   33.2230 O   0  0  0  0  0  0  0  0  0  0  0  0
   39.8250   21.8960   32.9950 H   0  0  0  0  0  0  0  0  0  0  0  0
   39.4300   22.0900   33.9410 N   0  0  0  0  0  0  0  0  0  0  0  0
   38.0800   22.2090   34.0670 C   0  0  0  0  0  0  0  0  0  0  0  0
   37.7770   22.4600   35.3760 N   0  0  0  0  0  0  0  0  0  0  0  0
   38.9470   22.4960   36.0630 C   0  0  0  0  0  0  0  0  0  0  0  0
   39.3130   22.7010   37.3840 C   0  0  0  0  0  0  0  0  0  0  0  0
   40.6070   22.6640   37.7050 N   0  0  0  0  0  0  0  0  0  0  0  0
   41.5960   22.4380   36.8210 C   0  0  0  0  0  0  0  0  0  0  0  0
   42.6410   22.4200   37.1450 H   0  0  0  0  0  0  0  0  0  0  0  0
   41.2760   22.2310   35.5090 N   0  0  0  0  0  0  0  0  0  0  0  0
   39.9660   22.2640   35.1620 C   0  0  0  0  0  0  0  0  0  0  0  0
   38.2520   22.9390   38.3030 N   0  0  0  0  0  0  0  0  0  0  0  0
   37.8500   23.8210   38.7340 H   0  0  0  0  0  0  0  0  0  0  0  0
   37.7290   22.1100   38.6600 H   0  0  0  0  0  0  0  0  0  0  0  0
  1  6  1  6  0  0  0
  1  2  1  0  0  0  0
  1 36  1  0  0  0  0
  2  8  1  0  0  0  0
  2  7  1  0  0  0  0
  3  9  1  6  0  0  0
  3 12  1  0  0  0  0
  3  2  1  0  0  0  0
  4  5  1  0  0  0  0
  4  3  1  0  0  0  0
  5 11  1  0  0  0  0
  5  1  1  0  0  0  0
 10  5  1  0  0  0  0
 12 14  1  0  0  0  0
 12 15  1  0  0  0  0
 13 12  1  0  0  0  0
 16 21  1  0  0  0  0
 16 25  1  0  0  0  0
 17 16  2  0  0  0  0
 18 19  2  0  0  0  0
 18 17  1  0  0  0  0
 19 20  1  0  0  0  0
 20 15  1  0  0  0  0
 20 21  2  0  0  0  0
 22 17  1  0  0  0  0
 23 18  1  0  0  0  0
 24 19  1  0  0  0  0
 25 28  1  0  0  0  0
 26 25  2  0  0  0  0
 27 32  1  0  0  0  0
 28 29  1  0  0  0  0
 28 27  2  0  0  0  0
 29 30  2  0  0  0  0
 30 31  1  0  0  0  0
 31 35  1  0  0  0  0
 32 31  2  0  0  0  0
 33 27  1  0  0  0  0
 34 29  1  0  0  0  0
 36 39  1  0  0  0  0
 37 38  1  0  0  0  0
 38 39  1  0  0  0  0
 38 47  1  0  0  0  0
 39 40  2  0  0  0  0
 40 41  1  0  0  0  0
 41 42  1  0  0  0  0
 42 43  2  0  0  0  0
 42 48  1  0  0  0  0
 44 45  1  0  0  0  0
 44 43  1  0  0  0  0
 46 44  2  0  0  0  0
 47 46  1  0  0  0  0
 47 41  2  0  0  0  0
 48 50  1  0  0  0  0
 48 49  1  0  0  0  0
M  END
>  <minimizedAffinity>
-6.25404596

$$$$

 OpenBabel03262522173D

 50 54  0  0  1  0  0  0  0  0999 V2000
   38.6650   23.1890   31.6660 C   0  0  1  0  0  0  0  0  0  0  0  0
   37.1460   23.2730   31.6850 C   0  0  0  0  0  0  0  0  0  0  0  0
   36.8960   24.5210   30.8930 C   0  0  2  0  0  0  0  0  0  0  0  0
   38.0950   25.1220   30.6580 O   0  0  0  0  0  0  0  0  0  0  0  0
   39.0060   24.6670   31.5950 C   0  0  0  0  0  0  0  0  0  0  0  0
   39.0280   22.7290   30.7170 H   0  0  0  0  0  0  0  0  0  0  0  0
   36.8480   23.4590   32.7210 H   0  0  0  0  0  0  0  0  0  0  0  0
   36.6980   22.3700   31.2250 H   0  0  0  0  0  0  0  0  0  0  0  0
   36.4530   24.2330   29.9060 H   0  0  0  0  0  0  0  0  0  0  0  0
   40.0180   24.8400   31.1570 H   0  0  0  0  0  0  0  0  0  0  0  0
   38.8730   25.1370   32.5860 H   0  0  0  0  0  0  0  0  0  0  0  0
   35.9100   25.4260   31.5850 C   0  0  0  0  0  0  0  0  0  0  0  0
   35.8570   25.2680   32.6690 H   0  0  0  0  0  0  0  0  0  0  0  0
   34.9000   25.2180   31.1560 H   0  0  0  0  0  0  0  0  0  0  0  0
   36.3060   27.1280   31.1090 S   0  0  0  0  0  0  0  0  0  0  0  0
   33.8170   29.4020   33.1980 C   0  0  0  0  0  0  0  0  0  0  0  0
   34.5460   29.7590   34.3320 C   0  0  0  0  0  0  0  0  0  0  0  0
   35.8390   29.3180   34.5090 C   0  0  0  0  0  0  0  0  0  0  0  0
   36.3490   28.5220   33.5160 C   0  0  0  0  0  0  0  0  0  0  0  0
   35.6230   28.1820   32.4140 C   0  0  0  0  0  0  0  0  0  0  0  0
   34.3510   28.6110   32.2330 N   0  0  0  0  0  0  0  0  0  0  0  0
   34.0850   30.3930   35.0820 H   0  0  0  0  0  0  0  0  0  0  0  0
   36.4100   29.5980   35.3970 H   0  0  0  0  0  0  0  0  0  0  0  0
   37.3600   28.1330   33.5790 H   0  0  0  0  0  0  0  0  0  0  0  0
   32.4690   29.9050   33.0870 C   0  0  0  0  0  0  0  0  0  0  0  0
   32.1150   30.5950   32.1300 O   0  0  0  0  0  0  0  0  0  0  0  0
   30.9350   30.7070   34.8490 C   0  0  0  0  0  0  0  0  0  0  0  0
   31.4390   29.6240   34.1070 C   0  0  0  0  0  0  0  0  0  0  0  0
   30.9610   28.3240   34.3480 C   0  0  0  0  0  0  0  0  0  0  0  0
   30.0030   28.1680   35.3190 N   0  0  0  0  0  0  0  0  0  0  0  0
   29.5330   29.2160   36.0180 C   0  0  0  0  0  0  0  0  0  0  0  0
   29.9910   30.4580   35.7860 N   0  0  0  0  0  0  0  0  0  0  0  0
   31.3050   31.6890   34.6570 H   0  0  0  0  0  0  0  0  0  0  0  0
   31.3690   27.5240   33.7620 H   0  0  0  0  0  0  0  0  0  0  0  0
   28.7940   28.9090   36.7300 H   0  0  0  0  0  0  0  0  0  0  0  0
   39.1460   22.6000   32.8180 O   0  0  0  0  0  0  0  0  0  0  0  0
   37.3100   24.3330   34.1350 H   0  0  0  0  0  0  0  0  0  0  0  0
   37.9890   23.8070   34.7260 N   0  0  0  0  0  0  0  0  0  0  0  0
   38.8740   22.9740   34.1130 C   0  0  0  0  0  0  0  0  0  0  0  0
   39.6640   22.3890   35.0610 N   0  0  0  0  0  0  0  0  0  0  0  0
   39.2660   22.8620   36.2690 C   0  0  0  0  0  0  0  0  0  0  0  0
   39.6530   22.6670   37.5850 C   0  0  0  0  0  0  0  0  0  0  0  0
   39.0100   23.3270   38.5490 N   0  0  0  0  0  0  0  0  0  0  0  0
   37.9960   24.1840   38.3270 C   0  0  0  0  0  0  0  0  0  0  0  0
   37.5070   24.6970   39.1600 H   0  0  0  0  0  0  0  0  0  0  0  0
   37.5850   24.4050   37.0430 N   0  0  0  0  0  0  0  0  0  0  0  0
   38.2260   23.7430   36.0490 C   0  0  0  0  0  0  0  0  0  0  0  0
   40.7270   21.7570   37.7980 N   0  0  0  0  0  0  0  0  0  0  0  0
   40.7660   20.7380   38.0930 H   0  0  0  0  0  0  0  0  0  0  0  0
   41.6960   22.1120   37.6500 H   0  0  0  0  0  0  0  0  0  0  0  0
  1  6  1  6  0  0  0
  1  2  1  0  0  0  0
  1 36  1  0  0  0  0
  2  7  1  0  0  0  0
  3  9  1  6  0  0  0
  3 12  1  0  0  0  0
  3  2  1  0  0  0  0
  4  3  1  0  0  0  0
  4  5  1  0  0  0  0
  5  1  1  0  0  0  0
  5 11  1  0  0  0  0
  8  2  1  0  0  0  0
 10  5  1  0  0  0  0
 12 13  1  0  0  0  0
 14 12  1  0  0  0  0
 15 12  1  0  0  0  0
 15 20  1  0  0  0  0
 16 17  1  0  0  0  0
 17 18  2  0  0  0  0
 17 22  1  0  0  0  0
 18 23  1  0  0  0  0
 19 24  1  0  0  0  0
 19 18  1  0  0  0  0
 20 19  2  0  0  0  0
 21 20  1  0  0  0  0
 21 16  2  0  0  0  0
 25 16  1  0  0  0  0
 25 28  1  0  0  0  0
 26 25  2  0  0  0  0
 27 32  1  0  0  0  0
 28 29  1  0  0  0  0
 28 27  2  0  0  0  0
 29 30  2  0  0  0  0
 30 31  1  0  0  0  0
 31 35  1  0  0  0  0
 32 31  2  0  0  0  0
 33 27  1  0  0  0  0
 34 29  1  0  0  0  0
 36 39  1  0  0  0  0
 37 38  1  0  0  0  0
 38 47  1  0  0  0  0
 39 38  1  0  0  0  0
 39 40  2  0  0  0  0
 40 41  1  0  0  0  0
 41 42  1  0  0  0  0
 42 48  1  0  0  0  0
 42 43  2  0  0  0  0
 44 43  1  0  0  0  0
 44 45  1  0  0  0  0
 46 44  2  0  0  0  0
 47 41  2  0  0  0  0
 47 46  1  0  0  0  0
 48 49  1  0  0  0  0
 50 48  1  0  0  0  0
M  END
>  <minimizedAffinity>
-6.24522686

$$$$

 OpenBabel03262522173D

 50 54  0  0  1  0  0  0  0  0999 V2000
   41.3060   25.2470   32.4620 C   0  0  1  0  0  0  0  0  0  0  0  0
   40.6530   25.4230   31.0990 C   0  0  0  0  0  0  0  0  0  0  0  0
   40.6750   26.9130   30.9370 C   0  0  2  0  0  0  0  0  0  0  0  0
   41.0890   27.4630   32.1120 O   0  0  0  0  0  0  0  0  0  0  0  0
   40.8770   26.5440   33.1250 C   0  0  0  0  0  0  0  0  0  0  0  0
   42.4180   25.2800   32.3810 H   0  0  0  0  0  0  0  0  0  0  0  0
   39.6120   25.1050   31.1990 H   0  0  0  0  0  0  0  0  0  0  0  0
   41.2310   24.8930   30.3160 H   0  0  0  0  0  0  0  0  0  0  0  0
   41.4260   27.1740   30.1490 H   0  0  0  0  0  0  0  0  0  0  0  0
   41.5620   26.8330   33.9580 H   0  0  0  0  0  0  0  0  0  0  0  0
   39.8170   26.4830   33.4330 H   0  0  0  0  0  0  0  0  0  0  0  0
   39.3390   27.4390   30.4800 C   0  0  0  0  0  0  0  0  0  0  0  0
   38.9270   26.8980   29.6210 H   0  0  0  0  0  0  0  0  0  0  0  0
   39.4780   28.5060   30.1810 H   0  0  0  0  0  0  0  0  0  0  0  0
   38.2450   27.4720   31.9230 S   0  0  0  0  0  0  0  0  0  0  0  0
   36.5940   23.8670   32.0130 C   0  0  0  0  0  0  0  0  0  0  0  0
   35.3640   24.0360   31.3750 C   0  0  0  0  0  0  0  0  0  0  0  0
   34.9840   25.2660   30.8860 C   0  0  0  0  0  0  0  0  0  0  0  0
   35.8760   26.2910   31.0650 C   0  0  0  0  0  0  0  0  0  0  0  0
   37.0730   26.1090   31.6910 C   0  0  0  0  0  0  0  0  0  0  0  0
   37.4540   24.9030   32.1740 N   0  0  0  0  0  0  0  0  0  0  0  0
   34.7020   23.1830   31.2650 H   0  0  0  0  0  0  0  0  0  0  0  0
   34.0220   25.3980   30.3870 H   0  0  0  0  0  0  0  0  0  0  0  0
   35.6530   27.2910   30.7090 H   0  0  0  0  0  0  0  0  0  0  0  0
   36.9180   22.5470   32.4960 C   0  0  0  0  0  0  0  0  0  0  0  0
   37.2380   22.3500   33.6690 O   0  0  0  0  0  0  0  0  0  0  0  0
   35.8870   20.3960   31.8510 C   0  0  0  0  0  0  0  0  0  0  0  0
   36.8850   21.3590   31.6190 C   0  0  0  0  0  0  0  0  0  0  0  0
   37.8120   21.1740   30.5780 C   0  0  0  0  0  0  0  0  0  0  0  0
   37.6970   20.0360   29.8190 N   0  0  0  0  0  0  0  0  0  0  0  0
   36.7350   19.1270   30.0570 C   0  0  0  0  0  0  0  0  0  0  0  0
   35.8510   19.3050   31.0520 N   0  0  0  0  0  0  0  0  0  0  0  0
   35.1890   20.5480   32.6440 H   0  0  0  0  0  0  0  0  0  0  0  0
   38.5590   21.9290   30.4320 H   0  0  0  0  0  0  0  0  0  0  0  0
   36.7970   18.3060   29.3700 H   0  0  0  0  0  0  0  0  0  0  0  0
   40.8040   24.1390   33.1150 O   0  0  0  0  0  0  0  0  0  0  0  0
   38.5590   25.4940   34.2270 H   0  0  0  0  0  0  0  0  0  0  0  0
   39.0380   24.7800   34.8200 N   0  0  0  0  0  0  0  0  0  0  0  0
   40.1120   24.1240   34.3030 C   0  0  0  0  0  0  0  0  0  0  0  0
   40.5840   23.2420   35.2350 N   0  0  0  0  0  0  0  0  0  0  0  0
   39.7970   23.3540   36.3340 C   0  0  0  0  0  0  0  0  0  0  0  0
   39.7490   22.7550   37.5830 C   0  0  0  0  0  0  0  0  0  0  0  0
   38.8000   23.1300   38.4410 N   0  0  0  0  0  0  0  0  0  0  0  0
   37.8690   24.0650   38.1710 C   0  0  0  0  0  0  0  0  0  0  0  0
   37.1130   24.3310   38.9160 H   0  0  0  0  0  0  0  0  0  0  0  0
   37.8820   24.6800   36.9510 N   0  0  0  0  0  0  0  0  0  0  0  0
   38.8400   24.3120   36.0660 C   0  0  0  0  0  0  0  0  0  0  0  0
   40.7420   21.7690   37.8470 N   0  0  0  0  0  0  0  0  0  0  0  0
   40.7350   20.7080   37.8200 H   0  0  0  0  0  0  0  0  0  0  0  0
   41.6880   22.1020   38.1310 H   0  0  0  0  0  0  0  0  0  0  0  0
  1  6  1  6  0  0  0
  1 36  1  0  0  0  0
  1  5  1  0  0  0  0
  2  7  1  0  0  0  0
  2  1  1  0  0  0  0
  3  9  1  6  0  0  0
  3  2  1  0  0  0  0
  3  4  1  0  0  0  0
  4  5  1  0  0  0  0
  5 11  1  0  0  0  0
  5 10  1  0  0  0  0
  8  2  1  0  0  0  0
 12  3  1  0  0  0  0
 12 15  1  0  0  0  0
 13 12  1  0  0  0  0
 14 12  1  0  0  0  0
 16 21  1  0  0  0  0
 16 25  1  0  0  0  0
 17 16  2  0  0  0  0
 18 19  2  0  0  0  0
 18 17  1  0  0  0  0
 19 20  1  0  0  0  0
 20 15  1  0  0  0  0
 20 21  2  0  0  0  0
 22 17  1  0  0  0  0
 23 18  1  0  0  0  0
 24 19  1  0  0  0  0
 25 26  2  0  0  0  0
 27 33  1  0  0  0  0
 28 27  1  0  0  0  0
 28 25  1  0  0  0  0
 29 28  2  0  0  0  0
 30 31  2  0  0  0  0
 30 29  1  0  0  0  0
 31 32  1  0  0  0  0
 32 27  2  0  0  0  0
 34 29  1  0  0  0  0
 35 31  1  0  0  0  0
 36 39  1  0  0  0  0
 37 38  1  0  0  0  0
 38 47  1  0  0  0  0
 39 38  1  0  0  0  0
 39 40  2  0  0  0  0
 40 41  1  0  0  0  0
 41 42  1  0  0  0  0
 42 48  1  0  0  0  0
 42 43  2  0  0  0  0
 44 43  1  0  0  0  0
 44 45  1  0  0  0  0
 46 44  2  0  0  0  0
 47 41  2  0  0  0  0
 47 46  1  0  0  0  0
 48 50  1  0  0  0  0
 49 48  1  0  0  0  0
M  END
>  <minimizedAffinity>
-6.17884064

$$$$

 OpenBabel03262522173D

 50 54  0  0  1  0  0  0  0  0999 V2000
   40.5100   22.6100   32.1150 C   0  0  1  0  0  0  0  0  0  0  0  0
   39.3930   21.6650   32.5310 C   0  0  0  0  0  0  0  0  0  0  0  0
   38.9310   21.1320   31.2090 C   0  0  2  0  0  0  0  0  0  0  0  0
   39.5620   21.8310   30.2250 O   0  0  0  0  0  0  0  0  0  0  0  0
   39.9960   23.0340   30.7510 C   0  0  0  0  0  0  0  0  0  0  0  0
   41.4610   22.0530   31.9420 H   0  0  0  0  0  0  0  0  0  0  0  0
   38.5930   22.2810   32.9510 H   0  0  0  0  0  0  0  0  0  0  0  0
   39.7780   20.8760   33.2060 H   0  0  0  0  0  0  0  0  0  0  0  0
   39.2430   20.0600   31.1290 H   0  0  0  0  0  0  0  0  0  0  0  0
   40.8220   23.3870   30.0860 H   0  0  0  0  0  0  0  0  0  0  0  0
   39.1810   23.7720   30.8620 H   0  0  0  0  0  0  0  0  0  0  0  0
   37.4290   21.1760   31.0890 C   0  0  0  0  0  0  0  0  0  0  0  0
   36.9770   20.1950   30.9040 H   0  0  0  0  0  0  0  0  0  0  0  0
   37.1770   21.8410   30.2270 H   0  0  0  0  0  0  0  0  0  0  0  0
   36.7900   22.0150   32.5610 S   0  0  0  0  0  0  0  0  0  0  0  0
   36.6460   25.9540   32.1210 C   0  0  0  0  0  0  0  0  0  0  0  0
   35.5920   26.1630   31.2310 C   0  0  0  0  0  0  0  0  0  0  0  0
   34.8750   25.1020   30.7230 C   0  0  0  0  0  0  0  0  0  0  0  0
   35.2580   23.8550   31.1430 C   0  0  0  0  0  0  0  0  0  0  0  0
   36.2900   23.6690   32.0140 C   0  0  0  0  0  0  0  0  0  0  0  0
   37.0000   24.7060   32.5170 N   0  0  0  0  0  0  0  0  0  0  0  0
   35.3370   27.1760   30.9370 H   0  0  0  0  0  0  0  0  0  0  0  0
   34.0500   25.2650   30.0260 H   0  0  0  0  0  0  0  0  0  0  0  0
   34.7450   22.9670   30.7900 H   0  0  0  0  0  0  0  0  0  0  0  0
   37.3470   27.1180   32.6080 C   0  0  0  0  0  0  0  0  0  0  0  0
   38.5630   27.1060   32.7970 O   0  0  0  0  0  0  0  0  0  0  0  0
   36.1010   28.5500   34.1890 C   0  0  0  0  0  0  0  0  0  0  0  0
   36.6510   28.3870   32.9060 C   0  0  0  0  0  0  0  0  0  0  0  0
   36.5300   29.4140   31.9530 C   0  0  0  0  0  0  0  0  0  0  0  0
   35.8650   30.5540   32.3290 N   0  0  0  0  0  0  0  0  0  0  0  0
   35.3450   30.6910   33.5610 C   0  0  0  0  0  0  0  0  0  0  0  0
   35.4620   29.7090   34.4700 N   0  0  0  0  0  0  0  0  0  0  0  0
   36.2000   27.7640   34.9040 H   0  0  0  0  0  0  0  0  0  0  0  0
   36.9620   29.2530   30.9850 H   0  0  0  0  0  0  0  0  0  0  0  0
   34.8630   31.6420   33.6770 H   0  0  0  0  0  0  0  0  0  0  0  0
   40.6120   23.6760   32.9870 O   0  0  0  0  0  0  0  0  0  0  0  0
   38.5150   25.2580   34.0860 H   0  0  0  0  0  0  0  0  0  0  0  0
   38.9860   24.5710   34.7160 N   0  0  0  0  0  0  0  0  0  0  0  0
   39.9900   23.8080   34.2060 C   0  0  0  0  0  0  0  0  0  0  0  0
   40.4650   22.9840   35.1880 N   0  0  0  0  0  0  0  0  0  0  0  0
   39.7500   23.2410   36.3120 C   0  0  0  0  0  0  0  0  0  0  0  0
   39.7410   22.7580   37.6110 C   0  0  0  0  0  0  0  0  0  0  0  0
   38.8650   23.2650   38.4800 N   0  0  0  0  0  0  0  0  0  0  0  0
   37.9740   24.2280   38.1750 C   0  0  0  0  0  0  0  0  0  0  0  0
   37.2790   24.6040   38.9310 H   0  0  0  0  0  0  0  0  0  0  0  0
   37.9510   24.7310   36.9050 N   0  0  0  0  0  0  0  0  0  0  0  0
   38.8350   24.2280   36.0080 C   0  0  0  0  0  0  0  0  0  0  0  0
   40.6900   21.7410   37.9130 N   0  0  0  0  0  0  0  0  0  0  0  0
   40.6220   20.6840   37.9830 H   0  0  0  0  0  0  0  0  0  0  0  0
   41.6680   22.0390   38.1150 H   0  0  0  0  0  0  0  0  0  0  0  0
  1  6  1  6  0  0  0
  1  2  1  0  0  0  0
  1 36  1  0  0  0  0
  2  7  1  0  0  0  0
  2  8  1  0  0  0  0
  3  9  1  6  0  0  0
  3  2  1  0  0  0  0
  4  5  1  0  0  0  0
  4  3  1  0  0  0  0
  5 11  1  0  0  0  0
  5  1  1  0  0  0  0
 10  5  1  0  0  0  0
 12  3  1  0  0  0  0
 12 15  1  0  0  0  0
 13 12  1  0  0  0  0
 14 12  1  0  0  0  0
 16 21  1  0  0  0  0
 16 25  1  0  0  0  0
 17 16  2  0  0  0  0
 18 19  2  0  0  0  0
 18 17  1  0  0  0  0
 19 20  1  0  0  0  0
 20 21  2  0  0  0  0
 20 15  1  0  0  0  0
 22 17  1  0  0  0  0
 23 18  1  0  0  0  0
 24 19  1  0  0  0  0
 25 26  2  0  0  0  0
 25 28  1  0  0  0  0
 27 32  1  0  0  0  0
 27 33  1  0  0  0  0
 28 27  2  0  0  0  0
 29 30  2  0  0  0  0
 29 28  1  0  0  0  0
 30 31  1  0  0  0  0
 31 35  1  0  0  0  0
 31 32  2  0  0  0  0
 34 29  1  0  0  0  0
 36 39  1  0  0  0  0
 37 38  1  0  0  0  0
 38 47  1  0  0  0  0
 39 38  1  0  0  0  0
 39 40  2  0  0  0  0
 40 41  1  0  0  0  0
 41 42  1  0  0  0  0
 42 48  1  0  0  0  0
 42 43  2  0  0  0  0
 44 43  1  0  0  0  0
 44 45  1  0  0  0  0
 46 44  2  0  0  0  0
 47 41  2  0  0  0  0
 47 46  1  0  0  0  0
 48 49  1  0  0  0  0
 48 50  1  0  0  0  0
M  END
>  <minimizedAffinity>
-6.16854334

$$$$

 OpenBabel03262522173D

 50 54  0  0  1  0  0  0  0  0999 V2000
   36.5860   27.9240   32.1120 C   0  0  1  0  0  0  0  0  0  0  0  0
   38.0360   27.9080   31.6520 C   0  0  0  0  0  0  0  0  0  0  0  0
   38.0990   26.6290   30.8730 C   0  0  2  0  0  0  0  0  0  0  0  0
   36.9260   25.9630   31.0540 O   0  0  0  0  0  0  0  0  0  0  0  0
   36.3290   26.4300   32.2120 C   0  0  0  0  0  0  0  0  0  0  0  0
   35.9160   28.3120   31.3090 H   0  0  0  0  0  0  0  0  0  0  0  0
   38.6540   27.7950   32.5470 H   0  0  0  0  0  0  0  0  0  0  0  0
   38.2620   28.8020   31.0380 H   0  0  0  0  0  0  0  0  0  0  0  0
   38.1920   26.8800   29.7860 H   0  0  0  0  0  0  0  0  0  0  0  0
   35.2430   26.1870   32.1240 H   0  0  0  0  0  0  0  0  0  0  0  0
   36.7950   26.0230   33.1280 H   0  0  0  0  0  0  0  0  0  0  0  0
   39.3050   25.8090   31.2530 C   0  0  0  0  0  0  0  0  0  0  0  0
   39.9450   25.5530   30.4010 H   0  0  0  0  0  0  0  0  0  0  0  0
   38.9380   24.8570   31.7080 H   0  0  0  0  0  0  0  0  0  0  0  0
   40.1650   26.6900   32.5820 S   0  0  0  0  0  0  0  0  0  0  0  0
   38.8120   24.3100   35.4520 C   0  0  0  0  0  0  0  0  0  0  0  0
   38.3140   25.1850   36.4180 C   0  0  0  0  0  0  0  0  0  0  0  0
   38.3700   26.5490   36.2330 C   0  0  0  0  0  0  0  0  0  0  0  0
   38.9360   26.9780   35.0610 C   0  0  0  0  0  0  0  0  0  0  0  0
   39.4180   26.1100   34.1280 C   0  0  0  0  0  0  0  0  0  0  0  0
   39.3660   24.7690   34.3020 N   0  0  0  0  0  0  0  0  0  0  0  0
   37.8770   24.7800   37.3250 H   0  0  0  0  0  0  0  0  0  0  0  0
   37.9800   27.2330   36.9900 H   0  0  0  0  0  0  0  0  0  0  0  0
   39.0180   28.0370   34.8390 H   0  0  0  0  0  0  0  0  0  0  0  0
   38.7150   22.8960   35.7200 C   0  0  0  0  0  0  0  0  0  0  0  0
   39.5420   22.3150   36.4230 O   0  0  0  0  0  0  0  0  0  0  0  0
   37.6250   21.8040   33.7910 C   0  0  0  0  0  0  0  0  0  0  0  0
   37.6230   22.0650   35.1720 C   0  0  0  0  0  0  0  0  0  0  0  0
   36.6040   21.5390   35.9860 C   0  0  0  0  0  0  0  0  0  0  0  0
   35.6350   20.7790   35.3790 N   0  0  0  0  0  0  0  0  0  0  0  0
   35.6540   20.5410   34.0560 C   0  0  0  0  0  0  0  0  0  0  0  0
   36.6280   21.0440   33.2810 N   0  0  0  0  0  0  0  0  0  0  0  0
   38.4040   22.2080   33.1840 H   0  0  0  0  0  0  0  0  0  0  0  0
   36.6360   21.7600   37.0350 H   0  0  0  0  0  0  0  0  0  0  0  0
   34.8230   19.9320   33.7590 H   0  0  0  0  0  0  0  0  0  0  0  0
   36.4570   28.5560   33.3330 O   0  0  0  0  0  0  0  0  0  0  0  0
   33.7810   29.0450   32.4900 H   0  0  0  0  0  0  0  0  0  0  0  0
   34.1200   29.5430   33.3420 N   0  0  0  0  0  0  0  0  0  0  0  0
   35.3960   29.3200   33.7580 C   0  0  0  0  0  0  0  0  0  0  0  0
   35.6340   30.0630   34.8810 N   0  0  0  0  0  0  0  0  0  0  0  0
   34.4970   30.7490   35.1600 C   0  0  0  0  0  0  0  0  0  0  0  0
   34.0990   31.6480   36.1370 C   0  0  0  0  0  0  0  0  0  0  0  0
   32.8580   32.1370   36.0940 N   0  0  0  0  0  0  0  0  0  0  0  0
   31.9530   31.8100   35.1530 C   0  0  0  0  0  0  0  0  0  0  0  0
   30.9490   32.2430   35.1700 H   0  0  0  0  0  0  0  0  0  0  0  0
   32.3070   30.9270   34.1720 N   0  0  0  0  0  0  0  0  0  0  0  0
   33.5640   30.4200   34.1990 C   0  0  0  0  0  0  0  0  0  0  0  0
   35.0710   31.9810   37.1230 N   0  0  0  0  0  0  0  0  0  0  0  0
   35.2390   31.6470   38.1160 H   0  0  0  0  0  0  0  0  0  0  0  0
   35.7880   32.6940   36.8700 H   0  0  0  0  0  0  0  0  0  0  0  0
  1  6  1  6  0  0  0
  1  5  1  0  0  0  0
  1 36  1  0  0  0  0
  2  1  1  0  0  0  0
  2  7  1  0  0  0  0
  3  9  1  6  0  0  0
  3  4  1  0  0  0  0
  3 12  1  0  0  0  0
  3  2  1  0  0  0  0
  4  5  1  0  0  0  0
  5 11  1  0  0  0  0
  8  2  1  0  0  0  0
 10  5  1  0  0  0  0
 12 14  1  0  0  0  0
 12 15  1  0  0  0  0
 13 12  1  0  0  0  0
 15 20  1  0  0  0  0
 16 25  1  0  0  0  0
 16 17  1  0  0  0  0
 17 22  1  0  0  0  0
 18 17  2  0  0  0  0
 18 23  1  0  0  0  0
 19 18  1  0  0  0  0
 20 21  1  0  0  0  0
 20 19  2  0  0  0  0
 21 16  2  0  0  0  0
 24 19  1  0  0  0  0
 25 26  2  0  0  0  0
 27 28  1  0  0  0  0
 28 25  1  0  0  0  0
 28 29  2  0  0  0  0
 29 34  1  0  0  0  0
 30 29  1  0  0  0  0
 31 30  2  0  0  0  0
 32 27  2  0  0  0  0
 32 31  1  0  0  0  0
 33 27  1  0  0  0  0
 35 31  1  0  0  0  0
 36 39  1  0  0  0  0
 37 38  1  0  0  0  0
 38 39  1  0  0  0  0
 38 47  1  0  0  0  0
 39 40  2  0  0  0  0
 40 41  1  0  0  0  0
 41 42  1  0  0  0  0
 42 48  1  0  0  0  0
 43 42  2  0  0  0  0
 44 45  1  0  0  0  0
 44 43  1  0  0  0  0
 46 47  1  0  0  0  0
 46 44  2  0  0  0  0
 47 41  2  0  0  0  0
 48 49  1  0  0  0  0
 50 48  1  0  0  0  0
M  END
>  <minimizedAffinity>
-6.16246986

$$$$
