
 OpenBabel03272509243D

 29 31  0  0  0  0  0  0  0  0999 V2000
   37.6940   31.0620   47.1330 C   0  0  0  0  0  0  0  0  0  0  0  0
   37.9840   31.9990   47.6200 H   0  0  0  0  0  0  0  0  0  0  0  0
   38.4370   30.2440   47.2430 H   0  0  0  0  0  0  0  0  0  0  0  0
   37.5100   31.2500   45.6870 N   0  0  0  0  0  0  0  0  0  0  0  0
   36.6090   30.7120   44.8620 C   0  0  0  0  0  0  0  0  0  0  0  0
   35.8550   30.0190   45.2090 H   0  0  0  0  0  0  0  0  0  0  0  0
   36.8220   31.1780   43.6000 N   0  0  0  0  0  0  0  0  0  0  0  0
   37.8900   32.0220   43.6910 C   0  0  0  0  0  0  0  0  0  0  0  0
   38.5350   32.7690   42.7260 C   0  0  0  0  0  0  0  0  0  0  0  0
   39.5910   33.5360   43.1070 N   0  0  0  0  0  0  0  0  0  0  0  0
   40.0320   33.6010   44.3650 C   0  0  0  0  0  0  0  0  0  0  0  0
   40.8760   34.2230   44.6250 H   0  0  0  0  0  0  0  0  0  0  0  0
   39.4030   32.8710   45.3070 N   0  0  0  0  0  0  0  0  0  0  0  0
   38.3380   32.0800   45.0020 C   0  0  0  0  0  0  0  0  0  0  0  0
   38.1420   32.7680   41.3560 N   0  0  0  0  0  0  0  0  0  0  0  0
   38.6630   32.1240   40.7150 H   0  0  0  0  0  0  0  0  0  0  0  0
   37.3720   33.4910   41.4380 H   0  0  0  0  0  0  0  0  0  0  0  0
   36.3580   30.5650   47.6600 C   0  0  0  0  0  0  0  0  0  0  0  0
   35.6130   31.3600   47.5180 H   0  0  0  0  0  0  0  0  0  0  0  0
   36.0340   29.6960   47.0530 H   0  0  0  0  0  0  0  0  0  0  0  0
   37.5180   30.2490   51.2730 C   0  0  0  0  0  0  0  0  0  0  0  0
   37.5260   30.6110   49.9170 C   0  0  0  0  0  0  0  0  0  0  0  0
   36.4630   30.2410   49.1100 C   0  0  0  0  0  0  0  0  0  0  0  0
   35.4430   29.5310   49.6730 N   0  0  0  0  0  0  0  0  0  0  0  0
   35.4570   29.1950   50.9780 C   0  0  0  0  0  0  0  0  0  0  0  0
   36.4830   29.5480   51.7760 N   0  0  0  0  0  0  0  0  0  0  0  0
   38.3430   30.5320   51.9150 H   0  0  0  0  0  0  0  0  0  0  0  0
   38.3230   31.1630   49.4820 H   0  0  0  0  0  0  0  0  0  0  0  0
   34.5870   28.6320   51.2980 H   0  0  0  0  0  0  0  0  0  0  0  0
  1  3  1  0  0  0  0
  1  2  1  0  0  0  0
  1 18  1  0  0  0  0
  4  1  1  0  0  0  0
  5  6  1  0  0  0  0
  5  4  1  0  0  0  0
  7  8  1  0  0  0  0
  7  5  2  0  0  0  0
  8 14  1  0  0  0  0
  9 10  1  0  0  0  0
  9  8  2  0  0  0  0
 10 11  2  0  0  0  0
 11 12  1  0  0  0  0
 11 13  1  0  0  0  0
 14 13  2  0  0  0  0
 14  4  1  0  0  0  0
 15 17  1  0  0  0  0
 15  9  1  0  0  0  0
 16 15  1  0  0  0  0
 18 23  1  0  0  0  0
 19 18  1  0  0  0  0
 20 18  1  0  0  0  0
 21 26  1  0  0  0  0
 21 27  1  0  0  0  0
 22 21  2  0  0  0  0
 23 24  2  0  0  0  0
 23 22  1  0  0  0  0
 24 25  1  0  0  0  0
 25 29  1  0  0  0  0
 25 26  2  0  0  0  0
 28 22  1  0  0  0  0
M  END
>  <minimizedAffinity>
-4.67818689

>  <minimizedRMSD>
3.1278348

$$$$
