
 OpenBabel03272506413D

 24 26  0  0  0  0  0  0  0  0999 V2000
   37.4090   26.6180   35.6360 H   0  0  0  0  0  0  0  0  0  0  0  0
   37.2340   26.6560   34.6260 N   0  0  0  0  0  0  0  0  0  0  0  0
   37.6440   25.6190   33.8680 C   0  0  0  0  0  0  0  0  0  0  0  0
   37.3220   25.8700   32.6020 N   0  0  0  0  0  0  0  0  0  0  0  0
   36.7060   27.0690   32.5500 C   0  0  0  0  0  0  0  0  0  0  0  0
   36.1600   27.8490   31.5620 C   0  0  0  0  0  0  0  0  0  0  0  0
   35.6090   29.0310   31.8770 N   0  0  0  0  0  0  0  0  0  0  0  0
   35.5640   29.4990   33.1280 C   0  0  0  0  0  0  0  0  0  0  0  0
   35.0980   30.4620   33.2770 H   0  0  0  0  0  0  0  0  0  0  0  0
   36.0960   28.7540   34.1390 N   0  0  0  0  0  0  0  0  0  0  0  0
   36.6500   27.5680   33.8330 C   0  0  0  0  0  0  0  0  0  0  0  0
   36.2230   27.3220   30.2340 N   0  0  0  0  0  0  0  0  0  0  0  0
   37.2300   27.1670   29.9460 H   0  0  0  0  0  0  0  0  0  0  0  0
   35.5500   27.0530   29.4850 H   0  0  0  0  0  0  0  0  0  0  0  0
   38.4800   24.0640   34.1840 S   0  0  0  0  0  0  0  0  0  0  0  0
   37.8630   24.1900   38.0910 C   0  0  0  0  0  0  0  0  0  0  0  0
   38.8810   23.4050   38.6350 C   0  0  0  0  0  0  0  0  0  0  0  0
   39.8080   22.8020   37.7680 C   0  0  0  0  0  0  0  0  0  0  0  0
   39.6560   23.0230   36.4310 N   0  0  0  0  0  0  0  0  0  0  0  0
   38.6700   23.7810   35.9390 C   0  0  0  0  0  0  0  0  0  0  0  0
   37.7660   24.3710   36.7580 N   0  0  0  0  0  0  0  0  0  0  0  0
   37.1490   24.6560   38.7540 H   0  0  0  0  0  0  0  0  0  0  0  0
   38.9740   23.2470   39.7210 H   0  0  0  0  0  0  0  0  0  0  0  0
   40.6180   22.1820   38.1380 H   0  0  0  0  0  0  0  0  0  0  0  0
  2  1  1  0  0  0  0
  3 15  1  0  0  0  0
  3  2  1  0  0  0  0
  4  3  2  0  0  0  0
  5  4  1  0  0  0  0
  5 11  1  0  0  0  0
  6  7  1  0  0  0  0
  6  5  2  0  0  0  0
  7  8  2  0  0  0  0
  8  9  1  0  0  0  0
  8 10  1  0  0  0  0
 11 10  2  0  0  0  0
 11  2  1  0  0  0  0
 12  6  1  0  0  0  0
 13 12  1  0  0  0  0
 14 12  1  0  0  0  0
 15 20  1  0  0  0  0
 16 17  1  0  0  0  0
 16 22  1  0  0  0  0
 17 23  1  0  0  0  0
 18 24  1  0  0  0  0
 18 17  2  0  0  0  0
 19 18  1  0  0  0  0
 20 19  2  0  0  0  0
 20 21  1  0  0  0  0
 21 16  2  0  0  0  0
M  END
>  <minimizedAffinity>
-4.97287798

$$$$

 OpenBabel03272506413D

 24 26  0  0  0  0  0  0  0  0999 V2000
   39.9580   25.2850   33.9780 H   0  0  0  0  0  0  0  0  0  0  0  0
   39.6300   24.8820   34.8630 N   0  0  0  0  0  0  0  0  0  0  0  0
   38.4830   25.3560   35.3930 C   0  0  0  0  0  0  0  0  0  0  0  0
   38.2430   24.7030   36.5260 N   0  0  0  0  0  0  0  0  0  0  0  0
   39.2360   23.8110   36.7220 C   0  0  0  0  0  0  0  0  0  0  0  0
   39.5410   22.8770   37.6800 C   0  0  0  0  0  0  0  0  0  0  0  0
   40.6490   22.1330   37.5540 N   0  0  0  0  0  0  0  0  0  0  0  0
   41.4920   22.2570   36.5240 C   0  0  0  0  0  0  0  0  0  0  0  0
   42.3570   21.6110   36.5150 H   0  0  0  0  0  0  0  0  0  0  0  0
   41.2250   23.1740   35.5500 N   0  0  0  0  0  0  0  0  0  0  0  0
   40.1150   23.9240   35.6670 C   0  0  0  0  0  0  0  0  0  0  0  0
   38.6210   22.7670   38.7700 N   0  0  0  0  0  0  0  0  0  0  0  0
   38.5500   23.6880   39.2870 H   0  0  0  0  0  0  0  0  0  0  0  0
   38.0090   22.0320   39.1850 H   0  0  0  0  0  0  0  0  0  0  0  0
   37.2850   26.6050   34.9220 S   0  0  0  0  0  0  0  0  0  0  0  0
   36.9090   28.5740   31.5100 C   0  0  0  0  0  0  0  0  0  0  0  0
   38.0670   28.2660   30.7950 C   0  0  0  0  0  0  0  0  0  0  0  0
   39.0180   27.4130   31.3800 C   0  0  0  0  0  0  0  0  0  0  0  0
   38.7490   26.9310   32.6270 N   0  0  0  0  0  0  0  0  0  0  0  0
   37.6290   27.2430   33.2880 C   0  0  0  0  0  0  0  0  0  0  0  0
   36.6990   28.0640   32.7410 N   0  0  0  0  0  0  0  0  0  0  0  0
   36.1750   29.2280   31.0640 H   0  0  0  0  0  0  0  0  0  0  0  0
   38.2530   28.6750   29.7890 H   0  0  0  0  0  0  0  0  0  0  0  0
   39.9360   27.1420   30.8680 H   0  0  0  0  0  0  0  0  0  0  0  0
  1  2  1  0  0  0  0
  2  3  1  0  0  0  0
  2 11  1  0  0  0  0
  3  4  2  0  0  0  0
  4  5  1  0  0  0  0
  5  6  1  0  0  0  0
  6 12  1  0  0  0  0
  7  6  2  0  0  0  0
  8  7  1  0  0  0  0
  9  8  1  0  0  0  0
 10 11  1  0  0  0  0
 10  8  2  0  0  0  0
 11  5  2  0  0  0  0
 12 14  1  0  0  0  0
 12 13  1  0  0  0  0
 15  3  1  0  0  0  0
 16 21  1  0  0  0  0
 17 18  1  0  0  0  0
 17 16  2  0  0  0  0
 18 19  2  0  0  0  0
 19 20  1  0  0  0  0
 20 15  1  0  0  0  0
 21 20  2  0  0  0  0
 22 16  1  0  0  0  0
 23 17  1  0  0  0  0
 24 18  1  0  0  0  0
M  END
>  <minimizedAffinity>
-4.67354298

$$$$

 OpenBabel03272506413D

 24 26  0  0  0  0  0  0  0  0999 V2000
   41.2910   24.8200   33.7970 H   0  0  0  0  0  0  0  0  0  0  0  0
   40.7820   24.4690   34.6150 N   0  0  0  0  0  0  0  0  0  0  0  0
   39.5600   24.9790   34.8740 C   0  0  0  0  0  0  0  0  0  0  0  0
   39.0820   24.3910   35.9670 N   0  0  0  0  0  0  0  0  0  0  0  0
   39.9980   23.5050   36.4090 C   0  0  0  0  0  0  0  0  0  0  0  0
   40.0850   22.6230   37.4570 C   0  0  0  0  0  0  0  0  0  0  0  0
   41.1830   21.8670   37.6000 N   0  0  0  0  0  0  0  0  0  0  0  0
   42.2200   21.9290   36.7590 C   0  0  0  0  0  0  0  0  0  0  0  0
   43.0570   21.2770   36.9620 H   0  0  0  0  0  0  0  0  0  0  0  0
   42.1730   22.7910   35.7040 N   0  0  0  0  0  0  0  0  0  0  0  0
   41.0760   23.5540   35.5520 C   0  0  0  0  0  0  0  0  0  0  0  0
   38.9610   22.5800   38.3400 N   0  0  0  0  0  0  0  0  0  0  0  0
   38.8020   23.5290   38.7820 H   0  0  0  0  0  0  0  0  0  0  0  0
   38.2640   21.8730   38.6590 H   0  0  0  0  0  0  0  0  0  0  0  0
   38.5050   26.2070   34.1020 S   0  0  0  0  0  0  0  0  0  0  0  0
   35.6670   25.7550   31.3820 C   0  0  0  0  0  0  0  0  0  0  0  0
   35.6310   24.3820   31.1340 C   0  0  0  0  0  0  0  0  0  0  0  0
   36.5170   23.5440   31.8300 C   0  0  0  0  0  0  0  0  0  0  0  0
   37.3710   24.1300   32.7180 N   0  0  0  0  0  0  0  0  0  0  0  0
   37.3820   25.4490   32.9350 C   0  0  0  0  0  0  0  0  0  0  0  0
   36.5350   26.2740   32.2740 N   0  0  0  0  0  0  0  0  0  0  0  0
   34.9860   26.4020   30.8490 H   0  0  0  0  0  0  0  0  0  0  0  0
   34.9280   23.9420   30.4080 H   0  0  0  0  0  0  0  0  0  0  0  0
   36.5320   22.4700   31.6750 H   0  0  0  0  0  0  0  0  0  0  0  0
  1  2  1  0  0  0  0
  2  3  1  0  0  0  0
  2 11  1  0  0  0  0
  3  4  2  0  0  0  0
  4  5  1  0  0  0  0
  5  6  1  0  0  0  0
  6  7  2  0  0  0  0
  6 12  1  0  0  0  0
  8  9  1  0  0  0  0
  8  7  1  0  0  0  0
 10  8  2  0  0  0  0
 11 10  1  0  0  0  0
 11  5  2  0  0  0  0
 12 14  1  0  0  0  0
 12 13  1  0  0  0  0
 15  3  1  0  0  0  0
 16 21  1  0  0  0  0
 17 16  2  0  0  0  0
 17 18  1  0  0  0  0
 18 19  2  0  0  0  0
 19 20  1  0  0  0  0
 20 15  1  0  0  0  0
 21 20  2  0  0  0  0
 22 16  1  0  0  0  0
 23 17  1  0  0  0  0
 24 18  1  0  0  0  0
M  END
>  <minimizedAffinity>
-4.56212234

$$$$

 OpenBabel03272506413D

 24 26  0  0  0  0  0  0  0  0999 V2000
   39.0290   25.4800   34.1570 H   0  0  0  0  0  0  0  0  0  0  0  0
   38.2760   25.4130   33.4640 N   0  0  0  0  0  0  0  0  0  0  0  0
   37.7280   24.2020   33.2320 C   0  0  0  0  0  0  0  0  0  0  0  0
   36.7800   24.3390   32.3090 N   0  0  0  0  0  0  0  0  0  0  0  0
   36.7220   25.6380   31.9490 C   0  0  0  0  0  0  0  0  0  0  0  0
   35.9740   26.3800   31.0700 C   0  0  0  0  0  0  0  0  0  0  0  0
   36.1890   27.7000   30.9630 N   0  0  0  0  0  0  0  0  0  0  0  0
   37.1140   28.3440   31.6810 C   0  0  0  0  0  0  0  0  0  0  0  0
   37.2080   29.4070   31.5210 H   0  0  0  0  0  0  0  0  0  0  0  0
   37.8780   27.6430   32.5660 N   0  0  0  0  0  0  0  0  0  0  0  0
   37.6700   26.3190   32.6810 C   0  0  0  0  0  0  0  0  0  0  0  0
   34.9930   25.6640   30.3150 N   0  0  0  0  0  0  0  0  0  0  0  0
   35.4540   24.9130   29.7280 H   0  0  0  0  0  0  0  0  0  0  0  0
   33.9580   25.6830   30.1910 H   0  0  0  0  0  0  0  0  0  0  0  0
   37.9880   22.5450   33.8670 S   0  0  0  0  0  0  0  0  0  0  0  0
   40.8990   22.0770   36.5060 C   0  0  0  0  0  0  0  0  0  0  0  0
   40.3830   22.5920   37.6970 C   0  0  0  0  0  0  0  0  0  0  0  0
   39.0780   23.1110   37.7000 C   0  0  0  0  0  0  0  0  0  0  0  0
   38.3850   23.0810   36.5260 N   0  0  0  0  0  0  0  0  0  0  0  0
   38.9060   22.5810   35.4000 C   0  0  0  0  0  0  0  0  0  0  0  0
   40.1630   22.0740   35.3760 N   0  0  0  0  0  0  0  0  0  0  0  0
   41.9020   21.6750   36.4990 H   0  0  0  0  0  0  0  0  0  0  0  0
   40.9720   22.6010   38.6280 H   0  0  0  0  0  0  0  0  0  0  0  0
   38.6280   23.5240   38.5970 H   0  0  0  0  0  0  0  0  0  0  0  0
  2  1  1  0  0  0  0
  3  2  1  0  0  0  0
  3 15  1  0  0  0  0
  4  3  2  0  0  0  0
  5  4  1  0  0  0  0
  5 11  1  0  0  0  0
  6  5  2  0  0  0  0
  7  6  1  0  0  0  0
  7  8  2  0  0  0  0
  8 10  1  0  0  0  0
  9  8  1  0  0  0  0
 10 11  2  0  0  0  0
 11  2  1  0  0  0  0
 12  6  1  0  0  0  0
 13 12  1  0  0  0  0
 14 12  1  0  0  0  0
 15 20  1  0  0  0  0
 16 17  1  0  0  0  0
 17 18  2  0  0  0  0
 17 23  1  0  0  0  0
 18 24  1  0  0  0  0
 19 18  1  0  0  0  0
 20 19  2  0  0  0  0
 21 20  1  0  0  0  0
 21 16  2  0  0  0  0
 22 16  1  0  0  0  0
M  END
>  <minimizedAffinity>
-4.48296928

$$$$

 OpenBabel03272506413D

 24 26  0  0  0  0  0  0  0  0999 V2000
   36.9000   26.2370   35.8400 H   0  0  0  0  0  0  0  0  0  0  0  0
   37.6460   25.5390   35.7400 N   0  0  0  0  0  0  0  0  0  0  0  0
   38.2310   25.3990   34.5320 C   0  0  0  0  0  0  0  0  0  0  0  0
   39.1600   24.4520   34.6230 N   0  0  0  0  0  0  0  0  0  0  0  0
   39.1710   23.9860   35.8890 C   0  0  0  0  0  0  0  0  0  0  0  0
   39.8820   23.0380   36.5800 C   0  0  0  0  0  0  0  0  0  0  0  0
   39.6220   22.8270   37.8780 N   0  0  0  0  0  0  0  0  0  0  0  0
   38.6860   23.5050   38.5500 C   0  0  0  0  0  0  0  0  0  0  0  0
   38.5540   23.2600   39.5930 H   0  0  0  0  0  0  0  0  0  0  0  0
   37.9570   24.4560   37.9000 N   0  0  0  0  0  0  0  0  0  0  0  0
   38.2110   24.6760   36.5980 C   0  0  0  0  0  0  0  0  0  0  0  0
   40.8760   22.3280   35.8360 N   0  0  0  0  0  0  0  0  0  0  0  0
   40.4320   21.8120   35.0240 H   0  0  0  0  0  0  0  0  0  0  0  0
   41.9090   22.1870   35.8780 H   0  0  0  0  0  0  0  0  0  0  0  0
   38.0330   26.1710   32.9260 S   0  0  0  0  0  0  0  0  0  0  0  0
   36.2420   29.5650   31.9600 C   0  0  0  0  0  0  0  0  0  0  0  0
   35.6190   29.9830   33.1380 C   0  0  0  0  0  0  0  0  0  0  0  0
   35.7480   29.1910   34.2900 C   0  0  0  0  0  0  0  0  0  0  0  0
   36.4840   28.0470   34.1900 N   0  0  0  0  0  0  0  0  0  0  0  0
   37.0700   27.6720   33.0470 C   0  0  0  0  0  0  0  0  0  0  0  0
   36.9580   28.4220   31.9240 N   0  0  0  0  0  0  0  0  0  0  0  0
   36.1460   30.1720   31.0720 H   0  0  0  0  0  0  0  0  0  0  0  0
   35.0310   30.9130   33.1830 H   0  0  0  0  0  0  0  0  0  0  0  0
   35.2840   29.4690   35.2310 H   0  0  0  0  0  0  0  0  0  0  0  0
  2  1  1  0  0  0  0
  2 11  1  0  0  0  0
  3  4  2  0  0  0  0
  3  2  1  0  0  0  0
  4  5  1  0  0  0  0
  5  6  2  0  0  0  0
  5 11  1  0  0  0  0
  6  7  1  0  0  0  0
  7  8  2  0  0  0  0
  8  9  1  0  0  0  0
 10  8  1  0  0  0  0
 11 10  2  0  0  0  0
 12 14  1  0  0  0  0
 12  6  1  0  0  0  0
 13 12  1  0  0  0  0
 15 20  1  0  0  0  0
 15  3  1  0  0  0  0
 16 17  1  0  0  0  0
 17 23  1  0  0  0  0
 17 18  2  0  0  0  0
 18 24  1  0  0  0  0
 19 18  1  0  0  0  0
 20 19  2  0  0  0  0
 21 16  2  0  0  0  0
 21 20  1  0  0  0  0
 22 16  1  0  0  0  0
M  END
>  <minimizedAffinity>
-4.46098137

$$$$

 OpenBabel03272506413D

 24 26  0  0  0  0  0  0  0  0999 V2000
   35.4760   27.6450   31.7760 H   0  0  0  0  0  0  0  0  0  0  0  0
   35.9890   27.7240   32.6610 N   0  0  0  0  0  0  0  0  0  0  0  0
   35.7710   28.8100   33.4300 C   0  0  0  0  0  0  0  0  0  0  0  0
   36.5290   28.7130   34.5190 N   0  0  0  0  0  0  0  0  0  0  0  0
   37.2330   27.5640   34.4460 C   0  0  0  0  0  0  0  0  0  0  0  0
   38.1550   26.9270   35.2370 C   0  0  0  0  0  0  0  0  0  0  0  0
   38.6700   25.7530   34.8440 N   0  0  0  0  0  0  0  0  0  0  0  0
   38.3270   25.1590   33.6970 C   0  0  0  0  0  0  0  0  0  0  0  0
   38.7990   24.2150   33.4710 H   0  0  0  0  0  0  0  0  0  0  0  0
   37.4140   25.7590   32.8820 N   0  0  0  0  0  0  0  0  0  0  0  0
   36.8910   26.9370   33.2680 C   0  0  0  0  0  0  0  0  0  0  0  0
   38.5030   27.5870   36.4570 N   0  0  0  0  0  0  0  0  0  0  0  0
   38.9160   28.5410   36.2570 H   0  0  0  0  0  0  0  0  0  0  0  0
   38.4590   27.3810   37.4790 H   0  0  0  0  0  0  0  0  0  0  0  0
   34.7380   30.2700   33.3060 S   0  0  0  0  0  0  0  0  0  0  0  0
   34.4150   31.9200   36.8890 C   0  0  0  0  0  0  0  0  0  0  0  0
   33.1710   31.4970   37.3610 C   0  0  0  0  0  0  0  0  0  0  0  0
   32.3850   30.6640   36.5480 C   0  0  0  0  0  0  0  0  0  0  0  0
   32.8890   30.3140   35.3300 N   0  0  0  0  0  0  0  0  0  0  0  0
   34.0850   30.7350   34.9040 C   0  0  0  0  0  0  0  0  0  0  0  0
   34.8590   31.5380   35.6730 N   0  0  0  0  0  0  0  0  0  0  0  0
   35.0230   32.5590   37.5110 H   0  0  0  0  0  0  0  0  0  0  0  0
   32.7940   31.7990   38.3510 H   0  0  0  0  0  0  0  0  0  0  0  0
   31.4110   30.3070   36.8660 H   0  0  0  0  0  0  0  0  0  0  0  0
  1  2  1  0  0  0  0
  2 11  1  0  0  0  0
  2  3  1  0  0  0  0
  3  4  2  0  0  0  0
  5  4  1  0  0  0  0
  5  6  1  0  0  0  0
  6 12  1  0  0  0  0
  7  6  2  0  0  0  0
  8  7  1  0  0  0  0
  9  8  1  0  0  0  0
 10 11  1  0  0  0  0
 10  8  2  0  0  0  0
 11  5  2  0  0  0  0
 12 14  1  0  0  0  0
 13 12  1  0  0  0  0
 15  3  1  0  0  0  0
 15 20  1  0  0  0  0
 16 17  1  0  0  0  0
 16 22  1  0  0  0  0
 17 23  1  0  0  0  0
 18 24  1  0  0  0  0
 18 17  2  0  0  0  0
 19 18  1  0  0  0  0
 20 19  2  0  0  0  0
 20 21  1  0  0  0  0
 21 16  2  0  0  0  0
M  END
>  <minimizedAffinity>
-4.41594601

$$$$

 OpenBabel03272506413D

 24 26  0  0  0  0  0  0  0  0999 V2000
   37.7120   23.8180   33.6990 H   0  0  0  0  0  0  0  0  0  0  0  0
   37.4910   24.4510   32.9220 N   0  0  0  0  0  0  0  0  0  0  0  0
   37.5130   23.9540   31.6690 C   0  0  0  0  0  0  0  0  0  0  0  0
   37.1990   24.9310   30.8230 N   0  0  0  0  0  0  0  0  0  0  0  0
   36.9770   26.0550   31.5360 C   0  0  0  0  0  0  0  0  0  0  0  0
   36.6300   27.3500   31.2440 C   0  0  0  0  0  0  0  0  0  0  0  0
   36.4880   28.2410   32.2360 N   0  0  0  0  0  0  0  0  0  0  0  0
   36.6720   27.9280   33.5220 C   0  0  0  0  0  0  0  0  0  0  0  0
   36.5340   28.7170   34.2460 H   0  0  0  0  0  0  0  0  0  0  0  0
   37.0180   26.6510   33.8560 N   0  0  0  0  0  0  0  0  0  0  0  0
   37.1620   25.7510   32.8670 C   0  0  0  0  0  0  0  0  0  0  0  0
   36.4400   27.6550   29.8590 N   0  0  0  0  0  0  0  0  0  0  0  0
   37.3300   27.4720   29.3150 H   0  0  0  0  0  0  0  0  0  0  0  0
   35.6690   28.0040   29.2510 H   0  0  0  0  0  0  0  0  0  0  0  0
   37.8530   22.3500   30.9420 S   0  0  0  0  0  0  0  0  0  0  0  0
   35.6190   20.4160   33.5740 C   0  0  0  0  0  0  0  0  0  0  0  0
   35.3690   19.1760   32.9820 C   0  0  0  0  0  0  0  0  0  0  0  0
   35.9080   18.9110   31.7120 C   0  0  0  0  0  0  0  0  0  0  0  0
   36.6530   19.8920   31.1260 N   0  0  0  0  0  0  0  0  0  0  0  0
   36.8750   21.0710   31.7190 C   0  0  0  0  0  0  0  0  0  0  0  0
   36.3650   21.3460   32.9430 N   0  0  0  0  0  0  0  0  0  0  0  0
   35.2080   20.6230   34.5510 H   0  0  0  0  0  0  0  0  0  0  0  0
   34.7620   18.4060   33.4840 H   0  0  0  0  0  0  0  0  0  0  0  0
   35.7440   17.9650   31.2070 H   0  0  0  0  0  0  0  0  0  0  0  0
  2  1  1  0  0  0  0
  3  2  1  0  0  0  0
  4  5  1  0  0  0  0
  4  3  2  0  0  0  0
  5 11  1  0  0  0  0
  6  5  2  0  0  0  0
  6  7  1  0  0  0  0
  7  8  2  0  0  0  0
  8 10  1  0  0  0  0
  8  9  1  0  0  0  0
 11  2  1  0  0  0  0
 11 10  2  0  0  0  0
 12  6  1  0  0  0  0
 13 12  1  0  0  0  0
 14 12  1  0  0  0  0
 15  3  1  0  0  0  0
 15 20  1  0  0  0  0
 16 22  1  0  0  0  0
 17 23  1  0  0  0  0
 17 16  1  0  0  0  0
 18 17  2  0  0  0  0
 19 18  1  0  0  0  0
 19 20  2  0  0  0  0
 20 21  1  0  0  0  0
 21 16  2  0  0  0  0
 24 18  1  0  0  0  0
M  END
>  <minimizedAffinity>
-4.38885307

$$$$

 OpenBabel03272506413D

 24 26  0  0  0  0  0  0  0  0999 V2000
   36.7620   28.3170   35.3580 H   0  0  0  0  0  0  0  0  0  0  0  0
   36.7300   27.8240   34.4590 N   0  0  0  0  0  0  0  0  0  0  0  0
   36.1640   28.4520   33.4070 C   0  0  0  0  0  0  0  0  0  0  0  0
   36.2280   27.6450   32.3520 N   0  0  0  0  0  0  0  0  0  0  0  0
   36.8340   26.5000   32.7280 C   0  0  0  0  0  0  0  0  0  0  0  0
   37.1800   25.3240   32.1110 C   0  0  0  0  0  0  0  0  0  0  0  0
   37.7960   24.3620   32.8120 N   0  0  0  0  0  0  0  0  0  0  0  0
   38.0970   24.4890   34.1080 C   0  0  0  0  0  0  0  0  0  0  0  0
   38.5940   23.6560   34.5820 H   0  0  0  0  0  0  0  0  0  0  0  0
   37.7710   25.6420   34.7590 N   0  0  0  0  0  0  0  0  0  0  0  0
   37.1530   26.6130   34.0640 C   0  0  0  0  0  0  0  0  0  0  0  0
   36.8450   25.2170   30.7250 N   0  0  0  0  0  0  0  0  0  0  0  0
   35.7990   25.3090   30.5890 H   0  0  0  0  0  0  0  0  0  0  0  0
   37.3500   25.0750   29.8240 H   0  0  0  0  0  0  0  0  0  0  0  0
   35.3910   30.0480   33.1450 S   0  0  0  0  0  0  0  0  0  0  0  0
   35.1990   31.9040   36.6340 C   0  0  0  0  0  0  0  0  0  0  0  0
   33.8690   31.7670   37.0350 C   0  0  0  0  0  0  0  0  0  0  0  0
   32.9790   31.0720   36.2000 C   0  0  0  0  0  0  0  0  0  0  0  0
   33.4730   30.5670   35.0330 N   0  0  0  0  0  0  0  0  0  0  0  0
   34.7530   30.7150   34.6760 C   0  0  0  0  0  0  0  0  0  0  0  0
   35.6280   31.3810   35.4680 N   0  0  0  0  0  0  0  0  0  0  0  0
   35.8870   32.4370   37.2740 H   0  0  0  0  0  0  0  0  0  0  0  0
   33.5030   32.1880   37.9850 H   0  0  0  0  0  0  0  0  0  0  0  0
   31.9350   30.9360   36.4630 H   0  0  0  0  0  0  0  0  0  0  0  0
  2  1  1  0  0  0  0
  3  2  1  0  0  0  0
  4  5  1  0  0  0  0
  4  3  2  0  0  0  0
  5 11  1  0  0  0  0
  6  5  2  0  0  0  0
  6  7  1  0  0  0  0
  7  8  2  0  0  0  0
  8  9  1  0  0  0  0
  8 10  1  0  0  0  0
 11  2  1  0  0  0  0
 11 10  2  0  0  0  0
 12  6  1  0  0  0  0
 13 12  1  0  0  0  0
 14 12  1  0  0  0  0
 15  3  1  0  0  0  0
 15 20  1  0  0  0  0
 16 17  1  0  0  0  0
 16 22  1  0  0  0  0
 17 23  1  0  0  0  0
 18 24  1  0  0  0  0
 18 17  2  0  0  0  0
 19 18  1  0  0  0  0
 20 19  2  0  0  0  0
 20 21  1  0  0  0  0
 21 16  2  0  0  0  0
M  END
>  <minimizedAffinity>
-4.2976861

$$$$

 OpenBabel03272506413D

 24 26  0  0  0  0  0  0  0  0999 V2000
   40.2400   26.6320   33.8980 H   0  0  0  0  0  0  0  0  0  0  0  0
   39.4890   26.8260   33.2260 N   0  0  0  0  0  0  0  0  0  0  0  0
   38.2120   26.7260   33.6490 C   0  0  0  0  0  0  0  0  0  0  0  0
   37.4080   27.0150   32.6290 N   0  0  0  0  0  0  0  0  0  0  0  0
   38.1710   27.2990   31.5530 C   0  0  0  0  0  0  0  0  0  0  0  0
   37.9350   27.6580   30.2500 C   0  0  0  0  0  0  0  0  0  0  0  0
   38.9670   27.8720   29.4220 N   0  0  0  0  0  0  0  0  0  0  0  0
   40.2420   27.7500   29.8060 C   0  0  0  0  0  0  0  0  0  0  0  0
   41.0000   27.9430   29.0620 H   0  0  0  0  0  0  0  0  0  0  0  0
   40.5200   27.3950   31.0930 N   0  0  0  0  0  0  0  0  0  0  0  0
   39.4910   27.1790   31.9310 C   0  0  0  0  0  0  0  0  0  0  0  0
   36.5620   27.7800   29.8680 N   0  0  0  0  0  0  0  0  0  0  0  0
   36.0570   26.8590   30.0030 H   0  0  0  0  0  0  0  0  0  0  0  0
   35.9330   28.5250   29.4990 H   0  0  0  0  0  0  0  0  0  0  0  0
   37.4150   26.3130   35.2010 S   0  0  0  0  0  0  0  0  0  0  0  0
   40.0620   23.4830   36.0030 C   0  0  0  0  0  0  0  0  0  0  0  0
   39.6520   22.9530   37.2290 C   0  0  0  0  0  0  0  0  0  0  0  0
   38.5090   23.4850   37.8480 C   0  0  0  0  0  0  0  0  0  0  0  0
   37.8590   24.4980   37.2070 N   0  0  0  0  0  0  0  0  0  0  0  0
   38.2750   24.9850   36.0330 C   0  0  0  0  0  0  0  0  0  0  0  0
   39.3750   24.4860   35.4190 N   0  0  0  0  0  0  0  0  0  0  0  0
   40.9400   23.0760   35.5240 H   0  0  0  0  0  0  0  0  0  0  0  0
   40.2020   22.1350   37.7190 H   0  0  0  0  0  0  0  0  0  0  0  0
   38.1480   23.1110   38.8000 H   0  0  0  0  0  0  0  0  0  0  0  0
  2  3  1  0  0  0  0
  2  1  1  0  0  0  0
  3 15  1  0  0  0  0
  4  3  2  0  0  0  0
  5 11  1  0  0  0  0
  5  4  1  0  0  0  0
  6  5  2  0  0  0  0
  7  8  2  0  0  0  0
  7  6  1  0  0  0  0
  8 10  1  0  0  0  0
  9  8  1  0  0  0  0
 10 11  2  0  0  0  0
 11  2  1  0  0  0  0
 12 13  1  0  0  0  0
 12  6  1  0  0  0  0
 14 12  1  0  0  0  0
 15 20  1  0  0  0  0
 16 17  1  0  0  0  0
 17 23  1  0  0  0  0
 17 18  2  0  0  0  0
 18 24  1  0  0  0  0
 19 18  1  0  0  0  0
 20 19  2  0  0  0  0
 21 16  2  0  0  0  0
 21 20  1  0  0  0  0
 22 16  1  0  0  0  0
M  END
>  <minimizedAffinity>
-4.23628759

$$$$
