
 OpenBabel03262520493D

 53 58  0  0  1  0  0  0  0  0999 V2000
   39.5090   28.7710   43.1670 C   0  0  0  0  0  0  0  0  0  0  0  0
   40.3690   29.7990   42.8240 C   0  0  0  0  0  0  0  0  0  0  0  0
   41.1240   29.7190   41.6480 C   0  0  0  0  0  0  0  0  0  0  0  0
   41.0170   28.6160   40.8240 C   0  0  0  0  0  0  0  0  0  0  0  0
   41.6280   28.3160   39.6620 N   0  0  0  0  0  0  0  0  0  0  0  0
   41.1570   27.1200   39.2840 C   0  0  0  0  0  0  0  0  0  0  0  0
   40.2440   26.6160   40.1720 C   0  0  0  0  0  0  0  0  0  0  0  0
   40.1620   27.5870   41.1580 C   0  0  0  0  0  0  0  0  0  0  0  0
   39.4230   27.6770   42.3190 C   0  0  0  0  0  0  0  0  0  0  0  0
   38.8790   28.7280   44.0440 H   0  0  0  0  0  0  0  0  0  0  0  0
   41.7870   30.5490   41.4190 H   0  0  0  0  0  0  0  0  0  0  0  0
   42.3270   28.9310   39.1850 H   0  0  0  0  0  0  0  0  0  0  0  0
   41.4950   26.6510   38.3700 H   0  0  0  0  0  0  0  0  0  0  0  0
   39.7080   25.6800   40.1210 H   0  0  0  0  0  0  0  0  0  0  0  0
   38.5540   26.5870   42.6200 N   0  0  0  0  0  0  0  0  0  0  0  0
   39.0190   25.5980   43.4280 C   0  0  0  0  0  0  0  0  0  0  0  0
   39.9850   25.4700   43.9200 H   0  0  0  0  0  0  0  0  0  0  0  0
   38.0180   24.6880   43.5600 N   0  0  0  0  0  0  0  0  0  0  0  0
   36.9550   25.1120   42.8450 C   0  0  0  0  0  0  0  0  0  0  0  0
   35.6710   24.6700   42.5690 C   0  0  0  0  0  0  0  0  0  0  0  0
   34.8630   25.3840   41.7820 N   0  0  0  0  0  0  0  0  0  0  0  0
   35.2300   26.5480   41.2230 C   0  0  0  0  0  0  0  0  0  0  0  0
   34.4950   27.0340   40.6090 H   0  0  0  0  0  0  0  0  0  0  0  0
   36.4770   27.0210   41.4650 N   0  0  0  0  0  0  0  0  0  0  0  0
   37.2970   26.3190   42.2480 C   0  0  0  0  0  0  0  0  0  0  0  0
   35.2670   23.4360   43.1560 N   0  0  0  0  0  0  0  0  0  0  0  0
   34.6980   22.7640   42.5690 H   0  0  0  0  0  0  0  0  0  0  0  0
   35.4550   23.0810   44.1120 H   0  0  0  0  0  0  0  0  0  0  0  0
   40.4660   30.9850   43.7330 C   0  0  0  0  0  0  0  0  0  0  0  0
   39.9870   31.8270   43.1690 H   0  0  0  0  0  0  0  0  0  0  0  0
   41.5250   31.2250   43.9660 H   0  0  0  0  0  0  0  0  0  0  0  0
   39.6620   30.6730   44.9750 C   0  0  0  0  0  0  0  0  0  0  0  0
   39.9200   29.6230   45.2720 H   0  0  0  0  0  0  0  0  0  0  0  0
   38.5890   30.7760   44.6750 H   0  0  0  0  0  0  0  0  0  0  0  0
   38.8550   32.2950   46.7320 C   0  0  1  0  0  0  0  0  0  0  0  0
   40.0060   33.0120   46.0640 C   0  0  0  0  0  0  0  0  0  0  0  0
   39.9740   31.5380   46.1400 C   0  0  2  0  0  0  0  0  0  0  0  0
   37.8620   32.2870   46.2190 H   0  0  0  0  0  0  0  0  0  0  0  0
   39.8480   33.4320   45.0430 H   0  0  0  0  0  0  0  0  0  0  0  0
   40.7290   33.5880   46.6450 H   0  0  0  0  0  0  0  0  0  0  0  0
   40.6880   31.1220   46.9120 H   0  0  0  0  0  0  0  0  0  0  0  0
   38.7440   32.5140   48.2060 C   0  0  0  0  0  0  0  0  0  0  0  0
   38.2310   33.4980   48.3610 H   0  0  0  0  0  0  0  0  0  0  0  0
   39.7440   32.5940   48.6760 H   0  0  0  0  0  0  0  0  0  0  0  0
   37.5490   30.1440   50.8550 C   0  0  0  0  0  0  0  0  0  0  0  0
   38.2410   31.1960   50.1920 C   0  0  0  0  0  0  0  0  0  0  0  0
   38.0030   31.4080   48.8630 C   0  0  0  0  0  0  0  0  0  0  0  0
   37.1250   30.6100   48.2480 N   0  0  0  0  0  0  0  0  0  0  0  0
   36.4730   29.6210   48.8660 C   0  0  0  0  0  0  0  0  0  0  0  0
   36.6970   29.4030   50.1680 N   0  0  0  0  0  0  0  0  0  0  0  0
   37.7820   30.0240   51.9210 H   0  0  0  0  0  0  0  0  0  0  0  0
   38.9440   31.8180   50.7320 H   0  0  0  0  0  0  0  0  0  0  0  0
   35.7630   28.9760   48.3670 H   0  0  0  0  0  0  0  0  0  0  0  0
  1 10  1  0  0  0  0
  2  1  1  0  0  0  0
  2 29  1  0  0  0  0
  3  2  2  0  0  0  0
  4  8  2  0  0  0  0
  4  3  1  0  0  0  0
  5  4  1  0  0  0  0
  6  5  1  0  0  0  0
  6  7  2  0  0  0  0
  7  8  1  0  0  0  0
  8  9  1  0  0  0  0
  9 15  1  0  0  0  0
  9  1  2  0  0  0  0
 11  3  1  0  0  0  0
 12  5  1  0  0  0  0
 13  6  1  0  0  0  0
 14  7  1  0  0  0  0
 15 16  1  0  0  0  0
 16 18  2  0  0  0  0
 16 17  1  0  0  0  0
 19 18  1  0  0  0  0
 20 19  1  0  0  0  0
 20 26  1  0  0  0  0
 21 20  2  0  0  0  0
 22 24  2  0  0  0  0
 22 21  1  0  0  0  0
 23 22  1  0  0  0  0
 24 25  1  0  0  0  0
 25 15  1  0  0  0  0
 25 19  2  0  0  0  0
 26 28  1  0  0  0  0
 27 26  1  0  0  0  0
 29 31  1  0  0  0  0
 29 32  1  0  0  0  0
 30 29  1  0  0  0  0
 32 33  1  0  0  0  0
 32 37  1  0  0  0  0
 34 32  1  0  0  0  0
 35 38  1  6  0  0  0
 35 42  1  0  0  0  0
 36 37  1  0  0  0  0
 36 40  1  0  0  0  0
 36 35  1  0  0  0  0
 37 35  1  0  0  0  0
 37 41  1  1  0  0  0
 39 36  1  0  0  0  0
 42 43  1  0  0  0  0
 42 44  1  0  0  0  0
 42 47  1  0  0  0  0
 45 51  1  0  0  0  0
 46 52  1  0  0  0  0
 46 45  1  0  0  0  0
 47 46  2  0  0  0  0
 48 47  1  0  0  0  0
 48 49  2  0  0  0  0
 49 50  1  0  0  0  0
 50 45  2  0  0  0  0
 53 49  1  0  0  0  0
M  END
>  <minimizedAffinity>
-6.05207443

>  <minimizedRMSD>
0.934494674

$$$$
