
 OpenBabel03272504573D

 38 41  0  0  1  0  0  0  0  0999 V2000
   35.1170   28.0990   49.6600 O   0  0  0  0  0  0  0  0  0  0  0  0
   37.1080   29.4670   49.7980 C   0  0  1  0  0  0  0  0  0  0  0  0
   36.3900   29.6710   51.0340 C   0  0  0  0  0  0  0  0  0  0  0  0
   35.6440   29.3920   49.7690 C   0  0  2  0  0  0  0  0  0  0  0  0
   37.6260   28.4790   49.5420 H   0  0  0  0  0  0  0  0  0  0  0  0
   36.3420   30.7140   51.4100 H   0  0  0  0  0  0  0  0  0  0  0  0
   36.8090   29.0070   51.7670 H   0  0  0  0  0  0  0  0  0  0  0  0
   34.9100   30.1630   49.6000 H   0  0  0  0  0  0  0  0  0  0  0  0
   37.7410   30.6200   49.0730 C   0  0  0  0  0  0  0  0  0  0  0  0
   37.9430   31.7900   49.8310 C   0  0  0  0  0  0  0  0  0  0  0  0
   38.5340   32.8290   49.1510 C   0  0  0  0  0  0  0  0  0  0  0  0
   38.8790   32.6760   47.8350 N   0  0  0  0  0  0  0  0  0  0  0  0
   38.6670   31.5400   47.1500 C   0  0  0  0  0  0  0  0  0  0  0  0
   38.0800   30.4800   47.7920 N   0  0  0  0  0  0  0  0  0  0  0  0
   39.0370   31.3600   45.8130 N   0  0  0  0  0  0  0  0  0  0  0  0
   37.6750   31.9130   50.8610 H   0  0  0  0  0  0  0  0  0  0  0  0
   38.7410   33.7820   49.6290 H   0  0  0  0  0  0  0  0  0  0  0  0
   38.5270   30.7300   45.1570 H   0  0  0  0  0  0  0  0  0  0  0  0
   39.8780   31.8810   45.4220 H   0  0  0  0  0  0  0  0  0  0  0  0
   33.8060   26.6740   47.9560 O   0  0  0  0  0  0  0  0  0  0  0  0
   33.9000   28.0510   48.5280 P   0  0  1  0  0  0  0  0  0  0  0  0
   32.3790   28.3300   49.3030 O   0  0  0  0  0  0  0  0  0  0  0  0
   32.3420   27.6360   50.0070 H   0  0  0  0  0  0  0  0  0  0  0  0
   34.1760   29.2440   47.3740 O   0  0  0  0  0  0  0  0  0  0  0  0
   33.9620   31.7710   46.1030 H   0  0  0  0  0  0  0  0  0  0  0  0
   33.1520   31.1300   46.0700 N   0  0  0  0  0  0  0  0  0  0  0  0
   33.2180   29.9170   46.6660 C   0  0  0  0  0  0  0  0  0  0  0  0
   32.0270   29.3160   46.4590 N   0  0  0  0  0  0  0  0  0  0  0  0
   31.2650   30.1730   45.7450 C   0  0  0  0  0  0  0  0  0  0  0  0
   29.9590   30.0190   45.2810 C   0  0  0  0  0  0  0  0  0  0  0  0
   29.4050   31.0360   44.5780 N   0  0  0  0  0  0  0  0  0  0  0  0
   30.1560   32.1540   44.3620 C   0  0  0  0  0  0  0  0  0  0  0  0
   29.6090   32.8960   43.7910 H   0  0  0  0  0  0  0  0  0  0  0  0
   31.4180   32.3280   44.7990 N   0  0  0  0  0  0  0  0  0  0  0  0
   31.9670   31.3350   45.4890 C   0  0  0  0  0  0  0  0  0  0  0  0
   29.2730   28.7940   45.5730 N   0  0  0  0  0  0  0  0  0  0  0  0
   29.2250   27.9100   44.9870 H   0  0  0  0  0  0  0  0  0  0  0  0
   28.7980   28.9100   46.5070 H   0  0  0  0  0  0  0  0  0  0  0  0
  1  4  1  0  0  0  0
  2  5  1  6  0  0  0
  2  3  1  0  0  0  0
  3  6  1  0  0  0  0
  3  7  1  0  0  0  0
  4  8  1  6  0  0  0
  4  2  1  0  0  0  0
  4  3  1  0  0  0  0
  9  2  1  0  0  0  0
  9 10  1  0  0  0  0
 10 16  1  0  0  0  0
 11 17  1  0  0  0  0
 11 10  2  0  0  0  0
 12 11  1  0  0  0  0
 13 14  1  0  0  0  0
 13 12  2  0  0  0  0
 14  9  2  0  0  0  0
 15 13  1  0  0  0  0
 18 15  1  0  0  0  0
 19 15  1  0  0  0  0
 21 20  2  6  0  0  0
 21 22  1  0  0  0  0
 21  1  1  0  0  0  0
 22 23  1  0  0  0  0
 24 21  1  0  0  0  0
 26 25  1  0  0  0  0
 26 27  1  0  0  0  0
 27 24  1  0  0  0  0
 28 27  2  0  0  0  0
 29 28  1  0  0  0  0
 30 36  1  0  0  0  0
 30 29  2  0  0  0  0
 31 30  1  0  0  0  0
 32 31  2  0  0  0  0
 32 34  1  0  0  0  0
 33 32  1  0  0  0  0
 34 35  2  0  0  0  0
 35 29  1  0  0  0  0
 35 26  1  0  0  0  0
 36 38  1  0  0  0  0
 37 36  1  0  0  0  0
M  END
>  <minimizedAffinity>
-6.14610386

>  <minimizedRMSD>
4.58127832

$$$$
