
 OpenBabel03272509433D

 43 46  0  0  1  0  0  0  0  0999 V2000
   37.0290   30.9230   49.0870 C   0  0  0  0  0  0  0  0  0  0  0  0
   36.7050   31.8310   50.0980 C   0  0  0  0  0  0  0  0  0  0  0  0
   37.2770   33.0930   50.1580 C   0  0  0  0  0  0  0  0  0  0  0  0
   38.2040   33.4730   49.1830 C   0  0  0  0  0  0  0  0  0  0  0  0
   38.5110   32.5750   48.2040 C   0  0  0  0  0  0  0  0  0  0  0  0
   37.9200   31.3210   48.1740 C   0  0  0  0  0  0  0  0  0  0  0  0
   35.9760   31.5060   50.8440 H   0  0  0  0  0  0  0  0  0  0  0  0
   36.9440   33.6990   50.9830 H   0  0  0  0  0  0  0  0  0  0  0  0
   38.6010   34.4690   49.3030 H   0  0  0  0  0  0  0  0  0  0  0  0
   39.2470   33.0120   47.5220 H   0  0  0  0  0  0  0  0  0  0  0  0
   36.4590   29.5940   49.0420 C   0  0  2  0  0  0  0  0  0  0  0  0
   36.9620   29.0760   48.1370 H   0  0  0  0  0  0  0  0  0  0  0  0
   33.6060   29.9200   46.8150 C   0  0  0  0  0  0  0  0  0  0  0  0
   32.8590   28.7830   47.0580 C   0  0  0  0  0  0  0  0  0  0  0  0
   33.2960   27.9160   48.0410 C   0  0  0  0  0  0  0  0  0  0  0  0
   34.4490   28.2090   48.7380 N   0  0  0  0  0  0  0  0  0  0  0  0
   35.1180   29.3090   48.4570 C   0  0  0  0  0  0  0  0  0  0  0  0
   34.7040   30.1700   47.4990 N   0  0  0  0  0  0  0  0  0  0  0  0
   33.2670   30.6030   46.0450 H   0  0  0  0  0  0  0  0  0  0  0  0
   31.9500   28.5150   46.5340 H   0  0  0  0  0  0  0  0  0  0  0  0
   32.7760   27.0070   48.2980 H   0  0  0  0  0  0  0  0  0  0  0  0
   36.9390   28.8210   49.9500 O   0  0  0  0  0  0  0  0  0  0  0  0
   36.7740   29.0060   50.9160 H   0  0  0  0  0  0  0  0  0  0  0  0
   38.3600   30.4620   47.0990 C   0  0  0  0  0  3  0  0  0  0  0  0
   38.4320   30.8450   45.8190 C   0  0  0  0  0  3  0  0  0  0  0  0
   38.9060   30.0680   44.6500 C   0  0  0  0  0  0  0  0  0  0  0  0
   38.1760   30.2330   43.8300 H   0  0  0  0  0  0  0  0  0  0  0  0
   38.9100   28.9770   44.8530 H   0  0  0  0  0  0  0  0  0  0  0  0
   40.5160   30.6710   44.1320 S   0  0  0  0  0  0  0  0  0  0  0  0
   42.1560   28.3460   42.8340 H   0  0  0  0  0  0  0  0  0  0  0  0
   41.7290   29.0210   42.1610 N   0  0  0  0  0  0  0  0  0  0  0  0
   40.9910   30.0800   42.5380 C   0  0  0  0  0  0  0  0  0  0  0  0
   40.5750   30.7670   41.4580 N   0  0  0  0  0  0  0  0  0  0  0  0
   41.0440   30.1530   40.3400 C   0  0  0  0  0  0  0  0  0  0  0  0
   40.9340   30.4080   38.9870 C   0  0  0  0  0  0  0  0  0  0  0  0
   41.5470   29.5650   38.1060 N   0  0  0  0  0  0  0  0  0  0  0  0
   42.2480   28.5010   38.5820 C   0  0  0  0  0  0  0  0  0  0  0  0
   42.7190   27.8580   37.8410 H   0  0  0  0  0  0  0  0  0  0  0  0
   42.3490   28.2610   39.9210 N   0  0  0  0  0  0  0  0  0  0  0  0
   41.7550   29.0740   40.8170 C   0  0  0  0  0  0  0  0  0  0  0  0
   40.1780   31.5490   38.5890 N   0  0  0  0  0  0  0  0  0  0  0  0
   39.2710   31.8300   39.0080 H   0  0  0  0  0  0  0  0  0  0  0  0
   40.6450   32.0800   37.8180 H   0  0  0  0  0  0  0  0  0  0  0  0
  1  2  1  0  0  0  0
  2  3  2  0  0  0  0
  2  7  1  0  0  0  0
  3  8  1  0  0  0  0
  4  9  1  0  0  0  0
  4  3  1  0  0  0  0
  5  4  2  0  0  0  0
  6  5  1  0  0  0  0
  6  1  2  0  0  0  0
 10  5  1  0  0  0  0
 11 12  1  6  0  0  0
 11  1  1  0  0  0  0
 11 22  1  0  0  0  0
 13 14  2  0  0  0  0
 13 18  1  0  0  0  0
 14 15  1  0  0  0  0
 15 21  1  0  0  0  0
 15 16  2  0  0  0  0
 17 16  1  0  0  0  0
 17 11  1  0  0  0  0
 18 17  2  0  0  0  0
 19 13  1  0  0  0  0
 20 14  1  0  0  0  0
 22 23  1  0  0  0  0
 24  6  1  0  0  0  0
 25 24  2  0  0  0  0
 26 28  1  0  0  0  0
 26 25  1  0  0  0  0
 27 26  1  0  0  0  0
 29 26  1  0  0  0  0
 31 32  1  0  0  0  0
 31 30  1  0  0  0  0
 32 29  1  0  0  0  0
 33 32  2  0  0  0  0
 34 40  1  0  0  0  0
 34 33  1  0  0  0  0
 35 34  2  0  0  0  0
 36 37  2  0  0  0  0
 36 35  1  0  0  0  0
 37 39  1  0  0  0  0
 38 37  1  0  0  0  0
 39 40  2  0  0  0  0
 40 31  1  0  0  0  0
 41 35  1  0  0  0  0
 41 42  1  0  0  0  0
 43 41  1  0  0  0  0
M  END
>  <minimizedAffinity>
-6.37056875

>  <minimizedRMSD>
1.49249911

$$$$
