
 OpenBabel03272508283D

 43 47  0  0  1  0  0  0  0  0999 V2000
   33.5310   29.0450   47.0570 C   0  0  2  0  0  0  0  0  0  0  0  0
   34.2500   28.1030   48.0080 C   0  0  2  0  0  0  0  0  0  0  0  0
   33.3640   27.8450   49.0160 O   0  0  0  0  0  0  0  0  0  0  0  0
   32.0830   28.0340   48.5860 C   0  0  0  0  0  0  0  0  0  0  0  0
   32.1270   28.4400   47.1290 C   0  0  1  0  0  0  0  0  0  0  0  0
   33.4570   30.0660   47.4540 H   0  0  0  0  0  0  0  0  0  0  0  0
   34.4820   27.1990   47.3990 H   0  0  0  0  0  0  0  0  0  0  0  0
   31.5150   27.0590   48.6160 H   0  0  0  0  0  0  0  0  0  0  0  0
   31.5610   28.7530   49.2270 H   0  0  0  0  0  0  0  0  0  0  0  0
   32.1630   27.5270   46.4960 H   0  0  0  0  0  0  0  0  0  0  0  0
   35.4550   30.2010   48.9270 C   0  0  1  0  0  0  0  0  0  0  0  0
   35.4620   28.8180   48.5120 C   0  0  1  0  0  0  0  0  0  0  0  0
   35.6660   29.0890   49.9680 C   0  0  0  0  0  0  0  0  0  0  0  0
   34.5840   30.8220   49.2090 H   0  0  0  0  0  0  0  0  0  0  0  0
   36.4010   28.4700   47.9890 H   0  0  0  0  0  0  0  0  0  0  0  0
   34.7970   28.7860   50.5870 H   0  0  0  0  0  0  0  0  0  0  0  0
   36.6590   28.9830   50.4270 H   0  0  0  0  0  0  0  0  0  0  0  0
   36.6910   31.0740   48.7770 C   0  0  0  0  0  0  0  0  0  0  0  0
   36.9150   32.0370   49.7600 C   0  0  0  0  0  0  0  0  0  0  0  0
   38.0440   32.8220   49.5540 C   0  0  0  0  0  0  0  0  0  0  0  0
   38.8510   32.6370   48.4610 N   0  0  0  0  0  0  0  0  0  0  0  0
   38.5870   31.6860   47.5350 C   0  0  0  0  0  0  0  0  0  0  0  0
   37.4970   30.8980   47.6970 N   0  0  0  0  0  0  0  0  0  0  0  0
   36.2700   32.1560   50.5960 H   0  0  0  0  0  0  0  0  0  0  0  0
   38.3070   33.5980   50.2570 H   0  0  0  0  0  0  0  0  0  0  0  0
   39.2550   31.5830   46.6940 H   0  0  0  0  0  0  0  0  0  0  0  0
   34.0310   29.0180   45.7690 O   0  0  0  0  0  0  0  0  0  0  0  0
   33.4070   29.4930   45.1960 H   0  0  0  0  0  0  0  0  0  0  0  0
   31.1620   29.3300   46.7430 O   0  0  0  0  0  0  0  0  0  0  0  0
   28.4550   30.2110   46.8040 H   0  0  0  0  0  0  0  0  0  0  0  0
   28.7380   29.3830   46.2470 N   0  0  0  0  0  0  0  0  0  0  0  0
   29.9840   28.8890   46.1530 C   0  0  0  0  0  0  0  0  0  0  0  0
   29.8710   27.8250   45.3320 N   0  0  0  0  0  0  0  0  0  0  0  0
   28.5960   27.6600   44.9260 C   0  0  0  0  0  0  0  0  0  0  0  0
   27.9630   26.7500   44.1060 C   0  0  0  0  0  0  0  0  0  0  0  0
   26.6350   26.8100   43.8580 N   0  0  0  0  0  0  0  0  0  0  0  0
   25.9340   27.8100   44.4510 C   0  0  0  0  0  0  0  0  0  0  0  0
   24.8760   28.0280   44.3800 H   0  0  0  0  0  0  0  0  0  0  0  0
   26.5410   28.7070   45.2560 N   0  0  0  0  0  0  0  0  0  0  0  0
   27.8600   28.6730   45.5210 C   0  0  0  0  0  0  0  0  0  0  0  0
   28.7280   25.7120   43.5000 N   0  0  0  0  0  0  0  0  0  0  0  0
   28.8910   25.5770   42.4610 H   0  0  0  0  0  0  0  0  0  0  0  0
   29.1420   25.0580   44.1770 H   0  0  0  0  0  0  0  0  0  0  0  0
  1  5  1  0  0  0  0
  1  6  1  1  0  0  0
  1  2  1  0  0  0  0
  2  7  1  6  0  0  0
  2 12  1  0  0  0  0
  2  3  1  0  0  0  0
  4  8  1  0  0  0  0
  4  3  1  0  0  0  0
  4  9  1  0  0  0  0
  5 10  1  6  0  0  0
  5  4  1  0  0  0  0
 11 14  1  1  0  0  0
 11 13  1  0  0  0  0
 12 15  1  6  0  0  0
 12 11  1  0  0  0  0
 12 13  1  0  0  0  0
 13 17  1  0  0  0  0
 13 16  1  0  0  0  0
 18 11  1  0  0  0  0
 18 19  1  0  0  0  0
 19 24  1  0  0  0  0
 20 19  2  0  0  0  0
 20 25  1  0  0  0  0
 21 20  1  0  0  0  0
 22 23  1  0  0  0  0
 22 21  2  0  0  0  0
 23 18  2  0  0  0  0
 26 22  1  0  0  0  0
 27  1  1  0  0  0  0
 28 27  1  0  0  0  0
 29  5  1  0  0  0  0
 31 30  1  0  0  0  0
 32 31  1  0  0  0  0
 32 29  1  0  0  0  0
 33 32  2  0  0  0  0
 34 33  1  0  0  0  0
 34 40  1  0  0  0  0
 35 34  2  0  0  0  0
 36 35  1  0  0  0  0
 36 37  2  0  0  0  0
 37 39  1  0  0  0  0
 38 37  1  0  0  0  0
 39 40  2  0  0  0  0
 40 31  1  0  0  0  0
 41 35  1  0  0  0  0
 41 43  1  0  0  0  0
 42 41  1  0  0  0  0
M  END
>  <minimizedAffinity>
-5.41143894

>  <minimizedRMSD>
1.52663815

$$$$
