
 OpenBabel03262520493D

 53 58  0  0  1  0  0  0  0  0999 V2000
   39.4130   28.7600   43.2740 C   0  0  0  0  0  0  0  0  0  0  0  0
   40.2490   29.8150   42.9530 C   0  0  0  0  0  0  0  0  0  0  0  0
   41.0140   29.7720   41.7820 C   0  0  0  0  0  0  0  0  0  0  0  0
   40.9420   28.6790   40.9400 C   0  0  0  0  0  0  0  0  0  0  0  0
   41.5690   28.4120   39.7790 N   0  0  0  0  0  0  0  0  0  0  0  0
   41.1310   27.2100   39.3800 C   0  0  0  0  0  0  0  0  0  0  0  0
   40.2260   26.6700   40.2530 C   0  0  0  0  0  0  0  0  0  0  0  0
   40.1110   27.6240   41.2530 C   0  0  0  0  0  0  0  0  0  0  0  0
   39.3620   27.6780   42.4100 C   0  0  0  0  0  0  0  0  0  0  0  0
   38.7790   28.6880   44.1450 H   0  0  0  0  0  0  0  0  0  0  0  0
   41.6570   30.6220   41.5700 H   0  0  0  0  0  0  0  0  0  0  0  0
   42.2560   29.0520   39.3170 H   0  0  0  0  0  0  0  0  0  0  0  0
   41.4890   26.7640   38.4620 H   0  0  0  0  0  0  0  0  0  0  0  0
   39.7140   25.7210   40.1840 H   0  0  0  0  0  0  0  0  0  0  0  0
   38.5190   26.5610   42.6870 N   0  0  0  0  0  0  0  0  0  0  0  0
   39.0100   25.5630   43.4700 C   0  0  0  0  0  0  0  0  0  0  0  0
   39.9810   25.4460   43.9530 H   0  0  0  0  0  0  0  0  0  0  0  0
   38.0290   24.6290   43.5830 N   0  0  0  0  0  0  0  0  0  0  0  0
   36.9540   25.0450   42.8830 C   0  0  0  0  0  0  0  0  0  0  0  0
   35.6800   24.5810   42.6010 C   0  0  0  0  0  0  0  0  0  0  0  0
   34.8510   25.2970   41.8360 N   0  0  0  0  0  0  0  0  0  0  0  0
   35.1900   26.4800   41.3040 C   0  0  0  0  0  0  0  0  0  0  0  0
   34.4410   26.9660   40.7050 H   0  0  0  0  0  0  0  0  0  0  0  0
   36.4270   26.9760   41.5520 N   0  0  0  0  0  0  0  0  0  0  0  0
   37.2660   26.2740   42.3140 C   0  0  0  0  0  0  0  0  0  0  0  0
   35.3070   23.3240   43.1600 N   0  0  0  0  0  0  0  0  0  0  0  0
   34.7490   22.6540   42.5590 H   0  0  0  0  0  0  0  0  0  0  0  0
   35.5060   22.9500   44.1060 H   0  0  0  0  0  0  0  0  0  0  0  0
   40.3090   30.9890   43.8800 C   0  0  0  0  0  0  0  0  0  0  0  0
   39.8060   31.8250   43.3280 H   0  0  0  0  0  0  0  0  0  0  0  0
   41.3600   31.2570   44.1200 H   0  0  0  0  0  0  0  0  0  0  0  0
   39.5110   30.6340   45.1150 C   0  0  0  0  0  0  0  0  0  0  0  0
   39.7840   29.5800   45.3850 H   0  0  0  0  0  0  0  0  0  0  0  0
   38.4370   30.7310   44.8200 H   0  0  0  0  0  0  0  0  0  0  0  0
   38.6910   32.2170   46.9020 C   0  0  1  0  0  0  0  0  0  0  0  0
   39.8460   32.9480   46.2590 C   0  0  0  0  0  0  0  0  0  0  0  0
   39.8140   31.4730   46.3020 C   0  0  2  0  0  0  0  0  0  0  0  0
   37.7010   32.2190   46.3810 H   0  0  0  0  0  0  0  0  0  0  0  0
   39.6950   33.3910   45.2460 H   0  0  0  0  0  0  0  0  0  0  0  0
   40.5640   33.5120   46.8580 H   0  0  0  0  0  0  0  0  0  0  0  0
   40.5220   31.0410   47.0700 H   0  0  0  0  0  0  0  0  0  0  0  0
   38.5680   32.4020   48.3790 C   0  0  0  0  0  0  0  0  0  0  0  0
   38.0390   33.3750   48.5530 H   0  0  0  0  0  0  0  0  0  0  0  0
   39.5650   32.4880   48.8570 H   0  0  0  0  0  0  0  0  0  0  0  0
   37.4420   29.9190   50.9540 C   0  0  0  0  0  0  0  0  0  0  0  0
   38.1200   30.9970   50.3180 C   0  0  0  0  0  0  0  0  0  0  0  0
   37.8410   31.2720   49.0090 C   0  0  0  0  0  0  0  0  0  0  0  0
   36.9370   30.5070   48.3870 N   0  0  0  0  0  0  0  0  0  0  0  0
   36.2980   29.4950   48.9790 C   0  0  0  0  0  0  0  0  0  0  0  0
   36.5630   29.2150   50.2620 N   0  0  0  0  0  0  0  0  0  0  0  0
   37.7090   29.7490   52.0050 H   0  0  0  0  0  0  0  0  0  0  0  0
   38.8450   31.5890   50.8630 H   0  0  0  0  0  0  0  0  0  0  0  0
   35.5690   28.8780   48.4750 H   0  0  0  0  0  0  0  0  0  0  0  0
  1 10  1  0  0  0  0
  2  1  1  0  0  0  0
  2 29  1  0  0  0  0
  3  2  2  0  0  0  0
  4  8  2  0  0  0  0
  4  3  1  0  0  0  0
  5  4  1  0  0  0  0
  6  5  1  0  0  0  0
  6  7  2  0  0  0  0
  7  8  1  0  0  0  0
  8  9  1  0  0  0  0
  9 15  1  0  0  0  0
  9  1  2  0  0  0  0
 11  3  1  0  0  0  0
 12  5  1  0  0  0  0
 13  6  1  0  0  0  0
 14  7  1  0  0  0  0
 15 16  1  0  0  0  0
 16 18  2  0  0  0  0
 16 17  1  0  0  0  0
 19 18  1  0  0  0  0
 20 19  1  0  0  0  0
 20 26  1  0  0  0  0
 21 20  2  0  0  0  0
 22 24  2  0  0  0  0
 22 21  1  0  0  0  0
 23 22  1  0  0  0  0
 24 25  1  0  0  0  0
 25 15  1  0  0  0  0
 25 19  2  0  0  0  0
 26 28  1  0  0  0  0
 27 26  1  0  0  0  0
 29 31  1  0  0  0  0
 29 32  1  0  0  0  0
 30 29  1  0  0  0  0
 32 33  1  0  0  0  0
 32 37  1  0  0  0  0
 34 32  1  0  0  0  0
 35 38  1  6  0  0  0
 35 42  1  0  0  0  0
 36 37  1  0  0  0  0
 36 40  1  0  0  0  0
 36 35  1  0  0  0  0
 37 35  1  0  0  0  0
 37 41  1  1  0  0  0
 39 36  1  0  0  0  0
 42 43  1  0  0  0  0
 42 44  1  0  0  0  0
 42 47  1  0  0  0  0
 45 51  1  0  0  0  0
 46 52  1  0  0  0  0
 46 45  1  0  0  0  0
 47 46  2  0  0  0  0
 48 49  2  0  0  0  0
 48 47  1  0  0  0  0
 49 50  1  0  0  0  0
 50 45  2  0  0  0  0
 53 49  1  0  0  0  0
M  END
>  <minimizedAffinity>
-6.03630447

>  <minimizedRMSD>
1.12001944

$$$$
