
 OpenBabel03262522583D

 30 33  0  0  0  0  0  0  0  0999 V2000
   36.6490   27.8930   33.6990 C   0  0  0  0  0  0  0  0  0  0  0  0
   37.6150   27.7300   32.7140 C   0  0  0  0  0  0  0  0  0  0  0  0
   38.4550   26.7150   33.0980 C   0  0  0  0  0  0  0  0  0  0  0  0
   37.9910   26.2700   34.3120 N   0  0  0  0  0  0  0  0  0  0  0  0
   36.9210   26.9960   34.6300 N   0  0  0  0  0  0  0  0  0  0  0  0
   37.6700   28.3270   31.7970 H   0  0  0  0  0  0  0  0  0  0  0  0
   39.3060   26.3890   32.4890 H   0  0  0  0  0  0  0  0  0  0  0  0
   39.7570   24.3320   33.4770 H   0  0  0  0  0  0  0  0  0  0  0  0
   39.4720   24.3240   34.4770 N   0  0  0  0  0  0  0  0  0  0  0  0
   38.6110   25.2140   35.0330 C   0  0  0  0  0  0  0  0  0  0  0  0
   38.5070   24.8660   36.3260 N   0  0  0  0  0  0  0  0  0  0  0  0
   39.2740   23.7890   36.5940 C   0  0  0  0  0  0  0  0  0  0  0  0
   39.5700   23.0090   37.6820 C   0  0  0  0  0  0  0  0  0  0  0  0
   40.4210   21.9760   37.5450 N   0  0  0  0  0  0  0  0  0  0  0  0
   41.0000   21.6750   36.3680 C   0  0  0  0  0  0  0  0  0  0  0  0
   41.6660   20.8240   36.3740 H   0  0  0  0  0  0  0  0  0  0  0  0
   40.7370   22.4170   35.2740 N   0  0  0  0  0  0  0  0  0  0  0  0
   39.8870   23.4480   35.4100 C   0  0  0  0  0  0  0  0  0  0  0  0
   33.6310   29.7050   32.6680 C   0  0  0  0  0  0  0  0  0  0  0  0
   33.5580   30.7390   33.6570 C   0  0  0  0  0  0  0  0  0  0  0  0
   34.5410   30.7830   34.6430 C   0  0  0  0  0  0  0  0  0  0  0  0
   35.5170   29.8440   34.6140 N   0  0  0  0  0  0  0  0  0  0  0  0
   35.5710   28.8700   33.6680 C   0  0  0  0  0  0  0  0  0  0  0  0
   34.6350   28.8150   32.7180 N   0  0  0  0  0  0  0  0  0  0  0  0
   32.8450   29.7040   31.9160 H   0  0  0  0  0  0  0  0  0  0  0  0
   32.7790   31.4920   33.6830 H   0  0  0  0  0  0  0  0  0  0  0  0
   34.5950   31.5000   35.4260 H   0  0  0  0  0  0  0  0  0  0  0  0
   38.9420   23.3510   38.9150 N   0  0  0  0  0  0  0  0  0  0  0  0
   39.6650   23.5760   39.6450 H   0  0  0  0  0  0  0  0  0  0  0  0
   37.8970   23.3800   39.0890 H   0  0  0  0  0  0  0  0  0  0  0  0
  1  5  2  0  0  0  0
  2  3  2  0  0  0  0
  2  1  1  0  0  0  0
  3  4  1  0  0  0  0
  4  5  1  0  0  0  0
  4 10  1  0  0  0  0
  6  2  1  0  0  0  0
  7  3  1  0  0  0  0
  8  9  1  0  0  0  0
  9 10  1  0  0  0  0
  9 18  1  0  0  0  0
 10 11  2  0  0  0  0
 11 12  1  0  0  0  0
 12 13  1  0  0  0  0
 13 28  1  0  0  0  0
 14 13  2  0  0  0  0
 15 16  1  0  0  0  0
 15 14  1  0  0  0  0
 17 18  1  0  0  0  0
 17 15  2  0  0  0  0
 18 12  2  0  0  0  0
 19 24  2  0  0  0  0
 19 20  1  0  0  0  0
 20 26  1  0  0  0  0
 20 21  2  0  0  0  0
 21 27  1  0  0  0  0
 22 21  1  0  0  0  0
 23  1  1  0  0  0  0
 23 22  2  0  0  0  0
 24 23  1  0  0  0  0
 25 19  1  0  0  0  0
 28 30  1  0  0  0  0
 28 29  1  0  0  0  0
M  END
>  <minimizedAffinity>
-5.45121288

$$$$

 OpenBabel03262522583D

 30 33  0  0  0  0  0  0  0  0999 V2000
   36.6490   27.9120   33.7380 C   0  0  0  0  0  0  0  0  0  0  0  0
   37.5990   27.7380   32.7390 C   0  0  0  0  0  0  0  0  0  0  0  0
   38.4340   26.7150   33.1140 C   0  0  0  0  0  0  0  0  0  0  0  0
   37.9830   26.2780   34.3360 N   0  0  0  0  0  0  0  0  0  0  0  0
   36.9250   27.0160   34.6680 N   0  0  0  0  0  0  0  0  0  0  0  0
   37.6470   28.3320   31.8200 H   0  0  0  0  0  0  0  0  0  0  0  0
   39.2730   26.3790   32.4940 H   0  0  0  0  0  0  0  0  0  0  0  0
   39.7170   24.3200   33.4810 H   0  0  0  0  0  0  0  0  0  0  0  0
   39.4470   24.3170   34.4850 N   0  0  0  0  0  0  0  0  0  0  0  0
   38.6020   25.2170   35.0500 C   0  0  0  0  0  0  0  0  0  0  0  0
   38.5140   24.8740   36.3460 N   0  0  0  0  0  0  0  0  0  0  0  0
   39.2740   23.7890   36.6050 C   0  0  0  0  0  0  0  0  0  0  0  0
   39.5770   23.0090   37.6910 C   0  0  0  0  0  0  0  0  0  0  0  0
   40.4150   21.9670   37.5450 N   0  0  0  0  0  0  0  0  0  0  0  0
   40.9750   21.6580   36.3610 C   0  0  0  0  0  0  0  0  0  0  0  0
   41.6320   20.8000   36.3600 H   0  0  0  0  0  0  0  0  0  0  0  0
   40.7030   22.4000   35.2680 N   0  0  0  0  0  0  0  0  0  0  0  0
   39.8660   23.4400   35.4140 C   0  0  0  0  0  0  0  0  0  0  0  0
   34.5440   30.7700   34.6640 C   0  0  0  0  0  0  0  0  0  0  0  0
   33.5440   30.7420   33.6370 C   0  0  0  0  0  0  0  0  0  0  0  0
   33.6220   29.7490   32.6640 C   0  0  0  0  0  0  0  0  0  0  0  0
   34.6410   28.8600   32.7390 N   0  0  0  0  0  0  0  0  0  0  0  0
   35.5800   28.9010   33.7200 C   0  0  0  0  0  0  0  0  0  0  0  0
   35.5180   29.8470   34.6580 N   0  0  0  0  0  0  0  0  0  0  0  0
   34.4480   31.5600   35.4040 H   0  0  0  0  0  0  0  0  0  0  0  0
   32.7280   31.4510   33.5730 H   0  0  0  0  0  0  0  0  0  0  0  0
   32.9420   29.6240   31.8560 H   0  0  0  0  0  0  0  0  0  0  0  0
   38.9700   23.3610   38.9320 N   0  0  0  0  0  0  0  0  0  0  0  0
   39.7060   23.5800   39.6510 H   0  0  0  0  0  0  0  0  0  0  0  0
   37.9280   23.4000   39.1220 H   0  0  0  0  0  0  0  0  0  0  0  0
  1  5  2  0  0  0  0
  2  3  2  0  0  0  0
  2  1  1  0  0  0  0
  3  4  1  0  0  0  0
  4  5  1  0  0  0  0
  4 10  1  0  0  0  0
  6  2  1  0  0  0  0
  7  3  1  0  0  0  0
  8  9  1  0  0  0  0
  9 10  1  0  0  0  0
  9 18  1  0  0  0  0
 10 11  2  0  0  0  0
 11 12  1  0  0  0  0
 12 13  1  0  0  0  0
 13 28  1  0  0  0  0
 14 13  2  0  0  0  0
 15 14  1  0  0  0  0
 16 15  1  0  0  0  0
 17 18  1  0  0  0  0
 17 15  2  0  0  0  0
 18 12  2  0  0  0  0
 19 25  1  0  0  0  0
 20 19  2  0  0  0  0
 21 22  2  0  0  0  0
 21 20  1  0  0  0  0
 22 23  1  0  0  0  0
 23  1  1  0  0  0  0
 23 24  2  0  0  0  0
 24 19  1  0  0  0  0
 26 20  1  0  0  0  0
 27 21  1  0  0  0  0
 28 30  1  0  0  0  0
 28 29  1  0  0  0  0
M  END
>  <minimizedAffinity>
-5.4507513

$$$$

 OpenBabel03262522583D

 30 33  0  0  0  0  0  0  0  0999 V2000
   37.9130   25.2570   34.9970 C   0  0  0  0  0  0  0  0  0  0  0  0
   37.9040   24.8430   33.6710 C   0  0  0  0  0  0  0  0  0  0  0  0
   37.3530   25.8460   32.9110 C   0  0  0  0  0  0  0  0  0  0  0  0
   37.0330   26.8580   33.7840 N   0  0  0  0  0  0  0  0  0  0  0  0
   37.3810   26.4660   35.0080 N   0  0  0  0  0  0  0  0  0  0  0  0
   38.2810   23.8760   33.3220 H   0  0  0  0  0  0  0  0  0  0  0  0
   37.2320   25.7650   31.8260 H   0  0  0  0  0  0  0  0  0  0  0  0
   36.8700   27.9990   31.2850 H   0  0  0  0  0  0  0  0  0  0  0  0
   36.4340   28.5130   32.0770 N   0  0  0  0  0  0  0  0  0  0  0  0
   36.4350   28.0750   33.3620 C   0  0  0  0  0  0  0  0  0  0  0  0
   35.7800   29.0120   34.0680 N   0  0  0  0  0  0  0  0  0  0  0  0
   35.3720   30.0170   33.2660 C   0  0  0  0  0  0  0  0  0  0  0  0
   34.6900   31.1990   33.4000 C   0  0  0  0  0  0  0  0  0  0  0  0
   34.4690   31.9630   32.3150 N   0  0  0  0  0  0  0  0  0  0  0  0
   34.8980   31.6090   31.0900 C   0  0  0  0  0  0  0  0  0  0  0  0
   34.6660   32.3000   30.2920 H   0  0  0  0  0  0  0  0  0  0  0  0
   35.5730   30.4560   30.9140 N   0  0  0  0  0  0  0  0  0  0  0  0
   35.7930   29.6920   31.9980 C   0  0  0  0  0  0  0  0  0  0  0  0
   39.9620   22.9520   36.9830 C   0  0  0  0  0  0  0  0  0  0  0  0
   39.3320   23.0320   38.2670 C   0  0  0  0  0  0  0  0  0  0  0  0
   38.2290   23.8700   38.4120 C   0  0  0  0  0  0  0  0  0  0  0  0
   37.8090   24.5670   37.3300 N   0  0  0  0  0  0  0  0  0  0  0  0
   38.4190   24.4780   36.1180 C   0  0  0  0  0  0  0  0  0  0  0  0
   39.4770   23.6800   35.9650 N   0  0  0  0  0  0  0  0  0  0  0  0
   40.8190   22.2870   36.9100 H   0  0  0  0  0  0  0  0  0  0  0  0
   39.6640   22.4770   39.1360 H   0  0  0  0  0  0  0  0  0  0  0  0
   37.6790   24.0130   39.3110 H   0  0  0  0  0  0  0  0  0  0  0  0
   34.2480   31.5470   34.7100 N   0  0  0  0  0  0  0  0  0  0  0  0
   33.2000   31.6440   34.7290 H   0  0  0  0  0  0  0  0  0  0  0  0
   34.8710   31.6920   35.5540 H   0  0  0  0  0  0  0  0  0  0  0  0
  1  5  2  0  0  0  0
  1 23  1  0  0  0  0
  2  1  1  0  0  0  0
  3  2  2  0  0  0  0
  3  4  1  0  0  0  0
  4  5  1  0  0  0  0
  6  2  1  0  0  0  0
  7  3  1  0  0  0  0
  8  9  1  0  0  0  0
  9 10  1  0  0  0  0
 10  4  1  0  0  0  0
 10 11  2  0  0  0  0
 12 13  1  0  0  0  0
 12 11  1  0  0  0  0
 13 28  1  0  0  0  0
 14 13  2  0  0  0  0
 15 14  1  0  0  0  0
 16 15  1  0  0  0  0
 17 15  2  0  0  0  0
 17 18  1  0  0  0  0
 18  9  1  0  0  0  0
 18 12  2  0  0  0  0
 19 20  1  0  0  0  0
 20 21  2  0  0  0  0
 20 26  1  0  0  0  0
 21 27  1  0  0  0  0
 22 21  1  0  0  0  0
 23 22  2  0  0  0  0
 24 23  1  0  0  0  0
 24 19  2  0  0  0  0
 25 19  1  0  0  0  0
 28 29  1  0  0  0  0
 28 30  1  0  0  0  0
M  END
>  <minimizedAffinity>
-5.30535889

$$$$

 OpenBabel03262522583D

 30 33  0  0  0  0  0  0  0  0999 V2000
   37.8980   25.2960   34.9860 C   0  0  0  0  0  0  0  0  0  0  0  0
   37.8940   24.8980   33.6540 C   0  0  0  0  0  0  0  0  0  0  0  0
   37.3330   25.9040   32.9070 C   0  0  0  0  0  0  0  0  0  0  0  0
   37.0030   26.9030   33.7910 N   0  0  0  0  0  0  0  0  0  0  0  0
   37.3550   26.5000   35.0110 N   0  0  0  0  0  0  0  0  0  0  0  0
   38.2790   23.9380   33.2940 H   0  0  0  0  0  0  0  0  0  0  0  0
   37.2130   25.8360   31.8200 H   0  0  0  0  0  0  0  0  0  0  0  0
   36.8300   28.0720   31.3060 H   0  0  0  0  0  0  0  0  0  0  0  0
   36.3890   28.5730   32.1050 N   0  0  0  0  0  0  0  0  0  0  0  0
   36.3930   28.1190   33.3840 C   0  0  0  0  0  0  0  0  0  0  0  0
   35.7290   29.0410   34.1010 N   0  0  0  0  0  0  0  0  0  0  0  0
   35.3120   30.0520   33.3110 C   0  0  0  0  0  0  0  0  0  0  0  0
   34.6180   31.2250   33.4590 C   0  0  0  0  0  0  0  0  0  0  0  0
   34.3910   32.0010   32.3830 N   0  0  0  0  0  0  0  0  0  0  0  0
   34.8240   31.6660   31.1540 C   0  0  0  0  0  0  0  0  0  0  0  0
   34.5850   32.3630   30.3640 H   0  0  0  0  0  0  0  0  0  0  0  0
   35.5100   30.5210   30.9650 N   0  0  0  0  0  0  0  0  0  0  0  0
   35.7370   29.7470   32.0390 C   0  0  0  0  0  0  0  0  0  0  0  0
   38.2650   23.8360   38.3310 C   0  0  0  0  0  0  0  0  0  0  0  0
   39.4180   23.0010   38.1610 C   0  0  0  0  0  0  0  0  0  0  0  0
   40.0300   22.9650   36.9100 C   0  0  0  0  0  0  0  0  0  0  0  0
   39.5040   23.7220   35.9190 N   0  0  0  0  0  0  0  0  0  0  0  0
   38.4110   24.5090   36.0980 C   0  0  0  0  0  0  0  0  0  0  0  0
   37.8130   24.5520   37.2890 N   0  0  0  0  0  0  0  0  0  0  0  0
   37.8160   23.8360   39.3200 H   0  0  0  0  0  0  0  0  0  0  0  0
   39.8420   22.3940   38.9510 H   0  0  0  0  0  0  0  0  0  0  0  0
   40.8880   22.3880   36.6620 H   0  0  0  0  0  0  0  0  0  0  0  0
   34.1730   31.5540   34.7720 N   0  0  0  0  0  0  0  0  0  0  0  0
   33.1240   31.6410   34.7930 H   0  0  0  0  0  0  0  0  0  0  0  0
   34.7940   31.6950   35.6190 H   0  0  0  0  0  0  0  0  0  0  0  0
  1  5  2  0  0  0  0
  1 23  1  0  0  0  0
  2  1  1  0  0  0  0
  3  2  2  0  0  0  0
  3  4  1  0  0  0  0
  4  5  1  0  0  0  0
  6  2  1  0  0  0  0
  7  3  1  0  0  0  0
  8  9  1  0  0  0  0
  9 10  1  0  0  0  0
 10  4  1  0  0  0  0
 10 11  2  0  0  0  0
 12 13  1  0  0  0  0
 12 11  1  0  0  0  0
 13 28  1  0  0  0  0
 14 13  2  0  0  0  0
 15 14  1  0  0  0  0
 16 15  1  0  0  0  0
 17 15  2  0  0  0  0
 17 18  1  0  0  0  0
 18  9  1  0  0  0  0
 18 12  2  0  0  0  0
 19 25  1  0  0  0  0
 20 19  1  0  0  0  0
 20 26  1  0  0  0  0
 21 20  2  0  0  0  0
 22 23  2  0  0  0  0
 22 21  1  0  0  0  0
 23 24  1  0  0  0  0
 24 19  2  0  0  0  0
 27 21  1  0  0  0  0
 28 29  1  0  0  0  0
 28 30  1  0  0  0  0
M  END
>  <minimizedAffinity>
-5.27711344

$$$$

 OpenBabel03262522583D

 30 33  0  0  0  0  0  0  0  0999 V2000
   38.5790   24.5390   34.6260 C   0  0  0  0  0  0  0  0  0  0  0  0
   38.7740   23.7180   33.5220 C   0  0  0  0  0  0  0  0  0  0  0  0
   38.5980   24.4740   32.3890 C   0  0  0  0  0  0  0  0  0  0  0  0
   38.3000   25.7450   32.8160 N   0  0  0  0  0  0  0  0  0  0  0  0
   38.2980   25.7380   34.1480 N   0  0  0  0  0  0  0  0  0  0  0  0
   39.0240   22.6530   33.5790 H   0  0  0  0  0  0  0  0  0  0  0  0
   38.6980   24.0570   31.3800 H   0  0  0  0  0  0  0  0  0  0  0  0
   38.8940   26.0180   30.1430 H   0  0  0  0  0  0  0  0  0  0  0  0
   38.4050   26.8090   30.6100 N   0  0  0  0  0  0  0  0  0  0  0  0
   38.0490   26.8180   31.9200 C   0  0  0  0  0  0  0  0  0  0  0  0
   37.4500   28.0020   32.1280 N   0  0  0  0  0  0  0  0  0  0  0  0
   37.4230   28.7300   30.9920 C   0  0  0  0  0  0  0  0  0  0  0  0
   36.9660   29.9600   30.5950 C   0  0  0  0  0  0  0  0  0  0  0  0
   37.1320   30.3490   29.3180 N   0  0  0  0  0  0  0  0  0  0  0  0
   37.7360   29.5670   28.4040 C   0  0  0  0  0  0  0  0  0  0  0  0
   37.8150   29.9810   27.4090 H   0  0  0  0  0  0  0  0  0  0  0  0
   38.2000   28.3500   28.7530 N   0  0  0  0  0  0  0  0  0  0  0  0
   38.0340   27.9630   30.0280 C   0  0  0  0  0  0  0  0  0  0  0  0
   37.8660   24.1830   38.2070 C   0  0  0  0  0  0  0  0  0  0  0  0
   38.9030   23.2870   38.6240 C   0  0  0  0  0  0  0  0  0  0  0  0
   39.8110   22.8330   37.6700 C   0  0  0  0  0  0  0  0  0  0  0  0
   39.6650   23.2650   36.3940 N   0  0  0  0  0  0  0  0  0  0  0  0
   38.6760   24.1160   36.0160 C   0  0  0  0  0  0  0  0  0  0  0  0
   37.7990   24.5580   36.9190 N   0  0  0  0  0  0  0  0  0  0  0  0
   37.1780   24.5130   38.9810 H   0  0  0  0  0  0  0  0  0  0  0  0
   39.0230   22.9390   39.6430 H   0  0  0  0  0  0  0  0  0  0  0  0
   40.6200   22.1710   37.8560 H   0  0  0  0  0  0  0  0  0  0  0  0
   36.3300   30.7660   31.5850 N   0  0  0  0  0  0  0  0  0  0  0  0
   35.3410   30.9840   31.3000 H   0  0  0  0  0  0  0  0  0  0  0  0
   36.7750   31.1070   32.4840 H   0  0  0  0  0  0  0  0  0  0  0  0
  1 23  1  0  0  0  0
  2  6  1  0  0  0  0
  2  1  1  0  0  0  0
  3  4  1  0  0  0  0
  3  2  2  0  0  0  0
  4  5  1  0  0  0  0
  5  1  2  0  0  0  0
  7  3  1  0  0  0  0
  8  9  1  0  0  0  0
  9 10  1  0  0  0  0
 10 11  2  0  0  0  0
 10  4  1  0  0  0  0
 12 11  1  0  0  0  0
 13 12  1  0  0  0  0
 13 28  1  0  0  0  0
 14 13  2  0  0  0  0
 15 17  2  0  0  0  0
 15 14  1  0  0  0  0
 16 15  1  0  0  0  0
 17 18  1  0  0  0  0
 18  9  1  0  0  0  0
 18 12  2  0  0  0  0
 19 20  1  0  0  0  0
 19 25  1  0  0  0  0
 20 26  1  0  0  0  0
 21 27  1  0  0  0  0
 21 20  2  0  0  0  0
 22 21  1  0  0  0  0
 23 22  2  0  0  0  0
 23 24  1  0  0  0  0
 24 19  2  0  0  0  0
 28 30  1  0  0  0  0
 29 28  1  0  0  0  0
M  END
>  <minimizedAffinity>
-5.20827436

$$$$

 OpenBabel03262522583D

 30 33  0  0  0  0  0  0  0  0999 V2000
   38.5110   24.5150   34.7380 C   0  0  0  0  0  0  0  0  0  0  0  0
   38.2120   24.1050   33.4450 C   0  0  0  0  0  0  0  0  0  0  0  0
   37.5320   25.1200   32.8180 C   0  0  0  0  0  0  0  0  0  0  0  0
   37.4250   26.1360   33.7370 N   0  0  0  0  0  0  0  0  0  0  0  0
   38.0180   25.7350   34.8600 N   0  0  0  0  0  0  0  0  0  0  0  0
   38.4860   23.1310   33.0250 H   0  0  0  0  0  0  0  0  0  0  0  0
   37.1810   25.0450   31.7830 H   0  0  0  0  0  0  0  0  0  0  0  0
   36.7570   27.2860   31.3280 H   0  0  0  0  0  0  0  0  0  0  0  0
   36.5100   27.8070   32.1940 N   0  0  0  0  0  0  0  0  0  0  0  0
   36.7750   27.3660   33.4500 C   0  0  0  0  0  0  0  0  0  0  0  0
   36.3040   28.3140   34.2780 N   0  0  0  0  0  0  0  0  0  0  0  0
   35.7550   29.3290   33.5790 C   0  0  0  0  0  0  0  0  0  0  0  0
   35.1400   30.5230   33.8530 C   0  0  0  0  0  0  0  0  0  0  0  0
   34.7100   31.2950   32.8380 N   0  0  0  0  0  0  0  0  0  0  0  0
   34.8610   30.9360   31.5500 C   0  0  0  0  0  0  0  0  0  0  0  0
   34.4780   31.6330   30.8190 H   0  0  0  0  0  0  0  0  0  0  0  0
   35.4600   29.7690   31.2370 N   0  0  0  0  0  0  0  0  0  0  0  0
   35.8900   28.9990   32.2510 C   0  0  0  0  0  0  0  0  0  0  0  0
   39.4890   23.0100   37.9370 C   0  0  0  0  0  0  0  0  0  0  0  0
   40.6150   22.2110   37.5530 C   0  0  0  0  0  0  0  0  0  0  0  0
   41.0020   22.2120   36.2150 C   0  0  0  0  0  0  0  0  0  0  0  0
   40.2930   22.9710   35.3450 N   0  0  0  0  0  0  0  0  0  0  0  0
   39.2280   23.7240   35.7270 C   0  0  0  0  0  0  0  0  0  0  0  0
   38.8450   23.7310   37.0050 N   0  0  0  0  0  0  0  0  0  0  0  0
   39.2180   22.9810   38.9890 H   0  0  0  0  0  0  0  0  0  0  0  0
   41.1840   21.6020   38.2440 H   0  0  0  0  0  0  0  0  0  0  0  0
   41.8170   21.6640   35.8100 H   0  0  0  0  0  0  0  0  0  0  0  0
   34.9940   30.8770   35.2260 N   0  0  0  0  0  0  0  0  0  0  0  0
   33.9770   30.9950   35.4680 H   0  0  0  0  0  0  0  0  0  0  0  0
   35.7850   31.0080   35.9180 H   0  0  0  0  0  0  0  0  0  0  0  0
  1  5  2  0  0  0  0
  1 23  1  0  0  0  0
  2  1  1  0  0  0  0
  3  2  2  0  0  0  0
  3  4  1  0  0  0  0
  4  5  1  0  0  0  0
  6  2  1  0  0  0  0
  7  3  1  0  0  0  0
  8  9  1  0  0  0  0
  9 18  1  0  0  0  0
  9 10  1  0  0  0  0
 10  4  1  0  0  0  0
 10 11  2  0  0  0  0
 12 13  1  0  0  0  0
 12 11  1  0  0  0  0
 13 28  1  0  0  0  0
 14 13  2  0  0  0  0
 15 14  1  0  0  0  0
 16 15  1  0  0  0  0
 17 15  2  0  0  0  0
 17 18  1  0  0  0  0
 18 12  2  0  0  0  0
 19 25  1  0  0  0  0
 20 19  1  0  0  0  0
 20 26  1  0  0  0  0
 21 20  2  0  0  0  0
 22 23  2  0  0  0  0
 22 21  1  0  0  0  0
 23 24  1  0  0  0  0
 24 19  2  0  0  0  0
 27 21  1  0  0  0  0
 28 29  1  0  0  0  0
 28 30  1  0  0  0  0
M  END
>  <minimizedAffinity>
-5.17938614

$$$$

 OpenBabel03262522583D

 30 33  0  0  0  0  0  0  0  0999 V2000
   37.9410   27.5630   31.6710 C   0  0  0  0  0  0  0  0  0  0  0  0
   36.7940   27.9110   32.3740 C   0  0  0  0  0  0  0  0  0  0  0  0
   36.7900   27.2170   33.5600 C   0  0  0  0  0  0  0  0  0  0  0  0
   37.9330   26.4560   33.5640 N   0  0  0  0  0  0  0  0  0  0  0  0
   38.5840   26.6910   32.4260 N   0  0  0  0  0  0  0  0  0  0  0  0
   36.0400   28.6210   32.0170 H   0  0  0  0  0  0  0  0  0  0  0  0
   35.9870   27.3160   34.2990 H   0  0  0  0  0  0  0  0  0  0  0  0
   37.0250   26.3840   36.1600 H   0  0  0  0  0  0  0  0  0  0  0  0
   37.7400   25.6810   35.8820 N   0  0  0  0  0  0  0  0  0  0  0  0
   38.2790   25.5940   34.6390 C   0  0  0  0  0  0  0  0  0  0  0  0
   39.1490   24.5710   34.6880 N   0  0  0  0  0  0  0  0  0  0  0  0
   39.1680   24.0190   35.9190 C   0  0  0  0  0  0  0  0  0  0  0  0
   39.8220   22.9940   36.5520 C   0  0  0  0  0  0  0  0  0  0  0  0
   39.5590   22.7400   37.8470 N   0  0  0  0  0  0  0  0  0  0  0  0
   38.6690   23.4610   38.5520 C   0  0  0  0  0  0  0  0  0  0  0  0
   38.5370   23.1690   39.5840 H   0  0  0  0  0  0  0  0  0  0  0  0
   38.0040   24.4780   37.9680 N   0  0  0  0  0  0  0  0  0  0  0  0
   38.2670   24.7320   36.6750 C   0  0  0  0  0  0  0  0  0  0  0  0
   37.7510   29.2400   28.4140 C   0  0  0  0  0  0  0  0  0  0  0  0
   39.0760   29.0410   27.9050 C   0  0  0  0  0  0  0  0  0  0  0  0
   39.9890   28.3410   28.6900 C   0  0  0  0  0  0  0  0  0  0  0  0
   39.5760   27.8840   29.8960 N   0  0  0  0  0  0  0  0  0  0  0  0
   38.3150   28.0820   30.3630 C   0  0  0  0  0  0  0  0  0  0  0  0
   37.4310   28.7510   29.6220 N   0  0  0  0  0  0  0  0  0  0  0  0
   37.0690   29.7900   27.7720 H   0  0  0  0  0  0  0  0  0  0  0  0
   39.4110   29.4040   26.9410 H   0  0  0  0  0  0  0  0  0  0  0  0
   40.9960   28.1290   28.4220 H   0  0  0  0  0  0  0  0  0  0  0  0
   40.7580   22.2470   35.7800 N   0  0  0  0  0  0  0  0  0  0  0  0
   40.4780   21.2340   35.7430 H   0  0  0  0  0  0  0  0  0  0  0  0
   41.6200   22.6390   35.3040 H   0  0  0  0  0  0  0  0  0  0  0  0
  1  2  1  0  0  0  0
  1  5  2  0  0  0  0
  2  3  2  0  0  0  0
  3  4  1  0  0  0  0
  3  7  1  0  0  0  0
  4 10  1  0  0  0  0
  5  4  1  0  0  0  0
  6  2  1  0  0  0  0
  9  8  1  0  0  0  0
  9 18  1  0  0  0  0
 10 11  2  0  0  0  0
 10  9  1  0  0  0  0
 11 12  1  0  0  0  0
 12 13  2  0  0  0  0
 12 18  1  0  0  0  0
 13 14  1  0  0  0  0
 14 15  2  0  0  0  0
 15 16  1  0  0  0  0
 17 15  1  0  0  0  0
 18 17  2  0  0  0  0
 19 24  1  0  0  0  0
 20 19  2  0  0  0  0
 20 21  1  0  0  0  0
 21 22  2  0  0  0  0
 22 23  1  0  0  0  0
 23  1  1  0  0  0  0
 24 23  2  0  0  0  0
 25 19  1  0  0  0  0
 26 20  1  0  0  0  0
 27 21  1  0  0  0  0
 28 13  1  0  0  0  0
 29 28  1  0  0  0  0
 30 28  1  0  0  0  0
M  END
>  <minimizedAffinity>
-5.17779827

$$$$

 OpenBabel03262522583D

 30 33  0  0  0  0  0  0  0  0999 V2000
   36.1950   27.5090   32.0320 C   0  0  0  0  0  0  0  0  0  0  0  0
   36.1260   28.3290   30.9130 C   0  0  0  0  0  0  0  0  0  0  0  0
   35.9800   29.6270   31.3380 C   0  0  0  0  0  0  0  0  0  0  0  0
   35.9640   29.5810   32.7110 N   0  0  0  0  0  0  0  0  0  0  0  0
   36.0930   28.3070   33.0790 N   0  0  0  0  0  0  0  0  0  0  0  0
   36.1800   27.9710   29.8780 H   0  0  0  0  0  0  0  0  0  0  0  0
   35.9010   30.4710   30.6450 H   0  0  0  0  0  0  0  0  0  0  0  0
   36.3300   32.2380   32.0950 H   0  0  0  0  0  0  0  0  0  0  0  0
   36.0440   32.0050   33.0680 N   0  0  0  0  0  0  0  0  0  0  0  0
   35.8270   30.7430   33.5180 C   0  0  0  0  0  0  0  0  0  0  0  0
   35.4800   30.8680   34.8090 N   0  0  0  0  0  0  0  0  0  0  0  0
   35.4740   32.1660   35.1780 C   0  0  0  0  0  0  0  0  0  0  0  0
   35.2140   32.8890   36.3140 C   0  0  0  0  0  0  0  0  0  0  0  0
   35.3210   34.2300   36.2850 N   0  0  0  0  0  0  0  0  0  0  0  0
   35.6770   34.8970   35.1720 C   0  0  0  0  0  0  0  0  0  0  0  0
   35.7320   35.9720   35.2650 H   0  0  0  0  0  0  0  0  0  0  0  0
   35.9420   34.2240   34.0340 N   0  0  0  0  0  0  0  0  0  0  0  0
   35.8350   32.8850   34.0630 C   0  0  0  0  0  0  0  0  0  0  0  0
   37.4910   24.1410   32.6920 C   0  0  0  0  0  0  0  0  0  0  0  0
   36.5960   23.3270   31.9240 C   0  0  0  0  0  0  0  0  0  0  0  0
   35.5800   23.9550   31.2070 C   0  0  0  0  0  0  0  0  0  0  0  0
   35.4920   25.3050   31.2730 N   0  0  0  0  0  0  0  0  0  0  0  0
   36.3500   26.0620   32.0060 C   0  0  0  0  0  0  0  0  0  0  0  0
   37.3270   25.4740   32.6990 N   0  0  0  0  0  0  0  0  0  0  0  0
   38.2700   23.6140   33.2370 H   0  0  0  0  0  0  0  0  0  0  0  0
   36.6630   22.2480   31.8680 H   0  0  0  0  0  0  0  0  0  0  0  0
   34.8590   23.4620   30.6020 H   0  0  0  0  0  0  0  0  0  0  0  0
   34.8380   32.1550   37.4770 N   0  0  0  0  0  0  0  0  0  0  0  0
   33.8830   32.4500   37.8040 H   0  0  0  0  0  0  0  0  0  0  0  0
   35.4250   31.4160   37.9580 H   0  0  0  0  0  0  0  0  0  0  0  0
  1  5  2  0  0  0  0
  2  3  2  0  0  0  0
  2  1  1  0  0  0  0
  3  4  1  0  0  0  0
  4  5  1  0  0  0  0
  4 10  1  0  0  0  0
  6  2  1  0  0  0  0
  7  3  1  0  0  0  0
  8  9  1  0  0  0  0
  9 10  1  0  0  0  0
  9 18  1  0  0  0  0
 10 11  2  0  0  0  0
 11 12  1  0  0  0  0
 12 13  1  0  0  0  0
 13 28  1  0  0  0  0
 14 13  2  0  0  0  0
 15 16  1  0  0  0  0
 15 14  1  0  0  0  0
 17 18  1  0  0  0  0
 17 15  2  0  0  0  0
 18 12  2  0  0  0  0
 19 24  1  0  0  0  0
 19 25  1  0  0  0  0
 20 19  2  0  0  0  0
 21 22  2  0  0  0  0
 21 20  1  0  0  0  0
 22 23  1  0  0  0  0
 23  1  1  0  0  0  0
 23 24  2  0  0  0  0
 26 20  1  0  0  0  0
 27 21  1  0  0  0  0
 28 29  1  0  0  0  0
 28 30  1  0  0  0  0
M  END
>  <minimizedAffinity>
-5.1308651

$$$$

 OpenBabel03262522583D

 30 33  0  0  0  0  0  0  0  0999 V2000
   35.4820   29.9960   34.1150 C   0  0  0  0  0  0  0  0  0  0  0  0
   35.6950   30.3410   32.7860 C   0  0  0  0  0  0  0  0  0  0  0  0
   36.1750   29.2360   32.1270 C   0  0  0  0  0  0  0  0  0  0  0  0
   36.2470   28.2320   33.0610 N   0  0  0  0  0  0  0  0  0  0  0  0
   35.8280   28.7260   34.2250 N   0  0  0  0  0  0  0  0  0  0  0  0
   35.5040   31.3340   32.3660 H   0  0  0  0  0  0  0  0  0  0  0  0
   36.4250   29.2470   31.0600 H   0  0  0  0  0  0  0  0  0  0  0  0
   36.5150   26.9620   30.6350 H   0  0  0  0  0  0  0  0  0  0  0  0
   36.7820   26.4290   31.4880 N   0  0  0  0  0  0  0  0  0  0  0  0
   36.7050   26.9230   32.7500 C   0  0  0  0  0  0  0  0  0  0  0  0
   37.1360   25.9390   33.5560 N   0  0  0  0  0  0  0  0  0  0  0  0
   37.4780   24.8490   32.8370 C   0  0  0  0  0  0  0  0  0  0  0  0
   37.9630   23.5910   33.0850 C   0  0  0  0  0  0  0  0  0  0  0  0
   38.1870   22.7520   32.0570 N   0  0  0  0  0  0  0  0  0  0  0  0
   37.9500   23.1040   30.7800 C   0  0  0  0  0  0  0  0  0  0  0  0
   38.1660   22.3510   30.0370 H   0  0  0  0  0  0  0  0  0  0  0  0
   37.4730   24.3320   30.4930 N   0  0  0  0  0  0  0  0  0  0  0  0
   37.2500   25.1690   31.5190 C   0  0  0  0  0  0  0  0  0  0  0  0
   35.2710   32.7550   36.5240 C   0  0  0  0  0  0  0  0  0  0  0  0
   33.9720   32.5490   37.0920 C   0  0  0  0  0  0  0  0  0  0  0  0
   33.2110   31.4760   36.6330 C   0  0  0  0  0  0  0  0  0  0  0  0
   33.7410   30.6810   35.6730 N   0  0  0  0  0  0  0  0  0  0  0  0
   34.9750   30.8910   35.1460 C   0  0  0  0  0  0  0  0  0  0  0  0
   35.7150   31.9150   35.5750 N   0  0  0  0  0  0  0  0  0  0  0  0
   35.8330   33.6020   36.9070 H   0  0  0  0  0  0  0  0  0  0  0  0
   33.5440   33.1820   37.8600 H   0  0  0  0  0  0  0  0  0  0  0  0
   32.2380   31.2200   36.9770 H   0  0  0  0  0  0  0  0  0  0  0  0
   38.2040   23.2460   34.4470 N   0  0  0  0  0  0  0  0  0  0  0  0
   39.2170   23.0030   34.5900 H   0  0  0  0  0  0  0  0  0  0  0  0
   37.4780   23.2300   35.2190 H   0  0  0  0  0  0  0  0  0  0  0  0
  1  5  2  0  0  0  0
  1 23  1  0  0  0  0
  2  1  1  0  0  0  0
  3  2  2  0  0  0  0
  3  4  1  0  0  0  0
  4  5  1  0  0  0  0
  6  2  1  0  0  0  0
  7  3  1  0  0  0  0
  8  9  1  0  0  0  0
  9 18  1  0  0  0  0
  9 10  1  0  0  0  0
 10  4  1  0  0  0  0
 10 11  2  0  0  0  0
 12 13  1  0  0  0  0
 12 11  1  0  0  0  0
 13 28  1  0  0  0  0
 14 13  2  0  0  0  0
 15 14  1  0  0  0  0
 16 15  1  0  0  0  0
 17 15  2  0  0  0  0
 17 18  1  0  0  0  0
 18 12  2  0  0  0  0
 19 25  1  0  0  0  0
 19 20  1  0  0  0  0
 20 26  1  0  0  0  0
 21 27  1  0  0  0  0
 21 20  2  0  0  0  0
 22 21  1  0  0  0  0
 23 24  1  0  0  0  0
 23 22  2  0  0  0  0
 24 19  2  0  0  0  0
 28 29  1  0  0  0  0
 28 30  1  0  0  0  0
M  END
>  <minimizedAffinity>
-5.04744291

$$$$
