
 OpenBabel03262522153D

 50 54  0  0  1  0  0  0  0  0999 V2000
   39.0690   29.8340   42.5670 C   0  0  1  0  0  0  0  0  0  0  0  0
   39.0050   31.3220   42.2580 C   0  0  0  0  0  0  0  0  0  0  0  0
   40.0180   31.8800   43.2110 C   0  0  2  0  0  0  0  0  0  0  0  0
   40.4180   30.8770   44.0410 O   0  0  0  0  0  0  0  0  0  0  0  0
   39.4480   29.8900   44.0370 C   0  0  0  0  0  0  0  0  0  0  0  0
   39.9220   29.3510   42.0340 H   0  0  0  0  0  0  0  0  0  0  0  0
   38.0150   31.6710   42.5670 H   0  0  0  0  0  0  0  0  0  0  0  0
   39.2570   31.5130   41.1960 H   0  0  0  0  0  0  0  0  0  0  0  0
   40.9090   32.2190   42.6240 H   0  0  0  0  0  0  0  0  0  0  0  0
   39.9530   28.9530   44.3730 H   0  0  0  0  0  0  0  0  0  0  0  0
   38.5650   30.1540   44.6480 H   0  0  0  0  0  0  0  0  0  0  0  0
   39.4810   33.0760   43.9520 C   0  0  0  0  0  0  0  0  0  0  0  0
   38.4150   32.9960   44.1960 H   0  0  0  0  0  0  0  0  0  0  0  0
   39.6190   33.9710   43.2970 H   0  0  0  0  0  0  0  0  0  0  0  0
   40.5460   33.3500   45.3910 S   0  0  0  0  0  0  0  0  0  0  0  0
   37.7750   31.8380   47.7920 C   0  0  0  0  0  0  0  0  0  0  0  0
   37.9260   32.5490   48.9820 C   0  0  0  0  0  0  0  0  0  0  0  0
   38.8880   33.5290   49.1040 C   0  0  0  0  0  0  0  0  0  0  0  0
   39.6680   33.7510   48.0000 C   0  0  0  0  0  0  0  0  0  0  0  0
   39.5070   33.0480   46.8440 C   0  0  0  0  0  0  0  0  0  0  0  0
   38.5650   32.0840   46.7170 N   0  0  0  0  0  0  0  0  0  0  0  0
   37.2750   32.3250   49.8210 H   0  0  0  0  0  0  0  0  0  0  0  0
   39.0060   34.0850   50.0370 H   0  0  0  0  0  0  0  0  0  0  0  0
   40.4480   34.5050   48.0140 H   0  0  0  0  0  0  0  0  0  0  0  0
   36.7450   30.8290   47.7440 C   0  0  0  0  0  0  0  0  0  0  0  0
   36.3100   30.4010   46.6750 O   0  0  0  0  0  0  0  0  0  0  0  0
   37.0170   29.6330   49.8890 C   0  0  0  0  0  0  0  0  0  0  0  0
   36.1530   30.2520   48.9690 C   0  0  0  0  0  0  0  0  0  0  0  0
   34.7720   30.3080   49.2290 C   0  0  0  0  0  0  0  0  0  0  0  0
   34.3220   29.7420   50.3960 N   0  0  0  0  0  0  0  0  0  0  0  0
   35.1650   29.1540   51.2630 C   0  0  0  0  0  0  0  0  0  0  0  0
   36.4830   29.1010   51.0120 N   0  0  0  0  0  0  0  0  0  0  0  0
   38.0630   29.5960   49.6800 H   0  0  0  0  0  0  0  0  0  0  0  0
   34.1450   30.7890   48.5050 H   0  0  0  0  0  0  0  0  0  0  0  0
   34.6400   28.7670   52.1140 H   0  0  0  0  0  0  0  0  0  0  0  0
   37.8430   29.2300   42.3690 O   0  0  0  0  0  0  0  0  0  0  0  0
   35.8220   27.5270   43.4280 H   0  0  0  0  0  0  0  0  0  0  0  0
   36.6010   27.0830   42.8970 N   0  0  0  0  0  0  0  0  0  0  0  0
   37.5750   27.8820   42.3830 C   0  0  0  0  0  0  0  0  0  0  0  0
   38.4900   27.1040   41.7310 N   0  0  0  0  0  0  0  0  0  0  0  0
   38.0800   25.8160   41.8400 C   0  0  0  0  0  0  0  0  0  0  0  0
   38.5520   24.5850   41.4110 C   0  0  0  0  0  0  0  0  0  0  0  0
   37.8590   23.4880   41.7170 N   0  0  0  0  0  0  0  0  0  0  0  0
   36.7140   23.4940   42.4250 C   0  0  0  0  0  0  0  0  0  0  0  0
   36.1890   22.5590   42.6450 H   0  0  0  0  0  0  0  0  0  0  0  0
   36.2160   24.6860   42.8670 N   0  0  0  0  0  0  0  0  0  0  0  0
   36.9050   25.8140   42.5670 C   0  0  0  0  0  0  0  0  0  0  0  0
   39.7640   24.6010   40.6630 N   0  0  0  0  0  0  0  0  0  0  0  0
   39.9740   24.5570   39.6240 H   0  0  0  0  0  0  0  0  0  0  0  0
   40.6570   24.6700   41.1950 H   0  0  0  0  0  0  0  0  0  0  0  0
  1  6  1  6  0  0  0
  1  5  1  0  0  0  0
  2  1  1  0  0  0  0
  2  7  1  0  0  0  0
  2  3  1  0  0  0  0
  3  9  1  6  0  0  0
  3 12  1  0  0  0  0
  3  4  1  0  0  0  0
  5  4  1  0  0  0  0
  5 10  1  0  0  0  0
  5 11  1  0  0  0  0
  8  2  1  0  0  0  0
 12 13  1  0  0  0  0
 12 15  1  0  0  0  0
 14 12  1  0  0  0  0
 15 20  1  0  0  0  0
 16 17  1  0  0  0  0
 17 18  2  0  0  0  0
 17 22  1  0  0  0  0
 18 23  1  0  0  0  0
 19 24  1  0  0  0  0
 19 18  1  0  0  0  0
 20 19  2  0  0  0  0
 21 20  1  0  0  0  0
 21 16  2  0  0  0  0
 25 16  1  0  0  0  0
 25 28  1  0  0  0  0
 26 25  2  0  0  0  0
 27 32  1  0  0  0  0
 28 29  1  0  0  0  0
 28 27  2  0  0  0  0
 29 30  2  0  0  0  0
 30 31  1  0  0  0  0
 31 35  1  0  0  0  0
 32 31  2  0  0  0  0
 33 27  1  0  0  0  0
 34 29  1  0  0  0  0
 36 39  1  0  0  0  0
 36  1  1  0  0  0  0
 38 37  1  0  0  0  0
 39 38  1  0  0  0  0
 40 41  1  0  0  0  0
 40 39  2  0  0  0  0
 41 47  1  0  0  0  0
 42 43  1  0  0  0  0
 42 41  2  0  0  0  0
 43 44  2  0  0  0  0
 44 45  1  0  0  0  0
 44 46  1  0  0  0  0
 47 46  2  0  0  0  0
 47 38  1  0  0  0  0
 48 50  1  0  0  0  0
 48 42  1  0  0  0  0
 49 48  1  0  0  0  0
M  END
>  <minimizedAffinity>
-5.60031366

>  <minimizedRMSD>
1.89164078

$$$$
