REMARK  Name = 
REMARK  4 active torsions:
REMARK  status: ('A' for Active; 'I' for Inactive)
REMARK    1  A    between atoms: C_3  and  C_12
REMARK    2  A    between atoms: C_7  and  S_14
REMARK    3  A    between atoms: S_14  and  C_23
REMARK    4  A    between atoms: C_26  and  N_27
REMARK                            x       y       z     vdW  Elec       q    Type
REMARK                         _______ _______ _______ _____ _____    ______ ____
ROOT
ATOM      1 CL   UNL     1      36.374  30.479  46.394  0.00  0.00    +0.000 Cl
ATOM      2  C   UNL     1      36.801  30.540  48.082  0.00  0.00    +0.000 A 
ATOM      3  C   UNL     1      38.032  31.083  48.388  0.00  0.00    +0.000 A 
ATOM      4  C   UNL     1      38.382  31.137  49.727  0.00  0.00    +0.000 A 
ATOM      5  C   UNL     1      37.529  30.664  50.686  0.00  0.00    +0.000 A 
ATOM      6  C   UNL     1      36.313  30.133  50.305  0.00  0.00    +0.000 A 
ATOM      7  C   UNL     1      35.890  30.044  48.999  0.00  0.00    +0.000 A 
ATOM      8  H   UNL     1      39.349  31.564  49.967  0.00  0.00    +0.000 HD
ATOM      9  H   UNL     1      37.821  30.714  51.734  0.00  0.00    +0.000 HD
ATOM     10  H   UNL     1      35.650  29.763  51.086  0.00  0.00    +0.000 HD
ENDROOT
BRANCH   3  15
ATOM     11  C   UNL     1      39.990  33.426  46.401  0.00  0.00    +0.000 A 
ATOM     12  C   UNL     1      40.560  32.614  45.386  0.00  0.00    +0.000 A 
ATOM     13  C   UNL     1      40.257  31.261  45.404  0.00  0.00    +0.000 A 
ATOM     14  N   UNL     1      39.435  30.797  46.390  0.00  0.00    +0.000 NA
ATOM     15  C   UNL     1      38.917  31.579  47.325  0.00  0.00    +0.000 A 
ATOM     16  N   UNL     1      39.197  32.896  47.329  0.00  0.00    +0.000 NA
ATOM     17  H   UNL     1      40.263  34.472  46.334  0.00  0.00    +0.000 HD
ATOM     18  H   UNL     1      41.205  32.956  44.606  0.00  0.00    +0.000 HD
ATOM     19  H   UNL     1      40.652  30.598  44.672  0.00  0.00    +0.000 HD
ENDBRANCH   3  15
BRANCH   7  20
ATOM     20  S   UNL     1      34.339  29.368  48.486  0.00  0.00    +0.000 S 
BRANCH  20  23
ATOM     21  H   UNL     1      33.164  26.618  49.400  0.00  0.00    +0.000 HD
ATOM     22  N   UNL     1      33.861  26.523  48.654  0.00  0.00    +0.000 N 
ATOM     23  C   UNL     1      34.441  27.631  48.172  0.00  0.00    +0.000 A 
ATOM     24  N   UNL     1      35.314  27.234  47.205  0.00  0.00    +0.000 NA
ATOM     25  C   UNL     1      35.239  25.877  47.125  0.00  0.00    +0.000 A 
ATOM     26  C   UNL     1      35.862  24.906  46.353  0.00  0.00    +0.000 A 
ATOM     27  N   UNL     1      35.574  23.599  46.503  0.00  0.00    +0.000 NA
ATOM     28  C   UNL     1      34.672  23.180  47.405  0.00  0.00    +0.000 A 
ATOM     29  H   UNL     1      34.498  22.128  47.464  0.00  0.00    +0.000 HD
ATOM     30  N   UNL     1      34.043  24.113  48.178  0.00  0.00    +0.000 NA
ATOM     31  C   UNL     1      34.324  25.420  48.036  0.00  0.00    +0.000 A 
BRANCH  26  32
ATOM     32  N   UNL     1      36.822  25.387  45.398  0.00  0.00    +0.000 N 
ATOM     33  H   UNL     1      36.793  25.575  44.358  0.00  0.00    +0.000 HD
ATOM     34  H   UNL     1      37.746  25.589  45.855  0.00  0.00    +0.000 HD
ENDBRANCH  26  32
ENDBRANCH  20  23
ENDBRANCH   7  20
TORSDOF 4
