
 OpenBabel03262521523D

 28 30  0  0  0  0  0  0  0  0999 V2000
   34.0290   27.5540   48.3870 S   0  0  0  0  0  0  0  0  0  0  0  0
   31.9450   25.9550   46.6920 H   0  0  0  0  0  0  0  0  0  0  0  0
   31.4710   26.5670   47.3820 N   0  0  0  0  0  0  0  0  0  0  0  0
   32.2820   27.3000   48.1650 C   0  0  0  0  0  0  0  0  0  0  0  0
   31.4970   28.0310   48.9970 N   0  0  0  0  0  0  0  0  0  0  0  0
   30.1950   27.7830   48.7650 C   0  0  0  0  0  0  0  0  0  0  0  0
   28.9820   28.1960   49.2620 C   0  0  0  0  0  0  0  0  0  0  0  0
   27.8440   27.6800   48.7300 N   0  0  0  0  0  0  0  0  0  0  0  0
   27.9040   26.7680   47.7220 C   0  0  0  0  0  0  0  0  0  0  0  0
   26.9390   26.4000   47.3480 H   0  0  0  0  0  0  0  0  0  0  0  0
   29.1000   26.3480   47.2200 N   0  0  0  0  0  0  0  0  0  0  0  0
   30.2300   26.8580   47.7440 C   0  0  0  0  0  0  0  0  0  0  0  0
   28.9820   29.1520   50.3190 N   0  0  0  0  0  0  0  0  0  0  0  0
   28.5790   30.0450   49.9620 H   0  0  0  0  0  0  0  0  0  0  0  0
   29.3150   29.0390   51.3010 H   0  0  0  0  0  0  0  0  0  0  0  0
   34.3680   29.1820   49.1450 C   0  0  0  0  0  0  0  0  0  0  0  0
   34.3210   29.9480   48.3330 H   0  0  0  0  0  0  0  0  0  0  0  0
   33.5290   29.4350   49.8330 H   0  0  0  0  0  0  0  0  0  0  0  0
   35.9470   29.2290   50.0090 S   0  0  0  0  0  0  0  0  0  0  0  0
   36.9540   30.4970   49.2800 C   0  0  0  0  0  0  0  0  0  0  0  0
   36.9440   31.7180   49.9430 C   0  0  0  0  0  0  0  0  0  0  0  0
   37.7210   32.7590   49.4130 C   0  0  0  0  0  0  0  0  0  0  0  0
   38.4500   32.5390   48.2780 N   0  0  0  0  0  0  0  0  0  0  0  0
   38.4110   31.3200   47.6830 C   0  0  0  0  0  0  0  0  0  0  0  0
   37.6870   30.3350   48.1700 N   0  0  0  0  0  0  0  0  0  0  0  0
   36.3770   31.9160   50.8410 H   0  0  0  0  0  0  0  0  0  0  0  0
   37.7460   33.7290   49.8950 H   0  0  0  0  0  0  0  0  0  0  0  0
   38.9960   31.1600   46.7800 H   0  0  0  0  0  0  0  0  0  0  0  0
  1 16  1  0  0  0  0
  2  3  1  0  0  0  0
  3 12  1  0  0  0  0
  3  4  1  0  0  0  0
  4  1  1  0  0  0  0
  4  5  2  0  0  0  0
  6  5  1  0  0  0  0
  6  7  1  0  0  0  0
  7 13  1  0  0  0  0
  8  7  2  0  0  0  0
  9  8  1  0  0  0  0
 10  9  1  0  0  0  0
 11  9  2  0  0  0  0
 11 12  1  0  0  0  0
 12  6  2  0  0  0  0
 13 15  1  0  0  0  0
 14 13  1  0  0  0  0
 16 18  1  0  0  0  0
 16 19  1  0  0  0  0
 17 16  1  0  0  0  0
 20 21  1  0  0  0  0
 20 19  1  0  0  0  0
 21 26  1  0  0  0  0
 22 27  1  0  0  0  0
 22 21  2  0  0  0  0
 23 22  1  0  0  0  0
 24 25  1  0  0  0  0
 24 23  2  0  0  0  0
 25 20  2  0  0  0  0
 28 24  1  0  0  0  0
M  END
>  <minimizedAffinity>
-5.12627602

>  <minimizedRMSD>
2.0705533

$$$$
