
 OpenBabel03262521523D

 28 30  0  0  0  0  0  0  0  0999 V2000
   26.7230   28.7570   44.2380 S   0  0  0  0  0  0  0  0  0  0  0  0
   28.5470   26.5680   45.5280 H   0  0  0  0  0  0  0  0  0  0  0  0
   28.3140   27.3090   46.2150 N   0  0  0  0  0  0  0  0  0  0  0  0
   27.5300   28.3040   45.7590 C   0  0  0  0  0  0  0  0  0  0  0  0
   27.3310   29.1730   46.7820 N   0  0  0  0  0  0  0  0  0  0  0  0
   27.9710   28.7580   47.8890 C   0  0  0  0  0  0  0  0  0  0  0  0
   28.1410   29.1930   49.1840 C   0  0  0  0  0  0  0  0  0  0  0  0
   28.9000   28.4520   50.0320 N   0  0  0  0  0  0  0  0  0  0  0  0
   29.4830   27.2980   49.6080 C   0  0  0  0  0  0  0  0  0  0  0  0
   30.0800   26.7590   50.3540 H   0  0  0  0  0  0  0  0  0  0  0  0
   29.3250   26.8550   48.3280 N   0  0  0  0  0  0  0  0  0  0  0  0
   28.5740   27.5870   47.4850 C   0  0  0  0  0  0  0  0  0  0  0  0
   27.5050   30.4080   49.5690 N   0  0  0  0  0  0  0  0  0  0  0  0
   26.7610   30.1890   50.2660 H   0  0  0  0  0  0  0  0  0  0  0  0
   27.7040   31.3800   49.2450 H   0  0  0  0  0  0  0  0  0  0  0  0
   27.8600   29.6640   43.1330 C   0  0  0  0  0  0  0  0  0  0  0  0
   28.9030   29.4270   43.4560 H   0  0  0  0  0  0  0  0  0  0  0  0
   27.7690   29.2420   42.1060 H   0  0  0  0  0  0  0  0  0  0  0  0
   27.5550   31.4390   43.1310 S   0  0  0  0  0  0  0  0  0  0  0  0
   29.0590   32.2710   42.6850 C   0  0  0  0  0  0  0  0  0  0  0  0
   28.9800   33.6570   42.6390 C   0  0  0  0  0  0  0  0  0  0  0  0
   30.1380   34.3690   42.2920 C   0  0  0  0  0  0  0  0  0  0  0  0
   31.2870   33.6850   42.0150 N   0  0  0  0  0  0  0  0  0  0  0  0
   31.2910   32.3290   42.0790 C   0  0  0  0  0  0  0  0  0  0  0  0
   30.2120   31.6490   42.4040 N   0  0  0  0  0  0  0  0  0  0  0  0
   28.0840   34.2220   42.8540 H   0  0  0  0  0  0  0  0  0  0  0  0
   30.1250   35.4520   42.2430 H   0  0  0  0  0  0  0  0  0  0  0  0
   32.2130   31.7970   41.8560 H   0  0  0  0  0  0  0  0  0  0  0  0
  1  4  1  0  0  0  0
  2  3  1  0  0  0  0
  3 12  1  0  0  0  0
  4  3  1  0  0  0  0
  4  5  2  0  0  0  0
  5  6  1  0  0  0  0
  6  7  1  0  0  0  0
  7 13  1  0  0  0  0
  7  8  2  0  0  0  0
  9  8  1  0  0  0  0
  9 10  1  0  0  0  0
 11  9  2  0  0  0  0
 12  6  2  0  0  0  0
 12 11  1  0  0  0  0
 13 14  1  0  0  0  0
 15 13  1  0  0  0  0
 16 17  1  0  0  0  0
 16  1  1  0  0  0  0
 18 16  1  0  0  0  0
 19 16  1  0  0  0  0
 20 19  1  0  0  0  0
 21 20  1  0  0  0  0
 21 26  1  0  0  0  0
 22 21  2  0  0  0  0
 23 24  2  0  0  0  0
 23 22  1  0  0  0  0
 24 25  1  0  0  0  0
 25 20  2  0  0  0  0
 27 22  1  0  0  0  0
 28 24  1  0  0  0  0
M  END
>  <minimizedAffinity>
-3.27289248

>  <minimizedRMSD>
7.9022193

$$$$
