
 OpenBabel03272509183D

 38 41  0  0  0  0  0  0  0  0999 V2000
   37.9660   31.4120   47.9210 C   0  0  0  0  0  0  0  0  0  0  0  0
   36.9100   31.2970   48.8190 C   0  0  0  0  0  0  0  0  0  0  0  0
   36.8450   32.3250   49.7600 C   0  0  0  0  0  0  0  0  0  0  0  0
   37.7750   33.3630   49.7720 C   0  0  0  0  0  0  0  0  0  0  0  0
   38.8020   33.3890   48.8250 C   0  0  0  0  0  0  0  0  0  0  0  0
   38.8920   32.3880   47.8820 C   0  0  0  0  0  0  0  0  0  0  0  0
   36.0580   32.3230   50.5020 H   0  0  0  0  0  0  0  0  0  0  0  0
   37.6870   34.1460   50.5260 H   0  0  0  0  0  0  0  0  0  0  0  0
   39.5100   34.1980   48.8510 H   0  0  0  0  0  0  0  0  0  0  0  0
   34.8790   30.2740   47.9050 C   0  0  0  0  0  0  0  0  0  0  0  0
   35.9580   30.2330   48.8060 C   0  0  0  0  0  0  0  0  0  0  0  0
   36.0490   29.1350   49.6580 C   0  0  0  0  0  0  0  0  0  0  0  0
   35.0910   28.1690   49.5710 N   0  0  0  0  0  0  0  0  0  0  0  0
   34.0590   28.2430   48.6860 C   0  0  0  0  0  0  0  0  0  0  0  0
   33.9590   29.2940   47.8600 N   0  0  0  0  0  0  0  0  0  0  0  0
   34.7800   31.1180   47.2270 H   0  0  0  0  0  0  0  0  0  0  0  0
   33.3050   27.4730   48.6240 H   0  0  0  0  0  0  0  0  0  0  0  0
   37.1540   29.0330   50.6230 C   0  0  0  0  0  0  0  0  0  0  0  0
   36.6980   28.7550   51.6120 H   0  0  0  0  0  0  0  0  0  0  0  0
   37.8390   28.2210   50.3170 H   0  0  0  0  0  0  0  0  0  0  0  0
   37.6640   30.0090   50.6880 H   0  0  0  0  0  0  0  0  0  0  0  0
   38.0990   30.4040   46.9310 O   0  0  0  0  0  0  0  0  0  0  0  0
   38.8920   29.7850   47.0630 H   0  0  0  0  0  0  0  0  0  0  0  0
   39.9150   32.4420   46.9630 O   0  0  0  0  0  0  0  0  0  0  0  0
   38.4510   34.0090   45.0890 H   0  0  0  0  0  0  0  0  0  0  0  0
   38.9920   33.2050   44.7620 N   0  0  0  0  0  0  0  0  0  0  0  0
   39.6970   32.4360   45.6100 C   0  0  0  0  0  0  0  0  0  0  0  0
   40.2750   31.4830   44.8370 N   0  0  0  0  0  0  0  0  0  0  0  0
   39.9270   31.6680   43.5530 C   0  0  0  0  0  0  0  0  0  0  0  0
   40.1650   31.0720   42.3160 C   0  0  0  0  0  0  0  0  0  0  0  0
   39.6190   31.5590   41.1870 N   0  0  0  0  0  0  0  0  0  0  0  0
   38.8150   32.6550   41.2130 C   0  0  0  0  0  0  0  0  0  0  0  0
   38.3510   33.0900   40.3420 H   0  0  0  0  0  0  0  0  0  0  0  0
   38.5370   33.2890   42.3760 N   0  0  0  0  0  0  0  0  0  0  0  0
   39.1000   32.7760   43.4900 C   0  0  0  0  0  0  0  0  0  0  0  0
   41.0100   29.9260   42.3090 N   0  0  0  0  0  0  0  0  0  0  0  0
   40.8150   28.9540   42.6530 H   0  0  0  0  0  0  0  0  0  0  0  0
   41.9180   30.2180   41.8780 H   0  0  0  0  0  0  0  0  0  0  0  0
  1  2  1  0  0  0  0
  2  3  2  0  0  0  0
  3  4  1  0  0  0  0
  3  7  1  0  0  0  0
  4  8  1  0  0  0  0
  5  9  1  0  0  0  0
  5  4  2  0  0  0  0
  6  1  2  0  0  0  0
  6  5  1  0  0  0  0
 10 11  1  0  0  0  0
 11  2  1  0  0  0  0
 11 12  2  0  0  0  0
 12 18  1  0  0  0  0
 13 12  1  0  0  0  0
 14 13  2  0  0  0  0
 15 10  2  0  0  0  0
 15 14  1  0  0  0  0
 16 10  1  0  0  0  0
 17 14  1  0  0  0  0
 18 21  1  0  0  0  0
 18 19  1  0  0  0  0
 20 18  1  0  0  0  0
 22 23  1  0  0  0  0
 22  1  1  0  0  0  0
 24  6  1  0  0  0  0
 26 25  1  0  0  0  0
 26 27  1  0  0  0  0
 27 24  1  0  0  0  0
 28 27  2  0  0  0  0
 29 28  1  0  0  0  0
 30 29  2  0  0  0  0
 31 32  2  0  0  0  0
 31 30  1  0  0  0  0
 32 34  1  0  0  0  0
 33 32  1  0  0  0  0
 34 35  2  0  0  0  0
 35 29  1  0  0  0  0
 35 26  1  0  0  0  0
 36 30  1  0  0  0  0
 36 37  1  0  0  0  0
 38 36  1  0  0  0  0
M  END
>  <minimizedAffinity>
-7.30722904

>  <minimizedRMSD>
0.778667092

$$$$
