
 OpenBabel03272509183D

 38 41  0  0  0  0  0  0  0  0999 V2000
   38.0480   31.3370   47.8090 C   0  0  0  0  0  0  0  0  0  0  0  0
   37.0930   31.3250   48.8190 C   0  0  0  0  0  0  0  0  0  0  0  0
   37.1630   32.4150   49.6870 C   0  0  0  0  0  0  0  0  0  0  0  0
   38.1230   33.4140   49.5260 C   0  0  0  0  0  0  0  0  0  0  0  0
   39.0410   33.3350   48.4760 C   0  0  0  0  0  0  0  0  0  0  0  0
   38.9960   32.2700   47.6020 C   0  0  0  0  0  0  0  0  0  0  0  0
   36.4620   32.4950   50.5060 H   0  0  0  0  0  0  0  0  0  0  0  0
   38.1430   34.2480   50.2270 H   0  0  0  0  0  0  0  0  0  0  0  0
   39.7740   34.1150   48.3680 H   0  0  0  0  0  0  0  0  0  0  0  0
   34.9560   30.3080   48.1820 C   0  0  0  0  0  0  0  0  0  0  0  0
   36.1110   30.3010   48.9830 C   0  0  0  0  0  0  0  0  0  0  0  0
   36.2460   29.2750   49.9160 C   0  0  0  0  0  0  0  0  0  0  0  0
   35.2540   28.3430   49.9980 N   0  0  0  0  0  0  0  0  0  0  0  0
   34.1480   28.3830   49.2050 C   0  0  0  0  0  0  0  0  0  0  0  0
   34.0050   29.3640   48.3030 N   0  0  0  0  0  0  0  0  0  0  0  0
   34.8210   31.0960   47.4450 H   0  0  0  0  0  0  0  0  0  0  0  0
   33.3680   27.6410   49.2770 H   0  0  0  0  0  0  0  0  0  0  0  0
   37.4310   29.2110   50.7830 C   0  0  0  0  0  0  0  0  0  0  0  0
   37.0590   29.0350   51.8300 H   0  0  0  0  0  0  0  0  0  0  0  0
   38.0590   28.3510   50.4890 H   0  0  0  0  0  0  0  0  0  0  0  0
   37.9750   30.1690   50.7190 H   0  0  0  0  0  0  0  0  0  0  0  0
   38.0400   30.2600   46.8840 O   0  0  0  0  0  0  0  0  0  0  0  0
   38.8230   29.6200   46.9760 H   0  0  0  0  0  0  0  0  0  0  0  0
   39.9150   32.2220   46.5780 O   0  0  0  0  0  0  0  0  0  0  0  0
   41.1930   31.8610   44.0590 H   0  0  0  0  0  0  0  0  0  0  0  0
   40.2000   32.1050   44.0910 N   0  0  0  0  0  0  0  0  0  0  0  0
   39.5560   32.2850   45.2570 C   0  0  0  0  0  0  0  0  0  0  0  0
   38.2790   32.5930   44.9190 N   0  0  0  0  0  0  0  0  0  0  0  0
   38.1520   32.5980   43.5820 C   0  0  0  0  0  0  0  0  0  0  0  0
   37.1580   32.8260   42.6320 C   0  0  0  0  0  0  0  0  0  0  0  0
   37.4130   32.7390   41.3140 N   0  0  0  0  0  0  0  0  0  0  0  0
   38.6560   32.4250   40.8610 C   0  0  0  0  0  0  0  0  0  0  0  0
   38.9180   32.3410   39.8180 H   0  0  0  0  0  0  0  0  0  0  0  0
   39.6740   32.1900   41.7200 N   0  0  0  0  0  0  0  0  0  0  0  0
   39.3860   32.2860   43.0360 C   0  0  0  0  0  0  0  0  0  0  0  0
   35.8620   33.1530   43.1270 N   0  0  0  0  0  0  0  0  0  0  0  0
   35.5290   34.0390   43.5770 H   0  0  0  0  0  0  0  0  0  0  0  0
   35.2540   32.3180   42.9620 H   0  0  0  0  0  0  0  0  0  0  0  0
  1  2  1  0  0  0  0
  2 11  1  0  0  0  0
  2  3  2  0  0  0  0
  3  7  1  0  0  0  0
  4  3  1  0  0  0  0
  4  8  1  0  0  0  0
  5  4  2  0  0  0  0
  6  1  2  0  0  0  0
  6  5  1  0  0  0  0
  9  5  1  0  0  0  0
 10 15  2  0  0  0  0
 10 11  1  0  0  0  0
 11 12  2  0  0  0  0
 12 13  1  0  0  0  0
 12 18  1  0  0  0  0
 14 17  1  0  0  0  0
 14 13  2  0  0  0  0
 15 14  1  0  0  0  0
 16 10  1  0  0  0  0
 18 19  1  0  0  0  0
 20 18  1  0  0  0  0
 21 18  1  0  0  0  0
 22 23  1  0  0  0  0
 22  1  1  0  0  0  0
 24  6  1  0  0  0  0
 25 26  1  0  0  0  0
 26 27  1  0  0  0  0
 27 24  1  0  0  0  0
 28 27  2  0  0  0  0
 29 28  1  0  0  0  0
 30 36  1  0  0  0  0
 30 29  2  0  0  0  0
 31 30  1  0  0  0  0
 32 31  2  0  0  0  0
 32 34  1  0  0  0  0
 33 32  1  0  0  0  0
 34 35  2  0  0  0  0
 35 29  1  0  0  0  0
 35 26  1  0  0  0  0
 36 37  1  0  0  0  0
 38 36  1  0  0  0  0
M  END
>  <minimizedAffinity>
-7.52491713

>  <minimizedRMSD>
0.560897946

$$$$
