REMARK  Name = 
REMARK  5 active torsions:
REMARK  status: ('A' for Active; 'I' for Inactive)
REMARK    1  A    between atoms: C_1  and  O_12
REMARK    2  A    between atoms: C_2  and  C_8
REMARK    3  A    between atoms: O_12  and  C_15
REMARK    4  A    between atoms: C_19  and  N_32
REMARK    5  A    between atoms: C_37  and  N_38
REMARK                            x       y       z     vdW  Elec       q    Type
REMARK                         _______ _______ _______ _____ _____    ______ ____
ROOT
ATOM      1 CL   UNL     1      40.944  31.264  45.371  0.00  0.00    +0.000 Cl
ATOM      2  C   UNL     1      39.367  30.694  44.900  0.00  0.00    +0.000 A 
ATOM      3  C   UNL     1      38.327  31.243  45.636  0.00  0.00    +0.000 A 
ATOM      4  C   UNL     1      37.067  30.794  45.266  0.00  0.00    +0.000 A 
ATOM      5  C   UNL     1      36.860  29.881  44.257  0.00  0.00    +0.000 A 
ATOM      6  C   UNL     1      37.945  29.378  43.568  0.00  0.00    +0.000 A 
ATOM      7  C   UNL     1      39.211  29.782  43.886  0.00  0.00    +0.000 A 
ATOM      8  H   UNL     1      36.136  31.105  45.721  0.00  0.00    +0.000 HD
ATOM      9  H   UNL     1      35.905  29.510  43.942  0.00  0.00    +0.000 HD
ATOM     10  H   UNL     1      37.825  28.660  42.769  0.00  0.00    +0.000 HD
ENDROOT
BRANCH   7  11
ATOM     11  N   UNL     1      40.375  29.315  43.230  0.00  0.00    +0.000 N 
ATOM     12  C   UNL     1      41.627  29.453  43.688  0.00  0.00    +0.000 A 
ATOM     13  H   UNL     1      42.011  29.911  44.584  0.00  0.00    +0.000 HD
ATOM     14  N   UNL     1      42.506  28.902  42.833  0.00  0.00    +0.000 NA
ATOM     15  C   UNL     1      41.839  28.385  41.782  0.00  0.00    +0.000 A 
ATOM     16  C   UNL     1      42.159  27.716  40.618  0.00  0.00    +0.000 A 
ATOM     17  N   UNL     1      41.182  27.332  39.759  0.00  0.00    +0.000 NA
ATOM     18  C   UNL     1      39.878  27.600  40.029  0.00  0.00    +0.000 A 
ATOM     19  H   UNL     1      39.138  27.270  39.307  0.00  0.00    +0.000 HD
ATOM     20  N   UNL     1      39.571  28.255  41.169  0.00  0.00    +0.000 NA
ATOM     21  C   UNL     1      40.508  28.655  42.052  0.00  0.00    +0.000 A 
BRANCH  16  22
ATOM     22  N   UNL     1      43.536  27.454  40.371  0.00  0.00    +0.000 N 
ATOM     23  H   UNL     1      44.204  26.665  40.244  0.00  0.00    +0.000 HD
ATOM     24  H   UNL     1      44.400  28.054  40.224  0.00  0.00    +0.000 HD
ENDBRANCH  16  22
ENDBRANCH   7  11
BRANCH   3  25
ATOM     25  O   UNL     1      38.275  32.132  46.647  0.00  0.00    +0.000 OA
BRANCH  25  26
ATOM     26  C   UNL     1      38.956  32.367  47.791  0.00  0.00    +0.000 C 
ATOM     27  C   UNL     1      38.001  32.746  48.974  0.00  0.00    +0.000 C 
ATOM     28  C   UNL     1      38.895  33.546  49.798  0.00  0.00    +0.000 C 
ATOM     29  O   UNL     1      39.730  34.267  48.957  0.00  0.00    +0.000 OA
ATOM     30  C   UNL     1      39.622  33.768  47.706  0.00  0.00    +0.000 C 
ATOM     31  H   UNL     1      39.733  31.685  48.122  0.00  0.00    +0.000 HD
ATOM     32  H   UNL     1      37.217  33.379  48.504  0.00  0.00    +0.000 HD
ATOM     33  H   UNL     1      38.271  34.282  50.385  0.00  0.00    +0.000 HD
ATOM     34  H   UNL     1      39.538  33.010  50.503  0.00  0.00    +0.000 HD
ATOM     35  H   UNL     1      40.594  33.678  47.188  0.00  0.00    +0.000 HD
ATOM     36  H   UNL     1      38.931  34.388  47.086  0.00  0.00    +0.000 HD
BRANCH  27  39
ATOM     37  C   UNL     1      37.363  29.694  51.084  0.00  0.00    +0.000 A 
ATOM     38  C   UNL     1      38.041  30.833  50.559  0.00  0.00    +0.000 A 
ATOM     39  C   UNL     1      37.370  31.589  49.553  0.00  0.00    +0.000 A 
ATOM     40  N   UNL     1      36.114  31.196  49.132  0.00  0.00    +0.000 NA
ATOM     41  C   UNL     1      35.527  30.114  49.663  0.00  0.00    +0.000 A 
ATOM     42  N   UNL     1      36.129  29.361  50.627  0.00  0.00    +0.000 NA
ATOM     43  H   UNL     1      37.900  29.157  51.834  0.00  0.00    +0.000 HD
ATOM     44  H   UNL     1      39.004  31.087  50.920  0.00  0.00    +0.000 HD
ATOM     45  H   UNL     1      34.546  29.862  49.290  0.00  0.00    +0.000 HD
ENDBRANCH  27  39
ENDBRANCH  25  26
ENDBRANCH   3  25
TORSDOF 5
