
 OpenBabel03272506443D

 37 40  0  0  1  0  0  0  0  0999 V2000
   32.5020   28.7880   47.3500 C   0  0  2  0  0  0  0  0  0  0  0  0
   33.7890   28.6630   48.1430 C   0  0  1  0  0  0  0  0  0  0  0  0
   34.2240   27.3600   48.0510 O   0  0  0  0  0  0  0  0  0  0  0  0
   33.4340   26.6950   47.1490 C   0  0  0  0  0  0  0  0  0  0  0  0
   32.7830   27.7770   46.2730 C   0  0  1  0  0  0  0  0  0  0  0  0
   31.6240   28.4490   47.9430 H   0  0  0  0  0  0  0  0  0  0  0  0
   33.6110   28.9990   49.1770 H   0  0  0  0  0  0  0  0  0  0  0  0
   32.6860   26.0120   47.5800 H   0  0  0  0  0  0  0  0  0  0  0  0
   34.1140   26.1310   46.4630 H   0  0  0  0  0  0  0  0  0  0  0  0
   33.4880   28.1430   45.5160 H   0  0  0  0  0  0  0  0  0  0  0  0
   32.3360   30.0790   46.8610 O   0  0  0  0  0  0  0  0  0  0  0  0
   32.0190   30.6160   47.6480 H   0  0  0  0  0  0  0  0  0  0  0  0
   35.0160   29.7130   47.3000 S   0  0  0  0  0  0  0  0  0  0  0  0
   37.5150   29.6820   50.3640 C   0  0  0  0  0  0  0  0  0  0  0  0
   38.1970   30.8910   50.3060 C   0  0  0  0  0  0  0  0  0  0  0  0
   37.8650   31.7690   49.2600 C   0  0  0  0  0  0  0  0  0  0  0  0
   36.9070   31.3840   48.3760 N   0  0  0  0  0  0  0  0  0  0  0  0
   36.2670   30.2030   48.4640 C   0  0  0  0  0  0  0  0  0  0  0  0
   36.5720   29.3420   49.4650 N   0  0  0  0  0  0  0  0  0  0  0  0
   37.8080   29.0400   51.1910 H   0  0  0  0  0  0  0  0  0  0  0  0
   38.9510   31.2390   50.9680 H   0  0  0  0  0  0  0  0  0  0  0  0
   38.3060   32.7580   49.0690 H   0  0  0  0  0  0  0  0  0  0  0  0
   31.6330   27.2840   45.6780 O   0  0  0  0  0  0  0  0  0  0  0  0
   30.2270   25.6620   47.5430 H   0  0  0  0  0  0  0  0  0  0  0  0
   29.7910   26.5600   47.2280 N   0  0  0  0  0  0  0  0  0  0  0  0
   30.4270   27.3560   46.3460 C   0  0  0  0  0  0  0  0  0  0  0  0
   29.6460   28.4260   46.1260 N   0  0  0  0  0  0  0  0  0  0  0  0
   28.5270   28.3220   46.8540 C   0  0  0  0  0  0  0  0  0  0  0  0
   27.3860   29.0700   47.0520 C   0  0  0  0  0  0  0  0  0  0  0  0
   26.4020   28.6560   47.8970 N   0  0  0  0  0  0  0  0  0  0  0  0
   26.5680   27.4790   48.5490 C   0  0  0  0  0  0  0  0  0  0  0  0
   25.7210   27.2380   49.2020 H   0  0  0  0  0  0  0  0  0  0  0  0
   27.6560   26.7090   48.3960 N   0  0  0  0  0  0  0  0  0  0  0  0
   28.6200   27.1250   47.5610 C   0  0  0  0  0  0  0  0  0  0  0  0
   27.2500   30.2940   46.3530 N   0  0  0  0  0  0  0  0  0  0  0  0
   26.3540   30.4150   45.8220 H   0  0  0  0  0  0  0  0  0  0  0  0
   27.9550   31.0840   46.3140 H   0  0  0  0  0  0  0  0  0  0  0  0
  1  6  1  1  0  0  0
  1  2  1  0  0  0  0
  2  7  1  1  0  0  0
  3  2  1  0  0  0  0
  4  8  1  0  0  0  0
  4  3  1  0  0  0  0
  5 10  1  6  0  0  0
  5  4  1  0  0  0  0
  5  1  1  0  0  0  0
  9  4  1  0  0  0  0
 11  1  1  0  0  0  0
 11 12  1  0  0  0  0
 13  2  1  0  0  0  0
 13 18  1  0  0  0  0
 14 20  1  0  0  0  0
 15 14  1  0  0  0  0
 15 21  1  0  0  0  0
 16 15  2  0  0  0  0
 17 18  2  0  0  0  0
 17 16  1  0  0  0  0
 18 19  1  0  0  0  0
 19 14  2  0  0  0  0
 22 16  1  0  0  0  0
 23  5  1  0  0  0  0
 23 26  1  0  0  0  0
 25 24  1  0  0  0  0
 25 34  1  0  0  0  0
 26 25  1  0  0  0  0
 27 26  2  0  0  0  0
 27 28  1  0  0  0  0
 28 29  2  0  0  0  0
 28 34  1  0  0  0  0
 29 30  1  0  0  0  0
 30 31  2  0  0  0  0
 31 32  1  0  0  0  0
 33 31  1  0  0  0  0
 34 33  2  0  0  0  0
 35 29  1  0  0  0  0
 36 35  1  0  0  0  0
 37 35  1  0  0  0  0
M  END
>  <minimizedAffinity>
-5.37599611

>  <minimizedRMSD>
4.33321047

$$$$
