
 OpenBabel03272506443D

 37 40  0  0  1  0  0  0  0  0999 V2000
   32.2600   28.2470   47.4610 C   0  0  2  0  0  0  0  0  0  0  0  0
   33.5220   28.1440   48.2950 C   0  0  1  0  0  0  0  0  0  0  0  0
   34.0650   26.8940   48.0970 O   0  0  0  0  0  0  0  0  0  0  0  0
   33.3650   26.2640   47.1000 C   0  0  0  0  0  0  0  0  0  0  0  0
   32.6610   27.3740   46.3050 C   0  0  1  0  0  0  0  0  0  0  0  0
   31.3910   27.7840   47.9790 H   0  0  0  0  0  0  0  0  0  0  0  0
   33.2790   28.3600   49.3480 H   0  0  0  0  0  0  0  0  0  0  0  0
   32.6590   25.4850   47.4300 H   0  0  0  0  0  0  0  0  0  0  0  0
   34.1140   25.8250   46.3940 H   0  0  0  0  0  0  0  0  0  0  0  0
   33.3620   27.8670   45.6190 H   0  0  0  0  0  0  0  0  0  0  0  0
   32.0070   29.5640   47.0920 O   0  0  0  0  0  0  0  0  0  0  0  0
   31.6180   29.9940   47.9120 H   0  0  0  0  0  0  0  0  0  0  0  0
   34.6900   29.3650   47.6130 S   0  0  0  0  0  0  0  0  0  0  0  0
   37.1740   29.2420   50.6860 C   0  0  0  0  0  0  0  0  0  0  0  0
   37.5990   30.5510   50.8800 C   0  0  0  0  0  0  0  0  0  0  0  0
   37.0880   31.5290   50.0100 C   0  0  0  0  0  0  0  0  0  0  0  0
   36.2180   31.1390   49.0420 N   0  0  0  0  0  0  0  0  0  0  0  0
   35.8290   29.8600   48.8850 C   0  0  0  0  0  0  0  0  0  0  0  0
   36.3100   28.9010   49.7130 N   0  0  0  0  0  0  0  0  0  0  0  0
   37.5990   28.5240   51.3850 H   0  0  0  0  0  0  0  0  0  0  0  0
   38.2750   30.9080   51.6170 H   0  0  0  0  0  0  0  0  0  0  0  0
   37.3190   32.6040   50.0250 H   0  0  0  0  0  0  0  0  0  0  0  0
   31.5780   26.8560   45.6140 O   0  0  0  0  0  0  0  0  0  0  0  0
   28.8870   26.9990   44.7030 H   0  0  0  0  0  0  0  0  0  0  0  0
   29.5800   27.6950   44.3410 N   0  0  0  0  0  0  0  0  0  0  0  0
   30.8640   27.6600   44.7490 C   0  0  0  0  0  0  0  0  0  0  0  0
   31.5170   28.6580   44.1300 N   0  0  0  0  0  0  0  0  0  0  0  0
   30.6690   29.3240   43.3370 C   0  0  0  0  0  0  0  0  0  0  0  0
   30.7330   30.4020   42.4800 C   0  0  0  0  0  0  0  0  0  0  0  0
   29.6360   30.8380   41.8010 N   0  0  0  0  0  0  0  0  0  0  0  0
   28.4640   30.1840   41.9870 C   0  0  0  0  0  0  0  0  0  0  0  0
   27.6460   30.6140   41.3960 H   0  0  0  0  0  0  0  0  0  0  0  0
   28.3400   29.1290   42.8090 N   0  0  0  0  0  0  0  0  0  0  0  0
   29.4260   28.7070   43.4730 C   0  0  0  0  0  0  0  0  0  0  0  0
   31.9770   31.0580   42.3130 N   0  0  0  0  0  0  0  0  0  0  0  0
   32.2920   31.1850   41.3210 H   0  0  0  0  0  0  0  0  0  0  0  0
   32.6090   31.4260   43.0800 H   0  0  0  0  0  0  0  0  0  0  0  0
  1  6  1  1  0  0  0
  1  2  1  0  0  0  0
  2  7  1  1  0  0  0
  3  2  1  0  0  0  0
  4  8  1  0  0  0  0
  4  3  1  0  0  0  0
  5 10  1  6  0  0  0
  5  4  1  0  0  0  0
  5  1  1  0  0  0  0
  9  4  1  0  0  0  0
 11  1  1  0  0  0  0
 11 12  1  0  0  0  0
 13  2  1  0  0  0  0
 13 18  1  0  0  0  0
 14 15  1  0  0  0  0
 14 20  1  0  0  0  0
 15 21  1  0  0  0  0
 16 22  1  0  0  0  0
 16 15  2  0  0  0  0
 17 16  1  0  0  0  0
 18 17  2  0  0  0  0
 18 19  1  0  0  0  0
 19 14  2  0  0  0  0
 23  5  1  0  0  0  0
 25 24  1  0  0  0  0
 25 26  1  0  0  0  0
 26 23  1  0  0  0  0
 27 26  2  0  0  0  0
 28 34  1  0  0  0  0
 28 27  1  0  0  0  0
 29 28  2  0  0  0  0
 30 31  2  0  0  0  0
 30 29  1  0  0  0  0
 31 33  1  0  0  0  0
 32 31  1  0  0  0  0
 33 34  2  0  0  0  0
 34 25  1  0  0  0  0
 35 29  1  0  0  0  0
 35 37  1  0  0  0  0
 36 35  1  0  0  0  0
M  END
>  <minimizedAffinity>
-4.07650614

>  <minimizedRMSD>
3.01449728

$$$$
