
 OpenBabel03272506443D

 37 40  0  0  1  0  0  0  0  0999 V2000
   32.2680   28.4070   47.4850 C   0  0  2  0  0  0  0  0  0  0  0  0
   33.5420   28.2770   48.2980 C   0  0  1  0  0  0  0  0  0  0  0  0
   33.9940   26.9820   48.1820 O   0  0  0  0  0  0  0  0  0  0  0  0
   33.2280   26.3310   47.2490 C   0  0  0  0  0  0  0  0  0  0  0  0
   32.5800   27.4260   46.3890 C   0  0  1  0  0  0  0  0  0  0  0  0
   31.3840   28.0430   48.0540 H   0  0  0  0  0  0  0  0  0  0  0  0
   33.3410   28.5840   49.3370 H   0  0  0  0  0  0  0  0  0  0  0  0
   32.4810   25.6290   47.6500 H   0  0  0  0  0  0  0  0  0  0  0  0
   33.9270   25.7920   46.5620 H   0  0  0  0  0  0  0  0  0  0  0  0
   33.2950   27.8200   45.6540 H   0  0  0  0  0  0  0  0  0  0  0  0
   32.0950   29.7080   47.0250 O   0  0  0  0  0  0  0  0  0  0  0  0
   31.7580   30.2210   47.8190 H   0  0  0  0  0  0  0  0  0  0  0  0
   34.7710   29.3620   47.5040 S   0  0  0  0  0  0  0  0  0  0  0  0
   37.2650   29.3600   50.5720 C   0  0  0  0  0  0  0  0  0  0  0  0
   37.7880   30.6460   50.6330 C   0  0  0  0  0  0  0  0  0  0  0  0
   37.3450   31.5690   49.6690 C   0  0  0  0  0  0  0  0  0  0  0  0
   36.4400   31.1500   48.7460 N   0  0  0  0  0  0  0  0  0  0  0  0
   35.9550   29.8950   48.7190 C   0  0  0  0  0  0  0  0  0  0  0  0
   36.3690   28.9900   49.6380 N   0  0  0  0  0  0  0  0  0  0  0  0
   37.6400   28.6860   51.3390 H   0  0  0  0  0  0  0  0  0  0  0  0
   38.4950   31.0230   51.3300 H   0  0  0  0  0  0  0  0  0  0  0  0
   37.6560   32.6190   49.5760 H   0  0  0  0  0  0  0  0  0  0  0  0
   31.4470   26.9360   45.7610 O   0  0  0  0  0  0  0  0  0  0  0  0
   31.2680   29.1320   43.9620 H   0  0  0  0  0  0  0  0  0  0  0  0
   30.4120   28.8400   44.4890 N   0  0  0  0  0  0  0  0  0  0  0  0
   30.4560   27.8050   45.3500 C   0  0  0  0  0  0  0  0  0  0  0  0
   29.2280   27.6580   45.8760 N   0  0  0  0  0  0  0  0  0  0  0  0
   28.4080   28.5820   45.3640 C   0  0  0  0  0  0  0  0  0  0  0  0
   27.0820   28.9330   45.5010 C   0  0  0  0  0  0  0  0  0  0  0  0
   26.5440   29.9700   44.8000 N   0  0  0  0  0  0  0  0  0  0  0  0
   27.3480   30.6600   43.9540 C   0  0  0  0  0  0  0  0  0  0  0  0
   26.8180   31.4710   43.4410 H   0  0  0  0  0  0  0  0  0  0  0  0
   28.6460   30.3640   43.7790 N   0  0  0  0  0  0  0  0  0  0  0  0
   29.1650   29.3410   44.4730 C   0  0  0  0  0  0  0  0  0  0  0  0
   26.2760   28.1880   46.3960 N   0  0  0  0  0  0  0  0  0  0  0  0
   25.7370   28.7520   47.0980 H   0  0  0  0  0  0  0  0  0  0  0  0
   26.1650   27.1350   46.4250 H   0  0  0  0  0  0  0  0  0  0  0  0
  1  6  1  1  0  0  0
  1  2  1  0  0  0  0
  2  7  1  1  0  0  0
  3  2  1  0  0  0  0
  4  8  1  0  0  0  0
  4  3  1  0  0  0  0
  5 10  1  6  0  0  0
  5  4  1  0  0  0  0
  5  1  1  0  0  0  0
  9  4  1  0  0  0  0
 11  1  1  0  0  0  0
 11 12  1  0  0  0  0
 13  2  1  0  0  0  0
 13 18  1  0  0  0  0
 14 15  1  0  0  0  0
 14 20  1  0  0  0  0
 15 21  1  0  0  0  0
 16 15  2  0  0  0  0
 17 16  1  0  0  0  0
 18 17  2  0  0  0  0
 18 19  1  0  0  0  0
 19 14  2  0  0  0  0
 22 16  1  0  0  0  0
 23  5  1  0  0  0  0
 24 25  1  0  0  0  0
 25 26  1  0  0  0  0
 26 23  1  0  0  0  0
 26 27  2  0  0  0  0
 28 29  1  0  0  0  0
 28 27  1  0  0  0  0
 29 35  1  0  0  0  0
 30 29  2  0  0  0  0
 31 30  1  0  0  0  0
 32 31  1  0  0  0  0
 33 31  2  0  0  0  0
 33 34  1  0  0  0  0
 34 25  1  0  0  0  0
 34 28  2  0  0  0  0
 35 37  1  0  0  0  0
 35 36  1  0  0  0  0
M  END
>  <minimizedAffinity>
-4.82658291

>  <minimizedRMSD>
3.34686255

$$$$
