
 OpenBabel03272502173D

 38 41  0  0  1  0  0  0  0  0999 V2000
   37.2630   30.5290   48.9360 C   0  0  0  0  0  0  0  0  0  0  0  0
   37.4640   31.6300   49.7780 C   0  0  0  0  0  0  0  0  0  0  0  0
   38.3470   32.6260   49.3560 C   0  0  0  0  0  0  0  0  0  0  0  0
   38.9630   32.4610   48.1380 N   0  0  0  0  0  0  0  0  0  0  0  0
   38.7450   31.3980   47.3670 C   0  0  0  0  0  0  0  0  0  0  0  0
   37.9020   30.4450   47.7660 N   0  0  0  0  0  0  0  0  0  0  0  0
   37.0370   31.8410   50.7280 H   0  0  0  0  0  0  0  0  0  0  0  0
   38.5690   33.5070   49.9260 H   0  0  0  0  0  0  0  0  0  0  0  0
   39.3740   31.2130   46.1030 N   0  0  0  0  0  0  0  0  0  0  0  0
   40.6770   31.4380   45.7710 C   0  0  0  0  0  0  0  0  0  0  0  0
   41.3610   31.8060   46.5320 H   0  0  0  0  0  0  0  0  0  0  0  0
   40.8420   31.1280   44.4560 N   0  0  0  0  0  0  0  0  0  0  0  0
   39.6690   30.7230   43.9980 C   0  0  0  0  0  0  0  0  0  0  0  0
   39.3370   30.3000   42.7150 C   0  0  0  0  0  0  0  0  0  0  0  0
   38.0480   29.9380   42.5190 N   0  0  0  0  0  0  0  0  0  0  0  0
   37.1460   29.9910   43.5310 C   0  0  0  0  0  0  0  0  0  0  0  0
   36.1380   29.6700   43.2380 H   0  0  0  0  0  0  0  0  0  0  0  0
   37.4800   30.4010   44.7690 N   0  0  0  0  0  0  0  0  0  0  0  0
   38.7460   30.7740   45.0220 C   0  0  0  0  0  0  0  0  0  0  0  0
   40.3200   30.2620   41.6840 N   0  0  0  0  0  0  0  0  0  0  0  0
   40.1890   30.8990   40.8690 H   0  0  0  0  0  0  0  0  0  0  0  0
   40.9980   29.5320   42.0320 H   0  0  0  0  0  0  0  0  0  0  0  0
   36.1200   29.3570   49.6130 S   0  0  0  0  0  0  0  0  0  0  0  0
   33.5660   28.5950   49.1180 N   0  0  0  0  0  0  0  0  0  0  0  0
   34.3850   29.7740   49.1480 C   0  0  2  0  0  0  0  0  0  0  0  0
   34.3990   30.3930   47.7650 C   0  0  0  0  0  0  0  0  0  0  0  0
   33.3330   29.8890   46.9920 O   0  0  0  0  0  0  0  0  0  0  0  0
   33.6730   28.5610   46.7360 C   0  0  0  0  0  0  0  0  0  0  0  0
   33.9980   27.7900   47.9930 C   0  0  2  0  0  0  0  0  0  0  0  0
   33.6580   28.0670   50.0100 H   0  0  0  0  0  0  0  0  0  0  0  0
   33.9600   30.4460   49.9210 H   0  0  0  0  0  0  0  0  0  0  0  0
   34.2010   31.4760   47.8900 H   0  0  0  0  0  0  0  0  0  0  0  0
   35.3610   30.2930   47.2450 H   0  0  0  0  0  0  0  0  0  0  0  0
   34.5800   28.5590   46.0770 H   0  0  0  0  0  0  0  0  0  0  0  0
   32.8610   28.1000   46.1490 H   0  0  0  0  0  0  0  0  0  0  0  0
   35.0870   27.5760   48.0420 H   0  0  0  0  0  0  0  0  0  0  0  0
   33.2760   26.5780   48.0300 O   0  0  0  0  0  0  0  0  0  0  0  0
   33.6850   25.9970   47.3430 H   0  0  0  0  0  0  0  0  0  0  0  0
  1 23  1  0  0  0  0
  1  2  1  0  0  0  0
  2  7  1  0  0  0  0
  3  2  2  0  0  0  0
  3  8  1  0  0  0  0
  4  3  1  0  0  0  0
  5  6  1  0  0  0  0
  5  4  2  0  0  0  0
  6  1  2  0  0  0  0
  9  5  1  0  0  0  0
 10  9  1  0  0  0  0
 10 11  1  0  0  0  0
 12 10  2  0  0  0  0
 13 12  1  0  0  0  0
 13 19  1  0  0  0  0
 14 13  2  0  0  0  0
 15 14  1  0  0  0  0
 15 16  2  0  0  0  0
 16 18  1  0  0  0  0
 17 16  1  0  0  0  0
 18 19  2  0  0  0  0
 19  9  1  0  0  0  0
 20 22  1  0  0  0  0
 20 14  1  0  0  0  0
 21 20  1  0  0  0  0
 24 25  1  0  0  0  0
 24 30  1  0  0  0  0
 25 23  1  0  0  0  0
 25 31  1  1  0  0  0
 26 32  1  0  0  0  0
 26 25  1  0  0  0  0
 27 26  1  0  0  0  0
 28 27  1  0  0  0  0
 28 29  1  0  0  0  0
 29 37  1  0  0  0  0
 29 36  1  1  0  0  0
 29 24  1  0  0  0  0
 33 26  1  0  0  0  0
 34 28  1  0  0  0  0
 35 28  1  0  0  0  0
 38 37  1  0  0  0  0
M  END
>  <minimizedAffinity>
-6.34776449

>  <minimizedRMSD>
0.689184427

$$$$
