
 OpenBabel03272502173D

 38 41  0  0  1  0  0  0  0  0999 V2000
   37.2880   30.5560   48.8370 C   0  0  0  0  0  0  0  0  0  0  0  0
   37.4700   31.5710   49.7840 C   0  0  0  0  0  0  0  0  0  0  0  0
   38.3290   32.6240   49.4630 C   0  0  0  0  0  0  0  0  0  0  0  0
   38.9430   32.5940   48.2320 N   0  0  0  0  0  0  0  0  0  0  0  0
   38.7430   31.6100   47.3590 C   0  0  0  0  0  0  0  0  0  0  0  0
   37.9230   30.6040   47.6620 N   0  0  0  0  0  0  0  0  0  0  0  0
   37.0430   31.6780   50.7520 H   0  0  0  0  0  0  0  0  0  0  0  0
   38.5360   33.4480   50.1170 H   0  0  0  0  0  0  0  0  0  0  0  0
   39.3700   31.5660   46.0810 N   0  0  0  0  0  0  0  0  0  0  0  0
   40.5660   32.1060   45.7130 C   0  0  0  0  0  0  0  0  0  0  0  0
   41.1530   32.6480   46.4500 H   0  0  0  0  0  0  0  0  0  0  0  0
   40.7750   31.8220   44.3970 N   0  0  0  0  0  0  0  0  0  0  0  0
   39.7330   31.1270   43.9760 C   0  0  0  0  0  0  0  0  0  0  0  0
   39.4890   30.6100   42.7060 C   0  0  0  0  0  0  0  0  0  0  0  0
   38.3300   29.9320   42.5490 N   0  0  0  0  0  0  0  0  0  0  0  0
   37.4660   29.7750   43.5850 C   0  0  0  0  0  0  0  0  0  0  0  0
   36.5660   29.2050   43.3210 H   0  0  0  0  0  0  0  0  0  0  0  0
   37.7130   30.2790   44.8070 N   0  0  0  0  0  0  0  0  0  0  0  0
   38.8500   30.9630   45.0230 C   0  0  0  0  0  0  0  0  0  0  0  0
   40.4260   30.8020   41.6510 N   0  0  0  0  0  0  0  0  0  0  0  0
   40.1210   31.3700   40.8330 H   0  0  0  0  0  0  0  0  0  0  0  0
   41.2740   30.2730   41.9900 H   0  0  0  0  0  0  0  0  0  0  0  0
   36.1720   29.2990   49.3950 S   0  0  0  0  0  0  0  0  0  0  0  0
   33.5660   28.6060   49.1110 N   0  0  0  0  0  0  0  0  0  0  0  0
   34.4210   29.7590   49.0460 C   0  0  2  0  0  0  0  0  0  0  0  0
   34.3510   30.3370   47.6460 C   0  0  0  0  0  0  0  0  0  0  0  0
   33.2160   29.8450   46.9700 O   0  0  0  0  0  0  0  0  0  0  0  0
   33.4960   28.5000   46.7300 C   0  0  0  0  0  0  0  0  0  0  0  0
   33.8900   27.7560   47.9830 C   0  0  2  0  0  0  0  0  0  0  0  0
   33.7080   28.1010   50.0100 H   0  0  0  0  0  0  0  0  0  0  0  0
   34.0740   30.4660   49.8260 H   0  0  0  0  0  0  0  0  0  0  0  0
   34.1960   31.4290   47.7520 H   0  0  0  0  0  0  0  0  0  0  0  0
   35.2690   30.1910   47.0620 H   0  0  0  0  0  0  0  0  0  0  0  0
   34.3510   28.4510   46.0070 H   0  0  0  0  0  0  0  0  0  0  0  0
   32.6290   28.0490   46.2180 H   0  0  0  0  0  0  0  0  0  0  0  0
   34.9730   27.5080   47.9590 H   0  0  0  0  0  0  0  0  0  0  0  0
   33.1370   26.5690   48.1100 O   0  0  0  0  0  0  0  0  0  0  0  0
   33.4760   25.9560   47.4130 H   0  0  0  0  0  0  0  0  0  0  0  0
  1 23  1  0  0  0  0
  1  2  1  0  0  0  0
  2  7  1  0  0  0  0
  3  2  2  0  0  0  0
  3  8  1  0  0  0  0
  4  3  1  0  0  0  0
  5  6  1  0  0  0  0
  5  4  2  0  0  0  0
  6  1  2  0  0  0  0
  9  5  1  0  0  0  0
 10  9  1  0  0  0  0
 10 11  1  0  0  0  0
 12 10  2  0  0  0  0
 13 12  1  0  0  0  0
 13 19  1  0  0  0  0
 14 13  2  0  0  0  0
 15 14  1  0  0  0  0
 15 16  2  0  0  0  0
 16 18  1  0  0  0  0
 17 16  1  0  0  0  0
 18 19  2  0  0  0  0
 19  9  1  0  0  0  0
 20 22  1  0  0  0  0
 20 14  1  0  0  0  0
 21 20  1  0  0  0  0
 24 30  1  0  0  0  0
 25 24  1  0  0  0  0
 25 23  1  0  0  0  0
 25 31  1  1  0  0  0
 26 32  1  0  0  0  0
 26 25  1  0  0  0  0
 27 26  1  0  0  0  0
 28 27  1  0  0  0  0
 28 29  1  0  0  0  0
 29 36  1  6  0  0  0
 29 37  1  0  0  0  0
 29 24  1  0  0  0  0
 33 26  1  0  0  0  0
 34 28  1  0  0  0  0
 35 28  1  0  0  0  0
 38 37  1  0  0  0  0
M  END
>  <minimizedAffinity>
-6.36534309

>  <minimizedRMSD>
0.640211999

$$$$
