
 OpenBabel03272502173D

 38 41  0  0  1  0  0  0  0  0999 V2000
   37.2700   30.5170   48.8920 C   0  0  0  0  0  0  0  0  0  0  0  0
   37.4820   31.5570   49.8060 C   0  0  0  0  0  0  0  0  0  0  0  0
   38.3590   32.5810   49.4440 C   0  0  0  0  0  0  0  0  0  0  0  0
   38.9600   32.5010   48.2090 N   0  0  0  0  0  0  0  0  0  0  0  0
   38.7320   31.4950   47.3690 C   0  0  0  0  0  0  0  0  0  0  0  0
   37.8940   30.5160   47.7110 N   0  0  0  0  0  0  0  0  0  0  0  0
   37.0670   31.7020   50.7740 H   0  0  0  0  0  0  0  0  0  0  0  0
   38.5900   33.4200   50.0710 H   0  0  0  0  0  0  0  0  0  0  0  0
   39.3450   31.3980   46.0880 N   0  0  0  0  0  0  0  0  0  0  0  0
   40.6760   31.3700   45.7920 C   0  0  0  0  0  0  0  0  0  0  0  0
   41.3990   31.4260   46.6020 H   0  0  0  0  0  0  0  0  0  0  0  0
   40.8100   31.2710   44.4410 N   0  0  0  0  0  0  0  0  0  0  0  0
   39.5930   31.2390   43.9260 C   0  0  0  0  0  0  0  0  0  0  0  0
   39.2160   31.1430   42.5900 C   0  0  0  0  0  0  0  0  0  0  0  0
   37.8870   31.1300   42.3420 N   0  0  0  0  0  0  0  0  0  0  0  0
   36.9870   31.2090   43.3540 C   0  0  0  0  0  0  0  0  0  0  0  0
   35.9430   31.1880   43.0150 H   0  0  0  0  0  0  0  0  0  0  0  0
   37.3620   31.3010   44.6430 N   0  0  0  0  0  0  0  0  0  0  0  0
   38.6710   31.3180   44.9500 C   0  0  0  0  0  0  0  0  0  0  0  0
   40.2000   31.0630   41.5620 N   0  0  0  0  0  0  0  0  0  0  0  0
   40.2480   31.8480   40.8790 H   0  0  0  0  0  0  0  0  0  0  0  0
   40.6800   30.1450   41.7650 H   0  0  0  0  0  0  0  0  0  0  0  0
   36.1340   29.3010   49.5000 S   0  0  0  0  0  0  0  0  0  0  0  0
   33.5440   28.5960   49.1190 N   0  0  0  0  0  0  0  0  0  0  0  0
   34.3930   29.7550   49.0960 C   0  0  2  0  0  0  0  0  0  0  0  0
   34.3670   30.3480   47.7010 C   0  0  0  0  0  0  0  0  0  0  0  0
   33.2600   29.8580   46.9810 O   0  0  0  0  0  0  0  0  0  0  0  0
   33.5560   28.5170   46.7360 C   0  0  0  0  0  0  0  0  0  0  0  0
   33.9110   27.7610   47.9940 C   0  0  2  0  0  0  0  0  0  0  0  0
   33.6580   28.0820   50.0160 H   0  0  0  0  0  0  0  0  0  0  0  0
   34.0160   30.4510   49.8720 H   0  0  0  0  0  0  0  0  0  0  0  0
   34.2020   31.4380   47.8140 H   0  0  0  0  0  0  0  0  0  0  0  0
   35.3050   30.2140   47.1470 H   0  0  0  0  0  0  0  0  0  0  0  0
   34.4360   28.4810   46.0420 H   0  0  0  0  0  0  0  0  0  0  0  0
   32.7100   28.0670   46.1900 H   0  0  0  0  0  0  0  0  0  0  0  0
   34.9960   27.5200   48.0040 H   0  0  0  0  0  0  0  0  0  0  0  0
   33.1620   26.5680   48.0820 O   0  0  0  0  0  0  0  0  0  0  0  0
   33.5290   25.9650   47.3900 H   0  0  0  0  0  0  0  0  0  0  0  0
  1 23  1  0  0  0  0
  1  2  1  0  0  0  0
  2  7  1  0  0  0  0
  3  2  2  0  0  0  0
  3  8  1  0  0  0  0
  4  3  1  0  0  0  0
  5  6  1  0  0  0  0
  5  4  2  0  0  0  0
  6  1  2  0  0  0  0
  9  5  1  0  0  0  0
 10  9  1  0  0  0  0
 10 11  1  0  0  0  0
 12 10  2  0  0  0  0
 13 12  1  0  0  0  0
 13 19  1  0  0  0  0
 14 13  2  0  0  0  0
 15 14  1  0  0  0  0
 15 16  2  0  0  0  0
 16 18  1  0  0  0  0
 17 16  1  0  0  0  0
 18 19  2  0  0  0  0
 19  9  1  0  0  0  0
 20 22  1  0  0  0  0
 20 14  1  0  0  0  0
 21 20  1  0  0  0  0
 24 30  1  0  0  0  0
 25 24  1  0  0  0  0
 25 23  1  0  0  0  0
 25 31  1  1  0  0  0
 26 32  1  0  0  0  0
 26 25  1  0  0  0  0
 27 26  1  0  0  0  0
 28 27  1  0  0  0  0
 28 29  1  0  0  0  0
 29 36  1  1  0  0  0
 29 37  1  0  0  0  0
 29 24  1  0  0  0  0
 33 26  1  0  0  0  0
 34 28  1  0  0  0  0
 35 28  1  0  0  0  0
 38 37  1  0  0  0  0
M  END
>  <minimizedAffinity>
-6.41689968

>  <minimizedRMSD>
0.653853059

$$$$
