REMARK  Name = 
REMARK  4 active torsions:
REMARK  status: ('A' for Active; 'I' for Inactive)
REMARK    1  A    between atoms: C_3  and  C_17
REMARK    2  A    between atoms: C_7  and  C_10
REMARK    3  A    between atoms: C_14  and  O_15
REMARK    4  A    between atoms: C_36  and  N_37
REMARK                            x       y       z     vdW  Elec       q    Type
REMARK                         _______ _______ _______ _____ _____    ______ ____
ROOT
ATOM      1  F   UNL     1      34.324  30.461  47.605  0.00  0.00    +0.000 F 
ATOM      2  C   UNL     1      34.742  29.991  46.387  0.00  0.00    +0.000 A 
ATOM      3  C   UNL     1      33.877  29.369  45.503  0.00  0.00    +0.000 A 
ATOM      4  C   UNL     1      34.369  28.936  44.286  0.00  0.00    +0.000 A 
ATOM      5  C   UNL     1      35.715  29.122  43.951  0.00  0.00    +0.000 A 
ATOM      6  C   UNL     1      36.522  29.750  44.882  0.00  0.00    +0.000 A 
ATOM      7  C   UNL     1      36.087  30.186  46.076  0.00  0.00    +0.000 A 
ATOM      8  H   UNL     1      33.652  28.461  43.642  0.00  0.00    +0.000 HD
ATOM      9  H   UNL     1      36.057  28.768  42.988  0.00  0.00    +0.000 HD
ATOM     10  H   UNL     1      37.539  29.854  44.548  0.00  0.00    +0.000 HD
ENDROOT
BRANCH   3  12
ATOM     11  C   UNL     1      32.257  28.203  46.847  0.00  0.00    +0.000 A 
ATOM     12  C   UNL     1      32.526  29.239  45.963  0.00  0.00    +0.000 A 
ATOM     13  C   UNL     1      31.478  30.066  45.603  0.00  0.00    +0.000 A 
ATOM     14  N   UNL     1      30.238  29.858  46.105  0.00  0.00    +0.000 NA
ATOM     15  C   UNL     1      30.015  28.848  46.956  0.00  0.00    +0.000 A 
ATOM     16  N   UNL     1      30.995  28.037  47.323  0.00  0.00    +0.000 NA
ATOM     17  H   UNL     1      33.045  27.523  47.163  0.00  0.00    +0.000 HD
ATOM     18  H   UNL     1      31.729  30.874  44.901  0.00  0.00    +0.000 HD
ATOM     19  N   UNL     1      28.652  28.789  47.377  0.00  0.00    +0.000 N 
ATOM     20  C   UNL     1      27.927  27.759  47.892  0.00  0.00    +0.000 A 
ATOM     21  H   UNL     1      28.331  26.780  48.059  0.00  0.00    +0.000 HD
ATOM     22  N   UNL     1      26.663  28.193  48.139  0.00  0.00    +0.000 NA
ATOM     23  C   UNL     1      26.617  29.466  47.780  0.00  0.00    +0.000 A 
ATOM     24  C   UNL     1      25.624  30.420  47.794  0.00  0.00    +0.000 A 
ATOM     25  N   UNL     1      25.840  31.690  47.359  0.00  0.00    +0.000 NA
ATOM     26  C   UNL     1      27.049  32.064  46.892  0.00  0.00    +0.000 A 
ATOM     27  H   UNL     1      27.177  33.083  46.556  0.00  0.00    +0.000 HD
ATOM     28  N   UNL     1      28.028  31.143  46.872  0.00  0.00    +0.000 NA
ATOM     29  C   UNL     1      27.835  29.882  47.298  0.00  0.00    +0.000 A 
BRANCH  24  30
ATOM     30  N   UNL     1      24.309  30.143  48.264  0.00  0.00    +0.000 N 
ATOM     31  H   UNL     1      23.681  30.136  49.094  0.00  0.00    +0.000 HD
ATOM     32  H   UNL     1      23.749  29.811  47.424  0.00  0.00    +0.000 HD
ENDBRANCH  24  30
ENDBRANCH   3  12
BRANCH   7  35
ATOM     33 BR   UNL     1      37.975  32.427  44.968  0.00  0.00    +0.000 Br
ATOM     34  C   UNL     1      37.885  31.842  46.779  0.00  0.00    +0.000 A 
ATOM     35  C   UNL     1      36.995  30.827  47.009  0.00  0.00    +0.000 A 
ATOM     36  C   UNL     1      36.898  30.318  48.317  0.00  0.00    +0.000 A 
ATOM     37  C   UNL     1      37.665  30.822  49.318  0.00  0.00    +0.000 A 
ATOM     38  C   UNL     1      38.543  31.848  49.018  0.00  0.00    +0.000 A 
ATOM     39  C   UNL     1      38.667  32.378  47.733  0.00  0.00    +0.000 A 
ATOM     40  H   UNL     1      36.223  29.517  48.588  0.00  0.00    +0.000 HD
ATOM     41  H   UNL     1      37.605  30.443  50.330  0.00  0.00    +0.000 HD
ATOM     42  H   UNL     1      39.176  32.281  49.792  0.00  0.00    +0.000 HD
BRANCH  39  43
ATOM     43  O   UNL     1      39.503  33.385  47.363  0.00  0.00    +0.000 OA
ATOM     44  H   UNL     1      40.395  33.240  46.943  0.00  0.00    +0.000 HD
ENDBRANCH  39  43
ENDBRANCH   7  35
TORSDOF 4
