
 OpenBabel03272502053D

 44 48  0  0  0  0  0  0  0  0999 V2000
   34.2480   30.2690   47.2730 F   0  0  0  0  0  0  0  0  0  0  0  0
   34.7730   29.9080   46.0600 C   0  0  0  0  0  0  0  0  0  0  0  0
   34.0020   29.3250   45.0690 C   0  0  0  0  0  0  0  0  0  0  0  0
   34.5990   29.0040   43.8650 C   0  0  0  0  0  0  0  0  0  0  0  0
   35.9580   29.2620   43.6480 C   0  0  0  0  0  0  0  0  0  0  0  0
   36.6680   29.8450   44.6820 C   0  0  0  0  0  0  0  0  0  0  0  0
   36.1280   30.1730   45.8680 C   0  0  0  0  0  0  0  0  0  0  0  0
   33.9520   28.5540   43.1350 H   0  0  0  0  0  0  0  0  0  0  0  0
   36.3840   28.9940   42.6910 H   0  0  0  0  0  0  0  0  0  0  0  0
   37.7010   30.0100   44.4350 H   0  0  0  0  0  0  0  0  0  0  0  0
   31.8610   30.2410   45.6760 C   0  0  0  0  0  0  0  0  0  0  0  0
   32.6270   29.1140   45.4130 C   0  0  0  0  0  0  0  0  0  0  0  0
   32.0060   27.8810   45.4960 C   0  0  0  0  0  0  0  0  0  0  0  0
   30.6950   27.7950   45.8230 N   0  0  0  0  0  0  0  0  0  0  0  0
   29.9870   28.9040   46.0690 C   0  0  0  0  0  0  0  0  0  0  0  0
   30.5480   30.1010   45.9990 N   0  0  0  0  0  0  0  0  0  0  0  0
   32.2990   31.2350   45.6250 H   0  0  0  0  0  0  0  0  0  0  0  0
   32.6450   27.0120   45.2830 H   0  0  0  0  0  0  0  0  0  0  0  0
   28.6270   28.6140   46.3950 N   0  0  0  0  0  0  0  0  0  0  0  0
   27.6280   28.0850   45.6370 C   0  0  0  0  0  0  0  0  0  0  0  0
   27.7550   27.7970   44.6120 H   0  0  0  0  0  0  0  0  0  0  0  0
   26.5020   27.9980   46.3950 N   0  0  0  0  0  0  0  0  0  0  0  0
   26.8100   28.4670   47.5940 C   0  0  0  0  0  0  0  0  0  0  0  0
   26.0960   28.6290   48.7600 C   0  0  0  0  0  0  0  0  0  0  0  0
   26.6600   29.1480   49.8830 N   0  0  0  0  0  0  0  0  0  0  0  0
   27.9560   29.5260   49.8940 C   0  0  0  0  0  0  0  0  0  0  0  0
   28.3640   29.9340   50.8080 H   0  0  0  0  0  0  0  0  0  0  0  0
   28.6650   29.3740   48.7630 N   0  0  0  0  0  0  0  0  0  0  0  0
   28.1250   28.8630   47.6410 C   0  0  0  0  0  0  0  0  0  0  0  0
   24.7250   28.2660   48.8690 N   0  0  0  0  0  0  0  0  0  0  0  0
   24.0570   27.5020   49.1080 H   0  0  0  0  0  0  0  0  0  0  0  0
   24.1590   29.1250   48.6000 H   0  0  0  0  0  0  0  0  0  0  0  0
   38.1130   32.4540   45.0460 Br  0  0  0  0  0  0  0  0  0  0  0  0
   37.8450   31.7940   46.8140 C   0  0  0  0  0  0  0  0  0  0  0  0
   36.9380   30.7730   46.9120 C   0  0  0  0  0  0  0  0  0  0  0  0
   36.7130   30.2100   48.1820 C   0  0  0  0  0  0  0  0  0  0  0  0
   37.3760   30.6700   49.2740 C   0  0  0  0  0  0  0  0  0  0  0  0
   38.2780   31.7060   49.1050 C   0  0  0  0  0  0  0  0  0  0  0  0
   38.5280   32.2880   47.8620 C   0  0  0  0  0  0  0  0  0  0  0  0
   36.0160   29.4000   48.3510 H   0  0  0  0  0  0  0  0  0  0  0  0
   37.2170   30.2500   50.2580 H   0  0  0  0  0  0  0  0  0  0  0  0
   38.8300   32.1050   49.9560 H   0  0  0  0  0  0  0  0  0  0  0  0
   39.3950   33.3080   47.6190 O   0  0  0  0  0  0  0  0  0  0  0  0
   40.3240   33.1780   47.2840 H   0  0  0  0  0  0  0  0  0  0  0  0
  2  1  1  0  0  0  0
  3 12  1  0  0  0  0
  3  2  2  0  0  0  0
  4  3  1  0  0  0  0
  5  4  2  0  0  0  0
  5  6  1  0  0  0  0
  6  7  2  0  0  0  0
  7  2  1  0  0  0  0
  7 35  1  0  0  0  0
  8  4  1  0  0  0  0
  9  5  1  0  0  0  0
 10  6  1  0  0  0  0
 11 16  1  0  0  0  0
 12 13  1  0  0  0  0
 12 11  2  0  0  0  0
 13 14  2  0  0  0  0
 14 15  1  0  0  0  0
 15 19  1  0  0  0  0
 16 15  2  0  0  0  0
 17 11  1  0  0  0  0
 18 13  1  0  0  0  0
 19 29  1  0  0  0  0
 20 19  1  0  0  0  0
 20 22  2  0  0  0  0
 21 20  1  0  0  0  0
 22 23  1  0  0  0  0
 23 29  2  0  0  0  0
 23 24  1  0  0  0  0
 24 30  1  0  0  0  0
 24 25  2  0  0  0  0
 25 26  1  0  0  0  0
 26 27  1  0  0  0  0
 28 26  2  0  0  0  0
 29 28  1  0  0  0  0
 30 31  1  0  0  0  0
 32 30  1  0  0  0  0
 33 34  1  0  0  0  0
 34 35  2  0  0  0  0
 34 39  1  0  0  0  0
 35 36  1  0  0  0  0
 36 40  1  0  0  0  0
 36 37  2  0  0  0  0
 37 41  1  0  0  0  0
 38 37  1  0  0  0  0
 38 42  1  0  0  0  0
 39 38  2  0  0  0  0
 43 39  1  0  0  0  0
 44 43  1  0  0  0  0
M  END
>  <minimizedAffinity>
-8.27133846

>  <minimizedRMSD>
1.90389156

$$$$
