
 OpenBabel03272510253D

 50 55  0  0  1  0  0  0  0  0999 V2000
   40.1730   29.0430   41.1450 N   0  0  0  0  0  0  0  0  0  0  0  0
   39.1860   29.3450   40.0840 C   0  0  1  0  0  0  0  0  0  0  0  0
   38.0870   28.3940   40.1940 C   0  0  0  0  0  0  0  0  0  0  0  0
   38.5810   27.1070   39.9120 O   0  0  0  0  0  0  0  0  0  0  0  0
   39.6300   26.7040   40.6850 C   0  0  0  0  0  0  0  0  0  0  0  0
   40.7150   27.7500   40.7920 C   0  0  1  0  0  0  0  0  0  0  0  0
   40.9300   29.7540   41.0440 H   0  0  0  0  0  0  0  0  0  0  0  0
   39.6530   29.2540   39.0910 H   0  0  0  0  0  0  0  0  0  0  0  0
   37.4800   28.2500   41.0450 H   0  0  0  0  0  0  0  0  0  0  0  0
   37.3830   28.5900   39.3270 H   0  0  0  0  0  0  0  0  0  0  0  0
   40.0980   25.8350   40.1790 H   0  0  0  0  0  0  0  0  0  0  0  0
   39.3130   26.3290   41.6840 H   0  0  0  0  0  0  0  0  0  0  0  0
   41.4530   27.3920   41.5330 H   0  0  0  0  0  0  0  0  0  0  0  0
   41.3610   27.8660   39.4790 N   0  0  0  0  0  0  0  0  0  0  0  0
   41.3460   27.0090   38.4420 C   0  0  0  0  0  0  0  0  0  0  0  0
   40.8280   26.0620   38.4270 H   0  0  0  0  0  0  0  0  0  0  0  0
   42.0690   27.4970   37.4190 N   0  0  0  0  0  0  0  0  0  0  0  0
   42.5640   28.6830   37.7800 C   0  0  0  0  0  0  0  0  0  0  0  0
   43.3620   29.5610   37.0760 C   0  0  0  0  0  0  0  0  0  0  0  0
   43.7010   30.6920   37.7240 N   0  0  0  0  0  0  0  0  0  0  0  0
   43.2670   30.9260   38.9940 C   0  0  0  0  0  0  0  0  0  0  0  0
   43.5500   31.8490   39.5100 H   0  0  0  0  0  0  0  0  0  0  0  0
   42.4890   30.0530   39.6600 N   0  0  0  0  0  0  0  0  0  0  0  0
   42.1220   28.9190   39.0760 C   0  0  0  0  0  0  0  0  0  0  0  0
   43.8090   29.3080   35.7510 N   0  0  0  0  0  0  0  0  0  0  0  0
   42.9560   29.4940   35.1600 H   0  0  0  0  0  0  0  0  0  0  0  0
   44.7810   29.0080   35.4990 H   0  0  0  0  0  0  0  0  0  0  0  0
   38.7800   30.6780   40.3690 O   0  0  0  0  0  0  0  0  0  0  0  0
   39.8100   32.6060   45.8640 C   0  0  0  0  0  0  0  0  0  0  0  0
   38.5990   31.9540   46.0900 C   0  0  0  0  0  0  0  0  0  0  0  0
   37.9250   31.3130   45.0630 C   0  0  0  0  0  0  0  0  0  0  0  0
   38.5160   31.3560   43.8070 C   0  0  0  0  0  0  0  0  0  0  0  0
   38.0500   30.8030   42.6470 N   0  0  0  0  0  0  0  0  0  0  0  0
   38.9490   31.0990   41.7000 C   0  0  0  0  0  0  0  0  0  0  0  0
   39.9380   31.8020   42.2070 N   0  0  0  0  0  0  0  0  0  0  0  0
   39.7110   31.9880   43.5340 C   0  0  0  0  0  0  0  0  0  0  0  0
   40.3690   32.6260   44.5920 C   0  0  0  0  0  0  0  0  0  0  0  0
   40.3780   33.1190   46.6250 H   0  0  0  0  0  0  0  0  0  0  0  0
   36.9870   30.8110   45.2520 H   0  0  0  0  0  0  0  0  0  0  0  0
   37.1580   30.2590   42.5540 H   0  0  0  0  0  0  0  0  0  0  0  0
   41.3060   33.1170   44.3650 H   0  0  0  0  0  0  0  0  0  0  0  0
   38.0090   32.8150   49.6990 C   0  0  0  0  0  0  0  0  0  0  0  0
   38.5680   32.8610   48.4260 C   0  0  0  0  0  0  0  0  0  0  0  0
   38.0870   31.9990   47.4480 C   0  0  0  0  0  0  0  0  0  0  0  0
   37.0810   31.1450   47.7940 N   0  0  0  0  0  0  0  0  0  0  0  0
   36.5460   31.1080   49.0320 C   0  0  0  0  0  0  0  0  0  0  0  0
   37.0080   31.9320   49.9610 N   0  0  0  0  0  0  0  0  0  0  0  0
   38.4390   33.5130   50.3930 H   0  0  0  0  0  0  0  0  0  0  0  0
   39.3650   33.5460   48.1710 H   0  0  0  0  0  0  0  0  0  0  0  0
   35.7480   30.4170   49.2750 H   0  0  0  0  0  0  0  0  0  0  0  0
  2  8  1  6  0  0  0
  2  3  1  0  0  0  0
  2 28  1  0  0  0  0
  2  1  1  0  0  0  0
  3  9  1  0  0  0  0
  4  3  1  0  0  0  0
  4  5  1  0  0  0  0
  5  6  1  0  0  0  0
  5 12  1  0  0  0  0
  6  1  1  0  0  0  0
  6 13  1  1  0  0  0
  7  1  1  0  0  0  0
 10  3  1  0  0  0  0
 11  5  1  0  0  0  0
 14  6  1  0  0  0  0
 15 14  1  0  0  0  0
 16 15  1  0  0  0  0
 17 18  1  0  0  0  0
 17 15  2  0  0  0  0
 18 24  1  0  0  0  0
 19 20  1  0  0  0  0
 19 18  2  0  0  0  0
 20 21  2  0  0  0  0
 21 22  1  0  0  0  0
 21 23  1  0  0  0  0
 24 14  1  0  0  0  0
 24 23  2  0  0  0  0
 25 19  1  0  0  0  0
 26 25  1  0  0  0  0
 27 25  1  0  0  0  0
 28 34  1  0  0  0  0
 29 30  1  0  0  0  0
 29 38  1  0  0  0  0
 30 44  1  0  0  0  0
 31 39  1  0  0  0  0
 31 30  2  0  0  0  0
 32 31  1  0  0  0  0
 33 32  1  0  0  0  0
 34 35  2  0  0  0  0
 34 33  1  0  0  0  0
 35 36  1  0  0  0  0
 36 32  2  0  0  0  0
 36 37  1  0  0  0  0
 37 29  2  0  0  0  0
 40 33  1  0  0  0  0
 41 37  1  0  0  0  0
 42 47  1  0  0  0  0
 42 48  1  0  0  0  0
 43 42  2  0  0  0  0
 44 45  2  0  0  0  0
 44 43  1  0  0  0  0
 45 46  1  0  0  0  0
 46 50  1  0  0  0  0
 46 47  2  0  0  0  0
 49 43  1  0  0  0  0
M  END
>  <minimizedAffinity>
-5.8669095

>  <minimizedRMSD>
4.51271439

$$$$
