REMARK  Name = 
REMARK  5 active torsions:
REMARK  status: ('A' for Active; 'I' for Inactive)
REMARK    1  A    between atoms: C_2  and  C_12
REMARK    2  A    between atoms: C_6  and  O_16
REMARK    3  A    between atoms: O_16  and  C_18
REMARK    4  A    between atoms: C_22  and  N_37
REMARK    5  A    between atoms: C_42  and  N_43
REMARK                            x       y       z     vdW  Elec       q    Type
REMARK                         _______ _______ _______ _____ _____    ______ ____
ROOT
ATOM      1  N   UNL     1      39.554  31.847  41.721  0.00  0.00    +0.000 NA
ATOM      2  C   UNL     1      39.206  33.278  41.866  0.00  0.00    +0.000 C 
ATOM      3  C   UNL     1      37.798  33.446  41.526  0.00  0.00    +0.000 C 
ATOM      4  O   UNL     1      37.629  33.140  40.163  0.00  0.00    +0.000 OA
ATOM      5  C   UNL     1      38.058  31.901  39.787  0.00  0.00    +0.000 C 
ATOM      6  C   UNL     1      39.441  31.578  40.305  0.00  0.00    +0.000 C 
ATOM      7  H   UNL     1      40.559  31.767  41.990  0.00  0.00    +0.000 HD
ATOM      8  H   UNL     1      39.823  33.891  41.191  0.00  0.00    +0.000 HD
ATOM      9  H   UNL     1      36.989  32.958  41.996  0.00  0.00    +0.000 HD
ATOM     10  H   UNL     1      37.572  34.556  41.566  0.00  0.00    +0.000 HD
ATOM     11  H   UNL     1      38.144  31.903  38.681  0.00  0.00    +0.000 HD
ATOM     12  H   UNL     1      37.326  31.097  40.026  0.00  0.00    +0.000 HD
ATOM     13  H   UNL     1      39.649  30.519  40.065  0.00  0.00    +0.000 HD
ENDROOT
BRANCH   6  14
ATOM     14  N   UNL     1      40.399  32.435  39.597  0.00  0.00    +0.000 N 
ATOM     15  C   UNL     1      40.181  33.336  38.622  0.00  0.00    +0.000 A 
ATOM     16  H   UNL     1      39.217  33.571  38.198  0.00  0.00    +0.000 HD
ATOM     17  N   UNL     1      41.338  33.909  38.245  0.00  0.00    +0.000 NA
ATOM     18  C   UNL     1      42.326  33.384  38.973  0.00  0.00    +0.000 A 
ATOM     19  C   UNL     1      43.679  33.649  38.951  0.00  0.00    +0.000 A 
ATOM     20  N   UNL     1      44.428  32.945  39.821  0.00  0.00    +0.000 NA
ATOM     21  C   UNL     1      43.856  32.034  40.657  0.00  0.00    +0.000 A 
ATOM     22  H   UNL     1      44.475  31.469  41.359  0.00  0.00    +0.000 HD
ATOM     23  N   UNL     1      42.532  31.794  40.659  0.00  0.00    +0.000 NA
ATOM     24  C   UNL     1      41.740  32.456  39.825  0.00  0.00    +0.000 A 
BRANCH  19  25
ATOM     25  N   UNL     1      44.267  34.602  38.074  0.00  0.00    +0.000 N 
ATOM     26  H   UNL     1      44.018  35.528  38.510  0.00  0.00    +0.000 HD
ATOM     27  H   UNL     1      44.810  34.358  37.211  0.00  0.00    +0.000 HD
ENDBRANCH  19  25
ENDBRANCH   6  14
BRANCH   2  28
ATOM     28  O   UNL     1      39.469  33.553  43.236  0.00  0.00    +0.000 OA
BRANCH  28  34
ATOM     29  C   UNL     1      36.236  30.185  46.866  0.00  0.00    +0.000 A 
ATOM     30  C   UNL     1      37.078  30.769  47.811  0.00  0.00    +0.000 A 
ATOM     31  C   UNL     1      38.057  31.676  47.437  0.00  0.00    +0.000 A 
ATOM     32  C   UNL     1      38.153  31.968  46.083  0.00  0.00    +0.000 A 
ATOM     33  N   UNL     1      39.029  32.823  45.475  0.00  0.00    +0.000 N 
ATOM     34  C   UNL     1      38.749  32.782  44.166  0.00  0.00    +0.000 A 
ATOM     35  N   UNL     1      37.755  31.952  43.933  0.00  0.00    +0.000 NA
ATOM     36  C   UNL     1      37.345  31.416  45.112  0.00  0.00    +0.000 A 
ATOM     37  C   UNL     1      36.364  30.503  45.519  0.00  0.00    +0.000 A 
ATOM     38  H   UNL     1      35.457  29.475  47.099  0.00  0.00    +0.000 HD
ATOM     39  H   UNL     1      38.703  32.123  48.180  0.00  0.00    +0.000 HD
ATOM     40  H   UNL     1      39.764  33.386  45.968  0.00  0.00    +0.000 HD
ATOM     41  H   UNL     1      35.736  30.078  44.748  0.00  0.00    +0.000 HD
BRANCH  30  44
ATOM     42  C   UNL     1      37.501  30.174  51.496  0.00  0.00    +0.000 A 
ATOM     43  C   UNL     1      37.790  30.615  50.209  0.00  0.00    +0.000 A 
ATOM     44  C   UNL     1      36.878  30.364  49.190  0.00  0.00    +0.000 A 
ATOM     45  N   UNL     1      35.736  29.691  49.513  0.00  0.00    +0.000 NA
ATOM     46  C   UNL     1      35.465  29.268  50.765  0.00  0.00    +0.000 A 
ATOM     47  N   UNL     1      36.338  29.510  51.732  0.00  0.00    +0.000 NA
ATOM     48  H   UNL     1      38.258  30.409  52.221  0.00  0.00    +0.000 HD
ATOM     49  H   UNL     1      38.701  31.147  49.972  0.00  0.00    +0.000 HD
ATOM     50  H   UNL     1      34.549  28.736  50.989  0.00  0.00    +0.000 HD
ENDBRANCH  30  44
ENDBRANCH  28  34
ENDBRANCH   2  28
TORSDOF 5
