
 OpenBabel03272510283D

 50 55  0  0  1  0  0  0  0  0999 V2000
   38.9230   23.1200   31.6780 N   0  0  0  0  0  0  0  0  0  0  0  0
   38.9220   24.5580   32.0270 C   0  0  1  0  0  0  0  0  0  0  0  0
   40.2240   25.1170   31.6830 C   0  0  0  0  0  0  0  0  0  0  0  0
   41.1970   24.5170   32.5040 O   0  0  0  0  0  0  0  0  0  0  0  0
   41.2420   23.1550   32.4530 C   0  0  0  0  0  0  0  0  0  0  0  0
   39.8770   22.5180   32.5820 C   0  0  1  0  0  0  0  0  0  0  0  0
   37.9720   22.7650   31.9210 H   0  0  0  0  0  0  0  0  0  0  0  0
   38.7390   24.6890   33.1050 H   0  0  0  0  0  0  0  0  0  0  0  0
   40.6630   25.1080   30.7240 H   0  0  0  0  0  0  0  0  0  0  0  0
   40.2300   26.1960   32.0300 H   0  0  0  0  0  0  0  0  0  0  0  0
   41.8190   22.8100   33.3360 H   0  0  0  0  0  0  0  0  0  0  0  0
   41.7980   22.7710   31.5680 H   0  0  0  0  0  0  0  0  0  0  0  0
   39.9950   21.4340   32.4010 H   0  0  0  0  0  0  0  0  0  0  0  0
   39.4070   22.7340   33.9560 N   0  0  0  0  0  0  0  0  0  0  0  0
   38.2520   23.2700   34.3890 C   0  0  0  0  0  0  0  0  0  0  0  0
   37.4610   23.6380   33.7530 H   0  0  0  0  0  0  0  0  0  0  0  0
   38.2150   23.2830   35.7330 N   0  0  0  0  0  0  0  0  0  0  0  0
   39.3520   22.7530   36.1920 C   0  0  0  0  0  0  0  0  0  0  0  0
   39.7750   22.5530   37.4890 C   0  0  0  0  0  0  0  0  0  0  0  0
   40.9900   21.9880   37.6280 N   0  0  0  0  0  0  0  0  0  0  0  0
   41.7300   21.6470   36.5360 C   0  0  0  0  0  0  0  0  0  0  0  0
   42.7150   21.1880   36.6630 H   0  0  0  0  0  0  0  0  0  0  0  0
   41.2940   21.8530   35.2800 N   0  0  0  0  0  0  0  0  0  0  0  0
   40.1050   22.4070   35.0770 C   0  0  0  0  0  0  0  0  0  0  0  0
   38.9950   22.9130   38.6220 N   0  0  0  0  0  0  0  0  0  0  0  0
   38.2600   22.1590   38.6670 H   0  0  0  0  0  0  0  0  0  0  0  0
   39.1740   23.7520   39.2240 H   0  0  0  0  0  0  0  0  0  0  0  0
   37.8730   25.0990   31.2330 O   0  0  0  0  0  0  0  0  0  0  0  0
   35.7230   30.4090   32.7000 C   0  0  0  0  0  0  0  0  0  0  0  0
   35.6160   29.7860   33.9420 C   0  0  0  0  0  0  0  0  0  0  0  0
   36.0110   28.4690   34.1210 C   0  0  0  0  0  0  0  0  0  0  0  0
   36.5140   27.8110   33.0060 C   0  0  0  0  0  0  0  0  0  0  0  0
   36.9640   26.5230   32.9320 N   0  0  0  0  0  0  0  0  0  0  0  0
   37.3500   26.3310   31.6630 C   0  0  0  0  0  0  0  0  0  0  0  0
   37.1610   27.4230   30.9540 N   0  0  0  0  0  0  0  0  0  0  0  0
   36.6370   28.3840   31.7580 C   0  0  0  0  0  0  0  0  0  0  0  0
   36.2310   29.7160   31.6070 C   0  0  0  0  0  0  0  0  0  0  0  0
   35.4330   31.4300   32.5020 H   0  0  0  0  0  0  0  0  0  0  0  0
   35.9250   27.9980   35.0900 H   0  0  0  0  0  0  0  0  0  0  0  0
   36.9900   25.8450   33.7310 H   0  0  0  0  0  0  0  0  0  0  0  0
   36.3340   30.1540   30.6240 H   0  0  0  0  0  0  0  0  0  0  0  0
   35.1720   32.1900   36.7940 C   0  0  0  0  0  0  0  0  0  0  0  0
   35.8050   31.4800   35.7790 C   0  0  0  0  0  0  0  0  0  0  0  0
   35.0610   30.5850   35.0180 C   0  0  0  0  0  0  0  0  0  0  0  0
   33.7360   30.4510   35.3130 N   0  0  0  0  0  0  0  0  0  0  0  0
   33.1320   31.1450   36.3000 C   0  0  0  0  0  0  0  0  0  0  0  0
   33.8460   31.9970   37.0210 N   0  0  0  0  0  0  0  0  0  0  0  0
   35.8190   32.8580   37.3310 H   0  0  0  0  0  0  0  0  0  0  0  0
   36.8570   31.6000   35.5600 H   0  0  0  0  0  0  0  0  0  0  0  0
   32.0770   31.0160   36.5090 H   0  0  0  0  0  0  0  0  0  0  0  0
  1  7  1  0  0  0  0
  1  2  1  0  0  0  0
  1  6  1  0  0  0  0
  2  8  1  1  0  0  0
  3  2  1  0  0  0  0
  3 10  1  0  0  0  0
  3  4  1  0  0  0  0
  5  4  1  0  0  0  0
  5  6  1  0  0  0  0
  5 11  1  0  0  0  0
  6 13  1  6  0  0  0
  6 14  1  0  0  0  0
  9  3  1  0  0  0  0
 12  5  1  0  0  0  0
 14 15  1  0  0  0  0
 14 24  1  0  0  0  0
 15 17  2  0  0  0  0
 16 15  1  0  0  0  0
 17 18  1  0  0  0  0
 18 19  1  0  0  0  0
 19 20  2  0  0  0  0
 19 25  1  0  0  0  0
 21 22  1  0  0  0  0
 21 20  1  0  0  0  0
 23 21  2  0  0  0  0
 24 23  1  0  0  0  0
 24 18  2  0  0  0  0
 25 26  1  0  0  0  0
 25 27  1  0  0  0  0
 28 34  1  0  0  0  0
 28  2  1  0  0  0  0
 29 30  1  0  0  0  0
 30 31  2  0  0  0  0
 30 44  1  0  0  0  0
 31 39  1  0  0  0  0
 32 31  1  0  0  0  0
 33 32  1  0  0  0  0
 33 40  1  0  0  0  0
 34 33  1  0  0  0  0
 35 34  2  0  0  0  0
 35 36  1  0  0  0  0
 36 32  2  0  0  0  0
 37 36  1  0  0  0  0
 37 29  2  0  0  0  0
 38 29  1  0  0  0  0
 41 37  1  0  0  0  0
 42 47  1  0  0  0  0
 42 48  1  0  0  0  0
 43 42  2  0  0  0  0
 44 45  2  0  0  0  0
 44 43  1  0  0  0  0
 45 46  1  0  0  0  0
 46 50  1  0  0  0  0
 46 47  2  0  0  0  0
 49 43  1  0  0  0  0
M  END
>  <minimizedAffinity>
-6.88909578

$$$$

 OpenBabel03272510283D

 50 55  0  0  1  0  0  0  0  0999 V2000
   39.2460   23.7710   32.8560 N   0  0  0  0  0  0  0  0  0  0  0  0
   38.5660   24.9450   33.4460 C   0  0  1  0  0  0  0  0  0  0  0  0
   39.5840   25.8840   33.9040 C   0  0  0  0  0  0  0  0  0  0  0  0
   40.3050   25.2830   34.9530 O   0  0  0  0  0  0  0  0  0  0  0  0
   40.8760   24.0810   34.6530 C   0  0  0  0  0  0  0  0  0  0  0  0
   39.9190   23.1340   33.9660 C   0  0  1  0  0  0  0  0  0  0  0  0
   38.4870   23.1350   32.5260 H   0  0  0  0  0  0  0  0  0  0  0  0
   37.9410   24.6360   34.2980 H   0  0  0  0  0  0  0  0  0  0  0  0
   40.3320   26.3220   33.3030 H   0  0  0  0  0  0  0  0  0  0  0  0
   39.0460   26.7370   34.4230 H   0  0  0  0  0  0  0  0  0  0  0  0
   41.1440   23.5940   35.6130 H   0  0  0  0  0  0  0  0  0  0  0  0
   41.8340   24.1830   34.0950 H   0  0  0  0  0  0  0  0  0  0  0  0
   40.4980   22.2470   33.6480 H   0  0  0  0  0  0  0  0  0  0  0  0
   38.9050   22.7270   34.9460 N   0  0  0  0  0  0  0  0  0  0  0  0
   38.8450   22.9780   36.2660 C   0  0  0  0  0  0  0  0  0  0  0  0
   39.5740   23.5450   36.8250 H   0  0  0  0  0  0  0  0  0  0  0  0
   37.7430   22.4220   36.8000 N   0  0  0  0  0  0  0  0  0  0  0  0
   37.0710   21.8000   35.8270 C   0  0  0  0  0  0  0  0  0  0  0  0
   35.8890   21.0920   35.8820 C   0  0  0  0  0  0  0  0  0  0  0  0
   35.4600   20.5760   34.7140 N   0  0  0  0  0  0  0  0  0  0  0  0
   36.1730   20.7610   33.5670 C   0  0  0  0  0  0  0  0  0  0  0  0
   35.8130   20.3380   32.6240 H   0  0  0  0  0  0  0  0  0  0  0  0
   37.3240   21.4580   33.5400 N   0  0  0  0  0  0  0  0  0  0  0  0
   37.7980   21.9900   34.6600 C   0  0  0  0  0  0  0  0  0  0  0  0
   35.1530   20.9040   37.0850 N   0  0  0  0  0  0  0  0  0  0  0  0
   34.6870   21.8370   37.2380 H   0  0  0  0  0  0  0  0  0  0  0  0
   35.1310   20.0130   37.6340 H   0  0  0  0  0  0  0  0  0  0  0  0
   37.7950   25.4650   32.3710 O   0  0  0  0  0  0  0  0  0  0  0  0
   35.5960   30.9340   32.8440 C   0  0  0  0  0  0  0  0  0  0  0  0
   35.4010   30.5120   34.1580 C   0  0  0  0  0  0  0  0  0  0  0  0
   35.7730   29.2410   34.5660 C   0  0  0  0  0  0  0  0  0  0  0  0
   36.3430   28.4180   33.6040 C   0  0  0  0  0  0  0  0  0  0  0  0
   36.7870   27.1350   33.7620 N   0  0  0  0  0  0  0  0  0  0  0  0
   37.2540   26.7480   32.5680 C   0  0  0  0  0  0  0  0  0  0  0  0
   37.1220   27.7150   31.6850 N   0  0  0  0  0  0  0  0  0  0  0  0
   36.5540   28.7890   32.2930 C   0  0  0  0  0  0  0  0  0  0  0  0
   36.1690   30.0800   31.9090 C   0  0  0  0  0  0  0  0  0  0  0  0
   35.3280   31.9110   32.4700 H   0  0  0  0  0  0  0  0  0  0  0  0
   35.6180   28.9260   35.5890 H   0  0  0  0  0  0  0  0  0  0  0  0
   36.7530   26.5900   34.6570 H   0  0  0  0  0  0  0  0  0  0  0  0
   36.3410   30.3590   30.8790 H   0  0  0  0  0  0  0  0  0  0  0  0
   34.6410   32.7610   37.0700 C   0  0  0  0  0  0  0  0  0  0  0  0
   35.3240   31.8400   36.2820 C   0  0  0  0  0  0  0  0  0  0  0  0
   34.7820   31.4690   35.0570 C   0  0  0  0  0  0  0  0  0  0  0  0
   33.5960   32.0350   34.6900 N   0  0  0  0  0  0  0  0  0  0  0  0
   32.9420   32.9280   35.4620 C   0  0  0  0  0  0  0  0  0  0  0  0
   33.4640   33.2780   36.6280 N   0  0  0  0  0  0  0  0  0  0  0  0
   35.1290   32.9910   37.9990 H   0  0  0  0  0  0  0  0  0  0  0  0
   36.2630   31.4010   36.5900 H   0  0  0  0  0  0  0  0  0  0  0  0
   32.0020   33.3600   35.1420 H   0  0  0  0  0  0  0  0  0  0  0  0
  1  2  1  0  0  0  0
  1  6  1  0  0  0  0
  2  3  1  0  0  0  0
  2  8  1  1  0  0  0
  3 10  1  0  0  0  0
  3  4  1  0  0  0  0
  5  4  1  0  0  0  0
  5 11  1  0  0  0  0
  6 13  1  6  0  0  0
  6  5  1  0  0  0  0
  6 14  1  0  0  0  0
  7  1  1  0  0  0  0
  9  3  1  0  0  0  0
 12  5  1  0  0  0  0
 14 15  1  0  0  0  0
 15 17  2  0  0  0  0
 15 16  1  0  0  0  0
 18 19  1  0  0  0  0
 18 17  1  0  0  0  0
 19 25  1  0  0  0  0
 20 19  2  0  0  0  0
 21 20  1  0  0  0  0
 22 21  1  0  0  0  0
 23 21  2  0  0  0  0
 23 24  1  0  0  0  0
 24 14  1  0  0  0  0
 24 18  2  0  0  0  0
 25 26  1  0  0  0  0
 25 27  1  0  0  0  0
 28 34  1  0  0  0  0
 28  2  1  0  0  0  0
 29 30  1  0  0  0  0
 30 31  2  0  0  0  0
 30 44  1  0  0  0  0
 31 39  1  0  0  0  0
 32 33  1  0  0  0  0
 32 31  1  0  0  0  0
 33 40  1  0  0  0  0
 34 33  1  0  0  0  0
 35 36  1  0  0  0  0
 35 34  2  0  0  0  0
 36 32  2  0  0  0  0
 37 36  1  0  0  0  0
 37 29  2  0  0  0  0
 38 29  1  0  0  0  0
 41 37  1  0  0  0  0
 42 48  1  0  0  0  0
 43 49  1  0  0  0  0
 43 42  2  0  0  0  0
 44 43  1  0  0  0  0
 45 44  2  0  0  0  0
 45 46  1  0  0  0  0
 46 47  2  0  0  0  0
 47 42  1  0  0  0  0
 50 46  1  0  0  0  0
M  END
>  <minimizedAffinity>
-6.87150717

$$$$

 OpenBabel03272510283D

 50 55  0  0  1  0  0  0  0  0999 V2000
   35.5320   30.8040   34.2840 N   0  0  0  0  0  0  0  0  0  0  0  0
   34.8290   31.9110   33.5990 C   0  0  1  0  0  0  0  0  0  0  0  0
   35.6690   33.1010   33.6670 C   0  0  0  0  0  0  0  0  0  0  0  0
   35.7850   33.4880   35.0150 O   0  0  0  0  0  0  0  0  0  0  0  0
   36.2630   32.5280   35.8580 C   0  0  0  0  0  0  0  0  0  0  0  0
   35.5750   31.1940   35.6760 C   0  0  1  0  0  0  0  0  0  0  0  0
   34.9100   29.9710   34.1970 H   0  0  0  0  0  0  0  0  0  0  0  0
   33.8650   32.1130   34.0910 H   0  0  0  0  0  0  0  0  0  0  0  0
   36.6530   33.1820   33.2960 H   0  0  0  0  0  0  0  0  0  0  0  0
   35.0810   33.9550   33.2090 H   0  0  0  0  0  0  0  0  0  0  0  0
   36.0270   32.8490   36.8930 H   0  0  0  0  0  0  0  0  0  0  0  0
   37.3720   32.4320   35.8220 H   0  0  0  0  0  0  0  0  0  0  0  0
   36.1100   30.4540   36.2990 H   0  0  0  0  0  0  0  0  0  0  0  0
   34.1950   31.3300   36.1570 N   0  0  0  0  0  0  0  0  0  0  0  0
   33.6690   32.2410   36.9950 C   0  0  0  0  0  0  0  0  0  0  0  0
   34.2160   33.0470   37.4590 H   0  0  0  0  0  0  0  0  0  0  0  0
   32.3560   32.0100   37.1770 N   0  0  0  0  0  0  0  0  0  0  0  0
   32.0130   30.9390   36.4550 C   0  0  0  0  0  0  0  0  0  0  0  0
   30.7880   30.3210   36.3180 C   0  0  0  0  0  0  0  0  0  0  0  0
   30.7630   29.2460   35.5060 N   0  0  0  0  0  0  0  0  0  0  0  0
   31.8930   28.8220   34.8740 C   0  0  0  0  0  0  0  0  0  0  0  0
   31.8580   27.9480   34.2170 H   0  0  0  0  0  0  0  0  0  0  0  0
   33.0770   29.4440   35.0250 N   0  0  0  0  0  0  0  0  0  0  0  0
   33.1660   30.5090   35.8120 C   0  0  0  0  0  0  0  0  0  0  0  0
   29.6140   30.7710   36.9820 N   0  0  0  0  0  0  0  0  0  0  0  0
   29.3290   31.6230   36.4310 H   0  0  0  0  0  0  0  0  0  0  0  0
   29.1930   30.3070   37.8220 H   0  0  0  0  0  0  0  0  0  0  0  0
   34.6680   31.4370   32.2680 O   0  0  0  0  0  0  0  0  0  0  0  0
   37.8770   26.6850   30.8210 C   0  0  0  0  0  0  0  0  0  0  0  0
   36.7080   26.0390   31.2200 C   0  0  0  0  0  0  0  0  0  0  0  0
   35.6080   26.7560   31.6670 C   0  0  0  0  0  0  0  0  0  0  0  0
   35.7340   28.1380   31.6960 C   0  0  0  0  0  0  0  0  0  0  0  0
   34.7980   29.0520   32.0920 N   0  0  0  0  0  0  0  0  0  0  0  0
   35.3630   30.2570   31.9490 C   0  0  0  0  0  0  0  0  0  0  0  0
   36.5900   30.1390   31.4900 N   0  0  0  0  0  0  0  0  0  0  0  0
   36.8680   28.8210   31.3130 C   0  0  0  0  0  0  0  0  0  0  0  0
   37.9640   28.0720   30.8660 C   0  0  0  0  0  0  0  0  0  0  0  0
   38.7610   26.1800   30.4640 H   0  0  0  0  0  0  0  0  0  0  0  0
   34.7070   26.2430   31.9720 H   0  0  0  0  0  0  0  0  0  0  0  0
   33.8340   28.8190   32.4350 H   0  0  0  0  0  0  0  0  0  0  0  0
   38.8470   28.6200   30.5680 H   0  0  0  0  0  0  0  0  0  0  0  0
   35.7370   22.4130   31.3570 C   0  0  0  0  0  0  0  0  0  0  0  0
   35.6150   23.7950   31.4470 C   0  0  0  0  0  0  0  0  0  0  0  0
   36.7170   24.5900   31.1520 C   0  0  0  0  0  0  0  0  0  0  0  0
   37.8720   23.9620   30.7870 N   0  0  0  0  0  0  0  0  0  0  0  0
   37.9790   22.6190   30.7020 C   0  0  0  0  0  0  0  0  0  0  0  0
   36.9250   21.8680   30.9850 N   0  0  0  0  0  0  0  0  0  0  0  0
   34.8390   21.8760   31.6020 H   0  0  0  0  0  0  0  0  0  0  0  0
   34.6910   24.2760   31.7390 H   0  0  0  0  0  0  0  0  0  0  0  0
   38.9100   22.1510   30.4090 H   0  0  0  0  0  0  0  0  0  0  0  0
  1  6  1  0  0  0  0
  2  3  1  0  0  0  0
  2  8  1  1  0  0  0
  2  1  1  0  0  0  0
  3  4  1  0  0  0  0
  4  5  1  0  0  0  0
  5 11  1  0  0  0  0
  6  5  1  0  0  0  0
  6 14  1  0  0  0  0
  6 13  1  1  0  0  0
  7  1  1  0  0  0  0
  9  3  1  0  0  0  0
 10  3  1  0  0  0  0
 12  5  1  0  0  0  0
 14 15  1  0  0  0  0
 15 17  2  0  0  0  0
 15 16  1  0  0  0  0
 18 17  1  0  0  0  0
 19 18  1  0  0  0  0
 19 25  1  0  0  0  0
 20 19  2  0  0  0  0
 21 23  2  0  0  0  0
 21 20  1  0  0  0  0
 22 21  1  0  0  0  0
 23 24  1  0  0  0  0
 24 14  1  0  0  0  0
 24 18  2  0  0  0  0
 25 27  1  0  0  0  0
 26 25  1  0  0  0  0
 28  2  1  0  0  0  0
 29 37  2  0  0  0  0
 29 30  1  0  0  0  0
 30 31  2  0  0  0  0
 31 32  1  0  0  0  0
 31 39  1  0  0  0  0
 32 33  1  0  0  0  0
 33 40  1  0  0  0  0
 34 33  1  0  0  0  0
 34 28  1  0  0  0  0
 35 34  2  0  0  0  0
 36 35  1  0  0  0  0
 36 32  2  0  0  0  0
 37 36  1  0  0  0  0
 38 29  1  0  0  0  0
 41 37  1  0  0  0  0
 42 43  1  0  0  0  0
 42 48  1  0  0  0  0
 43 49  1  0  0  0  0
 44 30  1  0  0  0  0
 44 43  2  0  0  0  0
 45 44  1  0  0  0  0
 46 45  2  0  0  0  0
 46 47  1  0  0  0  0
 47 42  2  0  0  0  0
 50 46  1  0  0  0  0
M  END
>  <minimizedAffinity>
-6.2484622

$$$$

 OpenBabel03272510283D

 50 55  0  0  1  0  0  0  0  0999 V2000
   37.9820   21.4160   33.7380 N   0  0  0  0  0  0  0  0  0  0  0  0
   36.7570   21.7710   34.4880 C   0  0  1  0  0  0  0  0  0  0  0  0
   35.9070   20.5880   34.5680 C   0  0  0  0  0  0  0  0  0  0  0  0
   35.4860   20.2530   33.2680 O   0  0  0  0  0  0  0  0  0  0  0  0
   36.4880   20.0510   32.3650 C   0  0  0  0  0  0  0  0  0  0  0  0
   37.5300   21.1450   32.3920 C   0  0  1  0  0  0  0  0  0  0  0  0
   38.5680   22.2790   33.7190 H   0  0  0  0  0  0  0  0  0  0  0  0
   36.2150   22.5790   33.9720 H   0  0  0  0  0  0  0  0  0  0  0  0
   36.1820   19.6610   34.9910 H   0  0  0  0  0  0  0  0  0  0  0  0
   34.9430   20.9010   35.0750 H   0  0  0  0  0  0  0  0  0  0  0  0
   36.0340   20.0920   31.3540 H   0  0  0  0  0  0  0  0  0  0  0  0
   36.9450   19.0390   32.4440 H   0  0  0  0  0  0  0  0  0  0  0  0
   38.3590   20.8340   31.7290 H   0  0  0  0  0  0  0  0  0  0  0  0
   36.9140   22.3670   31.8600 N   0  0  0  0  0  0  0  0  0  0  0  0
   35.6870   22.5480   31.3410 C   0  0  0  0  0  0  0  0  0  0  0  0
   34.9370   21.7780   31.2350 H   0  0  0  0  0  0  0  0  0  0  0  0
   35.5170   23.8300   30.9700 N   0  0  0  0  0  0  0  0  0  0  0  0
   36.6400   24.5000   31.2450 C   0  0  0  0  0  0  0  0  0  0  0  0
   36.9470   25.8300   31.0480 C   0  0  0  0  0  0  0  0  0  0  0  0
   38.1800   26.2090   31.4350 N   0  0  0  0  0  0  0  0  0  0  0  0
   39.0460   25.3120   31.9850 C   0  0  0  0  0  0  0  0  0  0  0  0
   40.0440   25.6340   32.2960 H   0  0  0  0  0  0  0  0  0  0  0  0
   38.7210   24.0190   32.1670 N   0  0  0  0  0  0  0  0  0  0  0  0
   37.5200   23.5840   31.8050 C   0  0  0  0  0  0  0  0  0  0  0  0
   36.0360   26.7580   30.4720 N   0  0  0  0  0  0  0  0  0  0  0  0
   35.3570   26.9550   31.2540 H   0  0  0  0  0  0  0  0  0  0  0  0
   36.0950   27.1160   29.4900 H   0  0  0  0  0  0  0  0  0  0  0  0
   37.2440   22.1750   35.7610 O   0  0  0  0  0  0  0  0  0  0  0  0
   42.9870   23.5330   36.1470 C   0  0  0  0  0  0  0  0  0  0  0  0
   42.5590   24.6290   35.4000 C   0  0  0  0  0  0  0  0  0  0  0  0
   41.2300   24.7740   35.0350 C   0  0  0  0  0  0  0  0  0  0  0  0
   40.3570   23.7770   35.4490 C   0  0  0  0  0  0  0  0  0  0  0  0
   39.0120   23.6980   35.2160 N   0  0  0  0  0  0  0  0  0  0  0  0
   38.5940   22.5700   35.8040 C   0  0  0  0  0  0  0  0  0  0  0  0
   39.6000   21.9510   36.3830 N   0  0  0  0  0  0  0  0  0  0  0  0
   40.7320   22.6750   36.1870 C   0  0  0  0  0  0  0  0  0  0  0  0
   42.0820   22.5550   36.5420 C   0  0  0  0  0  0  0  0  0  0  0  0
   44.0070   23.3690   36.4600 H   0  0  0  0  0  0  0  0  0  0  0  0
   40.9100   25.6300   34.4570 H   0  0  0  0  0  0  0  0  0  0  0  0
   38.4500   24.4010   34.6790 H   0  0  0  0  0  0  0  0  0  0  0  0
   42.3640   21.6870   37.1220 H   0  0  0  0  0  0  0  0  0  0  0  0
   45.6950   26.6920   35.2460 C   0  0  0  0  0  0  0  0  0  0  0  0
   44.7910   25.7320   35.6890 C   0  0  0  0  0  0  0  0  0  0  0  0
   43.5790   25.5900   35.0220 C   0  0  0  0  0  0  0  0  0  0  0  0
   43.3410   26.4090   33.9570 N   0  0  0  0  0  0  0  0  0  0  0  0
   44.2250   27.3360   33.5350 C   0  0  0  0  0  0  0  0  0  0  0  0
   45.3790   27.4680   34.1750 N   0  0  0  0  0  0  0  0  0  0  0  0
   46.6040   26.7350   35.8170 H   0  0  0  0  0  0  0  0  0  0  0  0
   44.9970   25.0920   36.5350 H   0  0  0  0  0  0  0  0  0  0  0  0
   44.0060   27.9720   32.6860 H   0  0  0  0  0  0  0  0  0  0  0  0
  1  2  1  0  0  0  0
  2  8  1  6  0  0  0
  2  3  1  0  0  0  0
  2 28  1  0  0  0  0
  3  9  1  0  0  0  0
  3 10  1  0  0  0  0
  4  3  1  0  0  0  0
  5  6  1  0  0  0  0
  5 12  1  0  0  0  0
  5  4  1  0  0  0  0
  6 13  1  6  0  0  0
  6  1  1  0  0  0  0
  7  1  1  0  0  0  0
 11  5  1  0  0  0  0
 14  6  1  0  0  0  0
 15 14  1  0  0  0  0
 16 15  1  0  0  0  0
 17 18  1  0  0  0  0
 17 15  2  0  0  0  0
 18 24  1  0  0  0  0
 19 18  2  0  0  0  0
 19 20  1  0  0  0  0
 20 21  2  0  0  0  0
 21 23  1  0  0  0  0
 21 22  1  0  0  0  0
 24 14  1  0  0  0  0
 24 23  2  0  0  0  0
 25 19  1  0  0  0  0
 25 26  1  0  0  0  0
 27 25  1  0  0  0  0
 28 34  1  0  0  0  0
 29 38  1  0  0  0  0
 29 37  1  0  0  0  0
 30 29  2  0  0  0  0
 31 30  1  0  0  0  0
 31 32  2  0  0  0  0
 32 36  1  0  0  0  0
 33 32  1  0  0  0  0
 33 34  1  0  0  0  0
 34 35  2  0  0  0  0
 36 35  1  0  0  0  0
 36 37  2  0  0  0  0
 37 41  1  0  0  0  0
 39 31  1  0  0  0  0
 40 33  1  0  0  0  0
 42 43  1  0  0  0  0
 42 48  1  0  0  0  0
 43 49  1  0  0  0  0
 44 30  1  0  0  0  0
 44 43  2  0  0  0  0
 45 44  1  0  0  0  0
 46 45  2  0  0  0  0
 46 47  1  0  0  0  0
 47 42  2  0  0  0  0
 50 46  1  0  0  0  0
M  END
>  <minimizedAffinity>
-6.23568964

$$$$

 OpenBabel03272510283D

 50 55  0  0  1  0  0  0  0  0999 V2000
   36.4450   26.1660   30.6190 N   0  0  0  0  0  0  0  0  0  0  0  0
   37.3380   27.3040   30.9320 C   0  0  1  0  0  0  0  0  0  0  0  0
   38.5130   27.2160   30.0740 C   0  0  0  0  0  0  0  0  0  0  0  0
   39.2290   26.0540   30.4150 O   0  0  0  0  0  0  0  0  0  0  0  0
   38.5160   24.8930   30.3540 C   0  0  0  0  0  0  0  0  0  0  0  0
   37.1750   24.9920   31.0430 C   0  0  1  0  0  0  0  0  0  0  0  0
   35.6120   26.2750   31.2370 H   0  0  0  0  0  0  0  0  0  0  0  0
   37.6490   27.2650   31.9870 H   0  0  0  0  0  0  0  0  0  0  0  0
   38.5060   27.2070   29.0190 H   0  0  0  0  0  0  0  0  0  0  0  0
   39.2190   28.0480   30.3830 H   0  0  0  0  0  0  0  0  0  0  0  0
   39.0870   24.1250   30.9160 H   0  0  0  0  0  0  0  0  0  0  0  0
   38.4240   24.4940   29.3190 H   0  0  0  0  0  0  0  0  0  0  0  0
   36.6200   24.0590   30.8330 H   0  0  0  0  0  0  0  0  0  0  0  0
   37.4160   25.0990   32.4870 N   0  0  0  0  0  0  0  0  0  0  0  0
   37.2680   26.1600   33.3010 C   0  0  0  0  0  0  0  0  0  0  0  0
   36.9310   27.1380   32.9920 H   0  0  0  0  0  0  0  0  0  0  0  0
   37.5970   25.8330   34.5630 N   0  0  0  0  0  0  0  0  0  0  0  0
   37.9660   24.5500   34.5840 C   0  0  0  0  0  0  0  0  0  0  0  0
   38.3860   23.7660   35.6390 C   0  0  0  0  0  0  0  0  0  0  0  0
   38.6920   22.4900   35.3350 N   0  0  0  0  0  0  0  0  0  0  0  0
   38.5820   22.0320   34.0570 C   0  0  0  0  0  0  0  0  0  0  0  0
   38.8330   20.9930   33.8240 H   0  0  0  0  0  0  0  0  0  0  0  0
   38.1690   22.8170   33.0450 N   0  0  0  0  0  0  0  0  0  0  0  0
   37.8530   24.0840   33.2810 C   0  0  0  0  0  0  0  0  0  0  0  0
   38.4980   24.2550   36.9700 N   0  0  0  0  0  0  0  0  0  0  0  0
   37.4990   24.2980   37.3030 H   0  0  0  0  0  0  0  0  0  0  0  0
   39.4030   24.4950   37.4400 H   0  0  0  0  0  0  0  0  0  0  0  0
   36.5420   28.4470   30.6460 O   0  0  0  0  0  0  0  0  0  0  0  0
   33.7700   30.7520   35.3340 C   0  0  0  0  0  0  0  0  0  0  0  0
   34.6590   31.7950   35.0780 C   0  0  0  0  0  0  0  0  0  0  0  0
   35.5620   31.7280   34.0290 C   0  0  0  0  0  0  0  0  0  0  0  0
   35.5350   30.5750   33.2550 C   0  0  0  0  0  0  0  0  0  0  0  0
   36.3190   30.2770   32.1760 N   0  0  0  0  0  0  0  0  0  0  0  0
   35.9360   29.0650   31.7540 C   0  0  0  0  0  0  0  0  0  0  0  0
   34.9650   28.6000   32.5100 N   0  0  0  0  0  0  0  0  0  0  0  0
   34.6760   29.5180   33.4690 C   0  0  0  0  0  0  0  0  0  0  0  0
   33.7740   29.6140   34.5360 C   0  0  0  0  0  0  0  0  0  0  0  0
   33.0460   30.7510   36.1340 H   0  0  0  0  0  0  0  0  0  0  0  0
   36.2460   32.5440   33.8400 H   0  0  0  0  0  0  0  0  0  0  0  0
   37.0650   30.9000   31.7810 H   0  0  0  0  0  0  0  0  0  0  0  0
   33.1050   28.7790   34.6930 H   0  0  0  0  0  0  0  0  0  0  0  0
   33.8160   34.1150   37.9100 C   0  0  0  0  0  0  0  0  0  0  0  0
   33.8140   32.9660   37.1270 C   0  0  0  0  0  0  0  0  0  0  0  0
   34.5900   32.9350   35.9740 C   0  0  0  0  0  0  0  0  0  0  0  0
   35.3190   34.0480   35.6700 N   0  0  0  0  0  0  0  0  0  0  0  0
   35.3140   35.1580   36.4370 C   0  0  0  0  0  0  0  0  0  0  0  0
   34.5730   35.1810   37.5350 N   0  0  0  0  0  0  0  0  0  0  0  0
   33.1900   34.0540   38.7810 H   0  0  0  0  0  0  0  0  0  0  0  0
   33.2300   32.0930   37.3840 H   0  0  0  0  0  0  0  0  0  0  0  0
   35.9040   36.0250   36.1690 H   0  0  0  0  0  0  0  0  0  0  0  0
  1  2  1  0  0  0  0
  1  6  1  0  0  0  0
  1  7  1  0  0  0  0
  2  8  1  1  0  0  0
  3 10  1  0  0  0  0
  3  4  1  0  0  0  0
  3  2  1  0  0  0  0
  5  4  1  0  0  0  0
  5 11  1  0  0  0  0
  5  6  1  0  0  0  0
  6 13  1  6  0  0  0
  6 14  1  0  0  0  0
  9  3  1  0  0  0  0
 12  5  1  0  0  0  0
 14 24  1  0  0  0  0
 14 15  1  0  0  0  0
 15 17  2  0  0  0  0
 16 15  1  0  0  0  0
 17 18  1  0  0  0  0
 18 19  1  0  0  0  0
 19 25  1  0  0  0  0
 20 19  2  0  0  0  0
 21 20  1  0  0  0  0
 22 21  1  0  0  0  0
 23 24  1  0  0  0  0
 23 21  2  0  0  0  0
 24 18  2  0  0  0  0
 25 26  1  0  0  0  0
 25 27  1  0  0  0  0
 28  2  1  0  0  0  0
 28 34  1  0  0  0  0
 29 38  1  0  0  0  0
 30 29  1  0  0  0  0
 30 44  1  0  0  0  0
 31 30  2  0  0  0  0
 32 36  2  0  0  0  0
 32 31  1  0  0  0  0
 33 32  1  0  0  0  0
 34 33  1  0  0  0  0
 34 35  2  0  0  0  0
 35 36  1  0  0  0  0
 36 37  1  0  0  0  0
 37 41  1  0  0  0  0
 37 29  2  0  0  0  0
 39 31  1  0  0  0  0
 40 33  1  0  0  0  0
 42 48  1  0  0  0  0
 43 49  1  0  0  0  0
 43 42  2  0  0  0  0
 44 43  1  0  0  0  0
 45 44  2  0  0  0  0
 45 46  1  0  0  0  0
 46 47  2  0  0  0  0
 47 42  1  0  0  0  0
 50 46  1  0  0  0  0
M  END
>  <minimizedAffinity>
-6.22454548

$$$$

 OpenBabel03272510283D

 50 55  0  0  1  0  0  0  0  0999 V2000
   37.2250   28.4850   28.7180 N   0  0  0  0  0  0  0  0  0  0  0  0
   37.1860   29.3310   29.9320 C   0  0  1  0  0  0  0  0  0  0  0  0
   36.8990   30.7020   29.5280 C   0  0  0  0  0  0  0  0  0  0  0  0
   37.9770   31.1760   28.7580 O   0  0  0  0  0  0  0  0  0  0  0  0
   38.2880   30.4210   27.6650 C   0  0  0  0  0  0  0  0  0  0  0  0
   38.3810   28.9450   27.9810 C   0  0  1  0  0  0  0  0  0  0  0  0
   37.4140   27.5140   29.0500 H   0  0  0  0  0  0  0  0  0  0  0  0
   38.1560   29.2960   30.4520 H   0  0  0  0  0  0  0  0  0  0  0  0
   36.0470   31.0200   28.9920 H   0  0  0  0  0  0  0  0  0  0  0  0
   36.9520   31.3450   30.4600 H   0  0  0  0  0  0  0  0  0  0  0  0
   39.3030   30.7220   27.3340 H   0  0  0  0  0  0  0  0  0  0  0  0
   37.6210   30.6190   26.7970 H   0  0  0  0  0  0  0  0  0  0  0  0
   38.5060   28.4060   27.0240 H   0  0  0  0  0  0  0  0  0  0  0  0
   39.5700   28.7370   28.8150 N   0  0  0  0  0  0  0  0  0  0  0  0
   40.5340   29.6090   29.1600 C   0  0  0  0  0  0  0  0  0  0  0  0
   40.5740   30.6440   28.8560 H   0  0  0  0  0  0  0  0  0  0  0  0
   41.4500   29.0110   29.9430 N   0  0  0  0  0  0  0  0  0  0  0  0
   41.0900   27.7370   30.1170 C   0  0  0  0  0  0  0  0  0  0  0  0
   41.7050   26.7330   30.8350 C   0  0  0  0  0  0  0  0  0  0  0  0
   41.0860   25.5370   30.8170 N   0  0  0  0  0  0  0  0  0  0  0  0
   39.9270   25.3610   30.1230 C   0  0  0  0  0  0  0  0  0  0  0  0
   39.4340   24.3840   30.1170 H   0  0  0  0  0  0  0  0  0  0  0  0
   39.3460   26.3580   29.4300 N   0  0  0  0  0  0  0  0  0  0  0  0
   39.9080   27.5600   29.4090 C   0  0  0  0  0  0  0  0  0  0  0  0
   42.9160   26.9270   31.5560 N   0  0  0  0  0  0  0  0  0  0  0  0
   42.6110   27.4560   32.4150 H   0  0  0  0  0  0  0  0  0  0  0  0
   43.8550   26.5900   31.2380 H   0  0  0  0  0  0  0  0  0  0  0  0
   36.1380   28.7630   30.7060 O   0  0  0  0  0  0  0  0  0  0  0  0
   37.2430   23.3460   32.8060 C   0  0  0  0  0  0  0  0  0  0  0  0
   36.3570   23.0020   31.7850 C   0  0  0  0  0  0  0  0  0  0  0  0
   35.7930   23.9690   30.9680 C   0  0  0  0  0  0  0  0  0  0  0  0
   36.1540   25.2860   31.2190 C   0  0  0  0  0  0  0  0  0  0  0  0
   35.7360   26.4060   30.5560 N   0  0  0  0  0  0  0  0  0  0  0  0
   36.3450   27.4430   31.1450 C   0  0  0  0  0  0  0  0  0  0  0  0
   37.1100   27.0280   32.1320 N   0  0  0  0  0  0  0  0  0  0  0  0
   37.0240   25.6750   32.2160 C   0  0  0  0  0  0  0  0  0  0  0  0
   37.5790   24.6760   33.0260 C   0  0  0  0  0  0  0  0  0  0  0  0
   37.7120   22.6370   33.4700 H   0  0  0  0  0  0  0  0  0  0  0  0
   35.1090   23.6890   30.1790 H   0  0  0  0  0  0  0  0  0  0  0  0
   35.0690   26.4140   29.7460 H   0  0  0  0  0  0  0  0  0  0  0  0
   38.2600   24.9940   33.8030 H   0  0  0  0  0  0  0  0  0  0  0  0
   34.8580   19.5760   32.1440 C   0  0  0  0  0  0  0  0  0  0  0  0
   35.0560   20.9370   32.3530 C   0  0  0  0  0  0  0  0  0  0  0  0
   36.0560   21.5900   31.6420 C   0  0  0  0  0  0  0  0  0  0  0  0
   36.7970   20.8500   30.7670 N   0  0  0  0  0  0  0  0  0  0  0  0
   36.5970   19.5310   30.5710 C   0  0  0  0  0  0  0  0  0  0  0  0
   35.6420   18.9140   31.2520 N   0  0  0  0  0  0  0  0  0  0  0  0
   34.0660   19.1520   32.7330 H   0  0  0  0  0  0  0  0  0  0  0  0
   34.4580   21.5070   33.0520 H   0  0  0  0  0  0  0  0  0  0  0  0
   37.2020   18.9720   29.8690 H   0  0  0  0  0  0  0  0  0  0  0  0
  1  7  1  0  0  0  0
  1  2  1  0  0  0  0
  2  8  1  1  0  0  0
  2 28  1  0  0  0  0
  3  2  1  0  0  0  0
  3 10  1  0  0  0  0
  4  3  1  0  0  0  0
  5  6  1  0  0  0  0
  5  4  1  0  0  0  0
  6 13  1  6  0  0  0
  6  1  1  0  0  0  0
  6 14  1  0  0  0  0
  9  3  1  0  0  0  0
 11  5  1  0  0  0  0
 12  5  1  0  0  0  0
 14 15  1  0  0  0  0
 14 24  1  0  0  0  0
 15 17  2  0  0  0  0
 16 15  1  0  0  0  0
 17 18  1  0  0  0  0
 18 19  1  0  0  0  0
 19 25  1  0  0  0  0
 20 19  2  0  0  0  0
 21 20  1  0  0  0  0
 22 21  1  0  0  0  0
 23 21  2  0  0  0  0
 24 23  1  0  0  0  0
 24 18  2  0  0  0  0
 25 26  1  0  0  0  0
 27 25  1  0  0  0  0
 28 34  1  0  0  0  0
 29 37  1  0  0  0  0
 29 38  1  0  0  0  0
 30 29  2  0  0  0  0
 31 32  2  0  0  0  0
 31 30  1  0  0  0  0
 32 36  1  0  0  0  0
 33 34  1  0  0  0  0
 33 32  1  0  0  0  0
 34 35  2  0  0  0  0
 35 36  1  0  0  0  0
 36 37  2  0  0  0  0
 37 41  1  0  0  0  0
 39 31  1  0  0  0  0
 40 33  1  0  0  0  0
 42 43  1  0  0  0  0
 42 48  1  0  0  0  0
 43 49  1  0  0  0  0
 44 30  1  0  0  0  0
 44 43  2  0  0  0  0
 45 44  1  0  0  0  0
 46 45  2  0  0  0  0
 46 47  1  0  0  0  0
 47 42  2  0  0  0  0
 50 46  1  0  0  0  0
M  END
>  <minimizedAffinity>
-6.21395397

$$$$

 OpenBabel03272510283D

 50 55  0  0  1  0  0  0  0  0999 V2000
   37.2240   24.8380   31.9080 N   0  0  0  0  0  0  0  0  0  0  0  0
   38.6580   24.7680   31.5510 C   0  0  1  0  0  0  0  0  0  0  0  0
   38.7820   24.0700   30.2760 C   0  0  0  0  0  0  0  0  0  0  0  0
   38.3590   22.7400   30.4540 O   0  0  0  0  0  0  0  0  0  0  0  0
   37.0970   22.5910   30.9500 C   0  0  0  0  0  0  0  0  0  0  0  0
   36.8340   23.4680   32.1530 C   0  0  1  0  0  0  0  0  0  0  0  0
   37.1780   25.3580   32.8110 H   0  0  0  0  0  0  0  0  0  0  0  0
   39.2180   24.2210   32.3250 H   0  0  0  0  0  0  0  0  0  0  0  0
   38.3270   24.3600   29.3690 H   0  0  0  0  0  0  0  0  0  0  0  0
   39.8890   23.9570   30.0600 H   0  0  0  0  0  0  0  0  0  0  0  0
   37.0060   21.5470   31.3130 H   0  0  0  0  0  0  0  0  0  0  0  0
   36.3090   22.7050   30.1720 H   0  0  0  0  0  0  0  0  0  0  0  0
   35.7610   23.3790   32.4030 H   0  0  0  0  0  0  0  0  0  0  0  0
   37.6380   22.9540   33.2690 N   0  0  0  0  0  0  0  0  0  0  0  0
   38.2680   21.7730   33.3940 C   0  0  0  0  0  0  0  0  0  0  0  0
   38.2730   20.9890   32.6510 H   0  0  0  0  0  0  0  0  0  0  0  0
   38.8970   21.6990   34.5810 N   0  0  0  0  0  0  0  0  0  0  0  0
   38.6820   22.8390   35.2430 C   0  0  0  0  0  0  0  0  0  0  0  0
   39.1180   23.2320   36.4910 C   0  0  0  0  0  0  0  0  0  0  0  0
   38.7270   24.4590   36.8880 N   0  0  0  0  0  0  0  0  0  0  0  0
   37.9500   25.2380   36.0840 C   0  0  0  0  0  0  0  0  0  0  0  0
   37.6410   26.2320   36.4180 H   0  0  0  0  0  0  0  0  0  0  0  0
   37.5390   24.8300   34.8690 N   0  0  0  0  0  0  0  0  0  0  0  0
   37.8900   23.6310   34.4220 C   0  0  0  0  0  0  0  0  0  0  0  0
   39.9280   22.4110   37.3240 N   0  0  0  0  0  0  0  0  0  0  0  0
   40.8840   22.4820   36.8860 H   0  0  0  0  0  0  0  0  0  0  0  0
   39.5790   21.8890   38.1620 H   0  0  0  0  0  0  0  0  0  0  0  0
   39.0520   26.1310   31.4620 O   0  0  0  0  0  0  0  0  0  0  0  0
   34.9370   30.1610   32.8040 C   0  0  0  0  0  0  0  0  0  0  0  0
   35.3450   29.8350   34.0960 C   0  0  0  0  0  0  0  0  0  0  0  0
   36.3360   28.8920   34.3200 C   0  0  0  0  0  0  0  0  0  0  0  0
   36.8940   28.2950   33.1980 C   0  0  0  0  0  0  0  0  0  0  0  0
   37.8780   27.3470   33.1600 N   0  0  0  0  0  0  0  0  0  0  0  0
   38.0910   27.0750   31.8660 C   0  0  0  0  0  0  0  0  0  0  0  0
   37.2960   27.7980   31.1070 N   0  0  0  0  0  0  0  0  0  0  0  0
   36.5240   28.5840   31.9010 C   0  0  0  0  0  0  0  0  0  0  0  0
   35.5210   29.5410   31.7050 C   0  0  0  0  0  0  0  0  0  0  0  0
   34.1730   30.8870   32.5700 H   0  0  0  0  0  0  0  0  0  0  0  0
   36.6440   28.6490   35.3270 H   0  0  0  0  0  0  0  0  0  0  0  0
   38.3520   26.9360   34.0000 H   0  0  0  0  0  0  0  0  0  0  0  0
   35.2400   29.7590   30.6840 H   0  0  0  0  0  0  0  0  0  0  0  0
   34.5250   32.0910   36.9860 C   0  0  0  0  0  0  0  0  0  0  0  0
   35.2660   31.5000   35.9680 C   0  0  0  0  0  0  0  0  0  0  0  0
   34.6670   30.5240   35.1790 C   0  0  0  0  0  0  0  0  0  0  0  0
   33.3710   30.1960   35.4510 N   0  0  0  0  0  0  0  0  0  0  0  0
   32.6620   30.7760   36.4410 C   0  0  0  0  0  0  0  0  0  0  0  0
   33.2370   31.7060   37.1890 N   0  0  0  0  0  0  0  0  0  0  0  0
   35.0630   32.8340   37.5460 H   0  0  0  0  0  0  0  0  0  0  0  0
   36.2920   31.7730   35.7670 H   0  0  0  0  0  0  0  0  0  0  0  0
   31.6340   30.4930   36.6320 H   0  0  0  0  0  0  0  0  0  0  0  0
  1  6  1  0  0  0  0
  1  7  1  0  0  0  0
  2  1  1  0  0  0  0
  2  8  1  1  0  0  0
  3  4  1  0  0  0  0
  3  2  1  0  0  0  0
  4  5  1  0  0  0  0
  5 11  1  0  0  0  0
  5  6  1  0  0  0  0
  6 13  1  1  0  0  0
  6 14  1  0  0  0  0
  9  3  1  0  0  0  0
 10  3  1  0  0  0  0
 12  5  1  0  0  0  0
 14 15  1  0  0  0  0
 14 24  1  0  0  0  0
 15 17  2  0  0  0  0
 16 15  1  0  0  0  0
 17 18  1  0  0  0  0
 18 19  1  0  0  0  0
 19 20  2  0  0  0  0
 19 25  1  0  0  0  0
 21 22  1  0  0  0  0
 21 20  1  0  0  0  0
 23 21  2  0  0  0  0
 24 23  1  0  0  0  0
 24 18  2  0  0  0  0
 25 27  1  0  0  0  0
 26 25  1  0  0  0  0
 28  2  1  0  0  0  0
 28 34  1  0  0  0  0
 29 30  1  0  0  0  0
 30 31  2  0  0  0  0
 30 44  1  0  0  0  0
 31 39  1  0  0  0  0
 32 31  1  0  0  0  0
 33 32  1  0  0  0  0
 33 40  1  0  0  0  0
 34 33  1  0  0  0  0
 35 34  2  0  0  0  0
 35 36  1  0  0  0  0
 36 32  2  0  0  0  0
 37 36  1  0  0  0  0
 37 29  2  0  0  0  0
 38 29  1  0  0  0  0
 41 37  1  0  0  0  0
 42 47  1  0  0  0  0
 42 48  1  0  0  0  0
 43 42  2  0  0  0  0
 44 45  2  0  0  0  0
 44 43  1  0  0  0  0
 45 46  1  0  0  0  0
 46 50  1  0  0  0  0
 46 47  2  0  0  0  0
 49 43  1  0  0  0  0
M  END
>  <minimizedAffinity>
-6.17890263

$$$$

 OpenBabel03272510283D

 50 55  0  0  1  0  0  0  0  0999 V2000
   42.5700   23.6780   34.0270 N   0  0  0  0  0  0  0  0  0  0  0  0
   43.2810   24.3380   35.1450 C   0  0  1  0  0  0  0  0  0  0  0  0
   44.6390   23.8110   35.2020 C   0  0  0  0  0  0  0  0  0  0  0  0
   44.5740   22.4450   35.5330 O   0  0  0  0  0  0  0  0  0  0  0  0
   43.8080   21.6800   34.7020 C   0  0  0  0  0  0  0  0  0  0  0  0
   42.4550   22.2930   34.4240 C   0  0  1  0  0  0  0  0  0  0  0  0
   41.6140   24.0950   34.0080 H   0  0  0  0  0  0  0  0  0  0  0  0
   42.7660   24.1330   36.0970 H   0  0  0  0  0  0  0  0  0  0  0  0
   45.3460   23.8470   34.4200 H   0  0  0  0  0  0  0  0  0  0  0  0
   45.1400   24.2670   36.1110 H   0  0  0  0  0  0  0  0  0  0  0  0
   43.6030   20.7250   35.2280 H   0  0  0  0  0  0  0  0  0  0  0  0
   44.3370   21.3950   33.7650 H   0  0  0  0  0  0  0  0  0  0  0  0
   41.9620   21.6780   33.6490 H   0  0  0  0  0  0  0  0  0  0  0  0
   41.6700   22.2350   35.6630 N   0  0  0  0  0  0  0  0  0  0  0  0
   41.9510   21.6150   36.8230 C   0  0  0  0  0  0  0  0  0  0  0  0
   42.8430   21.0400   37.0200 H   0  0  0  0  0  0  0  0  0  0  0  0
   40.9620   21.8120   37.7130 N   0  0  0  0  0  0  0  0  0  0  0  0
   40.0210   22.5660   37.1380 C   0  0  0  0  0  0  0  0  0  0  0  0
   38.8260   23.0310   37.6460 C   0  0  0  0  0  0  0  0  0  0  0  0
   38.0850   23.7790   36.8070 N   0  0  0  0  0  0  0  0  0  0  0  0
   38.5160   24.0440   35.5410 C   0  0  0  0  0  0  0  0  0  0  0  0
   37.9040   24.6540   34.8700 H   0  0  0  0  0  0  0  0  0  0  0  0
   39.6870   23.5790   35.0700 N   0  0  0  0  0  0  0  0  0  0  0  0
   40.4630   22.8350   35.8490 C   0  0  0  0  0  0  0  0  0  0  0  0
   38.3850   22.7480   38.9680 N   0  0  0  0  0  0  0  0  0  0  0  0
   38.9730   23.3860   39.5670 H   0  0  0  0  0  0  0  0  0  0  0  0
   37.6410   22.0510   39.2090 H   0  0  0  0  0  0  0  0  0  0  0  0
   43.2490   25.7170   34.8000 O   0  0  0  0  0  0  0  0  0  0  0  0
   38.5330   27.5140   31.7170 C   0  0  0  0  0  0  0  0  0  0  0  0
   38.0330   27.7090   33.0040 C   0  0  0  0  0  0  0  0  0  0  0  0
   38.7980   27.4190   34.1230 C   0  0  0  0  0  0  0  0  0  0  0  0
   40.0760   26.9280   33.8950 C   0  0  0  0  0  0  0  0  0  0  0  0
   41.0110   26.5730   34.8260 N   0  0  0  0  0  0  0  0  0  0  0  0
   42.0860   26.1580   34.1440 C   0  0  0  0  0  0  0  0  0  0  0  0
   41.8670   26.2360   32.8480 N   0  0  0  0  0  0  0  0  0  0  0  0
   40.6140   26.7170   32.6430 C   0  0  0  0  0  0  0  0  0  0  0  0
   39.8190   27.0200   31.5300 C   0  0  0  0  0  0  0  0  0  0  0  0
   37.9840   27.7230   30.8110 H   0  0  0  0  0  0  0  0  0  0  0  0
   38.3990   27.5750   35.1150 H   0  0  0  0  0  0  0  0  0  0  0  0
   40.8790   26.6270   35.8660 H   0  0  0  0  0  0  0  0  0  0  0  0
   40.2520   26.8520   30.5540 H   0  0  0  0  0  0  0  0  0  0  0  0
   34.4980   28.7240   32.2400 C   0  0  0  0  0  0  0  0  0  0  0  0
   35.7730   28.2050   32.0410 C   0  0  0  0  0  0  0  0  0  0  0  0
   36.6760   28.2140   33.0980 C   0  0  0  0  0  0  0  0  0  0  0  0
   36.2560   28.7380   34.2860 N   0  0  0  0  0  0  0  0  0  0  0  0
   35.0170   29.2380   34.4680 C   0  0  0  0  0  0  0  0  0  0  0  0
   34.1600   29.2260   33.4570 N   0  0  0  0  0  0  0  0  0  0  0  0
   33.8650   28.6780   31.3730 H   0  0  0  0  0  0  0  0  0  0  0  0
   36.0880   27.7940   31.0920 H   0  0  0  0  0  0  0  0  0  0  0  0
   34.7140   29.6470   35.4240 H   0  0  0  0  0  0  0  0  0  0  0  0
  1  6  1  0  0  0  0
  1  2  1  0  0  0  0
  2  3  1  0  0  0  0
  2  8  1  1  0  0  0
  3  4  1  0  0  0  0
  3 10  1  0  0  0  0
  5 11  1  0  0  0  0
  5  4  1  0  0  0  0
  6 13  1  6  0  0  0
  6  5  1  0  0  0  0
  6 14  1  0  0  0  0
  7  1  1  0  0  0  0
  9  3  1  0  0  0  0
 12  5  1  0  0  0  0
 14 24  1  0  0  0  0
 14 15  1  0  0  0  0
 15 16  1  0  0  0  0
 15 17  2  0  0  0  0
 18 19  1  0  0  0  0
 18 17  1  0  0  0  0
 19 25  1  0  0  0  0
 20 19  2  0  0  0  0
 21 20  1  0  0  0  0
 22 21  1  0  0  0  0
 23 21  2  0  0  0  0
 23 24  1  0  0  0  0
 24 18  2  0  0  0  0
 25 27  1  0  0  0  0
 25 26  1  0  0  0  0
 28  2  1  0  0  0  0
 29 30  1  0  0  0  0
 30 44  1  0  0  0  0
 30 31  2  0  0  0  0
 31 39  1  0  0  0  0
 32 31  1  0  0  0  0
 32 33  1  0  0  0  0
 33 40  1  0  0  0  0
 34 28  1  0  0  0  0
 34 33  1  0  0  0  0
 35 34  2  0  0  0  0
 36 35  1  0  0  0  0
 36 32  2  0  0  0  0
 37 29  2  0  0  0  0
 37 36  1  0  0  0  0
 38 29  1  0  0  0  0
 41 37  1  0  0  0  0
 42 47  1  0  0  0  0
 43 42  2  0  0  0  0
 43 44  1  0  0  0  0
 44 45  2  0  0  0  0
 45 46  1  0  0  0  0
 46 50  1  0  0  0  0
 47 46  2  0  0  0  0
 48 42  1  0  0  0  0
 49 43  1  0  0  0  0
M  END
>  <minimizedAffinity>
-6.15852737

$$$$

 OpenBabel03272510283D

 50 55  0  0  1  0  0  0  0  0999 V2000
   37.5670   25.1910   33.1490 N   0  0  0  0  0  0  0  0  0  0  0  0
   38.9820   25.5020   32.8450 C   0  0  1  0  0  0  0  0  0  0  0  0
   39.2220   25.2200   31.4350 C   0  0  0  0  0  0  0  0  0  0  0  0
   39.0740   23.8360   31.2260 O   0  0  0  0  0  0  0  0  0  0  0  0
   37.8740   23.3150   31.6110 C   0  0  0  0  0  0  0  0  0  0  0  0
   37.4600   23.7580   32.9960 C   0  0  1  0  0  0  0  0  0  0  0  0
   37.4330   25.4230   34.1580 H   0  0  0  0  0  0  0  0  0  0  0  0
   39.6500   24.8830   33.4630 H   0  0  0  0  0  0  0  0  0  0  0  0
   38.7060   25.6540   30.6230 H   0  0  0  0  0  0  0  0  0  0  0  0
   40.3260   25.3880   31.2410 H   0  0  0  0  0  0  0  0  0  0  0  0
   37.9970   22.2140   31.6720 H   0  0  0  0  0  0  0  0  0  0  0  0
   37.0670   23.4820   30.8630 H   0  0  0  0  0  0  0  0  0  0  0  0
   36.4300   23.3970   33.1690 H   0  0  0  0  0  0  0  0  0  0  0  0
   38.3660   23.1240   33.9610 N   0  0  0  0  0  0  0  0  0  0  0  0
   39.3300   22.2090   33.7540 C   0  0  0  0  0  0  0  0  0  0  0  0
   39.5890   21.7860   32.7950 H   0  0  0  0  0  0  0  0  0  0  0  0
   39.9330   21.8900   34.9130 N   0  0  0  0  0  0  0  0  0  0  0  0
   39.3640   22.5980   35.8930 C   0  0  0  0  0  0  0  0  0  0  0  0
   39.6370   22.6170   37.2450 C   0  0  0  0  0  0  0  0  0  0  0  0
   38.8790   23.4500   37.9830 N   0  0  0  0  0  0  0  0  0  0  0  0
   37.9120   24.2130   37.4020 C   0  0  0  0  0  0  0  0  0  0  0  0
   37.3040   24.8860   38.0140 H   0  0  0  0  0  0  0  0  0  0  0  0
   37.6660   24.1770   36.0800 N   0  0  0  0  0  0  0  0  0  0  0  0
   38.3790   23.3750   35.2980 C   0  0  0  0  0  0  0  0  0  0  0  0
   40.6490   21.8150   37.8410 N   0  0  0  0  0  0  0  0  0  0  0  0
   41.5430   22.3080   37.5790 H   0  0  0  0  0  0  0  0  0  0  0  0
   40.4660   20.9470   38.3990 H   0  0  0  0  0  0  0  0  0  0  0  0
   39.0960   26.8870   33.1470 O   0  0  0  0  0  0  0  0  0  0  0  0
   34.0310   29.7480   34.2120 C   0  0  0  0  0  0  0  0  0  0  0  0
   34.0490   29.8570   32.8220 C   0  0  0  0  0  0  0  0  0  0  0  0
   35.0830   29.3180   32.0730 C   0  0  0  0  0  0  0  0  0  0  0  0
   36.0920   28.6720   32.7760 C   0  0  0  0  0  0  0  0  0  0  0  0
   37.2050   28.0650   32.2660 N   0  0  0  0  0  0  0  0  0  0  0  0
   37.8840   27.5810   33.3140 C   0  0  0  0  0  0  0  0  0  0  0  0
   37.2560   27.8550   34.4370 N   0  0  0  0  0  0  0  0  0  0  0  0
   36.1190   28.5400   34.1480 C   0  0  0  0  0  0  0  0  0  0  0  0
   35.0600   29.0930   34.8790 C   0  0  0  0  0  0  0  0  0  0  0  0
   33.2530   30.1460   34.8450 H   0  0  0  0  0  0  0  0  0  0  0  0
   35.0850   29.4080   30.9960 H   0  0  0  0  0  0  0  0  0  0  0  0
   37.4490   28.0090   31.2470 H   0  0  0  0  0  0  0  0  0  0  0  0
   35.0930   28.9820   35.9540 H   0  0  0  0  0  0  0  0  0  0  0  0
   30.6580   31.2860   32.0690 C   0  0  0  0  0  0  0  0  0  0  0  0
   31.6490   30.5740   32.7350 C   0  0  0  0  0  0  0  0  0  0  0  0
   32.9400   30.5700   32.2180 C   0  0  0  0  0  0  0  0  0  0  0  0
   33.1650   31.2750   31.0710 N   0  0  0  0  0  0  0  0  0  0  0  0
   32.1960   31.9630   30.4330 C   0  0  0  0  0  0  0  0  0  0  0  0
   30.9680   31.9620   30.9300 N   0  0  0  0  0  0  0  0  0  0  0  0
   29.6910   31.2350   32.5350 H   0  0  0  0  0  0  0  0  0  0  0  0
   31.4510   30.0210   33.6430 H   0  0  0  0  0  0  0  0  0  0  0  0
   32.4070   32.5120   29.5240 H   0  0  0  0  0  0  0  0  0  0  0  0
  1  7  1  0  0  0  0
  2 28  1  0  0  0  0
  2  1  1  0  0  0  0
  2  8  1  1  0  0  0
  3  2  1  0  0  0  0
  4  3  1  0  0  0  0
  4  5  1  0  0  0  0
  5 11  1  0  0  0  0
  5  6  1  0  0  0  0
  6  1  1  0  0  0  0
  6 13  1  1  0  0  0
  6 14  1  0  0  0  0
  9  3  1  0  0  0  0
 10  3  1  0  0  0  0
 12  5  1  0  0  0  0
 14 24  1  0  0  0  0
 15 14  1  0  0  0  0
 15 17  2  0  0  0  0
 16 15  1  0  0  0  0
 17 18  1  0  0  0  0
 18 19  1  0  0  0  0
 19 25  1  0  0  0  0
 19 20  2  0  0  0  0
 21 20  1  0  0  0  0
 21 22  1  0  0  0  0
 23 21  2  0  0  0  0
 24 18  2  0  0  0  0
 24 23  1  0  0  0  0
 25 27  1  0  0  0  0
 26 25  1  0  0  0  0
 28 34  1  0  0  0  0
 29 38  1  0  0  0  0
 29 37  1  0  0  0  0
 30 29  2  0  0  0  0
 31 32  2  0  0  0  0
 31 30  1  0  0  0  0
 32 36  1  0  0  0  0
 33 32  1  0  0  0  0
 33 34  1  0  0  0  0
 34 35  2  0  0  0  0
 36 35  1  0  0  0  0
 36 37  2  0  0  0  0
 37 41  1  0  0  0  0
 39 31  1  0  0  0  0
 40 33  1  0  0  0  0
 42 48  1  0  0  0  0
 42 43  1  0  0  0  0
 43 49  1  0  0  0  0
 44 43  2  0  0  0  0
 44 30  1  0  0  0  0
 45 44  1  0  0  0  0
 46 47  1  0  0  0  0
 46 45  2  0  0  0  0
 47 42  2  0  0  0  0
 50 46  1  0  0  0  0
M  END
>  <minimizedAffinity>
-6.09266186

$$$$
