
 OpenBabel03272502083D

 44 48  0  0  0  0  0  0  0  0999 V2000
   36.5910   28.6990   35.3100 F   0  0  0  0  0  0  0  0  0  0  0  0
   36.2220   28.9750   34.0190 C   0  0  0  0  0  0  0  0  0  0  0  0
   36.6700   28.2190   32.9490 C   0  0  0  0  0  0  0  0  0  0  0  0
   36.2410   28.5500   31.6770 C   0  0  0  0  0  0  0  0  0  0  0  0
   35.3720   29.6270   31.4710 C   0  0  0  0  0  0  0  0  0  0  0  0
   34.9660   30.3390   32.5850 C   0  0  0  0  0  0  0  0  0  0  0  0
   35.3570   30.0540   33.8390 C   0  0  0  0  0  0  0  0  0  0  0  0
   36.6210   27.9280   30.8870 H   0  0  0  0  0  0  0  0  0  0  0  0
   35.0620   29.8500   30.4600 H   0  0  0  0  0  0  0  0  0  0  0  0
   34.3010   31.1480   32.3420 H   0  0  0  0  0  0  0  0  0  0  0  0
   38.8450   27.2050   32.7820 C   0  0  0  0  0  0  0  0  0  0  0  0
   37.5550   27.1450   33.2900 C   0  0  0  0  0  0  0  0  0  0  0  0
   37.2270   26.0650   34.0890 C   0  0  0  0  0  0  0  0  0  0  0  0
   38.1460   25.1070   34.3560 N   0  0  0  0  0  0  0  0  0  0  0  0
   39.3820   25.1970   33.8480 C   0  0  0  0  0  0  0  0  0  0  0  0
   39.7310   26.2180   33.0810 N   0  0  0  0  0  0  0  0  0  0  0  0
   39.1560   28.0330   32.1490 H   0  0  0  0  0  0  0  0  0  0  0  0
   36.1960   26.0510   34.4710 H   0  0  0  0  0  0  0  0  0  0  0  0
   40.2070   24.0990   34.2390 N   0  0  0  0  0  0  0  0  0  0  0  0
   41.1700   23.4260   33.5540 C   0  0  0  0  0  0  0  0  0  0  0  0
   41.4510   23.6640   32.5460 H   0  0  0  0  0  0  0  0  0  0  0  0
   41.6770   22.4510   34.3540 N   0  0  0  0  0  0  0  0  0  0  0  0
   41.0320   22.5270   35.5070 C   0  0  0  0  0  0  0  0  0  0  0  0
   41.1080   21.8150   36.6840 C   0  0  0  0  0  0  0  0  0  0  0  0
   40.3130   22.1010   37.7490 N   0  0  0  0  0  0  0  0  0  0  0  0
   39.4130   23.1040   37.6910 C   0  0  0  0  0  0  0  0  0  0  0  0
   38.8010   23.2960   38.5610 H   0  0  0  0  0  0  0  0  0  0  0  0
   39.3280   23.8070   36.5480 N   0  0  0  0  0  0  0  0  0  0  0  0
   40.1060   23.5410   35.4820 C   0  0  0  0  0  0  0  0  0  0  0  0
   42.0180   20.7360   36.8640 N   0  0  0  0  0  0  0  0  0  0  0  0
   42.9750   20.4670   37.1740 H   0  0  0  0  0  0  0  0  0  0  0  0
   41.5110   19.8550   36.5550 H   0  0  0  0  0  0  0  0  0  0  0  0
   32.6290   29.2760   35.1670 Br  0  0  0  0  0  0  0  0  0  0  0  0
   33.7710   30.6970   35.7200 C   0  0  0  0  0  0  0  0  0  0  0  0
   34.8990   30.8530   34.9600 C   0  0  0  0  0  0  0  0  0  0  0  0
   35.7740   31.9050   35.2860 C   0  0  0  0  0  0  0  0  0  0  0  0
   35.5040   32.7380   36.3250 C   0  0  0  0  0  0  0  0  0  0  0  0
   34.3480   32.5240   37.0530 C   0  0  0  0  0  0  0  0  0  0  0  0
   33.4560   31.4910   36.7580 C   0  0  0  0  0  0  0  0  0  0  0  0
   36.6870   32.1020   34.7400 H   0  0  0  0  0  0  0  0  0  0  0  0
   36.1650   33.5530   36.5910 H   0  0  0  0  0  0  0  0  0  0  0  0
   34.0940   33.1680   37.8940 H   0  0  0  0  0  0  0  0  0  0  0  0
   32.3040   31.2180   37.4280 O   0  0  0  0  0  0  0  0  0  0  0  0
   31.4030   31.5250   37.1310 H   0  0  0  0  0  0  0  0  0  0  0  0
  2  1  1  0  0  0  0
  3 12  1  0  0  0  0
  3  2  2  0  0  0  0
  4  3  1  0  0  0  0
  5  4  2  0  0  0  0
  5  6  1  0  0  0  0
  6  7  2  0  0  0  0
  7  2  1  0  0  0  0
  7 35  1  0  0  0  0
  8  4  1  0  0  0  0
  9  5  1  0  0  0  0
 10  6  1  0  0  0  0
 11 16  2  0  0  0  0
 11 12  1  0  0  0  0
 12 13  2  0  0  0  0
 13 14  1  0  0  0  0
 13 18  1  0  0  0  0
 15 19  1  0  0  0  0
 15 14  2  0  0  0  0
 16 15  1  0  0  0  0
 17 11  1  0  0  0  0
 19 29  1  0  0  0  0
 20 19  1  0  0  0  0
 20 22  2  0  0  0  0
 21 20  1  0  0  0  0
 22 23  1  0  0  0  0
 23 24  1  0  0  0  0
 24 30  1  0  0  0  0
 24 25  2  0  0  0  0
 26 25  1  0  0  0  0
 26 27  1  0  0  0  0
 28 26  2  0  0  0  0
 29 23  2  0  0  0  0
 29 28  1  0  0  0  0
 30 31  1  0  0  0  0
 32 30  1  0  0  0  0
 33 34  1  0  0  0  0
 34 39  1  0  0  0  0
 35 36  1  0  0  0  0
 35 34  2  0  0  0  0
 36 37  2  0  0  0  0
 37 41  1  0  0  0  0
 37 38  1  0  0  0  0
 38 42  1  0  0  0  0
 39 38  2  0  0  0  0
 39 43  1  0  0  0  0
 40 36  1  0  0  0  0
 44 43  1  0  0  0  0
M  END
>  <minimizedAffinity>
-7.50812912

$$$$

 OpenBabel03272502083D

 44 48  0  0  0  0  0  0  0  0999 V2000
   35.4400   28.5940   34.0150 F   0  0  0  0  0  0  0  0  0  0  0  0
   35.7670   29.0460   32.7630 C   0  0  0  0  0  0  0  0  0  0  0  0
   36.8240   28.5150   32.0430 C   0  0  0  0  0  0  0  0  0  0  0  0
   37.0830   29.0110   30.7790 C   0  0  0  0  0  0  0  0  0  0  0  0
   36.2920   30.0290   30.2340 C   0  0  0  0  0  0  0  0  0  0  0  0
   35.2540   30.5120   31.0090 C   0  0  0  0  0  0  0  0  0  0  0  0
   34.9670   30.0610   32.2410 C   0  0  0  0  0  0  0  0  0  0  0  0
   37.9150   28.5610   30.2690 H   0  0  0  0  0  0  0  0  0  0  0  0
   36.5300   30.3870   29.2420 H   0  0  0  0  0  0  0  0  0  0  0  0
   34.6960   31.2910   30.5180 H   0  0  0  0  0  0  0  0  0  0  0  0
   38.9300   27.4500   32.5150 C   0  0  0  0  0  0  0  0  0  0  0  0
   37.5560   27.4790   32.7110 C   0  0  0  0  0  0  0  0  0  0  0  0
   37.0030   26.5170   33.5360 C   0  0  0  0  0  0  0  0  0  0  0  0
   37.7900   25.5860   34.1250 N   0  0  0  0  0  0  0  0  0  0  0  0
   39.1120   25.5890   33.9140 C   0  0  0  0  0  0  0  0  0  0  0  0
   39.6760   26.4950   33.1300 N   0  0  0  0  0  0  0  0  0  0  0  0
   39.4160   28.1830   31.8760 H   0  0  0  0  0  0  0  0  0  0  0  0
   35.9130   26.5720   33.6660 H   0  0  0  0  0  0  0  0  0  0  0  0
   39.7720   24.5360   34.6180 N   0  0  0  0  0  0  0  0  0  0  0  0
   40.8340   23.7630   34.2640 C   0  0  0  0  0  0  0  0  0  0  0  0
   41.3500   23.8630   33.3290 H   0  0  0  0  0  0  0  0  0  0  0  0
   41.0980   22.8910   35.2740 N   0  0  0  0  0  0  0  0  0  0  0  0
   40.2100   23.1280   36.2260 C   0  0  0  0  0  0  0  0  0  0  0  0
   39.9790   22.5730   37.4660 C   0  0  0  0  0  0  0  0  0  0  0  0
   38.9760   23.0090   38.2730 N   0  0  0  0  0  0  0  0  0  0  0  0
   38.1610   24.0110   37.8840 C   0  0  0  0  0  0  0  0  0  0  0  0
   37.3760   24.3260   38.5560 H   0  0  0  0  0  0  0  0  0  0  0  0
   38.3740   24.5620   36.6750 N   0  0  0  0  0  0  0  0  0  0  0  0
   39.3620   24.1460   35.8620 C   0  0  0  0  0  0  0  0  0  0  0  0
   40.7720   21.5110   37.9840 N   0  0  0  0  0  0  0  0  0  0  0  0
   41.6190   21.2680   38.5400 H   0  0  0  0  0  0  0  0  0  0  0  0
   40.3090   20.6060   37.6760 H   0  0  0  0  0  0  0  0  0  0  0  0
   35.6270   32.3270   34.3010 Br  0  0  0  0  0  0  0  0  0  0  0  0
   33.8920   31.6330   33.9270 C   0  0  0  0  0  0  0  0  0  0  0  0
   33.8670   30.6250   33.0020 C   0  0  0  0  0  0  0  0  0  0  0  0
   32.6240   30.0380   32.6990 C   0  0  0  0  0  0  0  0  0  0  0  0
   31.4880   30.4630   33.3080 C   0  0  0  0  0  0  0  0  0  0  0  0
   31.5830   31.4880   34.2330 C   0  0  0  0  0  0  0  0  0  0  0  0
   32.7970   32.0930   34.5590 C   0  0  0  0  0  0  0  0  0  0  0  0
   32.5120   29.2360   31.9820 H   0  0  0  0  0  0  0  0  0  0  0  0
   30.5230   30.0240   33.0890 H   0  0  0  0  0  0  0  0  0  0  0  0
   30.6950   31.8590   34.7440 H   0  0  0  0  0  0  0  0  0  0  0  0
   32.9700   33.1040   35.4530 O   0  0  0  0  0  0  0  0  0  0  0  0
   33.2570   32.9670   36.3970 H   0  0  0  0  0  0  0  0  0  0  0  0
  2  1  1  0  0  0  0
  3 12  1  0  0  0  0
  3  2  2  0  0  0  0
  4  3  1  0  0  0  0
  5  4  2  0  0  0  0
  5  6  1  0  0  0  0
  6  7  2  0  0  0  0
  7  2  1  0  0  0  0
  7 35  1  0  0  0  0
  8  4  1  0  0  0  0
  9  5  1  0  0  0  0
 10  6  1  0  0  0  0
 11 12  2  0  0  0  0
 11 16  1  0  0  0  0
 12 13  1  0  0  0  0
 13 18  1  0  0  0  0
 13 14  2  0  0  0  0
 15 14  1  0  0  0  0
 15 19  1  0  0  0  0
 16 15  2  0  0  0  0
 17 11  1  0  0  0  0
 19 29  1  0  0  0  0
 20 19  1  0  0  0  0
 20 22  2  0  0  0  0
 21 20  1  0  0  0  0
 22 23  1  0  0  0  0
 23 24  1  0  0  0  0
 24 30  1  0  0  0  0
 24 25  2  0  0  0  0
 26 25  1  0  0  0  0
 26 27  1  0  0  0  0
 28 26  2  0  0  0  0
 29 23  2  0  0  0  0
 29 28  1  0  0  0  0
 30 31  1  0  0  0  0
 32 30  1  0  0  0  0
 34 33  1  0  0  0  0
 34 39  1  0  0  0  0
 35 34  2  0  0  0  0
 36 35  1  0  0  0  0
 36 37  2  0  0  0  0
 37 38  1  0  0  0  0
 38 39  2  0  0  0  0
 38 42  1  0  0  0  0
 39 43  1  0  0  0  0
 40 36  1  0  0  0  0
 41 37  1  0  0  0  0
 43 44  1  0  0  0  0
M  END
>  <minimizedAffinity>
-7.21591854

$$$$

 OpenBabel03272502083D

 44 48  0  0  0  0  0  0  0  0999 V2000
   35.6480   28.2530   33.5690 F   0  0  0  0  0  0  0  0  0  0  0  0
   35.8520   29.1800   32.5800 C   0  0  0  0  0  0  0  0  0  0  0  0
   36.3810   28.8360   31.3480 C   0  0  0  0  0  0  0  0  0  0  0  0
   36.5420   29.8240   30.3950 C   0  0  0  0  0  0  0  0  0  0  0  0
   36.1770   31.1480   30.6670 C   0  0  0  0  0  0  0  0  0  0  0  0
   35.6550   31.4200   31.9190 C   0  0  0  0  0  0  0  0  0  0  0  0
   35.4820   30.4910   32.8750 C   0  0  0  0  0  0  0  0  0  0  0  0
   36.9580   29.4990   29.4590 H   0  0  0  0  0  0  0  0  0  0  0  0
   36.3200   31.8880   29.8930 H   0  0  0  0  0  0  0  0  0  0  0  0
   35.4000   32.4570   32.0470 H   0  0  0  0  0  0  0  0  0  0  0  0
   38.0580   27.1120   31.2760 C   0  0  0  0  0  0  0  0  0  0  0  0
   36.7150   27.4510   31.1940 C   0  0  0  0  0  0  0  0  0  0  0  0
   35.8060   26.4310   30.9790 C   0  0  0  0  0  0  0  0  0  0  0  0
   36.2290   25.1510   30.8550 N   0  0  0  0  0  0  0  0  0  0  0  0
   37.5340   24.8610   30.9400 C   0  0  0  0  0  0  0  0  0  0  0  0
   38.4320   25.8120   31.1460 N   0  0  0  0  0  0  0  0  0  0  0  0
   38.8150   27.8750   31.4430 H   0  0  0  0  0  0  0  0  0  0  0  0
   34.7520   26.7380   30.9190 H   0  0  0  0  0  0  0  0  0  0  0  0
   37.7860   23.4640   30.7870 N   0  0  0  0  0  0  0  0  0  0  0  0
   38.8130   22.8100   30.1790 C   0  0  0  0  0  0  0  0  0  0  0  0
   39.6300   23.3130   29.7000 H   0  0  0  0  0  0  0  0  0  0  0  0
   38.6090   21.4710   30.2940 N   0  0  0  0  0  0  0  0  0  0  0  0
   37.4760   21.3110   30.9590 C   0  0  0  0  0  0  0  0  0  0  0  0
   36.7680   20.2040   31.3720 C   0  0  0  0  0  0  0  0  0  0  0  0
   35.6000   20.3130   32.0600 N   0  0  0  0  0  0  0  0  0  0  0  0
   35.0890   21.5240   32.3660 C   0  0  0  0  0  0  0  0  0  0  0  0
   34.1580   21.5640   32.9130 H   0  0  0  0  0  0  0  0  0  0  0  0
   35.7700   22.6130   31.9690 N   0  0  0  0  0  0  0  0  0  0  0  0
   36.9270   22.5260   31.2880 C   0  0  0  0  0  0  0  0  0  0  0  0
   37.2070   18.8770   31.1080 N   0  0  0  0  0  0  0  0  0  0  0  0
   37.7740   18.0770   31.4600 H   0  0  0  0  0  0  0  0  0  0  0  0
   36.7840   18.5950   30.1750 H   0  0  0  0  0  0  0  0  0  0  0  0
   32.4560   29.8790   33.4100 Br  0  0  0  0  0  0  0  0  0  0  0  0
   33.6710   30.6620   34.6520 C   0  0  0  0  0  0  0  0  0  0  0  0
   34.9380   30.8520   34.1710 C   0  0  0  0  0  0  0  0  0  0  0  0
   35.8830   31.4580   35.0200 C   0  0  0  0  0  0  0  0  0  0  0  0
   35.5430   31.8390   36.2780 C   0  0  0  0  0  0  0  0  0  0  0  0
   34.2450   31.6160   36.7030 C   0  0  0  0  0  0  0  0  0  0  0  0
   33.2810   31.0190   35.8890 C   0  0  0  0  0  0  0  0  0  0  0  0
   36.9050   31.6470   34.7220 H   0  0  0  0  0  0  0  0  0  0  0  0
   36.2550   32.3070   36.9460 H   0  0  0  0  0  0  0  0  0  0  0  0
   33.9310   31.9070   37.7050 H   0  0  0  0  0  0  0  0  0  0  0  0
   31.9910   30.7660   36.2360 O   0  0  0  0  0  0  0  0  0  0  0  0
   31.2260   31.3600   36.0000 H   0  0  0  0  0  0  0  0  0  0  0  0
  2  7  1  0  0  0  0
  2  1  1  0  0  0  0
  3  2  2  0  0  0  0
  4  5  2  0  0  0  0
  4  3  1  0  0  0  0
  5  6  1  0  0  0  0
  6 10  1  0  0  0  0
  6  7  2  0  0  0  0
  7 35  1  0  0  0  0
  8  4  1  0  0  0  0
  9  5  1  0  0  0  0
 11 17  1  0  0  0  0
 12 11  1  0  0  0  0
 12  3  1  0  0  0  0
 13 12  2  0  0  0  0
 14 15  2  0  0  0  0
 14 13  1  0  0  0  0
 15 16  1  0  0  0  0
 16 11  2  0  0  0  0
 18 13  1  0  0  0  0
 19 15  1  0  0  0  0
 19 29  1  0  0  0  0
 20 22  2  0  0  0  0
 20 19  1  0  0  0  0
 21 20  1  0  0  0  0
 22 23  1  0  0  0  0
 23 29  2  0  0  0  0
 23 24  1  0  0  0  0
 24 25  2  0  0  0  0
 25 26  1  0  0  0  0
 26 27  1  0  0  0  0
 28 26  2  0  0  0  0
 29 28  1  0  0  0  0
 30 24  1  0  0  0  0
 30 31  1  0  0  0  0
 32 30  1  0  0  0  0
 33 34  1  0  0  0  0
 34 39  1  0  0  0  0
 35 34  2  0  0  0  0
 35 36  1  0  0  0  0
 36 37  2  0  0  0  0
 37 38  1  0  0  0  0
 37 41  1  0  0  0  0
 38 42  1  0  0  0  0
 39 43  1  0  0  0  0
 39 38  2  0  0  0  0
 40 36  1  0  0  0  0
 44 43  1  0  0  0  0
M  END
>  <minimizedAffinity>
-7.09822083

$$$$

 OpenBabel03272502083D

 44 48  0  0  0  0  0  0  0  0999 V2000
   36.4780   28.6200   35.5920 F   0  0  0  0  0  0  0  0  0  0  0  0
   36.2170   28.8800   34.2720 C   0  0  0  0  0  0  0  0  0  0  0  0
   36.7370   28.1020   33.2520 C   0  0  0  0  0  0  0  0  0  0  0  0
   36.4160   28.4180   31.9450 C   0  0  0  0  0  0  0  0  0  0  0  0
   35.5800   29.5020   31.6560 C   0  0  0  0  0  0  0  0  0  0  0  0
   35.0960   30.2360   32.7230 C   0  0  0  0  0  0  0  0  0  0  0  0
   35.3830   29.9660   34.0080 C   0  0  0  0  0  0  0  0  0  0  0  0
   36.8490   27.7790   31.1970 H   0  0  0  0  0  0  0  0  0  0  0  0
   35.3540   29.7130   30.6190 H   0  0  0  0  0  0  0  0  0  0  0  0
   34.4630   31.0490   32.4160 H   0  0  0  0  0  0  0  0  0  0  0  0
   37.2660   25.7550   33.2070 C   0  0  0  0  0  0  0  0  0  0  0  0
   37.5780   27.0230   33.6780 C   0  0  0  0  0  0  0  0  0  0  0  0
   38.6750   27.1480   34.5120 C   0  0  0  0  0  0  0  0  0  0  0  0
   39.4080   26.0600   34.8460 N   0  0  0  0  0  0  0  0  0  0  0  0
   39.0780   24.8520   34.3720 C   0  0  0  0  0  0  0  0  0  0  0  0
   38.0350   24.6950   33.5710 N   0  0  0  0  0  0  0  0  0  0  0  0
   36.4140   25.6010   32.5480 H   0  0  0  0  0  0  0  0  0  0  0  0
   38.8900   28.1660   34.8660 H   0  0  0  0  0  0  0  0  0  0  0  0
   39.9650   23.8320   34.8310 N   0  0  0  0  0  0  0  0  0  0  0  0
   39.7240   22.5380   35.1780 C   0  0  0  0  0  0  0  0  0  0  0  0
   38.7510   22.0900   35.1430 H   0  0  0  0  0  0  0  0  0  0  0  0
   40.8960   21.9600   35.5550 N   0  0  0  0  0  0  0  0  0  0  0  0
   41.8350   22.8860   35.4410 C   0  0  0  0  0  0  0  0  0  0  0  0
   43.1920   22.8940   35.6740 C   0  0  0  0  0  0  0  0  0  0  0  0
   43.9500   24.0040   35.4740 N   0  0  0  0  0  0  0  0  0  0  0  0
   43.3930   25.1510   35.0330 C   0  0  0  0  0  0  0  0  0  0  0  0
   44.0320   26.0100   34.8870 H   0  0  0  0  0  0  0  0  0  0  0  0
   42.0690   25.1590   34.8000 N   0  0  0  0  0  0  0  0  0  0  0  0
   41.3010   24.0700   34.9930 C   0  0  0  0  0  0  0  0  0  0  0  0
   43.8910   21.7450   36.1400 N   0  0  0  0  0  0  0  0  0  0  0  0
   44.4070   20.8850   35.8600 H   0  0  0  0  0  0  0  0  0  0  0  0
   43.8740   21.7870   37.2020 H   0  0  0  0  0  0  0  0  0  0  0  0
   32.5350   29.2600   35.1050 Br  0  0  0  0  0  0  0  0  0  0  0  0
   33.6560   30.6650   35.7390 C   0  0  0  0  0  0  0  0  0  0  0  0
   34.8480   30.7880   35.0770 C   0  0  0  0  0  0  0  0  0  0  0  0
   35.7140   31.8260   35.4660 C   0  0  0  0  0  0  0  0  0  0  0  0
   35.3750   32.6770   36.4690 C   0  0  0  0  0  0  0  0  0  0  0  0
   34.1550   32.4960   37.0970 C   0  0  0  0  0  0  0  0  0  0  0  0
   33.2700   31.4780   36.7380 C   0  0  0  0  0  0  0  0  0  0  0  0
   36.6750   31.9980   34.9980 H   0  0  0  0  0  0  0  0  0  0  0  0
   36.0270   33.4810   36.7810 H   0  0  0  0  0  0  0  0  0  0  0  0
   33.8450   33.1560   37.9070 H   0  0  0  0  0  0  0  0  0  0  0  0
   32.0600   31.2360   37.3090 O   0  0  0  0  0  0  0  0  0  0  0  0
   31.1950   31.5580   36.9340 H   0  0  0  0  0  0  0  0  0  0  0  0
  2  1  1  0  0  0  0
  3 12  1  0  0  0  0
  3  2  2  0  0  0  0
  4  3  1  0  0  0  0
  5  4  2  0  0  0  0
  5  6  1  0  0  0  0
  6  7  2  0  0  0  0
  7  2  1  0  0  0  0
  7 35  1  0  0  0  0
  8  4  1  0  0  0  0
  9  5  1  0  0  0  0
 10  6  1  0  0  0  0
 11 16  2  0  0  0  0
 11 12  1  0  0  0  0
 12 13  2  0  0  0  0
 13 14  1  0  0  0  0
 13 18  1  0  0  0  0
 15 19  1  0  0  0  0
 15 14  2  0  0  0  0
 16 15  1  0  0  0  0
 17 11  1  0  0  0  0
 19 29  1  0  0  0  0
 19 20  1  0  0  0  0
 20 22  2  0  0  0  0
 21 20  1  0  0  0  0
 23 22  1  0  0  0  0
 23 24  1  0  0  0  0
 24 30  1  0  0  0  0
 25 24  2  0  0  0  0
 26 25  1  0  0  0  0
 27 26  1  0  0  0  0
 28 29  1  0  0  0  0
 28 26  2  0  0  0  0
 29 23  2  0  0  0  0
 30 32  1  0  0  0  0
 31 30  1  0  0  0  0
 33 34  1  0  0  0  0
 34 39  1  0  0  0  0
 35 36  1  0  0  0  0
 35 34  2  0  0  0  0
 36 37  2  0  0  0  0
 37 41  1  0  0  0  0
 37 38  1  0  0  0  0
 38 42  1  0  0  0  0
 39 38  2  0  0  0  0
 39 43  1  0  0  0  0
 40 36  1  0  0  0  0
 44 43  1  0  0  0  0
M  END
>  <minimizedAffinity>
-6.95372391

$$$$

 OpenBabel03272502083D

 44 48  0  0  0  0  0  0  0  0999 V2000
   35.1900   28.2150   34.1460 F   0  0  0  0  0  0  0  0  0  0  0  0
   35.6350   29.0220   33.1310 C   0  0  0  0  0  0  0  0  0  0  0  0
   36.1870   28.5080   31.9710 C   0  0  0  0  0  0  0  0  0  0  0  0
   36.5980   29.3860   30.9850 C   0  0  0  0  0  0  0  0  0  0  0  0
   36.4600   30.7680   31.1540 C   0  0  0  0  0  0  0  0  0  0  0  0
   35.9010   31.2120   32.3390 C   0  0  0  0  0  0  0  0  0  0  0  0
   35.4880   30.3950   33.3230 C   0  0  0  0  0  0  0  0  0  0  0  0
   37.0190   28.9290   30.1080 H   0  0  0  0  0  0  0  0  0  0  0  0
   36.7950   31.4180   30.3570 H   0  0  0  0  0  0  0  0  0  0  0  0
   35.8300   32.2840   32.3890 H   0  0  0  0  0  0  0  0  0  0  0  0
   35.3540   26.4190   31.1150 C   0  0  0  0  0  0  0  0  0  0  0  0
   36.2740   27.0780   31.9190 C   0  0  0  0  0  0  0  0  0  0  0  0
   37.2020   26.3110   32.5980 C   0  0  0  0  0  0  0  0  0  0  0  0
   37.2000   24.9630   32.4710 N   0  0  0  0  0  0  0  0  0  0  0  0
   36.2980   24.3600   31.6860 C   0  0  0  0  0  0  0  0  0  0  0  0
   35.3950   25.0640   31.0210 N   0  0  0  0  0  0  0  0  0  0  0  0
   34.6020   26.9750   30.5590 H   0  0  0  0  0  0  0  0  0  0  0  0
   37.9120   26.8680   33.2250 H   0  0  0  0  0  0  0  0  0  0  0  0
   36.4530   22.9410   31.6780 N   0  0  0  0  0  0  0  0  0  0  0  0
   35.5240   21.9480   31.6250 C   0  0  0  0  0  0  0  0  0  0  0  0
   34.4680   22.1310   31.5770 H   0  0  0  0  0  0  0  0  0  0  0  0
   36.1630   20.7480   31.6430 N   0  0  0  0  0  0  0  0  0  0  0  0
   37.4600   21.0050   31.7070 C   0  0  0  0  0  0  0  0  0  0  0  0
   38.5830   20.2090   31.7510 C   0  0  0  0  0  0  0  0  0  0  0  0
   39.8350   20.7350   31.8150 N   0  0  0  0  0  0  0  0  0  0  0  0
   40.0240   22.0700   31.8370 C   0  0  0  0  0  0  0  0  0  0  0  0
   41.0360   22.4460   31.8890 H   0  0  0  0  0  0  0  0  0  0  0  0
   38.9360   22.8600   31.7950 N   0  0  0  0  0  0  0  0  0  0  0  0
   37.6880   22.3600   31.7310 C   0  0  0  0  0  0  0  0  0  0  0  0
   38.5100   18.7880   31.7330 N   0  0  0  0  0  0  0  0  0  0  0  0
   38.4930   17.9390   31.1290 H   0  0  0  0  0  0  0  0  0  0  0  0
   38.4480   18.4730   32.7460 H   0  0  0  0  0  0  0  0  0  0  0  0
   32.3820   30.2230   33.6890 Br  0  0  0  0  0  0  0  0  0  0  0  0
   33.6120   30.9480   34.9490 C   0  0  0  0  0  0  0  0  0  0  0  0
   34.9210   30.9330   34.5460 C   0  0  0  0  0  0  0  0  0  0  0  0
   35.8850   31.4850   35.4100 C   0  0  0  0  0  0  0  0  0  0  0  0
   35.5230   32.0140   36.6070 C   0  0  0  0  0  0  0  0  0  0  0  0
   34.1850   31.9960   36.9550 C   0  0  0  0  0  0  0  0  0  0  0  0
   33.2010   31.4580   36.1240 C   0  0  0  0  0  0  0  0  0  0  0  0
   36.9390   31.5160   35.1710 H   0  0  0  0  0  0  0  0  0  0  0  0
   36.2500   32.4430   37.2850 H   0  0  0  0  0  0  0  0  0  0  0  0
   33.8530   32.4090   37.9070 H   0  0  0  0  0  0  0  0  0  0  0  0
   31.8690   31.4020   36.3970 O   0  0  0  0  0  0  0  0  0  0  0  0
   31.2060   32.0660   36.0630 H   0  0  0  0  0  0  0  0  0  0  0  0
  2  7  1  0  0  0  0
  2  1  1  0  0  0  0
  3  2  2  0  0  0  0
  4  5  2  0  0  0  0
  4  3  1  0  0  0  0
  5  6  1  0  0  0  0
  6 10  1  0  0  0  0
  6  7  2  0  0  0  0
  7 35  1  0  0  0  0
  8  4  1  0  0  0  0
  9  5  1  0  0  0  0
 11 12  1  0  0  0  0
 12  3  1  0  0  0  0
 12 13  2  0  0  0  0
 13 18  1  0  0  0  0
 14 13  1  0  0  0  0
 15 14  2  0  0  0  0
 16 11  2  0  0  0  0
 16 15  1  0  0  0  0
 17 11  1  0  0  0  0
 19 15  1  0  0  0  0
 19 29  1  0  0  0  0
 20 22  2  0  0  0  0
 20 19  1  0  0  0  0
 21 20  1  0  0  0  0
 22 23  1  0  0  0  0
 23 29  2  0  0  0  0
 23 24  1  0  0  0  0
 24 25  2  0  0  0  0
 25 26  1  0  0  0  0
 26 27  1  0  0  0  0
 28 26  2  0  0  0  0
 29 28  1  0  0  0  0
 30 24  1  0  0  0  0
 30 32  1  0  0  0  0
 31 30  1  0  0  0  0
 33 34  1  0  0  0  0
 34 39  1  0  0  0  0
 35 34  2  0  0  0  0
 35 36  1  0  0  0  0
 36 37  2  0  0  0  0
 37 38  1  0  0  0  0
 37 41  1  0  0  0  0
 38 42  1  0  0  0  0
 39 43  1  0  0  0  0
 39 38  2  0  0  0  0
 40 36  1  0  0  0  0
 44 43  1  0  0  0  0
M  END
>  <minimizedAffinity>
-6.7489233

$$$$

 OpenBabel03272502083D

 44 48  0  0  0  0  0  0  0  0999 V2000
   40.9980   24.9660   34.7280 F   0  0  0  0  0  0  0  0  0  0  0  0
   40.4560   24.2000   35.7260 C   0  0  0  0  0  0  0  0  0  0  0  0
   39.1660   24.4000   36.1880 C   0  0  0  0  0  0  0  0  0  0  0  0
   38.6830   23.5760   37.1870 C   0  0  0  0  0  0  0  0  0  0  0  0
   39.4790   22.5570   37.7220 C   0  0  0  0  0  0  0  0  0  0  0  0
   40.7570   22.4140   37.2140 C   0  0  0  0  0  0  0  0  0  0  0  0
   41.2680   23.1920   36.2450 C   0  0  0  0  0  0  0  0  0  0  0  0
   37.6770   23.7790   37.5050 H   0  0  0  0  0  0  0  0  0  0  0  0
   39.0600   21.9350   38.5020 H   0  0  0  0  0  0  0  0  0  0  0  0
   41.3010   21.6100   37.6770 H   0  0  0  0  0  0  0  0  0  0  0  0
   38.3100   26.6470   36.2900 C   0  0  0  0  0  0  0  0  0  0  0  0
   38.4550   25.4740   35.5610 C   0  0  0  0  0  0  0  0  0  0  0  0
   37.9120   25.4360   34.2890 C   0  0  0  0  0  0  0  0  0  0  0  0
   37.2650   26.5140   33.7880 N   0  0  0  0  0  0  0  0  0  0  0  0
   37.1440   27.6290   34.5200 C   0  0  0  0  0  0  0  0  0  0  0  0
   37.6510   27.7010   35.7410 N   0  0  0  0  0  0  0  0  0  0  0  0
   38.7170   26.7310   37.2950 H   0  0  0  0  0  0  0  0  0  0  0  0
   38.0460   24.4910   33.7430 H   0  0  0  0  0  0  0  0  0  0  0  0
   36.4340   28.6550   33.8260 N   0  0  0  0  0  0  0  0  0  0  0  0
   35.5520   29.5860   34.2810 C   0  0  0  0  0  0  0  0  0  0  0  0
   35.2600   29.6680   35.3100 H   0  0  0  0  0  0  0  0  0  0  0  0
   35.1400   30.3480   33.2330 N   0  0  0  0  0  0  0  0  0  0  0  0
   35.7580   29.8880   32.1570 C   0  0  0  0  0  0  0  0  0  0  0  0
   35.7430   30.2500   30.8290 C   0  0  0  0  0  0  0  0  0  0  0  0
   36.4910   29.5990   29.8980 N   0  0  0  0  0  0  0  0  0  0  0  0
   37.2830   28.5650   30.2480 C   0  0  0  0  0  0  0  0  0  0  0  0
   37.8600   28.0760   29.4760 H   0  0  0  0  0  0  0  0  0  0  0  0
   37.3080   28.2010   31.5420 N   0  0  0  0  0  0  0  0  0  0  0  0
   36.5760   28.8320   32.4790 C   0  0  0  0  0  0  0  0  0  0  0  0
   34.9470   31.3230   30.3400 N   0  0  0  0  0  0  0  0  0  0  0  0
   34.9160   32.3460   30.1450 H   0  0  0  0  0  0  0  0  0  0  0  0
   34.0080   30.9080   30.0680 H   0  0  0  0  0  0  0  0  0  0  0  0
   41.6770   21.3450   33.7480 Br  0  0  0  0  0  0  0  0  0  0  0  0
   43.0540   22.2640   34.6900 C   0  0  0  0  0  0  0  0  0  0  0  0
   42.6240   22.9910   35.7680 C   0  0  0  0  0  0  0  0  0  0  0  0
   43.5880   23.6700   36.5340 C   0  0  0  0  0  0  0  0  0  0  0  0
   44.9060   23.6030   36.2110 C   0  0  0  0  0  0  0  0  0  0  0  0
   45.2730   22.8520   35.1090 C   0  0  0  0  0  0  0  0  0  0  0  0
   44.3450   22.1660   34.3250 C   0  0  0  0  0  0  0  0  0  0  0  0
   43.3380   24.2660   37.4020 H   0  0  0  0  0  0  0  0  0  0  0  0
   45.6630   24.1180   36.7890 H   0  0  0  0  0  0  0  0  0  0  0  0
   46.3200   22.7730   34.8150 H   0  0  0  0  0  0  0  0  0  0  0  0
   44.6290   21.4120   33.2300 O   0  0  0  0  0  0  0  0  0  0  0  0
   44.7290   20.4200   33.2480 H   0  0  0  0  0  0  0  0  0  0  0  0
  1  2  1  0  0  0  0
  2  3  2  0  0  0  0
  2  7  1  0  0  0  0
  3  4  1  0  0  0  0
  4  8  1  0  0  0  0
  4  5  2  0  0  0  0
  5  9  1  0  0  0  0
  6 10  1  0  0  0  0
  6  5  1  0  0  0  0
  7  6  2  0  0  0  0
 11 17  1  0  0  0  0
 12  3  1  0  0  0  0
 12 11  2  0  0  0  0
 13 12  1  0  0  0  0
 14 13  2  0  0  0  0
 14 15  1  0  0  0  0
 15 16  2  0  0  0  0
 16 11  1  0  0  0  0
 18 13  1  0  0  0  0
 19 20  1  0  0  0  0
 19 15  1  0  0  0  0
 20 21  1  0  0  0  0
 22 20  2  0  0  0  0
 23 29  1  0  0  0  0
 23 22  1  0  0  0  0
 24 23  2  0  0  0  0
 25 26  2  0  0  0  0
 25 24  1  0  0  0  0
 26 28  1  0  0  0  0
 27 26  1  0  0  0  0
 28 29  2  0  0  0  0
 29 19  1  0  0  0  0
 30 24  1  0  0  0  0
 31 30  1  0  0  0  0
 32 30  1  0  0  0  0
 33 34  1  0  0  0  0
 34 35  1  0  0  0  0
 35  7  1  0  0  0  0
 35 36  2  0  0  0  0
 36 40  1  0  0  0  0
 37 36  1  0  0  0  0
 37 41  1  0  0  0  0
 38 37  2  0  0  0  0
 39 34  2  0  0  0  0
 39 38  1  0  0  0  0
 42 38  1  0  0  0  0
 43 44  1  0  0  0  0
 43 39  1  0  0  0  0
M  END
>  <minimizedAffinity>
-6.72137356

$$$$

 OpenBabel03272502083D

 44 48  0  0  0  0  0  0  0  0999 V2000
   38.7930   24.9460   33.8420 F   0  0  0  0  0  0  0  0  0  0  0  0
   37.9850   23.9580   33.3420 C   0  0  0  0  0  0  0  0  0  0  0  0
   36.9560   24.2280   32.4560 C   0  0  0  0  0  0  0  0  0  0  0  0
   36.1940   23.1770   31.9830 C   0  0  0  0  0  0  0  0  0  0  0  0
   36.4540   21.8640   32.3900 C   0  0  0  0  0  0  0  0  0  0  0  0
   37.4960   21.6670   33.2780 C   0  0  0  0  0  0  0  0  0  0  0  0
   38.2620   22.6580   33.7630 C   0  0  0  0  0  0  0  0  0  0  0  0
   35.4110   23.4480   31.2980 H   0  0  0  0  0  0  0  0  0  0  0  0
   35.8330   21.0720   31.9940 H   0  0  0  0  0  0  0  0  0  0  0  0
   37.6300   20.6320   33.5390 H   0  0  0  0  0  0  0  0  0  0  0  0
   36.8860   26.5300   33.1540 C   0  0  0  0  0  0  0  0  0  0  0  0
   36.7920   25.6110   32.1180 C   0  0  0  0  0  0  0  0  0  0  0  0
   36.5570   26.0980   30.8450 C   0  0  0  0  0  0  0  0  0  0  0  0
   36.4260   27.4290   30.6350 N   0  0  0  0  0  0  0  0  0  0  0  0
   36.5220   28.2870   31.6590 C   0  0  0  0  0  0  0  0  0  0  0  0
   36.7470   27.8560   32.8900 N   0  0  0  0  0  0  0  0  0  0  0  0
   37.0690   26.2010   34.1740 H   0  0  0  0  0  0  0  0  0  0  0  0
   36.4880   25.3410   30.0510 H   0  0  0  0  0  0  0  0  0  0  0  0
   36.3580   29.6430   31.2430 N   0  0  0  0  0  0  0  0  0  0  0  0
   35.7550   30.6930   31.8640 C   0  0  0  0  0  0  0  0  0  0  0  0
   35.2900   30.6210   32.8280 H   0  0  0  0  0  0  0  0  0  0  0  0
   35.8540   31.7900   31.0650 N   0  0  0  0  0  0  0  0  0  0  0  0
   36.5050   31.4140   29.9760 C   0  0  0  0  0  0  0  0  0  0  0  0
   36.8990   32.0720   28.8330 C   0  0  0  0  0  0  0  0  0  0  0  0
   37.5750   31.4420   27.8360 N   0  0  0  0  0  0  0  0  0  0  0  0
   37.8870   30.1330   27.9340 C   0  0  0  0  0  0  0  0  0  0  0  0
   38.4250   29.6710   27.1180 H   0  0  0  0  0  0  0  0  0  0  0  0
   37.5090   29.4770   29.0450 N   0  0  0  0  0  0  0  0  0  0  0  0
   36.8400   30.0830   30.0430 C   0  0  0  0  0  0  0  0  0  0  0  0
   36.6270   33.4530   28.6170 N   0  0  0  0  0  0  0  0  0  0  0  0
   36.9770   34.4250   28.7480 H   0  0  0  0  0  0  0  0  0  0  0  0
   35.6860   33.5050   28.1250 H   0  0  0  0  0  0  0  0  0  0  0  0
   37.6560   23.0160   36.8160 Br  0  0  0  0  0  0  0  0  0  0  0  0
   39.3080   22.4290   36.0710 C   0  0  0  0  0  0  0  0  0  0  0  0
   39.3320   22.3780   34.7020 C   0  0  0  0  0  0  0  0  0  0  0  0
   40.5310   21.9860   34.0780 C   0  0  0  0  0  0  0  0  0  0  0  0
   41.6270   21.6680   34.8140 C   0  0  0  0  0  0  0  0  0  0  0  0
   41.5340   21.7390   36.1920 C   0  0  0  0  0  0  0  0  0  0  0  0
   40.3630   22.1240   36.8470 C   0  0  0  0  0  0  0  0  0  0  0  0
   40.6400   21.9200   33.0030 H   0  0  0  0  0  0  0  0  0  0  0  0
   42.5570   21.3660   34.3520 H   0  0  0  0  0  0  0  0  0  0  0  0
   42.3900   21.4920   36.8200 H   0  0  0  0  0  0  0  0  0  0  0  0
   40.1950   22.2140   38.1930 O   0  0  0  0  0  0  0  0  0  0  0  0
   40.2710   23.0650   38.7060 H   0  0  0  0  0  0  0  0  0  0  0  0
  2  7  1  0  0  0  0
  2  1  1  0  0  0  0
  3  2  2  0  0  0  0
  4  5  2  0  0  0  0
  4  3  1  0  0  0  0
  5  6  1  0  0  0  0
  6 10  1  0  0  0  0
  6  7  2  0  0  0  0
  7 35  1  0  0  0  0
  8  4  1  0  0  0  0
  9  5  1  0  0  0  0
 11 17  1  0  0  0  0
 12  3  1  0  0  0  0
 12 11  2  0  0  0  0
 13 12  1  0  0  0  0
 14 13  2  0  0  0  0
 14 15  1  0  0  0  0
 15 16  2  0  0  0  0
 16 11  1  0  0  0  0
 18 13  1  0  0  0  0
 19 15  1  0  0  0  0
 19 20  1  0  0  0  0
 20 21  1  0  0  0  0
 22 20  2  0  0  0  0
 23 29  1  0  0  0  0
 23 22  1  0  0  0  0
 24 23  2  0  0  0  0
 25 26  2  0  0  0  0
 25 24  1  0  0  0  0
 26 28  1  0  0  0  0
 27 26  1  0  0  0  0
 28 29  2  0  0  0  0
 29 19  1  0  0  0  0
 30 31  1  0  0  0  0
 30 24  1  0  0  0  0
 32 30  1  0  0  0  0
 34 33  1  0  0  0  0
 34 39  1  0  0  0  0
 35 34  2  0  0  0  0
 36 35  1  0  0  0  0
 36 37  2  0  0  0  0
 37 38  1  0  0  0  0
 38 42  1  0  0  0  0
 38 39  2  0  0  0  0
 39 43  1  0  0  0  0
 40 36  1  0  0  0  0
 41 37  1  0  0  0  0
 43 44  1  0  0  0  0
M  END
>  <minimizedAffinity>
-6.71450758

$$$$

 OpenBabel03272502083D

 44 48  0  0  0  0  0  0  0  0999 V2000
   36.4330   26.6460   34.5540 F   0  0  0  0  0  0  0  0  0  0  0  0
   37.6250   26.6030   33.8780 C   0  0  0  0  0  0  0  0  0  0  0  0
   37.9060   27.4610   32.8280 C   0  0  0  0  0  0  0  0  0  0  0  0
   39.1370   27.3690   32.2060 C   0  0  0  0  0  0  0  0  0  0  0  0
   40.0830   26.4280   32.6270 C   0  0  0  0  0  0  0  0  0  0  0  0
   39.7350   25.6030   33.6810 C   0  0  0  0  0  0  0  0  0  0  0  0
   38.5510   25.6570   34.3140 C   0  0  0  0  0  0  0  0  0  0  0  0
   39.2980   28.0590   31.3980 H   0  0  0  0  0  0  0  0  0  0  0  0
   41.0330   26.3900   32.1120 H   0  0  0  0  0  0  0  0  0  0  0  0
   40.5150   24.9100   33.9420 H   0  0  0  0  0  0  0  0  0  0  0  0
   36.8480   28.8820   31.2000 C   0  0  0  0  0  0  0  0  0  0  0  0
   36.8560   28.3770   32.4930 C   0  0  0  0  0  0  0  0  0  0  0  0
   35.8520   28.7880   33.3510 C   0  0  0  0  0  0  0  0  0  0  0  0
   34.9020   29.6540   32.9270 N   0  0  0  0  0  0  0  0  0  0  0  0
   34.9250   30.1210   31.6720 C   0  0  0  0  0  0  0  0  0  0  0  0
   35.8700   29.7480   30.8240 N   0  0  0  0  0  0  0  0  0  0  0  0
   37.6140   28.5920   30.4850 H   0  0  0  0  0  0  0  0  0  0  0  0
   35.8930   28.3680   34.3660 H   0  0  0  0  0  0  0  0  0  0  0  0
   33.8450   31.0170   31.4110 N   0  0  0  0  0  0  0  0  0  0  0  0
   33.7930   32.1450   30.6520 C   0  0  0  0  0  0  0  0  0  0  0  0
   34.6350   32.5290   30.1090 H   0  0  0  0  0  0  0  0  0  0  0  0
   32.5360   32.6590   30.7140 N   0  0  0  0  0  0  0  0  0  0  0  0
   31.8330   31.8580   31.4990 C   0  0  0  0  0  0  0  0  0  0  0  0
   30.5250   31.8620   31.9290 C   0  0  0  0  0  0  0  0  0  0  0  0
   30.0360   30.8980   32.7540 N   0  0  0  0  0  0  0  0  0  0  0  0
   30.8250   29.8920   33.1850 C   0  0  0  0  0  0  0  0  0  0  0  0
   30.3960   29.1480   33.8410 H   0  0  0  0  0  0  0  0  0  0  0  0
   32.1050   29.8760   32.7740 N   0  0  0  0  0  0  0  0  0  0  0  0
   32.6080   30.8200   31.9570 C   0  0  0  0  0  0  0  0  0  0  0  0
   29.5980   32.8700   31.5410 N   0  0  0  0  0  0  0  0  0  0  0  0
   28.8860   33.1530   30.8350 H   0  0  0  0  0  0  0  0  0  0  0  0
   29.6660   33.6430   32.2670 H   0  0  0  0  0  0  0  0  0  0  0  0
   37.7310   22.7210   33.5900 Br  0  0  0  0  0  0  0  0  0  0  0  0
   37.9040   23.4270   35.3510 C   0  0  0  0  0  0  0  0  0  0  0  0
   38.2510   24.7500   35.4060 C   0  0  0  0  0  0  0  0  0  0  0  0
   38.3630   25.3510   36.6740 C   0  0  0  0  0  0  0  0  0  0  0  0
   38.1340   24.6350   37.8050 C   0  0  0  0  0  0  0  0  0  0  0  0
   37.7890   23.3020   37.6790 C   0  0  0  0  0  0  0  0  0  0  0  0
   37.6680   22.6720   36.4390 C   0  0  0  0  0  0  0  0  0  0  0  0
   38.6310   26.3900   36.8100 H   0  0  0  0  0  0  0  0  0  0  0  0
   38.2150   25.0800   38.7880 H   0  0  0  0  0  0  0  0  0  0  0  0
   37.5980   22.6920   38.5610 H   0  0  0  0  0  0  0  0  0  0  0  0
   37.3360   21.3690   36.2360 O   0  0  0  0  0  0  0  0  0  0  0  0
   36.4130   21.0580   36.0220 H   0  0  0  0  0  0  0  0  0  0  0  0
  2  7  1  0  0  0  0
  2  1  1  0  0  0  0
  3  2  2  0  0  0  0
  4  5  2  0  0  0  0
  4  3  1  0  0  0  0
  5  6  1  0  0  0  0
  6 10  1  0  0  0  0
  6  7  2  0  0  0  0
  7 35  1  0  0  0  0
  8  4  1  0  0  0  0
  9  5  1  0  0  0  0
 11 12  1  0  0  0  0
 12  3  1  0  0  0  0
 12 13  2  0  0  0  0
 13 18  1  0  0  0  0
 14 13  1  0  0  0  0
 15 14  2  0  0  0  0
 16 11  2  0  0  0  0
 16 15  1  0  0  0  0
 17 11  1  0  0  0  0
 19 15  1  0  0  0  0
 19 29  1  0  0  0  0
 20 22  2  0  0  0  0
 20 19  1  0  0  0  0
 21 20  1  0  0  0  0
 22 23  1  0  0  0  0
 23 24  2  0  0  0  0
 23 29  1  0  0  0  0
 24 25  1  0  0  0  0
 25 26  2  0  0  0  0
 26 27  1  0  0  0  0
 28 26  1  0  0  0  0
 29 28  2  0  0  0  0
 30 24  1  0  0  0  0
 30 32  1  0  0  0  0
 31 30  1  0  0  0  0
 33 34  1  0  0  0  0
 34 35  2  0  0  0  0
 34 39  1  0  0  0  0
 35 36  1  0  0  0  0
 36 40  1  0  0  0  0
 36 37  2  0  0  0  0
 37 41  1  0  0  0  0
 38 37  1  0  0  0  0
 38 42  1  0  0  0  0
 39 38  2  0  0  0  0
 43 39  1  0  0  0  0
 44 43  1  0  0  0  0
M  END
>  <minimizedAffinity>
-6.67238712

$$$$

 OpenBabel03272502083D

 44 48  0  0  0  0  0  0  0  0999 V2000
   41.1110   24.8650   34.4250 F   0  0  0  0  0  0  0  0  0  0  0  0
   40.4200   24.2540   35.4390 C   0  0  0  0  0  0  0  0  0  0  0  0
   39.0750   24.4960   35.6630 C   0  0  0  0  0  0  0  0  0  0  0  0
   38.4430   23.8280   36.6950 C   0  0  0  0  0  0  0  0  0  0  0  0
   39.1460   22.9240   37.4990 C   0  0  0  0  0  0  0  0  0  0  0  0
   40.4870   22.7320   37.2190 C   0  0  0  0  0  0  0  0  0  0  0  0
   41.1410   23.3590   36.2280 C   0  0  0  0  0  0  0  0  0  0  0  0
   37.4010   24.0560   36.8210 H   0  0  0  0  0  0  0  0  0  0  0  0
   38.6120   22.4240   38.2950 H   0  0  0  0  0  0  0  0  0  0  0  0
   40.9520   22.0240   37.8810 H   0  0  0  0  0  0  0  0  0  0  0  0
   38.2470   25.0250   33.4660 C   0  0  0  0  0  0  0  0  0  0  0  0
   38.4700   25.4410   34.7720 C   0  0  0  0  0  0  0  0  0  0  0  0
   38.0870   26.7250   35.1120 C   0  0  0  0  0  0  0  0  0  0  0  0
   37.5150   27.5360   34.1910 N   0  0  0  0  0  0  0  0  0  0  0  0
   37.3140   27.1000   32.9400 C   0  0  0  0  0  0  0  0  0  0  0  0
   37.6680   25.8760   32.5800 N   0  0  0  0  0  0  0  0  0  0  0  0
   38.5290   24.0240   33.1460 H   0  0  0  0  0  0  0  0  0  0  0  0
   38.2810   27.0200   36.1530 H   0  0  0  0  0  0  0  0  0  0  0  0
   36.7000   28.0920   32.1170 N   0  0  0  0  0  0  0  0  0  0  0  0
   36.8830   28.3890   30.8020 C   0  0  0  0  0  0  0  0  0  0  0  0
   37.5740   27.8650   30.1690 H   0  0  0  0  0  0  0  0  0  0  0  0
   36.0650   29.4220   30.4670 N   0  0  0  0  0  0  0  0  0  0  0  0
   35.3950   29.7500   31.5600 C   0  0  0  0  0  0  0  0  0  0  0  0
   34.4390   30.7020   31.8360 C   0  0  0  0  0  0  0  0  0  0  0  0
   33.8940   30.8360   33.0740 N   0  0  0  0  0  0  0  0  0  0  0  0
   34.2730   30.0310   34.0880 C   0  0  0  0  0  0  0  0  0  0  0  0
   33.8140   30.1720   35.0560 H   0  0  0  0  0  0  0  0  0  0  0  0
   35.2050   29.0960   33.8330 N   0  0  0  0  0  0  0  0  0  0  0  0
   35.7570   28.9470   32.6140 C   0  0  0  0  0  0  0  0  0  0  0  0
   33.9600   31.6090   30.8490 N   0  0  0  0  0  0  0  0  0  0  0  0
   33.2450   31.7670   30.1080 H   0  0  0  0  0  0  0  0  0  0  0  0
   34.5880   32.4640   30.8890 H   0  0  0  0  0  0  0  0  0  0  0  0
   41.9240   21.1420   34.1570 Br  0  0  0  0  0  0  0  0  0  0  0  0
   43.1430   22.2340   35.1330 C   0  0  0  0  0  0  0  0  0  0  0  0
   42.5540   23.1150   35.9990 C   0  0  0  0  0  0  0  0  0  0  0  0
   43.3910   23.9320   36.7810 C   0  0  0  0  0  0  0  0  0  0  0  0
   44.7420   23.8460   36.6740 C   0  0  0  0  0  0  0  0  0  0  0  0
   45.2730   22.9350   35.7780 C   0  0  0  0  0  0  0  0  0  0  0  0
   44.4740   22.1080   34.9870 C   0  0  0  0  0  0  0  0  0  0  0  0
   43.0120   24.6550   37.4910 H   0  0  0  0  0  0  0  0  0  0  0  0
   45.4030   24.4650   37.2670 H   0  0  0  0  0  0  0  0  0  0  0  0
   46.3510   22.8350   35.6620 H   0  0  0  0  0  0  0  0  0  0  0  0
   44.9210   21.1940   34.0850 O   0  0  0  0  0  0  0  0  0  0  0  0
   45.0150   20.2210   34.2810 H   0  0  0  0  0  0  0  0  0  0  0  0
  1  2  1  0  0  0  0
  2  3  2  0  0  0  0
  2  7  1  0  0  0  0
  3  4  1  0  0  0  0
  4  8  1  0  0  0  0
  4  5  2  0  0  0  0
  5  9  1  0  0  0  0
  6  5  1  0  0  0  0
  6 10  1  0  0  0  0
  7  6  2  0  0  0  0
 11 12  1  0  0  0  0
 12 13  2  0  0  0  0
 12  3  1  0  0  0  0
 13 18  1  0  0  0  0
 14 13  1  0  0  0  0
 15 14  2  0  0  0  0
 16 15  1  0  0  0  0
 16 11  2  0  0  0  0
 17 11  1  0  0  0  0
 19 29  1  0  0  0  0
 19 15  1  0  0  0  0
 20 19  1  0  0  0  0
 21 20  1  0  0  0  0
 22 20  2  0  0  0  0
 22 23  1  0  0  0  0
 23 24  2  0  0  0  0
 23 29  1  0  0  0  0
 24 25  1  0  0  0  0
 25 26  2  0  0  0  0
 26 27  1  0  0  0  0
 28 26  1  0  0  0  0
 29 28  2  0  0  0  0
 30 32  1  0  0  0  0
 30 24  1  0  0  0  0
 31 30  1  0  0  0  0
 33 34  1  0  0  0  0
 34 35  1  0  0  0  0
 35  7  1  0  0  0  0
 35 36  2  0  0  0  0
 36 40  1  0  0  0  0
 37 36  1  0  0  0  0
 37 41  1  0  0  0  0
 38 37  2  0  0  0  0
 39 34  2  0  0  0  0
 39 38  1  0  0  0  0
 42 38  1  0  0  0  0
 43 44  1  0  0  0  0
 43 39  1  0  0  0  0
M  END
>  <minimizedAffinity>
-6.66623116

$$$$
