REMARK  Name = 
REMARK  2 active torsions:
REMARK  status: ('A' for Active; 'I' for Inactive)
REMARK    1  A    between atoms: C_1  and  O_7
REMARK    2  A    between atoms: C_16  and  N_17
REMARK                            x       y       z     vdW  Elec       q    Type
REMARK                         _______ _______ _______ _____ _____    ______ ____
ROOT
ATOM      1  C   UNL     1      37.305  29.990  51.188  0.00  0.00    +0.000 A 
ATOM      2  C   UNL     1      37.944  30.915  50.352  0.00  0.00    +0.000 A 
ATOM      3  C   UNL     1      37.274  31.392  49.227  0.00  0.00    +0.000 A 
ATOM      4  N   UNL     1      36.017  30.933  48.992  0.00  0.00    +0.000 NA
ATOM      5  C   UNL     1      35.415  30.032  49.820  0.00  0.00    +0.000 A 
ATOM      6  N   UNL     1      36.048  29.573  50.894  0.00  0.00    +0.000 NA
ATOM      7  H   UNL     1      38.953  31.295  50.525  0.00  0.00    +0.000 HD
ATOM      8  H   UNL     1      37.712  32.102  48.548  0.00  0.00    +0.000 HD
ATOM      9  N   UNL     1      34.099  29.543  49.585  0.00  0.00    +0.000 N 
ATOM     10  C   UNL     1      33.760  28.792  48.500  0.00  0.00    +0.000 A 
ATOM     11  H   UNL     1      34.388  28.452  47.672  0.00  0.00    +0.000 HD
ATOM     12  N   UNL     1      32.437  28.460  48.525  0.00  0.00    +0.000 NA
ATOM     13  C   UNL     1      31.919  29.012  49.653  0.00  0.00    +0.000 A 
ATOM     14  C   UNL     1      30.677  29.068  50.281  0.00  0.00    +0.000 A 
ATOM     15  N   UNL     1      30.550  29.731  51.424  0.00  0.00    +0.000 NA
ATOM     16  C   UNL     1      31.594  30.363  52.009  0.00  0.00    +0.000 A 
ATOM     17  H   UNL     1      31.448  30.898  52.950  0.00  0.00    +0.000 HD
ATOM     18  N   UNL     1      32.842  30.357  51.462  0.00  0.00    +0.000 NA
ATOM     19  C   UNL     1      32.957  29.678  50.299  0.00  0.00    +0.000 A 
ENDROOT
BRANCH  14  20
ATOM     20  N   UNL     1      29.601  28.413  49.670  0.00  0.00    +0.000 N 
ATOM     21  H   UNL     1      28.683  28.274  50.163  0.00  0.00    +0.000 HD
ATOM     22  H   UNL     1      29.632  28.026  48.709  0.00  0.00    +0.000 HD
ENDBRANCH  14  20
BRANCH   1  23
ATOM     23  O   UNL     1      38.090  29.609  52.259  0.00  0.00    +0.000 OA
ATOM     24  H   UNL     1      37.832  28.913  52.941  0.00  0.00    +0.000 HD
ENDBRANCH   1  23
TORSDOF 2
