
     RDKit          3D

 45 49  0  0  0  0  0  0  0  0999 V2000
   37.3725   31.0639   47.1458 N   0  0  0  0  0  0  0  0  0  0  0  0
   36.7769   30.7203   45.9676 C   0  0  0  0  0  0  0  0  0  0  0  0
   37.2502   31.1984   44.7501 C   0  0  0  0  0  0  0  0  0  0  0  0
   38.3596   32.0456   44.7686 C   0  0  0  0  0  0  0  0  0  0  0  0
   38.8110   32.4933   43.6947 O   0  0  0  0  0  0  0  0  0  0  0  0
   38.9523   32.3859   45.9579 N   0  0  0  0  0  0  0  0  0  0  0  0
   38.4136   31.8689   47.0585 C   0  0  0  0  0  0  0  0  0  0  0  0
   38.9816   32.2021   48.1232 O   0  0  0  0  0  0  0  0  0  0  0  0
   37.2508   29.4774   50.5085 C   0  0  0  0  0  0  0  0  0  0  0  0
   37.7319   29.9657   49.2826 C   0  0  0  0  0  0  0  0  0  0  0  0
   36.8898   30.5781   48.3673 C   0  0  0  0  0  0  0  0  0  0  0  0
   35.5886   30.6863   48.7021 N   0  0  0  0  0  0  0  0  0  0  0  0
   35.0912   30.2220   49.8851 C   0  0  0  0  0  0  0  0  0  0  0  0
   35.9432   29.6193   50.7758 N   0  0  0  0  0  0  0  0  0  0  0  0
   36.6535   30.8640   43.4667 C   0  0  0  0  0  0  0  0  0  0  0  0
   36.9995   29.7663   42.7291 C   0  0  0  0  0  0  0  0  0  0  0  0
   36.4557   29.4243   41.5169 C   0  0  0  0  0  0  0  0  0  0  0  0
   35.4729   30.2379   40.9682 C   0  0  0  0  0  0  0  0  0  0  0  0
   35.1405   31.3484   41.7409 C   0  0  0  0  0  0  0  0  0  0  0  0
   35.7022   31.6367   42.9186 N   0  0  0  0  0  0  0  0  0  0  0  0
   40.0955   33.2600   45.9656 C   0  0  0  0  0  0  0  0  0  0  0  0
   39.9645   34.2384   45.0304 F   0  0  0  0  0  0  0  0  0  0  0  0
   41.2913   32.6047   45.6873 F   0  0  0  0  0  0  0  0  0  0  0  0
   40.1723   33.8830   47.2154 F   0  0  0  0  0  0  0  0  0  0  0  0
   35.9116   30.0611   45.9364 H   0  0  0  0  0  0  0  0  0  0  0  0
   37.9648   29.0142   51.1677 H   0  0  0  0  0  0  0  0  0  0  0  0
   38.7756   29.8946   48.9813 H   0  0  0  0  0  0  0  0  0  0  0  0
   34.0391   30.3370   50.0984 H   0  0  0  0  0  0  0  0  0  0  0  0
   37.7633   29.0867   43.1014 H   0  0  0  0  0  0  0  0  0  0  0  0
   36.7464   28.5492   40.9512 H   0  0  0  0  0  0  0  0  0  0  0  0
   34.9711   30.0874   40.0388 H   0  0  0  0  0  0  0  0  0  0  0  0
   34.1433   32.3114   41.3418 N   0  0  0  0  0  0  0  0  0  0  0  0
   34.1581   33.6491   41.6083 C   0  0  0  0  0  0  0  0  0  0  0  0
   34.9830   34.0835   42.1756 H   0  0  0  0  0  0  0  0  0  0  0  0
   33.0357   34.1863   41.0537 N   0  0  0  0  0  0  0  0  0  0  0  0
   32.3532   33.1814   40.4600 C   0  0  0  0  0  0  0  0  0  0  0  0
   31.1651   33.1575   39.7589 C   0  0  0  0  0  0  0  0  0  0  0  0
   30.4579   34.3703   39.5780 N   0  0  0  0  0  0  0  0  0  0  0  0
   30.2844   34.5089   38.5560 H   0  0  0  0  0  0  0  0  0  0  0  0
   30.6919   31.9832   39.2552 N   0  0  0  0  0  0  0  0  0  0  0  0
   31.3735   30.8304   39.4326 C   0  0  0  0  0  0  0  0  0  0  0  0
   31.0489   29.8646   39.0562 H   0  0  0  0  0  0  0  0  0  0  0  0
   32.5437   30.8555   40.1235 N   0  0  0  0  0  0  0  0  0  0  0  0
   33.0425   31.9932   40.6352 C   0  0  0  0  0  0  0  0  0  0  0  0
   30.0792   35.1301   40.1603 H   0  0  0  0  0  0  0  0  0  0  0  0
  1 11  1  0
  2  1  1  0
  3  4  1  0
  3  2  2  0
  4  6  1  0
  5  4  2  0
  6 21  1  0
  6  7  1  0
  7  1  1  0
  7  8  2  0
  9 14  2  0
 10  9  1  0
 11 12  1  0
 11 10  2  0
 12 13  2  0
 13 14  1  0
 15  3  1  0
 16 15  2  0
 17 16  1  0
 18 17  2  0
 18 19  1  0
 19 20  2  0
 20 15  1  0
 21 24  1  0
 22 21  1  0
 23 21  1  0
  2 25  1  0
  9 26  1  0
 10 27  1  0
 13 28  1  0
 16 29  1  0
 17 30  1  0
 18 31  1  0
 32 33  1  0
 33 34  1  0
 33 35  2  0
 35 36  1  0
 36 37  2  0
 37 38  1  0
 38 39  1  0
 37 40  1  0
 40 41  2  0
 41 42  1  0
 41 43  1  0
 43 44  2  0
 44 32  1  0
 44 36  1  0
 38 45  1  0
 19 32  1  0
M  ISO  8  25  14  26  14  27  14  28  14  29  14  30  14  31  14  34  15
M  ISO  2  39   5  42  16
M  END
>  <DihAtoms>  (1) 
17,18,31,32

>  <DihDeg>  (1) 
123.25810290245101

$$$$
