
 OpenBabel03272506343D

 24 26  0  0  0  0  0  0  0  0999 V2000
   37.3620   29.9330   50.8050 C   0  0  0  0  0  0  0  0  0  0  0  0
   37.8860   31.0840   50.2020 C   0  0  0  0  0  0  0  0  0  0  0  0
   37.2950   31.5720   49.0390 C   0  0  0  0  0  0  0  0  0  0  0  0
   36.2240   30.9020   48.5380 N   0  0  0  0  0  0  0  0  0  0  0  0
   35.7310   29.7830   49.1420 C   0  0  0  0  0  0  0  0  0  0  0  0
   36.2900   29.3120   50.2520 N   0  0  0  0  0  0  0  0  0  0  0  0
   38.7460   31.6350   50.5900 H   0  0  0  0  0  0  0  0  0  0  0  0
   37.6530   32.4510   48.5310 H   0  0  0  0  0  0  0  0  0  0  0  0
   34.6110   29.0720   48.6280 N   0  0  0  0  0  0  0  0  0  0  0  0
   34.2260   27.8470   49.0850 C   0  0  0  0  0  0  0  0  0  0  0  0
   34.6730   27.2300   49.8690 H   0  0  0  0  0  0  0  0  0  0  0  0
   33.1240   27.3970   48.4180 N   0  0  0  0  0  0  0  0  0  0  0  0
   32.7970   28.3580   47.5160 C   0  0  0  0  0  0  0  0  0  0  0  0
   31.8180   28.5510   46.5430 C   0  0  0  0  0  0  0  0  0  0  0  0
   31.8200   29.6670   45.8240 N   0  0  0  0  0  0  0  0  0  0  0  0
   32.7460   30.6370   46.0030 C   0  0  0  0  0  0  0  0  0  0  0  0
   32.7110   31.5410   45.3920 H   0  0  0  0  0  0  0  0  0  0  0  0
   33.7360   30.5300   46.9330 N   0  0  0  0  0  0  0  0  0  0  0  0
   33.7230   29.3880   47.6560 C   0  0  0  0  0  0  0  0  0  0  0  0
   30.8620   27.5430   46.3630 N   0  0  0  0  0  0  0  0  0  0  0  0
   30.0070   27.6880   45.7700 H   0  0  0  0  0  0  0  0  0  0  0  0
   30.9300   26.6020   46.7920 H   0  0  0  0  0  0  0  0  0  0  0  0
   38.0500   29.5690   51.9460 O   0  0  0  0  0  0  0  0  0  0  0  0
   37.8620   28.7410   52.4900 H   0  0  0  0  0  0  0  0  0  0  0  0
  1 23  1  0  0  0  0
  2  7  1  0  0  0  0
  2  1  2  0  0  0  0
  3  2  1  0  0  0  0
  4  3  2  0  0  0  0
  4  5  1  0  0  0  0
  5  6  2  0  0  0  0
  6  1  1  0  0  0  0
  8  3  1  0  0  0  0
  9 10  1  0  0  0  0
  9  5  1  0  0  0  0
 10 11  1  0  0  0  0
 12 10  2  0  0  0  0
 13 19  1  0  0  0  0
 13 12  1  0  0  0  0
 14 13  2  0  0  0  0
 15 16  2  0  0  0  0
 15 14  1  0  0  0  0
 16 18  1  0  0  0  0
 17 16  1  0  0  0  0
 18 19  2  0  0  0  0
 19  9  1  0  0  0  0
 20 14  1  0  0  0  0
 20 22  1  0  0  0  0
 21 20  1  0  0  0  0
 23 24  1  0  0  0  0
M  END
>  <minimizedAffinity>
-5.29711246

>  <minimizedRMSD>
1.30692518

$$$$
