
 OpenBabel03272506333D

 24 26  0  0  0  0  0  0  0  0999 V2000
   37.3850   29.8180   51.0440 C   0  0  0  0  0  0  0  0  0  0  0  0
   37.9420   31.0100   50.5630 C   0  0  0  0  0  0  0  0  0  0  0  0
   37.3710   31.6290   49.4520 C   0  0  0  0  0  0  0  0  0  0  0  0
   36.2880   31.0400   48.8820 N   0  0  0  0  0  0  0  0  0  0  0  0
   35.7630   29.8790   49.3680 C   0  0  0  0  0  0  0  0  0  0  0  0
   36.3020   29.2830   50.4260 N   0  0  0  0  0  0  0  0  0  0  0  0
   38.8120   31.4970   51.0080 H   0  0  0  0  0  0  0  0  0  0  0  0
   37.7540   32.5440   49.0370 H   0  0  0  0  0  0  0  0  0  0  0  0
   34.6280   29.2510   48.7790 N   0  0  0  0  0  0  0  0  0  0  0  0
   33.6890   28.5730   49.4980 C   0  0  0  0  0  0  0  0  0  0  0  0
   33.6360   28.3990   50.5760 H   0  0  0  0  0  0  0  0  0  0  0  0
   32.7130   28.0740   48.6850 N   0  0  0  0  0  0  0  0  0  0  0  0
   33.0380   28.4430   47.4180 C   0  0  0  0  0  0  0  0  0  0  0  0
   32.5030   28.2780   46.1430 C   0  0  0  0  0  0  0  0  0  0  0  0
   33.1290   28.8050   45.0970 N   0  0  0  0  0  0  0  0  0  0  0  0
   34.2820   29.5040   45.2250 C   0  0  0  0  0  0  0  0  0  0  0  0
   34.7660   29.9210   44.3400 H   0  0  0  0  0  0  0  0  0  0  0  0
   34.8720   29.7100   46.4350 N   0  0  0  0  0  0  0  0  0  0  0  0
   34.2230   29.1690   47.4910 C   0  0  0  0  0  0  0  0  0  0  0  0
   31.3110   27.5550   46.0160 N   0  0  0  0  0  0  0  0  0  0  0  0
   30.7670   27.5310   45.1170 H   0  0  0  0  0  0  0  0  0  0  0  0
   30.8890   27.0020   46.7860 H   0  0  0  0  0  0  0  0  0  0  0  0
   38.0560   29.3230   52.1450 O   0  0  0  0  0  0  0  0  0  0  0  0
   37.8440   28.4490   52.6020 H   0  0  0  0  0  0  0  0  0  0  0  0
  1 23  1  0  0  0  0
  2  7  1  0  0  0  0
  2  1  1  0  0  0  0
  3  2  2  0  0  0  0
  4  5  2  0  0  0  0
  4  3  1  0  0  0  0
  5  6  1  0  0  0  0
  6  1  2  0  0  0  0
  8  3  1  0  0  0  0
  9  5  1  0  0  0  0
  9 10  1  0  0  0  0
 10 11  1  0  0  0  0
 12 10  2  0  0  0  0
 13 19  1  0  0  0  0
 13 12  1  0  0  0  0
 14 13  2  0  0  0  0
 15 16  2  0  0  0  0
 15 14  1  0  0  0  0
 16 18  1  0  0  0  0
 17 16  1  0  0  0  0
 18 19  2  0  0  0  0
 19  9  1  0  0  0  0
 20 14  1  0  0  0  0
 20 22  1  0  0  0  0
 21 20  1  0  0  0  0
 23 24  1  0  0  0  0
M  END
>  <minimizedAffinity>
-5.11224604

>  <minimizedRMSD>
1.26216042

$$$$
