REMARK  Name = 
REMARK  4 active torsions:
REMARK  status: ('A' for Active; 'I' for Inactive)
REMARK    1  A    between atoms: N_1  and  C_11
REMARK    2  A    between atoms: C_3  and  C_15
REMARK    3  A    between atoms: N_6  and  C_21
REMARK    4  A    between atoms: C_37  and  N_38
REMARK                            x       y       z     vdW  Elec       q    Type
REMARK                         _______ _______ _______ _____ _____    ______ ____
ROOT
ATOM      1  C   UNL     1      36.654  30.864  43.467  0.00  0.00    +0.000 A 
ATOM      2  C   UNL     1      36.999  29.766  42.729  0.00  0.00    +0.000 A 
ATOM      3  C   UNL     1      36.456  29.424  41.517  0.00  0.00    +0.000 A 
ATOM      4  C   UNL     1      35.473  30.238  40.968  0.00  0.00    +0.000 A 
ATOM      5  C   UNL     1      35.141  31.348  41.741  0.00  0.00    +0.000 A 
ATOM      6  N   UNL     1      35.702  31.637  42.919  0.00  0.00    +0.000 NA
ATOM      7  H   UNL     1      37.763  29.087  43.101  0.00  0.00    +0.000 HD
ATOM      8  H   UNL     1      36.746  28.549  40.951  0.00  0.00    +0.000 HD
ATOM      9  H   UNL     1      34.971  30.087  40.039  0.00  0.00    +0.000 HD
ATOM     10  N   UNL     1      34.143  32.311  41.342  0.00  0.00    +0.000 N 
ATOM     11  C   UNL     1      33.807  33.452  42.010  0.00  0.00    +0.000 A 
ATOM     12  H   UNL     1      34.313  33.707  42.943  0.00  0.00    +0.000 HD
ATOM     13  N   UNL     1      32.827  34.069  41.293  0.00  0.00    +0.000 NA
ATOM     14  C   UNL     1      32.576  33.306  40.205  0.00  0.00    +0.000 A 
ATOM     15  C   UNL     1      31.692  33.453  39.156  0.00  0.00    +0.000 A 
ATOM     16  N   UNL     1      31.642  32.516  38.168  0.00  0.00    +0.000 NA
ATOM     17  C   UNL     1      32.452  31.436  38.198  0.00  0.00    +0.000 A 
ATOM     18  H   UNL     1      32.459  30.656  37.442  0.00  0.00    +0.000 HD
ATOM     19  N   UNL     1      33.322  31.293  39.232  0.00  0.00    +0.000 NA
ATOM     20  C   UNL     1      33.401  32.194  40.225  0.00  0.00    +0.000 A 
ENDROOT
BRANCH   1  23
ATOM     21  N   UNL     1      37.373  31.064  47.146  0.00  0.00    +0.000 N 
ATOM     22  C   UNL     1      36.777  30.720  45.968  0.00  0.00    +0.000 A 
ATOM     23  C   UNL     1      37.250  31.198  44.750  0.00  0.00    +0.000 A 
ATOM     24  C   UNL     1      38.360  32.046  44.769  0.00  0.00    +0.000 A 
ATOM     25  O   UNL     1      38.811  32.493  43.695  0.00  0.00    +0.000 OA
ATOM     26  N   UNL     1      38.952  32.386  45.958  0.00  0.00    +0.000 N 
ATOM     27  C   UNL     1      38.414  31.869  47.059  0.00  0.00    +0.000 A 
ATOM     28  O   UNL     1      38.982  32.202  48.123  0.00  0.00    +0.000 OA
ATOM     29  H   UNL     1      35.912  30.061  45.936  0.00  0.00    +0.000 HD
BRANCH  21  32
ATOM     30  C   UNL     1      37.251  29.477  50.508  0.00  0.00    +0.000 A 
ATOM     31  C   UNL     1      37.732  29.966  49.283  0.00  0.00    +0.000 A 
ATOM     32  C   UNL     1      36.890  30.578  48.367  0.00  0.00    +0.000 A 
ATOM     33  N   UNL     1      35.589  30.686  48.702  0.00  0.00    +0.000 NA
ATOM     34  C   UNL     1      35.091  30.222  49.885  0.00  0.00    +0.000 A 
ATOM     35  N   UNL     1      35.943  29.619  50.776  0.00  0.00    +0.000 NA
ATOM     36  H   UNL     1      37.965  29.014  51.168  0.00  0.00    +0.000 HD
ATOM     37  H   UNL     1      38.776  29.895  48.981  0.00  0.00    +0.000 HD
ATOM     38  H   UNL     1      34.039  30.337  50.098  0.00  0.00    +0.000 HD
ENDBRANCH  21  32
BRANCH  26  39
ATOM     39  C   UNL     1      40.096  33.260  45.966  0.00  0.00    +0.000 C 
ATOM     40  F   UNL     1      39.965  34.238  45.030  0.00  0.00    +0.000 F 
ATOM     41  F   UNL     1      41.291  32.605  45.687  0.00  0.00    +0.000 F 
ATOM     42  F   UNL     1      40.172  33.883  47.215  0.00  0.00    +0.000 F 
ENDBRANCH  26  39
ENDBRANCH   1  23
BRANCH  15  43
ATOM     43  N   UNL     1      30.847  34.589  39.132  0.00  0.00    +0.000 N 
ATOM     44  H   UNL     1      30.973  35.082  38.219  0.00  0.00    +0.000 HD
ATOM     45  H   UNL     1      30.163  35.047  39.750  0.00  0.00    +0.000 HD
ENDBRANCH  15  43
TORSDOF 4
