
 OpenBabel03272506333D

 24 26  0  0  0  0  0  0  0  0999 V2000
   36.8370   29.1850   50.2970 C   0  0  0  0  0  0  0  0  0  0  0  0
   36.9360   30.5780   50.1910 C   0  0  0  0  0  0  0  0  0  0  0  0
   35.8680   31.2980   49.6590 C   0  0  0  0  0  0  0  0  0  0  0  0
   34.7670   30.6060   49.2650 N   0  0  0  0  0  0  0  0  0  0  0  0
   34.6930   29.2490   49.3780 C   0  0  0  0  0  0  0  0  0  0  0  0
   35.7080   28.5570   49.8830 N   0  0  0  0  0  0  0  0  0  0  0  0
   37.8120   31.1510   50.5020 H   0  0  0  0  0  0  0  0  0  0  0  0
   35.8850   32.3680   49.5520 H   0  0  0  0  0  0  0  0  0  0  0  0
   33.5460   28.5130   48.9680 N   0  0  0  0  0  0  0  0  0  0  0  0
   32.3550   28.5500   49.6300 C   0  0  0  0  0  0  0  0  0  0  0  0
   32.0800   29.1100   50.5280 H   0  0  0  0  0  0  0  0  0  0  0  0
   31.4300   27.7510   49.0230 N   0  0  0  0  0  0  0  0  0  0  0  0
   32.0450   27.1910   47.9480 C   0  0  0  0  0  0  0  0  0  0  0  0
   31.7050   26.3070   46.9270 C   0  0  0  0  0  0  0  0  0  0  0  0
   32.6120   25.9780   46.0170 N   0  0  0  0  0  0  0  0  0  0  0  0
   33.8720   26.4730   46.0430 C   0  0  0  0  0  0  0  0  0  0  0  0
   34.5890   26.1780   45.2750 H   0  0  0  0  0  0  0  0  0  0  0  0
   34.2870   27.3440   47.0060 N   0  0  0  0  0  0  0  0  0  0  0  0
   33.3520   27.6700   47.9270 C   0  0  0  0  0  0  0  0  0  0  0  0
   30.4000   25.7970   46.9060 N   0  0  0  0  0  0  0  0  0  0  0  0
   30.0270   25.2620   46.0820 H   0  0  0  0  0  0  0  0  0  0  0  0
   29.7250   25.9100   47.6850 H   0  0  0  0  0  0  0  0  0  0  0  0
   37.9690   28.6100   50.8400 O   0  0  0  0  0  0  0  0  0  0  0  0
   38.1150   27.6180   50.9470 H   0  0  0  0  0  0  0  0  0  0  0  0
  1 23  1  0  0  0  0
  2  1  1  0  0  0  0
  2  7  1  0  0  0  0
  3  2  2  0  0  0  0
  4  5  2  0  0  0  0
  4  3  1  0  0  0  0
  5  6  1  0  0  0  0
  6  1  2  0  0  0  0
  8  3  1  0  0  0  0
  9  5  1  0  0  0  0
  9 10  1  0  0  0  0
 10 11  1  0  0  0  0
 12 10  2  0  0  0  0
 13 12  1  0  0  0  0
 14 13  2  0  0  0  0
 15 16  2  0  0  0  0
 15 14  1  0  0  0  0
 16 18  1  0  0  0  0
 17 16  1  0  0  0  0
 18 19  2  0  0  0  0
 19 13  1  0  0  0  0
 19  9  1  0  0  0  0
 20 14  1  0  0  0  0
 20 22  1  0  0  0  0
 21 20  1  0  0  0  0
 23 24  1  0  0  0  0
M  END
>  <minimizedAffinity>
-3.69646263

>  <minimizedRMSD>
1.74308908

$$$$
