
 OpenBabel03272505293D

 45 49  0  0  0  0  0  0  0  0999 V2000
   36.4700   31.2690   43.4430 C   0  0  0  0  0  0  0  0  0  0  0  0
   36.6190   30.1450   42.6800 C   0  0  0  0  0  0  0  0  0  0  0  0
   35.9930   29.9110   41.4820 C   0  0  0  0  0  0  0  0  0  0  0  0
   35.1290   30.8760   40.9780 C   0  0  0  0  0  0  0  0  0  0  0  0
   34.9950   32.0090   41.7760 C   0  0  0  0  0  0  0  0  0  0  0  0
   35.6300   32.1880   42.9380 N   0  0  0  0  0  0  0  0  0  0  0  0
   37.2820   29.3500   43.0170 H   0  0  0  0  0  0  0  0  0  0  0  0
   36.1280   29.0130   40.8950 H   0  0  0  0  0  0  0  0  0  0  0  0
   34.5810   30.8200   40.0640 H   0  0  0  0  0  0  0  0  0  0  0  0
   34.1440   33.1200   41.4230 N   0  0  0  0  0  0  0  0  0  0  0  0
   34.5470   34.3980   41.1670 C   0  0  0  0  0  0  0  0  0  0  0  0
   35.6060   34.6570   41.2210 H   0  0  0  0  0  0  0  0  0  0  0  0
   33.4330   35.1250   40.8760 N   0  0  0  0  0  0  0  0  0  0  0  0
   32.3710   34.2920   40.9560 C   0  0  0  0  0  0  0  0  0  0  0  0
   31.0190   34.4950   40.7620 C   0  0  0  0  0  0  0  0  0  0  0  0
   30.1450   33.4600   40.9110 N   0  0  0  0  0  0  0  0  0  0  0  0
   30.5840   32.2270   41.2470 C   0  0  0  0  0  0  0  0  0  0  0  0
   29.9380   31.3640   41.3800 H   0  0  0  0  0  0  0  0  0  0  0  0
   31.9140   32.0300   41.4370 N   0  0  0  0  0  0  0  0  0  0  0  0
   32.8070   33.0240   41.3010 C   0  0  0  0  0  0  0  0  0  0  0  0
   37.3860   31.1890   47.0830 N   0  0  0  0  0  0  0  0  0  0  0  0
   36.7110   30.9570   45.9200 C   0  0  0  0  0  0  0  0  0  0  0  0
   37.1490   31.4850   44.7100 C   0  0  0  0  0  0  0  0  0  0  0  0
   38.3080   32.2650   44.7200 C   0  0  0  0  0  0  0  0  0  0  0  0
   38.7300   32.7540   43.6530 O   0  0  0  0  0  0  0  0  0  0  0  0
   38.9790   32.4930   45.8940 N   0  0  0  0  0  0  0  0  0  0  0  0
   38.4680   31.9380   46.9890 C   0  0  0  0  0  0  0  0  0  0  0  0
   39.1090   32.1680   48.0380 O   0  0  0  0  0  0  0  0  0  0  0  0
   35.8080   30.3510   45.8950 H   0  0  0  0  0  0  0  0  0  0  0  0
   37.3690   29.5190   50.4060 C   0  0  0  0  0  0  0  0  0  0  0  0
   37.8150   30.0580   49.1890 C   0  0  0  0  0  0  0  0  0  0  0  0
   36.9380   30.6540   48.2960 C   0  0  0  0  0  0  0  0  0  0  0  0
   35.6370   30.6960   48.6460 N   0  0  0  0  0  0  0  0  0  0  0  0
   35.1720   30.1830   49.8220 C   0  0  0  0  0  0  0  0  0  0  0  0
   36.0590   29.5970   50.6900 N   0  0  0  0  0  0  0  0  0  0  0  0
   38.1090   29.0720   51.0480 H   0  0  0  0  0  0  0  0  0  0  0  0
   38.8580   30.0400   48.8760 H   0  0  0  0  0  0  0  0  0  0  0  0
   34.1180   30.2470   50.0480 H   0  0  0  0  0  0  0  0  0  0  0  0
   40.1730   33.2980   45.8930 C   0  0  0  0  0  0  0  0  0  0  0  0
   40.1010   34.2700   44.9440 F   0  0  0  0  0  0  0  0  0  0  0  0
   41.3280   32.5700   45.6250 F   0  0  0  0  0  0  0  0  0  0  0  0
   40.2840   33.9320   47.1340 F   0  0  0  0  0  0  0  0  0  0  0  0
   30.5690   35.7900   40.4100 N   0  0  0  0  0  0  0  0  0  0  0  0
   30.0050   35.7220   39.5330 H   0  0  0  0  0  0  0  0  0  0  0  0
   30.6440   36.7510   40.7710 H   0  0  0  0  0  0  0  0  0  0  0  0
  1 23  1  0  0  0  0
  2  7  1  0  0  0  0
  2  1  2  0  0  0  0
  3  2  1  0  0  0  0
  4  3  2  0  0  0  0
  4  5  1  0  0  0  0
  5  6  2  0  0  0  0
  6  1  1  0  0  0  0
  8  3  1  0  0  0  0
  9  4  1  0  0  0  0
 10  5  1  0  0  0  0
 11 12  1  0  0  0  0
 11 10  1  0  0  0  0
 13 14  1  0  0  0  0
 13 11  2  0  0  0  0
 14 20  1  0  0  0  0
 15 16  1  0  0  0  0
 15 14  2  0  0  0  0
 16 17  2  0  0  0  0
 17 18  1  0  0  0  0
 17 19  1  0  0  0  0
 20 10  1  0  0  0  0
 20 19  2  0  0  0  0
 21 32  1  0  0  0  0
 22 21  1  0  0  0  0
 23 24  1  0  0  0  0
 23 22  2  0  0  0  0
 24 26  1  0  0  0  0
 25 24  2  0  0  0  0
 26 27  1  0  0  0  0
 27 21  1  0  0  0  0
 27 28  2  0  0  0  0
 29 22  1  0  0  0  0
 30 35  1  0  0  0  0
 30 36  1  0  0  0  0
 31 30  2  0  0  0  0
 32 33  2  0  0  0  0
 32 31  1  0  0  0  0
 33 34  1  0  0  0  0
 34 38  1  0  0  0  0
 34 35  2  0  0  0  0
 37 31  1  0  0  0  0
 39 26  1  0  0  0  0
 39 42  1  0  0  0  0
 40 39  1  0  0  0  0
 41 39  1  0  0  0  0
 43 15  1  0  0  0  0
 43 45  1  0  0  0  0
 44 43  1  0  0  0  0
M  END
>  <minimizedAffinity>
-7.11298084

>  <minimizedRMSD>
0.698367655

$$$$
