
 OpenBabel03272505293D

 45 49  0  0  0  0  0  0  0  0999 V2000
   36.4380   31.2820   43.5010 C   0  0  0  0  0  0  0  0  0  0  0  0
   36.6120   30.1850   42.7040 C   0  0  0  0  0  0  0  0  0  0  0  0
   35.9910   29.9760   41.5000 C   0  0  0  0  0  0  0  0  0  0  0  0
   35.1080   30.9370   41.0230 C   0  0  0  0  0  0  0  0  0  0  0  0
   34.9500   32.0420   41.8550 C   0  0  0  0  0  0  0  0  0  0  0  0
   35.5810   32.1990   43.0230 N   0  0  0  0  0  0  0  0  0  0  0  0
   37.2900   29.3950   43.0180 H   0  0  0  0  0  0  0  0  0  0  0  0
   36.1450   29.0980   40.8860 H   0  0  0  0  0  0  0  0  0  0  0  0
   34.5620   30.8970   40.1080 H   0  0  0  0  0  0  0  0  0  0  0  0
   34.0770   33.1460   41.5360 N   0  0  0  0  0  0  0  0  0  0  0  0
   33.9160   34.2880   42.2640 C   0  0  0  0  0  0  0  0  0  0  0  0
   34.4800   34.4290   43.1880 H   0  0  0  0  0  0  0  0  0  0  0  0
   33.0040   35.0610   41.6110 N   0  0  0  0  0  0  0  0  0  0  0  0
   32.6210   34.3900   40.5010 C   0  0  0  0  0  0  0  0  0  0  0  0
   31.7320   34.7020   39.4930 C   0  0  0  0  0  0  0  0  0  0  0  0
   31.5280   33.8280   38.4680 N   0  0  0  0  0  0  0  0  0  0  0  0
   32.1880   32.6510   38.4210 C   0  0  0  0  0  0  0  0  0  0  0  0
   32.0680   31.9140   37.6320 H   0  0  0  0  0  0  0  0  0  0  0  0
   33.0630   32.3460   39.4150 N   0  0  0  0  0  0  0  0  0  0  0  0
   33.2910   33.1800   40.4430 C   0  0  0  0  0  0  0  0  0  0  0  0
   37.3370   31.1370   47.1430 N   0  0  0  0  0  0  0  0  0  0  0  0
   36.6660   30.9270   45.9740 C   0  0  0  0  0  0  0  0  0  0  0  0
   37.1130   31.4740   44.7750 C   0  0  0  0  0  0  0  0  0  0  0  0
   38.2750   32.2490   44.8040 C   0  0  0  0  0  0  0  0  0  0  0  0
   38.7040   32.7540   43.7470 O   0  0  0  0  0  0  0  0  0  0  0  0
   38.9410   32.4540   45.9850 N   0  0  0  0  0  0  0  0  0  0  0  0
   38.4220   31.8820   47.0670 C   0  0  0  0  0  0  0  0  0  0  0  0
   39.0580   32.0920   48.1240 O   0  0  0  0  0  0  0  0  0  0  0  0
   35.7600   30.3260   45.9340 H   0  0  0  0  0  0  0  0  0  0  0  0
   37.2910   29.3830   50.4240 C   0  0  0  0  0  0  0  0  0  0  0  0
   37.7450   29.9410   49.2180 C   0  0  0  0  0  0  0  0  0  0  0  0
   36.8800   30.5830   48.3450 C   0  0  0  0  0  0  0  0  0  0  0  0
   35.5820   30.6510   48.7030 N   0  0  0  0  0  0  0  0  0  0  0  0
   35.1100   30.1210   49.8690 C   0  0  0  0  0  0  0  0  0  0  0  0
   35.9850   29.4890   50.7170 N   0  0  0  0  0  0  0  0  0  0  0  0
   38.0220   28.9010   51.0500 H   0  0  0  0  0  0  0  0  0  0  0  0
   38.7860   29.9030   48.8980 H   0  0  0  0  0  0  0  0  0  0  0  0
   34.0590   30.2070   50.1020 H   0  0  0  0  0  0  0  0  0  0  0  0
   40.1380   33.2540   46.0030 C   0  0  0  0  0  0  0  0  0  0  0  0
   40.0820   34.2310   45.0590 F   0  0  0  0  0  0  0  0  0  0  0  0
   41.2930   32.5220   45.7460 F   0  0  0  0  0  0  0  0  0  0  0  0
   40.2360   33.8800   47.2490 F   0  0  0  0  0  0  0  0  0  0  0  0
   31.0450   35.9390   39.5500 N   0  0  0  0  0  0  0  0  0  0  0  0
   31.2060   36.4540   38.6550 H   0  0  0  0  0  0  0  0  0  0  0  0
   30.4470   36.4520   40.2120 H   0  0  0  0  0  0  0  0  0  0  0  0
  1 23  1  0  0  0  0
  2  7  1  0  0  0  0
  2  1  2  0  0  0  0
  3  2  1  0  0  0  0
  4  3  2  0  0  0  0
  4  5  1  0  0  0  0
  5  6  2  0  0  0  0
  6  1  1  0  0  0  0
  8  3  1  0  0  0  0
  9  4  1  0  0  0  0
 10  5  1  0  0  0  0
 10 11  1  0  0  0  0
 11 12  1  0  0  0  0
 13 11  2  0  0  0  0
 14 13  1  0  0  0  0
 15 43  1  0  0  0  0
 15 14  2  0  0  0  0
 16 15  1  0  0  0  0
 17 16  2  0  0  0  0
 17 19  1  0  0  0  0
 18 17  1  0  0  0  0
 19 20  2  0  0  0  0
 20 14  1  0  0  0  0
 20 10  1  0  0  0  0
 21 32  1  0  0  0  0
 22 21  1  0  0  0  0
 23 24  1  0  0  0  0
 23 22  2  0  0  0  0
 24 26  1  0  0  0  0
 25 24  2  0  0  0  0
 26 39  1  0  0  0  0
 26 27  1  0  0  0  0
 27 21  1  0  0  0  0
 27 28  2  0  0  0  0
 29 22  1  0  0  0  0
 30 35  1  0  0  0  0
 30 36  1  0  0  0  0
 31 30  2  0  0  0  0
 32 33  2  0  0  0  0
 32 31  1  0  0  0  0
 33 34  1  0  0  0  0
 34 38  1  0  0  0  0
 34 35  2  0  0  0  0
 37 31  1  0  0  0  0
 39 42  1  0  0  0  0
 40 39  1  0  0  0  0
 41 39  1  0  0  0  0
 43 45  1  0  0  0  0
 44 43  1  0  0  0  0
M  END
>  <minimizedAffinity>
-6.93164015

>  <minimizedRMSD>
0.691069722

$$$$
