
     RDKit          3D

 24 26  0  0  0  0  0  0  0  0999 V2000
   37.3047   29.9896   51.1885 C   0  0  0  0  0  0  0  0  0  0  0  0
   37.9444   30.9148   50.3515 C   0  0  0  0  0  0  0  0  0  0  0  0
   37.2740   31.3918   49.2271 C   0  0  0  0  0  0  0  0  0  0  0  0
   36.0175   30.9329   48.9917 N   0  0  0  0  0  0  0  0  0  0  0  0
   35.4153   30.0324   49.8204 C   0  0  0  0  0  0  0  0  0  0  0  0
   36.0481   29.5731   50.8943 N   0  0  0  0  0  0  0  0  0  0  0  0
   38.0899   29.6094   52.2586 O   0  0  0  0  0  0  0  0  0  0  0  0
   38.9534   31.2947   50.5249 H   0  0  0  0  0  0  0  0  0  0  0  0
   37.7121   32.1018   48.5481 H   0  0  0  0  0  0  0  0  0  0  0  0
   37.8323   28.9135   52.9414 H   0  0  0  0  0  0  0  0  0  0  0  0
   34.0989   29.5431   49.5854 N   0  0  0  0  0  0  0  0  0  0  0  0
   33.0504   29.7783   50.4231 C   0  0  0  0  0  0  0  0  0  0  0  0
   33.0265   30.3428   51.3593 H   0  0  0  0  0  0  0  0  0  0  0  0
   31.9082   29.1942   49.9577 N   0  0  0  0  0  0  0  0  0  0  0  0
   32.2356   28.5719   48.7957 C   0  0  0  0  0  0  0  0  0  0  0  0
   31.5822   27.8110   47.8296 C   0  0  0  0  0  0  0  0  0  0  0  0
   30.2157   27.5582   48.0042 N   0  0  0  0  0  0  0  0  0  0  0  0
   29.6266   27.1370   47.2423 H   0  0  0  0  0  0  0  0  0  0  0  0
   32.2624   27.3532   46.7857 N   0  0  0  0  0  0  0  0  0  0  0  0
   33.5827   27.6007   46.6222 C   0  0  0  0  0  0  0  0  0  0  0  0
   34.1060   27.2057   45.7489 H   0  0  0  0  0  0  0  0  0  0  0  0
   34.2976   28.3356   47.5194 N   0  0  0  0  0  0  0  0  0  0  0  0
   33.5924   28.7952   48.5771 C   0  0  0  0  0  0  0  0  0  0  0  0
   29.6988   27.7645   48.8793 H   0  0  0  0  0  0  0  0  0  0  0  0
  1  7  1  0
  2  1  2  0
  3  2  1  0
  4  3  2  0
  4  5  1  0
  5  6  2  0
  6  1  1  0
  2  8  1  0
  3  9  1  0
  7 10  1  0
 11 12  1  0
 12 13  1  0
 12 14  2  0
 14 15  1  0
 15 16  2  0
 16 17  1  0
 17 18  1  0
 16 19  1  0
 19 20  2  0
 20 21  1  0
 20 22  1  0
 22 23  2  0
 23 11  1  0
 23 15  1  0
 17 24  1  0
  5 11  1  0
M  ISO  6   8  14   9  14  10   3  13  15  18   5  21  16
M  END
>  <DihAtoms>  (1) 
3,4,10,11

>  <DihDeg>  (1) 
-100.61158116682546

$$$$
