
 OpenBabel03272506343D

 24 26  0  0  0  0  0  0  0  0999 V2000
   37.3050   29.9330   51.1670 C   0  0  0  0  0  0  0  0  0  0  0  0
   37.8730   30.8560   50.2790 C   0  0  0  0  0  0  0  0  0  0  0  0
   37.1730   31.2120   49.1280 C   0  0  0  0  0  0  0  0  0  0  0  0
   35.9570   30.6410   48.9200 N   0  0  0  0  0  0  0  0  0  0  0  0
   35.4240   29.7450   49.7980 C   0  0  0  0  0  0  0  0  0  0  0  0
   36.0860   29.4010   50.8980 N   0  0  0  0  0  0  0  0  0  0  0  0
   38.8470   31.3240   50.4300 H   0  0  0  0  0  0  0  0  0  0  0  0
   37.5560   31.9140   48.4090 H   0  0  0  0  0  0  0  0  0  0  0  0
   34.1520   29.1400   49.5920 N   0  0  0  0  0  0  0  0  0  0  0  0
   33.0840   29.3390   50.4140 C   0  0  0  0  0  0  0  0  0  0  0  0
   33.0110   29.9540   51.3160 H   0  0  0  0  0  0  0  0  0  0  0  0
   31.9940   28.6400   49.9840 N   0  0  0  0  0  0  0  0  0  0  0  0
   32.3760   27.9800   48.8600 C   0  0  0  0  0  0  0  0  0  0  0  0
   31.7900   27.1150   47.9400 C   0  0  0  0  0  0  0  0  0  0  0  0
   32.5090   26.6520   46.9240 N   0  0  0  0  0  0  0  0  0  0  0  0
   33.8070   26.9950   46.7470 C   0  0  0  0  0  0  0  0  0  0  0  0
   34.3640   26.5920   45.8980 H   0  0  0  0  0  0  0  0  0  0  0  0
   34.4570   27.8350   47.6000 N   0  0  0  0  0  0  0  0  0  0  0  0
   33.7110   28.2970   48.6290 C   0  0  0  0  0  0  0  0  0  0  0  0
   30.4470   26.7640   48.1280 N   0  0  0  0  0  0  0  0  0  0  0  0
   29.8970   26.2540   47.3910 H   0  0  0  0  0  0  0  0  0  0  0  0
   29.9110   26.9800   48.9890 H   0  0  0  0  0  0  0  0  0  0  0  0
   38.1120   29.6780   52.2590 O   0  0  0  0  0  0  0  0  0  0  0  0
   37.9070   29.0050   52.9800 H   0  0  0  0  0  0  0  0  0  0  0  0
  1 23  1  0  0  0  0
  2  7  1  0  0  0  0
  2  1  2  0  0  0  0
  3  2  1  0  0  0  0
  4  3  2  0  0  0  0
  4  5  1  0  0  0  0
  5  6  2  0  0  0  0
  6  1  1  0  0  0  0
  8  3  1  0  0  0  0
  9  5  1  0  0  0  0
  9 10  1  0  0  0  0
 10 11  1  0  0  0  0
 12 10  2  0  0  0  0
 13 12  1  0  0  0  0
 14 20  1  0  0  0  0
 14 13  2  0  0  0  0
 15 14  1  0  0  0  0
 16 15  2  0  0  0  0
 16 18  1  0  0  0  0
 17 16  1  0  0  0  0
 18 19  2  0  0  0  0
 19 13  1  0  0  0  0
 19  9  1  0  0  0  0
 20 22  1  0  0  0  0
 21 20  1  0  0  0  0
 23 24  1  0  0  0  0
M  END
>  <minimizedAffinity>
-3.95453405

>  <minimizedRMSD>
0.492385805

$$$$
