
     RDKit          3D

 42 45  0  0  0  0  0  0  0  0999 V2000
   38.1638   31.2407   44.9243 C   0  0  0  0  0  0  0  0  0  0  0  0
   37.3454   30.9405   45.9715 C   0  0  0  0  0  0  0  0  0  0  0  0
   36.1117   30.3495   45.7272 C   0  0  0  0  0  0  0  0  0  0  0  0
   35.6634   30.0483   44.4582 C   0  0  0  0  0  0  0  0  0  0  0  0
   36.4647   30.3430   43.3849 C   0  0  0  0  0  0  0  0  0  0  0  0
   37.6809   30.9262   43.6539 C   0  0  0  0  0  0  0  0  0  0  0  0
   38.6843   32.7774   48.8598 C   0  0  0  0  0  0  0  0  0  0  0  0
   38.3096   32.4425   47.5637 C   0  0  0  0  0  0  0  0  0  0  0  0
   37.7017   31.2539   47.3125 C   0  0  0  0  0  0  0  0  0  0  0  0
   37.4787   30.4290   48.3752 N   0  0  0  0  0  0  0  0  0  0  0  0
   37.8341   30.7496   49.6243 C   0  0  0  0  0  0  0  0  0  0  0  0
   38.4367   31.9211   49.8542 N   0  0  0  0  0  0  0  0  0  0  0  0
   37.4629   29.7882   50.6953 C   0  0  0  0  0  0  0  0  0  0  0  0
   37.7247   30.2955   51.9568 F   0  0  0  0  0  0  0  0  0  0  0  0
   36.0226   29.6445   50.7044 F   0  0  0  0  0  0  0  0  0  0  0  0
   37.8954   28.5540   50.5696 F   0  0  0  0  0  0  0  0  0  0  0  0
   39.7332   31.9385   45.1089 S   0  0  0  0  0  0  0  0  0  0  0  0
   39.6841   33.4001   44.8795 O   0  0  0  0  0  0  0  0  0  0  0  0
   40.2733   31.5790   43.7395 O   0  0  0  0  0  0  0  0  0  0  0  0
   41.1247   31.2364   45.7454 C   0  0  0  0  0  0  0  0  0  0  0  0
   35.4717   30.1154   46.5897 H   0  0  0  0  0  0  0  0  0  0  0  0
   34.7020   29.5949   44.3795 H   0  0  0  0  0  0  0  0  0  0  0  0
   36.0755   30.0940   42.4290 H   0  0  0  0  0  0  0  0  0  0  0  0
   38.2206   31.1139   42.7173 H   0  0  0  0  0  0  0  0  0  0  0  0
   39.1727   33.6677   49.2288 H   0  0  0  0  0  0  0  0  0  0  0  0
   38.5822   33.2949   46.9889 H   0  0  0  0  0  0  0  0  0  0  0  0
   40.9444   31.1762   46.8728 H   0  0  0  0  0  0  0  0  0  0  0  0
   41.5806   30.2963   45.5308 H   0  0  0  0  0  0  0  0  0  0  0  0
   42.2061   32.2184   45.6832 N   0  0  0  0  0  0  0  0  0  0  0  0
   43.0367   32.3395   44.6185 C   0  0  0  0  0  0  0  0  0  0  0  0
   42.9897   31.7302   43.7110 H   0  0  0  0  0  0  0  0  0  0  0  0
   43.9316   33.3264   44.8470 N   0  0  0  0  0  0  0  0  0  0  0  0
   43.6903   33.8475   46.0500 C   0  0  0  0  0  0  0  0  0  0  0  0
   44.2148   34.8424   46.8532 C   0  0  0  0  0  0  0  0  0  0  0  0
   45.3294   35.5828   46.3528 N   0  0  0  0  0  0  0  0  0  0  0  0
   46.2291   35.1727   45.9643 H   0  0  0  0  0  0  0  0  0  0  0  0
   43.6781   35.0875   48.0603 N   0  0  0  0  0  0  0  0  0  0  0  0
   42.6209   34.4038   48.5649 C   0  0  0  0  0  0  0  0  0  0  0  0
   42.1782   34.5824   49.5229 H   0  0  0  0  0  0  0  0  0  0  0  0
   42.1095   33.4338   47.7822 N   0  0  0  0  0  0  0  0  0  0  0  0
   42.6187   33.1564   46.5646 C   0  0  0  0  0  0  0  0  0  0  0  0
   45.2577   36.6284   46.3684 H   0  0  0  0  0  0  0  0  0  0  0  0
  1 17  1  0
  1  2  1  0
  2  9  1  0
  3  2  2  0
  4  3  1  0
  5  6  1  0
  5  4  2  0
  6  1  2  0
  7 12  2  0
  8  7  1  0
  9  8  2  0
  9 10  1  0
 10 11  2  0
 11 12  1  0
 11 13  1  0
 13 15  1  0
 13 14  1  0
 16 13  1  0
 17 20  1  0
 18 17  2  0
 19 17  2  0
  3 21  1  0
  4 22  1  0
  5 23  1  0
  6 24  1  0
  7 25  1  0
  8 26  1  0
 20 27  1  0
 20 28  1  0
 29 30  1  0
 30 31  1  0
 30 32  2  0
 32 33  1  0
 33 34  2  0
 34 35  1  0
 35 36  1  0
 34 37  1  0
 37 38  2  0
 38 39  1  0
 38 40  1  0
 40 41  2  0
 41 29  1  0
 41 33  1  0
 35 42  1  0
 20 29  1  0
M  ISO  8  21  14  22  14  23  14  24  14  25  14  26  14  27   8  28   8
M  ISO  3  31  15  36   5  39  16
M  END
>  <DihAtoms>  (1) 
16,19,28,29

>  <DihDeg>  (1) 
-90.00004311477485

$$$$
