
     RDKit          3D

 39 43  0  0  0  0  0  0  0  0999 V2000
   37.4691   31.3514   48.3616 C   0  0  0  0  0  0  0  0  0  0  0  0
   36.7607   30.8819   47.2790 C   0  0  0  0  0  0  0  0  0  0  0  0
   37.2270   31.2184   46.0117 C   0  0  0  0  0  0  0  0  0  0  0  0
   38.3753   32.0052   45.8996 C   0  0  0  0  0  0  0  0  0  0  0  0
   39.0513   32.4825   44.8386 N   0  0  0  0  0  0  0  0  0  0  0  0
   40.1075   33.1987   45.2600 C   0  0  0  0  0  0  0  0  0  0  0  0
   40.1127   33.1830   46.6213 N   0  0  0  0  0  0  0  0  0  0  0  0
   39.0554   32.4548   46.9992 C   0  0  0  0  0  0  0  0  0  0  0  0
   38.6019   32.1275   48.2414 C   0  0  0  0  0  0  0  0  0  0  0  0
   35.6247   29.3368   48.7399 C   0  0  0  0  0  0  0  0  0  0  0  0
   35.5837   30.0711   47.5177 C   0  0  0  0  0  0  0  0  0  0  0  0
   34.4538   29.9301   46.7201 C   0  0  0  0  0  0  0  0  0  0  0  0
   33.4657   29.1081   47.1507 N   0  0  0  0  0  0  0  0  0  0  0  0
   33.5189   28.4235   48.3040 C   0  0  0  0  0  0  0  0  0  0  0  0
   34.6038   28.5443   49.0930 N   0  0  0  0  0  0  0  0  0  0  0  0
   32.3634   27.5510   48.6653 C   0  0  0  0  0  0  0  0  0  0  0  0
   37.2039   31.1583   49.4146 H   0  0  0  0  0  0  0  0  0  0  0  0
   36.6939   30.8657   45.1625 H   0  0  0  0  0  0  0  0  0  0  0  0
   38.7485   32.2893   43.8609 H   0  0  0  0  0  0  0  0  0  0  0  0
   40.8045   33.6849   44.5773 H   0  0  0  0  0  0  0  0  0  0  0  0
   39.1629   32.4988   49.1137 H   0  0  0  0  0  0  0  0  0  0  0  0
   36.3992   29.3064   49.4872 H   0  0  0  0  0  0  0  0  0  0  0  0
   34.4781   30.4963   45.8281 H   0  0  0  0  0  0  0  0  0  0  0  0
   32.3606   27.5094   49.7819 H   0  0  0  0  0  0  0  0  0  0  0  0
   31.4015   27.9919   48.3872 H   0  0  0  0  0  0  0  0  0  0  0  0
   32.5713   26.2268   48.1387 N   0  0  0  0  0  0  0  0  0  0  0  0
   32.1773   25.0130   48.5663 C   0  0  0  0  0  0  0  0  0  0  0  0
   31.5876   24.9208   49.4707 H   0  0  0  0  0  0  0  0  0  0  0  0
   32.6455   24.0861   47.6952 N   0  0  0  0  0  0  0  0  0  0  0  0
   33.3249   24.6943   46.7305 C   0  0  0  0  0  0  0  0  0  0  0  0
   33.9864   24.1711   45.6200 C   0  0  0  0  0  0  0  0  0  0  0  0
   34.0175   22.7666   45.3565 N   0  0  0  0  0  0  0  0  0  0  0  0
   33.6238   22.6360   44.3802 H   0  0  0  0  0  0  0  0  0  0  0  0
   34.6030   25.0479   44.7940 N   0  0  0  0  0  0  0  0  0  0  0  0
   34.5588   26.3815   45.0671 C   0  0  0  0  0  0  0  0  0  0  0  0
   35.0396   27.1120   44.4304 H   0  0  0  0  0  0  0  0  0  0  0  0
   33.9236   26.8955   46.1351 N   0  0  0  0  0  0  0  0  0  0  0  0
   33.2875   26.0536   46.9968 C   0  0  0  0  0  0  0  0  0  0  0  0
   34.3832   22.0913   46.0715 H   0  0  0  0  0  0  0  0  0  0  0  0
  2 11  1  0
  2  1  2  0
  3  2  1  0
  4  3  2  0
  4  8  1  0
  5  6  1  0
  5  4  1  0
  6  7  2  0
  7  8  1  0
  8  9  2  0
  9  1  1  0
 10 15  2  0
 11 10  1  0
 12 13  1  0
 12 11  2  0
 13 14  2  0
 14 16  1  0
 14 15  1  0
  1 17  1  0
  3 18  1  0
  5 19  1  0
  6 20  1  0
  9 21  1  0
 10 22  1  0
 12 23  1  0
 16 24  1  0
 16 25  1  0
 26 27  1  0
 27 28  1  0
 27 29  2  0
 29 30  1  0
 30 31  2  0
 31 32  1  0
 32 33  1  0
 31 34  1  0
 34 35  2  0
 35 36  1  0
 35 37  1  0
 37 38  2  0
 38 26  1  0
 38 30  1  0
 32 39  1  0
 16 26  1  0
M  ISO  8  17  14  18  14  19   9  20  14  21  14  22  14  23  14  24   8
M  ISO  4  25   8  28  15  33   5  36  16
M  END
>  <DihAtoms>  (1) 
13,15,25,26

>  <DihDeg>  (1) 
89.999497681089

$$$$
