
 OpenBabel03272501433D

 39 43  0  0  0  0  0  0  0  0999 V2000
   35.6330   29.3040   48.7910 C   0  0  0  0  0  0  0  0  0  0  0  0
   35.5360   30.0820   47.6010 C   0  0  0  0  0  0  0  0  0  0  0  0
   34.3530   30.0040   46.8750 C   0  0  0  0  0  0  0  0  0  0  0  0
   33.3690   29.1970   47.3430 N   0  0  0  0  0  0  0  0  0  0  0  0
   33.4750   28.4710   48.4660 C   0  0  0  0  0  0  0  0  0  0  0  0
   34.6120   28.5290   49.1840 N   0  0  0  0  0  0  0  0  0  0  0  0
   36.4530   29.2220   49.4840 H   0  0  0  0  0  0  0  0  0  0  0  0
   34.3360   30.6010   46.0040 H   0  0  0  0  0  0  0  0  0  0  0  0
   37.4520   31.3670   48.3640 C   0  0  0  0  0  0  0  0  0  0  0  0
   36.7210   30.8660   47.3120 C   0  0  0  0  0  0  0  0  0  0  0  0
   37.1710   31.1440   46.0250 C   0  0  0  0  0  0  0  0  0  0  0  0
   38.3290   31.9090   45.8650 C   0  0  0  0  0  0  0  0  0  0  0  0
   38.9950   32.3350   44.7750 N   0  0  0  0  0  0  0  0  0  0  0  0
   40.0680   33.0510   45.1520 C   0  0  0  0  0  0  0  0  0  0  0  0
   40.0940   33.0890   46.5120 N   0  0  0  0  0  0  0  0  0  0  0  0
   39.0320   32.3920   46.9350 C   0  0  0  0  0  0  0  0  0  0  0  0
   38.5940   32.1200   48.1950 C   0  0  0  0  0  0  0  0  0  0  0  0
   37.2010   31.2190   49.4280 H   0  0  0  0  0  0  0  0  0  0  0  0
   36.6200   30.7670   45.1990 H   0  0  0  0  0  0  0  0  0  0  0  0
   38.6730   32.1070   43.8110 H   0  0  0  0  0  0  0  0  0  0  0  0
   40.7600   33.4990   44.4390 H   0  0  0  0  0  0  0  0  0  0  0  0
   39.1740   32.5180   49.0440 H   0  0  0  0  0  0  0  0  0  0  0  0
   32.3170   27.6200   48.8730 C   0  0  0  0  0  0  0  0  0  0  0  0
   32.6070   27.1780   49.8570 H   0  0  0  0  0  0  0  0  0  0  0  0
   31.4150   28.2070   49.0690 H   0  0  0  0  0  0  0  0  0  0  0  0
   32.1290   26.5640   47.9120 N   0  0  0  0  0  0  0  0  0  0  0  0
   32.9860   25.6970   47.3430 C   0  0  0  0  0  0  0  0  0  0  0  0
   34.0390   25.7270   47.5990 H   0  0  0  0  0  0  0  0  0  0  0  0
   32.2850   24.9020   46.4980 N   0  0  0  0  0  0  0  0  0  0  0  0
   31.0050   25.2540   46.5270 C   0  0  0  0  0  0  0  0  0  0  0  0
   29.9080   24.7370   45.8380 C   0  0  0  0  0  0  0  0  0  0  0  0
   28.7030   25.3060   46.0710 N   0  0  0  0  0  0  0  0  0  0  0  0
   28.6020   26.3420   46.9500 C   0  0  0  0  0  0  0  0  0  0  0  0
   27.6570   26.8220   47.1620 H   0  0  0  0  0  0  0  0  0  0  0  0
   29.6540   26.8470   47.6200 N   0  0  0  0  0  0  0  0  0  0  0  0
   30.8880   26.3080   47.4180 C   0  0  0  0  0  0  0  0  0  0  0  0
   30.0410   23.6490   44.9200 N   0  0  0  0  0  0  0  0  0  0  0  0
   29.3760   22.8930   45.2530 H   0  0  0  0  0  0  0  0  0  0  0  0
   30.7060   23.7050   44.1090 H   0  0  0  0  0  0  0  0  0  0  0  0
  1  6  1  0  0  0  0
  1  7  1  0  0  0  0
  2  1  2  0  0  0  0
  3  4  2  0  0  0  0
  3  2  1  0  0  0  0
  4  5  1  0  0  0  0
  5 23  1  0  0  0  0
  5  6  2  0  0  0  0
  8  3  1  0  0  0  0
  9 18  1  0  0  0  0
 10  2  1  0  0  0  0
 10  9  2  0  0  0  0
 11 10  1  0  0  0  0
 12 11  2  0  0  0  0
 12 16  1  0  0  0  0
 13 14  1  0  0  0  0
 13 12  1  0  0  0  0
 14 15  2  0  0  0  0
 15 16  1  0  0  0  0
 16 17  2  0  0  0  0
 17  9  1  0  0  0  0
 17 22  1  0  0  0  0
 19 11  1  0  0  0  0
 20 13  1  0  0  0  0
 21 14  1  0  0  0  0
 23 25  1  0  0  0  0
 23 24  1  0  0  0  0
 26 23  1  0  0  0  0
 27 28  1  0  0  0  0
 27 26  1  0  0  0  0
 29 30  1  0  0  0  0
 29 27  2  0  0  0  0
 30 36  1  0  0  0  0
 31 32  1  0  0  0  0
 31 30  2  0  0  0  0
 32 33  2  0  0  0  0
 33 34  1  0  0  0  0
 33 35  1  0  0  0  0
 36 35  2  0  0  0  0
 36 26  1  0  0  0  0
 37 38  1  0  0  0  0
 37 31  1  0  0  0  0
 39 37  1  0  0  0  0
M  END
>  <minimizedAffinity>
-5.90077496

>  <minimizedRMSD>
1.65451443

$$$$
