REMARK  Name = 
REMARK  4 active torsions:
REMARK  status: ('A' for Active; 'I' for Inactive)
REMARK    1  A    between atoms: C_3  and  C_10
REMARK    2  A    between atoms: C_7  and  N_14
REMARK    3  A    between atoms: C_19  and  N_34
REMARK    4  A    between atoms: C_39  and  N_40
REMARK                            x       y       z     vdW  Elec       q    Type
REMARK                         _______ _______ _______ _____ _____    ______ ____
ROOT
ATOM      1  N   UNL     1      38.443  31.435  44.913  0.00  0.00    +0.000 N 
ATOM      2  C   UNL     1      38.746  32.838  44.834  0.00  0.00    +0.000 C 
ATOM      3  C   UNL     1      40.065  32.959  44.084  0.00  0.00    +0.000 C 
ATOM      4  N   UNL     1      39.915  32.239  42.864  0.00  0.00    +0.000 NA
ATOM      5  C   UNL     1      39.832  30.832  43.062  0.00  0.00    +0.000 C 
ATOM      6  C   UNL     1      39.509  30.518  44.511  0.00  0.00    +0.000 C 
ATOM      7  H   UNL     1      37.972  33.328  44.212  0.00  0.00    +0.000 HD
ATOM      8  H   UNL     1      38.811  33.270  45.846  0.00  0.00    +0.000 HD
ATOM      9  H   UNL     1      40.942  32.728  44.682  0.00  0.00    +0.000 HD
ATOM     10  H   UNL     1      40.151  34.053  43.822  0.00  0.00    +0.000 HD
ATOM     11  H   UNL     1      40.640  32.493  42.150  0.00  0.00    +0.000 HD
ATOM     12  H   UNL     1      40.722  30.251  42.743  0.00  0.00    +0.000 HD
ATOM     13  H   UNL     1      38.977  30.394  42.468  0.00  0.00    +0.000 HD
ATOM     14  H   UNL     1      40.387  30.816  45.145  0.00  0.00    +0.000 HD
ENDROOT
BRANCH   6  15
ATOM     15  N   UNL     1      39.157  29.134  44.696  0.00  0.00    +0.000 N 
ATOM     16  C   UNL     1      39.306  28.473  45.856  0.00  0.00    +0.000 A 
ATOM     17  H   UNL     1      39.681  28.767  46.827  0.00  0.00    +0.000 HD
ATOM     18  N   UNL     1      38.889  27.200  45.711  0.00  0.00    +0.000 NA
ATOM     19  C   UNL     1      38.468  27.024  44.464  0.00  0.00    +0.000 A 
ATOM     20  C   UNL     1      37.941  25.999  43.704  0.00  0.00    +0.000 A 
ATOM     21  N   UNL     1      37.612  26.184  42.410  0.00  0.00    +0.000 NA
ATOM     22  C   UNL     1      37.782  27.382  41.798  0.00  0.00    +0.000 A 
ATOM     23  H   UNL     1      37.506  27.494  40.758  0.00  0.00    +0.000 HD
ATOM     24  N   UNL     1      38.295  28.390  42.529  0.00  0.00    +0.000 NA
ATOM     25  C   UNL     1      38.632  28.233  43.818  0.00  0.00    +0.000 A 
BRANCH  20  26
ATOM     26  N   UNL     1      37.754  24.734  44.329  0.00  0.00    +0.000 N 
ATOM     27  H   UNL     1      38.242  23.870  44.619  0.00  0.00    +0.000 HD
ATOM     28  H   UNL     1      37.048  24.116  44.772  0.00  0.00    +0.000 HD
ENDBRANCH  20  26
ENDBRANCH   6  15
BRANCH   1  35
ATOM     29 CL   UNL     1      38.248  31.018  47.834  0.00  0.00    +0.000 Cl
ATOM     30  C   UNL     1      36.986  30.608  46.705  0.00  0.00    +0.000 A 
ATOM     31  C   UNL     1      35.832  30.070  47.158  0.00  0.00    +0.000 A 
ATOM     32  C   UNL     1      34.867  29.794  46.191  0.00  0.00    +0.000 A 
ATOM     33  C   UNL     1      35.011  30.025  44.860  0.00  0.00    +0.000 A 
ATOM     34  C   UNL     1      36.201  30.573  44.436  0.00  0.00    +0.000 A 
ATOM     35  C   UNL     1      37.199  30.870  45.347  0.00  0.00    +0.000 A 
ATOM     36  H   UNL     1      33.923  29.358  46.537  0.00  0.00    +0.000 HD
ATOM     37  H   UNL     1      34.205  29.778  44.183  0.00  0.00    +0.000 HD
ATOM     38  H   UNL     1      36.366  30.774  43.401  0.00  0.00    +0.000 HD
BRANCH  31  41
ATOM     39  C   UNL     1      36.526  29.142  50.737  0.00  0.00    +0.000 A 
ATOM     40  C   UNL     1      36.718  29.378  49.369  0.00  0.00    +0.000 A 
ATOM     41  C   UNL     1      35.652  29.810  48.568  0.00  0.00    +0.000 A 
ATOM     42  N   UNL     1      34.440  29.983  49.176  0.00  0.00    +0.000 NA
ATOM     43  C   UNL     1      34.270  29.751  50.495  0.00  0.00    +0.000 A 
ATOM     44  N   UNL     1      35.301  29.333  51.279  0.00  0.00    +0.000 NA
ATOM     45  H   UNL     1      37.270  28.815  51.430  0.00  0.00    +0.000 HD
ATOM     46  H   UNL     1      37.730  29.147  49.103  0.00  0.00    +0.000 HD
ATOM     47  H   UNL     1      33.250  29.941  50.793  0.00  0.00    +0.000 HD
ENDBRANCH  31  41
ENDBRANCH   1  35
TORSDOF 4
