
     RDKit          3D

 46 50  0  0  0  0  0  0  0  0999 V2000
   37.5536   32.0575   48.1259 Cl  0  0  0  0  0  0  0  0  0  0  0  0
   36.6813   31.0891   46.9996 C   0  0  0  0  0  0  0  0  0  0  0  0
   37.2073   30.8796   45.7334 C   0  0  0  0  0  0  0  0  0  0  0  0
   36.5456   30.1201   44.7990 C   0  0  0  0  0  0  0  0  0  0  0  0
   35.3332   29.5429   45.0987 C   0  0  0  0  0  0  0  0  0  0  0  0
   34.7767   29.7282   46.3488 C   0  0  0  0  0  0  0  0  0  0  0  0
   33.2388   29.0553   46.8559 Cl  0  0  0  0  0  0  0  0  0  0  0  0
   35.4748   30.4997   47.2620 C   0  0  0  0  0  0  0  0  0  0  0  0
   39.7674   33.2197   44.5467 C   0  0  0  0  0  0  0  0  0  0  0  0
   40.9619   32.5572   44.8154 C   0  0  0  0  0  0  0  0  0  0  0  0
   40.8715   31.2741   45.4184 C   0  0  0  0  0  0  0  0  0  0  0  0
   39.6332   30.7930   45.6861 N   0  0  0  0  0  0  0  0  0  0  0  0
   38.4874   31.4809   45.4039 C   0  0  0  0  0  0  0  0  0  0  0  0
   38.5763   32.6851   44.8377 N   0  0  0  0  0  0  0  0  0  0  0  0
   34.9008   30.7146   48.6365 C   0  0  0  0  0  0  0  0  0  0  0  0
   35.2904   27.9621   49.1080 F   0  0  0  0  0  0  0  0  0  0  0  0
   35.9987   28.8780   49.8543 C   0  0  0  0  0  0  0  0  0  0  0  0
   35.8393   30.2567   49.6790 C   0  0  0  0  0  0  0  0  0  0  0  0
   36.5671   31.1017   50.4789 C   0  0  0  0  0  0  0  0  0  0  0  0
   37.4438   30.6149   51.4352 C   0  0  0  0  0  0  0  0  0  0  0  0
   37.5884   29.2223   51.5926 C   0  0  0  0  0  0  0  0  0  0  0  0
   36.8556   28.3342   50.7922 C   0  0  0  0  0  0  0  0  0  0  0  0
   36.9984   29.9886   43.8298 H   0  0  0  0  0  0  0  0  0  0  0  0
   34.7804   28.9432   44.4037 H   0  0  0  0  0  0  0  0  0  0  0  0
   39.8106   34.2005   44.0866 H   0  0  0  0  0  0  0  0  0  0  0  0
   41.9368   32.9655   44.5910 H   0  0  0  0  0  0  0  0  0  0  0  0
   41.7536   30.6969   45.6579 H   0  0  0  0  0  0  0  0  0  0  0  0
   33.9111   30.2418   48.7143 H   0  0  0  0  0  0  0  0  0  0  0  0
   34.8055   31.8305   48.7457 H   0  0  0  0  0  0  0  0  0  0  0  0
   36.4675   32.1748   50.4837 H   0  0  0  0  0  0  0  0  0  0  0  0
   38.0433   31.2248   52.0893 H   0  0  0  0  0  0  0  0  0  0  0  0
   38.2566   28.8249   52.3219 H   0  0  0  0  0  0  0  0  0  0  0  0
   37.0068   26.9310   50.9594 N   0  0  0  0  0  0  0  0  0  0  0  0
   37.8333   26.3311   51.8619 C   0  0  0  0  0  0  0  0  0  0  0  0
   38.4634   26.8686   52.5485 H   0  0  0  0  0  0  0  0  0  0  0  0
   37.6891   24.9845   51.7069 N   0  0  0  0  0  0  0  0  0  0  0  0
   36.7955   24.7649   50.7326 C   0  0  0  0  0  0  0  0  0  0  0  0
   36.2276   23.6694   50.1149 C   0  0  0  0  0  0  0  0  0  0  0  0
   36.6311   22.3787   50.5571 N   0  0  0  0  0  0  0  0  0  0  0  0
   36.3253   21.6300   51.2461 H   0  0  0  0  0  0  0  0  0  0  0  0
   35.3112   23.7758   49.1151 N   0  0  0  0  0  0  0  0  0  0  0  0
   34.9217   25.0085   48.6882 C   0  0  0  0  0  0  0  0  0  0  0  0
   34.2014   24.9550   47.9026 H   0  0  0  0  0  0  0  0  0  0  0  0
   35.4418   26.1136   49.2537 N   0  0  0  0  0  0  0  0  0  0  0  0
   36.3427   25.9875   50.2366 C   0  0  0  0  0  0  0  0  0  0  0  0
   37.5058   22.1175   50.0112 H   0  0  0  0  0  0  0  0  0  0  0  0
  2  8  2  0
  2  1  1  0
  3  2  1  0
  4  5  1  0
  4  3  2  0
  5  6  2  0
  6  7  1  0
  6  8  1  0
  8 15  1  0
  9 10  2  0
  9 14  1  0
 10 11  1  0
 11 12  2  0
 13 12  1  0
 13  3  1  0
 14 13  2  0
 15 18  1  0
 16 17  1  0
 17 22  2  0
 18 17  1  0
 18 19  2  0
 19 20  1  0
 20 21  2  0
 22 21  1  0
  4 23  1  0
  5 24  1  0
  9 25  1  0
 10 26  1  0
 11 27  1  0
 15 28  1  0
 15 29  1  0
 19 30  1  0
 20 31  1  0
 21 32  1  0
 33 34  1  0
 34 35  1  0
 34 36  2  0
 36 37  1  0
 37 38  2  0
 38 39  1  0
 39 40  1  0
 38 41  1  0
 41 42  2  0
 42 43  1  0
 42 44  1  0
 44 45  2  0
 45 33  1  0
 45 37  1  0
 39 46  1  0
 22 33  1  0
M  ISO  8  23  14  24  14  25  14  26  14  27  14  28   8  29   8  30  14
M  ISO  5  31  14  32  14  35  15  40   5  43  16
M  END
>  <DihAtoms>  (1) 
16,21,32,33

>  <DihDeg>  (1) 
-75.07703377310867

$$$$
