
 OpenBabel03272501433D

 39 43  0  0  0  0  0  0  0  0999 V2000
   35.2290   28.6340   49.0380 C   0  0  0  0  0  0  0  0  0  0  0  0
   35.3740   29.6510   48.0490 C   0  0  0  0  0  0  0  0  0  0  0  0
   34.6420   29.5170   46.8740 C   0  0  0  0  0  0  0  0  0  0  0  0
   33.8400   28.4320   46.7430 N   0  0  0  0  0  0  0  0  0  0  0  0
   33.7130   27.4830   47.6820 C   0  0  0  0  0  0  0  0  0  0  0  0
   34.4130   27.5920   48.8280 N   0  0  0  0  0  0  0  0  0  0  0  0
   35.7030   28.5510   50.0000 H   0  0  0  0  0  0  0  0  0  0  0  0
   34.7890   30.2980   46.1790 H   0  0  0  0  0  0  0  0  0  0  0  0
   36.2240   31.2170   49.7020 C   0  0  0  0  0  0  0  0  0  0  0  0
   36.2910   30.7100   48.4240 C   0  0  0  0  0  0  0  0  0  0  0  0
   37.2450   31.2490   47.5670 C   0  0  0  0  0  0  0  0  0  0  0  0
   38.0780   32.2670   48.0370 C   0  0  0  0  0  0  0  0  0  0  0  0
   39.0700   32.9700   47.4600 N   0  0  0  0  0  0  0  0  0  0  0  0
   39.5730   33.8510   48.3420 C   0  0  0  0  0  0  0  0  0  0  0  0
   38.8910   33.7130   49.5120 N   0  0  0  0  0  0  0  0  0  0  0  0
   37.9840   32.7480   49.3140 C   0  0  0  0  0  0  0  0  0  0  0  0
   37.0520   32.2210   50.1560 C   0  0  0  0  0  0  0  0  0  0  0  0
   35.5130   30.8780   50.4740 H   0  0  0  0  0  0  0  0  0  0  0  0
   37.3120   30.8720   46.5760 H   0  0  0  0  0  0  0  0  0  0  0  0
   39.3580   32.8060   46.4720 H   0  0  0  0  0  0  0  0  0  0  0  0
   40.3880   34.5320   48.0990 H   0  0  0  0  0  0  0  0  0  0  0  0
   36.9910   32.6220   51.1810 H   0  0  0  0  0  0  0  0  0  0  0  0
   32.7950   26.3370   47.4140 C   0  0  0  0  0  0  0  0  0  0  0  0
   32.4450   25.9960   48.4200 H   0  0  0  0  0  0  0  0  0  0  0  0
   31.8910   26.6400   46.8780 H   0  0  0  0  0  0  0  0  0  0  0  0
   33.5210   25.2710   46.7760 N   0  0  0  0  0  0  0  0  0  0  0  0
   34.4300   25.2650   45.7830 C   0  0  0  0  0  0  0  0  0  0  0  0
   34.7300   26.1970   45.3160 H   0  0  0  0  0  0  0  0  0  0  0  0
   34.8050   23.9820   45.5600 N   0  0  0  0  0  0  0  0  0  0  0  0
   34.1510   23.1830   46.3940 C   0  0  0  0  0  0  0  0  0  0  0  0
   34.1990   21.7980   46.5460 C   0  0  0  0  0  0  0  0  0  0  0  0
   33.4060   21.2490   47.4960 N   0  0  0  0  0  0  0  0  0  0  0  0
   32.6060   22.0480   48.2540 C   0  0  0  0  0  0  0  0  0  0  0  0
   31.9590   21.6460   49.0220 H   0  0  0  0  0  0  0  0  0  0  0  0
   32.5530   23.3850   48.1160 N   0  0  0  0  0  0  0  0  0  0  0  0
   33.3320   23.9840   47.1730 C   0  0  0  0  0  0  0  0  0  0  0  0
   35.0480   20.9820   45.7370 N   0  0  0  0  0  0  0  0  0  0  0  0
   35.6620   20.4320   46.4050 H   0  0  0  0  0  0  0  0  0  0  0  0
   34.9840   21.0080   44.6890 H   0  0  0  0  0  0  0  0  0  0  0  0
  1  7  1  0  0  0  0
  2 10  1  0  0  0  0
  2  1  2  0  0  0  0
  3  2  1  0  0  0  0
  4  3  2  0  0  0  0
  4  5  1  0  0  0  0
  5  6  2  0  0  0  0
  6  1  1  0  0  0  0
  8  3  1  0  0  0  0
  9 17  1  0  0  0  0
  9 18  1  0  0  0  0
 10  9  2  0  0  0  0
 11 12  2  0  0  0  0
 11 10  1  0  0  0  0
 12 16  1  0  0  0  0
 13 12  1  0  0  0  0
 13 14  1  0  0  0  0
 14 15  2  0  0  0  0
 16 15  1  0  0  0  0
 16 17  2  0  0  0  0
 17 22  1  0  0  0  0
 19 11  1  0  0  0  0
 20 13  1  0  0  0  0
 21 14  1  0  0  0  0
 23  5  1  0  0  0  0
 23 24  1  0  0  0  0
 25 23  1  0  0  0  0
 26 36  1  0  0  0  0
 26 23  1  0  0  0  0
 27 26  1  0  0  0  0
 28 27  1  0  0  0  0
 29 27  2  0  0  0  0
 29 30  1  0  0  0  0
 30 31  2  0  0  0  0
 30 36  1  0  0  0  0
 31 32  1  0  0  0  0
 32 33  2  0  0  0  0
 33 34  1  0  0  0  0
 35 33  1  0  0  0  0
 36 35  2  0  0  0  0
 37 38  1  0  0  0  0
 37 31  1  0  0  0  0
 39 37  1  0  0  0  0
M  END
>  <minimizedAffinity>
-5.81945944

>  <minimizedRMSD>
2.22785115

$$$$
