
     RDKit          3D

 51 55  0  0  0  0  0  0  0  0999 V2000
   35.3356   30.3951   49.9705 C   0  0  2  0  0  0  0  0  0  0  0  0
   36.2580   31.3729   49.4167 C   0  0  0  0  0  0  0  0  0  0  0  0
   37.7453   30.8864   49.4428 C   0  0  2  0  0  0  0  0  0  0  0  0
   38.2170   30.5713   50.7713 C   0  0  0  0  0  0  0  0  0  0  0  0
   37.1716   29.8702   51.6463 C   0  0  0  0  0  0  0  0  0  0  0  0
   36.0512   29.3283   50.8118 C   0  0  0  0  0  0  0  0  0  0  0  0
   38.5762   30.6157   46.6334 Cl  0  0  0  0  0  0  0  0  0  0  0  0
   38.9583   32.0308   47.5878 C   0  0  0  0  0  0  0  0  0  0  0  0
   38.4809   32.0646   48.8746 C   0  0  0  0  0  0  0  0  0  0  0  0
   38.7959   33.2360   49.5509 C   0  0  0  0  0  0  0  0  0  0  0  0
   39.5224   34.2606   48.9721 C   0  0  0  0  0  0  0  0  0  0  0  0
   39.9711   34.1441   47.6589 C   0  0  0  0  0  0  0  0  0  0  0  0
   39.6789   32.9986   46.9536 C   0  0  0  0  0  0  0  0  0  0  0  0
   40.1354   32.8738   45.6127 N   0  0  0  0  0  0  0  0  0  0  0  0
   34.4968   29.6764   49.0146 C   0  0  0  0  0  0  0  0  0  0  0  0
   34.5146   30.2022   47.7304 C   0  0  0  0  0  0  0  0  0  0  0  0
   33.7712   29.5694   46.7383 C   0  0  0  0  0  0  0  0  0  0  0  0
   33.0464   28.4435   47.0786 N   0  0  0  0  0  0  0  0  0  0  0  0
   33.0440   27.9496   48.3410 C   0  0  0  0  0  0  0  0  0  0  0  0
   33.7761   28.5954   49.2576 N   0  0  0  0  0  0  0  0  0  0  0  0
   34.6386   30.8734   50.7223 H   0  0  0  0  0  0  0  0  0  0  0  0
   36.1529   31.8118   48.4508 H   0  0  0  0  0  0  0  0  0  0  0  0
   36.3246   32.2610   50.1360 H   0  0  0  0  0  0  0  0  0  0  0  0
   37.8315   30.0701   48.7278 H   0  0  0  0  0  0  0  0  0  0  0  0
   39.1254   29.9226   50.6842 H   0  0  0  0  0  0  0  0  0  0  0  0
   38.5571   31.4275   51.3918 H   0  0  0  0  0  0  0  0  0  0  0  0
   36.7723   30.5282   52.4369 H   0  0  0  0  0  0  0  0  0  0  0  0
   37.6558   29.0045   52.1206 H   0  0  0  0  0  0  0  0  0  0  0  0
   35.3494   28.8317   51.4872 H   0  0  0  0  0  0  0  0  0  0  0  0
   36.4678   28.5540   50.1336 H   0  0  0  0  0  0  0  0  0  0  0  0
   38.4260   33.2952   50.5858 H   0  0  0  0  0  0  0  0  0  0  0  0
   39.7087   35.1285   49.5958 H   0  0  0  0  0  0  0  0  0  0  0  0
   40.5374   34.9615   47.2332 H   0  0  0  0  0  0  0  0  0  0  0  0
   41.0013   32.3473   45.3476 H   0  0  0  0  0  0  0  0  0  0  0  0
   39.6094   33.3139   44.8275 H   0  0  0  0  0  0  0  0  0  0  0  0
   34.9673   31.0327   47.2063 H   0  0  0  0  0  0  0  0  0  0  0  0
   33.6321   29.7860   45.6914 H   0  0  0  0  0  0  0  0  0  0  0  0
   32.2789   26.7836   48.6464 N   0  0  0  0  0  0  0  0  0  0  0  0
   31.0105   26.5820   49.0520 C   0  0  0  0  0  0  0  0  0  0  0  0
   30.3406   27.4147   49.2116 H   0  0  0  0  0  0  0  0  0  0  0  0
   30.7943   25.2570   49.1962 N   0  0  0  0  0  0  0  0  0  0  0  0
   31.9382   24.6032   48.8790 C   0  0  0  0  0  0  0  0  0  0  0  0
   32.2548   23.2500   48.8594 C   0  0  0  0  0  0  0  0  0  0  0  0
   31.3146   22.2423   49.2099 N   0  0  0  0  0  0  0  0  0  0  0  0
   31.6505   21.3148   49.5403 H   0  0  0  0  0  0  0  0  0  0  0  0
   33.5079   22.9404   48.4882 N   0  0  0  0  0  0  0  0  0  0  0  0
   34.4343   23.8264   48.1490 C   0  0  0  0  0  0  0  0  0  0  0  0
   35.4524   23.5485   47.8490 H   0  0  0  0  0  0  0  0  0  0  0  0
   34.1149   25.1258   48.1726 N   0  0  0  0  0  0  0  0  0  0  0  0
   32.8782   25.5682   48.5310 C   0  0  0  0  0  0  0  0  0  0  0  0
   30.2871   22.4162   49.1418 H   0  0  0  0  0  0  0  0  0  0  0  0
  1  6  1  0
  2  3  1  0
  2  1  1  0
  3  4  1  0
  4  5  1  0
  6  5  1  0
  7  8  1  0
  8  9  2  0
  9  3  1  0
  9 10  1  0
 11 10  2  0
 12 11  1  0
 13  8  1  0
 13 12  2  0
 14 13  1  0
 15 20  1  0
 15  1  1  0
 16 15  2  0
 17 18  2  0
 17 16  1  0
 18 19  1  0
 19 20  2  0
  1 21  1  1
  2 22  1  0
  2 23  1  0
  3 24  1  6
  4 25  1  0
  4 26  1  0
  5 27  1  0
  5 28  1  0
  6 29  1  0
  6 30  1  0
 10 31  1  0
 11 32  1  0
 12 33  1  0
 14 34  1  0
 14 35  1  0
 16 36  1  0
 17 37  1  0
 38 39  1  0
 39 40  1  0
 39 41  2  0
 41 42  1  0
 42 43  2  0
 43 44  1  0
 44 45  1  0
 43 46  1  0
 46 47  2  0
 47 48  1  0
 47 49  1  0
 49 50  2  0
 50 38  1  0
 50 42  1  0
 44 51  1  0
 19 38  1  0
M  ISO  8  21  13  22  13  23  13  24  13  25  13  26  13  27  13  28  13
M  ISO  8  29  13  30  13  31  14  32  14  33  14  36  14  37  14  40  15
M  ISO  2  45   5  48  16
M  END
>  <DihAtoms>  (1) 
17,18,37,38

>  <DihDeg>  (1) 
105.6813744122963

$$$$
