
 OpenBabel03272506033D

 51 55  0  0  1  0  0  0  0  0999 V2000
   36.9620   28.3190   33.3220 C   0  0  2  0  0  0  0  0  0  0  0  0
   36.0360   28.8680   34.2990 C   0  0  0  0  0  0  0  0  0  0  0  0
   34.7390   29.4490   33.6440 C   0  0  2  0  0  0  0  0  0  0  0  0
   35.0060   30.4960   32.6860 C   0  0  0  0  0  0  0  0  0  0  0  0
   36.2440   30.2390   31.8210 C   0  0  0  0  0  0  0  0  0  0  0  0
   36.6610   28.8010   31.8960 C   0  0  0  0  0  0  0  0  0  0  0  0
   38.0110   28.7050   33.4940 H   0  0  0  0  0  0  0  0  0  0  0  0
   35.6730   28.3300   35.1450 H   0  0  0  0  0  0  0  0  0  0  0  0
   36.4880   29.8260   34.7340 H   0  0  0  0  0  0  0  0  0  0  0  0
   34.1720   28.6090   33.2480 H   0  0  0  0  0  0  0  0  0  0  0  0
   34.1090   30.6160   32.0270 H   0  0  0  0  0  0  0  0  0  0  0  0
   35.1730   31.5140   33.0980 H   0  0  0  0  0  0  0  0  0  0  0  0
   37.0920   30.8930   32.0890 H   0  0  0  0  0  0  0  0  0  0  0  0
   35.9700   30.4320   30.7740 H   0  0  0  0  0  0  0  0  0  0  0  0
   37.5360   28.6780   31.2520 H   0  0  0  0  0  0  0  0  0  0  0  0
   35.8430   28.1820   31.4710 H   0  0  0  0  0  0  0  0  0  0  0  0
   37.0530   26.8630   33.2570 C   0  0  0  0  0  0  0  0  0  0  0  0
   36.6780   26.3200   32.0350 C   0  0  0  0  0  0  0  0  0  0  0  0
   36.7590   24.9410   31.8630 C   0  0  0  0  0  0  0  0  0  0  0  0
   37.2090   24.1730   32.9190 N   0  0  0  0  0  0  0  0  0  0  0  0
   37.5690   24.7260   34.1030 C   0  0  0  0  0  0  0  0  0  0  0  0
   37.4730   26.0570   34.2170 N   0  0  0  0  0  0  0  0  0  0  0  0
   36.3020   26.6660   31.0820 H   0  0  0  0  0  0  0  0  0  0  0  0
   36.5290   24.3040   31.0240 H   0  0  0  0  0  0  0  0  0  0  0  0
   38.0280   23.8920   35.1660 N   0  0  0  0  0  0  0  0  0  0  0  0
   37.4140   23.2450   36.1740 C   0  0  0  0  0  0  0  0  0  0  0  0
   36.3410   23.3030   36.2970 H   0  0  0  0  0  0  0  0  0  0  0  0
   38.3350   22.5860   36.9090 N   0  0  0  0  0  0  0  0  0  0  0  0
   39.5550   22.8140   36.3640 C   0  0  0  0  0  0  0  0  0  0  0  0
   40.8250   22.3790   36.7240 C   0  0  0  0  0  0  0  0  0  0  0  0
   41.8380   22.8020   35.9500 N   0  0  0  0  0  0  0  0  0  0  0  0
   41.6990   23.5890   34.8920 C   0  0  0  0  0  0  0  0  0  0  0  0
   42.5420   23.9220   34.2750 H   0  0  0  0  0  0  0  0  0  0  0  0
   40.4700   24.0000   34.5570 N   0  0  0  0  0  0  0  0  0  0  0  0
   39.3620   23.6400   35.2620 C   0  0  0  0  0  0  0  0  0  0  0  0
   41.0510   21.5350   37.8460 N   0  0  0  0  0  0  0  0  0  0  0  0
   41.9840   21.5260   38.3050 H   0  0  0  0  0  0  0  0  0  0  0  0
   40.2940   20.9200   38.2200 H   0  0  0  0  0  0  0  0  0  0  0  0
   36.0990   31.5920   35.1330 Cl  0  0  0  0  0  0  0  0  0  0  0  0
   34.5480   30.9510   35.6270 C   0  0  0  0  0  0  0  0  0  0  0  0
   33.9890   29.9830   34.8310 C   0  0  0  0  0  0  0  0  0  0  0  0
   32.7440   29.5550   35.2720 C   0  0  0  0  0  0  0  0  0  0  0  0
   32.1380   30.0630   36.4060 C   0  0  0  0  0  0  0  0  0  0  0  0
   32.7770   31.0440   37.1600 C   0  0  0  0  0  0  0  0  0  0  0  0
   34.0120   31.4960   36.7560 C   0  0  0  0  0  0  0  0  0  0  0  0
   32.2680   28.7790   34.6530 H   0  0  0  0  0  0  0  0  0  0  0  0
   31.1650   29.6530   36.6550 H   0  0  0  0  0  0  0  0  0  0  0  0
   32.2780   31.4230   38.0420 H   0  0  0  0  0  0  0  0  0  0  0  0
   34.6700   32.4980   37.5210 N   0  0  0  0  0  0  0  0  0  0  0  0
   35.4140   32.2850   38.2280 H   0  0  0  0  0  0  0  0  0  0  0  0
   34.4270   33.5050   37.4020 H   0  0  0  0  0  0  0  0  0  0  0  0
  1  7  1  1  0  0  0
  1  2  1  0  0  0  0
  2  9  1  0  0  0  0
  2  8  1  0  0  0  0
  3 10  1  6  0  0  0
  3  2  1  0  0  0  0
  3 41  1  0  0  0  0
  4 12  1  0  0  0  0
  4  3  1  0  0  0  0
  5  6  1  0  0  0  0
  5 13  1  0  0  0  0
  5  4  1  0  0  0  0
  6  1  1  0  0  0  0
 11  4  1  0  0  0  0
 14  5  1  0  0  0  0
 15  6  1  0  0  0  0
 16  6  1  0  0  0  0
 17  1  1  0  0  0  0
 17 22  1  0  0  0  0
 18 17  2  0  0  0  0
 19 18  1  0  0  0  0
 19 20  2  0  0  0  0
 20 21  1  0  0  0  0
 21 22  2  0  0  0  0
 21 25  1  0  0  0  0
 23 18  1  0  0  0  0
 24 19  1  0  0  0  0
 25 35  1  0  0  0  0
 25 26  1  0  0  0  0
 26 27  1  0  0  0  0
 26 28  2  0  0  0  0
 29 30  1  0  0  0  0
 29 28  1  0  0  0  0
 30 36  1  0  0  0  0
 31 30  2  0  0  0  0
 32 31  1  0  0  0  0
 33 32  1  0  0  0  0
 34 32  2  0  0  0  0
 34 35  1  0  0  0  0
 35 29  2  0  0  0  0
 36 38  1  0  0  0  0
 36 37  1  0  0  0  0
 39 40  1  0  0  0  0
 40 45  1  0  0  0  0
 41 42  1  0  0  0  0
 41 40  2  0  0  0  0
 42 43  2  0  0  0  0
 43 47  1  0  0  0  0
 43 44  1  0  0  0  0
 44 48  1  0  0  0  0
 45 44  2  0  0  0  0
 45 49  1  0  0  0  0
 46 42  1  0  0  0  0
 49 50  1  0  0  0  0
 51 49  1  0  0  0  0
M  END
>  <minimizedAffinity>
-7.53838348

$$$$

 OpenBabel03272506033D

 51 55  0  0  1  0  0  0  0  0999 V2000
   37.2610   27.8840   32.6330 C   0  0  2  0  0  0  0  0  0  0  0  0
   36.6600   28.6800   33.6910 C   0  0  0  0  0  0  0  0  0  0  0  0
   35.3000   29.3260   33.2650 C   0  0  2  0  0  0  0  0  0  0  0  0
   35.4160   30.1850   32.1100 C   0  0  0  0  0  0  0  0  0  0  0  0
   36.3720   29.6500   31.0380 C   0  0  0  0  0  0  0  0  0  0  0  0
   36.6610   28.1950   31.2550 C   0  0  0  0  0  0  0  0  0  0  0  0
   38.3500   28.1500   32.4930 H   0  0  0  0  0  0  0  0  0  0  0  0
   36.4700   28.3170   34.6760 H   0  0  0  0  0  0  0  0  0  0  0  0
   37.2910   29.6220   33.8440 H   0  0  0  0  0  0  0  0  0  0  0  0
   34.5780   28.5190   33.1570 H   0  0  0  0  0  0  0  0  0  0  0  0
   34.3990   30.3260   31.6650 H   0  0  0  0  0  0  0  0  0  0  0  0
   35.7730   31.2200   32.2960 H   0  0  0  0  0  0  0  0  0  0  0  0
   37.3160   30.2210   30.9910 H   0  0  0  0  0  0  0  0  0  0  0  0
   35.8660   29.7280   30.0660 H   0  0  0  0  0  0  0  0  0  0  0  0
   37.3340   27.8710   30.4570 H   0  0  0  0  0  0  0  0  0  0  0  0
   35.7100   27.6340   31.1400 H   0  0  0  0  0  0  0  0  0  0  0  0
   37.1990   26.4330   32.7940 C   0  0  0  0  0  0  0  0  0  0  0  0
   36.6430   25.7610   31.7130 C   0  0  0  0  0  0  0  0  0  0  0  0
   36.5680   24.3720   31.7570 C   0  0  0  0  0  0  0  0  0  0  0  0
   37.0490   23.7230   32.8770 N   0  0  0  0  0  0  0  0  0  0  0  0
   37.5860   24.4020   33.9200 C   0  0  0  0  0  0  0  0  0  0  0  0
   37.6360   25.7360   33.8290 N   0  0  0  0  0  0  0  0  0  0  0  0
   36.2050   26.0020   30.7540 H   0  0  0  0  0  0  0  0  0  0  0  0
   36.1870   23.6470   31.0540 H   0  0  0  0  0  0  0  0  0  0  0  0
   38.0700   23.6880   35.0580 N   0  0  0  0  0  0  0  0  0  0  0  0
   37.5050   23.2740   36.2070 C   0  0  0  0  0  0  0  0  0  0  0  0
   36.4630   23.4720   36.4150 H   0  0  0  0  0  0  0  0  0  0  0  0
   38.4290   22.6290   36.9530 N   0  0  0  0  0  0  0  0  0  0  0  0
   39.6000   22.6330   36.2710 C   0  0  0  0  0  0  0  0  0  0  0  0
   40.8520   22.1130   36.5810 C   0  0  0  0  0  0  0  0  0  0  0  0
   41.8140   22.2970   35.6610 N   0  0  0  0  0  0  0  0  0  0  0  0
   41.6430   22.9270   34.5080 C   0  0  0  0  0  0  0  0  0  0  0  0
   42.4440   23.0650   33.7720 H   0  0  0  0  0  0  0  0  0  0  0  0
   40.4320   23.4230   34.2230 N   0  0  0  0  0  0  0  0  0  0  0  0
   39.3750   23.3020   35.0720 C   0  0  0  0  0  0  0  0  0  0  0  0
   41.1110   21.4250   37.7980 N   0  0  0  0  0  0  0  0  0  0  0  0
   42.0820   21.3770   38.1670 H   0  0  0  0  0  0  0  0  0  0  0  0
   40.3410   20.9640   38.3320 H   0  0  0  0  0  0  0  0  0  0  0  0
   32.4680   29.1510   34.0440 Cl  0  0  0  0  0  0  0  0  0  0  0  0
   33.6160   30.1430   34.9140 C   0  0  0  0  0  0  0  0  0  0  0  0
   34.9200   30.1130   34.4860 C   0  0  0  0  0  0  0  0  0  0  0  0
   35.7720   30.8980   35.2510 C   0  0  0  0  0  0  0  0  0  0  0  0
   35.3350   31.6350   36.3370 C   0  0  0  0  0  0  0  0  0  0  0  0
   33.9910   31.6110   36.7030 C   0  0  0  0  0  0  0  0  0  0  0  0
   33.1140   30.8450   35.9700 C   0  0  0  0  0  0  0  0  0  0  0  0
   36.8260   30.8940   34.9340 H   0  0  0  0  0  0  0  0  0  0  0  0
   36.0900   32.2120   36.8610 H   0  0  0  0  0  0  0  0  0  0  0  0
   33.6790   32.1980   37.5570 H   0  0  0  0  0  0  0  0  0  0  0  0
   31.7420   30.8160   36.3390 N   0  0  0  0  0  0  0  0  0  0  0  0
   31.0090   31.4010   35.8700 H   0  0  0  0  0  0  0  0  0  0  0  0
   31.4090   30.1970   37.1080 H   0  0  0  0  0  0  0  0  0  0  0  0
  1  7  1  6  0  0  0
  1 17  1  0  0  0  0
  1  2  1  0  0  0  0
  2  9  1  0  0  0  0
  2  8  1  0  0  0  0
  3 10  1  6  0  0  0
  3  2  1  0  0  0  0
  3 41  1  0  0  0  0
  4 12  1  0  0  0  0
  4  3  1  0  0  0  0
  5  6  1  0  0  0  0
  5  4  1  0  0  0  0
  6  1  1  0  0  0  0
 11  4  1  0  0  0  0
 13  5  1  0  0  0  0
 14  5  1  0  0  0  0
 15  6  1  0  0  0  0
 16  6  1  0  0  0  0
 17 22  1  0  0  0  0
 18 19  1  0  0  0  0
 18 17  2  0  0  0  0
 19 20  2  0  0  0  0
 20 21  1  0  0  0  0
 21 25  1  0  0  0  0
 22 21  2  0  0  0  0
 23 18  1  0  0  0  0
 24 19  1  0  0  0  0
 25 35  1  0  0  0  0
 25 26  1  0  0  0  0
 26 27  1  0  0  0  0
 26 28  2  0  0  0  0
 29 30  1  0  0  0  0
 29 28  1  0  0  0  0
 30 36  1  0  0  0  0
 31 30  2  0  0  0  0
 32 31  1  0  0  0  0
 33 32  1  0  0  0  0
 34 32  2  0  0  0  0
 34 35  1  0  0  0  0
 35 29  2  0  0  0  0
 36 37  1  0  0  0  0
 36 38  1  0  0  0  0
 39 40  1  0  0  0  0
 40 45  1  0  0  0  0
 41 40  2  0  0  0  0
 41 42  1  0  0  0  0
 42 43  2  0  0  0  0
 43 44  1  0  0  0  0
 43 47  1  0  0  0  0
 44 48  1  0  0  0  0
 45 49  1  0  0  0  0
 45 44  2  0  0  0  0
 46 42  1  0  0  0  0
 49 51  1  0  0  0  0
 50 49  1  0  0  0  0
M  END
>  <minimizedAffinity>
-7.16072321

$$$$

 OpenBabel03272506033D

 51 55  0  0  1  0  0  0  0  0999 V2000
   36.4920   28.7560   32.7030 C   0  0  2  0  0  0  0  0  0  0  0  0
   35.8610   29.3490   33.8710 C   0  0  0  0  0  0  0  0  0  0  0  0
   34.3670   29.7420   33.6180 C   0  0  2  0  0  0  0  0  0  0  0  0
   34.2020   30.6790   32.5310 C   0  0  0  0  0  0  0  0  0  0  0  0
   35.1300   30.4120   31.3410 C   0  0  0  0  0  0  0  0  0  0  0  0
   35.7090   29.0320   31.4120 C   0  0  0  0  0  0  0  0  0  0  0  0
   37.4920   29.2400   32.4920 H   0  0  0  0  0  0  0  0  0  0  0  0
   35.8420   28.8940   34.8350 H   0  0  0  0  0  0  0  0  0  0  0  0
   36.3140   30.3850   34.0450 H   0  0  0  0  0  0  0  0  0  0  0  0
   33.8040   28.8170   33.5060 H   0  0  0  0  0  0  0  0  0  0  0  0
   33.1370   30.6450   32.1880 H   0  0  0  0  0  0  0  0  0  0  0  0
   34.3730   31.7500   32.7710 H   0  0  0  0  0  0  0  0  0  0  0  0
   35.9390   31.1590   31.2600 H   0  0  0  0  0  0  0  0  0  0  0  0
   34.5230   30.4510   30.4260 H   0  0  0  0  0  0  0  0  0  0  0  0
   36.3480   28.8980   30.5350 H   0  0  0  0  0  0  0  0  0  0  0  0
   34.8750   28.3030   31.3330 H   0  0  0  0  0  0  0  0  0  0  0  0
   36.7230   27.3140   32.7490 C   0  0  0  0  0  0  0  0  0  0  0  0
   36.1340   26.6080   31.7080 C   0  0  0  0  0  0  0  0  0  0  0  0
   36.3220   25.2300   31.6460 C   0  0  0  0  0  0  0  0  0  0  0  0
   37.0860   24.6260   32.6250 N   0  0  0  0  0  0  0  0  0  0  0  0
   37.6500   25.3380   33.6310 C   0  0  0  0  0  0  0  0  0  0  0  0
   37.4400   26.6600   33.6460 N   0  0  0  0  0  0  0  0  0  0  0  0
   35.5110   26.8110   30.8480 H   0  0  0  0  0  0  0  0  0  0  0  0
   35.9730   24.4850   30.9480 H   0  0  0  0  0  0  0  0  0  0  0  0
   38.4320   24.6700   34.6210 N   0  0  0  0  0  0  0  0  0  0  0  0
   38.1430   24.0920   35.8030 C   0  0  0  0  0  0  0  0  0  0  0  0
   37.1290   24.0730   36.1770 H   0  0  0  0  0  0  0  0  0  0  0  0
   39.2760   23.5990   36.3480 N   0  0  0  0  0  0  0  0  0  0  0  0
   40.3030   23.8660   35.5050 C   0  0  0  0  0  0  0  0  0  0  0  0
   41.6620   23.5820   35.5820 C   0  0  0  0  0  0  0  0  0  0  0  0
   42.4140   23.9990   34.5510 N   0  0  0  0  0  0  0  0  0  0  0  0
   41.9490   24.6460   33.4920 C   0  0  0  0  0  0  0  0  0  0  0  0
   42.5830   24.9770   32.6610 H   0  0  0  0  0  0  0  0  0  0  0  0
   40.6380   24.9130   33.4300 N   0  0  0  0  0  0  0  0  0  0  0  0
   39.7710   24.5430   34.4120 C   0  0  0  0  0  0  0  0  0  0  0  0
   42.2340   22.8920   36.6860 N   0  0  0  0  0  0  0  0  0  0  0  0
   43.2430   23.0130   36.9040 H   0  0  0  0  0  0  0  0  0  0  0  0
   41.6560   22.2620   37.2870 H   0  0  0  0  0  0  0  0  0  0  0  0
   31.7450   28.9040   34.6580 Cl  0  0  0  0  0  0  0  0  0  0  0  0
   32.7460   30.0770   35.4840 C   0  0  0  0  0  0  0  0  0  0  0  0
   33.9690   30.3590   34.9270 C   0  0  0  0  0  0  0  0  0  0  0  0
   34.7150   31.2700   35.6620 C   0  0  0  0  0  0  0  0  0  0  0  0
   34.2570   31.8330   36.8400 C   0  0  0  0  0  0  0  0  0  0  0  0
   33.0010   31.4940   37.3340 C   0  0  0  0  0  0  0  0  0  0  0  0
   32.2300   30.5930   36.6360 C   0  0  0  0  0  0  0  0  0  0  0  0
   35.7030   31.5160   35.2430 H   0  0  0  0  0  0  0  0  0  0  0  0
   34.9260   32.5340   37.3290 H   0  0  0  0  0  0  0  0  0  0  0  0
   32.6690   31.9510   38.2580 H   0  0  0  0  0  0  0  0  0  0  0  0
   30.9460   30.2430   37.1360 N   0  0  0  0  0  0  0  0  0  0  0  0
   30.0570   30.6760   36.7890 H   0  0  0  0  0  0  0  0  0  0  0  0
   30.8430   29.5240   37.8840 H   0  0  0  0  0  0  0  0  0  0  0  0
  1  7  1  6  0  0  0
  1 17  1  0  0  0  0
  1  2  1  0  0  0  0
  2  9  1  0  0  0  0
  2  8  1  0  0  0  0
  3 10  1  6  0  0  0
  3  2  1  0  0  0  0
  3 41  1  0  0  0  0
  4 12  1  0  0  0  0
  4  3  1  0  0  0  0
  5  6  1  0  0  0  0
  5  4  1  0  0  0  0
  6  1  1  0  0  0  0
 11  4  1  0  0  0  0
 13  5  1  0  0  0  0
 14  5  1  0  0  0  0
 15  6  1  0  0  0  0
 16  6  1  0  0  0  0
 17 22  1  0  0  0  0
 18 17  2  0  0  0  0
 19 18  1  0  0  0  0
 19 20  2  0  0  0  0
 20 21  1  0  0  0  0
 21 22  2  0  0  0  0
 21 25  1  0  0  0  0
 23 18  1  0  0  0  0
 24 19  1  0  0  0  0
 25 26  1  0  0  0  0
 26 27  1  0  0  0  0
 26 28  2  0  0  0  0
 29 30  1  0  0  0  0
 29 28  1  0  0  0  0
 30 36  1  0  0  0  0
 31 30  2  0  0  0  0
 32 31  1  0  0  0  0
 33 32  1  0  0  0  0
 34 32  2  0  0  0  0
 34 35  1  0  0  0  0
 35 25  1  0  0  0  0
 35 29  2  0  0  0  0
 36 37  1  0  0  0  0
 36 38  1  0  0  0  0
 39 40  1  0  0  0  0
 40 45  1  0  0  0  0
 41 40  2  0  0  0  0
 41 42  1  0  0  0  0
 42 43  2  0  0  0  0
 43 47  1  0  0  0  0
 43 44  1  0  0  0  0
 44 48  1  0  0  0  0
 45 49  1  0  0  0  0
 45 44  2  0  0  0  0
 46 42  1  0  0  0  0
 49 51  1  0  0  0  0
 50 49  1  0  0  0  0
M  END
>  <minimizedAffinity>
-7.1508646

$$$$

 OpenBabel03272506033D

 51 55  0  0  1  0  0  0  0  0999 V2000
   37.5640   27.0600   31.6450 C   0  0  2  0  0  0  0  0  0  0  0  0
   37.4490   26.1090   32.7380 C   0  0  0  0  0  0  0  0  0  0  0  0
   38.7400   26.0420   33.6210 C   0  0  2  0  0  0  0  0  0  0  0  0
   39.9210   25.6790   32.8730 C   0  0  0  0  0  0  0  0  0  0  0  0
   39.9860   26.3110   31.4790 C   0  0  0  0  0  0  0  0  0  0  0  0
   39.0210   27.4520   31.3620 C   0  0  0  0  0  0  0  0  0  0  0  0
   37.2410   26.5950   30.6660 H   0  0  0  0  0  0  0  0  0  0  0  0
   36.6560   26.1120   33.4510 H   0  0  0  0  0  0  0  0  0  0  0  0
   37.4480   25.0500   32.3040 H   0  0  0  0  0  0  0  0  0  0  0  0
   38.8160   26.9870   34.1550 H   0  0  0  0  0  0  0  0  0  0  0  0
   40.8240   25.9820   33.4620 H   0  0  0  0  0  0  0  0  0  0  0  0
   40.0750   24.5950   32.6850 H   0  0  0  0  0  0  0  0  0  0  0  0
   39.8050   25.5790   30.6730 H   0  0  0  0  0  0  0  0  0  0  0  0
   40.9910   26.7360   31.3480 H   0  0  0  0  0  0  0  0  0  0  0  0
   39.1230   27.8670   30.3560 H   0  0  0  0  0  0  0  0  0  0  0  0
   39.3290   28.2400   32.0820 H   0  0  0  0  0  0  0  0  0  0  0  0
   36.8180   28.3080   31.7850 C   0  0  0  0  0  0  0  0  0  0  0  0
   36.8640   29.1310   30.6680 C   0  0  0  0  0  0  0  0  0  0  0  0
   36.1590   30.3310   30.6910 C   0  0  0  0  0  0  0  0  0  0  0  0
   35.4450   30.6500   31.8300 N   0  0  0  0  0  0  0  0  0  0  0  0
   35.4160   29.8300   32.9090 C   0  0  0  0  0  0  0  0  0  0  0  0
   36.1110   28.6880   32.8350 N   0  0  0  0  0  0  0  0  0  0  0  0
   37.3240   29.1350   29.6890 H   0  0  0  0  0  0  0  0  0  0  0  0
   36.0460   31.1160   29.9610 H   0  0  0  0  0  0  0  0  0  0  0  0
   34.6640   30.2020   34.0630 N   0  0  0  0  0  0  0  0  0  0  0  0
   34.9510   30.9060   35.1750 C   0  0  0  0  0  0  0  0  0  0  0  0
   35.9350   31.3250   35.3270 H   0  0  0  0  0  0  0  0  0  0  0  0
   33.8560   30.9620   35.9630 N   0  0  0  0  0  0  0  0  0  0  0  0
   32.8560   30.2840   35.3490 C   0  0  0  0  0  0  0  0  0  0  0  0
   31.5400   30.0370   35.7210 C   0  0  0  0  0  0  0  0  0  0  0  0
   30.8050   29.3160   34.8590 N   0  0  0  0  0  0  0  0  0  0  0  0
   31.2500   28.8390   33.7050 C   0  0  0  0  0  0  0  0  0  0  0  0
   30.6300   28.2520   33.0170 H   0  0  0  0  0  0  0  0  0  0  0  0
   32.5200   29.0840   33.3590 N   0  0  0  0  0  0  0  0  0  0  0  0
   33.3660   29.8030   34.1470 C   0  0  0  0  0  0  0  0  0  0  0  0
   30.9920   30.5150   36.9440 N   0  0  0  0  0  0  0  0  0  0  0  0
   30.1730   30.0340   37.3660 H   0  0  0  0  0  0  0  0  0  0  0  0
   31.3990   31.3460   37.4290 H   0  0  0  0  0  0  0  0  0  0  0  0
   38.4410   26.9810   36.3930 Cl  0  0  0  0  0  0  0  0  0  0  0  0
   38.2730   25.2960   35.9550 C   0  0  0  0  0  0  0  0  0  0  0  0
   38.3900   24.9810   34.6240 C   0  0  0  0  0  0  0  0  0  0  0  0
   38.2070   23.6310   34.3570 C   0  0  0  0  0  0  0  0  0  0  0  0
   37.9330   22.7040   35.3460 C   0  0  0  0  0  0  0  0  0  0  0  0
   37.8330   23.1090   36.6750 C   0  0  0  0  0  0  0  0  0  0  0  0
   38.0080   24.4390   36.9810 C   0  0  0  0  0  0  0  0  0  0  0  0
   38.2930   23.3460   33.2970 H   0  0  0  0  0  0  0  0  0  0  0  0
   37.8100   21.6760   35.0210 H   0  0  0  0  0  0  0  0  0  0  0  0
   37.6190   22.3610   37.4270 H   0  0  0  0  0  0  0  0  0  0  0  0
   37.9060   24.8580   38.3360 N   0  0  0  0  0  0  0  0  0  0  0  0
   38.7390   25.0110   38.9540 H   0  0  0  0  0  0  0  0  0  0  0  0
   36.9760   25.0330   38.7720 H   0  0  0  0  0  0  0  0  0  0  0  0
  1  7  1  6  0  0  0
  1 17  1  0  0  0  0
  1  2  1  0  0  0  0
  2  8  1  0  0  0  0
  2  3  1  0  0  0  0
  3 10  1  1  0  0  0
  3 41  1  0  0  0  0
  4 11  1  0  0  0  0
  4  3  1  0  0  0  0
  5  4  1  0  0  0  0
  6  5  1  0  0  0  0
  6  1  1  0  0  0  0
  6 16  1  0  0  0  0
  9  2  1  0  0  0  0
 12  4  1  0  0  0  0
 13  5  1  0  0  0  0
 14  5  1  0  0  0  0
 15  6  1  0  0  0  0
 17 22  1  0  0  0  0
 18 19  1  0  0  0  0
 18 17  2  0  0  0  0
 19 20  2  0  0  0  0
 20 21  1  0  0  0  0
 21 25  1  0  0  0  0
 22 21  2  0  0  0  0
 23 18  1  0  0  0  0
 24 19  1  0  0  0  0
 25 35  1  0  0  0  0
 25 26  1  0  0  0  0
 26 27  1  0  0  0  0
 26 28  2  0  0  0  0
 29 30  1  0  0  0  0
 29 28  1  0  0  0  0
 30 36  1  0  0  0  0
 31 30  2  0  0  0  0
 32 31  1  0  0  0  0
 33 32  1  0  0  0  0
 34 32  2  0  0  0  0
 34 35  1  0  0  0  0
 35 29  2  0  0  0  0
 36 37  1  0  0  0  0
 36 38  1  0  0  0  0
 40 39  1  0  0  0  0
 40 45  1  0  0  0  0
 41 40  2  0  0  0  0
 42 41  1  0  0  0  0
 42 43  2  0  0  0  0
 43 44  1  0  0  0  0
 44 45  2  0  0  0  0
 44 48  1  0  0  0  0
 45 49  1  0  0  0  0
 46 42  1  0  0  0  0
 47 43  1  0  0  0  0
 49 51  1  0  0  0  0
 49 50  1  0  0  0  0
M  END
>  <minimizedAffinity>
-7.06103754

$$$$

 OpenBabel03272506033D

 51 55  0  0  1  0  0  0  0  0999 V2000
   36.9630   28.2190   33.3040 C   0  0  2  0  0  0  0  0  0  0  0  0
   36.3630   29.1090   34.2850 C   0  0  0  0  0  0  0  0  0  0  0  0
   34.8220   29.2860   34.0790 C   0  0  2  0  0  0  0  0  0  0  0  0
   34.4780   29.8050   32.7760 C   0  0  0  0  0  0  0  0  0  0  0  0
   35.3360   29.2380   31.6400 C   0  0  0  0  0  0  0  0  0  0  0  0
   36.0600   28.0020   32.0820 C   0  0  0  0  0  0  0  0  0  0  0  0
   37.8880   28.6810   32.8470 H   0  0  0  0  0  0  0  0  0  0  0  0
   36.4650   28.9900   35.3390 H   0  0  0  0  0  0  0  0  0  0  0  0
   36.7180   30.1760   34.0740 H   0  0  0  0  0  0  0  0  0  0  0  0
   34.3510   28.3360   34.3250 H   0  0  0  0  0  0  0  0  0  0  0  0
   33.4000   29.5830   32.5750 H   0  0  0  0  0  0  0  0  0  0  0  0
   34.5540   30.9060   32.6460 H   0  0  0  0  0  0  0  0  0  0  0  0
   36.0540   29.9760   31.2430 H   0  0  0  0  0  0  0  0  0  0  0  0
   34.6610   28.9330   30.8280 H   0  0  0  0  0  0  0  0  0  0  0  0
   36.6410   27.6390   31.2300 H   0  0  0  0  0  0  0  0  0  0  0  0
   35.3030   27.2270   32.3250 H   0  0  0  0  0  0  0  0  0  0  0  0
   37.3460   26.8900   33.7780 C   0  0  0  0  0  0  0  0  0  0  0  0
   37.2860   26.7360   35.1560 C   0  0  0  0  0  0  0  0  0  0  0  0
   37.6020   25.4960   35.7050 C   0  0  0  0  0  0  0  0  0  0  0  0
   37.9640   24.4740   34.8500 N   0  0  0  0  0  0  0  0  0  0  0  0
   38.0150   24.6490   33.5070 C   0  0  0  0  0  0  0  0  0  0  0  0
   37.7010   25.8600   33.0300 N   0  0  0  0  0  0  0  0  0  0  0  0
   37.0510   27.3360   36.0250 H   0  0  0  0  0  0  0  0  0  0  0  0
   37.6270   25.1420   36.7230 H   0  0  0  0  0  0  0  0  0  0  0  0
   38.3950   23.5620   32.6620 N   0  0  0  0  0  0  0  0  0  0  0  0
   39.5750   23.1170   32.1920 C   0  0  0  0  0  0  0  0  0  0  0  0
   40.4980   23.6170   32.4480 H   0  0  0  0  0  0  0  0  0  0  0  0
   39.3650   22.0300   31.4190 N   0  0  0  0  0  0  0  0  0  0  0  0
   38.0340   21.7770   31.3930 C   0  0  0  0  0  0  0  0  0  0  0  0
   37.2910   20.7900   30.7570 C   0  0  0  0  0  0  0  0  0  0  0  0
   35.9630   20.8320   30.9480 N   0  0  0  0  0  0  0  0  0  0  0  0
   35.3360   21.7360   31.6880 C   0  0  0  0  0  0  0  0  0  0  0  0
   34.2490   21.7500   31.8290 H   0  0  0  0  0  0  0  0  0  0  0  0
   36.0640   22.6810   32.2950 N   0  0  0  0  0  0  0  0  0  0  0  0
   37.4190   22.7460   32.1800 C   0  0  0  0  0  0  0  0  0  0  0  0
   37.8930   19.7870   29.9470 N   0  0  0  0  0  0  0  0  0  0  0  0
   37.3310   19.3110   29.2120 H   0  0  0  0  0  0  0  0  0  0  0  0
   38.8940   19.5180   30.0770 H   0  0  0  0  0  0  0  0  0  0  0  0
   32.1030   29.0090   35.1700 Cl  0  0  0  0  0  0  0  0  0  0  0  0
   33.2030   30.2570   35.7100 C   0  0  0  0  0  0  0  0  0  0  0  0
   34.4620   30.2620   35.1610 C   0  0  0  0  0  0  0  0  0  0  0  0
   35.2830   31.2590   35.6700 C   0  0  0  0  0  0  0  0  0  0  0  0
   34.8610   32.1550   36.6360 C   0  0  0  0  0  0  0  0  0  0  0  0
   33.5650   32.0810   37.1380 C   0  0  0  0  0  0  0  0  0  0  0  0
   32.7190   31.1060   36.6610 C   0  0  0  0  0  0  0  0  0  0  0  0
   36.3010   31.2890   35.2510 H   0  0  0  0  0  0  0  0  0  0  0  0
   35.5890   32.8920   36.9580 H   0  0  0  0  0  0  0  0  0  0  0  0
   33.2630   32.7950   37.8930 H   0  0  0  0  0  0  0  0  0  0  0  0
   31.3940   31.0260   37.1700 N   0  0  0  0  0  0  0  0  0  0  0  0
   30.5640   31.4350   36.6780 H   0  0  0  0  0  0  0  0  0  0  0  0
   31.1980   30.5440   38.0740 H   0  0  0  0  0  0  0  0  0  0  0  0
  1  7  1  6  0  0  0
  1 17  1  0  0  0  0
  1  2  1  0  0  0  0
  2  8  1  0  0  0  0
  3  2  1  0  0  0  0
  3 10  1  1  0  0  0
  3 41  1  0  0  0  0
  4  3  1  0  0  0  0
  5  6  1  0  0  0  0
  5  4  1  0  0  0  0
  6 16  1  0  0  0  0
  6  1  1  0  0  0  0
  9  2  1  0  0  0  0
 11  4  1  0  0  0  0
 12  4  1  0  0  0  0
 13  5  1  0  0  0  0
 14  5  1  0  0  0  0
 15  6  1  0  0  0  0
 17 18  1  0  0  0  0
 18 19  2  0  0  0  0
 18 23  1  0  0  0  0
 19 24  1  0  0  0  0
 20 19  1  0  0  0  0
 21 20  2  0  0  0  0
 22 21  1  0  0  0  0
 22 17  2  0  0  0  0
 25 21  1  0  0  0  0
 26 27  1  0  0  0  0
 26 25  1  0  0  0  0
 28 26  2  0  0  0  0
 29 28  1  0  0  0  0
 29 35  1  0  0  0  0
 30 31  1  0  0  0  0
 30 29  2  0  0  0  0
 31 32  2  0  0  0  0
 32 33  1  0  0  0  0
 32 34  1  0  0  0  0
 35 34  2  0  0  0  0
 35 25  1  0  0  0  0
 36 38  1  0  0  0  0
 36 30  1  0  0  0  0
 37 36  1  0  0  0  0
 39 40  1  0  0  0  0
 40 45  1  0  0  0  0
 41 42  1  0  0  0  0
 41 40  2  0  0  0  0
 42 43  2  0  0  0  0
 43 47  1  0  0  0  0
 43 44  1  0  0  0  0
 44 48  1  0  0  0  0
 45 44  2  0  0  0  0
 45 49  1  0  0  0  0
 46 42  1  0  0  0  0
 49 51  1  0  0  0  0
 50 49  1  0  0  0  0
M  END
>  <minimizedAffinity>
-6.75913668

$$$$

 OpenBabel03272506033D

 51 55  0  0  1  0  0  0  0  0999 V2000
   39.7810   25.8040   34.6600 C   0  0  2  0  0  0  0  0  0  0  0  0
   38.9250   26.5010   33.7140 C   0  0  0  0  0  0  0  0  0  0  0  0
   39.6440   26.8090   32.3590 C   0  0  2  0  0  0  0  0  0  0  0  0
   40.8340   27.6110   32.5160 C   0  0  0  0  0  0  0  0  0  0  0  0
   41.6640   27.2470   33.7510 C   0  0  0  0  0  0  0  0  0  0  0  0
   41.2670   25.9040   34.2870 C   0  0  0  0  0  0  0  0  0  0  0  0
   39.7490   26.2970   35.6770 H   0  0  0  0  0  0  0  0  0  0  0  0
   37.9610   26.1560   33.4160 H   0  0  0  0  0  0  0  0  0  0  0  0
   38.7500   27.5660   34.0950 H   0  0  0  0  0  0  0  0  0  0  0  0
   39.8040   25.8580   31.8540 H   0  0  0  0  0  0  0  0  0  0  0  0
   41.4640   27.5010   31.5980 H   0  0  0  0  0  0  0  0  0  0  0  0
   40.6830   28.7080   32.6080 H   0  0  0  0  0  0  0  0  0  0  0  0
   41.5950   28.0080   34.5480 H   0  0  0  0  0  0  0  0  0  0  0  0
   42.7140   27.1610   33.4380 H   0  0  0  0  0  0  0  0  0  0  0  0
   41.8990   25.6960   35.1540 H   0  0  0  0  0  0  0  0  0  0  0  0
   41.4970   25.1420   33.5130 H   0  0  0  0  0  0  0  0  0  0  0  0
   39.5010   24.3850   34.8690 C   0  0  0  0  0  0  0  0  0  0  0  0
   39.4670   24.0010   36.2030 C   0  0  0  0  0  0  0  0  0  0  0  0
   39.1770   22.6740   36.5090 C   0  0  0  0  0  0  0  0  0  0  0  0
   38.9370   21.7980   35.4680 N   0  0  0  0  0  0  0  0  0  0  0  0
   38.9770   22.1970   34.1740 C   0  0  0  0  0  0  0  0  0  0  0  0
   39.2600   23.4840   33.9330 N   0  0  0  0  0  0  0  0  0  0  0  0
   39.6120   24.4510   37.1750 H   0  0  0  0  0  0  0  0  0  0  0  0
   39.0950   22.1510   37.4480 H   0  0  0  0  0  0  0  0  0  0  0  0
   38.7230   21.2560   33.1310 N   0  0  0  0  0  0  0  0  0  0  0  0
   39.5030   20.4180   32.4220 C   0  0  0  0  0  0  0  0  0  0  0  0
   40.5680   20.3680   32.6010 H   0  0  0  0  0  0  0  0  0  0  0  0
   38.7400   19.7360   31.5410 N   0  0  0  0  0  0  0  0  0  0  0  0
   37.4560   20.1430   31.6880 C   0  0  0  0  0  0  0  0  0  0  0  0
   36.2860   19.7660   31.0390 C   0  0  0  0  0  0  0  0  0  0  0  0
   35.1610   20.3810   31.4400 N   0  0  0  0  0  0  0  0  0  0  0  0
   35.1040   21.3010   32.3920 C   0  0  0  0  0  0  0  0  0  0  0  0
   34.1730   21.7900   32.7030 H   0  0  0  0  0  0  0  0  0  0  0  0
   36.2390   21.6550   33.0090 N   0  0  0  0  0  0  0  0  0  0  0  0
   37.4440   21.1040   32.6940 C   0  0  0  0  0  0  0  0  0  0  0  0
   36.2680   18.7870   30.0080 N   0  0  0  0  0  0  0  0  0  0  0  0
   35.4990   18.7870   29.3090 H   0  0  0  0  0  0  0  0  0  0  0  0
   37.0190   18.0630   29.9390 H   0  0  0  0  0  0  0  0  0  0  0  0
   39.9890   26.8380   29.4360 Cl  0  0  0  0  0  0  0  0  0  0  0  0
   38.6730   27.6740   30.2300 C   0  0  0  0  0  0  0  0  0  0  0  0
   38.5880   27.5540   31.5950 C   0  0  0  0  0  0  0  0  0  0  0  0
   37.4960   28.2160   32.1410 C   0  0  0  0  0  0  0  0  0  0  0  0
   36.5910   28.9240   31.3730 C   0  0  0  0  0  0  0  0  0  0  0  0
   36.7530   28.9970   29.9910 C   0  0  0  0  0  0  0  0  0  0  0  0
   37.8220   28.3540   29.4110 C   0  0  0  0  0  0  0  0  0  0  0  0
   37.3990   28.1380   33.2350 H   0  0  0  0  0  0  0  0  0  0  0  0
   35.7760   29.4020   31.9080 H   0  0  0  0  0  0  0  0  0  0  0  0
   36.0280   29.5590   29.4160 H   0  0  0  0  0  0  0  0  0  0  0  0
   37.9920   28.4260   28.0010 N   0  0  0  0  0  0  0  0  0  0  0  0
   38.6460   29.0990   27.5350 H   0  0  0  0  0  0  0  0  0  0  0  0
   37.4580   27.7940   27.3670 H   0  0  0  0  0  0  0  0  0  0  0  0
  1 17  1  0  0  0  0
  1  7  1  1  0  0  0
  2  9  1  0  0  0  0
  2  1  1  0  0  0  0
  3 10  1  6  0  0  0
  3  4  1  0  0  0  0
  3  2  1  0  0  0  0
  4 12  1  0  0  0  0
  4  5  1  0  0  0  0
  5  6  1  0  0  0  0
  5 13  1  0  0  0  0
  6  1  1  0  0  0  0
  6 15  1  0  0  0  0
  8  2  1  0  0  0  0
 11  4  1  0  0  0  0
 14  5  1  0  0  0  0
 16  6  1  0  0  0  0
 17 18  1  0  0  0  0
 18 19  2  0  0  0  0
 18 23  1  0  0  0  0
 19 24  1  0  0  0  0
 20 19  1  0  0  0  0
 21 20  2  0  0  0  0
 22 21  1  0  0  0  0
 22 17  2  0  0  0  0
 25 21  1  0  0  0  0
 26 27  1  0  0  0  0
 26 25  1  0  0  0  0
 28 29  1  0  0  0  0
 28 26  2  0  0  0  0
 29 35  1  0  0  0  0
 30 31  1  0  0  0  0
 30 29  2  0  0  0  0
 31 32  2  0  0  0  0
 32 33  1  0  0  0  0
 32 34  1  0  0  0  0
 35 34  2  0  0  0  0
 35 25  1  0  0  0  0
 36 30  1  0  0  0  0
 37 36  1  0  0  0  0
 38 36  1  0  0  0  0
 39 40  1  0  0  0  0
 40 41  1  0  0  0  0
 41 42  2  0  0  0  0
 41  3  1  0  0  0  0
 42 46  1  0  0  0  0
 43 47  1  0  0  0  0
 43 42  1  0  0  0  0
 44 43  2  0  0  0  0
 45 44  1  0  0  0  0
 45 40  2  0  0  0  0
 48 44  1  0  0  0  0
 49 45  1  0  0  0  0
 50 49  1  0  0  0  0
 51 49  1  0  0  0  0
M  END
>  <minimizedAffinity>
-6.75086832

$$$$

 OpenBabel03272506033D

 51 55  0  0  1  0  0  0  0  0999 V2000
   35.7790   30.9520   32.6000 C   0  0  2  0  0  0  0  0  0  0  0  0
   34.9520   30.5600   33.7290 C   0  0  0  0  0  0  0  0  0  0  0  0
   33.4710   31.0460   33.5930 C   0  0  2  0  0  0  0  0  0  0  0  0
   33.3520   32.4800   33.4650 C   0  0  0  0  0  0  0  0  0  0  0  0
   34.4440   33.1130   32.5950 C   0  0  0  0  0  0  0  0  0  0  0  0
   35.1410   32.0740   31.7690 C   0  0  0  0  0  0  0  0  0  0  0  0
   36.7460   31.4240   32.9490 H   0  0  0  0  0  0  0  0  0  0  0  0
   34.8570   29.5580   34.0800 H   0  0  0  0  0  0  0  0  0  0  0  0
   35.2770   31.1620   34.6470 H   0  0  0  0  0  0  0  0  0  0  0  0
   33.0180   30.4820   32.7800 H   0  0  0  0  0  0  0  0  0  0  0  0
   32.3480   32.7200   33.0350 H   0  0  0  0  0  0  0  0  0  0  0  0
   33.3870   33.0660   34.4080 H   0  0  0  0  0  0  0  0  0  0  0  0
   35.1800   33.6830   33.1880 H   0  0  0  0  0  0  0  0  0  0  0  0
   33.9560   33.7990   31.8880 H   0  0  0  0  0  0  0  0  0  0  0  0
   35.8940   32.5860   31.1650 H   0  0  0  0  0  0  0  0  0  0  0  0
   34.3980   31.6300   31.0740 H   0  0  0  0  0  0  0  0  0  0  0  0
   36.1410   29.8950   31.6600 C   0  0  0  0  0  0  0  0  0  0  0  0
   36.8030   30.3420   30.5240 C   0  0  0  0  0  0  0  0  0  0  0  0
   37.2180   29.4060   29.5800 C   0  0  0  0  0  0  0  0  0  0  0  0
   36.9500   28.0720   29.8170 N   0  0  0  0  0  0  0  0  0  0  0  0
   36.3020   27.6600   30.9330 C   0  0  0  0  0  0  0  0  0  0  0  0
   35.9240   28.5990   31.8100 N   0  0  0  0  0  0  0  0  0  0  0  0
   37.1270   31.2810   30.0980 H   0  0  0  0  0  0  0  0  0  0  0  0
   37.7380   29.5100   28.6410 H   0  0  0  0  0  0  0  0  0  0  0  0
   36.0480   26.2700   31.1350 N   0  0  0  0  0  0  0  0  0  0  0  0
   35.0350   25.4500   30.7950 C   0  0  0  0  0  0  0  0  0  0  0  0
   34.1800   25.8220   30.2490 H   0  0  0  0  0  0  0  0  0  0  0  0
   35.3020   24.2030   31.2400 N   0  0  0  0  0  0  0  0  0  0  0  0
   36.5000   24.2260   31.8730 C   0  0  0  0  0  0  0  0  0  0  0  0
   37.2320   23.2280   32.5060 C   0  0  0  0  0  0  0  0  0  0  0  0
   38.4060   23.6020   33.0410 N   0  0  0  0  0  0  0  0  0  0  0  0
   38.8930   24.8340   33.0010 C   0  0  0  0  0  0  0  0  0  0  0  0
   39.8550   25.1170   33.4460 H   0  0  0  0  0  0  0  0  0  0  0  0
   38.1770   25.7860   32.3890 N   0  0  0  0  0  0  0  0  0  0  0  0
   36.9730   25.5340   31.8080 C   0  0  0  0  0  0  0  0  0  0  0  0
   36.7740   21.8840   32.5890 N   0  0  0  0  0  0  0  0  0  0  0  0
   37.1250   21.2650   33.3470 H   0  0  0  0  0  0  0  0  0  0  0  0
   36.0880   21.5050   31.8980 H   0  0  0  0  0  0  0  0  0  0  0  0
   31.7250   28.6910   33.3450 Cl  0  0  0  0  0  0  0  0  0  0  0  0
   31.9840   29.5040   34.8720 C   0  0  0  0  0  0  0  0  0  0  0  0
   32.8540   30.5670   34.8750 C   0  0  0  0  0  0  0  0  0  0  0  0
   33.0320   31.1320   36.1300 C   0  0  0  0  0  0  0  0  0  0  0  0
   32.3880   30.6610   37.2600 C   0  0  0  0  0  0  0  0  0  0  0  0
   31.5180   29.5780   37.1680 C   0  0  0  0  0  0  0  0  0  0  0  0
   31.3150   28.9880   35.9410 C   0  0  0  0  0  0  0  0  0  0  0  0
   33.7250   31.9860   36.1670 H   0  0  0  0  0  0  0  0  0  0  0  0
   32.6030   31.1820   38.1880 H   0  0  0  0  0  0  0  0  0  0  0  0
   31.0290   29.2320   38.0690 H   0  0  0  0  0  0  0  0  0  0  0  0
   30.4280   27.8820   35.8420 N   0  0  0  0  0  0  0  0  0  0  0  0
   29.4320   27.9700   35.5260 H   0  0  0  0  0  0  0  0  0  0  0  0
   30.7460   26.9190   36.0850 H   0  0  0  0  0  0  0  0  0  0  0  0
  1  7  1  1  0  0  0
  1  2  1  0  0  0  0
  2  8  1  0  0  0  0
  2  9  1  0  0  0  0
  3 10  1  6  0  0  0
  3  2  1  0  0  0  0
  3 41  1  0  0  0  0
  4  3  1  0  0  0  0
  4 12  1  0  0  0  0
  5 13  1  0  0  0  0
  5  4  1  0  0  0  0
  6  5  1  0  0  0  0
  6  1  1  0  0  0  0
 11  4  1  0  0  0  0
 14  5  1  0  0  0  0
 15  6  1  0  0  0  0
 16  6  1  0  0  0  0
 17 22  1  0  0  0  0
 17  1  1  0  0  0  0
 18 17  2  0  0  0  0
 19 20  2  0  0  0  0
 19 18  1  0  0  0  0
 20 21  1  0  0  0  0
 21 25  1  0  0  0  0
 21 22  2  0  0  0  0
 23 18  1  0  0  0  0
 24 19  1  0  0  0  0
 25 35  1  0  0  0  0
 26 25  1  0  0  0  0
 26 28  2  0  0  0  0
 27 26  1  0  0  0  0
 28 29  1  0  0  0  0
 29 30  1  0  0  0  0
 30 36  1  0  0  0  0
 30 31  2  0  0  0  0
 32 31  1  0  0  0  0
 32 33  1  0  0  0  0
 34 32  2  0  0  0  0
 35 29  2  0  0  0  0
 35 34  1  0  0  0  0
 36 37  1  0  0  0  0
 38 36  1  0  0  0  0
 39 40  1  0  0  0  0
 40 41  2  0  0  0  0
 40 45  1  0  0  0  0
 41 42  1  0  0  0  0
 42 46  1  0  0  0  0
 42 43  2  0  0  0  0
 43 47  1  0  0  0  0
 44 43  1  0  0  0  0
 44 48  1  0  0  0  0
 45 44  2  0  0  0  0
 49 45  1  0  0  0  0
 49 51  1  0  0  0  0
 50 49  1  0  0  0  0
M  END
>  <minimizedAffinity>
-6.73853779

$$$$

 OpenBabel03272506033D

 51 55  0  0  1  0  0  0  0  0999 V2000
   34.9140   30.0470   32.4990 C   0  0  2  0  0  0  0  0  0  0  0  0
   34.0290   29.5270   33.5290 C   0  0  0  0  0  0  0  0  0  0  0  0
   32.5210   29.5740   33.1120 C   0  0  2  0  0  0  0  0  0  0  0  0
   32.0590   30.9050   32.7960 C   0  0  0  0  0  0  0  0  0  0  0  0
   33.0860   31.7480   32.0320 C   0  0  0  0  0  0  0  0  0  0  0  0
   34.1640   30.8840   31.4520 C   0  0  0  0  0  0  0  0  0  0  0  0
   35.6460   30.7930   32.9300 H   0  0  0  0  0  0  0  0  0  0  0  0
   34.1370   28.5670   33.9790 H   0  0  0  0  0  0  0  0  0  0  0  0
   34.0170   30.2620   34.4060 H   0  0  0  0  0  0  0  0  0  0  0  0
   32.3840   28.8470   32.3140 H   0  0  0  0  0  0  0  0  0  0  0  0
   31.1200   30.8250   32.1930 H   0  0  0  0  0  0  0  0  0  0  0  0
   31.7720   31.5470   33.6560 H   0  0  0  0  0  0  0  0  0  0  0  0
   33.5310   32.5420   32.6560 H   0  0  0  0  0  0  0  0  0  0  0  0
   32.5700   32.2180   31.1820 H   0  0  0  0  0  0  0  0  0  0  0  0
   34.8540   31.5370   30.9120 H   0  0  0  0  0  0  0  0  0  0  0  0
   33.6990   30.2010   30.7110 H   0  0  0  0  0  0  0  0  0  0  0  0
   35.7000   29.0640   31.7580 C   0  0  0  0  0  0  0  0  0  0  0  0
   36.5330   29.6090   30.7900 C   0  0  0  0  0  0  0  0  0  0  0  0
   37.3470   28.7560   30.0500 C   0  0  0  0  0  0  0  0  0  0  0  0
   37.2870   27.4010   30.3130 N   0  0  0  0  0  0  0  0  0  0  0  0
   36.4650   26.8930   31.2620 C   0  0  0  0  0  0  0  0  0  0  0  0
   35.7030   27.7550   31.9460 N   0  0  0  0  0  0  0  0  0  0  0  0
   36.7700   30.5850   30.3880 H   0  0  0  0  0  0  0  0  0  0  0  0
   38.0610   28.9420   29.2640 H   0  0  0  0  0  0  0  0  0  0  0  0
   36.4380   25.4850   31.4980 N   0  0  0  0  0  0  0  0  0  0  0  0
   35.7220   24.4680   30.9810 C   0  0  0  0  0  0  0  0  0  0  0  0
   34.9810   24.6450   30.2150 H   0  0  0  0  0  0  0  0  0  0  0  0
   36.0990   23.3120   31.5690 N   0  0  0  0  0  0  0  0  0  0  0  0
   37.0670   23.5940   32.4750 C   0  0  0  0  0  0  0  0  0  0  0  0
   37.7890   22.7810   33.3410 C   0  0  0  0  0  0  0  0  0  0  0  0
   38.6930   23.3980   34.1190 N   0  0  0  0  0  0  0  0  0  0  0  0
   38.9290   24.7030   34.1100 C   0  0  0  0  0  0  0  0  0  0  0  0
   39.6730   25.1850   34.7550 H   0  0  0  0  0  0  0  0  0  0  0  0
   38.2260   25.4740   33.2710 N   0  0  0  0  0  0  0  0  0  0  0  0
   37.2820   24.9680   32.4310 C   0  0  0  0  0  0  0  0  0  0  0  0
   37.5910   21.3740   33.4080 N   0  0  0  0  0  0  0  0  0  0  0  0
   37.8470   20.8570   34.2730 H   0  0  0  0  0  0  0  0  0  0  0  0
   37.1900   20.8470   32.6000 H   0  0  0  0  0  0  0  0  0  0  0  0
   33.1930   30.9360   35.6320 Cl  0  0  0  0  0  0  0  0  0  0  0  0
   32.1050   29.5670   35.5720 C   0  0  0  0  0  0  0  0  0  0  0  0
   31.8320   29.0400   34.3340 C   0  0  0  0  0  0  0  0  0  0  0  0
   30.9330   27.9820   34.3700 C   0  0  0  0  0  0  0  0  0  0  0  0
   30.3750   27.5150   35.5460 C   0  0  0  0  0  0  0  0  0  0  0  0
   30.7090   28.1070   36.7610 C   0  0  0  0  0  0  0  0  0  0  0  0
   31.5970   29.1590   36.7690 C   0  0  0  0  0  0  0  0  0  0  0  0
   30.6910   27.5380   33.3920 H   0  0  0  0  0  0  0  0  0  0  0  0
   29.6850   26.6830   35.4530 H   0  0  0  0  0  0  0  0  0  0  0  0
   30.2570   27.7200   37.6650 H   0  0  0  0  0  0  0  0  0  0  0  0
   31.9420   29.7680   38.0070 N   0  0  0  0  0  0  0  0  0  0  0  0
   32.8160   29.5370   38.5360 H   0  0  0  0  0  0  0  0  0  0  0  0
   31.3200   30.4830   38.4410 H   0  0  0  0  0  0  0  0  0  0  0  0
  1  7  1  1  0  0  0
  1  2  1  0  0  0  0
  2  8  1  0  0  0  0
  2  9  1  0  0  0  0
  3 10  1  6  0  0  0
  3  2  1  0  0  0  0
  3 41  1  0  0  0  0
  4  3  1  0  0  0  0
  4 12  1  0  0  0  0
  5 13  1  0  0  0  0
  5  4  1  0  0  0  0
  6  5  1  0  0  0  0
  6  1  1  0  0  0  0
 11  4  1  0  0  0  0
 14  5  1  0  0  0  0
 15  6  1  0  0  0  0
 16  6  1  0  0  0  0
 17 22  1  0  0  0  0
 17  1  1  0  0  0  0
 18 17  2  0  0  0  0
 19 20  2  0  0  0  0
 19 18  1  0  0  0  0
 20 21  1  0  0  0  0
 21 25  1  0  0  0  0
 21 22  2  0  0  0  0
 23 18  1  0  0  0  0
 24 19  1  0  0  0  0
 25 35  1  0  0  0  0
 26 25  1  0  0  0  0
 26 28  2  0  0  0  0
 27 26  1  0  0  0  0
 28 29  1  0  0  0  0
 29 30  1  0  0  0  0
 30 36  1  0  0  0  0
 30 31  2  0  0  0  0
 32 31  1  0  0  0  0
 32 33  1  0  0  0  0
 34 32  2  0  0  0  0
 35 29  2  0  0  0  0
 35 34  1  0  0  0  0
 36 37  1  0  0  0  0
 38 36  1  0  0  0  0
 40 39  1  0  0  0  0
 40 45  1  0  0  0  0
 41 42  1  0  0  0  0
 41 40  2  0  0  0  0
 42 43  2  0  0  0  0
 43 44  1  0  0  0  0
 44 45  2  0  0  0  0
 44 48  1  0  0  0  0
 45 49  1  0  0  0  0
 46 42  1  0  0  0  0
 47 43  1  0  0  0  0
 49 51  1  0  0  0  0
 49 50  1  0  0  0  0
M  END
>  <minimizedAffinity>
-6.73723125

$$$$

 OpenBabel03272506033D

 51 55  0  0  1  0  0  0  0  0999 V2000
   40.2940   24.3290   31.8270 C   0  0  2  0  0  0  0  0  0  0  0  0
   40.4450   23.5660   33.0550 C   0  0  0  0  0  0  0  0  0  0  0  0
   41.1200   24.3910   34.2010 C   0  0  2  0  0  0  0  0  0  0  0  0
   42.4320   24.8830   33.8500 C   0  0  0  0  0  0  0  0  0  0  0  0
   42.5410   25.3670   32.4000 C   0  0  0  0  0  0  0  0  0  0  0  0
   41.1830   25.5810   31.8030 C   0  0  0  0  0  0  0  0  0  0  0  0
   40.6710   23.7440   30.9360 H   0  0  0  0  0  0  0  0  0  0  0  0
   39.6450   23.0600   33.5450 H   0  0  0  0  0  0  0  0  0  0  0  0
   41.2420   22.7610   32.8900 H   0  0  0  0  0  0  0  0  0  0  0  0
   40.4140   25.1620   34.5040 H   0  0  0  0  0  0  0  0  0  0  0  0
   42.6960   25.7210   34.5430 H   0  0  0  0  0  0  0  0  0  0  0  0
   43.2750   24.1680   33.9600 H   0  0  0  0  0  0  0  0  0  0  0  0
   43.1290   24.6790   31.7680 H   0  0  0  0  0  0  0  0  0  0  0  0
   43.0380   26.3470   32.4080 H   0  0  0  0  0  0  0  0  0  0  0  0
   41.3260   25.9350   30.7790 H   0  0  0  0  0  0  0  0  0  0  0  0
   40.6800   26.3910   32.3710 H   0  0  0  0  0  0  0  0  0  0  0  0
   38.9420   24.7740   31.4980 C   0  0  0  0  0  0  0  0  0  0  0  0
   38.0240   23.7450   31.3390 C   0  0  0  0  0  0  0  0  0  0  0  0
   36.7000   24.0670   31.0540 C   0  0  0  0  0  0  0  0  0  0  0  0
   36.3600   25.4010   30.9420 N   0  0  0  0  0  0  0  0  0  0  0  0
   37.2740   26.3880   31.1010 C   0  0  0  0  0  0  0  0  0  0  0  0
   38.5340   26.0250   31.3740 N   0  0  0  0  0  0  0  0  0  0  0  0
   38.0140   22.6640   31.3650 H   0  0  0  0  0  0  0  0  0  0  0  0
   35.8270   23.4560   30.8920 H   0  0  0  0  0  0  0  0  0  0  0  0
   36.8750   27.7530   30.9760 N   0  0  0  0  0  0  0  0  0  0  0  0
   36.8020   28.6110   29.9400 C   0  0  0  0  0  0  0  0  0  0  0  0
   37.0820   28.3010   28.9430 H   0  0  0  0  0  0  0  0  0  0  0  0
   36.3510   29.8050   30.3800 N   0  0  0  0  0  0  0  0  0  0  0  0
   36.1340   29.7110   31.7140 C   0  0  0  0  0  0  0  0  0  0  0  0
   35.6750   30.6360   32.6450 C   0  0  0  0  0  0  0  0  0  0  0  0
   35.5750   30.2030   33.9120 N   0  0  0  0  0  0  0  0  0  0  0  0
   35.8800   28.9770   34.3150 C   0  0  0  0  0  0  0  0  0  0  0  0
   35.7900   28.6450   35.3570 H   0  0  0  0  0  0  0  0  0  0  0  0
   36.3200   28.0960   33.4080 N   0  0  0  0  0  0  0  0  0  0  0  0
   36.4650   28.4130   32.0920 C   0  0  0  0  0  0  0  0  0  0  0  0
   35.3300   31.9680   32.2870 N   0  0  0  0  0  0  0  0  0  0  0  0
   35.3500   32.7180   33.0080 H   0  0  0  0  0  0  0  0  0  0  0  0
   35.0540   32.2100   31.3090 H   0  0  0  0  0  0  0  0  0  0  0  0
   38.9310   24.5110   36.1640 Cl  0  0  0  0  0  0  0  0  0  0  0  0
   40.2600   23.3830   36.3150 C   0  0  0  0  0  0  0  0  0  0  0  0
   41.2010   23.3880   35.3160 C   0  0  0  0  0  0  0  0  0  0  0  0
   42.2000   22.4400   35.4920 C   0  0  0  0  0  0  0  0  0  0  0  0
   42.2310   21.5800   36.5750 C   0  0  0  0  0  0  0  0  0  0  0  0
   41.2350   21.6440   37.5470 C   0  0  0  0  0  0  0  0  0  0  0  0
   40.2270   22.5700   37.4080 C   0  0  0  0  0  0  0  0  0  0  0  0
   42.9700   22.4170   34.7060 H   0  0  0  0  0  0  0  0  0  0  0  0
   43.0600   20.8800   36.6090 H   0  0  0  0  0  0  0  0  0  0  0  0
   41.2870   20.9590   38.3830 H   0  0  0  0  0  0  0  0  0  0  0  0
   39.2080   22.6400   38.3970 N   0  0  0  0  0  0  0  0  0  0  0  0
   39.2110   23.3400   39.1770 H   0  0  0  0  0  0  0  0  0  0  0  0
   38.4020   21.9790   38.3800 H   0  0  0  0  0  0  0  0  0  0  0  0
  1  7  1  6  0  0  0
  1  2  1  0  0  0  0
  2  8  1  0  0  0  0
  2  3  1  0  0  0  0
  3 10  1  1  0  0  0
  3 41  1  0  0  0  0
  4 12  1  0  0  0  0
  4  3  1  0  0  0  0
  4 11  1  0  0  0  0
  5 14  1  0  0  0  0
  5  4  1  0  0  0  0
  6  1  1  0  0  0  0
  6 16  1  0  0  0  0
  6  5  1  0  0  0  0
  9  2  1  0  0  0  0
 13  5  1  0  0  0  0
 15  6  1  0  0  0  0
 17  1  1  0  0  0  0
 18 23  1  0  0  0  0
 18 17  2  0  0  0  0
 19 18  1  0  0  0  0
 20 19  2  0  0  0  0
 20 21  1  0  0  0  0
 21 22  2  0  0  0  0
 22 17  1  0  0  0  0
 24 19  1  0  0  0  0
 25 21  1  0  0  0  0
 25 35  1  0  0  0  0
 26 28  2  0  0  0  0
 26 25  1  0  0  0  0
 27 26  1  0  0  0  0
 28 29  1  0  0  0  0
 29 35  2  0  0  0  0
 29 30  1  0  0  0  0
 30 31  2  0  0  0  0
 31 32  1  0  0  0  0
 32 33  1  0  0  0  0
 34 32  2  0  0  0  0
 35 34  1  0  0  0  0
 36 30  1  0  0  0  0
 36 37  1  0  0  0  0
 38 36  1  0  0  0  0
 39 40  1  0  0  0  0
 40 45  1  0  0  0  0
 41 42  1  0  0  0  0
 41 40  2  0  0  0  0
 42 43  2  0  0  0  0
 43 47  1  0  0  0  0
 43 44  1  0  0  0  0
 44 48  1  0  0  0  0
 45 44  2  0  0  0  0
 45 49  1  0  0  0  0
 46 42  1  0  0  0  0
 49 50  1  0  0  0  0
 51 49  1  0  0  0  0
M  END
>  <minimizedAffinity>
-6.63274193

$$$$
