
 OpenBabel03272509023D

 46 50  0  0  0  0  0  0  0  0999 V2000
   36.8630   27.2030   50.2160 F   0  0  0  0  0  0  0  0  0  0  0  0
   37.4070   28.0190   51.1840 C   0  0  0  0  0  0  0  0  0  0  0  0
   36.8250   29.2430   51.5320 C   0  0  0  0  0  0  0  0  0  0  0  0
   37.4170   29.9850   52.5240 C   0  0  0  0  0  0  0  0  0  0  0  0
   38.5640   29.5470   53.1670 C   0  0  0  0  0  0  0  0  0  0  0  0
   39.1320   28.3100   52.7990 C   0  0  0  0  0  0  0  0  0  0  0  0
   38.5480   27.5290   51.7910 C   0  0  0  0  0  0  0  0  0  0  0  0
   37.0150   30.9010   52.9240 H   0  0  0  0  0  0  0  0  0  0  0  0
   39.0750   30.0830   53.9480 H   0  0  0  0  0  0  0  0  0  0  0  0
   40.0140   27.9540   53.2800 H   0  0  0  0  0  0  0  0  0  0  0  0
   39.1270   26.2840   51.4270 N   0  0  0  0  0  0  0  0  0  0  0  0
   39.0930   25.7350   50.1810 C   0  0  0  0  0  0  0  0  0  0  0  0
   38.6180   26.1990   49.3340 H   0  0  0  0  0  0  0  0  0  0  0  0
   39.7560   24.5450   50.2460 N   0  0  0  0  0  0  0  0  0  0  0  0
   40.1840   24.3700   51.5040 C   0  0  0  0  0  0  0  0  0  0  0  0
   40.8890   23.4110   52.2020 C   0  0  0  0  0  0  0  0  0  0  0  0
   41.1790   23.5240   53.5270 N   0  0  0  0  0  0  0  0  0  0  0  0
   40.7650   24.6240   54.2140 C   0  0  0  0  0  0  0  0  0  0  0  0
   41.0540   24.5920   55.2400 H   0  0  0  0  0  0  0  0  0  0  0  0
   40.0720   25.5920   53.5850 N   0  0  0  0  0  0  0  0  0  0  0  0
   39.7980   25.4610   52.2810 C   0  0  0  0  0  0  0  0  0  0  0  0
   41.3240   22.2590   51.4890 N   0  0  0  0  0  0  0  0  0  0  0  0
   42.1800   21.9120   50.9630 H   0  0  0  0  0  0  0  0  0  0  0  0
   40.5270   21.5560   51.5090 H   0  0  0  0  0  0  0  0  0  0  0  0
   35.6130   29.6620   50.8030 C   0  0  0  0  0  0  0  0  0  0  0  0
   34.7470   29.0130   51.0040 H   0  0  0  0  0  0  0  0  0  0  0  0
   35.3860   30.7180   51.1200 H   0  0  0  0  0  0  0  0  0  0  0  0
   38.0010   31.3220   50.0040 Cl  0  0  0  0  0  0  0  0  0  0  0  0
   36.9540   30.4800   48.9270 C   0  0  0  0  0  0  0  0  0  0  0  0
   37.1920   30.5410   47.5620 C   0  0  0  0  0  0  0  0  0  0  0  0
   36.3820   29.8910   46.6630 C   0  0  0  0  0  0  0  0  0  0  0  0
   35.3030   29.1560   47.0990 C   0  0  0  0  0  0  0  0  0  0  0  0
   35.0330   29.0710   48.4500 C   0  0  0  0  0  0  0  0  0  0  0  0
   33.6900   28.1760   49.1360 Cl  0  0  0  0  0  0  0  0  0  0  0  0
   35.8740   29.7400   49.3230 C   0  0  0  0  0  0  0  0  0  0  0  0
   36.6110   29.9710   45.6130 H   0  0  0  0  0  0  0  0  0  0  0  0
   34.6420   28.6320   46.4370 H   0  0  0  0  0  0  0  0  0  0  0  0
   39.5840   33.2640   47.0130 C   0  0  0  0  0  0  0  0  0  0  0  0
   40.5200   32.7040   46.1470 C   0  0  0  0  0  0  0  0  0  0  0  0
   40.3110   31.3570   45.7480 C   0  0  0  0  0  0  0  0  0  0  0  0
   39.2200   30.7190   46.2390 N   0  0  0  0  0  0  0  0  0  0  0  0
   38.3280   31.3110   47.0880 C   0  0  0  0  0  0  0  0  0  0  0  0
   38.5280   32.5750   47.4600 N   0  0  0  0  0  0  0  0  0  0  0  0
   39.7230   34.2900   47.3310 H   0  0  0  0  0  0  0  0  0  0  0  0
   41.3820   33.2360   45.7710 H   0  0  0  0  0  0  0  0  0  0  0  0
   40.9930   30.8510   45.0780 H   0  0  0  0  0  0  0  0  0  0  0  0
  1  2  1  0  0  0  0
  2  3  2  0  0  0  0
  2  7  1  0  0  0  0
  3  4  1  0  0  0  0
  4  8  1  0  0  0  0
  4  5  2  0  0  0  0
  5  9  1  0  0  0  0
  6  5  1  0  0  0  0
  6 10  1  0  0  0  0
  7  6  2  0  0  0  0
 11  7  1  0  0  0  0
 11 21  1  0  0  0  0
 12 14  2  0  0  0  0
 12 11  1  0  0  0  0
 13 12  1  0  0  0  0
 14 15  1  0  0  0  0
 15 16  2  0  0  0  0
 15 21  1  0  0  0  0
 16 17  1  0  0  0  0
 17 18  2  0  0  0  0
 18 19  1  0  0  0  0
 20 18  1  0  0  0  0
 21 20  2  0  0  0  0
 22 24  1  0  0  0  0
 22 16  1  0  0  0  0
 23 22  1  0  0  0  0
 25 26  1  0  0  0  0
 25 27  1  0  0  0  0
 25  3  1  0  0  0  0
 29 35  1  0  0  0  0
 29 28  1  0  0  0  0
 30 29  2  0  0  0  0
 31 32  2  0  0  0  0
 31 30  1  0  0  0  0
 32 33  1  0  0  0  0
 33 34  1  0  0  0  0
 33 35  2  0  0  0  0
 35 25  1  0  0  0  0
 36 31  1  0  0  0  0
 37 32  1  0  0  0  0
 38 44  1  0  0  0  0
 38 43  1  0  0  0  0
 39 38  2  0  0  0  0
 40 39  1  0  0  0  0
 40 41  2  0  0  0  0
 41 42  1  0  0  0  0
 42 43  2  0  0  0  0
 42 30  1  0  0  0  0
 45 39  1  0  0  0  0
 46 40  1  0  0  0  0
M  END
>  <minimizedAffinity>
2.49165463

>  <minimizedRMSD>
2.2345829

$$$$
