
 OpenBabel03272505163D

 47 51  0  0  1  0  0  0  0  0999 V2000
   38.5030   31.8040   44.6810 N   0  0  0  0  0  0  0  0  0  0  0  0
   39.0180   33.0460   45.1890 C   0  0  0  0  0  0  0  0  0  0  0  0
   40.1670   33.4490   44.2770 C   0  0  0  0  0  0  0  0  0  0  0  0
   39.6640   33.4310   42.9440 N   0  0  0  0  0  0  0  0  0  0  0  0
   39.3850   32.1150   42.4800 C   0  0  0  0  0  0  0  0  0  0  0  0
   39.3000   31.1470   43.6450 C   0  0  2  0  0  0  0  0  0  0  0  0
   38.2320   33.8190   45.0830 H   0  0  0  0  0  0  0  0  0  0  0  0
   39.3500   32.9210   46.2330 H   0  0  0  0  0  0  0  0  0  0  0  0
   41.0920   32.9080   44.4560 H   0  0  0  0  0  0  0  0  0  0  0  0
   40.3850   34.5240   44.5400 H   0  0  0  0  0  0  0  0  0  0  0  0
   40.2690   33.9630   42.2730 H   0  0  0  0  0  0  0  0  0  0  0  0
   40.0850   31.7190   41.7150 H   0  0  0  0  0  0  0  0  0  0  0  0
   38.3690   32.0710   41.9870 H   0  0  0  0  0  0  0  0  0  0  0  0
   40.3220   31.0480   44.1010 H   0  0  0  0  0  0  0  0  0  0  0  0
   38.7620   29.8720   43.2480 N   0  0  0  0  0  0  0  0  0  0  0  0
   38.9370   28.7360   43.9450 C   0  0  0  0  0  0  0  0  0  0  0  0
   39.4570   28.5120   44.8660 H   0  0  0  0  0  0  0  0  0  0  0  0
   38.3140   27.7180   43.3190 N   0  0  0  0  0  0  0  0  0  0  0  0
   37.7340   28.1800   42.2180 C   0  0  0  0  0  0  0  0  0  0  0  0
   36.9730   27.6760   41.1810 C   0  0  0  0  0  0  0  0  0  0  0  0
   36.5350   28.4690   40.1840 N   0  0  0  0  0  0  0  0  0  0  0  0
   36.8190   29.7950   40.1540 C   0  0  0  0  0  0  0  0  0  0  0  0
   36.4490   30.4020   39.3380 H   0  0  0  0  0  0  0  0  0  0  0  0
   37.5590   30.2980   41.1590 N   0  0  0  0  0  0  0  0  0  0  0  0
   38.0100   29.5320   42.1640 C   0  0  0  0  0  0  0  0  0  0  0  0
   36.6650   26.2860   41.1950 N   0  0  0  0  0  0  0  0  0  0  0  0
   37.0430   25.3490   40.9800 H   0  0  0  0  0  0  0  0  0  0  0  0
   35.9260   25.5960   41.4280 H   0  0  0  0  0  0  0  0  0  0  0  0
   38.3680   31.2260   47.5780 Cl  0  0  0  0  0  0  0  0  0  0  0  0
   37.1070   30.8240   46.4450 C   0  0  0  0  0  0  0  0  0  0  0  0
   35.9830   30.2160   46.8830 C   0  0  0  0  0  0  0  0  0  0  0  0
   35.0160   29.9520   45.9150 C   0  0  0  0  0  0  0  0  0  0  0  0
   35.1310   30.2580   44.5960 C   0  0  0  0  0  0  0  0  0  0  0  0
   36.2910   30.8760   44.1870 C   0  0  0  0  0  0  0  0  0  0  0  0
   37.2900   31.1660   45.1000 C   0  0  0  0  0  0  0  0  0  0  0  0
   34.0950   29.4600   46.2490 H   0  0  0  0  0  0  0  0  0  0  0  0
   34.3250   30.0140   43.9170 H   0  0  0  0  0  0  0  0  0  0  0  0
   36.4320   31.1380   43.1620 H   0  0  0  0  0  0  0  0  0  0  0  0
   36.7810   29.2280   50.4240 C   0  0  0  0  0  0  0  0  0  0  0  0
   36.9450   29.5450   49.0680 C   0  0  0  0  0  0  0  0  0  0  0  0
   35.8350   29.8750   48.2790 C   0  0  0  0  0  0  0  0  0  0  0  0
   34.6090   29.8700   48.8860 N   0  0  0  0  0  0  0  0  0  0  0  0
   34.4680   29.5620   50.1920 C   0  0  0  0  0  0  0  0  0  0  0  0
   35.5410   29.2420   50.9650 N   0  0  0  0  0  0  0  0  0  0  0  0
   37.5590   28.9660   51.1070 H   0  0  0  0  0  0  0  0  0  0  0  0
   37.9780   29.4530   48.8000 H   0  0  0  0  0  0  0  0  0  0  0  0
   33.4310   29.6110   50.4910 H   0  0  0  0  0  0  0  0  0  0  0  0
  1 35  1  0  0  0  0
  1  2  1  0  0  0  0
  2  8  1  0  0  0  0
  3  9  1  0  0  0  0
  3 10  1  0  0  0  0
  3  2  1  0  0  0  0
  4  3  1  0  0  0  0
  5  4  1  0  0  0  0
  5  6  1  0  0  0  0
  6 14  1  1  0  0  0
  6  1  1  0  0  0  0
  7  2  1  0  0  0  0
 11  4  1  0  0  0  0
 12  5  1  0  0  0  0
 13  5  1  0  0  0  0
 15  6  1  0  0  0  0
 15 16  1  0  0  0  0
 16 17  1  0  0  0  0
 18 16  2  0  0  0  0
 19 18  1  0  0  0  0
 20 26  1  0  0  0  0
 20 19  2  0  0  0  0
 21 20  1  0  0  0  0
 22 21  2  0  0  0  0
 22 24  1  0  0  0  0
 23 22  1  0  0  0  0
 24 25  2  0  0  0  0
 25 19  1  0  0  0  0
 25 15  1  0  0  0  0
 26 28  1  0  0  0  0
 27 26  1  0  0  0  0
 30 31  1  0  0  0  0
 30 29  1  0  0  0  0
 31 41  1  0  0  0  0
 32 36  1  0  0  0  0
 32 31  2  0  0  0  0
 33 32  1  0  0  0  0
 34 33  2  0  0  0  0
 34 35  1  0  0  0  0
 35 30  2  0  0  0  0
 37 33  1  0  0  0  0
 38 34  1  0  0  0  0
 39 44  1  0  0  0  0
 39 45  1  0  0  0  0
 40 39  2  0  0  0  0
 41 42  2  0  0  0  0
 41 40  1  0  0  0  0
 42 43  1  0  0  0  0
 43 47  1  0  0  0  0
 43 44  2  0  0  0  0
 46 40  1  0  0  0  0
M  END
>  <minimizedAffinity>
-5.47752762

>  <minimizedRMSD>
1.6668613

$$$$
