REMARK  Name = 
REMARK  4 active torsions:
REMARK  status: ('A' for Active; 'I' for Inactive)
REMARK    1  A    between atoms: C_2  and  C_11
REMARK    2  A    between atoms: C_14  and  C_16
REMARK    3  A    between atoms: C_16  and  N_26
REMARK    4  A    between atoms: C_31  and  N_32
REMARK                            x       y       z     vdW  Elec       q    Type
REMARK                         _______ _______ _______ _____ _____    ______ ____
ROOT
ATOM      1  C   UNL     1      35.625  29.337  48.740  0.00  0.00    +0.000 A 
ATOM      2  C   UNL     1      35.584  30.071  47.518  0.00  0.00    +0.000 A 
ATOM      3  C   UNL     1      34.454  29.930  46.720  0.00  0.00    +0.000 A 
ATOM      4  N   UNL     1      33.466  29.108  47.151  0.00  0.00    +0.000 NA
ATOM      5  C   UNL     1      33.519  28.424  48.304  0.00  0.00    +0.000 A 
ATOM      6  N   UNL     1      34.604  28.544  49.093  0.00  0.00    +0.000 NA
ATOM      7  H   UNL     1      36.399  29.306  49.487  0.00  0.00    +0.000 HD
ATOM      8  H   UNL     1      34.478  30.496  45.828  0.00  0.00    +0.000 HD
ENDROOT
BRANCH   2  10
ATOM      9  C   UNL     1      37.469  31.351  48.362  0.00  0.00    +0.000 A 
ATOM     10  C   UNL     1      36.761  30.882  47.279  0.00  0.00    +0.000 A 
ATOM     11  C   UNL     1      37.227  31.218  46.012  0.00  0.00    +0.000 A 
ATOM     12  C   UNL     1      38.375  32.005  45.900  0.00  0.00    +0.000 A 
ATOM     13  N   UNL     1      39.051  32.483  44.839  0.00  0.00    +0.000 N 
ATOM     14  C   UNL     1      40.108  33.199  45.260  0.00  0.00    +0.000 A 
ATOM     15  N   UNL     1      40.113  33.183  46.621  0.00  0.00    +0.000 NA
ATOM     16  C   UNL     1      39.055  32.455  46.999  0.00  0.00    +0.000 A 
ATOM     17  C   UNL     1      38.602  32.127  48.241  0.00  0.00    +0.000 A 
ATOM     18  H   UNL     1      37.204  31.158  49.415  0.00  0.00    +0.000 HD
ATOM     19  H   UNL     1      36.694  30.866  45.163  0.00  0.00    +0.000 HD
ATOM     20  H   UNL     1      38.748  32.289  43.861  0.00  0.00    +0.000 HD
ATOM     21  H   UNL     1      40.804  33.685  44.577  0.00  0.00    +0.000 HD
ATOM     22  H   UNL     1      39.163  32.499  49.114  0.00  0.00    +0.000 HD
ENDBRANCH   2  10
BRANCH   5  23
ATOM     23  C   UNL     1      32.363  27.551  48.665  0.00  0.00    +0.000 C 
ATOM     24  H   UNL     1      32.361  27.509  49.782  0.00  0.00    +0.000 HD
ATOM     25  H   UNL     1      31.401  27.992  48.387  0.00  0.00    +0.000 HD
BRANCH  23  26
ATOM     26  N   UNL     1      32.571  26.227  48.139  0.00  0.00    +0.000 N 
ATOM     27  C   UNL     1      33.646  25.416  48.132  0.00  0.00    +0.000 A 
ATOM     28  H   UNL     1      34.574  25.741  48.587  0.00  0.00    +0.000 HD
ATOM     29  N   UNL     1      33.303  24.267  47.501  0.00  0.00    +0.000 NA
ATOM     30  C   UNL     1      32.036  24.340  47.112  0.00  0.00    +0.000 A 
ATOM     31  C   UNL     1      31.242  23.417  46.432  0.00  0.00    +0.000 A 
ATOM     32  N   UNL     1      29.964  23.773  46.167  0.00  0.00    +0.000 NA
ATOM     33  C   UNL     1      29.505  24.993  46.563  0.00  0.00    +0.000 A 
ATOM     34  H   UNL     1      28.489  25.312  46.369  0.00  0.00    +0.000 HD
ATOM     35  N   UNL     1      30.262  25.890  47.219  0.00  0.00    +0.000 NA
ATOM     36  C   UNL     1      31.556  25.578  47.509  0.00  0.00    +0.000 A 
BRANCH  31  37
ATOM     37  N   UNL     1      31.749  22.143  46.028  0.00  0.00    +0.000 N 
ATOM     38  H   UNL     1      31.106  21.416  46.455  0.00  0.00    +0.000 HD
ATOM     39  H   UNL     1      32.603  22.070  45.422  0.00  0.00    +0.000 HD
ENDBRANCH  31  37
ENDBRANCH  23  26
ENDBRANCH   5  23
TORSDOF 4
