
 OpenBabel03272501433D

 39 43  0  0  0  0  0  0  0  0999 V2000
   35.6510   29.2330   48.8090 C   0  0  0  0  0  0  0  0  0  0  0  0
   35.5500   30.0950   47.6780 C   0  0  0  0  0  0  0  0  0  0  0  0
   34.3610   30.0740   46.9560 C   0  0  0  0  0  0  0  0  0  0  0  0
   33.3770   29.2390   47.3710 N   0  0  0  0  0  0  0  0  0  0  0  0
   33.4870   28.4340   48.4390 C   0  0  0  0  0  0  0  0  0  0  0  0
   34.6290   28.4370   49.1520 N   0  0  0  0  0  0  0  0  0  0  0  0
   36.4740   29.1000   49.4890 H   0  0  0  0  0  0  0  0  0  0  0  0
   34.3420   30.7320   46.1300 H   0  0  0  0  0  0  0  0  0  0  0  0
   37.4150   31.4060   48.5200 C   0  0  0  0  0  0  0  0  0  0  0  0
   36.7360   30.8930   47.4380 C   0  0  0  0  0  0  0  0  0  0  0  0
   37.2380   31.1740   46.1720 C   0  0  0  0  0  0  0  0  0  0  0  0
   38.3920   31.9530   46.0590 C   0  0  0  0  0  0  0  0  0  0  0  0
   39.0990   32.3840   44.9990 N   0  0  0  0  0  0  0  0  0  0  0  0
   40.1460   33.1150   45.4190 C   0  0  0  0  0  0  0  0  0  0  0  0
   40.1130   33.1570   46.7790 N   0  0  0  0  0  0  0  0  0  0  0  0
   39.0420   32.4480   47.1570 C   0  0  0  0  0  0  0  0  0  0  0  0
   38.5530   32.1730   48.3990 C   0  0  0  0  0  0  0  0  0  0  0  0
   37.1190   31.2580   49.5720 H   0  0  0  0  0  0  0  0  0  0  0  0
   36.7280   30.7880   45.3240 H   0  0  0  0  0  0  0  0  0  0  0  0
   38.8230   32.1500   44.0220 H   0  0  0  0  0  0  0  0  0  0  0  0
   40.8630   33.5700   44.7360 H   0  0  0  0  0  0  0  0  0  0  0  0
   39.0910   32.5810   49.2710 H   0  0  0  0  0  0  0  0  0  0  0  0
   32.3280   27.5610   48.7910 C   0  0  0  0  0  0  0  0  0  0  0  0
   32.7270   26.8250   49.5320 H   0  0  0  0  0  0  0  0  0  0  0  0
   31.5370   28.1050   49.3160 H   0  0  0  0  0  0  0  0  0  0  0  0
   31.8740   26.8590   47.6190 N   0  0  0  0  0  0  0  0  0  0  0  0
   30.7620   26.9770   46.8700 C   0  0  0  0  0  0  0  0  0  0  0  0
   30.0100   27.7140   47.1270 H   0  0  0  0  0  0  0  0  0  0  0  0
   30.8290   26.0660   45.8690 N   0  0  0  0  0  0  0  0  0  0  0  0
   31.9600   25.3800   45.9750 C   0  0  0  0  0  0  0  0  0  0  0  0
   32.4710   24.3480   45.1860 C   0  0  0  0  0  0  0  0  0  0  0  0
   33.6700   23.8320   45.5410 N   0  0  0  0  0  0  0  0  0  0  0  0
   34.3240   24.3240   46.6300 C   0  0  0  0  0  0  0  0  0  0  0  0
   35.2850   23.9360   46.9430 H   0  0  0  0  0  0  0  0  0  0  0  0
   33.8400   25.3170   47.3950 N   0  0  0  0  0  0  0  0  0  0  0  0
   32.6360   25.8710   47.0790 C   0  0  0  0  0  0  0  0  0  0  0  0
   31.7630   23.8510   44.0480 N   0  0  0  0  0  0  0  0  0  0  0  0
   32.4220   23.9430   43.2220 H   0  0  0  0  0  0  0  0  0  0  0  0
   30.7830   23.4890   44.1390 H   0  0  0  0  0  0  0  0  0  0  0  0
  1  6  1  0  0  0  0
  1  7  1  0  0  0  0
  2  1  2  0  0  0  0
  3  4  2  0  0  0  0
  3  2  1  0  0  0  0
  4  5  1  0  0  0  0
  5 23  1  0  0  0  0
  5  6  2  0  0  0  0
  8  3  1  0  0  0  0
  9 18  1  0  0  0  0
 10  2  1  0  0  0  0
 10  9  2  0  0  0  0
 11 10  1  0  0  0  0
 12 11  2  0  0  0  0
 12 16  1  0  0  0  0
 13 14  1  0  0  0  0
 13 12  1  0  0  0  0
 14 15  2  0  0  0  0
 15 16  1  0  0  0  0
 16 17  2  0  0  0  0
 17  9  1  0  0  0  0
 17 22  1  0  0  0  0
 19 11  1  0  0  0  0
 20 13  1  0  0  0  0
 21 14  1  0  0  0  0
 23 25  1  0  0  0  0
 23 24  1  0  0  0  0
 26 23  1  0  0  0  0
 27 28  1  0  0  0  0
 27 26  1  0  0  0  0
 29 30  1  0  0  0  0
 29 27  2  0  0  0  0
 30 36  1  0  0  0  0
 31 32  1  0  0  0  0
 31 30  2  0  0  0  0
 32 33  2  0  0  0  0
 33 34  1  0  0  0  0
 33 35  1  0  0  0  0
 36 35  2  0  0  0  0
 36 26  1  0  0  0  0
 37 39  1  0  0  0  0
 37 31  1  0  0  0  0
 38 37  1  0  0  0  0
M  END
>  <minimizedAffinity>
-5.47360182

>  <minimizedRMSD>
1.54185295

$$$$
