
 OpenBabel03272501433D

 39 43  0  0  0  0  0  0  0  0999 V2000
   35.6340   29.3040   48.7900 C   0  0  0  0  0  0  0  0  0  0  0  0
   35.5370   30.0830   47.5990 C   0  0  0  0  0  0  0  0  0  0  0  0
   34.3530   30.0040   46.8740 C   0  0  0  0  0  0  0  0  0  0  0  0
   33.3690   29.1980   47.3420 N   0  0  0  0  0  0  0  0  0  0  0  0
   33.4750   28.4710   48.4650 C   0  0  0  0  0  0  0  0  0  0  0  0
   34.6130   28.5300   49.1830 N   0  0  0  0  0  0  0  0  0  0  0  0
   36.4540   29.2230   49.4830 H   0  0  0  0  0  0  0  0  0  0  0  0
   34.3370   30.6010   46.0020 H   0  0  0  0  0  0  0  0  0  0  0  0
   37.4530   31.3670   48.3620 C   0  0  0  0  0  0  0  0  0  0  0  0
   36.7210   30.8660   47.3100 C   0  0  0  0  0  0  0  0  0  0  0  0
   37.1720   31.1440   46.0240 C   0  0  0  0  0  0  0  0  0  0  0  0
   38.3290   31.9090   45.8630 C   0  0  0  0  0  0  0  0  0  0  0  0
   38.9950   32.3350   44.7730 N   0  0  0  0  0  0  0  0  0  0  0  0
   40.0680   33.0510   45.1490 C   0  0  0  0  0  0  0  0  0  0  0  0
   40.0950   33.0890   46.5090 N   0  0  0  0  0  0  0  0  0  0  0  0
   39.0330   32.3920   46.9320 C   0  0  0  0  0  0  0  0  0  0  0  0
   38.5950   32.1200   48.1930 C   0  0  0  0  0  0  0  0  0  0  0  0
   37.2030   31.2190   49.4260 H   0  0  0  0  0  0  0  0  0  0  0  0
   36.6200   30.7670   45.1980 H   0  0  0  0  0  0  0  0  0  0  0  0
   38.6730   32.1070   43.8080 H   0  0  0  0  0  0  0  0  0  0  0  0
   40.7600   33.4990   44.4360 H   0  0  0  0  0  0  0  0  0  0  0  0
   39.1760   32.5180   49.0420 H   0  0  0  0  0  0  0  0  0  0  0  0
   32.3180   27.6210   48.8720 C   0  0  0  0  0  0  0  0  0  0  0  0
   32.6070   27.1790   49.8570 H   0  0  0  0  0  0  0  0  0  0  0  0
   31.4150   28.2070   49.0690 H   0  0  0  0  0  0  0  0  0  0  0  0
   32.1290   26.5650   47.9120 N   0  0  0  0  0  0  0  0  0  0  0  0
   32.9870   25.6970   47.3430 C   0  0  0  0  0  0  0  0  0  0  0  0
   34.0390   25.7280   47.5990 H   0  0  0  0  0  0  0  0  0  0  0  0
   32.2860   24.9020   46.4990 N   0  0  0  0  0  0  0  0  0  0  0  0
   31.0060   25.2540   46.5260 C   0  0  0  0  0  0  0  0  0  0  0  0
   29.9090   24.7370   45.8380 C   0  0  0  0  0  0  0  0  0  0  0  0
   28.7030   25.3060   46.0710 N   0  0  0  0  0  0  0  0  0  0  0  0
   28.6030   26.3410   46.9510 C   0  0  0  0  0  0  0  0  0  0  0  0
   27.6570   26.8210   47.1630 H   0  0  0  0  0  0  0  0  0  0  0  0
   29.6550   26.8470   47.6190 N   0  0  0  0  0  0  0  0  0  0  0  0
   30.8890   26.3080   47.4190 C   0  0  0  0  0  0  0  0  0  0  0  0
   30.0430   23.6490   44.9200 N   0  0  0  0  0  0  0  0  0  0  0  0
   29.3780   22.8930   45.2530 H   0  0  0  0  0  0  0  0  0  0  0  0
   30.7070   23.7050   44.1090 H   0  0  0  0  0  0  0  0  0  0  0  0
  1  6  1  0  0  0  0
  1  7  1  0  0  0  0
  2  1  2  0  0  0  0
  3  4  2  0  0  0  0
  3  2  1  0  0  0  0
  4  5  1  0  0  0  0
  5 23  1  0  0  0  0
  5  6  2  0  0  0  0
  8  3  1  0  0  0  0
  9 18  1  0  0  0  0
 10  2  1  0  0  0  0
 10  9  2  0  0  0  0
 11 10  1  0  0  0  0
 12 11  2  0  0  0  0
 12 16  1  0  0  0  0
 13 14  1  0  0  0  0
 13 12  1  0  0  0  0
 14 15  2  0  0  0  0
 15 16  1  0  0  0  0
 16 17  2  0  0  0  0
 17  9  1  0  0  0  0
 17 22  1  0  0  0  0
 19 11  1  0  0  0  0
 20 13  1  0  0  0  0
 21 14  1  0  0  0  0
 23 25  1  0  0  0  0
 23 24  1  0  0  0  0
 26 23  1  0  0  0  0
 27 28  1  0  0  0  0
 27 26  1  0  0  0  0
 29 30  1  0  0  0  0
 29 27  2  0  0  0  0
 30 36  1  0  0  0  0
 31 32  1  0  0  0  0
 31 30  2  0  0  0  0
 32 33  2  0  0  0  0
 33 34  1  0  0  0  0
 33 35  1  0  0  0  0
 36 35  2  0  0  0  0
 36 26  1  0  0  0  0
 37 38  1  0  0  0  0
 37 31  1  0  0  0  0
 39 37  1  0  0  0  0
M  END
>  <minimizedAffinity>
-5.90121937

>  <minimizedRMSD>
1.09019458

$$$$
