
     RDKit          3D

 47 51  0  0  0  0  0  0  0  0999 V2000
   38.2485   31.0181   47.8338 Cl  0  0  0  0  0  0  0  0  0  0  0  0
   36.9860   30.6082   46.7045 C   0  0  0  0  0  0  0  0  0  0  0  0
   35.8320   30.0702   47.1581 C   0  0  0  0  0  0  0  0  0  0  0  0
   34.8669   29.7943   46.1910 C   0  0  0  0  0  0  0  0  0  0  0  0
   35.0105   30.0251   44.8603 C   0  0  0  0  0  0  0  0  0  0  0  0
   36.2009   30.5732   44.4356 C   0  0  0  0  0  0  0  0  0  0  0  0
   37.1988   30.8702   45.3472 C   0  0  0  0  0  0  0  0  0  0  0  0
   36.5261   29.1425   50.7366 C   0  0  0  0  0  0  0  0  0  0  0  0
   36.7179   29.3777   49.3694 C   0  0  0  0  0  0  0  0  0  0  0  0
   35.6523   29.8096   48.5681 C   0  0  0  0  0  0  0  0  0  0  0  0
   34.4402   29.9834   49.1759 N   0  0  0  0  0  0  0  0  0  0  0  0
   34.2697   29.7511   50.4948 C   0  0  0  0  0  0  0  0  0  0  0  0
   35.3010   29.3333   51.2793 N   0  0  0  0  0  0  0  0  0  0  0  0
   38.4430   31.4350   44.9125 N   0  0  0  0  0  0  0  0  0  0  0  0
   38.7457   32.8384   44.8341 C   0  0  0  0  0  0  0  0  0  0  0  0
   40.0653   32.9593   44.0836 C   0  0  0  0  0  0  0  0  0  0  0  0
   39.9146   32.2388   42.8643 N   0  0  0  0  0  0  0  0  0  0  0  0
   39.8321   30.8320   43.0618 C   0  0  0  0  0  0  0  0  0  0  0  0
   39.5087   30.5185   44.5109 C   0  0  2  0  0  0  0  0  0  0  0  0
   33.9228   29.3582   46.5373 H   0  0  0  0  0  0  0  0  0  0  0  0
   34.2050   29.7783   44.1833 H   0  0  0  0  0  0  0  0  0  0  0  0
   36.3660   30.7744   43.4011 H   0  0  0  0  0  0  0  0  0  0  0  0
   37.2697   28.8152   51.4302 H   0  0  0  0  0  0  0  0  0  0  0  0
   37.7301   29.1472   49.1035 H   0  0  0  0  0  0  0  0  0  0  0  0
   33.2496   29.9410   50.7929 H   0  0  0  0  0  0  0  0  0  0  0  0
   37.9719   33.3284   44.2115 H   0  0  0  0  0  0  0  0  0  0  0  0
   38.8106   33.2696   45.8460 H   0  0  0  0  0  0  0  0  0  0  0  0
   40.9423   32.7282   44.6824 H   0  0  0  0  0  0  0  0  0  0  0  0
   40.1510   34.0525   43.8216 H   0  0  0  0  0  0  0  0  0  0  0  0
   40.6398   32.4926   42.1501 H   0  0  0  0  0  0  0  0  0  0  0  0
   40.7225   30.2508   42.7427 H   0  0  0  0  0  0  0  0  0  0  0  0
   38.9769   30.3943   42.4680 H   0  0  0  0  0  0  0  0  0  0  0  0
   40.3871   30.8155   45.1449 H   0  0  0  0  0  0  0  0  0  0  0  0
   39.1566   29.1337   44.6964 N   0  0  0  0  0  0  0  0  0  0  0  0
   39.3064   28.4726   45.8564 C   0  0  0  0  0  0  0  0  0  0  0  0
   39.6806   28.7668   46.8266 H   0  0  0  0  0  0  0  0  0  0  0  0
   38.8891   27.1996   45.7111 N   0  0  0  0  0  0  0  0  0  0  0  0
   38.4677   27.0242   44.4642 C   0  0  0  0  0  0  0  0  0  0  0  0
   37.9407   25.9990   43.7038 C   0  0  0  0  0  0  0  0  0  0  0  0
   37.7543   24.7337   44.3292 N   0  0  0  0  0  0  0  0  0  0  0  0
   38.2415   23.8697   44.6186 H   0  0  0  0  0  0  0  0  0  0  0  0
   37.6116   26.1842   42.4105 N   0  0  0  0  0  0  0  0  0  0  0  0
   37.7821   27.3822   41.7981 C   0  0  0  0  0  0  0  0  0  0  0  0
   37.5064   27.4940   40.7581 H   0  0  0  0  0  0  0  0  0  0  0  0
   38.2948   28.3895   42.5285 N   0  0  0  0  0  0  0  0  0  0  0  0
   38.6315   28.2334   43.8182 C   0  0  0  0  0  0  0  0  0  0  0  0
   37.0478   24.1161   44.7723 H   0  0  0  0  0  0  0  0  0  0  0  0
  2  3  2  0
  2  1  1  0
  3 10  1  0
  4  3  1  0
  5  4  2  0
  6  5  1  0
  6  7  2  0
  7  2  1  0
  8 13  2  0
  9  8  1  0
 10 11  1  0
 10  9  2  0
 11 12  2  0
 12 13  1  0
 14  7  1  0
 15 14  1  0
 16 15  1  0
 17 18  1  0
 17 16  1  0
 18 19  1  0
 19 14  1  0
  4 20  1  0
  5 21  1  0
  6 22  1  0
  8 23  1  0
  9 24  1  0
 12 25  1  0
 15 26  1  0
 15 27  1  0
 16 28  1  0
 16 29  1  0
 17 30  1  0
 18 31  1  0
 18 32  1  0
 19 33  1  1
 34 35  1  0
 35 36  1  0
 35 37  2  0
 37 38  1  0
 38 39  2  0
 39 40  1  0
 40 41  1  0
 39 42  1  0
 42 43  2  0
 43 44  1  0
 43 45  1  0
 45 46  2  0
 46 34  1  0
 46 38  1  0
 40 47  1  0
 19 34  1  0
M  ISO  8  20  14  21  14  22  14  23  14  24  14  25  14  26  13  27  13
M  ISO  8  28  13  29  13  30   5  31  13  32  13  33  13  36  15  41   5
M  ISO  1  44  16
M  END
>  <DihAtoms>  (1) 
17,18,33,34

>  <DihDeg>  (1) 
-40.68483254809642

$$$$
