
 OpenBabel03272505173D

 47 51  0  0  1  0  0  0  0  0999 V2000
   39.6000   23.3700   32.0040 N   0  0  0  0  0  0  0  0  0  0  0  0
   39.9050   23.1870   30.6110 C   0  0  0  0  0  0  0  0  0  0  0  0
   39.4280   21.7900   30.2400 C   0  0  0  0  0  0  0  0  0  0  0  0
   38.0640   21.6980   30.6420 N   0  0  0  0  0  0  0  0  0  0  0  0
   37.9080   21.6820   32.0560 C   0  0  0  0  0  0  0  0  0  0  0  0
   39.1700   22.1800   32.7360 C   0  0  2  0  0  0  0  0  0  0  0  0
   39.3000   23.9040   30.0240 H   0  0  0  0  0  0  0  0  0  0  0  0
   40.9870   23.3070   30.4400 H   0  0  0  0  0  0  0  0  0  0  0  0
   40.0870   20.9910   30.5650 H   0  0  0  0  0  0  0  0  0  0  0  0
   39.4490   21.7660   29.1120 H   0  0  0  0  0  0  0  0  0  0  0  0
   37.5570   20.9040   30.1820 H   0  0  0  0  0  0  0  0  0  0  0  0
   37.6080   20.7060   32.4930 H   0  0  0  0  0  0  0  0  0  0  0  0
   37.0970   22.4000   32.3780 H   0  0  0  0  0  0  0  0  0  0  0  0
   39.9890   21.4320   32.5590 H   0  0  0  0  0  0  0  0  0  0  0  0
   38.9630   22.4290   34.1390 N   0  0  0  0  0  0  0  0  0  0  0  0
   37.8120   22.8910   34.6550 C   0  0  0  0  0  0  0  0  0  0  0  0
   36.8640   23.1610   34.2110 H   0  0  0  0  0  0  0  0  0  0  0  0
   37.9310   23.0190   35.9910 N   0  0  0  0  0  0  0  0  0  0  0  0
   39.1520   22.6430   36.3520 C   0  0  0  0  0  0  0  0  0  0  0  0
   39.8810   22.5390   37.5210 C   0  0  0  0  0  0  0  0  0  0  0  0
   41.1540   22.0990   37.5160 N   0  0  0  0  0  0  0  0  0  0  0  0
   41.7770   21.7390   36.3670 C   0  0  0  0  0  0  0  0  0  0  0  0
   42.8000   21.3890   36.4010 H   0  0  0  0  0  0  0  0  0  0  0  0
   41.0780   21.8350   35.2210 N   0  0  0  0  0  0  0  0  0  0  0  0
   39.8090   22.2700   35.1960 C   0  0  0  0  0  0  0  0  0  0  0  0
   39.2440   22.9130   38.7390 N   0  0  0  0  0  0  0  0  0  0  0  0
   38.9800   23.7220   39.3240 H   0  0  0  0  0  0  0  0  0  0  0  0
   38.7610   22.5410   39.5780 H   0  0  0  0  0  0  0  0  0  0  0  0
   37.2190   25.1010   31.7250 Cl  0  0  0  0  0  0  0  0  0  0  0  0
   38.6260   25.5240   32.6600 C   0  0  0  0  0  0  0  0  0  0  0  0
   38.6630   26.7050   33.3160 C   0  0  0  0  0  0  0  0  0  0  0  0
   39.8150   26.9540   34.0600 C   0  0  0  0  0  0  0  0  0  0  0  0
   40.8730   26.1080   34.1620 C   0  0  0  0  0  0  0  0  0  0  0  0
   40.8000   24.9140   33.4790 C   0  0  0  0  0  0  0  0  0  0  0  0
   39.6820   24.6080   32.7230 C   0  0  0  0  0  0  0  0  0  0  0  0
   39.8660   27.9060   34.6000 H   0  0  0  0  0  0  0  0  0  0  0  0
   41.7270   26.3870   34.7640 H   0  0  0  0  0  0  0  0  0  0  0  0
   41.6030   24.2140   33.5250 H   0  0  0  0  0  0  0  0  0  0  0  0
   35.6550   28.7790   34.2150 C   0  0  0  0  0  0  0  0  0  0  0  0
   36.7190   27.8720   34.3220 C   0  0  0  0  0  0  0  0  0  0  0  0
   37.5540   27.6270   33.2230 C   0  0  0  0  0  0  0  0  0  0  0  0
   37.2820   28.3000   32.0650 N   0  0  0  0  0  0  0  0  0  0  0  0
   36.2530   29.1690   31.9760 C   0  0  0  0  0  0  0  0  0  0  0  0
   35.4390   29.4140   33.0400 N   0  0  0  0  0  0  0  0  0  0  0  0
   34.9670   29.0360   34.9900 H   0  0  0  0  0  0  0  0  0  0  0  0
   36.7250   27.4390   35.3020 H   0  0  0  0  0  0  0  0  0  0  0  0
   36.1950   29.6010   30.9890 H   0  0  0  0  0  0  0  0  0  0  0  0
  1 35  1  0  0  0  0
  1  6  1  0  0  0  0
  2  1  1  0  0  0  0
  3  9  1  0  0  0  0
  3  2  1  0  0  0  0
  3  4  1  0  0  0  0
  4  5  1  0  0  0  0
  5 13  1  0  0  0  0
  5 12  1  0  0  0  0
  5  6  1  0  0  0  0
  6 14  1  6  0  0  0
  6 15  1  0  0  0  0
  7  2  1  0  0  0  0
  8  2  1  0  0  0  0
 10  3  1  0  0  0  0
 11  4  1  0  0  0  0
 15 16  1  0  0  0  0
 15 25  1  0  0  0  0
 16 18  2  0  0  0  0
 17 16  1  0  0  0  0
 18 19  1  0  0  0  0
 19 20  1  0  0  0  0
 20 26  1  0  0  0  0
 21 20  2  0  0  0  0
 22 23  1  0  0  0  0
 22 21  1  0  0  0  0
 24 22  2  0  0  0  0
 25 24  1  0  0  0  0
 25 19  2  0  0  0  0
 26 27  1  0  0  0  0
 26 28  1  0  0  0  0
 29 30  1  0  0  0  0
 30 35  2  0  0  0  0
 30 31  1  0  0  0  0
 31 32  2  0  0  0  0
 32 33  1  0  0  0  0
 32 36  1  0  0  0  0
 33 37  1  0  0  0  0
 34 38  1  0  0  0  0
 34 33  2  0  0  0  0
 35 34  1  0  0  0  0
 39 40  1  0  0  0  0
 39 45  1  0  0  0  0
 40 46  1  0  0  0  0
 41 31  1  0  0  0  0
 41 40  2  0  0  0  0
 42 41  1  0  0  0  0
 43 42  2  0  0  0  0
 43 44  1  0  0  0  0
 44 39  2  0  0  0  0
 47 43  1  0  0  0  0
M  END
>  <minimizedAffinity>
-6.01095486

$$$$

 OpenBabel03272505173D

 47 51  0  0  1  0  0  0  0  0999 V2000
   37.0760   27.0920   32.2010 N   0  0  0  0  0  0  0  0  0  0  0  0
   35.9200   27.8770   32.5400 C   0  0  0  0  0  0  0  0  0  0  0  0
   36.0540   29.1970   31.7930 C   0  0  0  0  0  0  0  0  0  0  0  0
   36.2630   28.8760   30.4210 N   0  0  0  0  0  0  0  0  0  0  0  0
   37.5370   28.2870   30.1820 C   0  0  0  0  0  0  0  0  0  0  0  0
   38.1420   27.7860   31.4800 C   0  0  2  0  0  0  0  0  0  0  0  0
   35.0220   27.3670   32.1420 H   0  0  0  0  0  0  0  0  0  0  0  0
   35.8710   28.0300   33.6310 H   0  0  0  0  0  0  0  0  0  0  0  0
   36.7520   29.8960   32.2420 H   0  0  0  0  0  0  0  0  0  0  0  0
   35.0380   29.6810   31.8740 H   0  0  0  0  0  0  0  0  0  0  0  0
   36.0790   29.6860   29.7810 H   0  0  0  0  0  0  0  0  0  0  0  0
   38.2690   28.9310   29.6520 H   0  0  0  0  0  0  0  0  0  0  0  0
   37.4380   27.3700   29.5300 H   0  0  0  0  0  0  0  0  0  0  0  0
   38.3850   28.6720   32.1260 H   0  0  0  0  0  0  0  0  0  0  0  0
   39.2960   26.9560   31.2510 N   0  0  0  0  0  0  0  0  0  0  0  0
   39.4400   26.1540   30.1820 C   0  0  0  0  0  0  0  0  0  0  0  0
   38.8120   25.9500   29.3260 H   0  0  0  0  0  0  0  0  0  0  0  0
   40.6220   25.5100   30.2520 N   0  0  0  0  0  0  0  0  0  0  0  0
   41.2500   25.8840   31.3600 C   0  0  0  0  0  0  0  0  0  0  0  0
   42.4460   25.6080   31.9930 C   0  0  0  0  0  0  0  0  0  0  0  0
   42.7740   26.1980   33.1590 N   0  0  0  0  0  0  0  0  0  0  0  0
   41.9470   27.0880   33.7630 C   0  0  0  0  0  0  0  0  0  0  0  0
   42.2430   27.5430   34.6980 H   0  0  0  0  0  0  0  0  0  0  0  0
   40.7790   27.3650   33.1550 N   0  0  0  0  0  0  0  0  0  0  0  0
   40.4260   26.7920   31.9940 C   0  0  0  0  0  0  0  0  0  0  0  0
   43.3280   24.6760   31.3760 N   0  0  0  0  0  0  0  0  0  0  0  0
   43.5090   23.6690   31.2390 H   0  0  0  0  0  0  0  0  0  0  0  0
   44.1790   24.5940   30.7880 H   0  0  0  0  0  0  0  0  0  0  0  0
   38.1050   26.5770   34.9250 Cl  0  0  0  0  0  0  0  0  0  0  0  0
   37.7630   25.3270   33.7600 C   0  0  0  0  0  0  0  0  0  0  0  0
   37.9630   24.0320   34.0900 C   0  0  0  0  0  0  0  0  0  0  0  0
   37.6430   23.0960   33.1090 C   0  0  0  0  0  0  0  0  0  0  0  0
   37.1560   23.3970   31.8770 C   0  0  0  0  0  0  0  0  0  0  0  0
   36.9660   24.7270   31.5760 C   0  0  0  0  0  0  0  0  0  0  0  0
   37.2650   25.7050   32.5080 C   0  0  0  0  0  0  0  0  0  0  0  0
   37.7970   22.0400   33.3560 H   0  0  0  0  0  0  0  0  0  0  0  0
   36.9350   22.6010   31.1790 H   0  0  0  0  0  0  0  0  0  0  0  0
   36.5860   25.0180   30.6220 H   0  0  0  0  0  0  0  0  0  0  0  0
   40.3140   22.9920   36.8370 C   0  0  0  0  0  0  0  0  0  0  0  0
   39.8250   23.3160   35.5650 C   0  0  0  0  0  0  0  0  0  0  0  0
   38.4840   23.6830   35.3930 C   0  0  0  0  0  0  0  0  0  0  0  0
   37.6910   23.7050   36.5060 N   0  0  0  0  0  0  0  0  0  0  0  0
   38.1760   23.3890   37.7260 C   0  0  0  0  0  0  0  0  0  0  0  0
   39.4780   23.0340   37.9010 N   0  0  0  0  0  0  0  0  0  0  0  0
   41.3150   22.7040   37.0730 H   0  0  0  0  0  0  0  0  0  0  0  0
   40.6060   23.2000   34.8400 H   0  0  0  0  0  0  0  0  0  0  0  0
   37.4060   23.4620   38.4790 H   0  0  0  0  0  0  0  0  0  0  0  0
  1 35  1  0  0  0  0
  1  2  1  0  0  0  0
  2  8  1  0  0  0  0
  3 10  1  0  0  0  0
  3  9  1  0  0  0  0
  3  2  1  0  0  0  0
  4  3  1  0  0  0  0
  5  4  1  0  0  0  0
  5  6  1  0  0  0  0
  6 14  1  1  0  0  0
  6  1  1  0  0  0  0
  7  2  1  0  0  0  0
 11  4  1  0  0  0  0
 12  5  1  0  0  0  0
 13  5  1  0  0  0  0
 15  6  1  0  0  0  0
 15 25  1  0  0  0  0
 16 18  2  0  0  0  0
 16 15  1  0  0  0  0
 17 16  1  0  0  0  0
 18 19  1  0  0  0  0
 19 20  2  0  0  0  0
 19 25  1  0  0  0  0
 20 21  1  0  0  0  0
 21 22  2  0  0  0  0
 22 23  1  0  0  0  0
 24 22  1  0  0  0  0
 25 24  2  0  0  0  0
 26 20  1  0  0  0  0
 27 26  1  0  0  0  0
 28 26  1  0  0  0  0
 30 31  1  0  0  0  0
 30 29  1  0  0  0  0
 31 41  1  0  0  0  0
 32 36  1  0  0  0  0
 32 31  2  0  0  0  0
 33 32  1  0  0  0  0
 34 33  2  0  0  0  0
 34 35  1  0  0  0  0
 35 30  2  0  0  0  0
 37 33  1  0  0  0  0
 38 34  1  0  0  0  0
 39 45  1  0  0  0  0
 39 44  1  0  0  0  0
 40 39  2  0  0  0  0
 41 40  1  0  0  0  0
 41 42  2  0  0  0  0
 42 43  1  0  0  0  0
 43 44  2  0  0  0  0
 43 47  1  0  0  0  0
 46 40  1  0  0  0  0
M  END
>  <minimizedAffinity>
-5.5868001

$$$$

 OpenBabel03272505173D

 47 51  0  0  1  0  0  0  0  0999 V2000
   40.2840   24.2340   35.4440 N   0  0  0  0  0  0  0  0  0  0  0  0
   40.9980   23.1100   35.9850 C   0  0  0  0  0  0  0  0  0  0  0  0
   40.0170   22.3530   36.8700 C   0  0  0  0  0  0  0  0  0  0  0  0
   38.8620   22.0920   36.0780 N   0  0  0  0  0  0  0  0  0  0  0  0
   38.1210   23.2700   35.7800 C   0  0  0  0  0  0  0  0  0  0  0  0
   38.9680   24.5060   36.0220 C   0  0  2  0  0  0  0  0  0  0  0  0
   41.2710   22.4350   35.1510 H   0  0  0  0  0  0  0  0  0  0  0  0
   41.8770   23.4560   36.5540 H   0  0  0  0  0  0  0  0  0  0  0  0
   39.8490   22.8090   37.8420 H   0  0  0  0  0  0  0  0  0  0  0  0
   40.5160   21.3630   37.0760 H   0  0  0  0  0  0  0  0  0  0  0  0
   38.2550   21.3380   36.4810 H   0  0  0  0  0  0  0  0  0  0  0  0
   37.1510   23.3720   36.3090 H   0  0  0  0  0  0  0  0  0  0  0  0
   37.8530   23.3070   34.6830 H   0  0  0  0  0  0  0  0  0  0  0  0
   39.1610   24.5950   37.1250 H   0  0  0  0  0  0  0  0  0  0  0  0
   38.3540   25.6930   35.4860 N   0  0  0  0  0  0  0  0  0  0  0  0
   38.3660   26.8860   36.1040 C   0  0  0  0  0  0  0  0  0  0  0  0
   38.7840   27.2230   37.0420 H   0  0  0  0  0  0  0  0  0  0  0  0
   37.7120   27.7940   35.3530 N   0  0  0  0  0  0  0  0  0  0  0  0
   37.2730   27.2020   34.2480 C   0  0  0  0  0  0  0  0  0  0  0  0
   36.5630   27.5570   33.1180 C   0  0  0  0  0  0  0  0  0  0  0  0
   36.2840   26.6580   32.1540 N   0  0  0  0  0  0  0  0  0  0  0  0
   36.6870   25.3660   32.2500 C   0  0  0  0  0  0  0  0  0  0  0  0
   36.4460   24.6720   31.4570 H   0  0  0  0  0  0  0  0  0  0  0  0
   37.3800   25.0080   33.3470 N   0  0  0  0  0  0  0  0  0  0  0  0
   37.6710   25.8830   34.3220 C   0  0  0  0  0  0  0  0  0  0  0  0
   36.1320   28.9090   32.9990 N   0  0  0  0  0  0  0  0  0  0  0  0
   35.4070   29.5800   33.3040 H   0  0  0  0  0  0  0  0  0  0  0  0
   36.3510   29.8210   32.5560 H   0  0  0  0  0  0  0  0  0  0  0  0
   40.0210   23.1060   32.7240 Cl  0  0  0  0  0  0  0  0  0  0  0  0
   40.6960   24.6750   33.0670 C   0  0  0  0  0  0  0  0  0  0  0  0
   41.1300   25.4530   32.0500 C   0  0  0  0  0  0  0  0  0  0  0  0
   41.6320   26.7020   32.4100 C   0  0  0  0  0  0  0  0  0  0  0  0
   41.7110   27.1720   33.6830 C   0  0  0  0  0  0  0  0  0  0  0  0
   41.2600   26.3500   34.6920 C   0  0  0  0  0  0  0  0  0  0  0  0
   40.7500   25.0980   34.3990 C   0  0  0  0  0  0  0  0  0  0  0  0
   41.9890   27.3500   31.6010 H   0  0  0  0  0  0  0  0  0  0  0  0
   42.1170   28.1570   33.8660 H   0  0  0  0  0  0  0  0  0  0  0  0
   41.3000   26.6700   35.7090 H   0  0  0  0  0  0  0  0  0  0  0  0
   39.9090   24.7950   28.5530 C   0  0  0  0  0  0  0  0  0  0  0  0
   39.9510   25.2550   29.8770 C   0  0  0  0  0  0  0  0  0  0  0  0
   41.0610   24.9790   30.6870 C   0  0  0  0  0  0  0  0  0  0  0  0
   42.0770   24.2510   30.1340 N   0  0  0  0  0  0  0  0  0  0  0  0
   42.0220   23.8150   28.8570 C   0  0  0  0  0  0  0  0  0  0  0  0
   40.9480   24.0800   28.0640 N   0  0  0  0  0  0  0  0  0  0  0  0
   39.1140   24.9540   27.8570 H   0  0  0  0  0  0  0  0  0  0  0  0
   39.0410   25.7700   30.1080 H   0  0  0  0  0  0  0  0  0  0  0  0
   42.9110   23.2600   28.5990 H   0  0  0  0  0  0  0  0  0  0  0  0
  1  2  1  0  0  0  0
  1  6  1  0  0  0  0
  2  8  1  0  0  0  0
  2  3  1  0  0  0  0
  3 10  1  0  0  0  0
  3  9  1  0  0  0  0
  4 11  1  0  0  0  0
  4  3  1  0  0  0  0
  5  6  1  0  0  0  0
  5  4  1  0  0  0  0
  5 12  1  0  0  0  0
  6 14  1  1  0  0  0
  7  2  1  0  0  0  0
 13  5  1  0  0  0  0
 15  6  1  0  0  0  0
 15 16  1  0  0  0  0
 16 17  1  0  0  0  0
 18 16  2  0  0  0  0
 19 25  1  0  0  0  0
 19 18  1  0  0  0  0
 20 19  2  0  0  0  0
 21 22  2  0  0  0  0
 21 20  1  0  0  0  0
 22 24  1  0  0  0  0
 23 22  1  0  0  0  0
 24 25  2  0  0  0  0
 25 15  1  0  0  0  0
 26 20  1  0  0  0  0
 26 27  1  0  0  0  0
 28 26  1  0  0  0  0
 29 30  1  0  0  0  0
 30 35  1  0  0  0  0
 31 32  1  0  0  0  0
 31 30  2  0  0  0  0
 32 33  2  0  0  0  0
 33 37  1  0  0  0  0
 33 34  1  0  0  0  0
 34 38  1  0  0  0  0
 35 34  2  0  0  0  0
 35  1  1  0  0  0  0
 36 32  1  0  0  0  0
 39 40  1  0  0  0  0
 40 46  1  0  0  0  0
 40 41  2  0  0  0  0
 41 31  1  0  0  0  0
 42 41  1  0  0  0  0
 43 42  2  0  0  0  0
 44 39  2  0  0  0  0
 44 43  1  0  0  0  0
 45 39  1  0  0  0  0
 47 43  1  0  0  0  0
M  END
>  <minimizedAffinity>
-5.56894112

$$$$

 OpenBabel03272505173D

 47 51  0  0  1  0  0  0  0  0999 V2000
   38.2860   24.2020   33.5280 N   0  0  0  0  0  0  0  0  0  0  0  0
   38.2060   24.1250   34.9610 C   0  0  0  0  0  0  0  0  0  0  0  0
   39.6140   23.8350   35.4630 C   0  0  0  0  0  0  0  0  0  0  0  0
   40.4680   24.8240   34.8950 N   0  0  0  0  0  0  0  0  0  0  0  0
   40.6320   24.6670   33.4900 C   0  0  0  0  0  0  0  0  0  0  0  0
   39.5470   23.7690   32.9250 C   0  0  2  0  0  0  0  0  0  0  0  0
   37.9220   25.1220   35.3490 H   0  0  0  0  0  0  0  0  0  0  0  0
   37.4960   23.3370   35.2600 H   0  0  0  0  0  0  0  0  0  0  0  0
   39.9240   22.8000   35.3510 H   0  0  0  0  0  0  0  0  0  0  0  0
   39.5710   24.0250   36.5750 H   0  0  0  0  0  0  0  0  0  0  0  0
   41.3880   24.9010   35.3920 H   0  0  0  0  0  0  0  0  0  0  0  0
   41.6270   24.3010   33.1630 H   0  0  0  0  0  0  0  0  0  0  0  0
   40.5020   25.6550   32.9590 H   0  0  0  0  0  0  0  0  0  0  0  0
   39.7020   22.7290   33.3210 H   0  0  0  0  0  0  0  0  0  0  0  0
   39.5180   23.7990   31.4860 N   0  0  0  0  0  0  0  0  0  0  0  0
   39.2110   22.7370   30.7210 C   0  0  0  0  0  0  0  0  0  0  0  0
   38.9390   21.7170   30.9560 H   0  0  0  0  0  0  0  0  0  0  0  0
   39.2710   23.0810   29.4200 N   0  0  0  0  0  0  0  0  0  0  0  0
   39.6160   24.3600   29.3280 C   0  0  0  0  0  0  0  0  0  0  0  0
   39.8410   25.2830   28.3260 C   0  0  0  0  0  0  0  0  0  0  0  0
   40.1930   26.5520   28.6090 N   0  0  0  0  0  0  0  0  0  0  0  0
   40.3420   26.9800   29.8870 C   0  0  0  0  0  0  0  0  0  0  0  0
   40.6250   28.0070   30.0770 H   0  0  0  0  0  0  0  0  0  0  0  0
   40.1250   26.0900   30.8730 N   0  0  0  0  0  0  0  0  0  0  0  0
   39.7740   24.8200   30.6200 C   0  0  0  0  0  0  0  0  0  0  0  0
   39.6900   24.8520   26.9770 N   0  0  0  0  0  0  0  0  0  0  0  0
   40.1600   24.3460   26.2090 H   0  0  0  0  0  0  0  0  0  0  0  0
   39.0430   24.8540   26.1660 H   0  0  0  0  0  0  0  0  0  0  0  0
   38.0800   27.1450   33.3250 Cl  0  0  0  0  0  0  0  0  0  0  0  0
   37.0340   26.0340   32.4840 C   0  0  0  0  0  0  0  0  0  0  0  0
   36.0620   26.5130   31.6760 C   0  0  0  0  0  0  0  0  0  0  0  0
   35.2860   25.5560   31.0230 C   0  0  0  0  0  0  0  0  0  0  0  0
   35.4420   24.2120   31.1450 C   0  0  0  0  0  0  0  0  0  0  0  0
   36.4420   23.7630   31.9780 C   0  0  0  0  0  0  0  0  0  0  0  0
   37.2470   24.6620   32.6550 C   0  0  0  0  0  0  0  0  0  0  0  0
   34.4920   25.9230   30.3620 H   0  0  0  0  0  0  0  0  0  0  0  0
   34.7910   23.5450   30.5980 H   0  0  0  0  0  0  0  0  0  0  0  0
   36.6070   22.7170   32.1100 H   0  0  0  0  0  0  0  0  0  0  0  0
   36.3480   30.0440   30.4130 C   0  0  0  0  0  0  0  0  0  0  0  0
   36.5560   28.6650   30.5470 C   0  0  0  0  0  0  0  0  0  0  0  0
   35.8700   27.9370   31.5290 C   0  0  0  0  0  0  0  0  0  0  0  0
   35.0080   28.6280   32.3350 N   0  0  0  0  0  0  0  0  0  0  0  0
   34.8190   29.9570   32.1940 C   0  0  0  0  0  0  0  0  0  0  0  0
   35.4800   30.6700   31.2410 N   0  0  0  0  0  0  0  0  0  0  0  0
   36.8180   30.6850   29.6990 H   0  0  0  0  0  0  0  0  0  0  0  0
   37.2930   28.3420   29.8390 H   0  0  0  0  0  0  0  0  0  0  0  0
   34.1060   30.3250   32.9160 H   0  0  0  0  0  0  0  0  0  0  0  0
  1  2  1  0  0  0  0
  2  8  1  0  0  0  0
  2  7  1  0  0  0  0
  2  3  1  0  0  0  0
  3 10  1  0  0  0  0
  4 11  1  0  0  0  0
  4  3  1  0  0  0  0
  5  4  1  0  0  0  0
  6 14  1  1  0  0  0
  6  5  1  0  0  0  0
  6  1  1  0  0  0  0
  9  3  1  0  0  0  0
 12  5  1  0  0  0  0
 13  5  1  0  0  0  0
 15  6  1  0  0  0  0
 16 17  1  0  0  0  0
 16 15  1  0  0  0  0
 18 16  2  0  0  0  0
 19 18  1  0  0  0  0
 19 25  1  0  0  0  0
 20 21  1  0  0  0  0
 20 19  2  0  0  0  0
 21 22  2  0  0  0  0
 22 23  1  0  0  0  0
 22 24  1  0  0  0  0
 25 24  2  0  0  0  0
 25 15  1  0  0  0  0
 26 20  1  0  0  0  0
 27 26  1  0  0  0  0
 28 26  1  0  0  0  0
 30 35  1  0  0  0  0
 30 29  1  0  0  0  0
 31 30  2  0  0  0  0
 32 33  2  0  0  0  0
 32 31  1  0  0  0  0
 33 34  1  0  0  0  0
 34 38  1  0  0  0  0
 34 35  2  0  0  0  0
 35  1  1  0  0  0  0
 36 32  1  0  0  0  0
 37 33  1  0  0  0  0
 39 40  2  0  0  0  0
 39 44  1  0  0  0  0
 40 41  1  0  0  0  0
 41 31  1  0  0  0  0
 41 42  2  0  0  0  0
 43 42  1  0  0  0  0
 43 47  1  0  0  0  0
 44 43  2  0  0  0  0
 45 39  1  0  0  0  0
 46 40  1  0  0  0  0
M  END
>  <minimizedAffinity>
-5.53943586

$$$$

 OpenBabel03272505173D

 47 51  0  0  1  0  0  0  0  0999 V2000
   38.7970   24.4430   35.5900 N   0  0  0  0  0  0  0  0  0  0  0  0
   37.9960   24.7000   36.7560 C   0  0  0  0  0  0  0  0  0  0  0  0
   37.7560   23.3540   37.4260 C   0  0  0  0  0  0  0  0  0  0  0  0
   39.0330   22.7510   37.6130 N   0  0  0  0  0  0  0  0  0  0  0  0
   39.6370   22.3510   36.3880 C   0  0  0  0  0  0  0  0  0  0  0  0
   38.9650   23.0400   35.2150 C   0  0  2  0  0  0  0  0  0  0  0  0
   38.5920   25.3120   37.4610 H   0  0  0  0  0  0  0  0  0  0  0  0
   37.0500   25.1870   36.4680 H   0  0  0  0  0  0  0  0  0  0  0  0
   36.9940   22.7460   36.9470 H   0  0  0  0  0  0  0  0  0  0  0  0
   37.3490   23.6070   38.4480 H   0  0  0  0  0  0  0  0  0  0  0  0
   39.0160   21.9720   38.3150 H   0  0  0  0  0  0  0  0  0  0  0  0
   39.6740   21.2570   36.2080 H   0  0  0  0  0  0  0  0  0  0  0  0
   40.7150   22.6840   36.3460 H   0  0  0  0  0  0  0  0  0  0  0  0
   37.9160   22.6480   35.1250 H   0  0  0  0  0  0  0  0  0  0  0  0
   39.7090   22.8720   33.9940 N   0  0  0  0  0  0  0  0  0  0  0  0
   41.0510   22.8670   33.9300 C   0  0  0  0  0  0  0  0  0  0  0  0
   41.8220   22.9740   34.6790 H   0  0  0  0  0  0  0  0  0  0  0  0
   41.4450   22.6890   32.6540 N   0  0  0  0  0  0  0  0  0  0  0  0
   40.3700   22.5780   31.8830 C   0  0  0  0  0  0  0  0  0  0  0  0
   40.0950   22.3890   30.5420 C   0  0  0  0  0  0  0  0  0  0  0  0
   38.8270   22.3220   30.0900 N   0  0  0  0  0  0  0  0  0  0  0  0
   37.7670   22.4360   30.9280 C   0  0  0  0  0  0  0  0  0  0  0  0
   36.7630   22.3760   30.5300 H   0  0  0  0  0  0  0  0  0  0  0  0
   38.0220   22.6200   32.2360 N   0  0  0  0  0  0  0  0  0  0  0  0
   39.2740   22.6910   32.7150 C   0  0  0  0  0  0  0  0  0  0  0  0
   41.1950   22.2680   29.6470 N   0  0  0  0  0  0  0  0  0  0  0  0
   41.9020   22.8070   29.1210 H   0  0  0  0  0  0  0  0  0  0  0  0
   41.7760   21.5860   29.1250 H   0  0  0  0  0  0  0  0  0  0  0  0
   37.0850   25.5490   33.4480 Cl  0  0  0  0  0  0  0  0  0  0  0  0
   38.7380   26.0280   33.7180 C   0  0  0  0  0  0  0  0  0  0  0  0
   39.3020   26.9630   32.9230 C   0  0  0  0  0  0  0  0  0  0  0  0
   40.6200   27.3050   33.2230 C   0  0  0  0  0  0  0  0  0  0  0  0
   41.3500   26.7700   34.2360 C   0  0  0  0  0  0  0  0  0  0  0  0
   40.7420   25.8190   35.0240 C   0  0  0  0  0  0  0  0  0  0  0  0
   39.4350   25.4370   34.7780 C   0  0  0  0  0  0  0  0  0  0  0  0
   41.0960   28.0620   32.5910 H   0  0  0  0  0  0  0  0  0  0  0  0
   42.3680   27.0990   34.3930 H   0  0  0  0  0  0  0  0  0  0  0  0
   41.2720   25.3670   35.8330 H   0  0  0  0  0  0  0  0  0  0  0  0
   38.2150   27.9630   29.4630 C   0  0  0  0  0  0  0  0  0  0  0  0
   38.9640   27.3990   30.5050 C   0  0  0  0  0  0  0  0  0  0  0  0
   38.5500   27.5460   31.8360 C   0  0  0  0  0  0  0  0  0  0  0  0
   37.4030   28.2550   32.0610 N   0  0  0  0  0  0  0  0  0  0  0  0
   36.6920   28.7930   31.0480 C   0  0  0  0  0  0  0  0  0  0  0  0
   37.0880   28.6530   29.7530 N   0  0  0  0  0  0  0  0  0  0  0  0
   38.4430   27.9060   28.4210 H   0  0  0  0  0  0  0  0  0  0  0  0
   39.8350   26.9220   30.1030 H   0  0  0  0  0  0  0  0  0  0  0  0
   35.8220   29.3140   31.4190 H   0  0  0  0  0  0  0  0  0  0  0  0
  1  2  1  0  0  0  0
  2  3  1  0  0  0  0
  2  7  1  0  0  0  0
  3  4  1  0  0  0  0
  3 10  1  0  0  0  0
  4 11  1  0  0  0  0
  5  4  1  0  0  0  0
  6 14  1  6  0  0  0
  6  1  1  0  0  0  0
  6  5  1  0  0  0  0
  8  2  1  0  0  0  0
  9  3  1  0  0  0  0
 12  5  1  0  0  0  0
 13  5  1  0  0  0  0
 15  6  1  0  0  0  0
 16 15  1  0  0  0  0
 16 17  1  0  0  0  0
 18 16  2  0  0  0  0
 19 18  1  0  0  0  0
 19 25  1  0  0  0  0
 20 19  2  0  0  0  0
 21 20  1  0  0  0  0
 21 22  2  0  0  0  0
 22 24  1  0  0  0  0
 23 22  1  0  0  0  0
 24 25  2  0  0  0  0
 25 15  1  0  0  0  0
 26 20  1  0  0  0  0
 27 26  1  0  0  0  0
 28 26  1  0  0  0  0
 29 30  1  0  0  0  0
 30 35  1  0  0  0  0
 31 32  1  0  0  0  0
 31 30  2  0  0  0  0
 32 33  2  0  0  0  0
 33 37  1  0  0  0  0
 33 34  1  0  0  0  0
 34 38  1  0  0  0  0
 35 34  2  0  0  0  0
 35  1  1  0  0  0  0
 36 32  1  0  0  0  0
 39 44  2  0  0  0  0
 39 40  1  0  0  0  0
 40 41  2  0  0  0  0
 41 42  1  0  0  0  0
 41 31  1  0  0  0  0
 43 47  1  0  0  0  0
 43 42  2  0  0  0  0
 44 43  1  0  0  0  0
 45 39  1  0  0  0  0
 46 40  1  0  0  0  0
M  END
>  <minimizedAffinity>
-5.50488281

$$$$

 OpenBabel03272505173D

 47 51  0  0  1  0  0  0  0  0999 V2000
   36.7150   24.0410   32.1710 N   0  0  0  0  0  0  0  0  0  0  0  0
   35.8360   24.8480   31.3690 C   0  0  0  0  0  0  0  0  0  0  0  0
   36.4310   26.2490   31.3440 C   0  0  0  0  0  0  0  0  0  0  0  0
   37.7850   26.1170   30.9220 N   0  0  0  0  0  0  0  0  0  0  0  0
   38.6050   25.4810   31.8970 C   0  0  0  0  0  0  0  0  0  0  0  0
   37.7490   24.7550   32.9190 C   0  0  2  0  0  0  0  0  0  0  0  0
   35.8610   24.4660   30.3300 H   0  0  0  0  0  0  0  0  0  0  0  0
   34.8200   24.8440   31.7970 H   0  0  0  0  0  0  0  0  0  0  0  0
   36.2550   26.8260   32.2480 H   0  0  0  0  0  0  0  0  0  0  0  0
   35.8730   26.7870   30.5230 H   0  0  0  0  0  0  0  0  0  0  0  0
   38.1990   27.0220   30.5920 H   0  0  0  0  0  0  0  0  0  0  0  0
   39.3290   26.1410   32.4170 H   0  0  0  0  0  0  0  0  0  0  0  0
   39.2410   24.6770   31.4220 H   0  0  0  0  0  0  0  0  0  0  0  0
   37.1830   25.5190   33.5170 H   0  0  0  0  0  0  0  0  0  0  0  0
   38.5330   23.8880   33.7590 N   0  0  0  0  0  0  0  0  0  0  0  0
   39.4730   23.0460   33.2950 C   0  0  0  0  0  0  0  0  0  0  0  0
   39.8390   22.8290   32.3010 H   0  0  0  0  0  0  0  0  0  0  0  0
   40.0280   22.3740   34.3220 N   0  0  0  0  0  0  0  0  0  0  0  0
   39.4580   22.7700   35.4540 C   0  0  0  0  0  0  0  0  0  0  0  0
   39.5660   22.4850   36.8010 C   0  0  0  0  0  0  0  0  0  0  0  0
   38.7930   23.1050   37.7130 N   0  0  0  0  0  0  0  0  0  0  0  0
   37.8750   24.0370   37.3510 C   0  0  0  0  0  0  0  0  0  0  0  0
   37.2720   24.5150   38.1100 H   0  0  0  0  0  0  0  0  0  0  0  0
   37.7610   24.3230   36.0410 N   0  0  0  0  0  0  0  0  0  0  0  0
   38.5180   23.7200   35.1110 C   0  0  0  0  0  0  0  0  0  0  0  0
   40.5240   21.5100   37.2010 N   0  0  0  0  0  0  0  0  0  0  0  0
   40.6930   20.4930   37.2750 H   0  0  0  0  0  0  0  0  0  0  0  0
   41.4750   21.3850   37.5950 H   0  0  0  0  0  0  0  0  0  0  0  0
   38.1560   22.5780   30.0440 Cl  0  0  0  0  0  0  0  0  0  0  0  0
   37.2900   21.8050   31.3420 C   0  0  0  0  0  0  0  0  0  0  0  0
   37.2590   20.4560   31.4160 C   0  0  0  0  0  0  0  0  0  0  0  0
   36.5640   19.9200   32.4990 C   0  0  0  0  0  0  0  0  0  0  0  0
   35.9330   20.6490   33.4560 C   0  0  0  0  0  0  0  0  0  0  0  0
   35.9860   22.0210   33.3470 C   0  0  0  0  0  0  0  0  0  0  0  0
   36.6600   22.6140   32.2950 C   0  0  0  0  0  0  0  0  0  0  0  0
   36.5270   18.8280   32.5780 H   0  0  0  0  0  0  0  0  0  0  0  0
   35.4180   20.1440   34.2610 H   0  0  0  0  0  0  0  0  0  0  0  0
   35.5070   22.6400   34.0720 H   0  0  0  0  0  0  0  0  0  0  0  0
   37.8810   18.4130   28.3190 C   0  0  0  0  0  0  0  0  0  0  0  0
   37.2220   19.1790   29.2900 C   0  0  0  0  0  0  0  0  0  0  0  0
   37.9170   19.6550   30.4100 C   0  0  0  0  0  0  0  0  0  0  0  0
   39.2440   19.3380   30.5060 N   0  0  0  0  0  0  0  0  0  0  0  0
   39.8650   18.5990   29.5630 C   0  0  0  0  0  0  0  0  0  0  0  0
   39.1960   18.1340   28.4720 N   0  0  0  0  0  0  0  0  0  0  0  0
   37.4430   18.0070   27.4330 H   0  0  0  0  0  0  0  0  0  0  0  0
   36.1860   19.2740   29.0300 H   0  0  0  0  0  0  0  0  0  0  0  0
   40.9060   18.4520   29.8090 H   0  0  0  0  0  0  0  0  0  0  0  0
  1 35  1  0  0  0  0
  1  6  1  0  0  0  0
  2  8  1  0  0  0  0
  2  1  1  0  0  0  0
  3  2  1  0  0  0  0
  3  9  1  0  0  0  0
  4  3  1  0  0  0  0
  4  5  1  0  0  0  0
  5 12  1  0  0  0  0
  5  6  1  0  0  0  0
  6 14  1  1  0  0  0
  6 15  1  0  0  0  0
  7  2  1  0  0  0  0
 10  3  1  0  0  0  0
 11  4  1  0  0  0  0
 13  5  1  0  0  0  0
 15 25  1  0  0  0  0
 16 15  1  0  0  0  0
 16 18  2  0  0  0  0
 17 16  1  0  0  0  0
 18 19  1  0  0  0  0
 19 20  1  0  0  0  0
 20 26  1  0  0  0  0
 20 21  2  0  0  0  0
 22 21  1  0  0  0  0
 22 23  1  0  0  0  0
 24 22  2  0  0  0  0
 25 19  2  0  0  0  0
 25 24  1  0  0  0  0
 26 27  1  0  0  0  0
 26 28  1  0  0  0  0
 29 30  1  0  0  0  0
 30 31  2  0  0  0  0
 30 35  1  0  0  0  0
 31 32  1  0  0  0  0
 32 36  1  0  0  0  0
 32 33  2  0  0  0  0
 33 37  1  0  0  0  0
 34 33  1  0  0  0  0
 34 38  1  0  0  0  0
 35 34  2  0  0  0  0
 39 44  2  0  0  0  0
 39 40  1  0  0  0  0
 40 41  2  0  0  0  0
 41 42  1  0  0  0  0
 41 31  1  0  0  0  0
 43 47  1  0  0  0  0
 43 42  2  0  0  0  0
 44 43  1  0  0  0  0
 45 39  1  0  0  0  0
 46 40  1  0  0  0  0
M  END
>  <minimizedAffinity>
-5.49504995

$$$$

 OpenBabel03272505173D

 47 51  0  0  1  0  0  0  0  0999 V2000
   38.1210   25.3440   33.9960 N   0  0  0  0  0  0  0  0  0  0  0  0
   37.7980   25.5190   35.3860 C   0  0  0  0  0  0  0  0  0  0  0  0
   38.9840   26.2270   36.0250 C   0  0  0  0  0  0  0  0  0  0  0  0
   39.2380   27.3930   35.2470 N   0  0  0  0  0  0  0  0  0  0  0  0
   39.7540   27.0910   33.9550 C   0  0  0  0  0  0  0  0  0  0  0  0
   39.5010   25.6350   33.6100 C   0  0  2  0  0  0  0  0  0  0  0  0
   36.9320   26.2050   35.4590 H   0  0  0  0  0  0  0  0  0  0  0  0
   37.6040   24.5410   35.8570 H   0  0  0  0  0  0  0  0  0  0  0  0
   39.8340   25.5810   36.2280 H   0  0  0  0  0  0  0  0  0  0  0  0
   38.6100   26.5690   37.0330 H   0  0  0  0  0  0  0  0  0  0  0  0
   39.8300   28.0970   35.7510 H   0  0  0  0  0  0  0  0  0  0  0  0
   40.8260   27.3320   33.8000 H   0  0  0  0  0  0  0  0  0  0  0  0
   39.2100   27.6810   33.1590 H   0  0  0  0  0  0  0  0  0  0  0  0
   40.1230   24.9940   34.2910 H   0  0  0  0  0  0  0  0  0  0  0  0
   39.7650   25.3580   32.2220 N   0  0  0  0  0  0  0  0  0  0  0  0
   40.2020   24.1710   31.7660 C   0  0  0  0  0  0  0  0  0  0  0  0
   40.4370   23.2370   32.2560 H   0  0  0  0  0  0  0  0  0  0  0  0
   40.3530   24.2260   30.4280 N   0  0  0  0  0  0  0  0  0  0  0  0
   40.0180   25.4390   30.0060 C   0  0  0  0  0  0  0  0  0  0  0  0
   39.9540   26.1170   28.8040 C   0  0  0  0  0  0  0  0  0  0  0  0
   39.5510   27.4010   28.7440 N   0  0  0  0  0  0  0  0  0  0  0  0
   39.1920   28.0860   29.8580 C   0  0  0  0  0  0  0  0  0  0  0  0
   38.8740   29.1160   29.7720 H   0  0  0  0  0  0  0  0  0  0  0  0
   39.2510   27.4370   31.0360 N   0  0  0  0  0  0  0  0  0  0  0  0
   39.6480   26.1580   31.1250 C   0  0  0  0  0  0  0  0  0  0  0  0
   40.3270   25.4150   27.6230 N   0  0  0  0  0  0  0  0  0  0  0  0
   41.1370   25.1010   27.0630 H   0  0  0  0  0  0  0  0  0  0  0  0
   39.9540   24.9050   26.8000 H   0  0  0  0  0  0  0  0  0  0  0  0
   37.8470   22.4080   33.7670 Cl  0  0  0  0  0  0  0  0  0  0  0  0
   37.0070   23.5480   32.7510 C   0  0  0  0  0  0  0  0  0  0  0  0
   36.1660   23.0970   31.7940 C   0  0  0  0  0  0  0  0  0  0  0  0
   35.5170   24.0750   31.0420 C   0  0  0  0  0  0  0  0  0  0  0  0
   35.6740   25.4150   31.2080 C   0  0  0  0  0  0  0  0  0  0  0  0
   36.5390   25.8360   32.1930 C   0  0  0  0  0  0  0  0  0  0  0  0
   37.2140   24.9140   32.9730 C   0  0  0  0  0  0  0  0  0  0  0  0
   34.8300   23.7320   30.2610 H   0  0  0  0  0  0  0  0  0  0  0  0
   35.1260   26.1000   30.5760 H   0  0  0  0  0  0  0  0  0  0  0  0
   36.6990   26.8770   32.3640 H   0  0  0  0  0  0  0  0  0  0  0  0
   36.6260   19.5760   30.5530 C   0  0  0  0  0  0  0  0  0  0  0  0
   36.8130   20.9540   30.7260 C   0  0  0  0  0  0  0  0  0  0  0  0
   35.9830   21.6780   31.5920 C   0  0  0  0  0  0  0  0  0  0  0  0
   35.0000   20.9870   32.2440 N   0  0  0  0  0  0  0  0  0  0  0  0
   34.8320   19.6590   32.0660 C   0  0  0  0  0  0  0  0  0  0  0  0
   35.6350   18.9490   31.2280 N   0  0  0  0  0  0  0  0  0  0  0  0
   37.2040   18.9370   29.9210 H   0  0  0  0  0  0  0  0  0  0  0  0
   37.6120   21.2900   30.0960 H   0  0  0  0  0  0  0  0  0  0  0  0
   34.0100   19.2900   32.6610 H   0  0  0  0  0  0  0  0  0  0  0  0
  1  2  1  0  0  0  0
  2  7  1  0  0  0  0
  2  8  1  0  0  0  0
  2  3  1  0  0  0  0
  3  9  1  0  0  0  0
  3 10  1  0  0  0  0
  4 11  1  0  0  0  0
  4  3  1  0  0  0  0
  5  4  1  0  0  0  0
  6  5  1  0  0  0  0
  6  1  1  0  0  0  0
  6 14  1  1  0  0  0
 12  5  1  0  0  0  0
 13  5  1  0  0  0  0
 15  6  1  0  0  0  0
 16 15  1  0  0  0  0
 16 17  1  0  0  0  0
 18 16  2  0  0  0  0
 19 18  1  0  0  0  0
 19 25  1  0  0  0  0
 20 19  2  0  0  0  0
 21 20  1  0  0  0  0
 21 22  2  0  0  0  0
 22 24  1  0  0  0  0
 23 22  1  0  0  0  0
 24 25  2  0  0  0  0
 25 15  1  0  0  0  0
 26 20  1  0  0  0  0
 27 26  1  0  0  0  0
 28 26  1  0  0  0  0
 30 35  1  0  0  0  0
 30 29  1  0  0  0  0
 31 30  2  0  0  0  0
 32 33  2  0  0  0  0
 32 31  1  0  0  0  0
 33 34  1  0  0  0  0
 34 38  1  0  0  0  0
 34 35  2  0  0  0  0
 35  1  1  0  0  0  0
 36 32  1  0  0  0  0
 37 33  1  0  0  0  0
 39 40  2  0  0  0  0
 39 44  1  0  0  0  0
 40 41  1  0  0  0  0
 41 31  1  0  0  0  0
 41 42  2  0  0  0  0
 43 42  1  0  0  0  0
 43 47  1  0  0  0  0
 44 43  2  0  0  0  0
 45 39  1  0  0  0  0
 46 40  1  0  0  0  0
M  END
>  <minimizedAffinity>
-5.44486284

$$$$

 OpenBabel03272505173D

 47 51  0  0  1  0  0  0  0  0999 V2000
   37.6680   24.2660   32.3650 N   0  0  0  0  0  0  0  0  0  0  0  0
   36.8260   24.5260   31.2290 C   0  0  0  0  0  0  0  0  0  0  0  0
   36.1790   23.2010   30.8530 C   0  0  0  0  0  0  0  0  0  0  0  0
   35.5680   22.6880   32.0330 N   0  0  0  0  0  0  0  0  0  0  0  0
   36.5180   22.2700   33.0070 C   0  0  0  0  0  0  0  0  0  0  0  0
   37.8830   22.8600   32.7050 C   0  0  2  0  0  0  0  0  0  0  0  0
   36.0120   25.2070   31.5460 H   0  0  0  0  0  0  0  0  0  0  0  0
   37.4230   24.9380   30.4000 H   0  0  0  0  0  0  0  0  0  0  0  0
   36.8310   22.5240   30.3070 H   0  0  0  0  0  0  0  0  0  0  0  0
   35.3520   23.4750   30.1360 H   0  0  0  0  0  0  0  0  0  0  0  0
   34.8580   21.9430   31.8330 H   0  0  0  0  0  0  0  0  0  0  0  0
   36.6070   21.1730   33.1480 H   0  0  0  0  0  0  0  0  0  0  0  0
   36.2450   22.6680   34.0290 H   0  0  0  0  0  0  0  0  0  0  0  0
   38.2680   22.3990   31.7550 H   0  0  0  0  0  0  0  0  0  0  0  0
   38.8010   22.6820   33.8000 N   0  0  0  0  0  0  0  0  0  0  0  0
   40.0900   22.3350   33.6470 C   0  0  0  0  0  0  0  0  0  0  0  0
   40.6960   22.1270   32.7770 H   0  0  0  0  0  0  0  0  0  0  0  0
   40.6840   22.2490   34.8530 N   0  0  0  0  0  0  0  0  0  0  0  0
   39.7920   22.5370   35.7940 C   0  0  0  0  0  0  0  0  0  0  0  0
   39.7600   22.6240   37.1720 C   0  0  0  0  0  0  0  0  0  0  0  0
   38.6300   22.9580   37.8260 N   0  0  0  0  0  0  0  0  0  0  0  0
   37.4770   23.2220   37.1630 C   0  0  0  0  0  0  0  0  0  0  0  0
   36.5900   23.4880   37.7220 H   0  0  0  0  0  0  0  0  0  0  0  0
   37.4960   23.1400   35.8200 N   0  0  0  0  0  0  0  0  0  0  0  0
   38.6060   22.8100   35.1430 C   0  0  0  0  0  0  0  0  0  0  0  0
   40.9610   22.3500   37.8860 N   0  0  0  0  0  0  0  0  0  0  0  0
   41.5590   21.5870   38.2440 H   0  0  0  0  0  0  0  0  0  0  0  0
   41.7700   22.7910   38.3620 H   0  0  0  0  0  0  0  0  0  0  0  0
   40.3830   25.0200   31.4670 Cl  0  0  0  0  0  0  0  0  0  0  0  0
   39.6000   25.6910   32.8710 C   0  0  0  0  0  0  0  0  0  0  0  0
   40.2410   26.6200   33.6150 C   0  0  0  0  0  0  0  0  0  0  0  0
   39.5340   27.1210   34.7060 C   0  0  0  0  0  0  0  0  0  0  0  0
   38.2770   26.7450   35.0590 C   0  0  0  0  0  0  0  0  0  0  0  0
   37.6560   25.7960   34.2770 C   0  0  0  0  0  0  0  0  0  0  0  0
   38.3050   25.2590   33.1800 C   0  0  0  0  0  0  0  0  0  0  0  0
   40.0350   27.8760   35.3230 H   0  0  0  0  0  0  0  0  0  0  0  0
   37.8070   27.1900   35.9240 H   0  0  0  0  0  0  0  0  0  0  0  0
   36.6690   25.4640   34.5100 H   0  0  0  0  0  0  0  0  0  0  0  0
   43.9850   26.9910   33.6260 C   0  0  0  0  0  0  0  0  0  0  0  0
   42.6930   26.5830   33.9870 C   0  0  0  0  0  0  0  0  0  0  0  0
   41.5800   27.0370   33.2660 C   0  0  0  0  0  0  0  0  0  0  0  0
   41.8130   27.8820   32.2170 N   0  0  0  0  0  0  0  0  0  0  0  0
   43.0630   28.2660   31.8820 C   0  0  0  0  0  0  0  0  0  0  0  0
   44.1480   27.8280   32.5760 N   0  0  0  0  0  0  0  0  0  0  0  0
   44.8930   26.7010   34.1070 H   0  0  0  0  0  0  0  0  0  0  0  0
   42.7430   25.9540   34.8530 H   0  0  0  0  0  0  0  0  0  0  0  0
   43.0480   28.9310   31.0310 H   0  0  0  0  0  0  0  0  0  0  0  0
  1  6  1  0  0  0  0
  1 35  1  0  0  0  0
  2  7  1  0  0  0  0
  2  1  1  0  0  0  0
  3  2  1  0  0  0  0
  3  4  1  0  0  0  0
  4  5  1  0  0  0  0
  5 12  1  0  0  0  0
  5 13  1  0  0  0  0
  6 14  1  6  0  0  0
  6  5  1  0  0  0  0
  6 15  1  0  0  0  0
  8  2  1  0  0  0  0
  9  3  1  0  0  0  0
 10  3  1  0  0  0  0
 11  4  1  0  0  0  0
 15 25  1  0  0  0  0
 16 15  1  0  0  0  0
 16 18  2  0  0  0  0
 17 16  1  0  0  0  0
 18 19  1  0  0  0  0
 19 20  1  0  0  0  0
 20 21  2  0  0  0  0
 20 26  1  0  0  0  0
 22 23  1  0  0  0  0
 22 21  1  0  0  0  0
 24 22  2  0  0  0  0
 25 19  2  0  0  0  0
 25 24  1  0  0  0  0
 26 27  1  0  0  0  0
 26 28  1  0  0  0  0
 29 30  1  0  0  0  0
 30 35  2  0  0  0  0
 30 31  1  0  0  0  0
 31 32  2  0  0  0  0
 32 33  1  0  0  0  0
 32 36  1  0  0  0  0
 33 37  1  0  0  0  0
 34 38  1  0  0  0  0
 34 33  2  0  0  0  0
 35 34  1  0  0  0  0
 39 40  1  0  0  0  0
 39 45  1  0  0  0  0
 40 46  1  0  0  0  0
 41 31  1  0  0  0  0
 41 40  2  0  0  0  0
 42 41  1  0  0  0  0
 43 42  2  0  0  0  0
 43 44  1  0  0  0  0
 44 39  2  0  0  0  0
 47 43  1  0  0  0  0
M  END
>  <minimizedAffinity>
-5.43150473

$$$$

 OpenBabel03272505173D

 47 51  0  0  1  0  0  0  0  0999 V2000
   38.4600   25.0920   33.5260 N   0  0  0  0  0  0  0  0  0  0  0  0
   38.5010   25.0470   34.9620 C   0  0  0  0  0  0  0  0  0  0  0  0
   39.7080   25.8700   35.3910 C   0  0  0  0  0  0  0  0  0  0  0  0
   39.5820   27.1450   34.7670 N   0  0  0  0  0  0  0  0  0  0  0  0
   39.7670   27.0880   33.3570 C   0  0  0  0  0  0  0  0  0  0  0  0
   39.6320   25.6600   32.8610 C   0  0  2  0  0  0  0  0  0  0  0  0
   37.6020   25.5600   35.3540 H   0  0  0  0  0  0  0  0  0  0  0  0
   38.5770   24.0030   35.3070 H   0  0  0  0  0  0  0  0  0  0  0  0
   40.6600   25.3620   35.2740 H   0  0  0  0  0  0  0  0  0  0  0  0
   39.5750   26.0240   36.5010 H   0  0  0  0  0  0  0  0  0  0  0  0
   40.1850   27.8770   35.2130 H   0  0  0  0  0  0  0  0  0  0  0  0
   40.7140   27.5260   32.9810 H   0  0  0  0  0  0  0  0  0  0  0  0
   38.9540   27.6630   32.8230 H   0  0  0  0  0  0  0  0  0  0  0  0
   40.4950   25.0610   33.2590 H   0  0  0  0  0  0  0  0  0  0  0  0
   39.5480   25.5950   31.4250 N   0  0  0  0  0  0  0  0  0  0  0  0
   39.1610   26.6230   30.6500 C   0  0  0  0  0  0  0  0  0  0  0  0
   38.8540   27.6340   30.8730 H   0  0  0  0  0  0  0  0  0  0  0  0
   39.1870   26.2510   29.3560 N   0  0  0  0  0  0  0  0  0  0  0  0
   39.5870   24.9880   29.2780 C   0  0  0  0  0  0  0  0  0  0  0  0
   39.8160   24.0520   28.2880 C   0  0  0  0  0  0  0  0  0  0  0  0
   40.2370   22.8070   28.5840 N   0  0  0  0  0  0  0  0  0  0  0  0
   40.4560   22.4160   29.8650 C   0  0  0  0  0  0  0  0  0  0  0  0
   40.7950   21.4090   30.0650 H   0  0  0  0  0  0  0  0  0  0  0  0
   40.2370   23.3190   30.8380 N   0  0  0  0  0  0  0  0  0  0  0  0
   39.8170   24.5660   30.5720 C   0  0  0  0  0  0  0  0  0  0  0  0
   39.5920   24.4430   26.9370 N   0  0  0  0  0  0  0  0  0  0  0  0
   38.8580   24.5830   26.2240 H   0  0  0  0  0  0  0  0  0  0  0  0
   40.0630   24.7610   26.0700 H   0  0  0  0  0  0  0  0  0  0  0  0
   38.2480   22.1500   33.3240 Cl  0  0  0  0  0  0  0  0  0  0  0  0
   37.1780   23.2610   32.5140 C   0  0  0  0  0  0  0  0  0  0  0  0
   36.1760   22.7840   31.7430 C   0  0  0  0  0  0  0  0  0  0  0  0
   35.3530   23.7410   31.1510 C   0  0  0  0  0  0  0  0  0  0  0  0
   35.4930   25.0850   31.2970 C   0  0  0  0  0  0  0  0  0  0  0  0
   36.5260   25.5330   32.0890 C   0  0  0  0  0  0  0  0  0  0  0  0
   37.3780   24.6330   32.7050 C   0  0  0  0  0  0  0  0  0  0  0  0
   34.5340   23.3760   30.5220 H   0  0  0  0  0  0  0  0  0  0  0  0
   34.8040   25.7520   30.7980 H   0  0  0  0  0  0  0  0  0  0  0  0
   36.6810   26.5790   32.2360 H   0  0  0  0  0  0  0  0  0  0  0  0
   34.9300   19.2580   32.1500 C   0  0  0  0  0  0  0  0  0  0  0  0
   35.0890   20.6370   32.3440 C   0  0  0  0  0  0  0  0  0  0  0  0
   36.0050   21.3600   31.5670 C   0  0  0  0  0  0  0  0  0  0  0  0
   36.7220   20.6660   30.6330 N   0  0  0  0  0  0  0  0  0  0  0  0
   36.5580   19.3370   30.4590 C   0  0  0  0  0  0  0  0  0  0  0  0
   35.6700   18.6290   31.2080 N   0  0  0  0  0  0  0  0  0  0  0  0
   34.2610   18.6200   32.6860 H   0  0  0  0  0  0  0  0  0  0  0  0
   34.4570   20.9630   33.1450 H   0  0  0  0  0  0  0  0  0  0  0  0
   37.2070   18.9660   29.6800 H   0  0  0  0  0  0  0  0  0  0  0  0
  1  2  1  0  0  0  0
  2  8  1  0  0  0  0
  2  7  1  0  0  0  0
  2  3  1  0  0  0  0
  3 10  1  0  0  0  0
  4 11  1  0  0  0  0
  4  3  1  0  0  0  0
  5  4  1  0  0  0  0
  6 14  1  1  0  0  0
  6  5  1  0  0  0  0
  6  1  1  0  0  0  0
  9  3  1  0  0  0  0
 12  5  1  0  0  0  0
 13  5  1  0  0  0  0
 15  6  1  0  0  0  0
 16 17  1  0  0  0  0
 16 15  1  0  0  0  0
 18 16  2  0  0  0  0
 19 18  1  0  0  0  0
 19 25  1  0  0  0  0
 20 21  1  0  0  0  0
 20 19  2  0  0  0  0
 21 22  2  0  0  0  0
 22 23  1  0  0  0  0
 22 24  1  0  0  0  0
 25 24  2  0  0  0  0
 25 15  1  0  0  0  0
 26 20  1  0  0  0  0
 27 26  1  0  0  0  0
 28 26  1  0  0  0  0
 30 35  1  0  0  0  0
 30 29  1  0  0  0  0
 31 30  2  0  0  0  0
 32 33  2  0  0  0  0
 32 31  1  0  0  0  0
 33 34  1  0  0  0  0
 34 38  1  0  0  0  0
 34 35  2  0  0  0  0
 35  1  1  0  0  0  0
 36 32  1  0  0  0  0
 37 33  1  0  0  0  0
 39 40  1  0  0  0  0
 39 45  1  0  0  0  0
 40 46  1  0  0  0  0
 41 31  1  0  0  0  0
 41 40  2  0  0  0  0
 42 41  1  0  0  0  0
 43 42  2  0  0  0  0
 43 44  1  0  0  0  0
 44 39  2  0  0  0  0
 47 43  1  0  0  0  0
M  END
>  <minimizedAffinity>
-5.41964912

$$$$
