
 OpenBabel03272501433D

 39 43  0  0  0  0  0  0  0  0999 V2000
   34.9320   29.0960   49.1590 C   0  0  0  0  0  0  0  0  0  0  0  0
   35.0080   29.8390   47.9450 C   0  0  0  0  0  0  0  0  0  0  0  0
   33.9630   29.6990   47.0380 C   0  0  0  0  0  0  0  0  0  0  0  0
   32.9410   28.8700   47.3630 N   0  0  0  0  0  0  0  0  0  0  0  0
   32.8830   28.1780   48.5110 C   0  0  0  0  0  0  0  0  0  0  0  0
   33.8850   28.2960   49.4040 N   0  0  0  0  0  0  0  0  0  0  0  0
   35.6280   29.0620   49.9790 H   0  0  0  0  0  0  0  0  0  0  0  0
   34.0730   30.2720   46.1570 H   0  0  0  0  0  0  0  0  0  0  0  0
   36.6920   31.2670   48.9590 C   0  0  0  0  0  0  0  0  0  0  0  0
   36.2000   30.6560   47.8290 C   0  0  0  0  0  0  0  0  0  0  0  0
   36.8860   30.8620   46.6360 C   0  0  0  0  0  0  0  0  0  0  0  0
   38.0250   31.6690   46.6420 C   0  0  0  0  0  0  0  0  0  0  0  0
   38.8780   32.0460   45.6720 N   0  0  0  0  0  0  0  0  0  0  0  0
   39.8320   32.8390   46.1900 C   0  0  0  0  0  0  0  0  0  0  0  0
   39.5880   32.9770   47.5220 N   0  0  0  0  0  0  0  0  0  0  0  0
   38.4870   32.2620   47.7850 C   0  0  0  0  0  0  0  0  0  0  0  0
   37.8180   32.0620   48.9550 C   0  0  0  0  0  0  0  0  0  0  0  0
   36.2410   31.1860   49.9620 H   0  0  0  0  0  0  0  0  0  0  0  0
   36.5210   30.3990   45.7520 H   0  0  0  0  0  0  0  0  0  0  0  0
   38.7620   31.7330   44.6850 H   0  0  0  0  0  0  0  0  0  0  0  0
   40.6350   33.2680   45.5920 H   0  0  0  0  0  0  0  0  0  0  0  0
   38.2060   32.5480   49.8650 H   0  0  0  0  0  0  0  0  0  0  0  0
   31.7010   27.2980   48.7500 C   0  0  0  0  0  0  0  0  0  0  0  0
   31.8480   26.8770   49.7750 H   0  0  0  0  0  0  0  0  0  0  0  0
   30.7630   27.8590   48.7960 H   0  0  0  0  0  0  0  0  0  0  0  0
   31.6930   26.2250   47.7910 N   0  0  0  0  0  0  0  0  0  0  0  0
   32.6490   25.3710   47.3820 C   0  0  0  0  0  0  0  0  0  0  0  0
   33.6470   25.4320   47.8010 H   0  0  0  0  0  0  0  0  0  0  0  0
   32.1100   24.5470   46.4500 N   0  0  0  0  0  0  0  0  0  0  0  0
   30.8350   24.8660   46.2670 C   0  0  0  0  0  0  0  0  0  0  0  0
   29.8750   24.3120   45.4220 C   0  0  0  0  0  0  0  0  0  0  0  0
   28.6350   24.8540   45.4500 N   0  0  0  0  0  0  0  0  0  0  0  0
   28.3710   25.8990   46.2820 C   0  0  0  0  0  0  0  0  0  0  0  0
   27.3930   26.3580   46.3330 H   0  0  0  0  0  0  0  0  0  0  0  0
   29.2900   26.4400   47.1010 N   0  0  0  0  0  0  0  0  0  0  0  0
   30.5530   25.9300   47.1100 C   0  0  0  0  0  0  0  0  0  0  0  0
   30.1780   23.2160   44.5570 N   0  0  0  0  0  0  0  0  0  0  0  0
   29.4850   22.4480   44.7910 H   0  0  0  0  0  0  0  0  0  0  0  0
   30.9620   23.2780   43.8610 H   0  0  0  0  0  0  0  0  0  0  0  0
  1  6  1  0  0  0  0
  1  7  1  0  0  0  0
  2  1  2  0  0  0  0
  3  4  2  0  0  0  0
  3  2  1  0  0  0  0
  4  5  1  0  0  0  0
  5 23  1  0  0  0  0
  5  6  2  0  0  0  0
  8  3  1  0  0  0  0
  9 18  1  0  0  0  0
 10  2  1  0  0  0  0
 10  9  2  0  0  0  0
 11 12  2  0  0  0  0
 11 10  1  0  0  0  0
 12 16  1  0  0  0  0
 13 14  1  0  0  0  0
 13 12  1  0  0  0  0
 14 15  2  0  0  0  0
 15 16  1  0  0  0  0
 16 17  2  0  0  0  0
 17  9  1  0  0  0  0
 17 22  1  0  0  0  0
 19 11  1  0  0  0  0
 20 13  1  0  0  0  0
 21 14  1  0  0  0  0
 23 25  1  0  0  0  0
 23 24  1  0  0  0  0
 26 23  1  0  0  0  0
 27 26  1  0  0  0  0
 27 28  1  0  0  0  0
 29 27  2  0  0  0  0
 30 29  1  0  0  0  0
 30 36  1  0  0  0  0
 31 32  1  0  0  0  0
 31 30  2  0  0  0  0
 32 33  2  0  0  0  0
 33 34  1  0  0  0  0
 33 35  1  0  0  0  0
 35 36  2  0  0  0  0
 36 26  1  0  0  0  0
 37 38  1  0  0  0  0
 37 31  1  0  0  0  0
 39 37  1  0  0  0  0
M  END
>  <minimizedAffinity>
-5.81064606

>  <minimizedRMSD>
2.49537539

$$$$
