REMARK  Name = 
REMARK  4 active torsions:
REMARK  status: ('A' for Active; 'I' for Inactive)
REMARK    1  A    between atoms: C_1  and  C_15
REMARK    2  A    between atoms: C_3  and  C_9
REMARK    3  A    between atoms: C_13  and  N_14
REMARK    4  A    between atoms: C_43  and  N_44
REMARK                            x       y       z     vdW  Elec       q    Type
REMARK                         _______ _______ _______ _____ _____    ______ ____
ROOT
ATOM      1  C   UNL     1      35.336  30.395  49.971  0.00  0.00    +0.000 C 
ATOM      2  C   UNL     1      36.258  31.373  49.417  0.00  0.00    +0.000 C 
ATOM      3  C   UNL     1      37.745  30.886  49.443  0.00  0.00    +0.000 C 
ATOM      4  C   UNL     1      38.217  30.571  50.771  0.00  0.00    +0.000 C 
ATOM      5  C   UNL     1      37.172  29.870  51.646  0.00  0.00    +0.000 C 
ATOM      6  C   UNL     1      36.051  29.328  50.812  0.00  0.00    +0.000 C 
ATOM      7  H   UNL     1      34.639  30.873  50.722  0.00  0.00    +0.000 HD
ATOM      8  H   UNL     1      36.153  31.812  48.451  0.00  0.00    +0.000 HD
ATOM      9  H   UNL     1      36.325  32.261  50.136  0.00  0.00    +0.000 HD
ATOM     10  H   UNL     1      37.831  30.070  48.728  0.00  0.00    +0.000 HD
ATOM     11  H   UNL     1      39.125  29.923  50.684  0.00  0.00    +0.000 HD
ATOM     12  H   UNL     1      38.557  31.427  51.392  0.00  0.00    +0.000 HD
ATOM     13  H   UNL     1      36.772  30.528  52.437  0.00  0.00    +0.000 HD
ATOM     14  H   UNL     1      37.656  29.005  52.121  0.00  0.00    +0.000 HD
ATOM     15  H   UNL     1      35.349  28.832  51.487  0.00  0.00    +0.000 HD
ATOM     16  H   UNL     1      36.468  28.554  50.134  0.00  0.00    +0.000 HD
ENDROOT
BRANCH   1  17
ATOM     17  C   UNL     1      34.497  29.676  49.015  0.00  0.00    +0.000 A 
ATOM     18  C   UNL     1      34.515  30.202  47.730  0.00  0.00    +0.000 A 
ATOM     19  C   UNL     1      33.771  29.569  46.738  0.00  0.00    +0.000 A 
ATOM     20  N   UNL     1      33.046  28.444  47.079  0.00  0.00    +0.000 NA
ATOM     21  C   UNL     1      33.044  27.950  48.341  0.00  0.00    +0.000 A 
ATOM     22  N   UNL     1      33.776  28.595  49.258  0.00  0.00    +0.000 NA
ATOM     23  H   UNL     1      34.967  31.033  47.206  0.00  0.00    +0.000 HD
ATOM     24  H   UNL     1      33.632  29.786  45.691  0.00  0.00    +0.000 HD
ATOM     25  N   UNL     1      32.279  26.784  48.646  0.00  0.00    +0.000 N 
ATOM     26  C   UNL     1      31.011  26.582  49.052  0.00  0.00    +0.000 A 
ATOM     27  H   UNL     1      30.341  27.415  49.212  0.00  0.00    +0.000 HD
ATOM     28  N   UNL     1      30.794  25.257  49.196  0.00  0.00    +0.000 NA
ATOM     29  C   UNL     1      31.938  24.603  48.879  0.00  0.00    +0.000 A 
ATOM     30  C   UNL     1      32.255  23.250  48.859  0.00  0.00    +0.000 A 
ATOM     31  N   UNL     1      33.508  22.940  48.488  0.00  0.00    +0.000 NA
ATOM     32  C   UNL     1      34.434  23.826  48.149  0.00  0.00    +0.000 A 
ATOM     33  H   UNL     1      35.452  23.549  47.849  0.00  0.00    +0.000 HD
ATOM     34  N   UNL     1      34.115  25.126  48.173  0.00  0.00    +0.000 NA
ATOM     35  C   UNL     1      32.878  25.568  48.531  0.00  0.00    +0.000 A 
BRANCH  30  36
ATOM     36  N   UNL     1      31.315  22.242  49.210  0.00  0.00    +0.000 N 
ATOM     37  H   UNL     1      31.651  21.315  49.540  0.00  0.00    +0.000 HD
ATOM     38  H   UNL     1      30.287  22.416  49.142  0.00  0.00    +0.000 HD
ENDBRANCH  30  36
ENDBRANCH   1  17
BRANCH   3  41
ATOM     39 CL   UNL     1      38.576  30.616  46.633  0.00  0.00    +0.000 Cl
ATOM     40  C   UNL     1      38.958  32.031  47.588  0.00  0.00    +0.000 A 
ATOM     41  C   UNL     1      38.481  32.065  48.875  0.00  0.00    +0.000 A 
ATOM     42  C   UNL     1      38.796  33.236  49.551  0.00  0.00    +0.000 A 
ATOM     43  C   UNL     1      39.522  34.261  48.972  0.00  0.00    +0.000 A 
ATOM     44  C   UNL     1      39.971  34.144  47.659  0.00  0.00    +0.000 A 
ATOM     45  C   UNL     1      39.679  32.999  46.954  0.00  0.00    +0.000 A 
ATOM     46  H   UNL     1      38.426  33.295  50.586  0.00  0.00    +0.000 HD
ATOM     47  H   UNL     1      39.709  35.129  49.596  0.00  0.00    +0.000 HD
ATOM     48  H   UNL     1      40.537  34.962  47.233  0.00  0.00    +0.000 HD
BRANCH  45  49
ATOM     49  N   UNL     1      40.135  32.874  45.613  0.00  0.00    +0.000 N 
ATOM     50  H   UNL     1      41.001  32.347  45.348  0.00  0.00    +0.000 HD
ATOM     51  H   UNL     1      39.609  33.314  44.828  0.00  0.00    +0.000 HD
ENDBRANCH  45  49
ENDBRANCH   3  41
TORSDOF 4
