
 OpenBabel03262521213D

 34 35  0  0  0  0  0  0  0  0999 V2000
   38.5460   32.4110   47.3510 C   0  0  0  0  0  0  0  0  0  0  0  0
   38.1140   31.3970   47.2190 H   0  0  0  0  0  0  0  0  0  0  0  0
   37.7950   33.0900   46.8480 H   0  0  0  0  0  0  0  0  0  0  0  0
   38.8450   32.7960   48.6250 C   0  0  0  0  0  0  0  0  0  0  0  0
   39.1630   31.8840   49.2200 H   0  0  0  0  0  0  0  0  0  0  0  0
   39.7190   33.4710   48.7610 H   0  0  0  0  0  0  0  0  0  0  0  0
   37.7170   33.3750   49.4040 C   0  0  0  0  0  0  0  0  0  0  0  0
   37.2640   34.1930   48.7720 H   0  0  0  0  0  0  0  0  0  0  0  0
   38.1090   33.9490   50.2950 H   0  0  0  0  0  0  0  0  0  0  0  0
   36.4380   32.2490   49.8400 S   0  0  0  0  0  0  0  0  0  0  0  0
   36.5750   29.7180   48.0880 Cl  0  0  0  0  0  0  0  0  0  0  0  0
   37.1290   29.7250   49.7520 C   0  0  0  0  0  0  0  0  0  0  0  0
   37.1110   30.8100   50.6380 C   0  0  0  0  0  0  0  0  0  0  0  0
   37.6000   30.5840   51.9060 C   0  0  0  0  0  0  0  0  0  0  0  0
   37.5320   31.4810   52.4920 H   0  0  0  0  0  0  0  0  0  0  0  0
   38.0840   29.3660   52.2960 C   0  0  0  0  0  3  0  0  0  0  0  0
   38.1070   28.2800   51.4270 C   0  0  0  0  0  0  0  0  0  0  0  0
   38.7460   26.7890   52.0500 Cl  0  0  0  0  0  0  0  0  0  0  0  0
   37.6250   28.4780   50.1540 C   0  0  0  0  0  0  0  0  0  0  0  0
   37.6710   27.6010   49.5350 H   0  0  0  0  0  0  0  0  0  0  0  0
   39.7510   32.6150   46.7580 O   0  0  0  0  0  0  0  0  0  0  0  0
   39.9060   32.2560   45.4470 C   0  0  0  0  0  0  0  0  0  0  0  0
   39.3940   33.2000   44.5820 C   0  0  0  0  0  0  0  0  0  0  0  0
   39.4680   32.9930   43.1800 C   0  0  0  0  0  0  0  0  0  0  0  0
   40.0670   31.8250   42.7760 N   0  0  0  0  0  0  0  0  0  0  0  0
   40.5620   30.9150   43.6660 C   0  0  0  0  0  0  0  0  0  0  0  0
   40.4760   31.1430   44.9700 N   0  0  0  0  0  0  0  0  0  0  0  0
   41.1660   29.6480   41.7260 C   0  0  0  0  0  0  0  0  0  0  0  0
   40.6840   30.5200   40.9150 O   0  0  0  0  0  0  0  0  0  0  0  0
   41.1690   29.7240   43.1560 N   0  0  0  0  0  0  0  0  0  0  0  0
   38.9140   34.1340   44.8650 H   0  0  0  0  0  0  0  0  0  0  0  0
   39.0790   33.7080   42.4860 H   0  0  0  0  0  0  0  0  0  0  0  0
   41.6030   28.7830   41.2390 H   0  0  0  0  0  0  0  0  0  0  0  0
   41.5610   29.0120   43.7740 H   0  0  0  0  0  0  0  0  0  0  0  0
  1  4  1  0  0  0  0
  2  1  1  0  0  0  0
  3  1  1  0  0  0  0
  4  6  1  0  0  0  0
  4  5  1  0  0  0  0
  4  7  1  0  0  0  0
  7 10  1  0  0  0  0
  7  9  1  0  0  0  0
  8  7  1  0  0  0  0
 10 13  1  0  0  0  0
 11 12  1  0  0  0  0
 12 19  2  0  0  0  0
 12 13  1  0  0  0  0
 13 14  2  0  0  0  0
 14 16  1  0  0  0  0
 14 15  1  0  0  0  0
 17 18  1  0  0  0  0
 17 16  2  0  0  0  0
 19 17  1  0  0  0  0
 20 19  1  0  0  0  0
 21  1  1  0  0  0  0
 22 21  1  0  0  0  0
 23 31  1  0  0  0  0
 23 22  2  0  0  0  0
 24 23  1  0  0  0  0
 25 24  2  0  0  0  0
 25 26  1  0  0  0  0
 26 27  2  0  0  0  0
 27 22  1  0  0  0  0
 28 30  1  0  0  0  0
 29 28  2  0  0  0  0
 30 26  1  0  0  0  0
 30 34  1  0  0  0  0
 32 24  1  0  0  0  0
 33 28  1  0  0  0  0
M  END
>  <minimizedAffinity>
-2.92021132

>  <minimizedRMSD>
2.89173555

$$$$
