
 OpenBabel03272501413D

 46 50  0  0  1  0  0  0  0  0999 V2000
   35.7580   24.9970   30.8500 C   0  0  0  0  0  0  0  0  0  0  0  0
   36.9770   24.4640   31.2050 C   0  0  0  0  0  0  0  0  0  0  0  0
   37.8980   25.1530   32.0100 C   0  0  0  0  0  0  0  0  0  0  0  0
   37.5520   26.3430   32.4260 N   0  0  0  0  0  0  0  0  0  0  0  0
   36.3330   26.8620   32.0650 C   0  0  0  0  0  0  0  0  0  0  0  0
   35.4670   26.2120   31.3020 N   0  0  0  0  0  0  0  0  0  0  0  0
   35.0540   24.4700   30.2330 H   0  0  0  0  0  0  0  0  0  0  0  0
   37.1800   23.4620   30.8140 H   0  0  0  0  0  0  0  0  0  0  0  0
   35.9210   28.1850   32.5360 C   0  0  0  0  0  0  0  0  0  0  0  0
   35.4920   29.2940   31.8510 C   0  0  0  0  0  0  0  0  0  0  0  0
   35.1560   30.4060   32.5270 C   0  0  0  0  0  0  0  0  0  0  0  0
   35.2670   30.3600   33.9150 C   0  0  0  0  0  0  0  0  0  0  0  0
   35.8740   28.6610   34.2420 S   0  0  0  0  0  0  0  0  0  0  0  0
   35.4470   29.2110   30.7720 H   0  0  0  0  0  0  0  0  0  0  0  0
   34.8100   31.3270   32.1050 H   0  0  0  0  0  0  0  0  0  0  0  0
   32.7600   29.8280   35.5020 Cl  0  0  0  0  0  0  0  0  0  0  0  0
   33.8790   31.1530   35.7370 C   0  0  0  0  0  0  0  0  0  0  0  0
   35.0060   31.3250   34.9640 C   0  0  0  0  0  0  0  0  0  0  0  0
   35.9290   32.3090   35.0620 C   0  0  0  0  0  0  0  0  0  0  0  0
   36.7980   32.4060   34.4370 H   0  0  0  0  0  0  0  0  0  0  0  0
   35.7300   33.2730   36.0600 C   0  0  0  0  0  3  0  0  0  0  0  0
   34.6060   33.1670   36.8870 C   0  0  0  0  0  0  0  0  0  0  0  0
   34.3230   34.3590   38.1490 Cl  0  0  0  0  0  0  0  0  0  0  0  0
   33.6980   32.1190   36.7210 C   0  0  0  0  0  0  0  0  0  0  0  0
   32.8170   32.0190   37.3520 H   0  0  0  0  0  0  0  0  0  0  0  0
   39.1580   24.4940   32.1980 C   0  0  1  0  0  0  0  0  0  0  0  0
   39.8520   25.4040   31.9750 H   0  0  0  0  0  0  0  0  0  0  0  0
   39.4970   24.0760   33.6130 C   0  0  2  0  0  0  0  0  0  0  0  0
   39.0560   22.6220   33.7630 C   0  0  0  0  0  0  0  0  0  0  0  0
   38.4490   23.7380   34.5430 C   0  0  1  0  0  0  0  0  0  0  0  0
   40.5730   24.2380   33.8610 H   0  0  0  0  0  0  0  0  0  0  0  0
   38.3440   22.1290   33.0890 H   0  0  0  0  0  0  0  0  0  0  0  0
   39.7420   21.9160   34.2460 H   0  0  0  0  0  0  0  0  0  0  0  0
   37.4640   24.1820   34.2920 H   0  0  0  0  0  0  0  0  0  0  0  0
   38.6090   23.5960   35.9980 C   0  0  0  0  0  0  0  0  0  0  0  0
   39.7030   22.9080   36.4540 C   0  0  0  0  0  0  0  0  0  0  0  0
   39.8400   22.8140   37.8170 C   0  0  0  0  0  0  0  0  0  0  0  0
   38.9500   23.3690   38.7140 C   0  0  0  0  0  0  0  0  0  0  0  0
   37.8620   24.0540   38.2130 C   0  0  0  0  0  0  0  0  0  0  0  0
   37.7110   24.1550   36.8790 N   0  0  0  0  0  0  0  0  0  0  0  0
   40.4230   22.4600   35.7880 H   0  0  0  0  0  0  0  0  0  0  0  0
   40.7020   22.2710   38.2220 H   0  0  0  0  0  0  0  0  0  0  0  0
   39.1280   23.2520   39.7590 H   0  0  0  0  0  0  0  0  0  0  0  0
   37.1450   24.5000   38.8870 H   0  0  0  0  0  0  0  0  0  0  0  0
   39.6840   23.7260   31.2810 O   0  0  0  0  0  0  0  0  0  0  0  0
   39.0050   23.2710   30.7240 H   0  0  0  0  0  0  0  0  0  0  0  0
  1  2  2  0  0  0  0
  1  6  1  0  0  0  0
  2  3  1  0  0  0  0
  3 26  1  0  0  0  0
  3  4  2  0  0  0  0
  5  4  1  0  0  0  0
  5  9  1  0  0  0  0
  6  5  2  0  0  0  0
  7  1  1  0  0  0  0
  8  2  1  0  0  0  0
  9 13  1  0  0  0  0
 10 11  1  0  0  0  0
 10  9  2  0  0  0  0
 11 12  2  0  0  0  0
 12 13  1  0  0  0  0
 12 18  1  0  0  0  0
 14 10  1  0  0  0  0
 15 11  1  0  0  0  0
 16 17  1  0  0  0  0
 17 24  1  0  0  0  0
 18 19  1  0  0  0  0
 18 17  2  0  0  0  0
 19 21  2  0  0  0  0
 20 19  1  0  0  0  0
 21 22  1  0  0  0  0
 22 23  1  0  0  0  0
 24 22  2  0  0  0  0
 24 25  1  0  0  0  0
 26 27  1  6  0  0  0
 26 28  1  0  0  0  0
 28 29  1  0  0  0  0
 28 31  1  1  0  0  0
 28 30  1  0  0  0  0
 29 33  1  0  0  0  0
 29 30  1  0  0  0  0
 30 34  1  6  0  0  0
 30 35  1  0  0  0  0
 32 29  1  0  0  0  0
 35 36  2  0  0  0  0
 35 40  1  0  0  0  0
 36 37  1  0  0  0  0
 37 42  1  0  0  0  0
 37 38  2  0  0  0  0
 38 43  1  0  0  0  0
 39 38  1  0  0  0  0
 39 44  1  0  0  0  0
 40 39  2  0  0  0  0
 41 36  1  0  0  0  0
 45 26  1  0  0  0  0
 46 45  1  0  0  0  0
M  END
>  <minimizedAffinity>
-6.66867208

$$$$

 OpenBabel03272501413D

 46 50  0  0  1  0  0  0  0  0999 V2000
   35.4760   29.0310   31.6940 C   0  0  0  0  0  0  0  0  0  0  0  0
   34.5120   29.7570   32.3540 C   0  0  0  0  0  0  0  0  0  0  0  0
   34.3980   29.7690   33.7530 C   0  0  0  0  0  0  0  0  0  0  0  0
   35.2610   29.0550   34.4260 N   0  0  0  0  0  0  0  0  0  0  0  0
   36.2190   28.3350   33.7550 C   0  0  0  0  0  0  0  0  0  0  0  0
   36.3220   28.3220   32.4350 N   0  0  0  0  0  0  0  0  0  0  0  0
   35.5620   29.0200   30.6230 H   0  0  0  0  0  0  0  0  0  0  0  0
   33.8340   30.3280   31.7090 H   0  0  0  0  0  0  0  0  0  0  0  0
   37.2040   27.5440   34.4930 C   0  0  0  0  0  0  0  0  0  0  0  0
   37.9200   27.8240   35.6300 C   0  0  0  0  0  0  0  0  0  0  0  0
   38.7710   26.9090   36.1250 C   0  0  0  0  0  0  0  0  0  0  0  0
   38.8750   25.7040   35.4330 C   0  0  0  0  0  0  0  0  0  0  0  0
   37.7090   25.9090   34.0340 S   0  0  0  0  0  0  0  0  0  0  0  0
   37.7540   28.7950   36.0800 H   0  0  0  0  0  0  0  0  0  0  0  0
   39.3790   27.0130   37.0000 H   0  0  0  0  0  0  0  0  0  0  0  0
   37.5260   23.6170   37.1380 Cl  0  0  0  0  0  0  0  0  0  0  0  0
   39.1140   23.5000   36.4130 C   0  0  0  0  0  0  0  0  0  0  0  0
   39.6600   24.5040   35.6440 C   0  0  0  0  0  0  0  0  0  0  0  0
   40.8710   24.5150   35.0420 C   0  0  0  0  0  0  0  0  0  0  0  0
   41.2600   25.3210   34.4480 H   0  0  0  0  0  0  0  0  0  0  0  0
   41.6770   23.3780   35.2100 C   0  0  0  0  0  3  0  0  0  0  0  0
   41.1910   22.3150   35.9790 C   0  0  0  0  0  0  0  0  0  0  0  0
   42.1730   20.8740   36.2120 Cl  0  0  0  0  0  0  0  0  0  0  0  0
   39.9270   22.3830   36.5680 C   0  0  0  0  0  0  0  0  0  0  0  0
   39.5320   21.5660   37.1700 H   0  0  0  0  0  0  0  0  0  0  0  0
   33.2760   30.4980   34.2690 C   0  0  1  0  0  0  0  0  0  0  0  0
   32.7130   29.6030   34.7620 H   0  0  0  0  0  0  0  0  0  0  0  0
   33.5580   31.4610   35.4030 C   0  0  2  0  0  0  0  0  0  0  0  0
   32.8430   30.9150   36.6360 C   0  0  0  0  0  0  0  0  0  0  0  0
   32.4860   32.2150   36.0010 C   0  0  1  0  0  0  0  0  0  0  0  0
   34.6510   31.6250   35.5630 H   0  0  0  0  0  0  0  0  0  0  0  0
   32.0340   30.1760   36.5940 H   0  0  0  0  0  0  0  0  0  0  0  0
   33.3880   30.8930   37.5880 H   0  0  0  0  0  0  0  0  0  0  0  0
   31.6020   32.3410   35.3430 H   0  0  0  0  0  0  0  0  0  0  0  0
   32.6480   33.3720   36.8940 C   0  0  0  0  0  0  0  0  0  0  0  0
   31.5630   34.1880   37.0820 C   0  0  0  0  0  0  0  0  0  0  0  0
   31.7350   35.2450   37.9420 C   0  0  0  0  0  0  0  0  0  0  0  0
   32.9190   35.5070   38.6010 C   0  0  0  0  0  0  0  0  0  0  0  0
   33.9870   34.6620   38.3830 C   0  0  0  0  0  0  0  0  0  0  0  0
   33.8360   33.6200   37.5430 N   0  0  0  0  0  0  0  0  0  0  0  0
   30.6200   34.0190   36.5880 H   0  0  0  0  0  0  0  0  0  0  0  0
   30.8910   35.9210   38.1190 H   0  0  0  0  0  0  0  0  0  0  0  0
   32.9720   36.3490   39.2530 H   0  0  0  0  0  0  0  0  0  0  0  0
   34.9290   34.8380   38.8830 H   0  0  0  0  0  0  0  0  0  0  0  0
   32.2710   30.8560   33.5120 O   0  0  0  0  0  0  0  0  0  0  0  0
   32.5370   31.0220   32.5740 H   0  0  0  0  0  0  0  0  0  0  0  0
  1  2  2  0  0  0  0
  1  6  1  0  0  0  0
  2  3  1  0  0  0  0
  3 26  1  0  0  0  0
  3  4  2  0  0  0  0
  5  4  1  0  0  0  0
  5  9  1  0  0  0  0
  6  5  2  0  0  0  0
  7  1  1  0  0  0  0
  8  2  1  0  0  0  0
  9 10  2  0  0  0  0
 10 14  1  0  0  0  0
 10 11  1  0  0  0  0
 11 15  1  0  0  0  0
 12 18  1  0  0  0  0
 12 11  2  0  0  0  0
 13  9  1  0  0  0  0
 13 12  1  0  0  0  0
 17 24  1  0  0  0  0
 17 16  1  0  0  0  0
 18 17  2  0  0  0  0
 19 21  2  0  0  0  0
 19 18  1  0  0  0  0
 20 19  1  0  0  0  0
 21 22  1  0  0  0  0
 22 23  1  0  0  0  0
 22 24  2  0  0  0  0
 24 25  1  0  0  0  0
 26 27  1  1  0  0  0
 26 28  1  0  0  0  0
 28 31  1  1  0  0  0
 28 30  1  0  0  0  0
 28 29  1  0  0  0  0
 29 33  1  0  0  0  0
 30 34  1  6  0  0  0
 30 29  1  0  0  0  0
 30 35  1  0  0  0  0
 32 29  1  0  0  0  0
 35 36  2  0  0  0  0
 35 40  1  0  0  0  0
 36 37  1  0  0  0  0
 37 42  1  0  0  0  0
 37 38  2  0  0  0  0
 38 43  1  0  0  0  0
 39 38  1  0  0  0  0
 39 44  1  0  0  0  0
 40 39  2  0  0  0  0
 41 36  1  0  0  0  0
 45 26  1  0  0  0  0
 46 45  1  0  0  0  0
M  END
>  <minimizedAffinity>
-6.27676439

$$$$

 OpenBabel03272501413D

 46 50  0  0  1  0  0  0  0  0999 V2000
   37.1960   28.1140   30.1190 C   0  0  0  0  0  0  0  0  0  0  0  0
   37.3420   26.9020   30.7550 C   0  0  0  0  0  0  0  0  0  0  0  0
   36.9160   26.6830   32.0740 C   0  0  0  0  0  0  0  0  0  0  0  0
   36.3570   27.6890   32.6940 N   0  0  0  0  0  0  0  0  0  0  0  0
   36.2160   28.8920   32.0480 C   0  0  0  0  0  0  0  0  0  0  0  0
   36.6230   29.0980   30.8040 N   0  0  0  0  0  0  0  0  0  0  0  0
   37.5230   28.2820   29.1100 H   0  0  0  0  0  0  0  0  0  0  0  0
   37.8180   26.1160   30.1580 H   0  0  0  0  0  0  0  0  0  0  0  0
   35.5770   30.0250   32.7200 C   0  0  0  0  0  0  0  0  0  0  0  0
   34.7250   30.9920   32.2480 C   0  0  0  0  0  0  0  0  0  0  0  0
   34.2590   31.9360   33.0840 C   0  0  0  0  0  0  0  0  0  0  0  0
   34.6820   31.8690   34.4100 C   0  0  0  0  0  0  0  0  0  0  0  0
   35.7810   30.4030   34.4390 S   0  0  0  0  0  0  0  0  0  0  0  0
   34.4680   30.9400   31.1970 H   0  0  0  0  0  0  0  0  0  0  0  0
   33.5940   32.7350   32.8320 H   0  0  0  0  0  0  0  0  0  0  0  0
   32.6320   30.7000   36.2840 Cl  0  0  0  0  0  0  0  0  0  0  0  0
   33.4820   32.2160   36.4870 C   0  0  0  0  0  0  0  0  0  0  0  0
   34.4080   32.6800   35.5800 C   0  0  0  0  0  0  0  0  0  0  0  0
   35.1170   33.8310   35.6410 C   0  0  0  0  0  0  0  0  0  0  0  0
   35.8320   34.1560   34.9090 H   0  0  0  0  0  0  0  0  0  0  0  0
   34.8950   34.6580   36.7520 C   0  0  0  0  0  3  0  0  0  0  0  0
   33.9670   34.2540   37.7190 C   0  0  0  0  0  0  0  0  0  0  0  0
   33.6620   35.2650   39.1260 Cl  0  0  0  0  0  0  0  0  0  0  0  0
   33.2750   33.0490   37.5810 C   0  0  0  0  0  0  0  0  0  0  0  0
   32.5500   32.7170   38.3220 H   0  0  0  0  0  0  0  0  0  0  0  0
   37.2370   25.3940   32.6150 C   0  0  1  0  0  0  0  0  0  0  0  0
   38.1880   25.1810   31.9750 H   0  0  0  0  0  0  0  0  0  0  0  0
   37.7120   25.3630   34.0520 C   0  0  2  0  0  0  0  0  0  0  0  0
   39.2290   25.1950   34.0130 C   0  0  0  0  0  0  0  0  0  0  0  0
   38.3140   24.1710   34.5930 C   0  0  1  0  0  0  0  0  0  0  0  0
   37.3820   26.2580   34.6320 H   0  0  0  0  0  0  0  0  0  0  0  0
   39.7800   24.8350   33.1360 H   0  0  0  0  0  0  0  0  0  0  0  0
   39.8400   25.8270   34.6680 H   0  0  0  0  0  0  0  0  0  0  0  0
   38.0330   23.2410   34.0580 H   0  0  0  0  0  0  0  0  0  0  0  0
   38.5540   23.9050   36.0200 C   0  0  0  0  0  0  0  0  0  0  0  0
   37.7060   24.4860   36.9270 C   0  0  0  0  0  0  0  0  0  0  0  0
   37.9370   24.1990   38.2500 C   0  0  0  0  0  0  0  0  0  0  0  0
   38.9560   23.3760   38.6850 C   0  0  0  0  0  0  0  0  0  0  0  0
   39.7870   22.8120   37.7390 C   0  0  0  0  0  0  0  0  0  0  0  0
   39.5750   23.0820   36.4370 N   0  0  0  0  0  0  0  0  0  0  0  0
   36.8970   25.1340   36.6300 H   0  0  0  0  0  0  0  0  0  0  0  0
   37.2810   24.6440   39.0060 H   0  0  0  0  0  0  0  0  0  0  0  0
   39.0700   23.2030   39.7310 H   0  0  0  0  0  0  0  0  0  0  0  0
   40.5950   22.1640   38.0460 H   0  0  0  0  0  0  0  0  0  0  0  0
   36.6090   24.3080   32.2440 O   0  0  0  0  0  0  0  0  0  0  0  0
   35.6710   24.4780   31.9810 H   0  0  0  0  0  0  0  0  0  0  0  0
  1  2  2  0  0  0  0
  1  6  1  0  0  0  0
  2  3  1  0  0  0  0
  3 26  1  0  0  0  0
  3  4  2  0  0  0  0
  5  4  1  0  0  0  0
  5  9  1  0  0  0  0
  6  5  2  0  0  0  0
  7  1  1  0  0  0  0
  8  2  1  0  0  0  0
  9 13  1  0  0  0  0
 10  9  2  0  0  0  0
 10 11  1  0  0  0  0
 11 12  2  0  0  0  0
 12 13  1  0  0  0  0
 12 18  1  0  0  0  0
 14 10  1  0  0  0  0
 15 11  1  0  0  0  0
 16 17  1  0  0  0  0
 17 24  1  0  0  0  0
 18 19  1  0  0  0  0
 18 17  2  0  0  0  0
 19 21  2  0  0  0  0
 20 19  1  0  0  0  0
 21 22  1  0  0  0  0
 22 23  1  0  0  0  0
 24 22  2  0  0  0  0
 24 25  1  0  0  0  0
 26 27  1  6  0  0  0
 26 28  1  0  0  0  0
 28 30  1  0  0  0  0
 28 31  1  1  0  0  0
 29 28  1  0  0  0  0
 29 30  1  0  0  0  0
 29 33  1  0  0  0  0
 30 34  1  6  0  0  0
 30 35  1  0  0  0  0
 32 29  1  0  0  0  0
 35 40  2  0  0  0  0
 35 36  1  0  0  0  0
 36 37  2  0  0  0  0
 37 38  1  0  0  0  0
 37 42  1  0  0  0  0
 38 43  1  0  0  0  0
 39 44  1  0  0  0  0
 39 38  2  0  0  0  0
 40 39  1  0  0  0  0
 41 36  1  0  0  0  0
 45 26  1  0  0  0  0
 46 45  1  0  0  0  0
M  END
>  <minimizedAffinity>
-6.24189186

$$$$

 OpenBabel03272501413D

 46 50  0  0  1  0  0  0  0  0999 V2000
   40.0410   26.8180   30.8540 C   0  0  0  0  0  0  0  0  0  0  0  0
   39.8160   25.4930   31.1470 C   0  0  0  0  0  0  0  0  0  0  0  0
   38.6620   25.0500   31.8120 C   0  0  0  0  0  0  0  0  0  0  0  0
   37.7840   25.9580   32.1490 N   0  0  0  0  0  0  0  0  0  0  0  0
   38.0210   27.2770   31.8510 C   0  0  0  0  0  0  0  0  0  0  0  0
   39.1120   27.6930   31.2260 N   0  0  0  0  0  0  0  0  0  0  0  0
   40.9250   27.1570   30.3460 H   0  0  0  0  0  0  0  0  0  0  0  0
   40.6030   24.8020   30.8240 H   0  0  0  0  0  0  0  0  0  0  0  0
   37.0410   28.3060   32.2040 C   0  0  0  0  0  0  0  0  0  0  0  0
   36.6570   29.4500   31.5520 C   0  0  0  0  0  0  0  0  0  0  0  0
   35.7110   30.2390   32.0890 C   0  0  0  0  0  0  0  0  0  0  0  0
   35.1670   29.8330   33.3060 C   0  0  0  0  0  0  0  0  0  0  0  0
   36.0520   28.2710   33.6740 S   0  0  0  0  0  0  0  0  0  0  0  0
   37.1520   29.6610   30.6110 H   0  0  0  0  0  0  0  0  0  0  0  0
   35.3320   31.1500   31.6750 H   0  0  0  0  0  0  0  0  0  0  0  0
   36.2560   31.1760   35.7740 Cl  0  0  0  0  0  0  0  0  0  0  0  0
   34.5700   31.0280   35.3280 C   0  0  0  0  0  0  0  0  0  0  0  0
   34.1540   30.3960   34.1770 C   0  0  0  0  0  0  0  0  0  0  0  0
   32.8850   30.2270   33.7420 C   0  0  0  0  0  0  0  0  0  0  0  0
   32.6030   29.7260   32.8350 H   0  0  0  0  0  0  0  0  0  0  0  0
   31.8610   30.7520   34.5450 C   0  0  0  0  0  3  0  0  0  0  0  0
   32.2040   31.4090   35.7320 C   0  0  0  0  0  0  0  0  0  0  0  0
   30.9470   32.0800   36.7630 Cl  0  0  0  0  0  0  0  0  0  0  0  0
   33.5410   31.5410   36.1100 C   0  0  0  0  0  0  0  0  0  0  0  0
   33.8290   32.0490   37.0300 H   0  0  0  0  0  0  0  0  0  0  0  0
   38.6350   23.6510   32.1260 C   0  0  1  0  0  0  0  0  0  0  0  0
   39.5510   23.3220   31.4840 H   0  0  0  0  0  0  0  0  0  0  0  0
   38.9910   23.2700   33.5470 C   0  0  2  0  0  0  0  0  0  0  0  0
   37.9440   22.2610   34.0120 C   0  0  0  0  0  0  0  0  0  0  0  0
   38.1070   23.6060   34.6340 C   0  0  1  0  0  0  0  0  0  0  0  0
   40.0390   22.8940   33.6400 H   0  0  0  0  0  0  0  0  0  0  0  0
   36.9720   22.1250   33.5240 H   0  0  0  0  0  0  0  0  0  0  0  0
   38.2850   21.3610   34.5380 H   0  0  0  0  0  0  0  0  0  0  0  0
   37.4280   24.4560   34.4170 H   0  0  0  0  0  0  0  0  0  0  0  0
   38.4500   23.5570   36.0630 C   0  0  0  0  0  0  0  0  0  0  0  0
   37.6400   24.2380   36.9360 C   0  0  0  0  0  0  0  0  0  0  0  0
   37.9690   24.1520   38.2670 C   0  0  0  0  0  0  0  0  0  0  0  0
   39.0460   23.4320   38.7420 C   0  0  0  0  0  0  0  0  0  0  0  0
   39.8340   22.7610   37.8300 C   0  0  0  0  0  0  0  0  0  0  0  0
   39.5270   22.8340   36.5210 N   0  0  0  0  0  0  0  0  0  0  0  0
   36.7900   24.8120   36.6070 H   0  0  0  0  0  0  0  0  0  0  0  0
   37.3460   24.6830   38.9960 H   0  0  0  0  0  0  0  0  0  0  0  0
   39.2340   23.4150   39.7910 H   0  0  0  0  0  0  0  0  0  0  0  0
   40.6850   22.1880   38.1690 H   0  0  0  0  0  0  0  0  0  0  0  0
   37.7970   22.8260   31.5540 O   0  0  0  0  0  0  0  0  0  0  0  0
   36.9440   23.2590   31.3010 H   0  0  0  0  0  0  0  0  0  0  0  0
  1  2  2  0  0  0  0
  1  6  1  0  0  0  0
  2  3  1  0  0  0  0
  3 26  1  0  0  0  0
  3  4  2  0  0  0  0
  5  4  1  0  0  0  0
  5  9  1  0  0  0  0
  6  5  2  0  0  0  0
  7  1  1  0  0  0  0
  8  2  1  0  0  0  0
  9 13  1  0  0  0  0
 10 11  1  0  0  0  0
 10  9  2  0  0  0  0
 11 12  2  0  0  0  0
 12 13  1  0  0  0  0
 12 18  1  0  0  0  0
 14 10  1  0  0  0  0
 15 11  1  0  0  0  0
 17 16  1  0  0  0  0
 17 24  1  0  0  0  0
 18 17  2  0  0  0  0
 19 18  1  0  0  0  0
 19 21  2  0  0  0  0
 20 19  1  0  0  0  0
 21 22  1  0  0  0  0
 22 24  2  0  0  0  0
 22 23  1  0  0  0  0
 24 25  1  0  0  0  0
 26 27  1  6  0  0  0
 26 28  1  0  0  0  0
 28 31  1  1  0  0  0
 28 29  1  0  0  0  0
 28 30  1  0  0  0  0
 29 33  1  0  0  0  0
 29 30  1  0  0  0  0
 30 34  1  6  0  0  0
 30 35  1  0  0  0  0
 32 29  1  0  0  0  0
 35 40  2  0  0  0  0
 35 36  1  0  0  0  0
 36 37  2  0  0  0  0
 37 38  1  0  0  0  0
 37 42  1  0  0  0  0
 38 43  1  0  0  0  0
 39 44  1  0  0  0  0
 39 38  2  0  0  0  0
 40 39  1  0  0  0  0
 41 36  1  0  0  0  0
 45 26  1  0  0  0  0
 46 45  1  0  0  0  0
M  END
>  <minimizedAffinity>
-6.12260294

$$$$

 OpenBabel03272501413D

 46 50  0  0  1  0  0  0  0  0999 V2000
   35.9180   25.6400   31.4170 C   0  0  0  0  0  0  0  0  0  0  0  0
   35.6000   26.9760   31.4970 C   0  0  0  0  0  0  0  0  0  0  0  0
   36.2740   27.8640   32.3500 C   0  0  0  0  0  0  0  0  0  0  0  0
   37.2400   27.3720   33.0800 N   0  0  0  0  0  0  0  0  0  0  0  0
   37.5480   26.0370   32.9890 C   0  0  0  0  0  0  0  0  0  0  0  0
   36.9090   25.1990   32.1870 N   0  0  0  0  0  0  0  0  0  0  0  0
   35.4030   24.9600   30.7650 H   0  0  0  0  0  0  0  0  0  0  0  0
   34.7800   27.3010   30.8480 H   0  0  0  0  0  0  0  0  0  0  0  0
   38.6380   25.4710   33.7850 C   0  0  0  0  0  0  0  0  0  0  0  0
   39.6380   26.0740   34.5070 C   0  0  0  0  0  0  0  0  0  0  0  0
   40.5280   25.3200   35.1730 C   0  0  0  0  0  0  0  0  0  0  0  0
   40.3740   23.9380   35.0870 C   0  0  0  0  0  0  0  0  0  0  0  0
   38.9040   23.7340   34.0120 S   0  0  0  0  0  0  0  0  0  0  0  0
   39.6550   27.1580   34.4990 H   0  0  0  0  0  0  0  0  0  0  0  0
   41.3460   25.6750   35.7650 H   0  0  0  0  0  0  0  0  0  0  0  0
   39.4880   23.1230   37.8500 Cl  0  0  0  0  0  0  0  0  0  0  0  0
   40.7660   22.3860   36.9070 C   0  0  0  0  0  0  0  0  0  0  0  0
   41.1100   22.8210   35.6460 C   0  0  0  0  0  0  0  0  0  0  0  0
   42.0750   22.3250   34.8380 C   0  0  0  0  0  0  0  0  0  0  0  0
   42.3110   22.6950   33.8580 H   0  0  0  0  0  0  0  0  0  0  0  0
   42.8200   21.2420   35.3270 C   0  0  0  0  0  3  0  0  0  0  0  0
   42.5300   20.7430   36.6020 C   0  0  0  0  0  0  0  0  0  0  0  0
   43.4440   19.3860   37.2470 Cl  0  0  0  0  0  0  0  0  0  0  0  0
   41.5160   21.3120   37.3740 C   0  0  0  0  0  0  0  0  0  0  0  0
   41.2750   20.9390   38.3680 H   0  0  0  0  0  0  0  0  0  0  0  0
   35.7480   29.1980   32.3840 C   0  0  1  0  0  0  0  0  0  0  0  0
   34.8080   29.0200   31.7160 H   0  0  0  0  0  0  0  0  0  0  0  0
   35.2040   29.6770   33.7120 C   0  0  2  0  0  0  0  0  0  0  0  0
   33.6820   29.6870   33.5910 C   0  0  0  0  0  0  0  0  0  0  0  0
   34.4870   30.9240   33.7980 C   0  0  1  0  0  0  0  0  0  0  0  0
   35.5740   29.0680   34.5720 H   0  0  0  0  0  0  0  0  0  0  0  0
   33.1480   29.6740   32.6330 H   0  0  0  0  0  0  0  0  0  0  0  0
   33.0910   29.2660   34.4130 H   0  0  0  0  0  0  0  0  0  0  0  0
   34.7200   31.6360   32.9800 H   0  0  0  0  0  0  0  0  0  0  0  0
   34.1600   31.6400   35.0410 C   0  0  0  0  0  0  0  0  0  0  0  0
   35.1190   31.6900   36.0190 C   0  0  0  0  0  0  0  0  0  0  0  0
   34.7960   32.3870   37.1570 C   0  0  0  0  0  0  0  0  0  0  0  0
   33.5830   33.0180   37.3460 C   0  0  0  0  0  0  0  0  0  0  0  0
   32.6450   32.9440   36.3370 C   0  0  0  0  0  0  0  0  0  0  0  0
   32.9460   32.2640   35.2140 N   0  0  0  0  0  0  0  0  0  0  0  0
   36.0790   31.2110   35.9110 H   0  0  0  0  0  0  0  0  0  0  0  0
   35.5360   32.4500   37.9620 H   0  0  0  0  0  0  0  0  0  0  0  0
   33.4090   33.5400   38.2590 H   0  0  0  0  0  0  0  0  0  0  0  0
   31.6860   33.4260   36.4530 H   0  0  0  0  0  0  0  0  0  0  0  0
   36.2330   30.1560   31.6370 O   0  0  0  0  0  0  0  0  0  0  0  0
   37.1980   30.0440   31.4490 H   0  0  0  0  0  0  0  0  0  0  0  0
  1  2  2  0  0  0  0
  1  6  1  0  0  0  0
  2  3  1  0  0  0  0
  3 26  1  0  0  0  0
  3  4  2  0  0  0  0
  5  4  1  0  0  0  0
  5  9  1  0  0  0  0
  6  5  2  0  0  0  0
  7  1  1  0  0  0  0
  8  2  1  0  0  0  0
  9 13  1  0  0  0  0
  9 10  2  0  0  0  0
 10 11  1  0  0  0  0
 11 15  1  0  0  0  0
 12 11  2  0  0  0  0
 12 18  1  0  0  0  0
 13 12  1  0  0  0  0
 14 10  1  0  0  0  0
 17 24  1  0  0  0  0
 17 16  1  0  0  0  0
 18 17  2  0  0  0  0
 19 21  2  0  0  0  0
 19 18  1  0  0  0  0
 20 19  1  0  0  0  0
 21 22  1  0  0  0  0
 22 23  1  0  0  0  0
 22 24  2  0  0  0  0
 24 25  1  0  0  0  0
 26 27  1  6  0  0  0
 26 28  1  0  0  0  0
 28 30  1  0  0  0  0
 28 31  1  1  0  0  0
 29 28  1  0  0  0  0
 29 30  1  0  0  0  0
 29 33  1  0  0  0  0
 30 34  1  6  0  0  0
 30 35  1  0  0  0  0
 32 29  1  0  0  0  0
 35 40  2  0  0  0  0
 35 36  1  0  0  0  0
 36 37  2  0  0  0  0
 37 38  1  0  0  0  0
 37 42  1  0  0  0  0
 38 43  1  0  0  0  0
 39 44  1  0  0  0  0
 39 38  2  0  0  0  0
 40 39  1  0  0  0  0
 41 36  1  0  0  0  0
 45 26  1  0  0  0  0
 46 45  1  0  0  0  0
M  END
>  <minimizedAffinity>
-6.07424402

$$$$

 OpenBabel03272501413D

 46 50  0  0  1  0  0  0  0  0999 V2000
   37.4240   28.0110   30.3170 C   0  0  0  0  0  0  0  0  0  0  0  0
   36.3780   28.8510   30.6260 C   0  0  0  0  0  0  0  0  0  0  0  0
   35.9460   29.0690   31.9440 C   0  0  0  0  0  0  0  0  0  0  0  0
   36.5860   28.4370   32.8930 N   0  0  0  0  0  0  0  0  0  0  0  0
   37.6280   27.6030   32.5710 C   0  0  0  0  0  0  0  0  0  0  0  0
   38.0320   27.3960   31.3260 N   0  0  0  0  0  0  0  0  0  0  0  0
   37.7540   27.8440   29.3090 H   0  0  0  0  0  0  0  0  0  0  0  0
   35.9030   29.3400   29.7690 H   0  0  0  0  0  0  0  0  0  0  0  0
   38.3680   26.9010   33.6200 C   0  0  0  0  0  0  0  0  0  0  0  0
   38.6790   27.2670   34.9060 C   0  0  0  0  0  0  0  0  0  0  0  0
   39.3730   26.4240   35.6900 C   0  0  0  0  0  0  0  0  0  0  0  0
   39.7420   25.2020   35.1330 C   0  0  0  0  0  0  0  0  0  0  0  0
   39.0630   25.2820   33.4320 S   0  0  0  0  0  0  0  0  0  0  0  0
   38.3380   28.2440   35.2280 H   0  0  0  0  0  0  0  0  0  0  0  0
   39.6730   26.5990   36.7030 H   0  0  0  0  0  0  0  0  0  0  0  0
   42.7120   25.3030   34.6320 Cl  0  0  0  0  0  0  0  0  0  0  0  0
   41.8380   24.0290   35.4540 C   0  0  0  0  0  0  0  0  0  0  0  0
   40.4740   24.0590   35.6420 C   0  0  0  0  0  0  0  0  0  0  0  0
   39.7060   23.1330   36.2600 C   0  0  0  0  0  0  0  0  0  0  0  0
   38.6410   23.1960   36.3860 H   0  0  0  0  0  0  0  0  0  0  0  0
   40.3600   22.0030   36.7750 C   0  0  0  0  0  3  0  0  0  0  0  0
   41.7480   21.8990   36.6220 C   0  0  0  0  0  0  0  0  0  0  0  0
   42.6020   20.4980   37.2540 Cl  0  0  0  0  0  0  0  0  0  0  0  0
   42.4680   22.9020   35.9710 C   0  0  0  0  0  0  0  0  0  0  0  0
   43.5480   22.8390   35.8410 H   0  0  0  0  0  0  0  0  0  0  0  0
   34.7800   29.8930   32.0770 C   0  0  1  0  0  0  0  0  0  0  0  0
   34.4490   29.8900   30.9590 H   0  0  0  0  0  0  0  0  0  0  0  0
   33.6140   29.2980   32.8370 C   0  0  2  0  0  0  0  0  0  0  0  0
   32.3840   30.1300   32.4840 C   0  0  0  0  0  0  0  0  0  0  0  0
   32.9490   30.0610   33.8620 C   0  0  1  0  0  0  0  0  0  0  0  0
   33.4820   28.2080   32.6340 H   0  0  0  0  0  0  0  0  0  0  0  0
   32.4340   31.1350   32.0470 H   0  0  0  0  0  0  0  0  0  0  0  0
   31.4530   29.6060   32.2390 H   0  0  0  0  0  0  0  0  0  0  0  0
   33.5710   30.8680   34.3000 H   0  0  0  0  0  0  0  0  0  0  0  0
   32.0100   29.5210   34.8580 C   0  0  0  0  0  0  0  0  0  0  0  0
   32.2690   29.7750   36.1800 C   0  0  0  0  0  0  0  0  0  0  0  0
   31.3610   29.2820   37.0850 C   0  0  0  0  0  0  0  0  0  0  0  0
   30.2370   28.5650   36.7260 C   0  0  0  0  0  0  0  0  0  0  0  0
   30.0150   28.3320   35.3850 C   0  0  0  0  0  0  0  0  0  0  0  0
   30.8940   28.8080   34.4830 N   0  0  0  0  0  0  0  0  0  0  0  0
   33.1340   30.3310   36.5030 H   0  0  0  0  0  0  0  0  0  0  0  0
   31.5330   29.4640   38.1520 H   0  0  0  0  0  0  0  0  0  0  0  0
   29.5810   28.2170   37.4900 H   0  0  0  0  0  0  0  0  0  0  0  0
   29.1450   27.7740   35.0690 H   0  0  0  0  0  0  0  0  0  0  0  0
   34.8570   31.1960   32.1650 O   0  0  0  0  0  0  0  0  0  0  0  0
   35.6920   31.5030   32.5970 H   0  0  0  0  0  0  0  0  0  0  0  0
  1  2  2  0  0  0  0
  1  6  1  0  0  0  0
  2  3  1  0  0  0  0
  3 26  1  0  0  0  0
  3  4  2  0  0  0  0
  5  4  1  0  0  0  0
  5  9  1  0  0  0  0
  6  5  2  0  0  0  0
  7  1  1  0  0  0  0
  8  2  1  0  0  0  0
  9 10  2  0  0  0  0
 10 14  1  0  0  0  0
 10 11  1  0  0  0  0
 11 15  1  0  0  0  0
 12 18  1  0  0  0  0
 12 11  2  0  0  0  0
 13  9  1  0  0  0  0
 13 12  1  0  0  0  0
 16 17  1  0  0  0  0
 17 18  2  0  0  0  0
 17 24  1  0  0  0  0
 18 19  1  0  0  0  0
 19 20  1  0  0  0  0
 19 21  2  0  0  0  0
 22 21  1  0  0  0  0
 22 23  1  0  0  0  0
 24 22  2  0  0  0  0
 25 24  1  0  0  0  0
 26 27  1  6  0  0  0
 26 45  1  0  0  0  0
 26 28  1  0  0  0  0
 28 31  1  1  0  0  0
 28 30  1  0  0  0  0
 29 28  1  0  0  0  0
 29 30  1  0  0  0  0
 30 34  1  1  0  0  0
 30 35  1  0  0  0  0
 32 29  1  0  0  0  0
 33 29  1  0  0  0  0
 35 36  1  0  0  0  0
 36 41  1  0  0  0  0
 36 37  2  0  0  0  0
 37 42  1  0  0  0  0
 38 37  1  0  0  0  0
 38 43  1  0  0  0  0
 39 38  2  0  0  0  0
 40 35  2  0  0  0  0
 40 39  1  0  0  0  0
 44 39  1  0  0  0  0
 45 46  1  0  0  0  0
M  END
>  <minimizedAffinity>
-5.98916626

$$$$

 OpenBabel03272501413D

 46 50  0  0  1  0  0  0  0  0999 V2000
   38.3950   27.5960   29.9910 C   0  0  0  0  0  0  0  0  0  0  0  0
   38.3380   26.3830   30.6390 C   0  0  0  0  0  0  0  0  0  0  0  0
   37.5950   26.1860   31.8130 C   0  0  0  0  0  0  0  0  0  0  0  0
   36.9390   27.2150   32.2820 N   0  0  0  0  0  0  0  0  0  0  0  0
   37.0030   28.4190   31.6250 C   0  0  0  0  0  0  0  0  0  0  0  0
   37.7080   28.6040   30.5190 N   0  0  0  0  0  0  0  0  0  0  0  0
   38.9640   27.7470   29.0930 H   0  0  0  0  0  0  0  0  0  0  0  0
   38.9160   25.5780   30.1730 H   0  0  0  0  0  0  0  0  0  0  0  0
   36.2610   29.5770   32.1250 C   0  0  0  0  0  0  0  0  0  0  0  0
   36.1950   30.8720   31.6740 C   0  0  0  0  0  0  0  0  0  0  0  0
   35.4170   31.7620   32.3130 C   0  0  0  0  0  0  0  0  0  0  0  0
   34.7090   31.3010   33.4210 C   0  0  0  0  0  0  0  0  0  0  0  0
   35.1870   29.5360   33.5340 S   0  0  0  0  0  0  0  0  0  0  0  0
   36.7910   31.1120   30.8020 H   0  0  0  0  0  0  0  0  0  0  0  0
   35.2860   32.7930   32.0550 H   0  0  0  0  0  0  0  0  0  0  0  0
   35.9370   32.0630   36.0660 Cl  0  0  0  0  0  0  0  0  0  0  0  0
   34.2750   32.3160   35.5790 C   0  0  0  0  0  0  0  0  0  0  0  0
   33.7910   31.9360   34.3460 C   0  0  0  0  0  0  0  0  0  0  0  0
   32.5320   32.0840   33.8740 C   0  0  0  0  0  0  0  0  0  0  0  0
   32.1960   31.7730   32.9020 H   0  0  0  0  0  0  0  0  0  0  0  0
   31.5990   32.6930   34.7260 C   0  0  0  0  0  3  0  0  0  0  0  0
   32.0150   33.1060   35.9960 C   0  0  0  0  0  0  0  0  0  0  0  0
   30.8720   33.8730   37.0920 Cl  0  0  0  0  0  0  0  0  0  0  0  0
   33.3350   32.9170   36.4090 C   0  0  0  0  0  0  0  0  0  0  0  0
   33.6780   33.2310   37.3940 H   0  0  0  0  0  0  0  0  0  0  0  0
   37.7290   24.8890   32.4110 C   0  0  1  0  0  0  0  0  0  0  0  0
   38.5860   24.4840   31.7330 H   0  0  0  0  0  0  0  0  0  0  0  0
   38.2840   24.8480   33.8190 C   0  0  2  0  0  0  0  0  0  0  0  0
   39.4860   23.9070   33.7930 C   0  0  0  0  0  0  0  0  0  0  0  0
   38.2500   23.6240   34.5790 C   0  0  1  0  0  0  0  0  0  0  0  0
   38.5280   25.8640   34.2130 H   0  0  0  0  0  0  0  0  0  0  0  0
   39.6690   23.1750   32.9970 H   0  0  0  0  0  0  0  0  0  0  0  0
   40.4050   24.2220   34.3010 H   0  0  0  0  0  0  0  0  0  0  0  0
   37.4740   22.9060   34.2430 H   0  0  0  0  0  0  0  0  0  0  0  0
   38.4850   23.5080   36.0260 C   0  0  0  0  0  0  0  0  0  0  0  0
   39.6200   22.8590   36.4370 C   0  0  0  0  0  0  0  0  0  0  0  0
   39.8260   22.7890   37.7930 C   0  0  0  0  0  0  0  0  0  0  0  0
   38.9640   23.3300   38.7250 C   0  0  0  0  0  0  0  0  0  0  0  0
   37.8330   23.9750   38.2690 C   0  0  0  0  0  0  0  0  0  0  0  0
   37.6150   24.0530   36.9420 N   0  0  0  0  0  0  0  0  0  0  0  0
   40.3200   22.4220   35.7430 H   0  0  0  0  0  0  0  0  0  0  0  0
   40.7230   22.2770   38.1620 H   0  0  0  0  0  0  0  0  0  0  0  0
   39.1960   23.2330   39.7610 H   0  0  0  0  0  0  0  0  0  0  0  0
   37.1370   24.4090   38.9710 H   0  0  0  0  0  0  0  0  0  0  0  0
   36.9030   23.9120   32.1410 O   0  0  0  0  0  0  0  0  0  0  0  0
   35.9920   24.2280   31.9220 H   0  0  0  0  0  0  0  0  0  0  0  0
  1  6  2  0  0  0  0
  1  2  1  0  0  0  0
  2  3  2  0  0  0  0
  3  4  1  0  0  0  0
  3 26  1  0  0  0  0
  5  9  1  0  0  0  0
  5  4  2  0  0  0  0
  6  5  1  0  0  0  0
  7  1  1  0  0  0  0
  8  2  1  0  0  0  0
  9 13  1  0  0  0  0
 10  9  2  0  0  0  0
 10 11  1  0  0  0  0
 11 12  2  0  0  0  0
 12 13  1  0  0  0  0
 12 18  1  0  0  0  0
 14 10  1  0  0  0  0
 15 11  1  0  0  0  0
 17 16  1  0  0  0  0
 17 24  1  0  0  0  0
 18 17  2  0  0  0  0
 19 18  1  0  0  0  0
 19 21  2  0  0  0  0
 20 19  1  0  0  0  0
 21 22  1  0  0  0  0
 22 24  2  0  0  0  0
 22 23  1  0  0  0  0
 24 25  1  0  0  0  0
 26 27  1  6  0  0  0
 26 28  1  0  0  0  0
 28 31  1  1  0  0  0
 28 30  1  0  0  0  0
 29 28  1  0  0  0  0
 29 33  1  0  0  0  0
 29 30  1  0  0  0  0
 30 34  1  6  0  0  0
 30 35  1  0  0  0  0
 32 29  1  0  0  0  0
 35 36  2  0  0  0  0
 35 40  1  0  0  0  0
 36 37  1  0  0  0  0
 37 42  1  0  0  0  0
 37 38  2  0  0  0  0
 38 43  1  0  0  0  0
 39 38  1  0  0  0  0
 39 44  1  0  0  0  0
 40 39  2  0  0  0  0
 41 36  1  0  0  0  0
 45 26  1  0  0  0  0
 46 45  1  0  0  0  0
M  END
>  <minimizedAffinity>
-5.9364357

$$$$

 OpenBabel03272501413D

 46 50  0  0  1  0  0  0  0  0999 V2000
   38.6170   26.8580   35.8560 C   0  0  0  0  0  0  0  0  0  0  0  0
   37.7620   27.8060   35.3430 C   0  0  0  0  0  0  0  0  0  0  0  0
   36.9430   27.5630   34.2290 C   0  0  0  0  0  0  0  0  0  0  0  0
   37.0150   26.3760   33.6850 N   0  0  0  0  0  0  0  0  0  0  0  0
   37.8710   25.4400   34.2080 C   0  0  0  0  0  0  0  0  0  0  0  0
   38.6470   25.6730   35.2560 N   0  0  0  0  0  0  0  0  0  0  0  0
   39.2450   27.0450   36.7080 H   0  0  0  0  0  0  0  0  0  0  0  0
   37.7650   28.7700   35.8640 H   0  0  0  0  0  0  0  0  0  0  0  0
   37.9530   24.1000   33.6230 C   0  0  0  0  0  0  0  0  0  0  0  0
   38.3810   22.9080   34.1520 C   0  0  0  0  0  0  0  0  0  0  0  0
   38.3460   21.7950   33.4000 C   0  0  0  0  0  0  0  0  0  0  0  0
   37.8660   21.9260   32.0990 C   0  0  0  0  0  0  0  0  0  0  0  0
   37.4560   23.7080   31.9680 S   0  0  0  0  0  0  0  0  0  0  0  0
   38.7330   22.9300   35.1760 H   0  0  0  0  0  0  0  0  0  0  0  0
   38.6520   20.8140   33.7010 H   0  0  0  0  0  0  0  0  0  0  0  0
   35.2090   20.5040   32.1250 Cl  0  0  0  0  0  0  0  0  0  0  0  0
   36.4890   20.2950   30.9500 C   0  0  0  0  0  0  0  0  0  0  0  0
   37.6790   20.9870   31.0110 C   0  0  0  0  0  0  0  0  0  0  0  0
   38.7270   20.9000   30.1600 C   0  0  0  0  0  0  0  0  0  0  0  0
   39.6390   21.4600   30.2440 H   0  0  0  0  0  0  0  0  0  0  0  0
   38.6030   20.0060   29.0850 C   0  0  0  0  0  3  0  0  0  0  0  0
   37.4230   19.2650   28.9560 C   0  0  0  0  0  0  0  0  0  0  0  0
   37.2320   18.1350   27.6220 Cl  0  0  0  0  0  0  0  0  0  0  0  0
   36.3860   19.4140   29.8790 C   0  0  0  0  0  0  0  0  0  0  0  0
   35.4600   18.8470   29.7960 H   0  0  0  0  0  0  0  0  0  0  0  0
   36.1890   28.6920   33.7650 C   0  0  1  0  0  0  0  0  0  0  0  0
   35.2060   28.1290   33.4880 H   0  0  0  0  0  0  0  0  0  0  0  0
   35.7820   29.7090   34.8100 C   0  0  2  0  0  0  0  0  0  0  0  0
   34.2620   29.8310   34.7400 C   0  0  0  0  0  0  0  0  0  0  0  0
   35.1820   30.9580   34.4140 C   0  0  1  0  0  0  0  0  0  0  0  0
   36.1580   29.4500   35.8290 H   0  0  0  0  0  0  0  0  0  0  0  0
   33.6630   29.5000   33.8830 H   0  0  0  0  0  0  0  0  0  0  0  0
   33.6960   29.8310   35.6790 H   0  0  0  0  0  0  0  0  0  0  0  0
   35.4180   31.2610   33.3740 H   0  0  0  0  0  0  0  0  0  0  0  0
   35.0040   32.1340   35.2790 C   0  0  0  0  0  0  0  0  0  0  0  0
   34.3090   31.9650   36.4480 C   0  0  0  0  0  0  0  0  0  0  0  0
   34.1820   33.0740   37.2490 C   0  0  0  0  0  0  0  0  0  0  0  0
   34.7100   34.3090   36.9310 C   0  0  0  0  0  0  0  0  0  0  0  0
   35.4020   34.4360   35.7450 C   0  0  0  0  0  0  0  0  0  0  0  0
   35.5370   33.3580   34.9470 N   0  0  0  0  0  0  0  0  0  0  0  0
   33.8810   31.0180   36.7350 H   0  0  0  0  0  0  0  0  0  0  0  0
   33.6330   32.9790   38.1930 H   0  0  0  0  0  0  0  0  0  0  0  0
   34.5670   35.1210   37.6070 H   0  0  0  0  0  0  0  0  0  0  0  0
   35.8280   35.3880   35.4650 H   0  0  0  0  0  0  0  0  0  0  0  0
   36.3640   29.2010   32.5730 O   0  0  0  0  0  0  0  0  0  0  0  0
   37.2910   29.0970   32.2430 H   0  0  0  0  0  0  0  0  0  0  0  0
  1  7  1  0  0  0  0
  2  1  1  0  0  0  0
  2  8  1  0  0  0  0
  3  2  2  0  0  0  0
  4  5  2  0  0  0  0
  4  3  1  0  0  0  0
  5  6  1  0  0  0  0
  6  1  2  0  0  0  0
  9 10  2  0  0  0  0
  9  5  1  0  0  0  0
 10 14  1  0  0  0  0
 11 15  1  0  0  0  0
 11 10  1  0  0  0  0
 12 11  2  0  0  0  0
 13 12  1  0  0  0  0
 13  9  1  0  0  0  0
 17 18  1  0  0  0  0
 17 16  1  0  0  0  0
 18 12  1  0  0  0  0
 19 20  1  0  0  0  0
 19 18  2  0  0  0  0
 21 19  1  0  0  0  0
 22 21  2  0  0  0  0
 22 24  1  0  0  0  0
 23 22  1  0  0  0  0
 24 17  2  0  0  0  0
 25 24  1  0  0  0  0
 26 27  1  6  0  0  0
 26  3  1  0  0  0  0
 26 28  1  0  0  0  0
 28 31  1  1  0  0  0
 29 28  1  0  0  0  0
 29 33  1  0  0  0  0
 30 34  1  6  0  0  0
 30 29  1  0  0  0  0
 30 28  1  0  0  0  0
 30 35  1  0  0  0  0
 32 29  1  0  0  0  0
 35 36  1  0  0  0  0
 36 41  1  0  0  0  0
 36 37  2  0  0  0  0
 37 42  1  0  0  0  0
 38 37  1  0  0  0  0
 38 43  1  0  0  0  0
 39 38  2  0  0  0  0
 40 35  2  0  0  0  0
 40 39  1  0  0  0  0
 44 39  1  0  0  0  0
 45 26  1  0  0  0  0
 46 45  1  0  0  0  0
M  END
>  <minimizedAffinity>
-5.93210983

$$$$

 OpenBabel03272501413D

 46 50  0  0  1  0  0  0  0  0999 V2000
   39.9030   27.1590   28.9000 C   0  0  0  0  0  0  0  0  0  0  0  0
   39.8560   25.8060   29.1490 C   0  0  0  0  0  0  0  0  0  0  0  0
   38.9420   25.2330   30.0470 C   0  0  0  0  0  0  0  0  0  0  0  0
   38.1140   26.0430   30.6510 N   0  0  0  0  0  0  0  0  0  0  0  0
   38.1700   27.3900   30.3940 C   0  0  0  0  0  0  0  0  0  0  0  0
   39.0360   27.9300   29.5490 N   0  0  0  0  0  0  0  0  0  0  0  0
   40.6030   27.5980   28.2140 H   0  0  0  0  0  0  0  0  0  0  0  0
   40.5850   25.2040   28.5950 H   0  0  0  0  0  0  0  0  0  0  0  0
   37.2390   28.3100   31.0480 C   0  0  0  0  0  0  0  0  0  0  0  0
   36.4990   29.3530   30.5490 C   0  0  0  0  0  0  0  0  0  0  0  0
   35.6950   30.0520   31.3680 C   0  0  0  0  0  0  0  0  0  0  0  0
   35.6620   29.6620   32.7050 C   0  0  0  0  0  0  0  0  0  0  0  0
   36.8280   28.2490   32.7710 S   0  0  0  0  0  0  0  0  0  0  0  0
   36.6080   29.5620   29.4920 H   0  0  0  0  0  0  0  0  0  0  0  0
   35.0740   30.8810   31.0960 H   0  0  0  0  0  0  0  0  0  0  0  0
   32.7450   28.9090   32.7680 Cl  0  0  0  0  0  0  0  0  0  0  0  0
   33.6020   29.8500   33.9690 C   0  0  0  0  0  0  0  0  0  0  0  0
   34.9420   30.1510   33.8640 C   0  0  0  0  0  0  0  0  0  0  0  0
   35.6950   30.8670   34.7300 C   0  0  0  0  0  0  0  0  0  0  0  0
   36.7420   31.0800   34.6110 H   0  0  0  0  0  0  0  0  0  0  0  0
   35.0520   31.3670   35.8720 C   0  0  0  0  0  3  0  0  0  0  0  0
   33.6890   31.1030   36.0490 C   0  0  0  0  0  0  0  0  0  0  0  0
   32.8500   31.7130   37.4690 Cl  0  0  0  0  0  0  0  0  0  0  0  0
   32.9820   30.3540   35.1070 C   0  0  0  0  0  0  0  0  0  0  0  0
   31.9220   30.1380   35.2260 H   0  0  0  0  0  0  0  0  0  0  0  0
   39.0990   23.8230   30.2620 C   0  0  1  0  0  0  0  0  0  0  0  0
   39.9070   23.8750   31.1010 H   0  0  0  0  0  0  0  0  0  0  0  0
   37.9250   23.1010   30.8870 C   0  0  2  0  0  0  0  0  0  0  0  0
   38.3380   22.7320   32.3090 C   0  0  0  0  0  0  0  0  0  0  0  0
   38.0400   21.7140   31.2610 C   0  0  1  0  0  0  0  0  0  0  0  0
   36.9810   23.6970   30.8420 H   0  0  0  0  0  0  0  0  0  0  0  0
   39.3790   22.7050   32.6530 H   0  0  0  0  0  0  0  0  0  0  0  0
   37.6260   22.9150   33.1230 H   0  0  0  0  0  0  0  0  0  0  0  0
   38.8310   21.1630   30.7140 H   0  0  0  0  0  0  0  0  0  0  0  0
   36.9200   20.8240   31.6050 C   0  0  0  0  0  0  0  0  0  0  0  0
   35.6830   21.3920   31.7690 C   0  0  0  0  0  0  0  0  0  0  0  0
   34.6520   20.5340   32.0630 C   0  0  0  0  0  0  0  0  0  0  0  0
   34.8080   19.1690   32.1930 C   0  0  0  0  0  0  0  0  0  0  0  0
   36.0700   18.6380   32.0190 C   0  0  0  0  0  0  0  0  0  0  0  0
   37.0930   19.4650   31.7310 N   0  0  0  0  0  0  0  0  0  0  0  0
   35.5170   22.4530   31.6760 H   0  0  0  0  0  0  0  0  0  0  0  0
   33.6470   20.9490   32.2020 H   0  0  0  0  0  0  0  0  0  0  0  0
   33.9560   18.5710   32.4220 H   0  0  0  0  0  0  0  0  0  0  0  0
   36.2270   17.5740   32.1150 H   0  0  0  0  0  0  0  0  0  0  0  0
   39.8150   23.0740   29.4650 O   0  0  0  0  0  0  0  0  0  0  0  0
   39.8220   23.4020   28.5320 H   0  0  0  0  0  0  0  0  0  0  0  0
  1  2  2  0  0  0  0
  1  6  1  0  0  0  0
  2  3  1  0  0  0  0
  3 26  1  0  0  0  0
  3  4  2  0  0  0  0
  5  4  1  0  0  0  0
  5  9  1  0  0  0  0
  6  5  2  0  0  0  0
  7  1  1  0  0  0  0
  8  2  1  0  0  0  0
  9 13  1  0  0  0  0
 10  9  2  0  0  0  0
 10 11  1  0  0  0  0
 11 12  2  0  0  0  0
 12 13  1  0  0  0  0
 12 18  1  0  0  0  0
 14 10  1  0  0  0  0
 15 11  1  0  0  0  0
 16 17  1  0  0  0  0
 17 24  1  0  0  0  0
 18 17  2  0  0  0  0
 18 19  1  0  0  0  0
 19 21  2  0  0  0  0
 20 19  1  0  0  0  0
 21 22  1  0  0  0  0
 22 23  1  0  0  0  0
 24 25  1  0  0  0  0
 24 22  2  0  0  0  0
 26 28  1  0  0  0  0
 26 27  1  1  0  0  0
 28 31  1  6  0  0  0
 28 30  1  0  0  0  0
 28 29  1  0  0  0  0
 29 32  1  0  0  0  0
 29 33  1  0  0  0  0
 30 34  1  6  0  0  0
 30 35  1  0  0  0  0
 30 29  1  0  0  0  0
 35 40  2  0  0  0  0
 35 36  1  0  0  0  0
 36 37  2  0  0  0  0
 37 38  1  0  0  0  0
 37 42  1  0  0  0  0
 38 43  1  0  0  0  0
 39 44  1  0  0  0  0
 39 38  2  0  0  0  0
 40 39  1  0  0  0  0
 41 36  1  0  0  0  0
 45 26  1  0  0  0  0
 46 45  1  0  0  0  0
M  END
>  <minimizedAffinity>
-5.89463234

$$$$
