
     RDKit          3D

 47 51  0  0  0  0  0  0  0  0999 V2000
   36.2426   30.2053   46.8583 C   0  0  0  0  0  0  0  0  0  0  0  0
   37.0779   30.7574   47.8137 C   0  0  0  0  0  0  0  0  0  0  0  0
   38.0676   31.6737   47.4416 C   0  0  0  0  0  0  0  0  0  0  0  0
   38.1421   31.9741   46.0858 C   0  0  0  0  0  0  0  0  0  0  0  0
   39.0292   32.8349   45.4769 N   0  0  0  0  0  0  0  0  0  0  0  0
   38.7410   32.8114   44.1692 C   0  0  0  0  0  0  0  0  0  0  0  0
   37.7367   31.9907   43.9574 N   0  0  0  0  0  0  0  0  0  0  0  0
   37.3335   31.4480   45.1171 C   0  0  0  0  0  0  0  0  0  0  0  0
   36.3563   30.5380   45.5135 C   0  0  0  0  0  0  0  0  0  0  0  0
   37.4824   30.1664   51.4938 C   0  0  0  0  0  0  0  0  0  0  0  0
   37.7906   30.6156   50.2182 C   0  0  0  0  0  0  0  0  0  0  0  0
   36.8989   30.3604   49.1940 C   0  0  0  0  0  0  0  0  0  0  0  0
   35.7526   29.6717   49.5064 N   0  0  0  0  0  0  0  0  0  0  0  0
   35.4737   29.2449   50.7527 C   0  0  0  0  0  0  0  0  0  0  0  0
   36.3355   29.4942   51.7300 N   0  0  0  0  0  0  0  0  0  0  0  0
   39.4429   33.5697   43.2272 O   0  0  0  0  0  0  0  0  0  0  0  0
   39.5493   31.8289   41.7170 N   0  0  0  0  0  0  0  0  0  0  0  0
   39.2225   33.2514   41.8615 C   0  0  1  0  0  0  0  0  0  0  0  0
   37.8193   33.4353   41.5133 C   0  0  0  0  0  0  0  0  0  0  0  0
   37.6490   33.1427   40.1545 O   0  0  0  0  0  0  0  0  0  0  0  0
   38.0436   31.8719   39.7890 C   0  0  0  0  0  0  0  0  0  0  0  0
   39.4380   31.5504   40.3188 C   0  0  2  0  0  0  0  0  0  0  0  0
   35.4556   29.4882   47.0857 H   0  0  0  0  0  0  0  0  0  0  0  0
   38.7274   32.1131   48.1780 H   0  0  0  0  0  0  0  0  0  0  0  0
   39.7742   33.3865   45.9722 H   0  0  0  0  0  0  0  0  0  0  0  0
   35.7121   30.1170   44.7517 H   0  0  0  0  0  0  0  0  0  0  0  0
   38.1951   30.3747   52.2924 H   0  0  0  0  0  0  0  0  0  0  0  0
   38.6909   31.1553   49.9787 H   0  0  0  0  0  0  0  0  0  0  0  0
   34.5411   28.7129   50.8792 H   0  0  0  0  0  0  0  0  0  0  0  0
   38.8332   31.2288   42.1628 H   0  0  0  0  0  0  0  0  0  0  0  0
   39.8823   33.7693   41.1694 H   0  0  0  0  0  0  0  0  0  0  0  0
   37.0071   32.9315   41.9682 H   0  0  0  0  0  0  0  0  0  0  0  0
   37.5920   34.5429   41.5818 H   0  0  0  0  0  0  0  0  0  0  0  0
   37.3325   31.1056   40.1389 H   0  0  0  0  0  0  0  0  0  0  0  0
   38.0788   31.8509   38.6881 H   0  0  0  0  0  0  0  0  0  0  0  0
   40.1887   32.1937   39.7621 H   0  0  0  0  0  0  0  0  0  0  0  0
   40.1009   29.0977   42.4059 Cl  0  0  0  0  0  0  0  0  0  0  0  0
   39.9992   28.9785   40.6696 C   0  0  0  0  0  0  0  0  0  0  0  0
   39.7234   30.1512   40.0162 C   0  0  0  0  0  0  0  0  0  0  0  0
   39.6810   29.9326   38.6218 C   0  0  0  0  0  0  0  0  0  0  0  0
   39.4785   30.7126   37.8727 H   0  0  0  0  0  0  0  0  0  0  0  0
   39.8858   28.7112   37.9771 C   0  0  0  0  0  0  0  0  0  0  0  0
   40.1522   27.6162   38.7394 C   0  0  0  0  0  0  0  0  0  0  0  0
   40.4249   26.0379   38.0434 Cl  0  0  0  0  0  0  0  0  0  0  0  0
   40.2084   27.7549   40.0947 C   0  0  0  0  0  0  0  0  0  0  0  0
   40.4141   26.9228   40.7253 H   0  0  0  0  0  0  0  0  0  0  0  0
   39.8493   28.5682   36.9258 H   0  0  0  0  0  0  0  0  0  0  0  0
  1  2  2  0
  2 12  1  0
  3  2  1  0
  4  3  2  0
  5  4  1  0
  6  5  1  0
  7  6  2  0
  7  8  1  0
  8  9  2  0
  8  4  1  0
  9  1  1  0
 10 15  2  0
 11 10  1  0
 12 13  1  0
 12 11  2  0
 13 14  2  0
 14 15  1  0
 16  6  1  0
 17 18  1  0
 18 16  1  0
 19 18  1  0
 20 19  1  0
 21 20  1  0
 21 22  1  0
 22 17  1  0
  1 23  1  0
  3 24  1  0
  5 25  1  0
  9 26  1  0
 10 27  1  0
 11 28  1  0
 14 29  1  0
 17 30  1  0
 18 31  1  6
 19 32  1  0
 19 33  1  0
 21 34  1  0
 21 35  1  0
 22 36  1  6
 37 38  1  0
 38 39  2  0
 39 40  1  0
 40 41  1  0
 40 42  2  0
 42 43  1  0
 43 44  1  0
 43 45  2  0
 45 46  1  0
 45 38  1  0
 42 47  1  0
 22 39  1  0
M  ISO  8  23  14  24  14  25   9  26  14  27  14  28  14  29  14  30   5
M  ISO  8  31  13  32  13  33  13  34  13  35  13  36  13  41  16  46  15
M  END
>  <DihAtoms>  (1) 
20,21,38,37

>  <DihDeg>  (1) 
-103.53798785946458

$$$$
