
     RDKit          3D

 47 50  0  0  0  0  0  0  0  0999 V2000
   37.7640   31.7421   47.6577 C   0  0  0  0  0  0  0  0  0  0  0  0
   37.9307   32.5359   48.8023 C   0  0  0  0  0  0  0  0  0  0  0  0
   38.9321   33.4818   48.8874 C   0  0  0  0  0  0  0  0  0  0  0  0
   39.7524   33.5966   47.7847 C   0  0  0  0  0  0  0  0  0  0  0  0
   39.5754   32.8198   46.6864 C   0  0  0  0  0  0  0  0  0  0  0  0
   38.5946   31.8898   46.5966 N   0  0  0  0  0  0  0  0  0  0  0  0
   36.7006   30.7863   47.6535 C   0  0  0  0  0  0  0  0  0  0  0  0
   36.2078   30.3817   46.6033 O   0  0  0  0  0  0  0  0  0  0  0  0
   37.0227   29.6312   49.8109 C   0  0  0  0  0  0  0  0  0  0  0  0
   36.1351   30.2325   48.8911 C   0  0  0  0  0  0  0  0  0  0  0  0
   34.7680   30.2771   49.1903 C   0  0  0  0  0  0  0  0  0  0  0  0
   34.3483   29.7301   50.3736 N   0  0  0  0  0  0  0  0  0  0  0  0
   35.2142   29.1634   51.2323 C   0  0  0  0  0  0  0  0  0  0  0  0
   36.5140   29.1175   50.9546 N   0  0  0  0  0  0  0  0  0  0  0  0
   40.6671   32.9808   45.2331 S   0  0  0  0  0  0  0  0  0  0  0  0
   39.5662   32.9272   43.7981 C   0  0  0  0  0  0  0  0  0  0  0  0
   38.7766   29.7936   42.3412 C   0  0  1  0  0  0  0  0  0  0  0  0
   38.7975   31.2935   42.0805 C   0  0  0  0  0  0  0  0  0  0  0  0
   39.9413   31.7128   42.9763 C   0  0  2  0  0  0  0  0  0  0  0  0
   40.3083   30.6541   43.7467 O   0  0  0  0  0  0  0  0  0  0  0  0
   39.2495   29.7569   43.7858 C   0  0  0  0  0  0  0  0  0  0  0  0
   37.5016   29.2806   42.2105 O   0  0  0  0  0  0  0  0  0  0  0  0
   37.2756   32.4302   49.6581 H   0  0  0  0  0  0  0  0  0  0  0  0
   39.0495   34.0885   49.7784 H   0  0  0  0  0  0  0  0  0  0  0  0
   40.5596   34.3181   47.7806 H   0  0  0  0  0  0  0  0  0  0  0  0
   38.0738   29.6138   49.5480 H   0  0  0  0  0  0  0  0  0  0  0  0
   34.1103   30.7318   48.4909 H   0  0  0  0  0  0  0  0  0  0  0  0
   34.9136   28.7226   52.1750 H   0  0  0  0  0  0  0  0  0  0  0  0
   39.6891   33.8372   43.1549 H   0  0  0  0  0  0  0  0  0  0  0  0
   38.5038   32.8264   44.0421 H   0  0  0  0  0  0  0  0  0  0  0  0
   39.4953   29.2956   41.6682 H   0  0  0  0  0  0  0  0  0  0  0  0
   39.0747   31.4961   41.0213 H   0  0  0  0  0  0  0  0  0  0  0  0
   37.8587   31.7770   42.4003 H   0  0  0  0  0  0  0  0  0  0  0  0
   40.8204   32.0077   42.3550 H   0  0  0  0  0  0  0  0  0  0  0  0
   38.3992   30.1633   44.3835 H   0  0  0  0  0  0  0  0  0  0  0  0
   39.5631   28.7543   44.0955 H   0  0  0  0  0  0  0  0  0  0  0  0
   34.8680   28.2990   42.9944 Cl  0  0  0  0  0  0  0  0  0  0  0  0
   35.8168   27.7259   41.6427 C   0  0  0  0  0  0  0  0  0  0  0  0
   37.0483   28.2904   41.3978 C   0  0  0  0  0  0  0  0  0  0  0  0
   37.7251   27.7827   40.3193 C   0  0  0  0  0  0  0  0  0  0  0  0
   38.6930   28.1765   40.0696 H   0  0  0  0  0  0  0  0  0  0  0  0
   37.2301   26.7873   39.5312 C   0  0  0  0  0  0  0  0  0  0  0  0
   35.9906   26.2512   39.8143 C   0  0  0  0  0  0  0  0  0  0  0  0
   35.3241   24.9719   38.8231 Cl  0  0  0  0  0  0  0  0  0  0  0  0
   35.2702   26.7271   40.8877 C   0  0  0  0  0  0  0  0  0  0  0  0
   34.2901   26.3072   41.1165 H   0  0  0  0  0  0  0  0  0  0  0  0
   37.8138   26.4191   38.6813 H   0  0  0  0  0  0  0  0  0  0  0  0
  1  2  2  0
  2  3  1  0
  4  3  2  0
  5  4  1  0
  6  5  2  0
  6  1  1  0
  7  1  1  0
  7 10  1  0
  8  7  2  0
  9 14  2  0
 10 11  2  0
 10  9  1  0
 11 12  1  0
 12 13  2  0
 14 13  1  0
 15  5  1  0
 16 15  1  0
 17 22  1  0
 17 21  1  0
 18 17  1  0
 18 19  1  0
 19 20  1  0
 19 16  1  0
 20 21  1  0
  2 23  1  0
  3 24  1  0
  4 25  1  0
  9 26  1  0
 11 27  1  0
 13 28  1  0
 16 29  1  0
 16 30  1  0
 17 31  1  6
 18 32  1  0
 18 33  1  0
 19 34  1  6
 21 35  1  0
 21 36  1  0
 37 38  1  0
 38 39  2  0
 39 40  1  0
 40 41  1  0
 40 42  2  0
 42 43  1  0
 43 44  1  0
 43 45  2  0
 45 46  1  0
 45 38  1  0
 42 47  1  0
 22 39  1  0
M  ISO  8  23  14  24  14  25  14  26  14  27  14  28  14  29   8  30   8
M  ISO  8  31  13  32  13  33  13  34  13  35  13  36  13  41  16  46  15
M  END
>  <DihAtoms>  (1) 
16,21,38,37

>  <DihDeg>  (1) 
179.99978265507642

$$$$
