
 OpenBabel03272503183D

 26 28  0  0  0  0  0  0  0  0999 V2000
   37.6310   27.2400   33.9830 C   0  0  0  0  0  0  0  0  0  0  0  0
   37.8210   27.4760   35.2860 C   0  0  0  0  0  0  0  0  0  0  0  0
   38.4990   26.6120   36.0610 C   0  0  0  0  0  0  0  0  0  0  0  0
   38.9890   25.4720   35.4360 C   0  0  0  0  0  0  0  0  0  0  0  0
   38.4320   25.6990   33.7010 S   0  0  0  0  0  0  0  0  0  0  0  0
   37.3970   28.4070   35.7000 H   0  0  0  0  0  0  0  0  0  0  0  0
   38.7100   26.7030   37.1160 H   0  0  0  0  0  0  0  0  0  0  0  0
   37.5200   23.6360   37.3820 Cl  0  0  0  0  0  0  0  0  0  0  0  0
   39.1510   23.4680   36.7750 C   0  0  0  0  0  0  0  0  0  0  0  0
   39.7420   24.3390   35.8970 C   0  0  0  0  0  0  0  0  0  0  0  0
   41.0000   24.2440   35.4040 C   0  0  0  0  0  0  0  0  0  0  0  0
   41.4450   24.9530   34.7070 H   0  0  0  0  0  0  0  0  0  0  0  0
   41.7950   23.1670   35.8070 C   0  0  0  0  0  3  0  0  0  0  0  0
   41.2640   22.2520   36.6880 C   0  0  0  0  0  0  0  0  0  0  0  0
   42.2030   20.8770   37.2380 Cl  0  0  0  0  0  0  0  0  0  0  0  0
   39.9570   22.3950   37.1700 C   0  0  0  0  0  0  0  0  0  0  0  0
   39.5450   21.6560   37.8740 H   0  0  0  0  0  0  0  0  0  0  0  0
   36.6620   28.7650   30.6860 C   0  0  0  0  0  0  0  0  0  0  0  0
   37.3930   27.9950   31.6170 C   0  0  0  0  0  0  0  0  0  0  0  0
   36.9460   28.0010   32.9470 C   0  0  0  0  0  0  0  0  0  0  0  0
   35.8620   28.7240   33.2780 N   0  0  0  0  0  0  0  0  0  0  0  0
   35.1870   29.4480   32.3610 C   0  0  0  0  0  0  0  0  0  0  0  0
   35.5870   29.4650   31.0800 N   0  0  0  0  0  0  0  0  0  0  0  0
   37.1080   28.6740   29.7040 H   0  0  0  0  0  0  0  0  0  0  0  0
   38.2710   27.4030   31.3760 H   0  0  0  0  0  0  0  0  0  0  0  0
   34.3130   30.0250   32.6550 H   0  0  0  0  0  0  0  0  0  0  0  0
  1  2  2  0  0  0  0
  2  6  1  0  0  0  0
  2  3  1  0  0  0  0
  3  7  1  0  0  0  0
  4 10  1  0  0  0  0
  4  3  2  0  0  0  0
  5  1  1  0  0  0  0
  5  4  1  0  0  0  0
  9 16  1  0  0  0  0
  9  8  1  0  0  0  0
 10  9  2  0  0  0  0
 11 13  2  0  0  0  0
 11 10  1  0  0  0  0
 12 11  1  0  0  0  0
 13 14  1  0  0  0  0
 14 16  2  0  0  0  0
 14 15  1  0  0  0  0
 16 17  1  0  0  0  0
 18 23  2  0  0  0  0
 18 19  1  0  0  0  0
 19 20  2  0  0  0  0
 20 21  1  0  0  0  0
 20  1  1  0  0  0  0
 22 26  1  0  0  0  0
 22 21  2  0  0  0  0
 23 22  1  0  0  0  0
 24 18  1  0  0  0  0
 25 19  1  0  0  0  0
M  END
>  <minimizedAffinity>
-5.17036581

$$$$

 OpenBabel03272503183D

 26 28  0  0  0  0  0  0  0  0999 V2000
   37.4180   27.4900   34.0550 C   0  0  0  0  0  0  0  0  0  0  0  0
   37.7850   27.7330   35.3190 C   0  0  0  0  0  0  0  0  0  0  0  0
   38.5120   26.8430   36.0180 C   0  0  0  0  0  0  0  0  0  0  0  0
   38.8570   25.6700   35.3580 C   0  0  0  0  0  0  0  0  0  0  0  0
   38.0940   25.9040   33.7040 S   0  0  0  0  0  0  0  0  0  0  0  0
   37.4660   28.6900   35.7650 H   0  0  0  0  0  0  0  0  0  0  0  0
   38.8600   26.9360   37.0350 H   0  0  0  0  0  0  0  0  0  0  0  0
   37.4010   23.7500   37.2320 Cl  0  0  0  0  0  0  0  0  0  0  0  0
   39.0170   23.5940   36.5830 C   0  0  0  0  0  0  0  0  0  0  0  0
   39.6030   24.5040   35.7410 C   0  0  0  0  0  0  0  0  0  0  0  0
   40.8490   24.4200   35.2190 C   0  0  0  0  0  0  0  0  0  0  0  0
   41.2900   25.1600   34.5520 H   0  0  0  0  0  0  0  0  0  0  0  0
   41.6370   23.3130   35.5460 C   0  0  0  0  0  3  0  0  0  0  0  0
   41.1110   22.3580   36.3870 C   0  0  0  0  0  0  0  0  0  0  0  0
   42.0420   20.9430   36.8420 Cl  0  0  0  0  0  0  0  0  0  0  0  0
   39.8160   22.4920   36.9030 C   0  0  0  0  0  0  0  0  0  0  0  0
   39.4080   21.7200   37.5740 H   0  0  0  0  0  0  0  0  0  0  0  0
   34.8440   29.7480   32.5020 C   0  0  0  0  0  0  0  0  0  0  0  0
   35.5280   29.0220   33.5010 C   0  0  0  0  0  0  0  0  0  0  0  0
   36.6450   28.2740   33.1000 C   0  0  0  0  0  0  0  0  0  0  0  0
   37.0150   28.2760   31.8080 N   0  0  0  0  0  0  0  0  0  0  0  0
   36.3370   28.9820   30.8800 C   0  0  0  0  0  0  0  0  0  0  0  0
   35.2640   29.7100   31.2270 N   0  0  0  0  0  0  0  0  0  0  0  0
   34.0090   30.2790   32.9400 H   0  0  0  0  0  0  0  0  0  0  0  0
   35.2510   29.0040   34.5510 H   0  0  0  0  0  0  0  0  0  0  0  0
   36.6570   28.9670   29.8400 H   0  0  0  0  0  0  0  0  0  0  0  0
  1  2  2  0  0  0  0
  2  6  1  0  0  0  0
  2  3  1  0  0  0  0
  3  7  1  0  0  0  0
  4 10  1  0  0  0  0
  4  3  2  0  0  0  0
  5  1  1  0  0  0  0
  5  4  1  0  0  0  0
  9 16  1  0  0  0  0
  9  8  1  0  0  0  0
 10  9  2  0  0  0  0
 11 13  2  0  0  0  0
 11 10  1  0  0  0  0
 12 11  1  0  0  0  0
 13 14  1  0  0  0  0
 14 15  1  0  0  0  0
 14 16  2  0  0  0  0
 16 17  1  0  0  0  0
 18 24  1  0  0  0  0
 18 19  1  0  0  0  0
 19 25  1  0  0  0  0
 20 19  2  0  0  0  0
 20  1  1  0  0  0  0
 21 20  1  0  0  0  0
 22 23  1  0  0  0  0
 22 21  2  0  0  0  0
 23 18  2  0  0  0  0
 26 22  1  0  0  0  0
M  END
>  <minimizedAffinity>
-5.12205648

$$$$

 OpenBabel03272503183D

 26 28  0  0  0  0  0  0  0  0999 V2000
   37.9970   25.1290   34.8560 C   0  0  0  0  0  0  0  0  0  0  0  0
   37.7370   24.7600   33.5970 C   0  0  0  0  0  0  0  0  0  0  0  0
   37.2830   25.6430   32.6900 C   0  0  0  0  0  0  0  0  0  0  0  0
   37.1030   26.9480   33.1320 C   0  0  0  0  0  0  0  0  0  0  0  0
   37.6120   26.8460   34.8940 S   0  0  0  0  0  0  0  0  0  0  0  0
   37.9070   23.7030   33.3320 H   0  0  0  0  0  0  0  0  0  0  0  0
   37.0420   25.4550   31.6550 H   0  0  0  0  0  0  0  0  0  0  0  0
   38.7660   27.8610   30.7400 Cl  0  0  0  0  0  0  0  0  0  0  0  0
   37.3460   28.6280   31.4130 C   0  0  0  0  0  0  0  0  0  0  0  0
   36.6500   28.1530   32.4950 C   0  0  0  0  0  0  0  0  0  0  0  0
   35.5480   28.7160   33.0450 C   0  0  0  0  0  0  0  0  0  0  0  0
   35.0150   28.3160   33.9060 H   0  0  0  0  0  0  0  0  0  0  0  0
   35.0460   29.8920   32.4790 C   0  0  0  0  0  3  0  0  0  0  0  0
   35.6960   30.4250   31.3880 C   0  0  0  0  0  0  0  0  0  0  0  0
   35.1240   31.8980   30.6280 Cl  0  0  0  0  0  0  0  0  0  0  0  0
   36.8330   29.8050   30.8570 C   0  0  0  0  0  0  0  0  0  0  0  0
   37.3430   30.2420   29.9840 H   0  0  0  0  0  0  0  0  0  0  0  0
   40.0030   22.8560   37.0800 C   0  0  0  0  0  0  0  0  0  0  0  0
   39.6060   23.5400   35.9100 C   0  0  0  0  0  0  0  0  0  0  0  0
   38.4870   24.3810   36.0060 C   0  0  0  0  0  0  0  0  0  0  0  0
   37.8490   24.5030   37.1830 N   0  0  0  0  0  0  0  0  0  0  0  0
   38.2570   23.8340   38.2810 C   0  0  0  0  0  0  0  0  0  0  0  0
   39.3230   23.0210   38.2260 N   0  0  0  0  0  0  0  0  0  0  0  0
   40.8720   22.2460   36.8720 H   0  0  0  0  0  0  0  0  0  0  0  0
   40.1030   23.4590   34.9490 H   0  0  0  0  0  0  0  0  0  0  0  0
   37.7230   23.9500   39.2220 H   0  0  0  0  0  0  0  0  0  0  0  0
  1  5  1  0  0  0  0
  1 20  1  0  0  0  0
  2  1  2  0  0  0  0
  3  4  2  0  0  0  0
  3  2  1  0  0  0  0
  4  5  1  0  0  0  0
  6  2  1  0  0  0  0
  7  3  1  0  0  0  0
  8  9  1  0  0  0  0
  9 10  1  0  0  0  0
 10 11  2  0  0  0  0
 10  4  1  0  0  0  0
 11 12  1  0  0  0  0
 13 11  1  0  0  0  0
 14 13  2  0  0  0  0
 15 14  1  0  0  0  0
 16 14  1  0  0  0  0
 16  9  2  0  0  0  0
 17 16  1  0  0  0  0
 18 23  1  0  0  0  0
 19 20  1  0  0  0  0
 19 18  2  0  0  0  0
 20 21  2  0  0  0  0
 21 22  1  0  0  0  0
 22 26  1  0  0  0  0
 23 22  2  0  0  0  0
 24 18  1  0  0  0  0
 25 19  1  0  0  0  0
M  END
>  <minimizedAffinity>
-4.91799927

$$$$

 OpenBabel03272503183D

 26 28  0  0  0  0  0  0  0  0999 V2000
   37.4360   27.4900   34.0190 C   0  0  0  0  0  0  0  0  0  0  0  0
   37.7690   27.7170   35.2950 C   0  0  0  0  0  0  0  0  0  0  0  0
   38.5200   26.8430   35.9870 C   0  0  0  0  0  0  0  0  0  0  0  0
   38.9270   25.7010   35.3070 C   0  0  0  0  0  0  0  0  0  0  0  0
   38.1850   25.9430   33.6440 S   0  0  0  0  0  0  0  0  0  0  0  0
   37.4020   28.6500   35.7570 H   0  0  0  0  0  0  0  0  0  0  0  0
   38.8450   26.9260   37.0130 H   0  0  0  0  0  0  0  0  0  0  0  0
   41.8330   25.7660   34.3750 Cl  0  0  0  0  0  0  0  0  0  0  0  0
   41.0300   24.5140   35.2950 C   0  0  0  0  0  0  0  0  0  0  0  0
   39.7140   24.5590   35.6780 C   0  0  0  0  0  0  0  0  0  0  0  0
   39.0580   23.6120   36.3890 C   0  0  0  0  0  0  0  0  0  0  0  0
   38.0100   23.6750   36.6790 H   0  0  0  0  0  0  0  0  0  0  0  0
   39.7590   22.4700   36.7870 C   0  0  0  0  0  3  0  0  0  0  0  0
   41.0860   22.3590   36.4360 C   0  0  0  0  0  0  0  0  0  0  0  0
   42.0270   20.9540   36.9000 Cl  0  0  0  0  0  0  0  0  0  0  0  0
   41.7200   23.3660   35.6990 C   0  0  0  0  0  0  0  0  0  0  0  0
   42.7820   23.2640   35.4260 H   0  0  0  0  0  0  0  0  0  0  0  0
   34.8430   29.7380   32.4830 C   0  0  0  0  0  0  0  0  0  0  0  0
   35.5430   29.0230   33.4790 C   0  0  0  0  0  0  0  0  0  0  0  0
   36.6480   28.2630   33.0680 C   0  0  0  0  0  0  0  0  0  0  0  0
   36.9930   28.2440   31.7690 N   0  0  0  0  0  0  0  0  0  0  0  0
   36.3010   28.9400   30.8430 C   0  0  0  0  0  0  0  0  0  0  0  0
   35.2380   29.6780   31.2010 N   0  0  0  0  0  0  0  0  0  0  0  0
   34.0190   30.2790   32.9290 H   0  0  0  0  0  0  0  0  0  0  0  0
   35.2860   29.0220   34.5340 H   0  0  0  0  0  0  0  0  0  0  0  0
   36.6000   28.9080   29.7980 H   0  0  0  0  0  0  0  0  0  0  0  0
  1  2  2  0  0  0  0
  2  6  1  0  0  0  0
  2  3  1  0  0  0  0
  3  7  1  0  0  0  0
  4 10  1  0  0  0  0
  4  3  2  0  0  0  0
  5  1  1  0  0  0  0
  5  4  1  0  0  0  0
  8  9  1  0  0  0  0
  9 10  2  0  0  0  0
  9 16  1  0  0  0  0
 10 11  1  0  0  0  0
 11 12  1  0  0  0  0
 11 13  2  0  0  0  0
 14 13  1  0  0  0  0
 14 15  1  0  0  0  0
 16 14  2  0  0  0  0
 17 16  1  0  0  0  0
 18 24  1  0  0  0  0
 18 19  1  0  0  0  0
 19 25  1  0  0  0  0
 20 19  2  0  0  0  0
 20  1  1  0  0  0  0
 21 20  1  0  0  0  0
 22 23  1  0  0  0  0
 22 21  2  0  0  0  0
 23 18  2  0  0  0  0
 26 22  1  0  0  0  0
M  END
>  <minimizedAffinity>
-4.86213732

$$$$

 OpenBabel03272503183D

 26 28  0  0  0  0  0  0  0  0999 V2000
   38.2050   24.9190   34.7050 C   0  0  0  0  0  0  0  0  0  0  0  0
   37.6540   24.4410   33.5830 C   0  0  0  0  0  0  0  0  0  0  0  0
   37.3620   25.2490   32.5490 C   0  0  0  0  0  0  0  0  0  0  0  0
   37.6630   26.5960   32.7100 C   0  0  0  0  0  0  0  0  0  0  0  0
   38.3770   26.6440   34.4020 S   0  0  0  0  0  0  0  0  0  0  0  0
   37.4490   23.3580   33.5410 H   0  0  0  0  0  0  0  0  0  0  0  0
   36.9210   24.9710   31.6040 H   0  0  0  0  0  0  0  0  0  0  0  0
   35.6550   28.6720   33.6970 Cl  0  0  0  0  0  0  0  0  0  0  0  0
   36.6260   28.7270   32.2440 C   0  0  0  0  0  0  0  0  0  0  0  0
   37.5110   27.7500   31.8690 C   0  0  0  0  0  0  0  0  0  0  0  0
   38.2790   27.7550   30.7540 C   0  0  0  0  0  0  0  0  0  0  0  0
   38.9750   26.9620   30.4800 H   0  0  0  0  0  0  0  0  0  0  0  0
   38.1870   28.8460   29.8840 C   0  0  0  0  0  3  0  0  0  0  0  0
   37.3170   29.8650   30.2000 C   0  0  0  0  0  0  0  0  0  0  0  0
   37.1480   31.2640   29.1560 Cl  0  0  0  0  0  0  0  0  0  0  0  0
   36.5430   29.8120   31.3660 C   0  0  0  0  0  0  0  0  0  0  0  0
   35.8520   30.6350   31.6060 H   0  0  0  0  0  0  0  0  0  0  0  0
   38.3630   23.7790   38.2840 C   0  0  0  0  0  0  0  0  0  0  0  0
   37.8920   24.4530   37.1350 C   0  0  0  0  0  0  0  0  0  0  0  0
   38.6090   24.2680   35.9430 C   0  0  0  0  0  0  0  0  0  0  0  0
   39.6930   23.4730   35.9390 N   0  0  0  0  0  0  0  0  0  0  0  0
   40.1140   22.8440   37.0550 C   0  0  0  0  0  0  0  0  0  0  0  0
   39.4530   22.9980   38.2130 N   0  0  0  0  0  0  0  0  0  0  0  0
   37.7260   24.0050   39.1290 H   0  0  0  0  0  0  0  0  0  0  0  0
   37.0210   25.0990   37.1120 H   0  0  0  0  0  0  0  0  0  0  0  0
   40.9950   22.2060   37.0250 H   0  0  0  0  0  0  0  0  0  0  0  0
  1 20  1  0  0  0  0
  2  1  2  0  0  0  0
  3  4  2  0  0  0  0
  3  2  1  0  0  0  0
  4  5  1  0  0  0  0
  5  1  1  0  0  0  0
  6  2  1  0  0  0  0
  7  3  1  0  0  0  0
  9  8  1  0  0  0  0
 10  9  1  0  0  0  0
 10  4  1  0  0  0  0
 11 10  2  0  0  0  0
 12 11  1  0  0  0  0
 13 14  2  0  0  0  0
 13 11  1  0  0  0  0
 14 16  1  0  0  0  0
 15 14  1  0  0  0  0
 16 17  1  0  0  0  0
 16  9  2  0  0  0  0
 18 24  1  0  0  0  0
 19 18  2  0  0  0  0
 20 19  1  0  0  0  0
 21 20  2  0  0  0  0
 21 22  1  0  0  0  0
 22 23  2  0  0  0  0
 23 18  1  0  0  0  0
 25 19  1  0  0  0  0
 26 22  1  0  0  0  0
M  END
>  <minimizedAffinity>
-4.85135078

$$$$

 OpenBabel03272503183D

 26 28  0  0  0  0  0  0  0  0999 V2000
   38.0710   27.0620   33.5750 C   0  0  0  0  0  0  0  0  0  0  0  0
   38.1480   27.3070   34.8880 C   0  0  0  0  0  0  0  0  0  0  0  0
   38.8000   26.4730   35.7170 C   0  0  0  0  0  0  0  0  0  0  0  0
   39.3840   25.3530   35.1370 C   0  0  0  0  0  0  0  0  0  0  0  0
   38.9540   25.5540   33.3630 S   0  0  0  0  0  0  0  0  0  0  0  0
   37.6560   28.2200   35.2640 H   0  0  0  0  0  0  0  0  0  0  0  0
   38.9240   26.5730   36.7850 H   0  0  0  0  0  0  0  0  0  0  0  0
   42.3860   25.4780   34.6040 Cl  0  0  0  0  0  0  0  0  0  0  0  0
   41.5010   24.2370   35.4600 C   0  0  0  0  0  0  0  0  0  0  0  0
   40.1450   24.2530   35.6600 C   0  0  0  0  0  0  0  0  0  0  0  0
   39.4230   23.3130   36.3160 C   0  0  0  0  0  0  0  0  0  0  0  0
   38.3440   23.3520   36.4590 H   0  0  0  0  0  0  0  0  0  0  0  0
   40.0950   22.2110   36.8540 C   0  0  0  0  0  3  0  0  0  0  0  0
   41.4600   22.1310   36.6910 C   0  0  0  0  0  0  0  0  0  0  0  0
   42.3680   20.7770   37.3380 Cl  0  0  0  0  0  0  0  0  0  0  0  0
   42.1600   23.1290   36.0030 C   0  0  0  0  0  0  0  0  0  0  0  0
   43.2520   23.0520   35.8810 H   0  0  0  0  0  0  0  0  0  0  0  0
   37.2270   28.4410   30.1810 C   0  0  0  0  0  0  0  0  0  0  0  0
   37.9070   27.6940   31.1670 C   0  0  0  0  0  0  0  0  0  0  0  0
   37.4370   27.7930   32.4860 C   0  0  0  0  0  0  0  0  0  0  0  0
   36.3800   28.5780   32.7550 N   0  0  0  0  0  0  0  0  0  0  0  0
   35.7540   29.2780   31.7870 C   0  0  0  0  0  0  0  0  0  0  0  0
   36.1760   29.2070   30.5150 N   0  0  0  0  0  0  0  0  0  0  0  0
   37.6850   28.2770   29.2150 H   0  0  0  0  0  0  0  0  0  0  0  0
   38.7620   27.0530   30.9770 H   0  0  0  0  0  0  0  0  0  0  0  0
   34.9000   29.9060   32.0320 H   0  0  0  0  0  0  0  0  0  0  0  0
  1  2  2  0  0  0  0
  2  6  1  0  0  0  0
  2  3  1  0  0  0  0
  3  7  1  0  0  0  0
  4 10  1  0  0  0  0
  4  3  2  0  0  0  0
  5  1  1  0  0  0  0
  5  4  1  0  0  0  0
  8  9  1  0  0  0  0
  9 10  2  0  0  0  0
  9 16  1  0  0  0  0
 10 11  1  0  0  0  0
 11 12  1  0  0  0  0
 11 13  2  0  0  0  0
 14 13  1  0  0  0  0
 14 15  1  0  0  0  0
 16 14  2  0  0  0  0
 17 16  1  0  0  0  0
 18 23  2  0  0  0  0
 18 19  1  0  0  0  0
 19 20  2  0  0  0  0
 20 21  1  0  0  0  0
 20  1  1  0  0  0  0
 22 26  1  0  0  0  0
 22 21  2  0  0  0  0
 23 22  1  0  0  0  0
 24 18  1  0  0  0  0
 25 19  1  0  0  0  0
M  END
>  <minimizedAffinity>
-4.78486395

$$$$

 OpenBabel03272503183D

 26 28  0  0  0  0  0  0  0  0999 V2000
   40.0070   24.7850   35.1380 C   0  0  0  0  0  0  0  0  0  0  0  0
   40.5400   25.9740   34.8360 C   0  0  0  0  0  0  0  0  0  0  0  0
   39.7860   26.9730   34.3430 C   0  0  0  0  0  0  0  0  0  0  0  0
   38.4350   26.7010   34.1690 C   0  0  0  0  0  0  0  0  0  0  0  0
   38.3020   24.9600   34.7400 S   0  0  0  0  0  0  0  0  0  0  0  0
   41.6230   26.1030   35.0060 H   0  0  0  0  0  0  0  0  0  0  0  0
   40.1100   27.9640   34.0680 H   0  0  0  0  0  0  0  0  0  0  0  0
   37.8910   26.4580   31.1750 Cl  0  0  0  0  0  0  0  0  0  0  0  0
   37.0190   27.4190   32.3480 C   0  0  0  0  0  0  0  0  0  0  0  0
   37.3260   27.4740   33.6830 C   0  0  0  0  0  0  0  0  0  0  0  0
   36.6780   28.2040   34.6210 C   0  0  0  0  0  0  0  0  0  0  0  0
   36.9450   28.2290   35.6770 H   0  0  0  0  0  0  0  0  0  0  0  0
   35.5870   28.9830   34.2240 C   0  0  0  0  0  3  0  0  0  0  0  0
   35.2220   28.9740   32.8970 C   0  0  0  0  0  0  0  0  0  0  0  0
   33.8650   29.9280   32.3270 Cl  0  0  0  0  0  0  0  0  0  0  0  0
   35.9260   28.2030   31.9640 C   0  0  0  0  0  0  0  0  0  0  0  0
   35.6230   28.2050   30.9060 H   0  0  0  0  0  0  0  0  0  0  0  0
   40.8220   21.8530   37.3460 C   0  0  0  0  0  0  0  0  0  0  0  0
   40.1920   23.0400   36.9110 C   0  0  0  0  0  0  0  0  0  0  0  0
   40.5950   23.5640   35.6740 C   0  0  0  0  0  0  0  0  0  0  0  0
   41.5440   22.9310   34.9630 N   0  0  0  0  0  0  0  0  0  0  0  0
   42.1240   21.7980   35.4090 C   0  0  0  0  0  0  0  0  0  0  0  0
   41.7630   21.2670   36.5880 N   0  0  0  0  0  0  0  0  0  0  0  0
   40.4230   21.5560   38.3070 H   0  0  0  0  0  0  0  0  0  0  0  0
   39.4240   23.5700   37.4650 H   0  0  0  0  0  0  0  0  0  0  0  0
   42.8900   21.3050   34.8150 H   0  0  0  0  0  0  0  0  0  0  0  0
  1 20  1  0  0  0  0
  2  6  1  0  0  0  0
  2  1  2  0  0  0  0
  3  2  1  0  0  0  0
  4  3  2  0  0  0  0
  4  5  1  0  0  0  0
  5  1  1  0  0  0  0
  7  3  1  0  0  0  0
  8  9  1  0  0  0  0
  9 10  1  0  0  0  0
 10  4  1  0  0  0  0
 10 11  2  0  0  0  0
 11 12  1  0  0  0  0
 13 11  1  0  0  0  0
 14 13  2  0  0  0  0
 15 14  1  0  0  0  0
 16  9  2  0  0  0  0
 16 14  1  0  0  0  0
 17 16  1  0  0  0  0
 18 24  1  0  0  0  0
 19 18  1  0  0  0  0
 19 25  1  0  0  0  0
 20 19  2  0  0  0  0
 21 22  2  0  0  0  0
 21 20  1  0  0  0  0
 22 23  1  0  0  0  0
 23 18  2  0  0  0  0
 26 22  1  0  0  0  0
M  END
>  <minimizedAffinity>
-4.75138426

$$$$

 OpenBabel03272503183D

 26 28  0  0  0  0  0  0  0  0999 V2000
   36.3000   27.6950   32.5720 C   0  0  0  0  0  0  0  0  0  0  0  0
   35.6690   28.6600   31.8940 C   0  0  0  0  0  0  0  0  0  0  0  0
   35.1960   29.7550   32.5140 C   0  0  0  0  0  0  0  0  0  0  0  0
   35.3990   29.8260   33.8870 C   0  0  0  0  0  0  0  0  0  0  0  0
   36.2920   28.2600   34.2390 S   0  0  0  0  0  0  0  0  0  0  0  0
   35.5520   28.5210   30.8060 H   0  0  0  0  0  0  0  0  0  0  0  0
   34.6760   30.5880   32.0670 H   0  0  0  0  0  0  0  0  0  0  0  0
   32.6710   29.4400   35.2000 Cl  0  0  0  0  0  0  0  0  0  0  0  0
   33.8470   30.6930   35.5220 C   0  0  0  0  0  0  0  0  0  0  0  0
   35.0580   30.7990   34.8870 C   0  0  0  0  0  0  0  0  0  0  0  0
   35.9940   31.7520   35.1070 C   0  0  0  0  0  0  0  0  0  0  0  0
   36.9480   31.8110   34.5860 H   0  0  0  0  0  0  0  0  0  0  0  0
   35.7330   32.7350   36.0670 C   0  0  0  0  0  3  0  0  0  0  0  0
   34.5350   32.6890   36.7440 C   0  0  0  0  0  0  0  0  0  0  0  0
   34.1390   33.8890   37.9600 Cl  0  0  0  0  0  0  0  0  0  0  0  0
   33.5990   31.6830   36.4790 C   0  0  0  0  0  0  0  0  0  0  0  0
   32.6450   31.6580   37.0290 H   0  0  0  0  0  0  0  0  0  0  0  0
   36.8060   24.2740   31.0970 C   0  0  0  0  0  0  0  0  0  0  0  0
   36.1410   25.4620   31.4700 C   0  0  0  0  0  0  0  0  0  0  0  0
   36.8940   26.4350   32.1450 C   0  0  0  0  0  0  0  0  0  0  0  0
   38.1930   26.2050   32.4040 N   0  0  0  0  0  0  0  0  0  0  0  0
   38.7960   25.0570   32.0320 C   0  0  0  0  0  0  0  0  0  0  0  0
   38.1060   24.1050   31.3850 N   0  0  0  0  0  0  0  0  0  0  0  0
   36.1170   23.6120   30.5880 H   0  0  0  0  0  0  0  0  0  0  0  0
   35.0940   25.6730   31.2720 H   0  0  0  0  0  0  0  0  0  0  0  0
   39.8480   24.8950   32.2550 H   0  0  0  0  0  0  0  0  0  0  0  0
  1  5  1  0  0  0  0
  2  3  1  0  0  0  0
  2  1  2  0  0  0  0
  3  4  2  0  0  0  0
  4  5  1  0  0  0  0
  4 10  1  0  0  0  0
  6  2  1  0  0  0  0
  7  3  1  0  0  0  0
  8  9  1  0  0  0  0
  9 16  1  0  0  0  0
 10 11  1  0  0  0  0
 10  9  2  0  0  0  0
 11 13  2  0  0  0  0
 12 11  1  0  0  0  0
 13 14  1  0  0  0  0
 14 15  1  0  0  0  0
 16 14  2  0  0  0  0
 16 17  1  0  0  0  0
 18 23  2  0  0  0  0
 18 19  1  0  0  0  0
 19 20  2  0  0  0  0
 20 21  1  0  0  0  0
 20  1  1  0  0  0  0
 22 26  1  0  0  0  0
 22 21  2  0  0  0  0
 23 22  1  0  0  0  0
 24 18  1  0  0  0  0
 25 19  1  0  0  0  0
M  END
>  <minimizedAffinity>
-4.7388916

$$$$

 OpenBabel03272503183D

 26 28  0  0  0  0  0  0  0  0999 V2000
   38.2320   24.8210   34.6630 C   0  0  0  0  0  0  0  0  0  0  0  0
   37.8050   24.2790   33.5170 C   0  0  0  0  0  0  0  0  0  0  0  0
   37.5620   25.0370   32.4340 C   0  0  0  0  0  0  0  0  0  0  0  0
   37.7780   26.4030   32.5720 C   0  0  0  0  0  0  0  0  0  0  0  0
   38.3400   26.5430   34.3150 S   0  0  0  0  0  0  0  0  0  0  0  0
   37.6600   23.1860   33.4960 H   0  0  0  0  0  0  0  0  0  0  0  0
   37.2180   24.7070   31.4660 H   0  0  0  0  0  0  0  0  0  0  0  0
   40.1070   26.8260   30.6460 Cl  0  0  0  0  0  0  0  0  0  0  0  0
   38.6460   27.7770   30.7850 C   0  0  0  0  0  0  0  0  0  0  0  0
   37.6400   27.5200   31.6800 C   0  0  0  0  0  0  0  0  0  0  0  0
   36.4950   28.2300   31.8190 C   0  0  0  0  0  0  0  0  0  0  0  0
   35.7120   28.0040   32.5410 H   0  0  0  0  0  0  0  0  0  0  0  0
   36.2890   29.3330   30.9850 C   0  0  0  0  0  3  0  0  0  0  0  0
   37.2600   29.6480   30.0610 C   0  0  0  0  0  0  0  0  0  0  0  0
   37.0690   31.0180   28.9830 Cl  0  0  0  0  0  0  0  0  0  0  0  0
   38.4270   28.8830   29.9570 C   0  0  0  0  0  0  0  0  0  0  0  0
   39.1950   29.1460   29.2130 H   0  0  0  0  0  0  0  0  0  0  0  0
   38.1800   23.8630   38.2980 C   0  0  0  0  0  0  0  0  0  0  0  0
   37.7800   24.4790   37.0930 C   0  0  0  0  0  0  0  0  0  0  0  0
   38.5610   24.2310   35.9540 C   0  0  0  0  0  0  0  0  0  0  0  0
   39.6370   23.4320   36.0500 N   0  0  0  0  0  0  0  0  0  0  0  0
   39.9900   22.8580   37.2190 C   0  0  0  0  0  0  0  0  0  0  0  0
   39.2670   23.0740   38.3290 N   0  0  0  0  0  0  0  0  0  0  0  0
   37.4990   24.1340   39.0940 H   0  0  0  0  0  0  0  0  0  0  0  0
   36.9160   25.1280   36.9880 H   0  0  0  0  0  0  0  0  0  0  0  0
   40.8670   22.2160   37.2710 H   0  0  0  0  0  0  0  0  0  0  0  0
  1 20  1  0  0  0  0
  2  1  2  0  0  0  0
  3  4  2  0  0  0  0
  3  2  1  0  0  0  0
  4  5  1  0  0  0  0
  5  1  1  0  0  0  0
  6  2  1  0  0  0  0
  7  3  1  0  0  0  0
  8  9  1  0  0  0  0
  9 10  1  0  0  0  0
 10 11  2  0  0  0  0
 10  4  1  0  0  0  0
 11 12  1  0  0  0  0
 13 11  1  0  0  0  0
 14 13  2  0  0  0  0
 15 14  1  0  0  0  0
 16 14  1  0  0  0  0
 16  9  2  0  0  0  0
 17 16  1  0  0  0  0
 18 23  1  0  0  0  0
 18 24  1  0  0  0  0
 19 18  2  0  0  0  0
 20 21  2  0  0  0  0
 20 19  1  0  0  0  0
 21 22  1  0  0  0  0
 22 26  1  0  0  0  0
 22 23  2  0  0  0  0
 25 19  1  0  0  0  0
M  END
>  <minimizedAffinity>
-4.73049068

$$$$
