
     RDKit          3D

 29 30  0  0  0  0  0  0  0  0999 V2000
   36.0583   30.3069   50.0266 C   0  0  0  0  0  0  0  0  0  0  0  0
   35.1226   29.6006   49.1221 C   0  0  0  0  0  0  0  0  0  0  0  0
   34.6624   30.2914   47.9974 C   0  0  0  0  0  0  0  0  0  0  0  0
   33.7749   29.6511   47.1200 C   0  0  0  0  0  0  0  0  0  0  0  0
   33.4095   28.3618   47.4304 N   0  0  0  0  0  0  0  0  0  0  0  0
   33.8743   27.7336   48.5208 C   0  0  0  0  0  0  0  0  0  0  0  0
   34.7204   28.3329   49.3646 N   0  0  0  0  0  0  0  0  0  0  0  0
   36.3360   31.5917   49.6265 O   0  0  0  0  0  0  0  0  0  0  0  0
   38.4013   31.1581   48.0405 O   0  0  0  0  0  0  0  0  0  0  0  0
   38.0134   31.7130   49.3952 P   0  0  2  0  0  0  0  0  0  0  0  0
   38.8104   30.7535   50.5684 O   0  0  0  0  0  0  0  0  0  0  0  0
   38.5195   33.3124   49.4984 O   0  0  0  0  0  0  0  0  0  0  0  0
   35.5480   30.3538   51.0298 H   0  0  0  0  0  0  0  0  0  0  0  0
   36.9875   29.6832   50.1640 H   0  0  0  0  0  0  0  0  0  0  0  0
   34.9955   31.2952   47.8267 H   0  0  0  0  0  0  0  0  0  0  0  0
   33.4130   30.1699   46.2514 H   0  0  0  0  0  0  0  0  0  0  0  0
   33.5468   26.7191   48.7067 H   0  0  0  0  0  0  0  0  0  0  0  0
   39.7662   31.0238   50.5695 H   0  0  0  0  0  0  0  0  0  0  0  0
   40.1315   34.3860   51.6675 Cl  0  0  0  0  0  0  0  0  0  0  0  0
   40.4929   34.3843   49.9382 C   0  0  0  0  0  0  0  0  0  0  0  0
   39.6654   33.8465   48.9458 C   0  0  0  0  0  0  0  0  0  0  0  0
   40.0796   33.9181   47.6346 C   0  0  0  0  0  0  0  0  0  0  0  0
   39.3768   33.4793   46.9568 H   0  0  0  0  0  0  0  0  0  0  0  0
   41.2773   34.5042   47.3126 C   0  0  0  0  0  0  0  0  0  0  0  0
   42.1180   35.0468   48.2858 C   0  0  0  0  0  0  0  0  0  0  0  0
   43.6343   35.7837   47.8301 Cl  0  0  0  0  0  0  0  0  0  0  0  0
   41.7071   34.9777   49.6033 C   0  0  0  0  0  0  0  0  0  0  0  0
   42.3809   35.4067   50.3305 H   0  0  0  0  0  0  0  0  0  0  0  0
   41.5525   34.5321   46.2620 H   0  0  0  0  0  0  0  0  0  0  0  0
  2  7  1  0
  2  1  1  0
  3  2  2  0
  4  5  2  0
  4  3  1  0
  5  6  1  0
  6  7  2  0
  8  1  1  0
  9 10  2  0
 10 12  1  6
 10  8  1  0
 10 11  1  0
  1 13  1  0
  1 14  1  0
  3 15  1  0
  4 16  1  0
  6 17  1  0
 11 18  1  0
 19 20  1  0
 20 21  2  0
 21 22  1  0
 22 23  1  0
 22 24  2  0
 24 25  1  0
 25 26  1  0
 25 27  2  0
 27 28  1  0
 27 20  1  0
 24 29  1  0
 12 21  1  0
M  ISO  8  13   8  14   8  15  14  16  14  17  14  18   3  23  16  28  15
M  END
>  <DihAtoms>  (1) 
9,11,20,19

>  <DihDeg>  (1) 
-179.99970522869492

$$$$
