REMARK  Name = 
REMARK  4 active torsions:
REMARK  status: ('A' for Active; 'I' for Inactive)
REMARK    1  A    between atoms: N_1  and  C_6
REMARK    2  A    between atoms: C_3  and  C_13
REMARK    3  A    between atoms: C_10  and  S_12
REMARK    4  A    between atoms: S_12  and  C_28
REMARK                            x       y       z     vdW  Elec       q    Type
REMARK                         _______ _______ _______ _____ _____    ______ ____
ROOT
ATOM      1  C   UNL     1      35.292  29.547  47.934  0.00  0.00    +0.000 A 
ATOM      2  C   UNL     1      35.235  30.009  46.609  0.00  0.00    +0.000 A 
ATOM      3  C   UNL     1      34.094  29.670  45.877  0.00  0.00    +0.000 A 
ATOM      4  N   UNL     1      33.132  28.925  46.500  0.00  0.00    +0.000 NA
ATOM      5  C   UNL     1      33.214  28.500  47.763  0.00  0.00    +0.000 A 
ATOM      6  N   UNL     1      34.316  28.822  48.482  0.00  0.00    +0.000 NA
ATOM      7  H   UNL     1      35.995  30.596  46.123  0.00  0.00    +0.000 HD
ATOM      8  H   UNL     1      33.921  29.957  44.856  0.00  0.00    +0.000 HD
ENDROOT
BRANCH   1   9
ATOM      9  N   UNL     1      36.458  29.894  48.679  0.00  0.00    +0.000 N 
ATOM     10  C   UNL     1      37.582  30.660  48.228  0.00  0.00    +0.000 C 
ATOM     11  C   UNL     1      38.098  31.285  49.519  0.00  0.00    +0.000 C 
ATOM     12  C   UNL     1      37.119  30.890  50.602  0.00  0.00    +0.000 C 
ATOM     13  C   UNL     1      36.729  29.533  50.051  0.00  0.00    +0.000 C 
ATOM     14  H   UNL     1      37.277  31.449  47.497  0.00  0.00    +0.000 HD
ATOM     15  H   UNL     1      38.373  30.020  47.801  0.00  0.00    +0.000 HD
ATOM     16  H   UNL     1      39.083  30.847  49.806  0.00  0.00    +0.000 HD
ATOM     17  H   UNL     1      36.229  31.540  50.646  0.00  0.00    +0.000 HD
ATOM     18  H   UNL     1      37.615  30.752  51.569  0.00  0.00    +0.000 HD
ATOM     19  H   UNL     1      37.556  28.809  50.157  0.00  0.00    +0.000 HD
ATOM     20  H   UNL     1      35.797  29.245  50.572  0.00  0.00    +0.000 HD
BRANCH  11  21
ATOM     21  C   UNL     1      38.269  32.770  49.400  0.00  0.00    +0.000 C 
ATOM     22  F   UNL     1      37.097  33.341  49.887  0.00  0.00    +0.000 F 
ATOM     23  F   UNL     1      38.319  33.075  48.053  0.00  0.00    +0.000 F 
ATOM     24  F   UNL     1      39.364  33.260  50.037  0.00  0.00    +0.000 F 
ENDBRANCH  11  21
ENDBRANCH   1   9
BRANCH   5  25
ATOM     25  S   UNL     1      31.932  27.532  48.522  0.00  0.00    +0.000 S 
BRANCH  25  28
ATOM     26 CL   UNL     1      30.742  25.916  46.066  0.00  0.00    +0.000 Cl
ATOM     27  C   UNL     1      31.654  25.039  47.258  0.00  0.00    +0.000 A 
ATOM     28  C   UNL     1      32.151  25.784  48.306  0.00  0.00    +0.000 A 
ATOM     29  C   UNL     1      32.894  25.149  49.302  0.00  0.00    +0.000 A 
ATOM     30  H   UNL     1      33.317  25.679  50.161  0.00  0.00    +0.000 HD
ATOM     31  C   UNL     1      33.109  23.788  49.206  0.00  0.00    +0.000 A 
ATOM     32  C   UNL     1      32.599  23.065  48.145  0.00  0.00    +0.000 A 
ATOM     33 CL   UNL     1      32.842  21.346  47.978  0.00  0.00    +0.000 Cl
ATOM     34  C   UNL     1      31.864  23.675  47.153  0.00  0.00    +0.000 A 
ATOM     35  H   UNL     1      31.443  23.134  46.295  0.00  0.00    +0.000 HD
ENDBRANCH  25  28
ENDBRANCH   5  25
TORSDOF 4
