
 OpenBabel03262521553D

 40 42  0  0  1  0  0  0  0  0999 V2000
   31.9160   26.9470   48.3420 C   0  0  1  0  0  0  0  0  0  0  0  0
   32.7040   28.2240   48.2170 C   0  0  2  0  0  0  0  0  0  0  0  0
   32.7120   28.6090   46.7710 C   0  0  0  0  0  0  0  0  0  0  0  0
   32.0270   27.7340   45.9530 O   0  0  0  0  0  0  0  0  0  0  0  0
   30.6920   27.6040   46.3330 C   0  0  0  0  0  0  0  0  0  0  0  0
   30.5240   27.2210   47.7820 C   0  0  2  0  0  0  0  0  0  0  0  0
   31.8270   26.5850   49.3760 H   0  0  0  0  0  0  0  0  0  0  0  0
   32.1880   28.9800   48.8500 H   0  0  0  0  0  0  0  0  0  0  0  0
   32.2350   29.6270   46.6780 H   0  0  0  0  0  0  0  0  0  0  0  0
   33.7480   28.6660   46.4090 H   0  0  0  0  0  0  0  0  0  0  0  0
   30.2220   28.5890   46.1400 H   0  0  0  0  0  0  0  0  0  0  0  0
   30.2180   26.8920   45.6380 H   0  0  0  0  0  0  0  0  0  0  0  0
   29.9280   26.3100   47.8110 H   0  0  0  0  0  0  0  0  0  0  0  0
   32.4670   25.9300   47.5520 O   0  0  0  0  0  0  0  0  0  0  0  0
   31.7720   25.3790   47.1240 H   0  0  0  0  0  0  0  0  0  0  0  0
   34.3850   28.0390   48.8560 S   0  0  0  0  0  0  0  0  0  0  0  0
   34.6940   29.2970   50.1300 C   0  0  0  0  0  0  0  0  0  0  0  0
   34.3550   30.2640   49.6840 H   0  0  0  0  0  0  0  0  0  0  0  0
   34.0390   29.1280   51.0110 H   0  0  0  0  0  0  0  0  0  0  0  0
   36.4050   29.4340   50.6070 S   0  0  0  0  0  0  0  0  0  0  0  0
   37.2220   30.6080   49.5380 C   0  0  0  0  0  0  0  0  0  0  0  0
   37.2630   31.8950   50.0300 C   0  0  0  0  0  0  0  0  0  0  0  0
   37.8870   32.8790   49.2500 C   0  0  0  0  0  0  0  0  0  0  0  0
   38.4220   32.5100   48.0470 N   0  0  0  0  0  0  0  0  0  0  0  0
   38.3430   31.2190   47.6260 C   0  0  0  0  0  0  0  0  0  0  0  0
   37.7600   30.2870   48.3480 N   0  0  0  0  0  0  0  0  0  0  0  0
   36.8590   32.2450   50.9720 H   0  0  0  0  0  0  0  0  0  0  0  0
   37.9600   33.8980   49.5610 H   0  0  0  0  0  0  0  0  0  0  0  0
   38.7650   30.9110   46.6670 H   0  0  0  0  0  0  0  0  0  0  0  0
   30.0570   28.3130   48.4990 O   0  0  0  0  0  0  0  0  0  0  0  0
   28.8840   27.0160   50.9030 Cl  0  0  0  0  0  0  0  0  0  0  0  0
   28.0900   28.1020   49.7560 C   0  0  0  0  0  0  0  0  0  0  0  0
   28.7240   28.6590   48.6590 C   0  0  0  0  0  0  0  0  0  0  0  0
   27.9940   29.4910   47.8380 C   0  0  0  0  0  0  0  0  0  0  0  0
   28.4990   29.9140   46.9950 H   0  0  0  0  0  0  0  0  0  0  0  0
   26.6670   29.7740   48.0850 C   0  0  0  0  0  0  0  0  0  0  0  0
   26.0800   29.1960   49.1880 C   0  0  0  0  0  0  0  0  0  0  0  0
   24.3780   29.6050   49.4370 Cl  0  0  0  0  0  0  0  0  0  0  0  0
   26.7640   28.3560   50.0420 C   0  0  0  0  0  0  0  0  0  0  0  0
   26.1980   27.9650   50.8700 H   0  0  0  0  0  0  0  0  0  0  0  0
  1  7  1  1  0  0  0
  2  1  1  0  0  0  0
  2  8  1  1  0  0  0
  2 16  1  0  0  0  0
  3  2  1  0  0  0  0
  4  5  1  0  0  0  0
  4  3  1  0  0  0  0
  5  6  1  0  0  0  0
  6 13  1  1  0  0  0
  6  1  1  0  0  0  0
  6 30  1  0  0  0  0
  9  3  1  0  0  0  0
 10  3  1  0  0  0  0
 11  5  1  0  0  0  0
 12  5  1  0  0  0  0
 14  1  1  0  0  0  0
 15 14  1  0  0  0  0
 16 17  1  0  0  0  0
 17 20  1  0  0  0  0
 17 19  1  0  0  0  0
 18 17  1  0  0  0  0
 21 22  1  0  0  0  0
 21 20  1  0  0  0  0
 22 27  1  0  0  0  0
 23 28  1  0  0  0  0
 23 22  2  0  0  0  0
 24 23  1  0  0  0  0
 25 24  2  0  0  0  0
 25 26  1  0  0  0  0
 26 21  2  0  0  0  0
 29 25  1  0  0  0  0
 30 33  1  0  0  0  0
 32 39  1  0  0  0  0
 32 31  1  0  0  0  0
 33 32  2  0  0  0  0
 34 36  2  0  0  0  0
 34 33  1  0  0  0  0
 35 34  1  0  0  0  0
 36 37  1  0  0  0  0
 37 38  1  0  0  0  0
 37 39  2  0  0  0  0
 39 40  1  0  0  0  0
M  END
>  <minimizedAffinity>
-6.14815807

>  <minimizedRMSD>
1.49785495

$$$$
