
 OpenBabel03272501563D

 32 34  0  0  0  0  0  0  0  0999 V2000
   32.6460   28.2680   47.9890 C   0  0  0  0  0  0  0  0  0  0  0  0
   31.9730   27.6990   49.0590 C   0  0  0  0  0  0  0  0  0  0  0  0
   30.6190   27.6120   48.8010 C   0  0  0  0  0  0  0  0  0  0  0  0
   30.5120   28.1390   47.5660 N   0  0  0  0  0  0  0  0  0  0  0  0
   31.6790   28.5250   47.0790 N   0  0  0  0  0  0  0  0  0  0  0  0
   32.3970   27.3430   50.0110 H   0  0  0  0  0  0  0  0  0  0  0  0
   29.7740   27.2540   49.3310 H   0  0  0  0  0  0  0  0  0  0  0  0
   29.6820   25.6650   46.2080 Cl  0  0  0  0  0  0  0  0  0  0  0  0
   28.9670   27.2430   46.0090 C   0  0  0  0  0  0  0  0  0  0  0  0
   29.4150   28.3630   46.6860 C   0  0  0  0  0  0  0  0  0  0  0  0
   28.8090   29.6060   46.4930 C   0  0  0  0  0  0  0  0  0  0  0  0
   29.2620   30.3860   47.0840 H   0  0  0  0  0  0  0  0  0  0  0  0
   27.7490   29.7280   45.6170 C   0  0  0  0  0  3  0  0  0  0  0  0
   27.2930   28.6090   44.9340 C   0  0  0  0  0  0  0  0  0  0  0  0
   25.9360   28.8160   43.8270 Cl  0  0  0  0  0  0  0  0  0  0  0  0
   27.8980   27.3710   45.1270 C   0  0  0  0  0  0  0  0  0  0  0  0
   27.5180   26.5140   44.5780 H   0  0  0  0  0  0  0  0  0  0  0  0
   34.1360   28.5120   47.9390 C   0  0  0  0  0  0  0  0  0  0  0  0
   34.5960   27.8570   47.1580 H   0  0  0  0  0  0  0  0  0  0  0  0
   34.3200   29.5710   47.6850 H   0  0  0  0  0  0  0  0  0  0  0  0
   34.6720   28.1520   49.2890 C   0  0  0  0  0  0  0  0  0  0  0  0
   35.0450   27.1060   49.3610 H   0  0  0  0  0  0  0  0  0  0  0  0
   33.9050   28.2540   50.1020 H   0  0  0  0  0  0  0  0  0  0  0  0
   37.1570   30.1170   51.1970 C   0  0  0  0  0  0  0  0  0  0  0  0
   37.9370   30.7070   50.1900 C   0  0  0  0  0  0  0  0  0  0  0  0
   37.5880   30.4130   48.8500 C   0  0  0  0  0  0  0  0  0  0  0  0
   36.5410   29.5950   48.6050 N   0  0  0  0  0  0  0  0  0  0  0  0
   35.8250   29.0540   49.6260 C   0  0  0  0  0  0  0  0  0  0  0  0
   36.1370   29.3190   50.8890 N   0  0  0  0  0  0  0  0  0  0  0  0
   37.4680   30.3750   52.1990 H   0  0  0  0  0  0  0  0  0  0  0  0
   38.7740   31.3600   50.2810 H   0  0  0  0  0  0  0  0  0  0  0  0
   38.0700   30.7740   47.9570 H   0  0  0  0  0  0  0  0  0  0  0  0
  1  2  1  0  0  0  0
  2  6  1  0  0  0  0
  3  2  2  0  0  0  0
  3  7  1  0  0  0  0
  4  3  1  0  0  0  0
  5  4  1  0  0  0  0
  5  1  2  0  0  0  0
  9  8  1  0  0  0  0
  9 10  1  0  0  0  0
 10  4  1  0  0  0  0
 11 10  2  0  0  0  0
 11 12  1  0  0  0  0
 13 11  1  0  0  0  0
 14 16  1  0  0  0  0
 14 13  2  0  0  0  0
 15 14  1  0  0  0  0
 16  9  2  0  0  0  0
 17 16  1  0  0  0  0
 18  1  1  0  0  0  0
 18 21  1  0  0  0  0
 19 18  1  0  0  0  0
 20 18  1  0  0  0  0
 21 22  1  0  0  0  0
 21 28  1  0  0  0  0
 21 23  1  0  0  0  0
 24 30  1  0  0  0  0
 25 31  1  0  0  0  0
 25 24  2  0  0  0  0
 26 25  1  0  0  0  0
 27 26  2  0  0  0  0
 27 28  1  0  0  0  0
 28 29  2  0  0  0  0
 29 24  1  0  0  0  0
 32 26  1  0  0  0  0
M  END
>  <minimizedAffinity>
-4.88884497

>  <minimizedRMSD>
1.36745512

$$$$
