REMARK  Name = 
REMARK  3 active torsions:
REMARK  status: ('A' for Active; 'I' for Inactive)
REMARK    1  A    between atoms: C_1  and  C_7
REMARK    2  A    between atoms: C_8  and  C_10
REMARK    3  A    between atoms: C_10  and  C_22
REMARK                            x       y       z     vdW  Elec       q    Type
REMARK                         _______ _______ _______ _____ _____    ______ ____
ROOT
ATOM      1  C   UNL     1      36.051  30.439  49.788  0.00  0.00    +0.000 C 
ATOM      2  C   UNL     1      36.042  29.008  49.577  0.00  0.00    +0.000 C 
ATOM      3  C   UNL     1      36.598  29.507  50.871  0.00  0.00    +0.000 C 
ATOM      4  H   UNL     1      35.188  31.074  50.115  0.00  0.00    +0.000 HD
ATOM      5  H   UNL     1      36.856  28.622  48.890  0.00  0.00    +0.000 HD
ATOM      6  H   UNL     1      37.681  29.497  51.065  0.00  0.00    +0.000 HD
ATOM      7  H   UNL     1      35.975  29.446  51.781  0.00  0.00    +0.000 HD
ENDROOT
BRANCH   1   8
ATOM      8  C   UNL     1      37.142  31.307  49.181  0.00  0.00    +0.000 A 
ATOM      9  C   UNL     1      37.310  32.559  49.777  0.00  0.00    +0.000 A 
ATOM     10  C   UNL     1      38.303  33.354  49.199  0.00  0.00    +0.000 A 
ATOM     11  N   UNL     1      39.026  32.894  48.133  0.00  0.00    +0.000 NA
ATOM     12  C   UNL     1      38.814  31.662  47.595  0.00  0.00    +0.000 A 
ATOM     13  N   UNL     1      37.852  30.856  48.133  0.00  0.00    +0.000 NA
ATOM     14  H   UNL     1      36.709  32.858  50.612  0.00  0.00    +0.000 HD
ATOM     15  H   UNL     1      38.477  34.335  49.622  0.00  0.00    +0.000 HD
ATOM     16  H   UNL     1      39.409  31.342  46.754  0.00  0.00    +0.000 HD
ENDBRANCH   1   8
BRANCH   2  17
ATOM     17  C   UNL     1      34.705  28.311  49.514  0.00  0.00    +0.000 C 
ATOM     18  H   UNL     1      34.203  28.483  50.488  0.00  0.00    +0.000 HD
ATOM     19  H   UNL     1      34.078  28.777  48.720  0.00  0.00    +0.000 HD
BRANCH  17  22
ATOM     20 CL   UNL     1      32.436  27.021  48.049  0.00  0.00    +0.000 Cl
ATOM     21  C   UNL     1      33.866  26.183  48.626  0.00  0.00    +0.000 A 
ATOM     22  C   UNL     1      34.867  26.852  49.293  0.00  0.00    +0.000 A 
ATOM     23  C   UNL     1      35.989  26.178  49.741  0.00  0.00    +0.000 A 
ATOM     24  H   UNL     1      36.772  26.690  50.260  0.00  0.00    +0.000 HD
ATOM     25  C   UNL     1      36.055  24.807  49.488  0.00  0.00    +0.000 A 
ATOM     26  C   UNL     1      35.055  24.111  48.817  0.00  0.00    +0.000 A 
ATOM     27 CL   UNL     1      35.178  22.390  48.523  0.00  0.00    +0.000 Cl
ATOM     28  C   UNL     1      33.951  24.836  48.389  0.00  0.00    +0.000 A 
ATOM     29  H   UNL     1      33.165  24.277  47.859  0.00  0.00    +0.000 HD
ENDBRANCH  17  22
ENDBRANCH   2  17
TORSDOF 3
