
     RDKit          3D

 35 37  0  0  0  0  0  0  0  0999 V2000
   37.7436   31.6348   47.4787 C   0  0  0  0  0  0  0  0  0  0  0  0
   37.9505   32.4611   48.5957 C   0  0  0  0  0  0  0  0  0  0  0  0
   38.9904   33.3549   48.6042 C   0  0  0  0  0  0  0  0  0  0  0  0
   39.7924   33.3872   47.4801 C   0  0  0  0  0  0  0  0  0  0  0  0
   39.5670   32.5772   46.4177 C   0  0  0  0  0  0  0  0  0  0  0  0
   38.5393   31.6679   46.3653 N   0  0  0  0  0  0  0  0  0  0  0  0
   36.6228   30.7168   47.5410 C   0  0  0  0  0  0  0  0  0  0  0  0
   36.0532   30.3462   46.5121 O   0  0  0  0  0  0  0  0  0  0  0  0
   37.0216   29.6370   49.7298 C   0  0  0  0  0  0  0  0  0  0  0  0
   36.1170   30.1896   48.8173 C   0  0  0  0  0  0  0  0  0  0  0  0
   34.7381   30.2376   49.1243 C   0  0  0  0  0  0  0  0  0  0  0  0
   34.3652   29.7172   50.3483 N   0  0  0  0  0  0  0  0  0  0  0  0
   35.2652   29.1923   51.2034 C   0  0  0  0  0  0  0  0  0  0  0  0
   36.5458   29.1562   50.8997 N   0  0  0  0  0  0  0  0  0  0  0  0
   40.6221   32.6314   44.9483 S   0  0  0  0  0  0  0  0  0  0  0  0
   39.5238   32.9545   43.5521 C   0  0  0  0  0  0  0  0  0  0  0  0
   37.2851   32.3838   49.4415 H   0  0  0  0  0  0  0  0  0  0  0  0
   39.1478   33.9809   49.4507 H   0  0  0  0  0  0  0  0  0  0  0  0
   40.6120   34.0929   47.4895 H   0  0  0  0  0  0  0  0  0  0  0  0
   38.0778   29.5828   49.5302 H   0  0  0  0  0  0  0  0  0  0  0  0
   34.1075   30.6700   48.3886 H   0  0  0  0  0  0  0  0  0  0  0  0
   34.7279   28.8567   52.0794 H   0  0  0  0  0  0  0  0  0  0  0  0
   38.9638   33.9175   43.6625 H   0  0  0  0  0  0  0  0  0  0  0  0
   40.1488   33.1248   42.6253 H   0  0  0  0  0  0  0  0  0  0  0  0
   36.5351   33.5774   43.7227 Cl  0  0  0  0  0  0  0  0  0  0  0  0
   37.1980   32.0099   43.3104 C   0  0  0  0  0  0  0  0  0  0  0  0
   38.5858   31.8478   43.2580 C   0  0  0  0  0  0  0  0  0  0  0  0
   38.9951   30.5780   42.9252 C   0  0  0  0  0  0  0  0  0  0  0  0
   40.0897   30.4656   42.8863 H   0  0  0  0  0  0  0  0  0  0  0  0
   38.2380   29.4639   42.6422 C   0  0  0  0  0  0  0  0  0  0  0  0
   36.8566   29.6763   42.7076 C   0  0  0  0  0  0  0  0  0  0  0  0
   35.8263   28.3014   42.3613 Cl  0  0  0  0  0  0  0  0  0  0  0  0
   36.3436   30.9365   43.0383 C   0  0  0  0  0  0  0  0  0  0  0  0
   35.2659   31.0420   43.0737 H   0  0  0  0  0  0  0  0  0  0  0  0
   38.7175   28.5352   42.3973 H   0  0  0  0  0  0  0  0  0  0  0  0
  1  7  1  0
  1  2  2  0
  2  3  1  0
  4  3  2  0
  5  4  1  0
  6  5  2  0
  6  1  1  0
  7 10  1  0
  8  7  2  0
  9 14  2  0
 10 11  2  0
 10  9  1  0
 11 12  1  0
 12 13  2  0
 14 13  1  0
 15  5  1  0
 16 15  1  0
  2 17  1  0
  3 18  1  0
  4 19  1  0
  9 20  1  0
 11 21  1  0
 13 22  1  0
 16 23  1  0
 16 24  1  0
 25 26  1  0
 26 27  2  0
 27 28  1  0
 28 29  1  0
 28 30  2  0
 30 31  1  0
 31 32  1  0
 31 33  2  0
 33 34  1  0
 33 26  1  0
 30 35  1  0
 16 27  1  0
M  ISO  8  17  14  18  14  19  14  20  14  21  14  22  14  23   8  24   8
M  ISO  2  29  16  34  15
M  END
>  <DihAtoms>  (1) 
14,15,26,25

>  <DihDeg>  (1) 
-75.63847511260606

$$$$
