REMARK  Name = 
REMARK  3 active torsions:
REMARK  status: ('A' for Active; 'I' for Inactive)
REMARK    1  A    between atoms: C_3  and  C_13
REMARK    2  A    between atoms: C_8  and  C_15
REMARK    3  A    between atoms: C_15  and  C_25
REMARK                            x       y       z     vdW  Elec       q    Type
REMARK                         _______ _______ _______ _____ _____    ______ ____
ROOT
ATOM      1 CL   UNL     1      38.475  30.793  49.859  0.00  0.00    +0.000 Cl
ATOM      2  C   UNL     1      37.090  30.349  48.884  0.00  0.00    +0.000 A 
ATOM      3  C   UNL     1      37.094  30.619  47.533  0.00  0.00    +0.000 A 
ATOM      4  C   UNL     1      36.038  30.291  46.732  0.00  0.00    +0.000 A 
ATOM      5  C   UNL     1      34.927  29.674  47.267  0.00  0.00    +0.000 A 
ATOM      6  C   UNL     1      34.882  29.389  48.605  0.00  0.00    +0.000 A 
ATOM      7 CL   UNL     1      33.539  28.612  49.407  0.00  0.00    +0.000 Cl
ATOM      8  C   UNL     1      35.968  29.737  49.370  0.00  0.00    +0.000 A 
ATOM      9  H   UNL     1      36.005  30.486  45.674  0.00  0.00    +0.000 HD
ATOM     10  H   UNL     1      34.075  29.402  46.656  0.00  0.00    +0.000 HD
ENDROOT
BRANCH   3  15
ATOM     11  C   UNL     1      39.602  33.159  46.650  0.00  0.00    +0.000 A 
ATOM     12  C   UNL     1      40.460  32.486  45.800  0.00  0.00    +0.000 A 
ATOM     13  C   UNL     1      40.160  31.118  45.527  0.00  0.00    +0.000 A 
ATOM     14  N   UNL     1      39.063  30.572  46.114  0.00  0.00    +0.000 NA
ATOM     15  C   UNL     1      38.254  31.276  46.941  0.00  0.00    +0.000 A 
ATOM     16  N   UNL     1      38.536  32.571  47.200  0.00  0.00    +0.000 NA
ATOM     17  H   UNL     1      39.892  34.176  46.802  0.00  0.00    +0.000 HD
ATOM     18  H   UNL     1      41.343  32.803  45.284  0.00  0.00    +0.000 HD
ATOM     19  H   UNL     1      40.687  30.417  44.904  0.00  0.00    +0.000 HD
ENDBRANCH   3  15
BRANCH   8  20
ATOM     20  C   UNL     1      35.961  29.465  50.862  0.00  0.00    +0.000 C 
ATOM     21  H   UNL     1      36.349  30.408  51.324  0.00  0.00    +0.000 HD
ATOM     22  H   UNL     1      34.919  29.268  51.184  0.00  0.00    +0.000 HD
BRANCH  20  25
ATOM     23 CL   UNL     1      37.133  28.209  48.449  0.00  0.00    +0.000 Cl
ATOM     24  C   UNL     1      37.386  27.688  50.105  0.00  0.00    +0.000 A 
ATOM     25  C   UNL     1      36.808  28.315  51.193  0.00  0.00    +0.000 A 
ATOM     26  C   UNL     1      37.081  27.813  52.458  0.00  0.00    +0.000 A 
ATOM     27  H   UNL     1      36.586  28.374  53.238  0.00  0.00    +0.000 HD
ATOM     28  C   UNL     1      37.902  26.720  52.640  0.00  0.00    +0.000 A 
ATOM     29  C   UNL     1      38.489  26.079  51.560  0.00  0.00    +0.000 A 
ATOM     30 CL   UNL     1      39.536  24.688  51.805  0.00  0.00    +0.000 Cl
ATOM     31  C   UNL     1      38.216  26.580  50.306  0.00  0.00    +0.000 A 
ATOM     32  H   UNL     1      38.674  26.087  49.433  0.00  0.00    +0.000 HD
ENDBRANCH  20  25
ENDBRANCH   8  20
TORSDOF 3
