
     RDKit          3D

 27 29  0  0  0  0  0  0  0  0999 V2000
   37.4797   30.4828   50.8883 C   0  0  0  0  0  0  0  0  0  0  0  0
   37.1136   31.0858   49.6876 C   0  0  0  0  0  0  0  0  0  0  0  0
   35.8643   30.7541   49.1586 C   0  0  0  0  0  0  0  0  0  0  0  0
   35.0868   29.8650   49.8488 N   0  0  0  0  0  0  0  0  0  0  0  0
   35.4902   29.3096   51.0088 C   0  0  0  0  0  0  0  0  0  0  0  0
   36.6986   29.6154   51.5430 N   0  0  0  0  0  0  0  0  0  0  0  0
   37.9456   32.0196   48.9754 C   0  0  0  0  0  0  0  0  0  0  0  0
   38.5472   31.7341   47.7493 C   0  0  0  0  0  0  0  0  0  0  0  0
   39.2756   32.8338   47.3348 C   0  0  0  0  0  0  0  0  0  0  0  0
   39.1053   33.7699   48.3151 N   0  0  0  0  0  0  0  0  0  0  0  0
   38.3243   33.2688   49.2614 N   0  0  0  0  0  0  0  0  0  0  0  0
   38.4614   30.7316   51.3216 H   0  0  0  0  0  0  0  0  0  0  0  0
   35.4905   31.1693   48.2323 H   0  0  0  0  0  0  0  0  0  0  0  0
   34.7672   28.6269   51.4355 H   0  0  0  0  0  0  0  0  0  0  0  0
   38.4624   30.7938   47.1961 H   0  0  0  0  0  0  0  0  0  0  0  0
   39.8440   32.8849   46.4137 H   0  0  0  0  0  0  0  0  0  0  0  0
   37.1572   35.9932   48.0561 Cl  0  0  0  0  0  0  0  0  0  0  0  0
   38.9060   36.1451   48.0784 C   0  0  0  0  0  0  0  0  0  0  0  0
   39.7300   35.0430   48.2038 C   0  0  0  0  0  0  0  0  0  0  0  0
   41.1231   35.1721   48.2207 C   0  0  0  0  0  0  0  0  0  0  0  0
   41.7295   34.2612   48.3227 H   0  0  0  0  0  0  0  0  0  0  0  0
   41.7117   36.4361   48.1095 C   0  0  0  0  0  0  0  0  0  0  0  0
   40.8551   37.5343   47.9839 C   0  0  0  0  0  0  0  0  0  0  0  0
   41.6048   39.1265   47.8440 Cl  0  0  0  0  0  0  0  0  0  0  0  0
   39.4760   37.3969   47.9680 C   0  0  0  0  0  0  0  0  0  0  0  0
   38.8768   38.2928   47.8676 H   0  0  0  0  0  0  0  0  0  0  0  0
   42.7828   36.5219   48.1239 H   0  0  0  0  0  0  0  0  0  0  0  0
  1  6  2  0
  2  1  1  0
  3  2  2  0
  3  4  1  0
  4  5  2  0
  5  6  1  0
  7 11  2  0
  7  2  1  0
  8  7  1  0
  9  8  2  0
  9 10  1  0
 10 11  1  0
  1 12  1  0
  3 13  1  0
  5 14  1  0
  8 15  1  0
  9 16  1  0
 17 18  1  0
 18 19  2  0
 19 20  1  0
 20 21  1  0
 20 22  2  0
 22 23  1  0
 23 24  1  0
 23 25  2  0
 25 26  1  0
 25 18  1  0
 22 27  1  0
 10 19  1  0
M  ISO  7  12  14  13  14  14  14  15  14  16  14  21  16  26  15
M  END
>  <DihAtoms>  (1) 
8,9,18,17

>  <DihDeg>  (1) 
-124.95922344073684

$$$$
