REMARK  Name = 
REMARK  5 active torsions:
REMARK  status: ('A' for Active; 'I' for Inactive)
REMARK    1  A    between atoms: N_1  and  C_6
REMARK    2  A    between atoms: C_3  and  C_18
REMARK    3  A    between atoms: C_10  and  S_12
REMARK    4  A    between atoms: S_12  and  C_13
REMARK    5  A    between atoms: C_16  and  C_35
REMARK                            x       y       z     vdW  Elec       q    Type
REMARK                         _______ _______ _______ _____ _____    ______ ____
ROOT
ATOM      1  C   UNL     1      35.250  29.423  47.899  0.00  0.00    +0.000 A 
ATOM      2  C   UNL     1      35.117  30.019  46.645  0.00  0.00    +0.000 A 
ATOM      3  C   UNL     1      33.987  29.687  45.889  0.00  0.00    +0.000 A 
ATOM      4  N   UNL     1      33.092  28.796  46.443  0.00  0.00    +0.000 NA
ATOM      5  C   UNL     1      33.261  28.250  47.648  0.00  0.00    +0.000 A 
ATOM      6  N   UNL     1      34.341  28.566  48.373  0.00  0.00    +0.000 NA
ATOM      7  H   UNL     1      35.818  30.717  46.209  0.00  0.00    +0.000 HD
ATOM      8  H   UNL     1      33.796  30.090  44.918  0.00  0.00    +0.000 HD
ENDROOT
BRANCH   1   9
ATOM      9  N   UNL     1      36.412  29.770  48.665  0.00  0.00    +0.000 N 
ATOM     10  C   UNL     1      37.538  30.540  48.230  0.00  0.00    +0.000 C 
ATOM     11  C   UNL     1      38.036  31.154  49.531  0.00  0.00    +0.000 C 
ATOM     12  C   UNL     1      37.019  30.768  50.603  0.00  0.00    +0.000 C 
ATOM     13  C   UNL     1      36.664  29.395  50.054  0.00  0.00    +0.000 C 
ATOM     14  H   UNL     1      37.252  31.357  47.514  0.00  0.00    +0.000 HD
ATOM     15  H   UNL     1      38.355  29.909  47.806  0.00  0.00    +0.000 HD
ATOM     16  H   UNL     1      38.998  30.686  49.853  0.00  0.00    +0.000 HD
ATOM     17  H   UNL     1      36.157  31.434  50.538  0.00  0.00    +0.000 HD
ATOM     18  H   UNL     1      37.471  30.719  51.600  0.00  0.00    +0.000 HD
ATOM     19  H   UNL     1      35.735  29.040  50.528  0.00  0.00    +0.000 HD
ATOM     20  H   UNL     1      37.521  28.723  50.154  0.00  0.00    +0.000 HD
BRANCH  11  21
ATOM     21  C   UNL     1      38.191  32.646  49.429  0.00  0.00    +0.000 C 
ATOM     22  F   UNL     1      37.042  33.203  49.956  0.00  0.00    +0.000 F 
ATOM     23  F   UNL     1      38.201  32.959  48.095  0.00  0.00    +0.000 F 
ATOM     24  F   UNL     1      39.318  33.117  50.048  0.00  0.00    +0.000 F 
ENDBRANCH  11  21
ENDBRANCH   1   9
BRANCH   5  25
ATOM     25  S   UNL     1      32.068  27.105  48.311  0.00  0.00    +0.000 S 
BRANCH  25  26
ATOM     26  C   UNL     1      30.575  27.718  48.803  0.00  0.00    +0.000 A 
ATOM     27  C   UNL     1      29.806  27.862  49.920  0.00  0.00    +0.000 A 
ATOM     28  C   UNL     1      28.581  28.434  49.961  0.00  0.00    +0.000 A 
ATOM     29  C   UNL     1      28.119  28.911  48.637  0.00  0.00    +0.000 A 
ATOM     30  S   UNL     1      29.475  28.492  47.502  0.00  0.00    +0.000 S 
ATOM     31  H   UNL     1      30.309  27.456  50.784  0.00  0.00    +0.000 HD
ATOM     32  H   UNL     1      27.981  28.545  50.841  0.00  0.00    +0.000 HD
BRANCH  29  35
ATOM     33 CL   UNL     1      27.402  31.044  50.574  0.00  0.00    +0.000 Cl
ATOM     34  C   UNL     1      26.487  30.552  49.167  0.00  0.00    +0.000 A 
ATOM     35  C   UNL     1      26.904  29.546  48.324  0.00  0.00    +0.000 A 
ATOM     36  C   UNL     1      26.231  29.114  47.205  0.00  0.00    +0.000 A 
ATOM     37  H   UNL     1      26.601  28.323  46.580  0.00  0.00    +0.000 HD
ATOM     38  C   UNL     1      25.022  29.756  46.904  0.00  0.00    +0.000 A 
ATOM     39  C   UNL     1      24.552  30.785  47.728  0.00  0.00    +0.000 A 
ATOM     40 CL   UNL     1      23.045  31.608  47.382  0.00  0.00    +0.000 Cl
ATOM     41  C   UNL     1      25.277  31.187  48.856  0.00  0.00    +0.000 A 
ATOM     42  H   UNL     1      24.899  31.984  49.482  0.00  0.00    +0.000 HD
ENDBRANCH  29  35
ENDBRANCH  25  26
ENDBRANCH   5  25
TORSDOF 5
