
 OpenBabel03272507163D

 27 29  0  0  1  0  0  0  0  0999 V2000
   37.0750   30.7850   50.4690 C   0  0  1  0  0  0  0  0  0  0  0  0
   36.1040   29.7410   50.2410 C   0  0  2  0  0  0  0  0  0  0  0  0
   37.4780   29.3310   50.7300 C   0  0  0  0  0  0  0  0  0  0  0  0
   37.0840   31.4400   51.3900 H   0  0  0  0  0  0  0  0  0  0  0  0
   35.2350   29.7130   50.9380 H   0  0  0  0  0  0  0  0  0  0  0  0
   37.4680   29.0380   51.7980 H   0  0  0  0  0  0  0  0  0  0  0  0
   38.1540   28.8300   50.0180 H   0  0  0  0  0  0  0  0  0  0  0  0
   37.8570   31.3990   49.3260 C   0  0  0  0  0  0  0  0  0  0  0  0
   38.2700   32.7190   49.4990 C   0  0  0  0  0  0  0  0  0  0  0  0
   38.9620   33.2700   48.4320 C   0  0  0  0  0  0  0  0  0  0  0  0
   39.2040   32.5300   47.3010 N   0  0  0  0  0  0  0  0  0  0  0  0
   38.7820   31.2470   47.1780 C   0  0  0  0  0  0  0  0  0  0  0  0
   38.0970   30.6660   48.2060 N   0  0  0  0  0  0  0  0  0  0  0  0
   38.0470   33.2480   50.4150 H   0  0  0  0  0  0  0  0  0  0  0  0
   39.2970   34.2910   48.5310 H   0  0  0  0  0  0  0  0  0  0  0  0
   39.0040   30.7160   46.2610 H   0  0  0  0  0  0  0  0  0  0  0  0
   35.7990   29.3640   48.9240 O   0  0  0  0  0  0  0  0  0  0  0  0
   35.4690   30.1100   46.0720 Cl  0  0  0  0  0  0  0  0  0  0  0  0
   34.3700   29.2220   47.1130 C   0  0  0  0  0  0  0  0  0  0  0  0
   34.6010   28.9120   48.4480 C   0  0  0  0  0  0  0  0  0  0  0  0
   33.6370   28.2080   49.1320 C   0  0  0  0  0  0  0  0  0  0  0  0
   33.8580   27.9870   50.1700 H   0  0  0  0  0  0  0  0  0  0  0  0
   32.4520   27.7890   48.5690 C   0  0  0  0  0  0  0  0  0  0  0  0
   32.2270   28.1020   47.2370 C   0  0  0  0  0  0  0  0  0  0  0  0
   30.7350   27.5900   46.4830 Cl  0  0  0  0  0  0  0  0  0  0  0  0
   33.1770   28.8100   46.5210 C   0  0  0  0  0  0  0  0  0  0  0  0
   32.9390   29.0180   45.4970 H   0  0  0  0  0  0  0  0  0  0  0  0
  1  3  1  0  0  0  0
  1  4  1  1  0  0  0
  2  1  1  0  0  0  0
  2  3  1  0  0  0  0
  2  5  1  1  0  0  0
  3  6  1  0  0  0  0
  7  3  1  0  0  0  0
  8  9  1  0  0  0  0
  8  1  1  0  0  0  0
  9 14  1  0  0  0  0
 10 15  1  0  0  0  0
 10  9  2  0  0  0  0
 11 10  1  0  0  0  0
 12 11  2  0  0  0  0
 12 13  1  0  0  0  0
 13  8  2  0  0  0  0
 16 12  1  0  0  0  0
 17  2  1  0  0  0  0
 18 19  1  0  0  0  0
 19 20  1  0  0  0  0
 20 17  1  0  0  0  0
 20 21  2  0  0  0  0
 21 22  1  0  0  0  0
 23 21  1  0  0  0  0
 24 23  2  0  0  0  0
 25 24  1  0  0  0  0
 26 19  2  0  0  0  0
 26 24  1  0  0  0  0
 27 26  1  0  0  0  0
M  END
>  <minimizedAffinity>
-5.53551054

>  <minimizedRMSD>
1.71463037

$$$$
