
 OpenBabel03272510243D

 33 36  0  0  0  0  0  0  0  0999 V2000
   36.4270   30.4460   46.3800 C   0  0  0  0  0  0  0  0  0  0  0  0
   37.5560   30.5810   47.1710 C   0  0  0  0  0  0  0  0  0  0  0  0
   38.7800   30.8990   46.6170 C   0  0  0  0  0  0  0  0  0  0  0  0
   38.8140   31.0770   45.2320 C   0  0  0  0  0  0  0  0  0  0  0  0
   39.8780   31.3910   44.4450 N   0  0  0  0  0  0  0  0  0  0  0  0
   39.4220   31.4520   43.1950 C   0  0  0  0  0  0  0  0  0  0  0  0
   38.1240   31.1920   43.1430 N   0  0  0  0  0  0  0  0  0  0  0  0
   37.7010   30.9490   44.4090 C   0  0  0  0  0  0  0  0  0  0  0  0
   36.4910   30.6290   44.9990 C   0  0  0  0  0  0  0  0  0  0  0  0
   35.4330   30.1970   46.7500 H   0  0  0  0  0  0  0  0  0  0  0  0
   39.6620   31.0080   47.2070 H   0  0  0  0  0  0  0  0  0  0  0  0
   40.8580   31.5500   44.7870 H   0  0  0  0  0  0  0  0  0  0  0  0
   35.6170   30.5270   44.3680 H   0  0  0  0  0  0  0  0  0  0  0  0
   37.9000   30.7340   50.9180 C   0  0  0  0  0  0  0  0  0  0  0  0
   38.1490   31.0340   49.5820 C   0  0  0  0  0  0  0  0  0  0  0  0
   37.4100   30.3750   48.6070 C   0  0  0  0  0  0  0  0  0  0  0  0
   36.4690   29.4560   49.0120 N   0  0  0  0  0  0  0  0  0  0  0  0
   36.2590   29.1950   50.3180 C   0  0  0  0  0  0  0  0  0  0  0  0
   36.9700   29.8290   51.2560 N   0  0  0  0  0  0  0  0  0  0  0  0
   38.4950   31.2680   51.6440 H   0  0  0  0  0  0  0  0  0  0  0  0
   38.8860   31.7540   49.2450 H   0  0  0  0  0  0  0  0  0  0  0  0
   35.5000   28.4590   50.5590 H   0  0  0  0  0  0  0  0  0  0  0  0
   40.2530   31.7550   42.1170 O   0  0  0  0  0  0  0  0  0  0  0  0
   41.6830   29.1030   42.1150 Cl  0  0  0  0  0  0  0  0  0  0  0  0
   40.6950   29.7250   40.8040 C   0  0  0  0  0  0  0  0  0  0  0  0
   40.1160   30.9640   40.9840 C   0  0  0  0  0  0  0  0  0  0  0  0
   39.3320   31.4610   39.9490 C   0  0  0  0  0  0  0  0  0  0  0  0
   38.8420   32.4370   40.0210 H   0  0  0  0  0  0  0  0  0  0  0  0
   39.1370   30.7450   38.7800 C   0  0  0  0  0  3  0  0  0  0  0  0
   39.7350   29.5110   38.6410 C   0  0  0  0  0  0  0  0  0  0  0  0
   39.5330   28.5460   37.1890 Cl  0  0  0  0  0  0  0  0  0  0  0  0
   40.5190   28.9870   39.6500 C   0  0  0  0  0  0  0  0  0  0  0  0
   40.9780   28.0230   39.5260 H   0  0  0  0  0  0  0  0  0  0  0  0
  1 10  1  0  0  0  0
  1  2  1  0  0  0  0
  2 16  1  0  0  0  0
  3  2  2  0  0  0  0
  3 11  1  0  0  0  0
  4  3  1  0  0  0  0
  5 12  1  0  0  0  0
  5  4  1  0  0  0  0
  6  5  1  0  0  0  0
  7  6  2  0  0  0  0
  7  8  1  0  0  0  0
  8  9  1  0  0  0  0
  8  4  2  0  0  0  0
  9  1  2  0  0  0  0
 13  9  1  0  0  0  0
 14 19  1  0  0  0  0
 14 20  1  0  0  0  0
 15 14  2  0  0  0  0
 16 17  2  0  0  0  0
 16 15  1  0  0  0  0
 17 18  1  0  0  0  0
 18 22  1  0  0  0  0
 18 19  2  0  0  0  0
 21 15  1  0  0  0  0
 23  6  1  0  0  0  0
 25 26  1  0  0  0  0
 25 24  1  0  0  0  0
 26 23  1  0  0  0  0
 27 28  1  0  0  0  0
 27 26  2  0  0  0  0
 29 27  1  0  0  0  0
 30 29  2  0  0  0  0
 30 32  1  0  0  0  0
 31 30  1  0  0  0  0
 32 25  2  0  0  0  0
 33 32  1  0  0  0  0
M  END
>  <minimizedAffinity>
-5.47621155

>  <minimizedRMSD>
2.98427391

$$$$
