
 OpenBabel03272510303D

 29 31  0  0  0  0  0  0  0  0999 V2000
   37.4400   31.2470   48.9960 C   0  0  0  0  0  0  0  0  0  0  0  0
   37.7690   32.5150   49.4790 C   0  0  0  0  0  0  0  0  0  0  0  0
   38.6800   33.2230   48.7280 C   0  0  0  0  0  0  0  0  0  0  0  0
   39.2020   32.6700   47.5820 N   0  0  0  0  0  0  0  0  0  0  0  0
   38.8480   31.4270   47.1540 C   0  0  0  0  0  0  0  0  0  0  0  0
   37.9450   30.6980   47.8780 N   0  0  0  0  0  0  0  0  0  0  0  0
   37.3170   32.8850   50.3910 H   0  0  0  0  0  0  0  0  0  0  0  0
   38.9810   34.2150   49.0450 H   0  0  0  0  0  0  0  0  0  0  0  0
   36.4210   30.4530   49.7740 C   0  0  0  0  0  0  0  0  0  0  0  0
   36.2280   29.0370   49.6010 C   0  0  0  0  0  0  0  0  0  0  0  0
   37.0620   29.4910   50.7850 C   0  0  0  0  0  0  0  0  0  0  0  0
   35.5880   31.0830   50.1880 H   0  0  0  0  0  0  0  0  0  0  0  0
   35.2420   28.5900   49.7790 H   0  0  0  0  0  0  0  0  0  0  0  0
   36.7910   28.5550   48.7530 H   0  0  0  0  0  0  0  0  0  0  0  0
   36.5500   29.4700   51.7540 H   0  0  0  0  0  0  0  0  0  0  0  0
   38.1550   29.3560   50.7800 H   0  0  0  0  0  0  0  0  0  0  0  0
   39.3820   30.8340   45.9300 C   0  0  0  0  0  0  0  0  0  0  0  0
   39.1480   29.7300   45.9070 H   0  0  0  0  0  0  0  0  0  0  0  0
   40.4760   30.9500   45.8440 H   0  0  0  0  0  0  0  0  0  0  0  0
   40.9240   30.3910   43.3240 Cl  0  0  0  0  0  0  0  0  0  0  0  0
   39.3890   31.2100   43.5210 C   0  0  0  0  0  0  0  0  0  0  0  0
   38.7090   31.3980   44.7070 C   0  0  0  0  0  0  0  0  0  0  0  0
   37.5040   32.0680   44.6900 C   0  0  0  0  0  0  0  0  0  0  0  0
   37.0140   32.1880   45.6510 H   0  0  0  0  0  0  0  0  0  0  0  0
   36.9740   32.5460   43.5240 C   0  0  0  0  0  3  0  0  0  0  0  0
   37.6520   32.3620   42.3160 C   0  0  0  0  0  0  0  0  0  0  0  0
   36.9330   32.9920   40.8510 Cl  0  0  0  0  0  0  0  0  0  0  0  0
   38.8640   31.6900   42.3180 C   0  0  0  0  0  0  0  0  0  0  0  0
   39.3300   31.5850   41.3500 H   0  0  0  0  0  0  0  0  0  0  0  0
  1  2  1  0  0  0  0
  1  9  1  0  0  0  0
  2  7  1  0  0  0  0
  3  8  1  0  0  0  0
  3  2  2  0  0  0  0
  4  3  1  0  0  0  0
  5  4  2  0  0  0  0
  5  6  1  0  0  0  0
  6  1  2  0  0  0  0
  9 12  1  0  0  0  0
  9 11  1  0  0  0  0
 10  9  1  0  0  0  0
 10 13  1  0  0  0  0
 10 11  1  0  0  0  0
 11 15  1  0  0  0  0
 14 10  1  0  0  0  0
 16 11  1  0  0  0  0
 17  5  1  0  0  0  0
 18 17  1  0  0  0  0
 19 17  1  0  0  0  0
 20 21  1  0  0  0  0
 21 22  1  0  0  0  0
 22 17  1  0  0  0  0
 23 22  2  0  0  0  0
 23 24  1  0  0  0  0
 25 23  1  0  0  0  0
 26 28  1  0  0  0  0
 26 25  2  0  0  0  0
 27 26  1  0  0  0  0
 28 21  2  0  0  0  0
 29 28  1  0  0  0  0
M  END
>  <minimizedAffinity>
-5.41123056

>  <minimizedRMSD>
0.833213031

$$$$
