
 OpenBabel03272503333D

 42 45  0  0  1  0  0  0  0  0999 V2000
   35.4240   29.4130   47.8150 C   0  0  0  0  0  0  0  0  0  0  0  0
   35.3640   29.9810   46.5420 C   0  0  0  0  0  0  0  0  0  0  0  0
   34.3010   29.6000   45.7150 C   0  0  0  0  0  0  0  0  0  0  0  0
   33.3960   28.6910   46.2220 N   0  0  0  0  0  0  0  0  0  0  0  0
   33.4940   28.1730   47.4470 C   0  0  0  0  0  0  0  0  0  0  0  0
   34.5100   28.5370   48.2400 N   0  0  0  0  0  0  0  0  0  0  0  0
   36.0730   30.6930   46.1430 H   0  0  0  0  0  0  0  0  0  0  0  0
   34.1690   29.9790   44.7250 H   0  0  0  0  0  0  0  0  0  0  0  0
   36.5170   29.8110   48.6540 N   0  0  0  0  0  0  0  0  0  0  0  0
   37.6700   30.5690   48.2740 C   0  0  0  0  0  0  0  0  0  0  0  0
   38.0560   31.2540   49.5770 C   0  0  2  0  0  0  0  0  0  0  0  0
   36.9560   30.9130   50.5810 C   0  0  0  0  0  0  0  0  0  0  0  0
   36.6560   29.5100   50.0770 C   0  0  0  0  0  0  0  0  0  0  0  0
   37.4390   31.3450   47.4950 H   0  0  0  0  0  0  0  0  0  0  0  0
   38.5230   29.9260   47.9510 H   0  0  0  0  0  0  0  0  0  0  0  0
   38.9910   30.8130   50.0010 H   0  0  0  0  0  0  0  0  0  0  0  0
   36.0990   31.5660   50.4110 H   0  0  0  0  0  0  0  0  0  0  0  0
   37.3250   30.9190   51.6130 H   0  0  0  0  0  0  0  0  0  0  0  0
   35.6930   29.1700   50.4910 H   0  0  0  0  0  0  0  0  0  0  0  0
   37.5060   28.8530   50.2810 H   0  0  0  0  0  0  0  0  0  0  0  0
   38.2100   32.7400   49.4110 C   0  0  0  0  0  0  0  0  0  0  0  0
   37.0620   33.3190   49.9180 F   0  0  0  0  0  0  0  0  0  0  0  0
   38.2150   32.9960   48.0650 F   0  0  0  0  0  0  0  0  0  0  0  0
   39.3380   33.2380   50.0060 F   0  0  0  0  0  0  0  0  0  0  0  0
   32.2920   27.0040   48.0470 S   0  0  0  0  0  0  0  0  0  0  0  0
   30.8520   27.6100   48.6850 C   0  0  0  0  0  0  0  0  0  0  0  0
   30.0930   27.5610   49.8170 C   0  0  0  0  0  0  0  0  0  0  0  0
   28.9190   28.2070   50.0030 C   0  0  0  0  0  0  0  0  0  0  0  0
   28.5030   29.0040   48.8260 C   0  0  0  0  0  0  0  0  0  0  0  0
   29.8250   28.7420   47.6060 S   0  0  0  0  0  0  0  0  0  0  0  0
   30.5580   26.9330   50.5610 H   0  0  0  0  0  0  0  0  0  0  0  0
   28.3270   28.1660   50.8940 H   0  0  0  0  0  0  0  0  0  0  0  0
   26.2410   28.0410   50.4910 Cl  0  0  0  0  0  0  0  0  0  0  0  0
   26.2400   29.4200   49.4150 C   0  0  0  0  0  0  0  0  0  0  0  0
   27.3460   29.7890   48.6810 C   0  0  0  0  0  0  0  0  0  0  0  0
   27.4080   30.8600   47.8200 C   0  0  0  0  0  0  0  0  0  0  0  0
   28.2980   31.1050   47.2700 H   0  0  0  0  0  0  0  0  0  0  0  0
   26.2480   31.6350   47.6850 C   0  0  0  0  0  3  0  0  0  0  0  0
   25.0970   31.3030   48.4080 C   0  0  0  0  0  0  0  0  0  0  0  0
   23.6300   32.2490   48.2620 Cl  0  0  0  0  0  0  0  0  0  0  0  0
   25.0870   30.2010   49.2720 C   0  0  0  0  0  0  0  0  0  0  0  0
   24.1880   29.9580   49.8230 H   0  0  0  0  0  0  0  0  0  0  0  0
  1  6  1  0  0  0  0
  1  9  1  0  0  0  0
  2  1  2  0  0  0  0
  3  4  2  0  0  0  0
  3  2  1  0  0  0  0
  4  5  1  0  0  0  0
  5 25  1  0  0  0  0
  5  6  2  0  0  0  0
  7  2  1  0  0  0  0
  8  3  1  0  0  0  0
  9 13  1  0  0  0  0
 10  9  1  0  0  0  0
 10 11  1  0  0  0  0
 11 16  1  1  0  0  0
 11 12  1  0  0  0  0
 12 18  1  0  0  0  0
 13 20  1  0  0  0  0
 13 19  1  0  0  0  0
 13 12  1  0  0  0  0
 14 10  1  0  0  0  0
 15 10  1  0  0  0  0
 17 12  1  0  0  0  0
 21 11  1  0  0  0  0
 21 22  1  0  0  0  0
 21 24  1  0  0  0  0
 23 21  1  0  0  0  0
 25 26  1  0  0  0  0
 26 27  2  0  0  0  0
 27 28  1  0  0  0  0
 27 31  1  0  0  0  0
 28 32  1  0  0  0  0
 29 28  2  0  0  0  0
 30 26  1  0  0  0  0
 30 29  1  0  0  0  0
 34 33  1  0  0  0  0
 35 29  1  0  0  0  0
 35 34  2  0  0  0  0
 36 35  1  0  0  0  0
 37 36  1  0  0  0  0
 38 36  2  0  0  0  0
 38 39  1  0  0  0  0
 39 41  2  0  0  0  0
 40 39  1  0  0  0  0
 41 34  1  0  0  0  0
 41 42  1  0  0  0  0
M  END
>  <minimizedAffinity>
-6.99459934

>  <minimizedRMSD>
0.514906943

$$$$
