
 OpenBabel03262521513D

 23 24  0  0  0  0  0  0  0  0999 V2000
   37.3030   30.9120   47.0690 C   0  0  0  0  0  0  0  0  0  0  0  0
   36.3320   31.3410   46.7410 H   0  0  0  0  0  0  0  0  0  0  0  0
   37.4370   29.9860   46.4680 H   0  0  0  0  0  0  0  0  0  0  0  0
   34.9900   29.1720   48.1130 Cl  0  0  0  0  0  0  0  0  0  0  0  0
   36.3000   29.7870   49.1210 C   0  0  0  0  0  0  0  0  0  0  0  0
   37.2650   30.5650   48.5110 C   0  0  0  0  0  0  0  0  0  0  0  0
   38.2880   31.0330   49.3410 C   0  0  0  0  0  0  0  0  0  0  0  0
   39.1010   31.6550   48.9420 H   0  0  0  0  0  0  0  0  0  0  0  0
   38.3600   30.7520   50.6870 C   0  0  0  0  0  0  0  0  0  0  0  0
   37.3860   29.9720   51.2890 C   0  0  0  0  0  0  0  0  0  0  0  0
   37.4790   29.6110   53.0050 Cl  0  0  0  0  0  0  0  0  0  0  0  0
   36.3540   29.4970   50.4790 C   0  0  0  0  0  0  0  0  0  0  0  0
   35.5830   28.8830   50.9510 H   0  0  0  0  0  0  0  0  0  0  0  0
   38.6540   32.0200   46.6140 S   0  0  0  0  0  0  0  0  0  0  0  0
   38.4360   32.4660   44.9040 C   0  0  0  0  0  0  0  0  0  0  0  0
   39.5880   33.0170   44.3250 C   0  0  0  0  0  0  0  0  0  0  0  0
   39.5510   33.3940   42.9730 C   0  0  0  0  0  0  0  0  0  0  0  0
   38.3920   33.2060   42.2890 N   0  0  0  0  0  0  0  0  0  0  0  0
   37.3100   32.6730   42.8910 C   0  0  0  0  0  0  0  0  0  0  0  0
   37.3440   32.3120   44.1800 N   0  0  0  0  0  0  0  0  0  0  0  0
   40.5620   33.2180   44.7750 H   0  0  0  0  0  0  0  0  0  0  0  0
   40.4030   33.8200   42.4680 H   0  0  0  0  0  0  0  0  0  0  0  0
   36.3380   32.4740   42.4350 H   0  0  0  0  0  0  0  0  0  0  0  0
  1  6  1  0  0  0  0
  2  1  1  0  0  0  0
  3  1  1  0  0  0  0
  4  5  1  0  0  0  0
  5 12  1  0  0  0  0
  6  5  2  0  0  0  0
  6  7  1  0  0  0  0
  7  9  2  0  0  0  0
  8  7  1  0  0  0  0
  9 10  1  0  0  0  0
 10 11  1  0  0  0  0
 12 13  1  0  0  0  0
 12 10  2  0  0  0  0
 14  1  1  0  0  0  0
 15 14  1  0  0  0  0
 16 21  1  0  0  0  0
 16 15  1  0  0  0  0
 17 16  2  0  0  0  0
 18 19  2  0  0  0  0
 18 17  1  0  0  0  0
 19 20  1  0  0  0  0
 20 15  2  0  0  0  0
 22 17  1  0  0  0  0
 23 19  1  0  0  0  0
M  END
>  <minimizedAffinity>
-4.56192255

>  <minimizedRMSD>
4.89349127

$$$$
