REMARK  Name = 
REMARK  7 active torsions:
REMARK  status: ('A' for Active; 'I' for Inactive)
REMARK    1  A    between atoms: C_1  and  S_2
REMARK    2  A    between atoms: C_1  and  S_9
REMARK    3  A    between atoms: S_2  and  C_3
REMARK    4  A    between atoms: S_9  and  C_11
REMARK    5  A    between atoms: C_10  and  O_16
REMARK    6  A    between atoms: C_15  and  O_17
REMARK    7  A    between atoms: O_17  and  C_33
REMARK                            x       y       z     vdW  Elec       q    Type
REMARK                         _______ _______ _______ _____ _____    ______ ____
ROOT
ATOM      1  C   UNL     1      32.962  27.361  48.164  0.00  0.00    +0.000 C 
ATOM      2  C   UNL     1      33.590  28.658  48.601  0.00  0.00    +0.000 C 
ATOM      3  C   UNL     1      33.804  29.491  47.376  0.00  0.00    +0.000 C 
ATOM      4  O   UNL     1      33.392  28.885  46.207  0.00  0.00    +0.000 OA
ATOM      5  C   UNL     1      32.039  28.552  46.242  0.00  0.00    +0.000 C 
ATOM      6  C   UNL     1      31.668  27.710  47.437  0.00  0.00    +0.000 C 
ATOM      7  H   UNL     1      32.739  26.679  48.996  0.00  0.00    +0.000 HD
ATOM      8  H   UNL     1      32.877  29.133  49.312  0.00  0.00    +0.000 HD
ATOM      9  H   UNL     1      33.224  30.450  47.501  0.00  0.00    +0.000 HD
ATOM     10  H   UNL     1      34.872  29.729  47.273  0.00  0.00    +0.000 HD
ATOM     11  H   UNL     1      31.488  29.514  46.265  0.00  0.00    +0.000 HD
ATOM     12  H   UNL     1      31.790  28.075  45.280  0.00  0.00    +0.000 HD
ATOM     13  H   UNL     1      31.198  26.803  47.062  0.00  0.00    +0.000 HD
ENDROOT
BRANCH   1  14
ATOM     14  O   UNL     1      33.770  26.693  47.235  0.00  0.00    +0.000 OA
ATOM     15  H   UNL     1      33.238  26.267  46.524  0.00  0.00    +0.000 HD
ENDBRANCH   1  14
BRANCH   2  16
ATOM     16  S   UNL     1      35.141  28.386  49.489  0.00  0.00    +0.000 S 
BRANCH  16  17
ATOM     17  C   UNL     1      35.516  29.835  50.518  0.00  0.00    +0.000 C 
ATOM     18  H   UNL     1      35.063  30.707  49.984  0.00  0.00    +0.000 HD
ATOM     19  H   UNL     1      34.983  29.771  51.491  0.00  0.00    +0.000 HD
BRANCH  17  20
ATOM     20  S   UNL     1      37.259  30.124  50.749  0.00  0.00    +0.000 S 
BRANCH  20  21
ATOM     21  C   UNL     1      37.910  30.971  49.318  0.00  0.00    +0.000 A 
ATOM     22  C   UNL     1      38.333  32.260  49.562  0.00  0.00    +0.000 A 
ATOM     23  C   UNL     1      38.858  32.995  48.489  0.00  0.00    +0.000 A 
ATOM     24  N   UNL     1      38.922  32.395  47.262  0.00  0.00    +0.000 NA
ATOM     25  C   UNL     1      38.484  31.118  47.097  0.00  0.00    +0.000 A 
ATOM     26  N   UNL     1      37.990  30.418  48.095  0.00  0.00    +0.000 NA
ATOM     27  H   UNL     1      38.307  32.785  50.508  0.00  0.00    +0.000 HD
ATOM     28  H   UNL     1      39.207  33.998  48.596  0.00  0.00    +0.000 HD
ATOM     29  H   UNL     1      38.529  30.627  46.122  0.00  0.00    +0.000 HD
ENDBRANCH  20  21
ENDBRANCH  17  20
ENDBRANCH  16  17
ENDBRANCH   2  16
BRANCH   6  30
ATOM     30  O   UNL     1      30.945  28.478  48.339  0.00  0.00    +0.000 OA
BRANCH  30  33
ATOM     31 CL   UNL     1      29.991  30.548  50.247  0.00  0.00    +0.000 Cl
ATOM     32  C   UNL     1      29.142  29.096  49.704  0.00  0.00    +0.000 A 
ATOM     33  C   UNL     1      29.673  28.185  48.806  0.00  0.00    +0.000 A 
ATOM     34  C   UNL     1      28.910  27.091  48.461  0.00  0.00    +0.000 A 
ATOM     35  H   UNL     1      29.334  26.397  47.767  0.00  0.00    +0.000 HD
ATOM     36  C   UNL     1      27.651  26.889  48.984  0.00  0.00    +0.000 A 
ATOM     37  C   UNL     1      27.166  27.822  49.873  0.00  0.00    +0.000 A 
ATOM     38 CL   UNL     1      25.544  27.495  50.500  0.00  0.00    +0.000 Cl
ATOM     39  C   UNL     1      27.887  28.936  50.253  0.00  0.00    +0.000 A 
ATOM     40  H   UNL     1      27.402  29.592  50.954  0.00  0.00    +0.000 HD
ENDBRANCH  30  33
ENDBRANCH   6  30
TORSDOF 7
