
 OpenBabel03262523133D

 30 32  0  0  0  0  0  0  0  0999 V2000
   34.7480   29.2280   48.3350 C   0  0  0  0  0  0  0  0  0  0  0  0
   34.4900   27.9460   48.7510 C   0  0  0  0  0  0  0  0  0  0  0  0
   33.4100   27.3690   48.1330 C   0  0  0  0  0  0  0  0  0  0  0  0
   32.6480   28.0070   47.1830 C   0  0  0  0  0  0  0  0  0  0  0  0
   32.9850   29.2960   46.8290 C   0  0  0  0  0  0  0  0  0  0  0  0
   34.0370   29.9010   47.4100 N   0  0  0  0  0  0  0  0  0  0  0  0
   35.1020   27.4920   49.4860 H   0  0  0  0  0  0  0  0  0  0  0  0
   33.1390   26.3380   48.4150 H   0  0  0  0  0  0  0  0  0  0  0  0
   31.8310   27.4830   46.7590 H   0  0  0  0  0  0  0  0  0  0  0  0
   29.9730   29.0770   47.0070 Cl  0  0  0  0  0  0  0  0  0  0  0  0
   30.8480   29.9980   45.8220 C   0  0  0  0  0  0  0  0  0  0  0  0
   32.2200   30.0320   45.8290 C   0  0  0  0  0  0  0  0  0  0  0  0
   32.7710   30.8030   44.8290 C   0  0  0  0  0  0  0  0  0  0  0  0
   33.8460   30.8840   44.7630 H   0  0  0  0  0  0  0  0  0  0  0  0
   32.0560   31.4930   43.8910 C   0  0  0  0  0  0  0  0  0  0  0  0
   30.6760   31.4330   43.9190 C   0  0  0  0  0  0  0  0  0  0  0  0
   29.7320   32.3020   42.7340 Cl  0  0  0  0  0  0  0  0  0  0  0  0
   30.0850   30.6770   44.8950 C   0  0  0  0  0  0  0  0  0  0  0  0
   28.9970   30.6620   44.8760 H   0  0  0  0  0  0  0  0  0  0  0  0
   37.3750   30.2850   50.6860 C   0  0  0  0  0  0  0  0  0  0  0  0
   38.0010   31.3430   50.0090 C   0  0  0  0  0  0  0  0  0  0  0  0
   37.5110   31.6780   48.7530 C   0  0  0  0  0  0  0  0  0  0  0  0
   36.4690   30.9650   48.2710 N   0  0  0  0  0  0  0  0  0  0  0  0
   35.8820   29.9640   48.9180 C   0  0  0  0  0  0  0  0  0  0  0  0
   36.3520   29.6330   50.1390 N   0  0  0  0  0  0  0  0  0  0  0  0
   38.8160   31.8430   50.4760 H   0  0  0  0  0  0  0  0  0  0  0  0
   37.9630   32.4870   48.1940 H   0  0  0  0  0  0  0  0  0  0  0  0
   37.7970   29.8470   51.9970 N   0  0  0  0  0  0  0  0  0  0  0  0
   37.8690   28.8080   52.1280 H   0  0  0  0  0  0  0  0  0  0  0  0
   38.0360   30.4540   52.8300 H   0  0  0  0  0  0  0  0  0  0  0  0
  1  2  1  0  0  0  0
  1 24  1  0  0  0  0
  2  7  1  0  0  0  0
  3  8  1  0  0  0  0
  3  2  2  0  0  0  0
  4  3  1  0  0  0  0
  5  4  2  0  0  0  0
  5  6  1  0  0  0  0
  6  1  2  0  0  0  0
  9  4  1  0  0  0  0
 11 12  1  0  0  0  0
 11 10  1  0  0  0  0
 12  5  1  0  0  0  0
 13 12  2  0  0  0  0
 14 13  1  0  0  0  0
 15 16  2  0  0  0  0
 15 13  1  0  0  0  0
 16 18  1  0  0  0  0
 17 16  1  0  0  0  0
 18 11  2  0  0  0  0
 19 18  1  0  0  0  0
 20 28  1  0  0  0  0
 21 26  1  0  0  0  0
 21 20  2  0  0  0  0
 22 21  1  0  0  0  0
 23 22  2  0  0  0  0
 23 24  1  0  0  0  0
 24 25  2  0  0  0  0
 25 20  1  0  0  0  0
 27 22  1  0  0  0  0
 28 29  1  0  0  0  0
 28 30  1  0  0  0  0
M  END
>  <minimizedAffinity>
-5.64905214

>  <minimizedRMSD>
0.640392542

$$$$
