
 OpenBabel03262522133D

 34 36  0  0  0  0  0  0  0  0999 V2000
   37.6920   31.3380   47.2660 C   0  0  0  0  0  0  0  0  0  0  0  0
   37.9080   32.3920   48.1680 C   0  0  0  0  0  0  0  0  0  0  0  0
   39.0260   33.1780   48.0490 C   0  0  0  0  0  0  0  0  0  0  0  0
   39.8930   32.8740   47.0180 C   0  0  0  0  0  0  0  0  0  0  0  0
   39.6560   31.8500   46.1630 C   0  0  0  0  0  0  0  0  0  0  0  0
   38.5520   31.0380   46.2440 N   0  0  0  0  0  0  0  0  0  0  0  0
   37.1890   32.5750   48.9510 H   0  0  0  0  0  0  0  0  0  0  0  0
   39.1910   33.9770   48.7330 H   0  0  0  0  0  0  0  0  0  0  0  0
   40.7740   33.4960   46.9250 H   0  0  0  0  0  0  0  0  0  0  0  0
   36.4880   30.5520   47.4530 C   0  0  0  0  0  0  0  0  0  0  0  0
   35.7760   30.2490   46.4920 O   0  0  0  0  0  0  0  0  0  0  0  0
   37.0280   29.6270   49.6820 C   0  0  0  0  0  0  0  0  0  0  0  0
   36.0610   30.0840   48.7800 C   0  0  0  0  0  0  0  0  0  0  0  0
   34.6950   30.0930   49.1460 C   0  0  0  0  0  0  0  0  0  0  0  0
   34.3990   29.6330   50.4140 N   0  0  0  0  0  0  0  0  0  0  0  0
   35.3570   29.2000   51.2570 C   0  0  0  0  0  0  0  0  0  0  0  0
   36.6240   29.1990   50.8990 N   0  0  0  0  0  0  0  0  0  0  0  0
   38.0760   29.6050   49.4380 H   0  0  0  0  0  0  0  0  0  0  0  0
   34.0160   30.4520   48.4150 H   0  0  0  0  0  0  0  0  0  0  0  0
   34.8730   28.8970   52.1750 H   0  0  0  0  0  0  0  0  0  0  0  0
   40.7980   31.4640   44.8120 S   0  0  0  0  0  0  0  0  0  0  0  0
   39.7850   31.3060   43.3270 C   0  0  0  0  0  0  0  0  0  0  0  0
   38.7590   31.7320   43.4620 H   0  0  0  0  0  0  0  0  0  0  0  0
   40.2270   31.9510   42.5100 H   0  0  0  0  0  0  0  0  0  0  0  0
   40.9330   30.7990   40.5380 Cl  0  0  0  0  0  0  0  0  0  0  0  0
   40.1840   29.5730   41.5380 C   0  0  0  0  0  0  0  0  0  0  0  0
   39.7000   29.9240   42.8030 C   0  0  0  0  0  0  0  0  0  0  0  0
   39.1330   28.8840   43.5010 C   0  0  0  0  0  0  0  0  0  0  0  0
   38.7580   29.1740   44.4940 H   0  0  0  0  0  0  0  0  0  0  0  0
   38.9790   27.5660   43.1320 C   0  0  0  0  0  3  0  0  0  0  0  0
   39.4780   27.2640   41.8600 C   0  0  0  0  0  0  0  0  0  0  0  0
   39.3160   25.6050   41.3180 Cl  0  0  0  0  0  0  0  0  0  0  0  0
   40.0750   28.2580   41.0740 C   0  0  0  0  0  0  0  0  0  0  0  0
   40.4430   27.9660   40.0970 H   0  0  0  0  0  0  0  0  0  0  0  0
  1 10  1  0  0  0  0
  1  2  1  0  0  0  0
  2  7  1  0  0  0  0
  3  2  2  0  0  0  0
  3  8  1  0  0  0  0
  4  3  1  0  0  0  0
  5  6  1  0  0  0  0
  5  4  2  0  0  0  0
  6  1  2  0  0  0  0
  9  4  1  0  0  0  0
 10 13  1  0  0  0  0
 11 10  2  0  0  0  0
 12 17  1  0  0  0  0
 13 14  1  0  0  0  0
 13 12  2  0  0  0  0
 14 15  2  0  0  0  0
 15 16  1  0  0  0  0
 16 20  1  0  0  0  0
 17 16  2  0  0  0  0
 18 12  1  0  0  0  0
 19 14  1  0  0  0  0
 21  5  1  0  0  0  0
 22 23  1  0  0  0  0
 22 21  1  0  0  0  0
 24 22  1  0  0  0  0
 25 26  1  0  0  0  0
 26 27  1  0  0  0  0
 27 22  1  0  0  0  0
 27 28  2  0  0  0  0
 28 29  1  0  0  0  0
 30 28  1  0  0  0  0
 31 30  2  0  0  0  0
 32 31  1  0  0  0  0
 33 26  2  0  0  0  0
 33 31  1  0  0  0  0
 34 33  1  0  0  0  0
M  END
>  <minimizedAffinity>
-5.38580322

>  <minimizedRMSD>
1.93964195

$$$$
