
     RDKit          3D

 22 23  0  0  0  0  0  0  0  0999 V2000
   37.3544   30.2300   51.3733 C   0  0  0  0  0  0  0  0  0  0  0  0
   38.0149   30.7584   50.2618 C   0  0  0  0  0  0  0  0  0  0  0  0
   37.5680   30.4221   48.9903 C   0  0  0  0  0  0  0  0  0  0  0  0
   36.5051   29.5913   48.8978 N   0  0  0  0  0  0  0  0  0  0  0  0
   35.8841   29.0939   49.9956 C   0  0  0  0  0  0  0  0  0  0  0  0
   36.3014   29.4075   51.2250 N   0  0  0  0  0  0  0  0  0  0  0  0
   38.2053   30.9332   47.7975 C   0  0  0  0  0  0  0  0  0  0  0  0
   39.0258   31.8745   47.8205 O   0  0  0  0  0  0  0  0  0  0  0  0
   37.7873   30.5589   52.3138 H   0  0  0  0  0  0  0  0  0  0  0  0
   38.8689   31.4259   50.3462 H   0  0  0  0  0  0  0  0  0  0  0  0
   35.0214   28.4200   49.8736 H   0  0  0  0  0  0  0  0  0  0  0  0
   37.0223   32.8324   45.7810 Cl  0  0  0  0  0  0  0  0  0  0  0  0
   37.3429   31.1243   45.5102 C   0  0  0  0  0  0  0  0  0  0  0  0
   37.8894   30.3372   46.5035 C   0  0  0  0  0  0  0  0  0  0  0  0
   38.0925   29.0143   46.1672 C   0  0  0  0  0  0  0  0  0  0  0  0
   38.5183   28.3684   46.9190 H   0  0  0  0  0  0  0  0  0  0  0  0
   37.7736   28.5076   44.9260 C   0  0  0  0  0  0  0  0  0  0  0  0
   37.2284   29.3220   43.9548 C   0  0  0  0  0  0  0  0  0  0  0  0
   36.8480   28.6088   42.4000 Cl  0  0  0  0  0  0  0  0  0  0  0  0
   37.0055   30.6531   44.2415 C   0  0  0  0  0  0  0  0  0  0  0  0
   36.5785   31.2929   43.4822 H   0  0  0  0  0  0  0  0  0  0  0  0
   37.9644   27.4580   44.7422 H   0  0  0  0  0  0  0  0  0  0  0  0
  2  1  2  0
  3  2  1  0
  4  3  2  0
  4  5  1  0
  5  6  2  0
  6  1  1  0
  7  3  1  0
  8  7  2  0
  1  9  1  0
  2 10  1  0
  5 11  1  0
 12 13  1  0
 13 14  2  0
 14 15  1  0
 15 16  1  0
 15 17  2  0
 17 18  1  0
 18 19  1  0
 18 20  2  0
 20 21  1  0
 20 13  1  0
 17 22  1  0
  7 14  1  0
M  ISO  5   9  14  10  14  11  14  16  16  21  15
M  END
>  <DihAtoms>  (1) 
2,6,13,12

>  <DihDeg>  (1) 
-134.98963994748806

$$$$
