
 OpenBabel03272508063D

 36 39  0  0  0  0  0  0  0  0999 V2000
   38.8410   30.9070   45.8410 C   0  0  0  0  0  0  0  0  0  0  0  0
   39.9990   31.6310   46.0920 C   0  0  0  0  0  0  0  0  0  0  0  0
   40.8480   31.5800   44.9880 C   0  0  0  0  0  0  0  0  0  0  0  0
   40.1560   30.8180   44.1060 N   0  0  0  0  0  0  0  0  0  0  0  0
   38.9880   30.4170   44.5840 N   0  0  0  0  0  0  0  0  0  0  0  0
   40.2420   32.1690   47.0040 H   0  0  0  0  0  0  0  0  0  0  0  0
   41.8210   32.0180   44.8220 H   0  0  0  0  0  0  0  0  0  0  0  0
   37.7310   30.7370   46.7480 C   0  0  0  0  0  0  0  0  0  0  0  0
   37.9380   30.9290   48.1350 C   0  0  0  0  0  0  0  0  0  0  0  0
   36.8440   30.7600   48.9800 C   0  0  0  0  0  0  0  0  0  0  0  0
   35.6420   30.4220   48.4280 N   0  0  0  0  0  0  0  0  0  0  0  0
   35.4690   30.2430   47.0980 C   0  0  0  0  0  0  0  0  0  0  0  0
   36.5210   30.4030   46.2680 N   0  0  0  0  0  0  0  0  0  0  0  0
   38.9250   31.1960   48.4760 H   0  0  0  0  0  0  0  0  0  0  0  0
   34.5060   29.9770   46.7050 H   0  0  0  0  0  0  0  0  0  0  0  0
   37.0340   30.9560   50.4410 C   0  0  0  0  0  0  0  0  0  0  0  0
   36.5460   32.2140   50.7110 F   0  0  0  0  0  0  0  0  0  0  0  0
   36.3420   30.0240   51.2040 F   0  0  0  0  0  0  0  0  0  0  0  0
   38.3820   30.9290   50.7900 F   0  0  0  0  0  0  0  0  0  0  0  0
   40.5530   30.4360   42.7590 C   0  0  0  0  0  0  0  0  0  0  0  0
   40.1840   31.1790   41.6350 C   0  0  0  0  0  0  0  0  0  0  0  0
   40.5780   30.8050   40.3970 C   0  0  0  0  0  0  0  0  0  0  0  0
   41.3710   29.6430   40.2570 C   0  0  0  0  0  0  0  0  0  0  0  0
   41.5270   29.1050   42.0200 S   0  0  0  0  0  0  0  0  0  0  0  0
   39.5620   32.0840   41.7660 H   0  0  0  0  0  0  0  0  0  0  0  0
   40.3170   31.3460   39.5320 H   0  0  0  0  0  0  0  0  0  0  0  0
   43.7640   30.8210   38.7640 Cl  0  0  0  0  0  0  0  0  0  0  0  0
   43.0510   29.2840   38.4240 C   0  0  0  0  0  0  0  0  0  0  0  0
   41.9840   28.9110   39.1900 C   0  0  0  0  0  0  0  0  0  0  0  0
   41.4530   27.6720   38.8760 C   0  0  0  0  0  0  0  0  0  0  0  0
   40.5920   27.2050   39.3840 H   0  0  0  0  0  0  0  0  0  0  0  0
   41.9520   26.8730   37.8730 C   0  0  0  0  0  0  0  0  0  0  0  0
   43.0290   27.3260   37.1500 C   0  0  0  0  0  0  0  0  0  0  0  0
   43.6910   26.3470   35.8720 Cl  0  0  0  0  0  0  0  0  0  0  0  0
   43.6110   28.5480   37.4060 C   0  0  0  0  0  0  0  0  0  0  0  0
   44.4450   28.9130   36.8540 H   0  0  0  0  0  0  0  0  0  0  0  0
  1  2  1  0  0  0  0
  1  8  1  0  0  0  0
  2  6  1  0  0  0  0
  3  2  2  0  0  0  0
  4  5  1  0  0  0  0
  4  3  1  0  0  0  0
  5  1  2  0  0  0  0
  7  3  1  0  0  0  0
  8  9  1  0  0  0  0
  9 14  1  0  0  0  0
  9 10  2  0  0  0  0
 10 16  1  0  0  0  0
 11 10  1  0  0  0  0
 12 11  2  0  0  0  0
 13  8  2  0  0  0  0
 13 12  1  0  0  0  0
 15 12  1  0  0  0  0
 16 17  1  0  0  0  0
 16 19  1  0  0  0  0
 16 18  1  0  0  0  0
 20  4  1  0  0  0  0
 21 25  1  0  0  0  0
 21 20  2  0  0  0  0
 22 21  1  0  0  0  0
 23 22  2  0  0  0  0
 23 24  1  0  0  0  0
 24 20  1  0  0  0  0
 26 22  1  0  0  0  0
 28 27  1  0  0  0  0
 28 29  1  0  0  0  0
 29 23  1  0  0  0  0
 30 29  2  0  0  0  0
 30 31  1  0  0  0  0
 32 30  1  0  0  0  0
 33 35  1  0  0  0  0
 33 32  2  0  0  0  0
 34 33  1  0  0  0  0
 35 28  2  0  0  0  0
 36 35  1  0  0  0  0
M  END
>  <minimizedAffinity>
-6.57249975

>  <minimizedRMSD>
0.498778224

$$$$
