
 OpenBabel03272510263D

 46 50  0  0  1  0  0  0  0  0999 V2000
   39.3840   33.5180   43.3220 O   0  0  0  0  0  0  0  0  0  0  0  0
   36.1460   30.2270   46.9870 C   0  0  0  0  0  0  0  0  0  0  0  0
   37.0190   30.7400   47.9310 C   0  0  0  0  0  0  0  0  0  0  0  0
   38.0320   31.6270   47.5470 C   0  0  0  0  0  0  0  0  0  0  0  0
   38.0880   31.9380   46.1920 C   0  0  0  0  0  0  0  0  0  0  0  0
   38.9920   32.7740   45.5730 N   0  0  0  0  0  0  0  0  0  0  0  0
   38.6760   32.7740   44.2710 C   0  0  0  0  0  0  0  0  0  0  0  0
   37.6400   31.9910   44.0730 N   0  0  0  0  0  0  0  0  0  0  0  0
   37.2430   31.4500   45.2360 C   0  0  0  0  0  0  0  0  0  0  0  0
   36.2430   30.5700   45.6440 C   0  0  0  0  0  0  0  0  0  0  0  0
   35.3400   29.5350   47.2250 H   0  0  0  0  0  0  0  0  0  0  0  0
   38.7210   32.0350   48.2730 H   0  0  0  0  0  0  0  0  0  0  0  0
   39.7650   33.2940   46.0580 H   0  0  0  0  0  0  0  0  0  0  0  0
   35.5690   30.1790   44.8920 H   0  0  0  0  0  0  0  0  0  0  0  0
   37.4730   30.1090   51.5980 C   0  0  0  0  0  0  0  0  0  0  0  0
   37.7700   30.5640   50.3210 C   0  0  0  0  0  0  0  0  0  0  0  0
   36.8550   30.3350   49.3100 C   0  0  0  0  0  0  0  0  0  0  0  0
   35.7010   29.6690   49.6360 N   0  0  0  0  0  0  0  0  0  0  0  0
   35.4340   29.2370   50.8840 C   0  0  0  0  0  0  0  0  0  0  0  0
   36.3170   29.4600   51.8480 N   0  0  0  0  0  0  0  0  0  0  0  0
   38.2040   30.2960   52.3860 H   0  0  0  0  0  0  0  0  0  0  0  0
   38.6770   31.0860   50.0710 H   0  0  0  0  0  0  0  0  0  0  0  0
   34.4920   28.7240   51.0220 H   0  0  0  0  0  0  0  0  0  0  0  0
   39.3970   31.5400   42.1350 N   0  0  0  0  0  0  0  0  0  0  0  0
   39.4130   33.0000   42.0000 C   0  0  1  0  0  0  0  0  0  0  0  0
   38.2210   33.4040   41.2660 C   0  0  0  0  0  0  0  0  0  0  0  0
   38.3040   32.9020   39.9610 O   0  0  0  0  0  0  0  0  0  0  0  0
   38.4410   31.5310   39.8840 C   0  0  0  0  0  0  0  0  0  0  0  0
   39.5470   31.0310   40.8070 C   0  0  2  0  0  0  0  0  0  0  0  0
   38.4700   31.1980   42.4450 H   0  0  0  0  0  0  0  0  0  0  0  0
   40.3240   33.2270   41.4510 H   0  0  0  0  0  0  0  0  0  0  0  0
   37.2260   33.1760   41.5460 H   0  0  0  0  0  0  0  0  0  0  0  0
   38.2700   34.5270   41.1270 H   0  0  0  0  0  0  0  0  0  0  0  0
   37.4990   31.0110   40.1250 H   0  0  0  0  0  0  0  0  0  0  0  0
   38.7240   31.2950   38.8450 H   0  0  0  0  0  0  0  0  0  0  0  0
   40.5440   31.3860   40.3950 H   0  0  0  0  0  0  0  0  0  0  0  0
   41.8110   28.9390   41.9520 Cl  0  0  0  0  0  0  0  0  0  0  0  0
   40.3060   28.5140   41.1820 C   0  0  0  0  0  0  0  0  0  0  0  0
   39.5340   29.5710   40.7760 C   0  0  0  0  0  0  0  0  0  0  0  0
   38.3540   29.1040   40.1570 C   0  0  0  0  0  0  0  0  0  0  0  0
   37.5680   29.7520   39.7430 H   0  0  0  0  0  0  0  0  0  0  0  0
   38.0000   27.7670   39.9730 C   0  0  0  0  0  3  0  0  0  0  0  0
   38.8530   26.8060   40.4230 C   0  0  0  0  0  0  0  0  0  0  0  0
   38.5150   25.1010   40.2480 Cl  0  0  0  0  0  0  0  0  0  0  0  0
   40.0130   27.1860   41.0300 C   0  0  0  0  0  0  0  0  0  0  0  0
   40.7050   26.4650   41.3950 H   0  0  0  0  0  0  0  0  0  0  0  0
  1  7  1  0  0  0  0
  2 11  1  0  0  0  0
  2  3  1  0  0  0  0
  3 17  1  0  0  0  0
  4  3  2  0  0  0  0
  4 12  1  0  0  0  0
  5  4  1  0  0  0  0
  6 13  1  0  0  0  0
  6  5  1  0  0  0  0
  7  6  1  0  0  0  0
  8  7  2  0  0  0  0
  8  9  1  0  0  0  0
  9 10  1  0  0  0  0
  9  5  2  0  0  0  0
 10  2  2  0  0  0  0
 14 10  1  0  0  0  0
 15 20  1  0  0  0  0
 15 21  1  0  0  0  0
 16 15  2  0  0  0  0
 17 18  2  0  0  0  0
 17 16  1  0  0  0  0
 18 19  1  0  0  0  0
 19 23  1  0  0  0  0
 19 20  2  0  0  0  0
 22 16  1  0  0  0  0
 24 30  1  0  0  0  0
 25 31  1  6  0  0  0
 25 24  1  0  0  0  0
 25  1  1  0  0  0  0
 26 32  1  0  0  0  0
 26 25  1  0  0  0  0
 27 26  1  0  0  0  0
 28 27  1  0  0  0  0
 28 34  1  0  0  0  0
 28 29  1  0  0  0  0
 29 36  1  6  0  0  0
 29 24  1  0  0  0  0
 33 26  1  0  0  0  0
 35 28  1  0  0  0  0
 38 37  1  0  0  0  0
 39 29  1  0  0  0  0
 39 38  2  0  0  0  0
 40 39  1  0  0  0  0
 41 40  1  0  0  0  0
 42 40  2  0  0  0  0
 42 43  1  0  0  0  0
 43 45  2  0  0  0  0
 44 43  1  0  0  0  0
 45 38  1  0  0  0  0
 45 46  1  0  0  0  0
M  END
>  <minimizedAffinity>
-6.23771954

>  <minimizedRMSD>
0.818360388

$$$$
