
 OpenBabel03272501293D

 21 22  0  0  0  0  0  0  0  0999 V2000
   37.5600   32.2900   49.1870 C   0  0  0  0  0  0  0  0  0  0  0  0
   37.5330   33.4750   49.5840 O   0  0  0  0  0  0  0  0  0  0  0  0
   39.7160   34.2760   48.4950 Cl  0  0  0  0  0  0  0  0  0  0  0  0
   39.3010   32.8490   47.5540 C   0  0  0  0  0  0  0  0  0  0  0  0
   38.2910   31.9990   47.9600 C   0  0  0  0  0  0  0  0  0  0  0  0
   38.0630   30.9160   47.1360 C   0  0  0  0  0  0  0  0  0  0  0  0
   37.2820   30.2290   47.4210 H   0  0  0  0  0  0  0  0  0  0  0  0
   38.7890   30.6930   45.9860 C   0  0  0  0  0  3  0  0  0  0  0  0
   39.7920   31.5620   45.6090 C   0  0  0  0  0  0  0  0  0  0  0  0
   40.6740   31.2150   44.1350 Cl  0  0  0  0  0  0  0  0  0  0  0  0
   40.0600   32.6610   46.3990 C   0  0  0  0  0  0  0  0  0  0  0  0
   40.8450   33.3440   46.1060 H   0  0  0  0  0  0  0  0  0  0  0  0
   36.8320   29.4890   51.5600 C   0  0  0  0  0  0  0  0  0  0  0  0
   37.5270   30.5170   50.9180 C   0  0  0  0  0  0  0  0  0  0  0  0
   36.9000   31.2150   49.8930 C   0  0  0  0  0  0  0  0  0  0  0  0
   35.6370   30.8550   49.5700 N   0  0  0  0  0  0  0  0  0  0  0  0
   34.9890   29.8520   50.2130 C   0  0  0  0  0  0  0  0  0  0  0  0
   35.5770   29.1720   51.1990 N   0  0  0  0  0  0  0  0  0  0  0  0
   37.4170   29.0130   52.3430 H   0  0  0  0  0  0  0  0  0  0  0  0
   38.5420   30.7990   51.1850 H   0  0  0  0  0  0  0  0  0  0  0  0
   33.9600   29.5930   49.9160 H   0  0  0  0  0  0  0  0  0  0  0  0
  1  2  2  0  0  0  0
  1 15  1  0  0  0  0
  4  5  1  0  0  0  0
  4  3  1  0  0  0  0
  5  1  1  0  0  0  0
  6  7  1  0  0  0  0
  6  5  2  0  0  0  0
  8  6  1  0  0  0  0
  9  8  2  0  0  0  0
  9 11  1  0  0  0  0
 10  9  1  0  0  0  0
 11  4  2  0  0  0  0
 12 11  1  0  0  0  0
 13 19  1  0  0  0  0
 14 20  1  0  0  0  0
 14 13  2  0  0  0  0
 15 14  1  0  0  0  0
 16 15  2  0  0  0  0
 16 17  1  0  0  0  0
 17 18  2  0  0  0  0
 18 13  1  0  0  0  0
 21 17  1  0  0  0  0
M  END
>  <minimizedAffinity>
-5.92242575

>  <minimizedRMSD>
2.66714764

$$$$
