REMARK  Name = 
REMARK  4 active torsions:
REMARK  status: ('A' for Active; 'I' for Inactive)
REMARK    1  A    between atoms: C_2  and  N_7
REMARK    2  A    between atoms: C_5  and  O_15
REMARK    3  A    between atoms: O_15  and  C_16
REMARK    4  A    between atoms: C_21  and  C_33
REMARK                            x       y       z     vdW  Elec       q    Type
REMARK                         _______ _______ _______ _____ _____    ______ ____
ROOT
ATOM      1  O   UNL     1      32.531  27.141  48.161  0.00  0.00    +0.000 OA
ENDROOT
BRANCH   1   2
ATOM      2  C   UNL     1      31.207  27.566  48.281  0.00  0.00    +0.000 A 
ATOM      3  C   UNL     1      30.772  27.724  49.578  0.00  0.00    +0.000 A 
ATOM      4  C   UNL     1      29.485  28.140  49.838  0.00  0.00    +0.000 A 
ATOM      5  C   UNL     1      28.626  28.398  48.757  0.00  0.00    +0.000 A 
ATOM      6  C   UNL     1      29.075  28.235  47.468  0.00  0.00    +0.000 A 
ATOM      7  C   UNL     1      30.353  27.823  47.239  0.00  0.00    +0.000 A 
ATOM      8  H   UNL     1      31.402  27.536  50.435  0.00  0.00    +0.000 HD
ATOM      9  H   UNL     1      29.155  28.261  50.876  0.00  0.00    +0.000 HD
ATOM     10  H   UNL     1      27.628  28.721  48.994  0.00  0.00    +0.000 HD
ATOM     11  H   UNL     1      28.368  28.450  46.688  0.00  0.00    +0.000 HD
BRANCH   7  14
ATOM     12 CL   UNL     1      30.796  30.464  46.045  0.00  0.00    +0.000 Cl
ATOM     13  C   UNL     1      31.050  28.896  45.291  0.00  0.00    +0.000 A 
ATOM     14  C   UNL     1      30.832  27.644  45.874  0.00  0.00    +0.000 A 
ATOM     15  C   UNL     1      31.088  26.515  45.125  0.00  0.00    +0.000 A 
ATOM     16  H   UNL     1      30.878  25.624  45.696  0.00  0.00    +0.000 HD
ATOM     17  C   UNL     1      31.549  26.642  43.833  0.00  0.00    +0.000 A 
ATOM     18  C   UNL     1      31.769  27.860  43.245  0.00  0.00    +0.000 A 
ATOM     19 CL   UNL     1      32.356  27.846  41.593  0.00  0.00    +0.000 Cl
ATOM     20  C   UNL     1      31.519  28.996  43.977  0.00  0.00    +0.000 A 
ATOM     21  H   UNL     1      31.710  29.926  43.461  0.00  0.00    +0.000 HD
ENDBRANCH   7  14
ENDBRANCH   1   2
BRANCH   1  26
ATOM     22  C   UNL     1      35.498  28.917  49.148  0.00  0.00    +0.000 A 
ATOM     23  C   UNL     1      35.425  30.095  48.400  0.00  0.00    +0.000 A 
ATOM     24  C   UNL     1      34.331  30.254  47.555  0.00  0.00    +0.000 A 
ATOM     25  N   UNL     1      33.400  29.259  47.505  0.00  0.00    +0.000 NA
ATOM     26  C   UNL     1      33.495  28.145  48.229  0.00  0.00    +0.000 A 
ATOM     27  N   UNL     1      34.556  27.961  49.067  0.00  0.00    +0.000 NA
ATOM     28  H   UNL     1      36.323  28.726  49.828  0.00  0.00    +0.000 HD
ATOM     29  H   UNL     1      34.282  31.159  46.986  0.00  0.00    +0.000 HD
BRANCH  23  30
ATOM     30  N   UNL     1      36.463  31.054  48.542  0.00  0.00    +0.000 N 
ATOM     31  C   UNL     1      36.634  31.759  49.656  0.00  0.00    +0.000 A 
ATOM     32  C   UNL     1      37.674  32.679  49.719  0.00  0.00    +0.000 A 
ATOM     33  C   UNL     1      38.450  32.786  48.611  0.00  0.00    +0.000 A 
ATOM     34  O   UNL     1      39.397  33.625  48.669  0.00  0.00    +0.000 OA
ATOM     35  N   UNL     1      38.309  32.099  47.480  0.00  0.00    +0.000 N 
ATOM     36  C   UNL     1      37.283  31.206  47.447  0.00  0.00    +0.000 A 
ATOM     37  O   UNL     1      37.135  30.541  46.375  0.00  0.00    +0.000 OA
ATOM     38  H   UNL     1      35.983  31.630  50.510  0.00  0.00    +0.000 HD
ATOM     39  H   UNL     1      37.854  33.280  50.611  0.00  0.00    +0.000 HD
ATOM     40  H   UNL     1      38.935  32.219  46.652  0.00  0.00    +0.000 HD
ENDBRANCH  23  30
ENDBRANCH   1  26
TORSDOF 4
