
     RDKit          3D

 26 27  0  0  0  0  0  0  0  0999 V2000
   37.3082   30.1973   51.4434 C   0  0  0  0  0  0  0  0  0  0  0  0
   38.0926   30.7229   50.4166 C   0  0  0  0  0  0  0  0  0  0  0  0
   37.7545   30.4354   49.0616 C   0  0  0  0  0  0  0  0  0  0  0  0
   36.6665   29.6510   48.8546 N   0  0  0  0  0  0  0  0  0  0  0  0
   35.9413   29.1677   49.8884 C   0  0  0  0  0  0  0  0  0  0  0  0
   36.2555   29.4355   51.1646 N   0  0  0  0  0  0  0  0  0  0  0  0
   34.7706   28.3114   49.5439 C   0  0  0  0  0  0  0  0  0  0  0  0
   34.4098   28.4587   48.0910 C   0  0  0  0  0  0  0  0  0  0  0  0
   37.6676   30.4876   52.4235 H   0  0  0  0  0  0  0  0  0  0  0  0
   38.9791   31.3591   50.5069 H   0  0  0  0  0  0  0  0  0  0  0  0
   38.2823   30.7829   48.1931 H   0  0  0  0  0  0  0  0  0  0  0  0
   33.9179   28.8085   50.0976 H   0  0  0  0  0  0  0  0  0  0  0  0
   34.8787   27.2646   49.8595 H   0  0  0  0  0  0  0  0  0  0  0  0
   35.3035   28.1302   47.5226 H   0  0  0  0  0  0  0  0  0  0  0  0
   34.2649   29.5515   47.8625 H   0  0  0  0  0  0  0  0  0  0  0  0
   32.9744   26.7058   50.1572 Cl  0  0  0  0  0  0  0  0  0  0  0  0
   32.5250   26.8084   48.4661 C   0  0  0  0  0  0  0  0  0  0  0  0
   33.2708   27.6428   47.6716 C   0  0  0  0  0  0  0  0  0  0  0  0
   32.8436   27.6641   46.3371 C   0  0  0  0  0  0  0  0  0  0  0  0
   33.4158   28.3221   45.6634 H   0  0  0  0  0  0  0  0  0  0  0  0
   31.7864   26.9420   45.8123 C   0  0  0  0  0  0  0  0  0  0  0  0
   31.0850   26.1244   46.6778 C   0  0  0  0  0  0  0  0  0  0  0  0
   29.7673   25.2482   45.9343 Cl  0  0  0  0  0  0  0  0  0  0  0  0
   31.4570   26.0608   48.0015 C   0  0  0  0  0  0  0  0  0  0  0  0
   30.8737   25.4064   48.6293 H   0  0  0  0  0  0  0  0  0  0  0  0
   31.5794   27.0632   44.7664 H   0  0  0  0  0  0  0  0  0  0  0  0
  2  1  2  0
  3  2  1  0
  4  3  2  0
  4  5  1  0
  5  6  2  0
  6  1  1  0
  7  5  1  0
  8  7  1  0
  1  9  1  0
  2 10  1  0
  3 11  1  0
  7 12  1  0
  7 13  1  0
  8 14  1  0
  8 15  1  0
 16 17  1  0
 17 18  2  0
 18 19  1  0
 19 20  1  0
 19 21  2  0
 21 22  1  0
 22 23  1  0
 22 24  2  0
 24 25  1  0
 24 17  1  0
 21 26  1  0
  8 18  1  0
M  ISO  8   9  14  10  14  11  14  12   8  13   8  14   8  15   8  20  16
M  ISO  1  25  15
M  END
>  <DihAtoms>  (1) 
6,7,17,16

>  <DihDeg>  (1) 
76.10820362844369

$$$$
