
 OpenBabel03272503413D

 42 45  0  0  1  0  0  0  0  0999 V2000
   39.7880   30.9030   41.7730 C   0  0  2  0  0  0  0  0  0  0  0  0
   39.8180   32.1120   42.7370 C   0  0  1  0  0  0  0  0  0  0  0  0
   38.7290   32.9290   42.1210 C   0  0  0  0  0  0  0  0  0  0  0  0
   38.8050   32.7580   40.7610 O   0  0  0  0  0  0  0  0  0  0  0  0
   39.6320   31.7170   40.4700 C   0  0  0  0  0  0  0  0  0  0  0  0
   40.7380   30.3750   41.7890 H   0  0  0  0  0  0  0  0  0  0  0  0
   40.7700   32.6430   42.6920 H   0  0  0  0  0  0  0  0  0  0  0  0
   37.7380   32.5870   42.5020 H   0  0  0  0  0  0  0  0  0  0  0  0
   38.8300   33.9780   42.4280 H   0  0  0  0  0  0  0  0  0  0  0  0
   39.1650   31.0760   39.6930 H   0  0  0  0  0  0  0  0  0  0  0  0
   40.6260   32.0880   40.1270 H   0  0  0  0  0  0  0  0  0  0  0  0
   38.5110   31.1220   45.9400 C   0  0  0  0  0  0  0  0  0  0  0  0
   39.8490   31.0050   46.1780 C   0  0  0  0  0  0  0  0  0  0  0  0
   40.4600   31.3710   44.9810 C   0  0  0  0  0  0  0  0  0  0  0  0
   39.5190   31.6890   44.0810 N   0  0  0  0  0  0  0  0  0  0  0  0
   38.3300   31.5390   44.6640 N   0  0  0  0  0  0  0  0  0  0  0  0
   40.3180   30.6890   47.1120 H   0  0  0  0  0  0  0  0  0  0  0  0
   41.5590   31.3540   44.9250 H   0  0  0  0  0  0  0  0  0  0  0  0
   36.5710   30.6530   49.1110 C   0  0  0  0  0  0  0  0  0  0  0  0
   37.6180   30.9270   48.2530 C   0  0  0  0  0  0  0  0  0  0  0  0
   37.4560   30.8500   46.8890 C   0  0  0  0  0  0  0  0  0  0  0  0
   36.2300   30.4970   46.4430 N   0  0  0  0  0  0  0  0  0  0  0  0
   35.2040   30.2290   47.3020 C   0  0  0  0  0  0  0  0  0  0  0  0
   35.3580   30.3030   48.6050 N   0  0  0  0  0  0  0  0  0  0  0  0
   38.6240   31.2160   48.5720 H   0  0  0  0  0  0  0  0  0  0  0  0
   34.2230   29.9470   46.9180 H   0  0  0  0  0  0  0  0  0  0  0  0
   36.9320   30.7860   50.4570 O   0  0  0  0  0  0  0  0  0  0  0  0
   36.9290   29.7050   51.3620 C   0  0  0  0  0  0  0  0  0  0  0  0
   35.6470   29.2560   51.6440 F   0  0  0  0  0  0  0  0  0  0  0  0
   37.5800   30.0830   52.5030 F   0  0  0  0  0  0  0  0  0  0  0  0
   37.6600   28.6740   50.7990 F   0  0  0  0  0  0  0  0  0  0  0  0
   38.6310   30.2390   42.0280 O   0  0  0  0  0  0  0  0  0  0  0  0
   35.8750   29.0810   41.1730 Cl  0  0  0  0  0  0  0  0  0  0  0  0
   37.1670   28.1880   41.9220 C   0  0  0  0  0  0  0  0  0  0  0  0
   38.2800   28.9500   42.1960 C   0  0  0  0  0  0  0  0  0  0  0  0
   39.3310   28.2420   42.8020 C   0  0  0  0  0  0  0  0  0  0  0  0
   40.3120   28.6400   43.1100 H   0  0  0  0  0  0  0  0  0  0  0  0
   39.2630   26.8940   43.1010 C   0  0  0  0  0  3  0  0  0  0  0  0
   38.1070   26.2060   42.7910 C   0  0  0  0  0  0  0  0  0  0  0  0
   37.9150   24.5020   43.1270 Cl  0  0  0  0  0  0  0  0  0  0  0  0
   37.0500   26.8570   42.1970 C   0  0  0  0  0  0  0  0  0  0  0  0
   36.1230   26.3820   41.9300 H   0  0  0  0  0  0  0  0  0  0  0  0
  1  6  1  1  0  0  0
  1 32  1  0  0  0  0
  1  2  1  0  0  0  0
  2  7  1  6  0  0  0
  2 15  1  0  0  0  0
  3  9  1  0  0  0  0
  3  8  1  0  0  0  0
  3  2  1  0  0  0  0
  4  3  1  0  0  0  0
  5  4  1  0  0  0  0
  5  1  1  0  0  0  0
 10  5  1  0  0  0  0
 11  5  1  0  0  0  0
 12 13  1  0  0  0  0
 12 21  1  0  0  0  0
 13 17  1  0  0  0  0
 14 13  2  0  0  0  0
 15 16  1  0  0  0  0
 15 14  1  0  0  0  0
 16 12  2  0  0  0  0
 18 14  1  0  0  0  0
 19 27  1  0  0  0  0
 20 25  1  0  0  0  0
 20 19  2  0  0  0  0
 21 20  1  0  0  0  0
 22 21  2  0  0  0  0
 22 23  1  0  0  0  0
 23 24  2  0  0  0  0
 24 19  1  0  0  0  0
 26 23  1  0  0  0  0
 27 28  1  0  0  0  0
 28 29  1  0  0  0  0
 28 30  1  0  0  0  0
 31 28  1  0  0  0  0
 32 35  1  0  0  0  0
 33 34  1  0  0  0  0
 34 35  2  0  0  0  0
 34 41  1  0  0  0  0
 35 36  1  0  0  0  0
 36 38  2  0  0  0  0
 36 37  1  0  0  0  0
 39 38  1  0  0  0  0
 39 40  1  0  0  0  0
 41 39  2  0  0  0  0
 42 41  1  0  0  0  0
M  END
>  <minimizedAffinity>
-6.34352636

>  <minimizedRMSD>
0.473944038

$$$$
