
 OpenBabel03272503333D

 42 45  0  0  1  0  0  0  0  0999 V2000
   35.5420   29.4400   47.5950 C   0  0  0  0  0  0  0  0  0  0  0  0
   35.6580   30.0310   46.3370 C   0  0  0  0  0  0  0  0  0  0  0  0
   34.7610   29.6190   45.3460 C   0  0  0  0  0  0  0  0  0  0  0  0
   33.8310   28.6600   45.6890 N   0  0  0  0  0  0  0  0  0  0  0  0
   33.7580   28.1220   46.9070 C   0  0  0  0  0  0  0  0  0  0  0  0
   34.6150   28.5140   47.8580 N   0  0  0  0  0  0  0  0  0  0  0  0
   36.3870   30.7820   46.0660 H   0  0  0  0  0  0  0  0  0  0  0  0
   34.7690   30.0120   44.3520 H   0  0  0  0  0  0  0  0  0  0  0  0
   36.4670   29.8690   48.6040 N   0  0  0  0  0  0  0  0  0  0  0  0
   37.7220   30.5290   48.4050 C   0  0  0  0  0  0  0  0  0  0  0  0
   37.8820   31.3240   49.6920 C   0  0  2  0  0  0  0  0  0  0  0  0
   36.5820   31.1410   50.4720 C   0  0  0  0  0  0  0  0  0  0  0  0
   36.2950   29.7100   50.0460 C   0  0  0  0  0  0  0  0  0  0  0  0
   37.7070   31.2310   47.5280 H   0  0  0  0  0  0  0  0  0  0  0  0
   38.5770   29.8160   48.3260 H   0  0  0  0  0  0  0  0  0  0  0  0
   38.6800   30.8850   50.3390 H   0  0  0  0  0  0  0  0  0  0  0  0
   35.8220   31.8130   50.0700 H   0  0  0  0  0  0  0  0  0  0  0  0
   36.7340   31.2360   51.5530 H   0  0  0  0  0  0  0  0  0  0  0  0
   35.2480   29.4600   50.2800 H   0  0  0  0  0  0  0  0  0  0  0  0
   37.0400   29.0370   50.4810 H   0  0  0  0  0  0  0  0  0  0  0  0
   38.1660   32.7770   49.4280 C   0  0  0  0  0  0  0  0  0  0  0  0
   37.0730   33.4870   49.8850 F   0  0  0  0  0  0  0  0  0  0  0  0
   38.1970   32.9390   48.0680 F   0  0  0  0  0  0  0  0  0  0  0  0
   39.3330   33.2120   49.9970 F   0  0  0  0  0  0  0  0  0  0  0  0
   32.5330   26.8870   47.2910 S   0  0  0  0  0  0  0  0  0  0  0  0
   30.9330   27.3920   47.4730 C   0  0  0  0  0  0  0  0  0  0  0  0
   29.7070   26.9160   47.8340 C   0  0  0  0  0  0  0  0  0  0  0  0
   28.5640   27.6380   47.8680 C   0  0  0  0  0  0  0  0  0  0  0  0
   28.7570   29.0490   47.4620 C   0  0  0  0  0  0  0  0  0  0  0  0
   30.5300   29.1780   47.0850 S   0  0  0  0  0  0  0  0  0  0  0  0
   29.7660   25.8710   48.0960 H   0  0  0  0  0  0  0  0  0  0  0  0
   27.6030   27.2600   48.1520 H   0  0  0  0  0  0  0  0  0  0  0  0
   27.7400   29.8780   50.1260 Cl  0  0  0  0  0  0  0  0  0  0  0  0
   27.2560   30.5180   48.5710 C   0  0  0  0  0  0  0  0  0  0  0  0
   27.7880   30.0650   47.3840 C   0  0  0  0  0  0  0  0  0  0  0  0
   27.4490   30.5260   46.1330 C   0  0  0  0  0  0  0  0  0  0  0  0
   27.8950   30.1390   45.2370 H   0  0  0  0  0  0  0  0  0  0  0  0
   26.4830   31.5390   46.0700 C   0  0  0  0  0  3  0  0  0  0  0  0
   25.9100   32.0340   47.2470 C   0  0  0  0  0  0  0  0  0  0  0  0
   24.6990   33.3000   47.2050 Cl  0  0  0  0  0  0  0  0  0  0  0  0
   26.2910   31.5300   48.4960 C   0  0  0  0  0  0  0  0  0  0  0  0
   25.8380   31.9240   49.3960 H   0  0  0  0  0  0  0  0  0  0  0  0
  1  6  1  0  0  0  0
  1  9  1  0  0  0  0
  2  1  2  0  0  0  0
  3  4  2  0  0  0  0
  3  2  1  0  0  0  0
  4  5  1  0  0  0  0
  5 25  1  0  0  0  0
  5  6  2  0  0  0  0
  7  2  1  0  0  0  0
  8  3  1  0  0  0  0
  9 13  1  0  0  0  0
 10  9  1  0  0  0  0
 10 11  1  0  0  0  0
 11 16  1  1  0  0  0
 11 12  1  0  0  0  0
 12 18  1  0  0  0  0
 13 19  1  0  0  0  0
 13 12  1  0  0  0  0
 13 20  1  0  0  0  0
 14 10  1  0  0  0  0
 15 10  1  0  0  0  0
 17 12  1  0  0  0  0
 21 11  1  0  0  0  0
 21 22  1  0  0  0  0
 21 24  1  0  0  0  0
 23 21  1  0  0  0  0
 25 26  1  0  0  0  0
 26 27  2  0  0  0  0
 27 28  1  0  0  0  0
 27 31  1  0  0  0  0
 28 32  1  0  0  0  0
 29 28  2  0  0  0  0
 30 29  1  0  0  0  0
 30 26  1  0  0  0  0
 34 33  1  0  0  0  0
 35 29  1  0  0  0  0
 35 34  2  0  0  0  0
 36 35  1  0  0  0  0
 37 36  1  0  0  0  0
 38 36  2  0  0  0  0
 38 39  1  0  0  0  0
 39 41  2  0  0  0  0
 40 39  1  0  0  0  0
 41 34  1  0  0  0  0
 41 42  1  0  0  0  0
M  END
>  <minimizedAffinity>
-6.74603224

>  <minimizedRMSD>
1.25800109

$$$$
