
 OpenBabel03272504513D

 43 46  0  0  1  0  0  0  0  0999 V2000
   36.7200   28.5440   32.3620 N   0  0  0  0  0  0  0  0  0  0  0  0
   36.8850   28.1590   30.9680 C   0  0  0  0  0  0  0  0  0  0  0  0
   36.5660   29.2410   29.9980 C   0  0  0  0  0  0  0  0  0  0  0  0
   36.9820   30.6050   30.5450 C   0  0  0  0  0  0  0  0  0  0  0  0
   36.0960   30.8410   31.7320 C   0  0  0  0  0  0  0  0  0  0  0  0
   36.1970   29.7950   32.7990 C   0  0  1  0  0  0  0  0  0  0  0  0
   37.9560   27.8740   30.8380 H   0  0  0  0  0  0  0  0  0  0  0  0
   36.2080   27.2960   30.7400 H   0  0  0  0  0  0  0  0  0  0  0  0
   35.4820   29.2530   29.7940 H   0  0  0  0  0  0  0  0  0  0  0  0
   37.1200   29.0180   29.0430 H   0  0  0  0  0  0  0  0  0  0  0  0
   36.7440   31.3650   29.7890 H   0  0  0  0  0  0  0  0  0  0  0  0
   38.0510   30.5680   30.8160 H   0  0  0  0  0  0  0  0  0  0  0  0
   36.3430   31.8360   32.1530 H   0  0  0  0  0  0  0  0  0  0  0  0
   35.0450   30.9340   31.3310 H   0  0  0  0  0  0  0  0  0  0  0  0
   36.8820   30.1850   33.5930 H   0  0  0  0  0  0  0  0  0  0  0  0
   35.7700   30.8800   35.5470 Cl  0  0  0  0  0  0  0  0  0  0  0  0
   34.4790   30.1380   34.6440 C   0  0  0  0  0  0  0  0  0  0  0  0
   34.8200   29.6800   33.3870 C   0  0  0  0  0  0  0  0  0  0  0  0
   33.8060   29.0780   32.6330 C   0  0  0  0  0  0  0  0  0  0  0  0
   34.0100   28.6960   31.6330 H   0  0  0  0  0  0  0  0  0  0  0  0
   32.5230   28.9530   33.1380 C   0  0  0  0  0  3  0  0  0  0  0  0
   32.2160   29.4230   34.4040 C   0  0  0  0  0  0  0  0  0  0  0  0
   30.6250   29.3180   35.1440 Cl  0  0  0  0  0  0  0  0  0  0  0  0
   33.2110   30.0200   35.1550 C   0  0  0  0  0  0  0  0  0  0  0  0
   33.0240   30.4000   36.1400 H   0  0  0  0  0  0  0  0  0  0  0  0
   37.4660   27.9700   34.6300 C   0  0  0  0  0  0  0  0  0  0  0  0
   37.1170   27.5850   33.3270 C   0  0  0  0  0  0  0  0  0  0  0  0
   37.1790   26.2310   33.0290 C   0  0  0  0  0  0  0  0  0  0  0  0
   37.5700   25.3560   34.0080 N   0  0  0  0  0  0  0  0  0  0  0  0
   37.8950   25.7520   35.2350 C   0  0  0  0  0  0  0  0  0  0  0  0
   37.8420   27.0710   35.5460 N   0  0  0  0  0  0  0  0  0  0  0  0
   37.4390   29.0180   34.9250 H   0  0  0  0  0  0  0  0  0  0  0  0
   36.9310   25.8610   32.0680 H   0  0  0  0  0  0  0  0  0  0  0  0
   38.3060   24.8130   36.2540 C   0  0  0  0  0  0  0  0  0  0  0  0
   37.7930   24.8640   37.5150 C   0  0  0  0  0  0  0  0  0  0  0  0
   38.1610   23.9850   38.5120 C   0  0  0  0  0  0  0  0  0  0  0  0
   39.0920   23.0420   38.1460 C   0  0  0  0  0  0  0  0  0  0  0  0
   39.6500   22.9450   36.8680 C   0  0  0  0  0  0  0  0  0  0  0  0
   39.2240   23.8620   35.9430 N   0  0  0  0  0  0  0  0  0  0  0  0
   37.0600   25.6340   37.7440 H   0  0  0  0  0  0  0  0  0  0  0  0
   37.7660   24.0090   39.5190 H   0  0  0  0  0  0  0  0  0  0  0  0
   39.4640   22.2950   38.8380 H   0  0  0  0  0  0  0  0  0  0  0  0
   40.3750   22.1950   36.6170 H   0  0  0  0  0  0  0  0  0  0  0  0
  1  6  1  0  0  0  0
  1 27  1  0  0  0  0
  2  1  1  0  0  0  0
  3  4  1  0  0  0  0
  3  2  1  0  0  0  0
  4 12  1  0  0  0  0
  4  5  1  0  0  0  0
  5 13  1  0  0  0  0
  5  6  1  0  0  0  0
  6 18  1  0  0  0  0
  6 15  1  1  0  0  0
  7  2  1  0  0  0  0
  8  2  1  0  0  0  0
  9  3  1  0  0  0  0
 10  3  1  0  0  0  0
 11  4  1  0  0  0  0
 14  5  1  0  0  0  0
 17 24  1  0  0  0  0
 17 16  1  0  0  0  0
 18 17  2  0  0  0  0
 19 21  2  0  0  0  0
 19 18  1  0  0  0  0
 20 19  1  0  0  0  0
 21 22  1  0  0  0  0
 22 23  1  0  0  0  0
 22 24  2  0  0  0  0
 24 25  1  0  0  0  0
 26 32  1  0  0  0  0
 26 31  1  0  0  0  0
 27 26  2  0  0  0  0
 28 27  1  0  0  0  0
 28 29  2  0  0  0  0
 29 30  1  0  0  0  0
 30 31  2  0  0  0  0
 30 34  1  0  0  0  0
 33 28  1  0  0  0  0
 34 35  1  0  0  0  0
 35 40  1  0  0  0  0
 35 36  2  0  0  0  0
 36 41  1  0  0  0  0
 37 36  1  0  0  0  0
 37 42  1  0  0  0  0
 38 37  2  0  0  0  0
 39 34  2  0  0  0  0
 39 38  1  0  0  0  0
 43 38  1  0  0  0  0
M  END
>  <minimizedAffinity>
-6.17055464

$$$$

 OpenBabel03272504513D

 43 46  0  0  1  0  0  0  0  0999 V2000
   38.4930   24.1690   35.6650 N   0  0  0  0  0  0  0  0  0  0  0  0
   38.2390   24.4920   37.0620 C   0  0  0  0  0  0  0  0  0  0  0  0
   38.6910   23.4450   38.0180 C   0  0  0  0  0  0  0  0  0  0  0  0
   39.9770   22.7810   37.5320 C   0  0  0  0  0  0  0  0  0  0  0  0
   39.5960   22.0550   36.2770 C   0  0  0  0  0  0  0  0  0  0  0  0
   39.0210   22.9290   35.2050 C   0  0  1  0  0  0  0  0  0  0  0  0
   38.7960   25.4330   37.2810 H   0  0  0  0  0  0  0  0  0  0  0  0
   37.1380   24.6310   37.2150 H   0  0  0  0  0  0  0  0  0  0  0  0
   37.9090   22.6750   38.1260 H   0  0  0  0  0  0  0  0  0  0  0  0
   38.8610   23.9430   39.0140 H   0  0  0  0  0  0  0  0  0  0  0  0
   40.2800   22.0330   38.2770 H   0  0  0  0  0  0  0  0  0  0  0  0
   40.7360   23.5620   37.3560 H   0  0  0  0  0  0  0  0  0  0  0  0
   40.4970   21.5330   35.8950 H   0  0  0  0  0  0  0  0  0  0  0  0
   38.8810   21.2400   36.5850 H   0  0  0  0  0  0  0  0  0  0  0  0
   39.8420   23.1630   34.4810 H   0  0  0  0  0  0  0  0  0  0  0  0
   36.6070   22.0860   36.7460 Cl  0  0  0  0  0  0  0  0  0  0  0  0
   36.8410   21.6250   35.0830 C   0  0  0  0  0  0  0  0  0  0  0  0
   38.0010   22.0850   34.4960 C   0  0  0  0  0  0  0  0  0  0  0  0
   38.2210   21.7320   33.1590 C   0  0  0  0  0  0  0  0  0  0  0  0
   39.1180   22.0640   32.6380 H   0  0  0  0  0  0  0  0  0  0  0  0
   37.3070   20.9550   32.4690 C   0  0  0  0  0  3  0  0  0  0  0  0
   36.1520   20.5090   33.0900 C   0  0  0  0  0  0  0  0  0  0  0  0
   34.9240   19.5200   32.3120 Cl  0  0  0  0  0  0  0  0  0  0  0  0
   35.9260   20.8540   34.4100 C   0  0  0  0  0  0  0  0  0  0  0  0
   35.0480   20.5350   34.9340 H   0  0  0  0  0  0  0  0  0  0  0  0
   38.8460   25.2510   33.4890 C   0  0  0  0  0  0  0  0  0  0  0  0
   38.1820   25.1810   34.7230 C   0  0  0  0  0  0  0  0  0  0  0  0
   37.2140   26.1420   34.9750 C   0  0  0  0  0  0  0  0  0  0  0  0
   36.9610   27.0930   34.0220 N   0  0  0  0  0  0  0  0  0  0  0  0
   37.6080   27.1330   32.8620 C   0  0  0  0  0  0  0  0  0  0  0  0
   38.5580   26.2030   32.5950 N   0  0  0  0  0  0  0  0  0  0  0  0
   39.6170   24.5260   33.2320 H   0  0  0  0  0  0  0  0  0  0  0  0
   36.6680   26.1570   35.8840 H   0  0  0  0  0  0  0  0  0  0  0  0
   37.3270   28.1450   31.8680 C   0  0  0  0  0  0  0  0  0  0  0  0
   38.0690   28.2480   30.7290 C   0  0  0  0  0  0  0  0  0  0  0  0
   37.8300   29.2000   29.7610 C   0  0  0  0  0  0  0  0  0  0  0  0
   36.7810   30.0500   30.0210 C   0  0  0  0  0  0  0  0  0  0  0  0
   35.9880   29.9880   31.1710 C   0  0  0  0  0  0  0  0  0  0  0  0
   36.3000   29.0090   32.0780 N   0  0  0  0  0  0  0  0  0  0  0  0
   38.8870   27.5470   30.5810 H   0  0  0  0  0  0  0  0  0  0  0  0
   38.4080   29.2990   28.8510 H   0  0  0  0  0  0  0  0  0  0  0  0
   36.4920   30.8400   29.3390 H   0  0  0  0  0  0  0  0  0  0  0  0
   35.1760   30.6670   31.3420 H   0  0  0  0  0  0  0  0  0  0  0  0
  1  2  1  0  0  0  0
  2  8  1  0  0  0  0
  2  7  1  0  0  0  0
  2  3  1  0  0  0  0
  3  9  1  0  0  0  0
  3 10  1  0  0  0  0
  4  3  1  0  0  0  0
  4 11  1  0  0  0  0
  5 14  1  0  0  0  0
  5  4  1  0  0  0  0
  6 15  1  6  0  0  0
  6  1  1  0  0  0  0
  6  5  1  0  0  0  0
 12  4  1  0  0  0  0
 13  5  1  0  0  0  0
 17 16  1  0  0  0  0
 18 17  1  0  0  0  0
 18  6  1  0  0  0  0
 19 18  2  0  0  0  0
 20 19  1  0  0  0  0
 21 22  2  0  0  0  0
 21 19  1  0  0  0  0
 22 24  1  0  0  0  0
 23 22  1  0  0  0  0
 24 25  1  0  0  0  0
 24 17  2  0  0  0  0
 26 27  1  0  0  0  0
 27 28  2  0  0  0  0
 27  1  1  0  0  0  0
 28 33  1  0  0  0  0
 29 28  1  0  0  0  0
 30 29  2  0  0  0  0
 31 30  1  0  0  0  0
 31 26  2  0  0  0  0
 32 26  1  0  0  0  0
 34 39  1  0  0  0  0
 34 30  1  0  0  0  0
 35 34  2  0  0  0  0
 36 37  2  0  0  0  0
 36 35  1  0  0  0  0
 37 38  1  0  0  0  0
 38 43  1  0  0  0  0
 38 39  2  0  0  0  0
 40 35  1  0  0  0  0
 41 36  1  0  0  0  0
 42 37  1  0  0  0  0
M  END
>  <minimizedAffinity>
-6.10577679

$$$$

 OpenBabel03272504513D

 43 46  0  0  1  0  0  0  0  0999 V2000
   38.5600   24.1250   35.6360 N   0  0  0  0  0  0  0  0  0  0  0  0
   38.2840   24.4770   37.0210 C   0  0  0  0  0  0  0  0  0  0  0  0
   38.7030   23.4440   38.0050 C   0  0  0  0  0  0  0  0  0  0  0  0
   39.9900   22.7540   37.5570 C   0  0  0  0  0  0  0  0  0  0  0  0
   39.6250   22.0090   36.3080 C   0  0  0  0  0  0  0  0  0  0  0  0
   39.0810   22.8700   35.2090 C   0  0  1  0  0  0  0  0  0  0  0  0
   38.8490   25.4160   37.2330 H   0  0  0  0  0  0  0  0  0  0  0  0
   37.1820   24.6330   37.1490 H   0  0  0  0  0  0  0  0  0  0  0  0
   37.9100   22.6860   38.1120 H   0  0  0  0  0  0  0  0  0  0  0  0
   38.8610   23.9580   38.9950 H   0  0  0  0  0  0  0  0  0  0  0  0
   40.2690   22.0170   38.3220 H   0  0  0  0  0  0  0  0  0  0  0  0
   40.7630   23.5220   37.3800 H   0  0  0  0  0  0  0  0  0  0  0  0
   40.5250   21.4680   35.9540 H   0  0  0  0  0  0  0  0  0  0  0  0
   38.8930   21.2090   36.6180 H   0  0  0  0  0  0  0  0  0  0  0  0
   39.9180   23.0790   34.4970 H   0  0  0  0  0  0  0  0  0  0  0  0
   39.6990   22.0190   32.4150 Cl  0  0  0  0  0  0  0  0  0  0  0  0
   38.2170   21.5600   33.2070 C   0  0  0  0  0  0  0  0  0  0  0  0
   38.0640   22.0240   34.4970 C   0  0  0  0  0  0  0  0  0  0  0  0
   36.8840   21.6740   35.1630 C   0  0  0  0  0  0  0  0  0  0  0  0
   36.7030   22.0090   36.1840 H   0  0  0  0  0  0  0  0  0  0  0  0
   35.9210   20.8970   34.5440 C   0  0  0  0  0  3  0  0  0  0  0  0
   36.1070   20.4480   33.2460 C   0  0  0  0  0  0  0  0  0  0  0  0
   34.9540   19.4570   32.3630 Cl  0  0  0  0  0  0  0  0  0  0  0  0
   37.2700   20.7890   32.5810 C   0  0  0  0  0  0  0  0  0  0  0  0
   37.4610   20.4660   31.5770 H   0  0  0  0  0  0  0  0  0  0  0  0
   37.2460   26.0500   34.8630 C   0  0  0  0  0  0  0  0  0  0  0  0
   38.2800   25.1220   34.6690 C   0  0  0  0  0  0  0  0  0  0  0  0
   39.0110   25.2270   33.4940 C   0  0  0  0  0  0  0  0  0  0  0  0
   38.6900   26.2150   32.6010 N   0  0  0  0  0  0  0  0  0  0  0  0
   37.7020   27.0790   32.8130 C   0  0  0  0  0  0  0  0  0  0  0  0
   36.9750   26.9930   33.9550 N   0  0  0  0  0  0  0  0  0  0  0  0
   36.6350   26.0190   35.7640 H   0  0  0  0  0  0  0  0  0  0  0  0
   39.8090   24.5650   33.2740 H   0  0  0  0  0  0  0  0  0  0  0  0
   37.3780   28.1140   31.8580 C   0  0  0  0  0  0  0  0  0  0  0  0
   36.2990   28.9290   32.0330 C   0  0  0  0  0  0  0  0  0  0  0  0
   35.9600   29.9260   31.1420 C   0  0  0  0  0  0  0  0  0  0  0  0
   36.7900   30.0470   30.0530 C   0  0  0  0  0  0  0  0  0  0  0  0
   37.9080   29.2380   29.8260 C   0  0  0  0  0  0  0  0  0  0  0  0
   38.1670   28.2740   30.7650 N   0  0  0  0  0  0  0  0  0  0  0  0
   35.6800   28.7840   32.9140 H   0  0  0  0  0  0  0  0  0  0  0  0
   35.1080   30.5830   31.2620 H   0  0  0  0  0  0  0  0  0  0  0  0
   36.6310   30.7910   29.2830 H   0  0  0  0  0  0  0  0  0  0  0  0
   38.5350   29.3610   28.9640 H   0  0  0  0  0  0  0  0  0  0  0  0
  1  2  1  0  0  0  0
  2  8  1  0  0  0  0
  2  7  1  0  0  0  0
  2  3  1  0  0  0  0
  3  9  1  0  0  0  0
  3 10  1  0  0  0  0
  4  3  1  0  0  0  0
  4 11  1  0  0  0  0
  5 14  1  0  0  0  0
  5  4  1  0  0  0  0
  6 15  1  6  0  0  0
  6  1  1  0  0  0  0
  6  5  1  0  0  0  0
 12  4  1  0  0  0  0
 13  5  1  0  0  0  0
 16 17  1  0  0  0  0
 17 18  1  0  0  0  0
 18 19  2  0  0  0  0
 18  6  1  0  0  0  0
 19 20  1  0  0  0  0
 21 19  1  0  0  0  0
 22 21  2  0  0  0  0
 23 22  1  0  0  0  0
 24 17  2  0  0  0  0
 24 22  1  0  0  0  0
 25 24  1  0  0  0  0
 26 32  1  0  0  0  0
 27 26  1  0  0  0  0
 27  1  1  0  0  0  0
 28 27  2  0  0  0  0
 29 30  2  0  0  0  0
 29 28  1  0  0  0  0
 30 31  1  0  0  0  0
 31 26  2  0  0  0  0
 33 28  1  0  0  0  0
 34 35  1  0  0  0  0
 34 30  1  0  0  0  0
 35 40  1  0  0  0  0
 36 41  1  0  0  0  0
 36 35  2  0  0  0  0
 37 36  1  0  0  0  0
 38 37  2  0  0  0  0
 38 39  1  0  0  0  0
 39 34  2  0  0  0  0
 42 37  1  0  0  0  0
 43 38  1  0  0  0  0
M  END
>  <minimizedAffinity>
-6.06642056

$$$$

 OpenBabel03272504513D

 43 46  0  0  1  0  0  0  0  0999 V2000
   38.4160   24.1330   35.0160 N   0  0  0  0  0  0  0  0  0  0  0  0
   37.9830   24.7810   36.2460 C   0  0  0  0  0  0  0  0  0  0  0  0
   38.1410   23.9390   37.4630 C   0  0  0  0  0  0  0  0  0  0  0  0
   39.3960   23.0730   37.3680 C   0  0  0  0  0  0  0  0  0  0  0  0
   39.1340   22.1210   36.2400 C   0  0  0  0  0  0  0  0  0  0  0  0
   38.8520   22.7800   34.9240 C   0  0  1  0  0  0  0  0  0  0  0  0
   38.6110   25.6950   36.3660 H   0  0  0  0  0  0  0  0  0  0  0  0
   36.8980   25.0450   36.1620 H   0  0  0  0  0  0  0  0  0  0  0  0
   37.2620   23.2830   37.5800 H   0  0  0  0  0  0  0  0  0  0  0  0
   38.2090   24.6300   38.3500 H   0  0  0  0  0  0  0  0  0  0  0  0
   39.4790   22.4870   38.2930 H   0  0  0  0  0  0  0  0  0  0  0  0
   40.2650   23.7260   37.1780 H   0  0  0  0  0  0  0  0  0  0  0  0
   40.0120   21.4510   36.1460 H   0  0  0  0  0  0  0  0  0  0  0  0
   38.2820   21.4610   36.5720 H   0  0  0  0  0  0  0  0  0  0  0  0
   39.8020   22.7740   34.3320 H   0  0  0  0  0  0  0  0  0  0  0  0
   39.5220   21.8550   32.1660 Cl  0  0  0  0  0  0  0  0  0  0  0  0
   38.0410   21.3900   32.9560 C   0  0  0  0  0  0  0  0  0  0  0  0
   37.8630   21.8910   34.2280 C   0  0  0  0  0  0  0  0  0  0  0  0
   36.6820   21.5360   34.8930 C   0  0  0  0  0  0  0  0  0  0  0  0
   36.4820   21.8990   35.9000 H   0  0  0  0  0  0  0  0  0  0  0  0
   35.7440   20.7190   34.2870 C   0  0  0  0  0  3  0  0  0  0  0  0
   35.9550   20.2330   33.0070 C   0  0  0  0  0  0  0  0  0  0  0  0
   34.8350   19.1900   32.1430 Cl  0  0  0  0  0  0  0  0  0  0  0  0
   37.1190   20.5780   32.3450 C   0  0  0  0  0  0  0  0  0  0  0  0
   37.3280   20.2280   31.3540 H   0  0  0  0  0  0  0  0  0  0  0  0
   39.5730   25.2770   33.1770 C   0  0  0  0  0  0  0  0  0  0  0  0
   38.3900   24.9320   33.8460 C   0  0  0  0  0  0  0  0  0  0  0  0
   37.2000   25.4060   33.3120 C   0  0  0  0  0  0  0  0  0  0  0  0
   37.2440   26.1740   32.1770 N   0  0  0  0  0  0  0  0  0  0  0  0
   38.3830   26.4850   31.5670 C   0  0  0  0  0  0  0  0  0  0  0  0
   39.5560   26.0310   32.0730 N   0  0  0  0  0  0  0  0  0  0  0  0
   40.5390   24.9360   33.5470 H   0  0  0  0  0  0  0  0  0  0  0  0
   36.2640   25.1890   33.7590 H   0  0  0  0  0  0  0  0  0  0  0  0
   38.4080   27.2960   30.3700 C   0  0  0  0  0  0  0  0  0  0  0  0
   39.3950   27.1600   29.4400 C   0  0  0  0  0  0  0  0  0  0  0  0
   39.4520   27.9170   28.2890 C   0  0  0  0  0  0  0  0  0  0  0  0
   38.4340   28.8290   28.1380 C   0  0  0  0  0  0  0  0  0  0  0  0
   37.3980   29.0090   29.0590 C   0  0  0  0  0  0  0  0  0  0  0  0
   37.4250   28.2120   30.1740 N   0  0  0  0  0  0  0  0  0  0  0  0
   40.1730   26.4210   29.6180 H   0  0  0  0  0  0  0  0  0  0  0  0
   40.2260   27.8240   27.5390 H   0  0  0  0  0  0  0  0  0  0  0  0
   38.3660   29.4830   27.2760 H   0  0  0  0  0  0  0  0  0  0  0  0
   36.6190   29.7310   28.9090 H   0  0  0  0  0  0  0  0  0  0  0  0
  1  2  1  0  0  0  0
  2  7  1  0  0  0  0
  2  3  1  0  0  0  0
  3  9  1  0  0  0  0
  3 10  1  0  0  0  0
  4  3  1  0  0  0  0
  4 11  1  0  0  0  0
  5 14  1  0  0  0  0
  5  4  1  0  0  0  0
  6 15  1  6  0  0  0
  6  1  1  0  0  0  0
  6  5  1  0  0  0  0
  8  2  1  0  0  0  0
 12  4  1  0  0  0  0
 13  5  1  0  0  0  0
 16 17  1  0  0  0  0
 17 18  1  0  0  0  0
 18 19  2  0  0  0  0
 18  6  1  0  0  0  0
 19 20  1  0  0  0  0
 21 19  1  0  0  0  0
 22 21  2  0  0  0  0
 23 22  1  0  0  0  0
 24 17  2  0  0  0  0
 24 22  1  0  0  0  0
 25 24  1  0  0  0  0
 26 32  1  0  0  0  0
 26 27  1  0  0  0  0
 27  1  1  0  0  0  0
 28 33  1  0  0  0  0
 28 27  2  0  0  0  0
 29 28  1  0  0  0  0
 30 31  1  0  0  0  0
 30 29  2  0  0  0  0
 31 26  2  0  0  0  0
 34 30  1  0  0  0  0
 35 40  1  0  0  0  0
 35 34  2  0  0  0  0
 36 35  1  0  0  0  0
 37 36  2  0  0  0  0
 37 38  1  0  0  0  0
 38 39  2  0  0  0  0
 39 34  1  0  0  0  0
 41 36  1  0  0  0  0
 42 37  1  0  0  0  0
 43 38  1  0  0  0  0
M  END
>  <minimizedAffinity>
-5.70060682

$$$$

 OpenBabel03272504513D

 43 46  0  0  1  0  0  0  0  0999 V2000
   38.7420   26.4140   31.6360 N   0  0  0  0  0  0  0  0  0  0  0  0
   40.1610   26.5410   31.9370 C   0  0  0  0  0  0  0  0  0  0  0  0
   41.0460   25.7630   31.0290 C   0  0  0  0  0  0  0  0  0  0  0  0
   40.4900   25.7460   29.6070 C   0  0  0  0  0  0  0  0  0  0  0  0
   39.2080   24.9740   29.6940 C   0  0  0  0  0  0  0  0  0  0  0  0
   38.2010   25.5470   30.6440 C   0  0  1  0  0  0  0  0  0  0  0  0
   40.4150   27.6230   31.8360 H   0  0  0  0  0  0  0  0  0  0  0  0
   40.3510   26.1790   32.9800 H   0  0  0  0  0  0  0  0  0  0  0  0
   41.1330   24.7250   31.3910 H   0  0  0  0  0  0  0  0  0  0  0  0
   42.0630   26.2480   31.0450 H   0  0  0  0  0  0  0  0  0  0  0  0
   41.1840   25.1790   28.9730 H   0  0  0  0  0  0  0  0  0  0  0  0
   40.3350   26.7870   29.2740 H   0  0  0  0  0  0  0  0  0  0  0  0
   38.7740   24.9120   28.6760 H   0  0  0  0  0  0  0  0  0  0  0  0
   39.4910   23.9170   29.9670 H   0  0  0  0  0  0  0  0  0  0  0  0
   37.4690   26.1430   30.0430 H   0  0  0  0  0  0  0  0  0  0  0  0
   35.2160   25.5840   30.5750 Cl  0  0  0  0  0  0  0  0  0  0  0  0
   36.1020   24.2510   31.2630 C   0  0  0  0  0  0  0  0  0  0  0  0
   37.4760   24.3680   31.2270 C   0  0  0  0  0  0  0  0  0  0  0  0
   38.2190   23.3140   31.7720 C   0  0  0  0  0  0  0  0  0  0  0  0
   39.3080   23.3460   31.7740 H   0  0  0  0  0  0  0  0  0  0  0  0
   37.5900   22.2100   32.3190 C   0  0  0  0  0  3  0  0  0  0  0  0
   36.2080   22.1250   32.3390 C   0  0  0  0  0  0  0  0  0  0  0  0
   35.3040   20.7720   33.0070 Cl  0  0  0  0  0  0  0  0  0  0  0  0
   35.4660   23.1610   31.8020 C   0  0  0  0  0  0  0  0  0  0  0  0
   34.3950   23.1420   31.7930 H   0  0  0  0  0  0  0  0  0  0  0  0
   37.1630   28.2850   31.8160 C   0  0  0  0  0  0  0  0  0  0  0  0
   37.8660   27.2210   32.4020 C   0  0  0  0  0  0  0  0  0  0  0  0
   37.6630   26.9990   33.7570 C   0  0  0  0  0  0  0  0  0  0  0  0
   36.8010   27.8170   34.4390 N   0  0  0  0  0  0  0  0  0  0  0  0
   36.1500   28.8180   33.8550 C   0  0  0  0  0  0  0  0  0  0  0  0
   36.3350   29.0520   32.5320 N   0  0  0  0  0  0  0  0  0  0  0  0
   37.2810   28.5110   30.7570 H   0  0  0  0  0  0  0  0  0  0  0  0
   38.1560   26.2150   34.2720 H   0  0  0  0  0  0  0  0  0  0  0  0
   35.2450   29.6710   34.5930 C   0  0  0  0  0  0  0  0  0  0  0  0
   35.6960   30.7510   35.2910 C   0  0  0  0  0  0  0  0  0  0  0  0
   34.8630   31.5850   36.0060 C   0  0  0  0  0  0  0  0  0  0  0  0
   33.5290   31.2520   35.9680 C   0  0  0  0  0  0  0  0  0  0  0  0
   33.0130   30.1570   35.2690 C   0  0  0  0  0  0  0  0  0  0  0  0
   33.9180   29.3840   34.5880 N   0  0  0  0  0  0  0  0  0  0  0  0
   36.7630   30.9620   35.2830 H   0  0  0  0  0  0  0  0  0  0  0  0
   35.2010   32.4470   36.5660 H   0  0  0  0  0  0  0  0  0  0  0  0
   32.7740   31.8280   36.4890 H   0  0  0  0  0  0  0  0  0  0  0  0
   31.9660   29.9270   35.2610 H   0  0  0  0  0  0  0  0  0  0  0  0
  1  2  1  0  0  0  0
  1 27  1  0  0  0  0
  2  8  1  0  0  0  0
  3 10  1  0  0  0  0
  3  9  1  0  0  0  0
  3  2  1  0  0  0  0
  4  5  1  0  0  0  0
  4  3  1  0  0  0  0
  5 14  1  0  0  0  0
  5  6  1  0  0  0  0
  6 15  1  6  0  0  0
  6 18  1  0  0  0  0
  6  1  1  0  0  0  0
  7  2  1  0  0  0  0
 11  4  1  0  0  0  0
 12  4  1  0  0  0  0
 13  5  1  0  0  0  0
 16 17  1  0  0  0  0
 17 24  1  0  0  0  0
 18 17  2  0  0  0  0
 18 19  1  0  0  0  0
 19 20  1  0  0  0  0
 19 21  2  0  0  0  0
 21 22  1  0  0  0  0
 22 23  1  0  0  0  0
 24 22  2  0  0  0  0
 25 24  1  0  0  0  0
 26 27  2  0  0  0  0
 26 31  1  0  0  0  0
 27 28  1  0  0  0  0
 28 33  1  0  0  0  0
 28 29  2  0  0  0  0
 30 29  1  0  0  0  0
 30 34  1  0  0  0  0
 31 30  2  0  0  0  0
 32 26  1  0  0  0  0
 34 35  1  0  0  0  0
 35 36  2  0  0  0  0
 36 41  1  0  0  0  0
 37 36  1  0  0  0  0
 37 42  1  0  0  0  0
 38 37  2  0  0  0  0
 39 34  2  0  0  0  0
 39 38  1  0  0  0  0
 40 35  1  0  0  0  0
 43 38  1  0  0  0  0
M  END
>  <minimizedAffinity>
-5.66364622

$$$$

 OpenBabel03272504513D

 43 46  0  0  1  0  0  0  0  0999 V2000
   38.9380   23.9010   34.6590 N   0  0  0  0  0  0  0  0  0  0  0  0
   39.3380   23.7720   36.0530 C   0  0  0  0  0  0  0  0  0  0  0  0
   40.1400   22.5530   36.3440 C   0  0  0  0  0  0  0  0  0  0  0  0
   41.0600   22.2140   35.1730 C   0  0  0  0  0  0  0  0  0  0  0  0
   40.1450   21.8450   34.0450 C   0  0  0  0  0  0  0  0  0  0  0  0
   39.1760   22.9190   33.6550 C   0  0  1  0  0  0  0  0  0  0  0  0
   39.9580   24.6680   36.2940 H   0  0  0  0  0  0  0  0  0  0  0  0
   38.4230   23.7310   36.6970 H   0  0  0  0  0  0  0  0  0  0  0  0
   39.4680   21.6990   36.5290 H   0  0  0  0  0  0  0  0  0  0  0  0
   40.7460   22.7560   37.2710 H   0  0  0  0  0  0  0  0  0  0  0  0
   41.6430   21.3220   35.4410 H   0  0  0  0  0  0  0  0  0  0  0  0
   41.6820   23.0960   34.9420 H   0  0  0  0  0  0  0  0  0  0  0  0
   40.7690   21.5660   33.1720 H   0  0  0  0  0  0  0  0  0  0  0  0
   39.6190   20.8970   34.3580 H   0  0  0  0  0  0  0  0  0  0  0  0
   39.5960   23.4480   32.7630 H   0  0  0  0  0  0  0  0  0  0  0  0
   38.5380   22.8700   30.7390 Cl  0  0  0  0  0  0  0  0  0  0  0  0
   37.5100   22.1010   31.9160 C   0  0  0  0  0  0  0  0  0  0  0  0
   37.9270   22.2040   33.2270 C   0  0  0  0  0  0  0  0  0  0  0  0
   37.1230   21.5980   34.2000 C   0  0  0  0  0  0  0  0  0  0  0  0
   37.3980   21.6420   35.2530 H   0  0  0  0  0  0  0  0  0  0  0  0
   35.9640   20.9280   33.8480 C   0  0  0  0  0  3  0  0  0  0  0  0
   35.5740   20.8450   32.5210 C   0  0  0  0  0  0  0  0  0  0  0  0
   34.1250   20.0220   31.9610 Cl  0  0  0  0  0  0  0  0  0  0  0  0
   36.3630   21.4400   31.5540 C   0  0  0  0  0  0  0  0  0  0  0  0
   36.1050   21.4040   30.5150 H   0  0  0  0  0  0  0  0  0  0  0  0
   37.5530   25.8360   35.2670 C   0  0  0  0  0  0  0  0  0  0  0  0
   38.2670   25.1000   34.3100 C   0  0  0  0  0  0  0  0  0  0  0  0
   38.2860   25.5970   33.0150 C   0  0  0  0  0  0  0  0  0  0  0  0
   37.6180   26.7620   32.7430 N   0  0  0  0  0  0  0  0  0  0  0  0
   36.9480   27.4360   33.6730 C   0  0  0  0  0  0  0  0  0  0  0  0
   36.9170   26.9670   34.9450 N   0  0  0  0  0  0  0  0  0  0  0  0
   37.5000   25.4970   36.3010 H   0  0  0  0  0  0  0  0  0  0  0  0
   38.8040   25.0990   32.2350 H   0  0  0  0  0  0  0  0  0  0  0  0
   36.2480   28.6640   33.3660 C   0  0  0  0  0  0  0  0  0  0  0  0
   35.5620   29.3480   34.3250 C   0  0  0  0  0  0  0  0  0  0  0  0
   34.8830   30.5200   34.0690 C   0  0  0  0  0  0  0  0  0  0  0  0
   34.9440   30.9610   32.7680 C   0  0  0  0  0  0  0  0  0  0  0  0
   35.6340   30.2990   31.7470 C   0  0  0  0  0  0  0  0  0  0  0  0
   36.2790   29.1400   32.0950 N   0  0  0  0  0  0  0  0  0  0  0  0
   35.5490   28.9480   35.3350 H   0  0  0  0  0  0  0  0  0  0  0  0
   34.3320   31.0780   34.8140 H   0  0  0  0  0  0  0  0  0  0  0  0
   34.4530   31.8680   32.4390 H   0  0  0  0  0  0  0  0  0  0  0  0
   35.6610   30.6710   30.7420 H   0  0  0  0  0  0  0  0  0  0  0  0
  1  2  1  0  0  0  0
  2  7  1  0  0  0  0
  2  3  1  0  0  0  0
  2  8  1  0  0  0  0
  3  9  1  0  0  0  0
  3 10  1  0  0  0  0
  4 11  1  0  0  0  0
  4  3  1  0  0  0  0
  5 14  1  0  0  0  0
  5  4  1  0  0  0  0
  6 15  1  6  0  0  0
  6  5  1  0  0  0  0
  6  1  1  0  0  0  0
 12  4  1  0  0  0  0
 13  5  1  0  0  0  0
 16 17  1  0  0  0  0
 17 18  1  0  0  0  0
 18  6  1  0  0  0  0
 18 19  2  0  0  0  0
 19 20  1  0  0  0  0
 21 19  1  0  0  0  0
 22 21  2  0  0  0  0
 23 22  1  0  0  0  0
 24 17  2  0  0  0  0
 24 22  1  0  0  0  0
 25 24  1  0  0  0  0
 26 32  1  0  0  0  0
 27  1  1  0  0  0  0
 27 26  2  0  0  0  0
 28 27  1  0  0  0  0
 29 28  2  0  0  0  0
 29 30  1  0  0  0  0
 30 31  2  0  0  0  0
 31 26  1  0  0  0  0
 33 28  1  0  0  0  0
 34 30  1  0  0  0  0
 34 35  1  0  0  0  0
 35 40  1  0  0  0  0
 36 35  2  0  0  0  0
 36 41  1  0  0  0  0
 37 36  1  0  0  0  0
 38 39  1  0  0  0  0
 38 37  2  0  0  0  0
 39 34  2  0  0  0  0
 42 37  1  0  0  0  0
 43 38  1  0  0  0  0
M  END
>  <minimizedAffinity>
-5.64512777

$$$$

 OpenBabel03272504513D

 43 46  0  0  1  0  0  0  0  0999 V2000
   36.9630   26.4870   31.6940 N   0  0  0  0  0  0  0  0  0  0  0  0
   35.9200   27.3310   32.2600 C   0  0  0  0  0  0  0  0  0  0  0  0
   36.1570   28.7890   32.0860 C   0  0  0  0  0  0  0  0  0  0  0  0
   36.8320   29.0750   30.7460 C   0  0  0  0  0  0  0  0  0  0  0  0
   38.1890   28.4460   30.8440 C   0  0  0  0  0  0  0  0  0  0  0  0
   38.1720   26.9730   31.1180 C   0  0  1  0  0  0  0  0  0  0  0  0
   34.9710   27.0630   31.7370 H   0  0  0  0  0  0  0  0  0  0  0  0
   35.8420   27.1340   33.3600 H   0  0  0  0  0  0  0  0  0  0  0  0
   36.8030   29.1620   32.8980 H   0  0  0  0  0  0  0  0  0  0  0  0
   35.1590   29.3070   32.1390 H   0  0  0  0  0  0  0  0  0  0  0  0
   36.9690   30.1610   30.6560 H   0  0  0  0  0  0  0  0  0  0  0  0
   36.2200   28.6380   29.9390 H   0  0  0  0  0  0  0  0  0  0  0  0
   38.7310   28.6480   29.8990 H   0  0  0  0  0  0  0  0  0  0  0  0
   38.7470   29.0160   31.6420 H   0  0  0  0  0  0  0  0  0  0  0  0
   38.3120   26.4450   30.1410 H   0  0  0  0  0  0  0  0  0  0  0  0
   40.3790   25.3560   29.9240 Cl  0  0  0  0  0  0  0  0  0  0  0  0
   40.4700   25.9730   31.5490 C   0  0  0  0  0  0  0  0  0  0  0  0
   39.3780   26.7040   31.9700 C   0  0  0  0  0  0  0  0  0  0  0  0
   39.4180   27.2150   33.2730 C   0  0  0  0  0  0  0  0  0  0  0  0
   38.5870   27.8010   33.6650 H   0  0  0  0  0  0  0  0  0  0  0  0
   40.5110   26.9910   34.0910 C   0  0  0  0  0  3  0  0  0  0  0  0
   41.5910   26.2510   33.6370 C   0  0  0  0  0  0  0  0  0  0  0  0
   43.0290   25.9040   34.5880 Cl  0  0  0  0  0  0  0  0  0  0  0  0
   41.5600   25.7440   32.3510 C   0  0  0  0  0  0  0  0  0  0  0  0
   42.3700   25.1660   31.9530 H   0  0  0  0  0  0  0  0  0  0  0  0
   37.4070   24.2690   32.6500 C   0  0  0  0  0  0  0  0  0  0  0  0
   36.7290   25.0900   31.7370 C   0  0  0  0  0  0  0  0  0  0  0  0
   35.8250   24.4740   30.8830 C   0  0  0  0  0  0  0  0  0  0  0  0
   35.6450   23.1190   30.9760 N   0  0  0  0  0  0  0  0  0  0  0  0
   36.3050   22.3680   31.8520 C   0  0  0  0  0  0  0  0  0  0  0  0
   37.1930   22.9510   32.6960 N   0  0  0  0  0  0  0  0  0  0  0  0
   38.1300   24.6930   33.3460 H   0  0  0  0  0  0  0  0  0  0  0  0
   35.2730   25.0260   30.1650 H   0  0  0  0  0  0  0  0  0  0  0  0
   36.1010   20.9390   31.9350 C   0  0  0  0  0  0  0  0  0  0  0  0
   35.5220   20.3660   33.0270 C   0  0  0  0  0  0  0  0  0  0  0  0
   35.3130   19.0080   33.1400 C   0  0  0  0  0  0  0  0  0  0  0  0
   35.7310   18.2590   32.0660 C   0  0  0  0  0  0  0  0  0  0  0  0
   36.3300   18.7960   30.9210 C   0  0  0  0  0  0  0  0  0  0  0  0
   36.4970   20.1560   30.8990 N   0  0  0  0  0  0  0  0  0  0  0  0
   35.2130   21.0110   33.8460 H   0  0  0  0  0  0  0  0  0  0  0  0
   34.8550   18.5330   33.9980 H   0  0  0  0  0  0  0  0  0  0  0  0
   35.6230   17.1820   32.0330 H   0  0  0  0  0  0  0  0  0  0  0  0
   36.6440   18.1810   30.1010 H   0  0  0  0  0  0  0  0  0  0  0  0
  1 27  1  0  0  0  0
  1  2  1  0  0  0  0
  2  8  1  0  0  0  0
  3 10  1  0  0  0  0
  3  2  1  0  0  0  0
  3  9  1  0  0  0  0
  4  5  1  0  0  0  0
  4  3  1  0  0  0  0
  5  6  1  0  0  0  0
  5 14  1  0  0  0  0
  6 15  1  6  0  0  0
  6  1  1  0  0  0  0
  6 18  1  0  0  0  0
  7  2  1  0  0  0  0
 11  4  1  0  0  0  0
 12  4  1  0  0  0  0
 13  5  1  0  0  0  0
 16 17  1  0  0  0  0
 17 18  2  0  0  0  0
 17 24  1  0  0  0  0
 18 19  1  0  0  0  0
 19 20  1  0  0  0  0
 19 21  2  0  0  0  0
 22 21  1  0  0  0  0
 22 23  1  0  0  0  0
 24 22  2  0  0  0  0
 25 24  1  0  0  0  0
 26 31  1  0  0  0  0
 26 32  1  0  0  0  0
 27 26  2  0  0  0  0
 28 29  2  0  0  0  0
 28 27  1  0  0  0  0
 29 30  1  0  0  0  0
 30 34  1  0  0  0  0
 30 31  2  0  0  0  0
 33 28  1  0  0  0  0
 34 35  1  0  0  0  0
 35 36  2  0  0  0  0
 35 40  1  0  0  0  0
 36 41  1  0  0  0  0
 37 36  1  0  0  0  0
 38 37  2  0  0  0  0
 39 38  1  0  0  0  0
 39 34  2  0  0  0  0
 42 37  1  0  0  0  0
 43 38  1  0  0  0  0
M  END
>  <minimizedAffinity>
-5.5800786

$$$$

 OpenBabel03272504513D

 43 46  0  0  1  0  0  0  0  0999 V2000
   39.4790   25.5200   31.2270 N   0  0  0  0  0  0  0  0  0  0  0  0
   39.8890   25.8080   29.8600 C   0  0  0  0  0  0  0  0  0  0  0  0
   40.7450   27.0160   29.7240 C   0  0  0  0  0  0  0  0  0  0  0  0
   41.6770   27.1630   30.9260 C   0  0  0  0  0  0  0  0  0  0  0  0
   40.7750   27.4260   32.0940 C   0  0  0  0  0  0  0  0  0  0  0  0
   39.7580   26.3560   32.3470 C   0  0  1  0  0  0  0  0  0  0  0  0
   40.4690   24.9230   29.5050 H   0  0  0  0  0  0  0  0  0  0  0  0
   38.9780   25.9710   29.2290 H   0  0  0  0  0  0  0  0  0  0  0  0
   40.1130   27.9170   29.6510 H   0  0  0  0  0  0  0  0  0  0  0  0
   41.3450   26.9060   28.7770 H   0  0  0  0  0  0  0  0  0  0  0  0
   42.2990   28.0540   30.7710 H   0  0  0  0  0  0  0  0  0  0  0  0
   42.2570   26.2310   31.0410 H   0  0  0  0  0  0  0  0  0  0  0  0
   41.4090   27.5640   32.9930 H   0  0  0  0  0  0  0  0  0  0  0  0
   40.2940   28.4290   31.9050 H   0  0  0  0  0  0  0  0  0  0  0  0
   40.1520   25.7000   33.1640 H   0  0  0  0  0  0  0  0  0  0  0  0
   39.1310   26.0880   35.2540 Cl  0  0  0  0  0  0  0  0  0  0  0  0
   38.1330   27.0310   34.1830 C   0  0  0  0  0  0  0  0  0  0  0  0
   38.5410   27.0660   32.8660 C   0  0  0  0  0  0  0  0  0  0  0  0
   37.7600   27.8150   31.9770 C   0  0  0  0  0  0  0  0  0  0  0  0
   38.0300   27.8840   30.9240 H   0  0  0  0  0  0  0  0  0  0  0  0
   36.6310   28.4860   32.4140 C   0  0  0  0  0  3  0  0  0  0  0  0
   36.2490   28.4280   33.7440 C   0  0  0  0  0  0  0  0  0  0  0  0
   34.8370   29.2380   34.4090 Cl  0  0  0  0  0  0  0  0  0  0  0  0
   37.0150   27.6910   34.6290 C   0  0  0  0  0  0  0  0  0  0  0  0
   36.7620   27.6150   35.6670 H   0  0  0  0  0  0  0  0  0  0  0  0
   37.6060   24.0340   30.6710 C   0  0  0  0  0  0  0  0  0  0  0  0
   38.7550   24.3190   31.4240 C   0  0  0  0  0  0  0  0  0  0  0  0
   39.1450   23.3750   32.3620 C   0  0  0  0  0  0  0  0  0  0  0  0
   38.4010   22.2330   32.5020 N   0  0  0  0  0  0  0  0  0  0  0  0
   37.3150   21.9930   31.7740 C   0  0  0  0  0  0  0  0  0  0  0  0
   36.9160   22.9030   30.8510 N   0  0  0  0  0  0  0  0  0  0  0  0
   37.2470   24.7360   29.9190 H   0  0  0  0  0  0  0  0  0  0  0  0
   40.0030   23.5160   32.9700 H   0  0  0  0  0  0  0  0  0  0  0  0
   36.5420   20.7820   31.9370 C   0  0  0  0  0  0  0  0  0  0  0  0
   35.1810   20.8130   32.0100 C   0  0  0  0  0  0  0  0  0  0  0  0
   34.4120   19.6790   32.1650 C   0  0  0  0  0  0  0  0  0  0  0  0
   35.1160   18.5000   32.2420 C   0  0  0  0  0  0  0  0  0  0  0  0
   36.5090   18.4120   32.1720 C   0  0  0  0  0  0  0  0  0  0  0  0
   37.1900   19.5920   32.0180 N   0  0  0  0  0  0  0  0  0  0  0  0
   34.6820   21.7760   31.9440 H   0  0  0  0  0  0  0  0  0  0  0  0
   33.3320   19.6820   32.2260 H   0  0  0  0  0  0  0  0  0  0  0  0
   34.6270   17.5410   32.3650 H   0  0  0  0  0  0  0  0  0  0  0  0
   37.0260   17.4740   32.2360 H   0  0  0  0  0  0  0  0  0  0  0  0
  1 27  1  0  0  0  0
  1  6  1  0  0  0  0
  2  1  1  0  0  0  0
  3  2  1  0  0  0  0
  3  4  1  0  0  0  0
  4 12  1  0  0  0  0
  4  5  1  0  0  0  0
  5  6  1  0  0  0  0
  5 13  1  0  0  0  0
  6 18  1  0  0  0  0
  6 15  1  1  0  0  0
  7  2  1  0  0  0  0
  8  2  1  0  0  0  0
  9  3  1  0  0  0  0
 10  3  1  0  0  0  0
 11  4  1  0  0  0  0
 14  5  1  0  0  0  0
 17 24  1  0  0  0  0
 17 16  1  0  0  0  0
 18 17  2  0  0  0  0
 19 21  2  0  0  0  0
 19 18  1  0  0  0  0
 20 19  1  0  0  0  0
 21 22  1  0  0  0  0
 22 23  1  0  0  0  0
 22 24  2  0  0  0  0
 24 25  1  0  0  0  0
 26 31  2  0  0  0  0
 26 27  1  0  0  0  0
 27 28  2  0  0  0  0
 28 29  1  0  0  0  0
 28 33  1  0  0  0  0
 30 34  1  0  0  0  0
 30 29  2  0  0  0  0
 31 30  1  0  0  0  0
 32 26  1  0  0  0  0
 34 35  2  0  0  0  0
 34 39  1  0  0  0  0
 35 36  1  0  0  0  0
 36 41  1  0  0  0  0
 36 37  2  0  0  0  0
 37 42  1  0  0  0  0
 38 43  1  0  0  0  0
 38 37  1  0  0  0  0
 39 38  2  0  0  0  0
 40 35  1  0  0  0  0
M  END
>  <minimizedAffinity>
-5.54736519

$$$$

 OpenBabel03272504513D

 43 46  0  0  1  0  0  0  0  0999 V2000
   37.1970   26.1400   32.3940 N   0  0  0  0  0  0  0  0  0  0  0  0
   36.4000   25.5490   31.3280 C   0  0  0  0  0  0  0  0  0  0  0  0
   36.8900   24.2230   30.8680 C   0  0  0  0  0  0  0  0  0  0  0  0
   37.4600   23.4170   32.0340 C   0  0  0  0  0  0  0  0  0  0  0  0
   38.6750   24.1720   32.4800 C   0  0  0  0  0  0  0  0  0  0  0  0
   38.4070   25.5850   32.9010 C   0  0  1  0  0  0  0  0  0  0  0  0
   35.3680   25.4230   31.7320 H   0  0  0  0  0  0  0  0  0  0  0  0
   36.4050   26.2330   30.4410 H   0  0  0  0  0  0  0  0  0  0  0  0
   37.6790   24.3580   30.1090 H   0  0  0  0  0  0  0  0  0  0  0  0
   36.0200   23.6780   30.4050 H   0  0  0  0  0  0  0  0  0  0  0  0
   37.7890   22.4420   31.6490 H   0  0  0  0  0  0  0  0  0  0  0  0
   36.6920   23.3440   32.8230 H   0  0  0  0  0  0  0  0  0  0  0  0
   39.1410   23.6110   33.3150 H   0  0  0  0  0  0  0  0  0  0  0  0
   39.4130   24.1190   31.6290 H   0  0  0  0  0  0  0  0  0  0  0  0
   38.3390   25.5990   34.0180 H   0  0  0  0  0  0  0  0  0  0  0  0
   40.1330   26.6800   35.0780 Cl  0  0  0  0  0  0  0  0  0  0  0  0
   40.5100   26.9280   33.3960 C   0  0  0  0  0  0  0  0  0  0  0  0
   39.6250   26.3660   32.4990 C   0  0  0  0  0  0  0  0  0  0  0  0
   39.8980   26.5470   31.1370 C   0  0  0  0  0  0  0  0  0  0  0  0
   39.2380   26.1270   30.3790 H   0  0  0  0  0  0  0  0  0  0  0  0
   41.0090   27.2600   30.7240 C   0  0  0  0  0  3  0  0  0  0  0  0
   41.8770   27.8120   31.6520 C   0  0  0  0  0  0  0  0  0  0  0  0
   43.3160   28.7340   31.2410 Cl  0  0  0  0  0  0  0  0  0  0  0  0
   41.6150   27.6370   32.9980 C   0  0  0  0  0  0  0  0  0  0  0  0
   42.2560   28.0440   33.7550 H   0  0  0  0  0  0  0  0  0  0  0  0
   36.7450   27.5870   34.3250 C   0  0  0  0  0  0  0  0  0  0  0  0
   36.7090   27.3510   32.9420 C   0  0  0  0  0  0  0  0  0  0  0  0
   36.1760   28.3530   32.1440 C   0  0  0  0  0  0  0  0  0  0  0  0
   35.7210   29.5010   32.7380 N   0  0  0  0  0  0  0  0  0  0  0  0
   35.7680   29.6940   34.0520 C   0  0  0  0  0  0  0  0  0  0  0  0
   36.2850   28.7270   34.8510 N   0  0  0  0  0  0  0  0  0  0  0  0
   37.1500   26.8390   35.0050 H   0  0  0  0  0  0  0  0  0  0  0  0
   36.1140   28.2510   31.0910 H   0  0  0  0  0  0  0  0  0  0  0  0
   35.2820   30.9130   34.6600 C   0  0  0  0  0  0  0  0  0  0  0  0
   35.7740   31.3570   35.8520 C   0  0  0  0  0  0  0  0  0  0  0  0
   35.3340   32.5130   36.4610 C   0  0  0  0  0  0  0  0  0  0  0  0
   34.3560   33.1980   35.7800 C   0  0  0  0  0  0  0  0  0  0  0  0
   33.8180   32.7880   34.5560 C   0  0  0  0  0  0  0  0  0  0  0  0
   34.3160   31.6260   34.0270 N   0  0  0  0  0  0  0  0  0  0  0  0
   36.5460   30.7700   36.3420 H   0  0  0  0  0  0  0  0  0  0  0  0
   35.7100   32.8820   37.4060 H   0  0  0  0  0  0  0  0  0  0  0  0
   33.9280   34.1210   36.1530 H   0  0  0  0  0  0  0  0  0  0  0  0
   33.0550   33.3480   34.0520 H   0  0  0  0  0  0  0  0  0  0  0  0
  1  6  1  0  0  0  0
  1 27  1  0  0  0  0
  2  7  1  0  0  0  0
  2  1  1  0  0  0  0
  3  2  1  0  0  0  0
  3  4  1  0  0  0  0
  4  5  1  0  0  0  0
  4 12  1  0  0  0  0
  5  6  1  0  0  0  0
  5 13  1  0  0  0  0
  6 15  1  1  0  0  0
  8  2  1  0  0  0  0
  9  3  1  0  0  0  0
 10  3  1  0  0  0  0
 11  4  1  0  0  0  0
 14  5  1  0  0  0  0
 17 16  1  0  0  0  0
 18  6  1  0  0  0  0
 18 17  2  0  0  0  0
 19 18  1  0  0  0  0
 20 19  1  0  0  0  0
 21 19  2  0  0  0  0
 21 22  1  0  0  0  0
 22 24  2  0  0  0  0
 23 22  1  0  0  0  0
 24 17  1  0  0  0  0
 24 25  1  0  0  0  0
 26 31  1  0  0  0  0
 26 32  1  0  0  0  0
 27 26  2  0  0  0  0
 28 29  2  0  0  0  0
 28 27  1  0  0  0  0
 29 30  1  0  0  0  0
 30 34  1  0  0  0  0
 30 31  2  0  0  0  0
 33 28  1  0  0  0  0
 34 35  1  0  0  0  0
 35 40  1  0  0  0  0
 35 36  2  0  0  0  0
 36 41  1  0  0  0  0
 37 42  1  0  0  0  0
 37 36  1  0  0  0  0
 38 37  2  0  0  0  0
 39 38  1  0  0  0  0
 39 34  2  0  0  0  0
 43 38  1  0  0  0  0
M  END
>  <minimizedAffinity>
-5.52312613

$$$$
