
 OpenBabel03272503333D

 42 45  0  0  1  0  0  0  0  0999 V2000
   35.7470   29.5010   47.7770 C   0  0  0  0  0  0  0  0  0  0  0  0
   35.6490   30.1520   46.5480 C   0  0  0  0  0  0  0  0  0  0  0  0
   34.6570   29.7150   45.6620 C   0  0  0  0  0  0  0  0  0  0  0  0
   33.8530   28.6730   46.0750 N   0  0  0  0  0  0  0  0  0  0  0  0
   33.9840   28.0790   47.2620 C   0  0  0  0  0  0  0  0  0  0  0  0
   34.9320   28.4960   48.1100 N   0  0  0  0  0  0  0  0  0  0  0  0
   36.2790   30.9690   46.2230 H   0  0  0  0  0  0  0  0  0  0  0  0
   34.5030   30.1490   44.6980 H   0  0  0  0  0  0  0  0  0  0  0  0
   36.7670   29.9570   48.6760 N   0  0  0  0  0  0  0  0  0  0  0  0
   37.9390   30.7100   48.3460 C   0  0  0  0  0  0  0  0  0  0  0  0
   38.2150   31.4680   49.6370 C   0  0  2  0  0  0  0  0  0  0  0  0
   37.0440   31.1650   50.5690 C   0  0  0  0  0  0  0  0  0  0  0  0
   36.7980   29.7340   50.1190 C   0  0  0  0  0  0  0  0  0  0  0  0
   37.7620   31.4410   47.5110 H   0  0  0  0  0  0  0  0  0  0  0  0
   38.8210   30.0620   48.1250 H   0  0  0  0  0  0  0  0  0  0  0  0
   39.1190   31.0630   50.1550 H   0  0  0  0  0  0  0  0  0  0  0  0
   36.1960   31.7960   50.2990 H   0  0  0  0  0  0  0  0  0  0  0  0
   37.3310   31.2310   51.6250 H   0  0  0  0  0  0  0  0  0  0  0  0
   35.8090   29.4030   50.4750 H   0  0  0  0  0  0  0  0  0  0  0  0
   37.6350   29.1000   50.4240 H   0  0  0  0  0  0  0  0  0  0  0  0
   38.3680   32.9450   49.4040 C   0  0  0  0  0  0  0  0  0  0  0  0
   37.1810   33.5350   49.7950 F   0  0  0  0  0  0  0  0  0  0  0  0
   38.4680   33.1310   48.0500 F   0  0  0  0  0  0  0  0  0  0  0  0
   39.4460   33.4870   50.0510 F   0  0  0  0  0  0  0  0  0  0  0  0
   32.9130   26.7370   47.7380 S   0  0  0  0  0  0  0  0  0  0  0  0
   31.4070   27.1240   48.3920 C   0  0  0  0  0  0  0  0  0  0  0  0
   30.5590   26.7490   49.3930 C   0  0  0  0  0  0  0  0  0  0  0  0
   29.3530   27.3050   49.6490 C   0  0  0  0  0  0  0  0  0  0  0  0
   29.0090   28.4010   48.7140 C   0  0  0  0  0  0  0  0  0  0  0  0
   30.4350   28.5080   47.5920 S   0  0  0  0  0  0  0  0  0  0  0  0
   30.9820   25.9390   49.9660 H   0  0  0  0  0  0  0  0  0  0  0  0
   28.6910   27.0070   50.4360 H   0  0  0  0  0  0  0  0  0  0  0  0
   26.9780   27.3960   46.7970 Cl  0  0  0  0  0  0  0  0  0  0  0  0
   26.8400   28.7980   47.8340 C   0  0  0  0  0  0  0  0  0  0  0  0
   27.8420   29.1860   48.6950 C   0  0  0  0  0  0  0  0  0  0  0  0
   27.7950   30.2750   49.5340 C   0  0  0  0  0  0  0  0  0  0  0  0
   28.6060   30.5350   50.1870 H   0  0  0  0  0  0  0  0  0  0  0  0
   26.6260   31.0480   49.5040 C   0  0  0  0  0  3  0  0  0  0  0  0
   25.5760   30.6970   48.6480 C   0  0  0  0  0  0  0  0  0  0  0  0
   24.1010   31.6400   48.5850 Cl  0  0  0  0  0  0  0  0  0  0  0  0
   25.6760   29.5770   47.8130 C   0  0  0  0  0  0  0  0  0  0  0  0
   24.8560   29.3200   47.1570 H   0  0  0  0  0  0  0  0  0  0  0  0
  1  6  1  0  0  0  0
  1  9  1  0  0  0  0
  2  1  2  0  0  0  0
  3  4  2  0  0  0  0
  3  2  1  0  0  0  0
  4  5  1  0  0  0  0
  5 25  1  0  0  0  0
  5  6  2  0  0  0  0
  7  2  1  0  0  0  0
  8  3  1  0  0  0  0
  9 13  1  0  0  0  0
 10  9  1  0  0  0  0
 10 11  1  0  0  0  0
 11 16  1  1  0  0  0
 11 12  1  0  0  0  0
 12 18  1  0  0  0  0
 13 20  1  0  0  0  0
 13 19  1  0  0  0  0
 13 12  1  0  0  0  0
 14 10  1  0  0  0  0
 15 10  1  0  0  0  0
 17 12  1  0  0  0  0
 21 11  1  0  0  0  0
 21 22  1  0  0  0  0
 21 24  1  0  0  0  0
 23 21  1  0  0  0  0
 25 26  1  0  0  0  0
 26 27  2  0  0  0  0
 27 28  1  0  0  0  0
 27 31  1  0  0  0  0
 28 32  1  0  0  0  0
 29 28  2  0  0  0  0
 30 26  1  0  0  0  0
 30 29  1  0  0  0  0
 33 34  1  0  0  0  0
 34 35  1  0  0  0  0
 35 29  1  0  0  0  0
 35 36  2  0  0  0  0
 36 37  1  0  0  0  0
 38 36  1  0  0  0  0
 39 38  2  0  0  0  0
 40 39  1  0  0  0  0
 41 34  2  0  0  0  0
 41 39  1  0  0  0  0
 42 41  1  0  0  0  0
M  END
>  <minimizedAffinity>
-6.63301945

>  <minimizedRMSD>
1.21558702

$$$$
