REMARK  Name = 
REMARK  3 active torsions:
REMARK  status: ('A' for Active; 'I' for Inactive)
REMARK    1  A    between atoms: C_3  and  C_7
REMARK    2  A    between atoms: C_7  and  C_8
REMARK    3  A    between atoms: C_8  and  C_18
REMARK                            x       y       z     vdW  Elec       q    Type
REMARK                         _______ _______ _______ _____ _____    ______ ____
ROOT
ATOM      1  C   UNL     1      38.765  32.663  48.218  0.00  0.00    +0.000 C 
ATOM      2  H   UNL     1      37.826  33.225  48.410  0.00  0.00    +0.000 HD
ATOM      3  H   UNL     1      39.448  32.705  49.077  0.00  0.00    +0.000 HD
ENDROOT
BRANCH   1   6
ATOM      4 CL   UNL     1      38.406  35.593  48.102  0.00  0.00    +0.000 Cl
ATOM      5  C   UNL     1      39.279  34.649  46.891  0.00  0.00    +0.000 A 
ATOM      6  C   UNL     1      39.406  33.268  47.016  0.00  0.00    +0.000 A 
ATOM      7  C   UNL     1      40.104  32.616  46.024  0.00  0.00    +0.000 A 
ATOM      8  H   UNL     1      40.180  31.547  46.157  0.00  0.00    +0.000 HD
ATOM      9  C   UNL     1      40.635  33.332  44.972  0.00  0.00    +0.000 A 
ATOM     10  C   UNL     1      40.499  34.687  44.867  0.00  0.00    +0.000 A 
ATOM     11 CL   UNL     1      41.184  35.580  43.518  0.00  0.00    +0.000 Cl
ATOM     12  C   UNL     1      39.808  35.365  45.843  0.00  0.00    +0.000 A 
ATOM     13  H   UNL     1      39.708  36.438  45.745  0.00  0.00    +0.000 HD
ENDBRANCH   1   6
BRANCH   1  14
ATOM     14  C   UNL     1      38.368  31.231  47.873  0.00  0.00    +0.000 C 
ATOM     15  H   UNL     1      39.315  30.683  47.592  0.00  0.00    +0.000 HD
ATOM     16  H   UNL     1      37.686  31.207  47.020  0.00  0.00    +0.000 HD
BRANCH  14  19
ATOM     17  C   UNL     1      37.389  30.249  51.425  0.00  0.00    +0.000 A 
ATOM     18  C   UNL     1      38.033  30.866  50.359  0.00  0.00    +0.000 A 
ATOM     19  C   UNL     1      37.713  30.597  49.041  0.00  0.00    +0.000 A 
ATOM     20  N   UNL     1      36.728  29.690  48.830  0.00  0.00    +0.000 NA
ATOM     21  C   UNL     1      36.100  29.087  49.870  0.00  0.00    +0.000 A 
ATOM     22  N   UNL     1      36.430  29.367  51.146  0.00  0.00    +0.000 NA
ATOM     23  H   UNL     1      37.624  30.446  52.448  0.00  0.00    +0.000 HD
ATOM     24  H   UNL     1      38.799  31.568  50.597  0.00  0.00    +0.000 HD
ATOM     25  H   UNL     1      35.334  28.384  49.548  0.00  0.00    +0.000 HD
ENDBRANCH  14  19
ENDBRANCH   1  14
TORSDOF 3
