
     RDKit          3D

 41 43  0  0  0  0  0  0  0  0999 V2000
   35.5162   29.8349   50.5182 C   0  0  0  0  0  0  0  0  0  0  0  0
   37.2586   30.1238   50.7493 S   0  0  0  0  0  0  0  0  0  0  0  0
   37.9096   30.9711   49.3178 C   0  0  0  0  0  0  0  0  0  0  0  0
   38.3326   32.2598   49.5623 C   0  0  0  0  0  0  0  0  0  0  0  0
   38.8577   32.9946   48.4889 C   0  0  0  0  0  0  0  0  0  0  0  0
   38.9217   32.3953   47.2622 N   0  0  0  0  0  0  0  0  0  0  0  0
   38.4843   31.1178   47.0973 C   0  0  0  0  0  0  0  0  0  0  0  0
   37.9899   30.4182   48.0954 N   0  0  0  0  0  0  0  0  0  0  0  0
   35.1414   28.3861   49.4885 S   0  0  0  0  0  0  0  0  0  0  0  0
   32.9619   27.3612   48.1641 C   0  0  1  0  0  0  0  0  0  0  0  0
   33.5897   28.6580   48.6014 C   0  0  2  0  0  0  0  0  0  0  0  0
   33.8039   29.4909   47.3762 C   0  0  0  0  0  0  0  0  0  0  0  0
   33.3918   28.8849   46.2074 O   0  0  0  0  0  0  0  0  0  0  0  0
   32.0395   28.5515   46.2423 C   0  0  0  0  0  0  0  0  0  0  0  0
   31.6684   27.7102   47.4370 C   0  0  2  0  0  0  0  0  0  0  0  0
   33.7698   26.6926   47.2347 O   0  0  0  0  0  0  0  0  0  0  0  0
   30.9451   28.4783   48.3391 O   0  0  0  0  0  0  0  0  0  0  0  0
   35.0627   30.7071   49.9840 H   0  0  0  0  0  0  0  0  0  0  0  0
   34.9827   29.7710   51.4911 H   0  0  0  0  0  0  0  0  0  0  0  0
   38.3068   32.7848   50.5076 H   0  0  0  0  0  0  0  0  0  0  0  0
   39.2067   33.9984   48.5959 H   0  0  0  0  0  0  0  0  0  0  0  0
   38.5295   30.6266   46.1223 H   0  0  0  0  0  0  0  0  0  0  0  0
   32.7389   26.6794   48.9958 H   0  0  0  0  0  0  0  0  0  0  0  0
   32.8769   29.1332   49.3117 H   0  0  0  0  0  0  0  0  0  0  0  0
   33.2241   30.4502   47.5010 H   0  0  0  0  0  0  0  0  0  0  0  0
   34.8724   29.7293   47.2734 H   0  0  0  0  0  0  0  0  0  0  0  0
   31.4879   29.5137   46.2647 H   0  0  0  0  0  0  0  0  0  0  0  0
   31.7897   28.0750   45.2797 H   0  0  0  0  0  0  0  0  0  0  0  0
   31.1982   26.8032   47.0620 H   0  0  0  0  0  0  0  0  0  0  0  0
   33.2380   26.2675   46.5238 H   0  0  0  0  0  0  0  0  0  0  0  0
   29.9911   30.5482   50.2474 Cl  0  0  0  0  0  0  0  0  0  0  0  0
   29.1424   29.0957   49.7038 C   0  0  0  0  0  0  0  0  0  0  0  0
   29.6731   28.1852   48.8062 C   0  0  0  0  0  0  0  0  0  0  0  0
   28.9103   27.0907   48.4611 C   0  0  0  0  0  0  0  0  0  0  0  0
   29.3342   26.3969   47.7670 H   0  0  0  0  0  0  0  0  0  0  0  0
   27.6507   26.8894   48.9841 C   0  0  0  0  0  0  0  0  0  0  0  0
   27.1659   27.8222   49.8729 C   0  0  0  0  0  0  0  0  0  0  0  0
   25.5445   27.4952   50.5000 Cl  0  0  0  0  0  0  0  0  0  0  0  0
   27.8867   28.9358   50.2530 C   0  0  0  0  0  0  0  0  0  0  0  0
   27.4018   29.5922   50.9536 H   0  0  0  0  0  0  0  0  0  0  0  0
   27.1233   25.9999   48.6552 H   0  0  0  0  0  0  0  0  0  0  0  0
  1  2  1  0
  3  4  2  0
  3  2  1  0
  5  4  1  0
  6  5  2  0
  7  6  1  0
  7  8  2  0
  8  3  1  0
  9  1  1  0
 10 16  1  0
 10 11  1  0
 11  9  1  0
 12 11  1  0
 13 14  1  0
 13 12  1  0
 14 15  1  0
 15 10  1  0
 15 17  1  0
  1 18  1  0
  1 19  1  0
  4 20  1  0
  5 21  1  0
  7 22  1  0
 10 23  1  1
 11 24  1  1
 12 25  1  0
 12 26  1  0
 14 27  1  0
 14 28  1  0
 15 29  1  6
 16 30  1  0
 31 32  1  0
 32 33  2  0
 33 34  1  0
 34 35  1  0
 34 36  2  0
 36 37  1  0
 37 38  1  0
 37 39  2  0
 39 40  1  0
 39 32  1  0
 36 41  1  0
 17 33  1  0
M  ISO  8  18   8  19   8  20  14  21  14  22  14  23  13  24  13  25  13
M  ISO  7  26  13  27  13  28  13  29  13  30   3  35  16  40  15
M  END
>  <DihAtoms>  (1) 
14,16,32,31

>  <DihDeg>  (1) 
-179.98220392559693

$$$$
