
     RDKit          3D

 41 44  0  0  0  0  0  0  0  0999 V2000
   35.4979   28.9171   49.1477 C   0  0  0  0  0  0  0  0  0  0  0  0
   35.4250   30.0953   48.3997 C   0  0  0  0  0  0  0  0  0  0  0  0
   34.3315   30.2536   47.5553 C   0  0  0  0  0  0  0  0  0  0  0  0
   33.3997   29.2593   47.5045 N   0  0  0  0  0  0  0  0  0  0  0  0
   33.4947   28.1451   48.2294 C   0  0  0  0  0  0  0  0  0  0  0  0
   34.5561   27.9610   49.0674 N   0  0  0  0  0  0  0  0  0  0  0  0
   36.4634   31.0541   48.5420 N   0  0  0  0  0  0  0  0  0  0  0  0
   36.6344   31.7590   49.6562 C   0  0  0  0  0  0  0  0  0  0  0  0
   37.6741   32.6790   49.7190 C   0  0  0  0  0  0  0  0  0  0  0  0
   38.4496   32.7864   48.6114 C   0  0  0  0  0  0  0  0  0  0  0  0
   39.3968   33.6248   48.6690 O   0  0  0  0  0  0  0  0  0  0  0  0
   38.3095   32.0991   47.4796 N   0  0  0  0  0  0  0  0  0  0  0  0
   37.2829   31.2055   47.4472 C   0  0  0  0  0  0  0  0  0  0  0  0
   37.1350   30.5414   46.3749 O   0  0  0  0  0  0  0  0  0  0  0  0
   32.5308   27.1413   48.1608 O   0  0  0  0  0  0  0  0  0  0  0  0
   31.2069   27.5659   48.2811 C   0  0  0  0  0  0  0  0  0  0  0  0
   30.7719   27.7244   49.5780 C   0  0  0  0  0  0  0  0  0  0  0  0
   29.4846   28.1399   49.8379 C   0  0  0  0  0  0  0  0  0  0  0  0
   28.6259   28.3984   48.7571 C   0  0  0  0  0  0  0  0  0  0  0  0
   29.0753   28.2353   47.4680 C   0  0  0  0  0  0  0  0  0  0  0  0
   30.3530   27.8230   47.2386 C   0  0  0  0  0  0  0  0  0  0  0  0
   36.3232   28.7256   49.8279 H   0  0  0  0  0  0  0  0  0  0  0  0
   34.2824   31.1585   46.9857 H   0  0  0  0  0  0  0  0  0  0  0  0
   35.9828   31.6302   50.5101 H   0  0  0  0  0  0  0  0  0  0  0  0
   37.8540   33.2802   50.6112 H   0  0  0  0  0  0  0  0  0  0  0  0
   38.9349   32.2186   46.6520 H   0  0  0  0  0  0  0  0  0  0  0  0
   31.4019   27.5359   50.4352 H   0  0  0  0  0  0  0  0  0  0  0  0
   29.1549   28.2608   50.8762 H   0  0  0  0  0  0  0  0  0  0  0  0
   27.6275   28.7214   48.9936 H   0  0  0  0  0  0  0  0  0  0  0  0
   28.3683   28.4498   46.6878 H   0  0  0  0  0  0  0  0  0  0  0  0
   29.2353   25.3327   46.1692 Cl  0  0  0  0  0  0  0  0  0  0  0  0
   30.3049   26.4606   45.3484 C   0  0  0  0  0  0  0  0  0  0  0  0
   30.8318   27.6443   45.8736 C   0  0  0  0  0  0  0  0  0  0  0  0
   31.6588   28.4077   45.0777 C   0  0  0  0  0  0  0  0  0  0  0  0
   31.9899   29.2882   45.6065 H   0  0  0  0  0  0  0  0  0  0  0  0
   31.9467   27.9941   43.7955 C   0  0  0  0  0  0  0  0  0  0  0  0
   31.4395   26.8368   43.2638 C   0  0  0  0  0  0  0  0  0  0  0  0
   31.9038   26.4540   41.6166 Cl  0  0  0  0  0  0  0  0  0  0  0  0
   30.6133   26.0640   44.0435 C   0  0  0  0  0  0  0  0  0  0  0  0
   30.2447   25.1644   43.5706 H   0  0  0  0  0  0  0  0  0  0  0  0
   32.6028   28.6570   43.2491 H   0  0  0  0  0  0  0  0  0  0  0  0
  2  7  1  0
  2  1  2  0
  3  2  1  0
  4  3  2  0
  4  5  1  0
  5  6  2  0
  6  1  1  0
  7  8  1  0
  8  9  2  0
 10 11  2  0
 10  9  1  0
 12 10  1  0
 13 12  1  0
 13  7  1  0
 14 13  2  0
 15  5  1  0
 15 16  1  0
 16 17  2  0
 17 18  1  0
 19 18  2  0
 20 19  1  0
 21 20  2  0
 21 16  1  0
  1 22  1  0
  3 23  1  0
  8 24  1  0
  9 25  1  0
 12 26  1  0
 17 27  1  0
 18 28  1  0
 19 29  1  0
 20 30  1  0
 31 32  1  0
 32 33  2  0
 33 34  1  0
 34 35  1  0
 34 36  2  0
 36 37  1  0
 37 38  1  0
 37 39  2  0
 39 40  1  0
 39 32  1  0
 36 41  1  0
 21 33  1  0
M  ISO  8  22  14  23  14  24  14  25  14  26   9  27  14  28  14  29  14
M  ISO  3  30  14  35  16  40  15
M  END
>  <DihAtoms>  (1) 
19,20,32,31

>  <DihDeg>  (1) 
-90.73632638918234

$$$$
