
 OpenBabel03262522153D

 46 49  0  0  1  0  0  0  0  0999 V2000
   39.6850   32.8210   43.8210 C   0  0  0  0  0  0  0  0  0  0  0  0
   39.8350   33.7050   43.1490 H   0  0  0  0  0  0  0  0  0  0  0  0
   38.6160   32.7400   44.0410 H   0  0  0  0  0  0  0  0  0  0  0  0
   38.8380   29.7850   42.2010 C   0  0  1  0  0  0  0  0  0  0  0  0
   39.0550   31.2740   41.9730 C   0  0  0  0  0  0  0  0  0  0  0  0
   40.0680   31.5740   43.0540 C   0  0  2  0  0  0  0  0  0  0  0  0
   40.1890   30.4830   43.8590 O   0  0  0  0  0  0  0  0  0  0  0  0
   39.0530   29.7010   43.7040 C   0  0  0  0  0  0  0  0  0  0  0  0
   39.6050   29.2140   41.6500 H   0  0  0  0  0  0  0  0  0  0  0  0
   39.5280   31.4450   40.9780 H   0  0  0  0  0  0  0  0  0  0  0  0
   38.1310   31.8520   42.1370 H   0  0  0  0  0  0  0  0  0  0  0  0
   41.0650   31.7750   42.5950 H   0  0  0  0  0  0  0  0  0  0  0  0
   38.1600   30.1930   44.1560 H   0  0  0  0  0  0  0  0  0  0  0  0
   39.2060   28.6710   44.0460 H   0  0  0  0  0  0  0  0  0  0  0  0
   37.5580   29.4060   41.8500 O   0  0  0  0  0  0  0  0  0  0  0  0
   35.4990   30.8770   43.3050 Cl  0  0  0  0  0  0  0  0  0  0  0  0
   35.6610   29.1380   43.2320 C   0  0  0  0  0  0  0  0  0  0  0  0
   36.6890   28.5880   42.5020 C   0  0  0  0  0  0  0  0  0  0  0  0
   36.7430   27.2180   42.4980 C   0  0  0  0  0  0  0  0  0  0  0  0
   37.5190   26.7200   41.9470 H   0  0  0  0  0  0  0  0  0  0  0  0
   35.8490   26.4370   43.1670 C   0  0  0  0  0  3  0  0  0  0  0  0
   34.8340   27.0330   43.8870 C   0  0  0  0  0  0  0  0  0  0  0  0
   33.6680   26.0600   44.7590 Cl  0  0  0  0  0  0  0  0  0  0  0  0
   34.7370   28.4060   43.9220 C   0  0  0  0  0  0  0  0  0  0  0  0
   33.9370   28.8830   44.4900 H   0  0  0  0  0  0  0  0  0  0  0  0
   40.7500   32.9170   45.2810 S   0  0  0  0  0  0  0  0  0  0  0  0
   37.7830   31.7460   47.6630 C   0  0  0  0  0  0  0  0  0  0  0  0
   37.9240   32.5670   48.7910 C   0  0  0  0  0  0  0  0  0  0  0  0
   38.9260   33.5120   48.8770 C   0  0  0  0  0  0  0  0  0  0  0  0
   39.7730   33.5980   47.7940 C   0  0  0  0  0  0  0  0  0  0  0  0
   39.6210   32.7940   46.7100 C   0  0  0  0  0  0  0  0  0  0  0  0
   38.6410   31.8650   46.6200 N   0  0  0  0  0  0  0  0  0  0  0  0
   37.2470   32.4840   49.6320 H   0  0  0  0  0  0  0  0  0  0  0  0
   39.0230   34.1410   49.7560 H   0  0  0  0  0  0  0  0  0  0  0  0
   40.5830   34.3160   47.7920 H   0  0  0  0  0  0  0  0  0  0  0  0
   36.7170   30.7930   47.6560 C   0  0  0  0  0  0  0  0  0  0  0  0
   36.2240   30.3930   46.6030 O   0  0  0  0  0  0  0  0  0  0  0  0
   37.0350   29.6360   49.8130 C   0  0  0  0  0  0  0  0  0  0  0  0
   36.1490   30.2380   48.8910 C   0  0  0  0  0  0  0  0  0  0  0  0
   34.7810   30.2810   49.1870 C   0  0  0  0  0  0  0  0  0  0  0  0
   34.3590   29.7330   50.3690 N   0  0  0  0  0  0  0  0  0  0  0  0
   35.2230   29.1660   51.2290 C   0  0  0  0  0  0  0  0  0  0  0  0
   36.5240   29.1210   50.9550 N   0  0  0  0  0  0  0  0  0  0  0  0
   38.0870   29.6200   49.5520 H   0  0  0  0  0  0  0  0  0  0  0  0
   34.1240   30.7360   48.4870 H   0  0  0  0  0  0  0  0  0  0  0  0
   34.9210   28.7250   52.1710 H   0  0  0  0  0  0  0  0  0  0  0  0
  1  3  1  0  0  0  0
  1 26  1  0  0  0  0
  2  1  1  0  0  0  0
  4  9  1  6  0  0  0
  4  8  1  0  0  0  0
  5 11  1  0  0  0  0
  5  4  1  0  0  0  0
  5  6  1  0  0  0  0
  6 12  1  6  0  0  0
  6  1  1  0  0  0  0
  6  7  1  0  0  0  0
  8  7  1  0  0  0  0
  8 14  1  0  0  0  0
  8 13  1  0  0  0  0
 10  5  1  0  0  0  0
 15  4  1  0  0  0  0
 15 18  1  0  0  0  0
 17 16  1  0  0  0  0
 17 24  1  0  0  0  0
 18 17  2  0  0  0  0
 19 18  1  0  0  0  0
 19 21  2  0  0  0  0
 20 19  1  0  0  0  0
 21 22  1  0  0  0  0
 22 24  2  0  0  0  0
 22 23  1  0  0  0  0
 24 25  1  0  0  0  0
 26 31  1  0  0  0  0
 27 28  1  0  0  0  0
 28 29  2  0  0  0  0
 28 33  1  0  0  0  0
 29 34  1  0  0  0  0
 30 29  1  0  0  0  0
 31 30  2  0  0  0  0
 32 31  1  0  0  0  0
 32 27  2  0  0  0  0
 35 30  1  0  0  0  0
 36 27  1  0  0  0  0
 36 39  1  0  0  0  0
 37 36  2  0  0  0  0
 38 43  1  0  0  0  0
 39 40  1  0  0  0  0
 39 38  2  0  0  0  0
 40 41  2  0  0  0  0
 41 42  1  0  0  0  0
 42 46  1  0  0  0  0
 43 42  2  0  0  0  0
 44 38  1  0  0  0  0
 45 40  1  0  0  0  0
M  END
>  <minimizedAffinity>
-5.44879818

>  <minimizedRMSD>
1.84558511

$$$$
