
     RDKit          3D

 33 35  0  0  0  0  0  0  0  0999 V2000
   38.4748   30.7926   49.8592 Cl  0  0  0  0  0  0  0  0  0  0  0  0
   37.0899   30.3494   48.8844 C   0  0  0  0  0  0  0  0  0  0  0  0
   37.0940   30.6190   47.5328 C   0  0  0  0  0  0  0  0  0  0  0  0
   36.0375   30.2910   46.7322 C   0  0  0  0  0  0  0  0  0  0  0  0
   34.9268   29.6739   47.2668 C   0  0  0  0  0  0  0  0  0  0  0  0
   34.8816   29.3886   48.6047 C   0  0  0  0  0  0  0  0  0  0  0  0
   33.5390   28.6118   49.4074 Cl  0  0  0  0  0  0  0  0  0  0  0  0
   35.9675   29.7371   49.3700 C   0  0  0  0  0  0  0  0  0  0  0  0
   39.6021   33.1588   46.6503 C   0  0  0  0  0  0  0  0  0  0  0  0
   40.4604   32.4865   45.7998 C   0  0  0  0  0  0  0  0  0  0  0  0
   40.1605   31.1180   45.5266 C   0  0  0  0  0  0  0  0  0  0  0  0
   39.0631   30.5721   46.1145 N   0  0  0  0  0  0  0  0  0  0  0  0
   38.2543   31.2760   46.9409 C   0  0  0  0  0  0  0  0  0  0  0  0
   38.5365   32.5705   47.2001 N   0  0  0  0  0  0  0  0  0  0  0  0
   35.9610   29.4647   50.8624 C   0  0  0  0  0  0  0  0  0  0  0  0
   36.0055   30.4857   45.6736 H   0  0  0  0  0  0  0  0  0  0  0  0
   34.0751   29.4025   46.6557 H   0  0  0  0  0  0  0  0  0  0  0  0
   39.8916   34.1758   46.8018 H   0  0  0  0  0  0  0  0  0  0  0  0
   41.3426   32.8029   45.2843 H   0  0  0  0  0  0  0  0  0  0  0  0
   40.6867   30.4171   44.9042 H   0  0  0  0  0  0  0  0  0  0  0  0
   36.3489   30.4082   51.3237 H   0  0  0  0  0  0  0  0  0  0  0  0
   34.9189   29.2679   51.1839 H   0  0  0  0  0  0  0  0  0  0  0  0
   37.1330   28.2093   48.4494 Cl  0  0  0  0  0  0  0  0  0  0  0  0
   37.3855   27.6875   50.1051 C   0  0  0  0  0  0  0  0  0  0  0  0
   36.8079   28.3148   51.1931 C   0  0  0  0  0  0  0  0  0  0  0  0
   37.0805   27.8128   52.4577 C   0  0  0  0  0  0  0  0  0  0  0  0
   36.5856   28.3739   53.2378 H   0  0  0  0  0  0  0  0  0  0  0  0
   37.9022   26.7201   52.6396 C   0  0  0  0  0  0  0  0  0  0  0  0
   38.4890   26.0786   51.5599 C   0  0  0  0  0  0  0  0  0  0  0  0
   39.5357   24.6875   51.8051 Cl  0  0  0  0  0  0  0  0  0  0  0  0
   38.2158   26.5804   50.3060 C   0  0  0  0  0  0  0  0  0  0  0  0
   38.6740   26.0872   49.4328 H   0  0  0  0  0  0  0  0  0  0  0  0
   38.0684   26.3893   53.6484 H   0  0  0  0  0  0  0  0  0  0  0  0
  2  8  2  0
  2  1  1  0
  3  2  1  0
  4  5  1  0
  4  3  2  0
  5  6  2  0
  6  8  1  0
  6  7  1  0
  8 15  1  0
  9 14  2  0
 10  9  1  0
 11 10  2  0
 11 12  1  0
 12 13  2  0
 13 14  1  0
 13  3  1  0
  4 16  1  0
  5 17  1  0
  9 18  1  0
 10 19  1  0
 11 20  1  0
 15 21  1  0
 15 22  1  0
 23 24  1  0
 24 25  2  0
 25 26  1  0
 26 27  1  0
 26 28  2  0
 28 29  1  0
 29 30  1  0
 29 31  2  0
 31 32  1  0
 31 24  1  0
 28 33  1  0
 15 25  1  0
M  ISO  8  16  14  17  14  18  14  19  14  20  14  21   8  22   8  27  16
M  ISO  1  32  15
M  END
>  <DihAtoms>  (1) 
7,14,24,23

>  <DihDeg>  (1) 
177.48539775330866

$$$$
