
 OpenBabel03262522133D

 34 36  0  0  0  0  0  0  0  0999 V2000
   37.7760   31.7470   47.6940 C   0  0  0  0  0  0  0  0  0  0  0  0
   37.9030   32.5380   48.8480 C   0  0  0  0  0  0  0  0  0  0  0  0
   38.8990   33.4780   48.9280 C   0  0  0  0  0  0  0  0  0  0  0  0
   39.7380   33.5900   47.8360 C   0  0  0  0  0  0  0  0  0  0  0  0
   39.5900   32.8120   46.7380 C   0  0  0  0  0  0  0  0  0  0  0  0
   38.6080   31.8600   46.6130 N   0  0  0  0  0  0  0  0  0  0  0  0
   37.2130   32.3990   49.6640 H   0  0  0  0  0  0  0  0  0  0  0  0
   38.9970   34.0770   49.8020 H   0  0  0  0  0  0  0  0  0  0  0  0
   40.5230   34.3320   47.9020 H   0  0  0  0  0  0  0  0  0  0  0  0
   36.6980   30.7770   47.6810 C   0  0  0  0  0  0  0  0  0  0  0  0
   36.2130   30.3880   46.6160 O   0  0  0  0  0  0  0  0  0  0  0  0
   37.0000   29.6150   49.8430 C   0  0  0  0  0  0  0  0  0  0  0  0
   36.1380   30.2180   48.9190 C   0  0  0  0  0  0  0  0  0  0  0  0
   34.7500   30.2830   49.1800 C   0  0  0  0  0  0  0  0  0  0  0  0
   34.3250   29.7290   50.3720 N   0  0  0  0  0  0  0  0  0  0  0  0
   35.1840   29.1560   51.2380 C   0  0  0  0  0  0  0  0  0  0  0  0
   36.4740   29.1040   50.9780 N   0  0  0  0  0  0  0  0  0  0  0  0
   38.0610   29.5460   49.6770 H   0  0  0  0  0  0  0  0  0  0  0  0
   34.1550   30.7530   48.4400 H   0  0  0  0  0  0  0  0  0  0  0  0
   34.6100   28.8020   52.0830 H   0  0  0  0  0  0  0  0  0  0  0  0
   40.6930   32.9710   45.3110 S   0  0  0  0  0  0  0  0  0  0  0  0
   39.6250   33.1130   43.8620 C   0  0  0  0  0  0  0  0  0  0  0  0
   38.5830   33.4230   44.1280 H   0  0  0  0  0  0  0  0  0  0  0  0
   39.9920   33.9660   43.2170 H   0  0  0  0  0  0  0  0  0  0  0  0
   37.5130   32.9980   41.6540 Cl  0  0  0  0  0  0  0  0  0  0  0  0
   38.6730   31.7280   41.9810 C   0  0  0  0  0  0  0  0  0  0  0  0
   39.5970   31.8970   43.0170 C   0  0  0  0  0  0  0  0  0  0  0  0
   40.4590   30.8390   43.1850 C   0  0  0  0  0  0  0  0  0  0  0  0
   41.1810   30.9870   44.0030 H   0  0  0  0  0  0  0  0  0  0  0  0
   40.5340   29.6550   42.4860 C   0  0  0  0  0  3  0  0  0  0  0  0
   39.5900   29.5340   41.4610 C   0  0  0  0  0  0  0  0  0  0  0  0
   39.6220   28.0510   40.5260 Cl  0  0  0  0  0  0  0  0  0  0  0  0
   38.6700   30.5590   41.2120 C   0  0  0  0  0  0  0  0  0  0  0  0
   37.9620   30.4100   40.4060 H   0  0  0  0  0  0  0  0  0  0  0  0
  1  2  1  0  0  0  0
  2  3  2  0  0  0  0
  2  7  1  0  0  0  0
  3  8  1  0  0  0  0
  4  9  1  0  0  0  0
  4  3  1  0  0  0  0
  5  4  2  0  0  0  0
  6  5  1  0  0  0  0
  6  1  2  0  0  0  0
 10  1  1  0  0  0  0
 10 13  1  0  0  0  0
 11 10  2  0  0  0  0
 12 17  1  0  0  0  0
 13 14  1  0  0  0  0
 13 12  2  0  0  0  0
 14 15  2  0  0  0  0
 15 16  1  0  0  0  0
 16 20  1  0  0  0  0
 17 16  2  0  0  0  0
 18 12  1  0  0  0  0
 19 14  1  0  0  0  0
 21  5  1  0  0  0  0
 22 23  1  0  0  0  0
 22 21  1  0  0  0  0
 24 22  1  0  0  0  0
 25 26  1  0  0  0  0
 26 27  1  0  0  0  0
 27 28  2  0  0  0  0
 27 22  1  0  0  0  0
 28 29  1  0  0  0  0
 30 28  1  0  0  0  0
 31 30  2  0  0  0  0
 32 31  1  0  0  0  0
 33 31  1  0  0  0  0
 33 26  2  0  0  0  0
 34 33  1  0  0  0  0
M  END
>  <minimizedAffinity>
-5.53051615

>  <minimizedRMSD>
1.45368218

$$$$
