REMARK  Name = 
REMARK  3 active torsions:
REMARK  status: ('A' for Active; 'I' for Inactive)
REMARK    1  A    between atoms: C_3  and  C_12
REMARK    2  A    between atoms: C_9  and  O_14
REMARK    3  A    between atoms: O_14  and  C_23
REMARK                            x       y       z     vdW  Elec       q    Type
REMARK                         _______ _______ _______ _____ _____    ______ ____
ROOT
ATOM      1  C   UNL     1      37.875  33.232  49.460  0.00  0.00    +0.000 A 
ATOM      2  C   UNL     1      38.897  33.264  48.492  0.00  0.00    +0.000 A 
ATOM      3  C   UNL     1      38.939  32.240  47.563  0.00  0.00    +0.000 A 
ATOM      4  N   UNL     1      37.990  31.262  47.641  0.00  0.00    +0.000 NA
ATOM      5  C   UNL     1      37.023  31.255  48.577  0.00  0.00    +0.000 A 
ATOM      6  N   UNL     1      36.955  32.256  49.510  0.00  0.00    +0.000 NA
ATOM      7  H   UNL     1      37.787  34.002  50.214  0.00  0.00    +0.000 HD
ATOM      8  H   UNL     1      39.718  32.249  46.812  0.00  0.00    +0.000 HD
ENDROOT
BRANCH   5  11
ATOM      9 BR   UNL     1      37.270  29.455  51.125  0.00  0.00    +0.000 Br
ATOM     10  C   UNL     1      35.995  29.324  49.712  0.00  0.00    +0.000 A 
ATOM     11  C   UNL     1      36.020  30.206  48.645  0.00  0.00    +0.000 A 
ATOM     12  C   UNL     1      35.062  30.040  47.666  0.00  0.00    +0.000 A 
ATOM     13  C   UNL     1      34.095  29.052  47.702  0.00  0.00    +0.000 A 
ATOM     14  C   UNL     1      34.109  28.188  48.796  0.00  0.00    +0.000 A 
ATOM     15  C   UNL     1      35.065  28.338  49.792  0.00  0.00    +0.000 A 
ATOM     16  H   UNL     1      35.121  30.749  46.856  0.00  0.00    +0.000 HD
ATOM     17  H   UNL     1      33.389  29.011  46.879  0.00  0.00    +0.000 HD
ATOM     18  H   UNL     1      33.353  27.415  48.824  0.00  0.00    +0.000 HD
ATOM     19  H   UNL     1      35.047  27.647  50.629  0.00  0.00    +0.000 HD
ENDBRANCH   5  11
BRANCH   2  20
ATOM     20  O   UNL     1      39.789  34.312  48.532  0.00  0.00    +0.000 OA
BRANCH  20  23
ATOM     21 CL   UNL     1      39.097  33.143  51.135  0.00  0.00    +0.000 Cl
ATOM     22  C   UNL     1      40.678  33.611  50.546  0.00  0.00    +0.000 A 
ATOM     23  C   UNL     1      40.938  34.162  49.298  0.00  0.00    +0.000 A 
ATOM     24  C   UNL     1      42.230  34.493  48.944  0.00  0.00    +0.000 A 
ATOM     25  H   UNL     1      42.338  34.915  47.956  0.00  0.00    +0.000 HD
ATOM     26  C   UNL     1      43.252  34.266  49.851  0.00  0.00    +0.000 A 
ATOM     27  C   UNL     1      43.022  33.722  51.095  0.00  0.00    +0.000 A 
ATOM     28 CL   UNL     1      44.326  33.456  52.197  0.00  0.00    +0.000 Cl
ATOM     29  C   UNL     1      41.716  33.396  51.433  0.00  0.00    +0.000 A 
ATOM     30  H   UNL     1      41.575  32.967  52.426  0.00  0.00    +0.000 HD
ENDBRANCH  20  23
ENDBRANCH   2  20
TORSDOF 3
