REMARK  Name = 
REMARK  3 active torsions:
REMARK  status: ('A' for Active; 'I' for Inactive)
REMARK    1  A    between atoms: C_1  and  C_7
REMARK    2  A    between atoms: C_3  and  C_12
REMARK    3  A    between atoms: N_10  and  C_22
REMARK                            x       y       z     vdW  Elec       q    Type
REMARK                         _______ _______ _______ _____ _____    ______ ____
ROOT
ATOM      1  C   UNL     1      39.101  31.107  45.902  0.00  0.00    +0.000 A 
ATOM      2  C   UNL     1      39.921  32.203  45.909  0.00  0.00    +0.000 A 
ATOM      3  C   UNL     1      40.938  32.033  44.969  0.00  0.00    +0.000 A 
ATOM      4  N   UNL     1      40.679  30.801  44.419  0.00  0.00    +0.000 N 
ATOM      5  N   UNL     1      39.614  30.280  44.970  0.00  0.00    +0.000 NA
ATOM      6  H   UNL     1      39.748  33.043  46.571  0.00  0.00    +0.000 HD
ATOM      7  H   UNL     1      41.699  32.785  44.812  0.00  0.00    +0.000 HD
ENDROOT
BRANCH   4  10
ATOM      8 CL   UNL     1      39.978  31.683  41.641  0.00  0.00    +0.000 Cl
ATOM      9  C   UNL     1      41.319  30.659  42.088  0.00  0.00    +0.000 A 
ATOM     10  C   UNL     1      41.549  30.315  43.404  0.00  0.00    +0.000 A 
ATOM     11  C   UNL     1      42.626  29.501  43.704  0.00  0.00    +0.000 A 
ATOM     12  H   UNL     1      42.742  29.275  44.753  0.00  0.00    +0.000 HD
ATOM     13  C   UNL     1      43.511  28.996  42.752  0.00  0.00    +0.000 A 
ATOM     14  C   UNL     1      43.270  29.346  41.453  0.00  0.00    +0.000 A 
ATOM     15 CL   UNL     1      44.351  28.736  40.228  0.00  0.00    +0.000 Cl
ATOM     16  C   UNL     1      42.201  30.157  41.129  0.00  0.00    +0.000 A 
ATOM     17  H   UNL     1      42.077  30.388  40.090  0.00  0.00    +0.000 HD
ENDBRANCH   4  10
BRANCH   1  18
ATOM     18  C   UNL     1      37.915  30.872  46.728  0.00  0.00    +0.000 A 
ATOM     19  C   UNL     1      38.043  31.034  48.133  0.00  0.00    +0.000 A 
ATOM     20  C   UNL     1      36.926  30.814  48.934  0.00  0.00    +0.000 A 
ATOM     21  N   UNL     1      35.777  30.457  48.317  0.00  0.00    +0.000 NA
ATOM     22  C   UNL     1      35.668  30.306  46.977  0.00  0.00    +0.000 A 
ATOM     23  N   UNL     1      36.750  30.519  46.206  0.00  0.00    +0.000 NA
ATOM     24  H   UNL     1      39.014  31.324  48.524  0.00  0.00    +0.000 HD
ATOM     25  H   UNL     1      34.712  30.018  46.566  0.00  0.00    +0.000 HD
BRANCH  20  26
ATOM     26  C   UNL     1      37.054  30.982  50.407  0.00  0.00    +0.000 C 
ATOM     27  F   UNL     1      36.552  32.245  50.686  0.00  0.00    +0.000 F 
ATOM     28  F   UNL     1      36.311  30.047  51.107  0.00  0.00    +0.000 F 
ATOM     29  F   UNL     1      38.376  30.953  50.827  0.00  0.00    +0.000 F 
ENDBRANCH  20  26
ENDBRANCH   1  18
TORSDOF 3
