
 OpenBabel03272510013D

 22 23  0  0  0  0  0  0  0  0999 V2000
   37.5630   30.2980   51.2700 C   0  0  0  0  0  0  0  0  0  0  0  0
   38.2030   30.9160   50.1720 C   0  0  0  0  0  0  0  0  0  0  0  0
   37.5330   30.9560   48.9600 C   0  0  0  0  0  0  0  0  0  0  0  0
   36.3020   30.3940   48.9290 N   0  0  0  0  0  0  0  0  0  0  0  0
   35.7080   29.8140   49.9740 C   0  0  0  0  0  0  0  0  0  0  0  0
   36.3420   29.7660   51.1500 N   0  0  0  0  0  0  0  0  0  0  0  0
   38.1090   30.2820   52.1940 H   0  0  0  0  0  0  0  0  0  0  0  0
   39.1760   31.3380   50.2700 H   0  0  0  0  0  0  0  0  0  0  0  0
   36.0960   30.2620   46.3660 Cl  0  0  0  0  0  0  0  0  0  0  0  0
   37.5100   31.3100   46.5420 C   0  0  0  0  0  0  0  0  0  0  0  0
   38.0940   31.5660   47.7640 C   0  0  0  0  0  0  0  0  0  0  0  0
   39.1860   32.3950   47.7650 C   0  0  0  0  0  0  0  0  0  0  0  0
   39.6830   32.6300   48.6950 H   0  0  0  0  0  0  0  0  0  0  0  0
   39.6500   32.9290   46.5760 C   0  0  0  0  0  0  0  0  0  0  0  0
   39.0690   32.6720   45.3730 C   0  0  0  0  0  0  0  0  0  0  0  0
   39.7750   33.4260   43.9540 Cl  0  0  0  0  0  0  0  0  0  0  0  0
   37.9560   31.8290   45.3580 C   0  0  0  0  0  0  0  0  0  0  0  0
   37.5150   31.6440   44.3880 H   0  0  0  0  0  0  0  0  0  0  0  0
   34.3580   29.2450   49.7680 C   0  0  0  0  0  0  0  0  0  0  0  0
   33.4620   29.6320   50.7640 F   0  0  0  0  0  0  0  0  0  0  0  0
   33.7960   29.6620   48.5660 F   0  0  0  0  0  0  0  0  0  0  0  0
   34.3280   27.8670   49.7550 F   0  0  0  0  0  0  0  0  0  0  0  0
  1  7  1  0  0  0  0
  2  8  1  0  0  0  0
  2  1  2  0  0  0  0
  3  2  1  0  0  0  0
  4  3  2  0  0  0  0
  4  5  1  0  0  0  0
  5  6  2  0  0  0  0
  6  1  1  0  0  0  0
  9 10  1  0  0  0  0
 10 11  1  0  0  0  0
 11 12  2  0  0  0  0
 11  3  1  0  0  0  0
 12 13  1  0  0  0  0
 14 12  1  0  0  0  0
 15 14  2  0  0  0  0
 16 15  1  0  0  0  0
 17 15  1  0  0  0  0
 17 10  2  0  0  0  0
 18 17  1  0  0  0  0
 19  5  1  0  0  0  0
 19 20  1  0  0  0  0
 21 19  1  0  0  0  0
 22 19  1  0  0  0  0
M  END
>  <minimizedAffinity>
-6.29559374

>  <minimizedRMSD>
2.00171185

$$$$
