
 OpenBabel03272503403D

 42 45  0  0  1  0  0  0  0  0999 V2000
   39.7810   31.5230   41.7160 C   0  0  2  0  0  0  0  0  0  0  0  0
   39.3840   32.6150   42.7370 C   0  0  1  0  0  0  0  0  0  0  0  0
   38.1320   33.1020   42.0830 C   0  0  0  0  0  0  0  0  0  0  0  0
   38.3320   33.0560   40.7250 O   0  0  0  0  0  0  0  0  0  0  0  0
   39.4550   32.3390   40.4460 C   0  0  0  0  0  0  0  0  0  0  0  0
   40.8460   31.3110   41.7760 H   0  0  0  0  0  0  0  0  0  0  0  0
   40.1270   33.4130   42.7880 H   0  0  0  0  0  0  0  0  0  0  0  0
   37.2760   32.4490   42.3730 H   0  0  0  0  0  0  0  0  0  0  0  0
   37.8880   34.1080   42.4470 H   0  0  0  0  0  0  0  0  0  0  0  0
   39.2510   31.6410   39.6070 H   0  0  0  0  0  0  0  0  0  0  0  0
   40.3030   33.0180   40.1960 H   0  0  0  0  0  0  0  0  0  0  0  0
   38.2480   31.2530   45.8680 C   0  0  0  0  0  0  0  0  0  0  0  0
   39.5940   31.0730   46.0000 C   0  0  0  0  0  0  0  0  0  0  0  0
   40.1410   31.5750   44.8200 C   0  0  0  0  0  0  0  0  0  0  0  0
   39.1570   32.0300   44.0330 N   0  0  0  0  0  0  0  0  0  0  0  0
   38.0020   31.8350   44.6710 N   0  0  0  0  0  0  0  0  0  0  0  0
   40.1110   30.6280   46.8530 H   0  0  0  0  0  0  0  0  0  0  0  0
   41.2330   31.5380   44.6900 H   0  0  0  0  0  0  0  0  0  0  0  0
   36.4420   30.6050   49.0860 C   0  0  0  0  0  0  0  0  0  0  0  0
   37.4380   30.9720   48.2020 C   0  0  0  0  0  0  0  0  0  0  0  0
   37.2480   30.8870   46.8430 C   0  0  0  0  0  0  0  0  0  0  0  0
   36.0450   30.4310   46.4270 N   0  0  0  0  0  0  0  0  0  0  0  0
   35.0690   30.0720   47.3110 C   0  0  0  0  0  0  0  0  0  0  0  0
   35.2510   30.1540   48.6100 N   0  0  0  0  0  0  0  0  0  0  0  0
   38.4240   31.3450   48.4970 H   0  0  0  0  0  0  0  0  0  0  0  0
   34.1070   29.7070   46.9510 H   0  0  0  0  0  0  0  0  0  0  0  0
   36.8260   30.7630   50.4230 O   0  0  0  0  0  0  0  0  0  0  0  0
   36.8770   29.6920   51.3380 C   0  0  0  0  0  0  0  0  0  0  0  0
   35.6150   29.2240   51.6730 F   0  0  0  0  0  0  0  0  0  0  0  0
   37.5630   30.0930   52.4500 F   0  0  0  0  0  0  0  0  0  0  0  0
   37.6040   28.6680   50.7580 F   0  0  0  0  0  0  0  0  0  0  0  0
   38.8740   30.5230   41.8520 O   0  0  0  0  0  0  0  0  0  0  0  0
   41.5160   28.8900   41.9850 Cl  0  0  0  0  0  0  0  0  0  0  0  0
   39.9200   28.2720   42.2970 C   0  0  0  0  0  0  0  0  0  0  0  0
   38.9260   29.2140   42.1670 C   0  0  0  0  0  0  0  0  0  0  0  0
   37.6310   28.7290   42.4170 C   0  0  0  0  0  0  0  0  0  0  0  0
   36.6870   29.2970   42.3740 H   0  0  0  0  0  0  0  0  0  0  0  0
   37.3690   27.4170   42.7640 C   0  0  0  0  0  3  0  0  0  0  0  0
   38.4270   26.5370   42.8720 C   0  0  0  0  0  0  0  0  0  0  0  0
   38.2070   24.8590   43.3050 Cl  0  0  0  0  0  0  0  0  0  0  0  0
   39.7130   26.9670   42.6360 C   0  0  0  0  0  0  0  0  0  0  0  0
   40.5820   26.3360   42.7040 H   0  0  0  0  0  0  0  0  0  0  0  0
  1  6  1  1  0  0  0
  1 32  1  0  0  0  0
  1  2  1  0  0  0  0
  2  7  1  1  0  0  0
  2 15  1  0  0  0  0
  3  8  1  0  0  0  0
  3  9  1  0  0  0  0
  3  2  1  0  0  0  0
  4  3  1  0  0  0  0
  5  4  1  0  0  0  0
  5  1  1  0  0  0  0
 10  5  1  0  0  0  0
 11  5  1  0  0  0  0
 12 13  1  0  0  0  0
 12 21  1  0  0  0  0
 13 17  1  0  0  0  0
 14 13  2  0  0  0  0
 15 16  1  0  0  0  0
 15 14  1  0  0  0  0
 16 12  2  0  0  0  0
 18 14  1  0  0  0  0
 19 27  1  0  0  0  0
 20 25  1  0  0  0  0
 20 19  2  0  0  0  0
 21 20  1  0  0  0  0
 22 21  2  0  0  0  0
 22 23  1  0  0  0  0
 23 24  2  0  0  0  0
 24 19  1  0  0  0  0
 26 23  1  0  0  0  0
 27 28  1  0  0  0  0
 28 29  1  0  0  0  0
 28 30  1  0  0  0  0
 31 28  1  0  0  0  0
 32 35  1  0  0  0  0
 33 34  1  0  0  0  0
 34 41  1  0  0  0  0
 35 34  2  0  0  0  0
 35 36  1  0  0  0  0
 36 38  2  0  0  0  0
 37 36  1  0  0  0  0
 38 39  1  0  0  0  0
 39 40  1  0  0  0  0
 41 42  1  0  0  0  0
 41 39  2  0  0  0  0
M  END
>  <minimizedAffinity>
-6.59439278

>  <minimizedRMSD>
0.871165872

$$$$
