REMARK  Name = 
REMARK  5 active torsions:
REMARK  status: ('A' for Active; 'I' for Inactive)
REMARK    1  A    between atoms: C_1  and  C_7
REMARK    2  A    between atoms: C_5  and  S_15
REMARK    3  A    between atoms: C_7  and  C_10
REMARK    4  A    between atoms: S_15  and  C_16
REMARK    5  A    between atoms: C_16  and  C_27
REMARK                            x       y       z     vdW  Elec       q    Type
REMARK                         _______ _______ _______ _____ _____    ______ ____
ROOT
ATOM      1  C   UNL     1      37.744  31.635  47.479  0.00  0.00    +0.000 A 
ATOM      2  C   UNL     1      37.950  32.461  48.596  0.00  0.00    +0.000 A 
ATOM      3  C   UNL     1      38.990  33.355  48.604  0.00  0.00    +0.000 A 
ATOM      4  C   UNL     1      39.792  33.387  47.480  0.00  0.00    +0.000 A 
ATOM      5  C   UNL     1      39.567  32.577  46.418  0.00  0.00    +0.000 A 
ATOM      6  N   UNL     1      38.539  31.668  46.365  0.00  0.00    +0.000 NA
ATOM      7  H   UNL     1      37.285  32.384  49.441  0.00  0.00    +0.000 HD
ATOM      8  H   UNL     1      39.148  33.981  49.451  0.00  0.00    +0.000 HD
ATOM      9  H   UNL     1      40.612  34.093  47.489  0.00  0.00    +0.000 HD
ENDROOT
BRANCH   1  10
ATOM     10  C   UNL     1      36.623  30.717  47.541  0.00  0.00    +0.000 C 
ATOM     11  O   UNL     1      36.053  30.346  46.512  0.00  0.00    +0.000 OA
BRANCH  10  13
ATOM     12  C   UNL     1      37.022  29.637  49.730  0.00  0.00    +0.000 A 
ATOM     13  C   UNL     1      36.117  30.190  48.817  0.00  0.00    +0.000 A 
ATOM     14  C   UNL     1      34.738  30.238  49.124  0.00  0.00    +0.000 A 
ATOM     15  N   UNL     1      34.365  29.717  50.348  0.00  0.00    +0.000 NA
ATOM     16  C   UNL     1      35.265  29.192  51.203  0.00  0.00    +0.000 A 
ATOM     17  N   UNL     1      36.546  29.156  50.900  0.00  0.00    +0.000 NA
ATOM     18  H   UNL     1      38.078  29.583  49.530  0.00  0.00    +0.000 HD
ATOM     19  H   UNL     1      34.108  30.670  48.389  0.00  0.00    +0.000 HD
ATOM     20  H   UNL     1      34.728  28.857  52.079  0.00  0.00    +0.000 HD
ENDBRANCH  10  13
ENDBRANCH   1  10
BRANCH   5  21
ATOM     21  S   UNL     1      40.622  32.631  44.948  0.00  0.00    +0.000 S 
BRANCH  21  22
ATOM     22  C   UNL     1      39.524  32.955  43.552  0.00  0.00    +0.000 C 
ATOM     23  H   UNL     1      38.964  33.917  43.663  0.00  0.00    +0.000 HD
ATOM     24  H   UNL     1      40.149  33.125  42.625  0.00  0.00    +0.000 HD
BRANCH  22  27
ATOM     25 CL   UNL     1      40.465  30.119  44.202  0.00  0.00    +0.000 Cl
ATOM     26  C   UNL     1      38.907  30.510  43.505  0.00  0.00    +0.000 A 
ATOM     27  C   UNL     1      38.586  31.848  43.258  0.00  0.00    +0.000 A 
ATOM     28  C   UNL     1      37.339  32.039  42.711  0.00  0.00    +0.000 A 
ATOM     29  H   UNL     1      37.099  33.097  42.523  0.00  0.00    +0.000 HD
ATOM     30  C   UNL     1      36.381  31.108  42.378  0.00  0.00    +0.000 A 
ATOM     31  C   UNL     1      36.749  29.785  42.644  0.00  0.00    +0.000 A 
ATOM     32 CL   UNL     1      35.579  28.542  42.245  0.00  0.00    +0.000 Cl
ATOM     33  C   UNL     1      37.999  29.490  43.202  0.00  0.00    +0.000 A 
ATOM     34  H   UNL     1      38.229  28.448  43.386  0.00  0.00    +0.000 HD
ENDBRANCH  22  27
ENDBRANCH  21  22
ENDBRANCH   5  21
TORSDOF 5
