
 OpenBabel03272501553D

 25 26  0  0  0  0  0  0  0  0999 V2000
   34.4640   28.4750   48.0930 C   0  0  0  0  0  0  0  0  0  0  0  0
   34.9780   27.6640   47.5390 H   0  0  0  0  0  0  0  0  0  0  0  0
   34.8910   29.4460   47.7160 H   0  0  0  0  0  0  0  0  0  0  0  0
   33.2910   29.6120   45.4980 Cl  0  0  0  0  0  0  0  0  0  0  0  0
   32.3480   28.8170   46.7430 C   0  0  0  0  0  0  0  0  0  0  0  0
   33.0270   28.3620   47.8460 C   0  0  0  0  0  0  0  0  0  0  0  0
   32.1970   27.7400   48.7880 C   0  0  0  0  0  0  0  0  0  0  0  0
   32.7020   27.3610   49.6910 H   0  0  0  0  0  0  0  0  0  0  0  0
   30.8280   27.5710   48.6780 C   0  0  0  0  0  0  0  0  0  0  0  0
   30.2190   28.0560   47.5360 C   0  0  0  0  0  0  0  0  0  0  0  0
   28.4900   27.8020   47.4780 Cl  0  0  0  0  0  0  0  0  0  0  0  0
   30.9810   28.6780   46.5730 C   0  0  0  0  0  0  0  0  0  0  0  0
   30.4520   29.0360   45.7050 H   0  0  0  0  0  0  0  0  0  0  0  0
   34.8550   28.3000   49.5350 C   0  0  0  0  0  0  0  0  0  0  0  0
   33.9980   28.7560   50.1170 H   0  0  0  0  0  0  0  0  0  0  0  0
   35.0000   27.2490   49.8200 H   0  0  0  0  0  0  0  0  0  0  0  0
   37.3470   30.2400   51.4390 C   0  0  0  0  0  0  0  0  0  0  0  0
   38.1230   30.7830   50.4150 C   0  0  0  0  0  0  0  0  0  0  0  0
   37.7940   30.4880   49.0590 C   0  0  0  0  0  0  0  0  0  0  0  0
   36.7220   29.6800   48.8500 N   0  0  0  0  0  0  0  0  0  0  0  0
   36.0060   29.1820   49.8810 C   0  0  0  0  0  0  0  0  0  0  0  0
   36.3110   29.4560   51.1590 N   0  0  0  0  0  0  0  0  0  0  0  0
   37.6990   30.5380   52.4200 H   0  0  0  0  0  0  0  0  0  0  0  0
   38.9950   31.4380   50.5070 H   0  0  0  0  0  0  0  0  0  0  0  0
   38.3150   30.8470   48.1910 H   0  0  0  0  0  0  0  0  0  0  0  0
  1 14  1  0  0  0  0
  2  1  1  0  0  0  0
  3  1  1  0  0  0  0
  4  5  1  0  0  0  0
  5  6  1  0  0  0  0
  6  1  1  0  0  0  0
  6  7  2  0  0  0  0
  7  8  1  0  0  0  0
  9  7  1  0  0  0  0
 10  9  2  0  0  0  0
 11 10  1  0  0  0  0
 12  5  2  0  0  0  0
 12 10  1  0  0  0  0
 13 12  1  0  0  0  0
 14 16  1  0  0  0  0
 14 21  1  0  0  0  0
 14 15  1  0  0  0  0
 17 23  1  0  0  0  0
 18 24  1  0  0  0  0
 18 17  2  0  0  0  0
 19 18  1  0  0  0  0
 20 19  2  0  0  0  0
 20 21  1  0  0  0  0
 21 22  2  0  0  0  0
 22 17  1  0  0  0  0
 25 19  1  0  0  0  0
M  END
>  <minimizedAffinity>
-4.81762838

>  <minimizedRMSD>
1.50210381

$$$$
