
     RDKit          3D

 35 37  0  0  0  0  0  0  0  0999 V2000
   36.9874   31.5681   48.6688 C   0  0  1  0  0  0  0  0  0  0  0  0
   36.2153   30.9192   47.6357 C   0  0  0  0  0  0  0  0  0  0  0  0
   37.1764   30.1334   48.4651 C   0  0  2  0  0  0  0  0  0  0  0  0
   38.1491   32.4589   48.3262 C   0  0  0  0  0  0  0  0  0  0  0  0
   38.5300   33.3793   49.3245 C   0  0  0  0  0  0  0  0  0  0  0  0
   39.5962   34.1822   48.9881 C   0  0  0  0  0  0  0  0  0  0  0  0
   40.1971   34.0538   47.7739 N   0  0  0  0  0  0  0  0  0  0  0  0
   39.7950   33.1488   46.8383 C   0  0  0  0  0  0  0  0  0  0  0  0
   38.7349   32.3327   47.1400 N   0  0  0  0  0  0  0  0  0  0  0  0
   40.4085   33.0011   45.5863 N   0  0  0  0  0  0  0  0  0  0  0  0
   36.5915   29.3082   49.4386 O   0  0  0  0  0  0  0  0  0  0  0  0
   34.6329   27.6624   49.6938 O   0  0  0  0  0  0  0  0  0  0  0  0
   35.0158   28.9502   49.0308 P   0  0  1  0  0  0  0  0  0  0  0  0
   33.9723   30.1490   49.7327 O   0  0  0  0  0  0  0  0  0  0  0  0
   34.8504   28.9597   47.3711 O   0  0  0  0  0  0  0  0  0  0  0  0
   36.5425   31.8377   49.6890 H   0  0  0  0  0  0  0  0  0  0  0  0
   36.5295   31.1212   46.5899 H   0  0  0  0  0  0  0  0  0  0  0  0
   35.1855   31.1772   47.7897 H   0  0  0  0  0  0  0  0  0  0  0  0
   37.8672   29.6064   47.8322 H   0  0  0  0  0  0  0  0  0  0  0  0
   38.0695   33.4875   50.2733 H   0  0  0  0  0  0  0  0  0  0  0  0
   39.9586   34.9134   49.6823 H   0  0  0  0  0  0  0  0  0  0  0  0
   40.5835   33.8813   45.0680 H   0  0  0  0  0  0  0  0  0  0  0  0
   40.6367   32.0205   45.2826 H   0  0  0  0  0  0  0  0  0  0  0  0
   34.4255   30.5777   50.4898 H   0  0  0  0  0  0  0  0  0  0  0  0
   35.0608   26.2132   48.2942 Cl  0  0  0  0  0  0  0  0  0  0  0  0
   35.6963   26.9132   46.7997 C   0  0  0  0  0  0  0  0  0  0  0  0
   35.5444   28.2571   46.4375 C   0  0  0  0  0  0  0  0  0  0  0  0
   36.1016   28.6457   45.2344 C   0  0  0  0  0  0  0  0  0  0  0  0
   35.9408   29.6968   45.0278 H   0  0  0  0  0  0  0  0  0  0  0  0
   36.7749   27.7671   44.4224 C   0  0  0  0  0  0  0  0  0  0  0  0
   36.9064   26.4519   44.8081 C   0  0  0  0  0  0  0  0  0  0  0  0
   37.7673   25.3559   43.7571 Cl  0  0  0  0  0  0  0  0  0  0  0  0
   36.3766   26.0116   45.9859 C   0  0  0  0  0  0  0  0  0  0  0  0
   36.5038   24.9700   46.2492 H   0  0  0  0  0  0  0  0  0  0  0  0
   37.1758   28.1638   43.5009 H   0  0  0  0  0  0  0  0  0  0  0  0
  2  3  1  0
  2  1  1  0
  3  1  1  0
  3 11  1  0
  4  1  1  0
  4  5  2  0
  6  5  1  0
  7  6  2  0
  8  9  2  0
  8  7  1  0
  9  4  1  0
 10  8  1  0
 13 11  1  6
 13 12  2  0
 13 14  1  0
 15 13  1  0
  1 16  1  1
  2 17  1  0
  2 18  1  0
  3 19  1  6
  5 20  1  0
  6 21  1  0
 10 22  1  0
 10 23  1  0
 14 24  1  0
 25 26  1  0
 26 27  2  0
 27 28  1  0
 28 29  1  0
 28 30  2  0
 30 31  1  0
 31 32  1  0
 31 33  2  0
 33 34  1  0
 33 26  1  0
 30 35  1  0
 15 27  1  0
M  ISO  8  16  13  17  13  18  13  19  13  20  14  21  14  24   3  29  16
M  ISO  1  34  15
M  END
>  <DihAtoms>  (1) 
12,14,26,25

>  <DihDeg>  (1) 
-179.9886516404609

$$$$
