REMARK  Name = 
REMARK  2 active torsions:
REMARK  status: ('A' for Active; 'I' for Inactive)
REMARK    1  A    between atoms: C_3  and  C_7
REMARK    2  A    between atoms: C_7  and  C_14
REMARK                            x       y       z     vdW  Elec       q    Type
REMARK                         _______ _______ _______ _____ _____    ______ ____
ROOT
ATOM      1  C   UNL     1      38.205  30.933  47.797  0.00  0.00    +0.000 C 
ATOM      2  O   UNL     1      39.026  31.875  47.821  0.00  0.00    +0.000 OA
ENDROOT
BRANCH   1   5
ATOM      3 CL   UNL     1      40.118  31.632  45.578  0.00  0.00    +0.000 Cl
ATOM      4  C   UNL     1      38.705  30.596  45.421  0.00  0.00    +0.000 A 
ATOM      5  C   UNL     1      37.889  30.337  46.504  0.00  0.00    +0.000 A 
ATOM      6  C   UNL     1      36.814  29.510  46.251  0.00  0.00    +0.000 A 
ATOM      7  H   UNL     1      36.154  29.285  47.074  0.00  0.00    +0.000 HD
ATOM      8  C   UNL     1      36.566  28.976  45.005  0.00  0.00    +0.000 A 
ATOM      9  C   UNL     1      37.402  29.255  43.943  0.00  0.00    +0.000 A 
ATOM     10 CL   UNL     1      37.025  28.540  42.388  0.00  0.00    +0.000 Cl
ATOM     11  C   UNL     1      38.492  30.077  44.144  0.00  0.00    +0.000 A 
ATOM     12  H   UNL     1      39.148  30.297  43.314  0.00  0.00    +0.000 HD
ENDBRANCH   1   5
BRANCH   1  15
ATOM     13  C   UNL     1      37.354  30.230  51.373  0.00  0.00    +0.000 A 
ATOM     14  C   UNL     1      38.015  30.758  50.262  0.00  0.00    +0.000 A 
ATOM     15  C   UNL     1      37.568  30.422  48.990  0.00  0.00    +0.000 A 
ATOM     16  N   UNL     1      36.505  29.591  48.898  0.00  0.00    +0.000 NA
ATOM     17  C   UNL     1      35.884  29.094  49.996  0.00  0.00    +0.000 A 
ATOM     18  N   UNL     1      36.301  29.407  51.225  0.00  0.00    +0.000 NA
ATOM     19  H   UNL     1      37.787  30.559  52.314  0.00  0.00    +0.000 HD
ATOM     20  H   UNL     1      38.869  31.426  50.346  0.00  0.00    +0.000 HD
ATOM     21  H   UNL     1      35.021  28.420  49.874  0.00  0.00    +0.000 HD
ENDBRANCH   1  15
TORSDOF 2
