REMARK  Name = 
REMARK  2 active torsions:
REMARK  status: ('A' for Active; 'I' for Inactive)
REMARK    1  A    between atoms: C_2  and  C_7
REMARK    2  A    between atoms: N_10  and  C_19
REMARK                            x       y       z     vdW  Elec       q    Type
REMARK                         _______ _______ _______ _____ _____    ______ ____
ROOT
ATOM      1  C   UNL     1      37.946  32.020  48.975  0.00  0.00    +0.000 A 
ATOM      2  C   UNL     1      38.547  31.734  47.749  0.00  0.00    +0.000 A 
ATOM      3  C   UNL     1      39.276  32.834  47.335  0.00  0.00    +0.000 A 
ATOM      4  N   UNL     1      39.105  33.770  48.315  0.00  0.00    +0.000 N 
ATOM      5  N   UNL     1      38.324  33.269  49.261  0.00  0.00    +0.000 NA
ATOM      6  H   UNL     1      38.462  30.794  47.196  0.00  0.00    +0.000 HD
ATOM      7  H   UNL     1      39.844  32.885  46.414  0.00  0.00    +0.000 HD
ENDROOT
BRANCH   4  10
ATOM      8 CL   UNL     1      37.226  36.022  48.766  0.00  0.00    +0.000 Cl
ATOM      9  C   UNL     1      38.937  36.158  48.397  0.00  0.00    +0.000 A 
ATOM     10  C   UNL     1      39.730  35.043  48.204  0.00  0.00    +0.000 A 
ATOM     11  C   UNL     1      41.093  35.160  47.910  0.00  0.00    +0.000 A 
ATOM     12  H   UNL     1      41.676  34.239  47.766  0.00  0.00    +0.000 HD
ATOM     13  C   UNL     1      41.682  36.424  47.806  0.00  0.00    +0.000 A 
ATOM     14  C   UNL     1      40.857  37.535  48.007  0.00  0.00    +0.000 A 
ATOM     15 CL   UNL     1      41.608  39.128  47.874  0.00  0.00    +0.000 Cl
ATOM     16  C   UNL     1      39.508  37.410  48.297  0.00  0.00    +0.000 A 
ATOM     17  H   UNL     1      38.932  38.316  48.439  0.00  0.00    +0.000 HD
ENDBRANCH   4  10
BRANCH   1  19
ATOM     18  C   UNL     1      37.480  30.483  50.888  0.00  0.00    +0.000 A 
ATOM     19  C   UNL     1      37.114  31.086  49.688  0.00  0.00    +0.000 A 
ATOM     20  C   UNL     1      35.864  30.754  49.159  0.00  0.00    +0.000 A 
ATOM     21  N   UNL     1      35.087  29.865  49.849  0.00  0.00    +0.000 NA
ATOM     22  C   UNL     1      35.490  29.310  51.009  0.00  0.00    +0.000 A 
ATOM     23  N   UNL     1      36.699  29.615  51.543  0.00  0.00    +0.000 NA
ATOM     24  H   UNL     1      38.461  30.732  51.322  0.00  0.00    +0.000 HD
ATOM     25  H   UNL     1      35.490  31.169  48.232  0.00  0.00    +0.000 HD
ATOM     26  H   UNL     1      34.767  28.627  51.435  0.00  0.00    +0.000 HD
ENDBRANCH   1  19
TORSDOF 2
