
 OpenBabel03272500083D

 40 43  0  0  0  0  0  0  0  0999 V2000
   32.4710   27.0560   48.0760 O   0  0  0  0  0  0  0  0  0  0  0  0
   31.1480   27.4540   48.2730 C   0  0  0  0  0  0  0  0  0  0  0  0
   30.8310   27.7630   49.5780 C   0  0  0  0  0  0  0  0  0  0  0  0
   29.5590   28.1710   49.9110 C   0  0  0  0  0  0  0  0  0  0  0  0
   28.5910   28.2630   48.8970 C   0  0  0  0  0  0  0  0  0  0  0  0
   28.9220   27.9510   47.5990 C   0  0  0  0  0  0  0  0  0  0  0  0
   30.1890   27.5510   47.2980 C   0  0  0  0  0  0  0  0  0  0  0  0
   31.5470   27.7040   50.3850 H   0  0  0  0  0  0  0  0  0  0  0  0
   29.3240   28.4130   50.9530 H   0  0  0  0  0  0  0  0  0  0  0  0
   27.6070   28.5840   49.1900 H   0  0  0  0  0  0  0  0  0  0  0  0
   28.1360   28.0440   46.8730 H   0  0  0  0  0  0  0  0  0  0  0  0
   30.5430   30.0350   45.7810 Cl  0  0  0  0  0  0  0  0  0  0  0  0
   30.7180   28.3890   45.1880 C   0  0  0  0  0  0  0  0  0  0  0  0
   30.5440   27.2140   45.9250 C   0  0  0  0  0  0  0  0  0  0  0  0
   30.7240   26.0050   45.2870 C   0  0  0  0  0  0  0  0  0  0  0  0
   30.5590   25.1860   45.9700 H   0  0  0  0  0  0  0  0  0  0  0  0
   31.0690   25.9790   43.9540 C   0  0  0  0  0  3  0  0  0  0  0  0
   31.2440   27.1210   43.2160 C   0  0  0  0  0  0  0  0  0  0  0  0
   31.6820   26.9140   41.5310 Cl  0  0  0  0  0  0  0  0  0  0  0  0
   31.0690   28.3350   43.8360 C   0  0  0  0  0  0  0  0  0  0  0  0
   31.2200   29.1990   43.2040 H   0  0  0  0  0  0  0  0  0  0  0  0
   35.4020   28.8440   49.1470 C   0  0  0  0  0  0  0  0  0  0  0  0
   35.3360   30.0300   48.4090 C   0  0  0  0  0  0  0  0  0  0  0  0
   34.2600   30.1890   47.5420 C   0  0  0  0  0  0  0  0  0  0  0  0
   33.3380   29.1880   47.4610 N   0  0  0  0  0  0  0  0  0  0  0  0
   33.4260   28.0670   48.1760 C   0  0  0  0  0  0  0  0  0  0  0  0
   34.4690   27.8820   49.0350 N   0  0  0  0  0  0  0  0  0  0  0  0
   36.2130   28.6530   49.8430 H   0  0  0  0  0  0  0  0  0  0  0  0
   34.2160   31.1000   46.9820 H   0  0  0  0  0  0  0  0  0  0  0  0
   36.3630   30.9950   48.5840 N   0  0  0  0  0  0  0  0  0  0  0  0
   36.5200   31.6710   49.7180 C   0  0  0  0  0  0  0  0  0  0  0  0
   37.5500   32.6000   49.8130 C   0  0  0  0  0  0  0  0  0  0  0  0
   38.3320   32.7450   48.7130 C   0  0  0  0  0  0  0  0  0  0  0  0
   39.2690   33.5910   48.8000 O   0  0  0  0  0  0  0  0  0  0  0  0
   38.2050   32.0870   47.5630 N   0  0  0  0  0  0  0  0  0  0  0  0
   37.1880   31.1850   47.4990 C   0  0  0  0  0  0  0  0  0  0  0  0
   37.0540   30.5480   46.4080 O   0  0  0  0  0  0  0  0  0  0  0  0
   35.8650   31.5120   50.5640 H   0  0  0  0  0  0  0  0  0  0  0  0
   37.7180   33.1780   50.7220 H   0  0  0  0  0  0  0  0  0  0  0  0
   38.8340   32.2360   46.7420 H   0  0  0  0  0  0  0  0  0  0  0  0
  1 26  1  0  0  0  0
  1  2  1  0  0  0  0
  2  3  1  0  0  0  0
  3  4  2  0  0  0  0
  3  8  1  0  0  0  0
  4  9  1  0  0  0  0
  5 10  1  0  0  0  0
  5  4  1  0  0  0  0
  6  5  2  0  0  0  0
  7  6  1  0  0  0  0
  7  2  2  0  0  0  0
 11  6  1  0  0  0  0
 13 12  1  0  0  0  0
 13 14  1  0  0  0  0
 14  7  1  0  0  0  0
 15 14  2  0  0  0  0
 15 16  1  0  0  0  0
 17 15  1  0  0  0  0
 18 20  1  0  0  0  0
 18 17  2  0  0  0  0
 19 18  1  0  0  0  0
 20 13  2  0  0  0  0
 21 20  1  0  0  0  0
 22 28  1  0  0  0  0
 23 30  1  0  0  0  0
 23 22  2  0  0  0  0
 24 23  1  0  0  0  0
 25 24  2  0  0  0  0
 25 26  1  0  0  0  0
 26 27  2  0  0  0  0
 27 22  1  0  0  0  0
 29 24  1  0  0  0  0
 30 31  1  0  0  0  0
 31 32  2  0  0  0  0
 31 38  1  0  0  0  0
 32 39  1  0  0  0  0
 33 34  2  0  0  0  0
 33 32  1  0  0  0  0
 35 33  1  0  0  0  0
 36 35  1  0  0  0  0
 36 30  1  0  0  0  0
 37 36  2  0  0  0  0
 40 35  1  0  0  0  0
M  END
>  <minimizedAffinity>
-5.9147687

>  <minimizedRMSD>
0.50434643

$$$$
