
     RDKit          3D

 33 35  0  0  0  0  0  0  0  0999 V2000
   34.6631   28.2863   49.5807 C   0  0  0  0  0  0  0  0  0  0  0  0
   37.2709   30.1907   51.3827 C   0  0  0  0  0  0  0  0  0  0  0  0
   38.0659   30.7024   50.3459 C   0  0  0  0  0  0  0  0  0  0  0  0
   37.6836   30.3773   49.0216 C   0  0  0  0  0  0  0  0  0  0  0  0
   36.5927   29.6046   48.8206 N   0  0  0  0  0  0  0  0  0  0  0  0
   35.8647   29.1403   49.8699 C   0  0  0  0  0  0  0  0  0  0  0  0
   36.2077   29.4347   51.1184 N   0  0  0  0  0  0  0  0  0  0  0  0
   34.4586   28.1975   48.1006 C   0  0  0  0  0  0  0  0  0  0  0  0
   32.9678   28.2648   47.8694 C   0  0  0  0  0  0  0  0  0  0  0  0
   32.0185   27.5877   48.6190 C   0  0  0  0  0  0  0  0  0  0  0  0
   30.7438   27.8549   48.1601 C   0  0  0  0  0  0  0  0  0  0  0  0
   30.9630   28.6976   47.1319 N   0  0  0  0  0  0  0  0  0  0  0  0
   32.2478   28.9471   46.9481 N   0  0  0  0  0  0  0  0  0  0  0  0
   34.8366   27.3020   50.0708 H   0  0  0  0  0  0  0  0  0  0  0  0
   33.7839   28.7359   50.1150 H   0  0  0  0  0  0  0  0  0  0  0  0
   37.6091   30.4703   52.3710 H   0  0  0  0  0  0  0  0  0  0  0  0
   38.9356   31.3139   50.4021 H   0  0  0  0  0  0  0  0  0  0  0  0
   38.1714   30.6794   48.1104 H   0  0  0  0  0  0  0  0  0  0  0  0
   34.8538   27.2247   47.7178 H   0  0  0  0  0  0  0  0  0  0  0  0
   34.9459   29.0297   47.5621 H   0  0  0  0  0  0  0  0  0  0  0  0
   32.1877   26.9151   49.4737 H   0  0  0  0  0  0  0  0  0  0  0  0
   29.7663   27.5551   48.4370 H   0  0  0  0  0  0  0  0  0  0  0  0
   28.1264   28.3257   47.8143 Cl  0  0  0  0  0  0  0  0  0  0  0  0
   28.7536   29.2387   46.4685 C   0  0  0  0  0  0  0  0  0  0  0  0
   30.1070   29.3680   46.2121 C   0  0  0  0  0  0  0  0  0  0  0  0
   30.5607   30.1109   45.1201 C   0  0  0  0  0  0  0  0  0  0  0  0
   31.6365   30.1246   45.0443 H   0  0  0  0  0  0  0  0  0  0  0  0
   29.6543   30.7274   44.2803 C   0  0  0  0  0  0  0  0  0  0  0  0
   28.2955   30.6023   44.5310 C   0  0  0  0  0  0  0  0  0  0  0  0
   27.1784   31.4083   43.4297 Cl  0  0  0  0  0  0  0  0  0  0  0  0
   27.8435   29.8622   45.6190 C   0  0  0  0  0  0  0  0  0  0  0  0
   26.7741   29.7837   45.7875 H   0  0  0  0  0  0  0  0  0  0  0  0
   30.0887   31.2775   43.4665 H   0  0  0  0  0  0  0  0  0  0  0  0
  1  6  1  0
  3  2  2  0
  4  3  1  0
  5  4  2  0
  5  6  1  0
  6  7  2  0
  7  2  1  0
  8  1  1  0
  9  8  1  0
  9 10  1  0
 11 10  2  0
 12 11  1  0
 13 12  1  0
 13  9  2  0
  1 14  1  0
  1 15  1  0
  2 16  1  0
  3 17  1  0
  4 18  1  0
  8 19  1  0
  8 20  1  0
 10 21  1  0
 11 22  1  0
 23 24  1  0
 24 25  2  0
 25 26  1  0
 26 27  1  0
 26 28  2  0
 28 29  1  0
 29 30  1  0
 29 31  2  0
 31 32  1  0
 31 24  1  0
 28 33  1  0
 12 25  1  0
M  ISO  8  14   8  15   8  16  14  17  14  18  14  19   8  20   8  21  14
M  ISO  3  22  14  27  16  32  15
M  END
>  <DihAtoms>  (1) 
10,11,24,23

>  <DihDeg>  (1) 
81.5589331147474

$$$$
