REMARK  Name = 
REMARK  3 active torsions:
REMARK  status: ('A' for Active; 'I' for Inactive)
REMARK    1  A    between atoms: C_1  and  C_7
REMARK    2  A    between atoms: C_8  and  O_10
REMARK    3  A    between atoms: O_10  and  C_20
REMARK                            x       y       z     vdW  Elec       q    Type
REMARK                         _______ _______ _______ _____ _____    ______ ____
ROOT
ATOM      1  C   UNL     1      36.641  31.034  50.498  0.00  0.00    +0.000 C 
ATOM      2  C   UNL     1      36.139  29.690  50.663  0.00  0.00    +0.000 C 
ATOM      3  C   UNL     1      37.349  30.096  51.481  0.00  0.00    +0.000 C 
ATOM      4  H   UNL     1      36.171  31.941  50.981  0.00  0.00    +0.000 HD
ATOM      5  H   UNL     1      35.144  29.591  51.155  0.00  0.00    +0.000 HD
ATOM      6  H   UNL     1      37.092  30.269  52.544  0.00  0.00    +0.000 HD
ATOM      7  H   UNL     1      38.328  29.674  51.202  0.00  0.00    +0.000 HD
ENDROOT
BRANCH   1   8
ATOM      8  C   UNL     1      37.526  31.407  49.327  0.00  0.00    +0.000 A 
ATOM      9  C   UNL     1      38.152  32.651  49.397  0.00  0.00    +0.000 A 
ATOM     10  C   UNL     1      38.937  32.984  48.305  0.00  0.00    +0.000 A 
ATOM     11  N   UNL     1      39.063  32.119  47.246  0.00  0.00    +0.000 NA
ATOM     12  C   UNL     1      38.434  30.917  47.222  0.00  0.00    +0.000 A 
ATOM     13  N   UNL     1      37.651  30.550  48.279  0.00  0.00    +0.000 NA
ATOM     14  H   UNL     1      38.012  33.287  50.260  0.00  0.00    +0.000 HD
ATOM     15  H   UNL     1      39.437  33.940  48.325  0.00  0.00    +0.000 HD
ATOM     16  H   UNL     1      38.573  30.279  46.359  0.00  0.00    +0.000 HD
ENDBRANCH   1   8
BRANCH   2  17
ATOM     17  O   UNL     1      36.384  28.739  49.661  0.00  0.00    +0.000 OA
BRANCH  17  20
ATOM     18 CL   UNL     1      33.627  29.215  50.646  0.00  0.00    +0.000 Cl
ATOM     19  C   UNL     1      34.235  27.889  49.668  0.00  0.00    +0.000 A 
ATOM     20  C   UNL     1      35.550  27.739  49.246  0.00  0.00    +0.000 A 
ATOM     21  C   UNL     1      35.870  26.641  48.481  0.00  0.00    +0.000 A 
ATOM     22  H   UNL     1      36.907  26.563  48.174  0.00  0.00    +0.000 HD
ATOM     23  C   UNL     1      34.960  25.677  48.108  0.00  0.00    +0.000 A 
ATOM     24  C   UNL     1      33.650  25.834  48.532  0.00  0.00    +0.000 A 
ATOM     25 CL   UNL     1      32.461  24.633  48.081  0.00  0.00    +0.000 Cl
ATOM     26  C   UNL     1      33.294  26.926  49.303  0.00  0.00    +0.000 A 
ATOM     27  H   UNL     1      32.266  26.986  49.596  0.00  0.00    +0.000 HD
ENDBRANCH  17  20
ENDBRANCH   2  17
TORSDOF 3
