
 OpenBabel03272510263D

 46 50  0  0  1  0  0  0  0  0999 V2000
   39.4840   33.5950   43.3670 O   0  0  0  0  0  0  0  0  0  0  0  0
   36.2590   30.1850   46.9330 C   0  0  0  0  0  0  0  0  0  0  0  0
   37.0710   30.7440   47.9050 C   0  0  0  0  0  0  0  0  0  0  0  0
   38.0570   31.6730   47.5530 C   0  0  0  0  0  0  0  0  0  0  0  0
   38.1510   31.9770   46.1990 C   0  0  0  0  0  0  0  0  0  0  0  0
   39.0390   32.8490   45.6080 N   0  0  0  0  0  0  0  0  0  0  0  0
   38.7750   32.8250   44.2950 C   0  0  0  0  0  0  0  0  0  0  0  0
   37.7840   31.9950   44.0630 N   0  0  0  0  0  0  0  0  0  0  0  0
   37.3670   31.4440   45.2150 C   0  0  0  0  0  0  0  0  0  0  0  0
   36.3920   30.5220   45.5920 C   0  0  0  0  0  0  0  0  0  0  0  0
   35.4760   29.4580   47.1460 H   0  0  0  0  0  0  0  0  0  0  0  0
   38.6980   32.1170   48.3010 H   0  0  0  0  0  0  0  0  0  0  0  0
   39.7690   33.4070   46.1170 H   0  0  0  0  0  0  0  0  0  0  0  0
   35.7660   30.0960   44.8180 H   0  0  0  0  0  0  0  0  0  0  0  0
   37.4320   30.1190   51.5840 C   0  0  0  0  0  0  0  0  0  0  0  0
   37.7610   30.5710   50.3140 C   0  0  0  0  0  0  0  0  0  0  0  0
   36.8720   30.3410   49.2810 C   0  0  0  0  0  0  0  0  0  0  0  0
   35.7090   29.6760   49.5790 N   0  0  0  0  0  0  0  0  0  0  0  0
   35.4100   29.2470   50.8210 C   0  0  0  0  0  0  0  0  0  0  0  0
   36.2700   29.4700   51.8060 N   0  0  0  0  0  0  0  0  0  0  0  0
   38.1430   30.3060   52.3890 H   0  0  0  0  0  0  0  0  0  0  0  0
   38.6750   31.0910   50.0860 H   0  0  0  0  0  0  0  0  0  0  0  0
   34.4650   28.7350   50.9350 H   0  0  0  0  0  0  0  0  0  0  0  0
   39.7340   31.8110   41.9260 N   0  0  0  0  0  0  0  0  0  0  0  0
   39.3540   33.2250   42.0020 C   0  0  1  0  0  0  0  0  0  0  0  0
   37.9690   33.3510   41.5680 C   0  0  0  0  0  0  0  0  0  0  0  0
   37.8890   33.0100   40.2120 O   0  0  0  0  0  0  0  0  0  0  0  0
   38.3440   31.7420   39.9140 C   0  0  0  0  0  0  0  0  0  0  0  0
   39.7140   31.4840   40.5340 C   0  0  2  0  0  0  0  0  0  0  0  0
   39.0120   31.2020   42.3500 H   0  0  0  0  0  0  0  0  0  0  0  0
   40.0370   33.7420   41.3320 H   0  0  0  0  0  0  0  0  0  0  0  0
   37.1480   32.8350   41.9920 H   0  0  0  0  0  0  0  0  0  0  0  0
   37.7040   34.4520   41.5860 H   0  0  0  0  0  0  0  0  0  0  0  0
   37.6380   30.9640   40.2480 H   0  0  0  0  0  0  0  0  0  0  0  0
   38.4450   31.6870   38.8180 H   0  0  0  0  0  0  0  0  0  0  0  0
   40.4760   32.1340   40.0000 H   0  0  0  0  0  0  0  0  0  0  0  0
   42.5550   30.2350   39.4450 Cl  0  0  0  0  0  0  0  0  0  0  0  0
   41.1280   29.3330   39.8830 C   0  0  0  0  0  0  0  0  0  0  0  0
   40.0600   30.0860   40.2950 C   0  0  0  0  0  0  0  0  0  0  0  0
   38.9660   29.2500   40.6070 C   0  0  0  0  0  0  0  0  0  0  0  0
   37.9880   29.6070   40.9610 H   0  0  0  0  0  0  0  0  0  0  0  0
   38.9480   27.8570   40.5160 C   0  0  0  0  0  3  0  0  0  0  0  0
   40.0750   27.2230   40.0930 C   0  0  0  0  0  0  0  0  0  0  0  0
   40.1680   25.4860   39.9420 Cl  0  0  0  0  0  0  0  0  0  0  0  0
   41.1710   27.9690   39.7750 C   0  0  0  0  0  0  0  0  0  0  0  0
   42.0710   27.5110   39.4390 H   0  0  0  0  0  0  0  0  0  0  0  0
  1  7  1  0  0  0  0
  2 11  1  0  0  0  0
  2  3  1  0  0  0  0
  3 17  1  0  0  0  0
  4  3  2  0  0  0  0
  4 12  1  0  0  0  0
  5  4  1  0  0  0  0
  6 13  1  0  0  0  0
  6  5  1  0  0  0  0
  7  6  1  0  0  0  0
  8  7  2  0  0  0  0
  8  9  1  0  0  0  0
  9 10  1  0  0  0  0
  9  5  2  0  0  0  0
 10  2  2  0  0  0  0
 14 10  1  0  0  0  0
 15 20  1  0  0  0  0
 15 21  1  0  0  0  0
 16 15  2  0  0  0  0
 17 18  2  0  0  0  0
 17 16  1  0  0  0  0
 18 19  1  0  0  0  0
 19 23  1  0  0  0  0
 19 20  2  0  0  0  0
 22 16  1  0  0  0  0
 24 25  1  0  0  0  0
 24 30  1  0  0  0  0
 25 31  1  6  0  0  0
 25  1  1  0  0  0  0
 26 33  1  0  0  0  0
 26 32  1  0  0  0  0
 26 25  1  0  0  0  0
 27 26  1  0  0  0  0
 28 27  1  0  0  0  0
 28 34  1  0  0  0  0
 28 29  1  0  0  0  0
 29 36  1  6  0  0  0
 29 24  1  0  0  0  0
 35 28  1  0  0  0  0
 37 38  1  0  0  0  0
 38 39  1  0  0  0  0
 39 29  1  0  0  0  0
 39 40  2  0  0  0  0
 40 41  1  0  0  0  0
 42 40  1  0  0  0  0
 43 42  2  0  0  0  0
 44 43  1  0  0  0  0
 45 38  2  0  0  0  0
 45 43  1  0  0  0  0
 46 45  1  0  0  0  0
M  END
>  <minimizedAffinity>
-6.26116848

>  <minimizedRMSD>
0.353773266

$$$$
