REMARK  Name = 
REMARK  6 active torsions:
REMARK  status: ('A' for Active; 'I' for Inactive)
REMARK    1  A    between atoms: C_1  and  C_2
REMARK    2  A    between atoms: C_1  and  O_8
REMARK    3  A    between atoms: O_8  and  P_10
REMARK    4  A    between atoms: P_10  and  O_11
REMARK    5  A    between atoms: P_10  and  O_12
REMARK    6  A    between atoms: O_12  and  C_21
REMARK                            x       y       z     vdW  Elec       q    Type
REMARK                         _______ _______ _______ _____ _____    ______ ____
ROOT
ATOM      1  O   UNL     1      38.401  31.158  48.041  0.00  0.00    +0.000 OA
ATOM      2  P   UNL     1      38.013  31.713  49.395  0.00  0.00    +0.000 P 
ENDROOT
BRANCH   2   3
ATOM      3  O   UNL     1      38.810  30.753  50.568  0.00  0.00    +0.000 OA
ATOM      4  H   UNL     1      39.766  31.024  50.569  0.00  0.00    +0.000 HD
ENDBRANCH   2   3
BRANCH   2   5
ATOM      5  O   UNL     1      36.336  31.592  49.627  0.00  0.00    +0.000 OA
BRANCH   5   6
ATOM      6  C   UNL     1      36.058  30.307  50.027  0.00  0.00    +0.000 C 
ATOM      7  H   UNL     1      35.548  30.354  51.030  0.00  0.00    +0.000 HD
ATOM      8  H   UNL     1      36.987  29.683  50.164  0.00  0.00    +0.000 HD
BRANCH   6   9
ATOM      9  C   UNL     1      35.123  29.601  49.122  0.00  0.00    +0.000 A 
ATOM     10  C   UNL     1      34.662  30.291  47.997  0.00  0.00    +0.000 A 
ATOM     11  C   UNL     1      33.775  29.651  47.120  0.00  0.00    +0.000 A 
ATOM     12  N   UNL     1      33.410  28.362  47.430  0.00  0.00    +0.000 NA
ATOM     13  C   UNL     1      33.874  27.734  48.521  0.00  0.00    +0.000 A 
ATOM     14  N   UNL     1      34.720  28.333  49.365  0.00  0.00    +0.000 NA
ATOM     15  H   UNL     1      34.995  31.295  47.827  0.00  0.00    +0.000 HD
ATOM     16  H   UNL     1      33.413  30.170  46.251  0.00  0.00    +0.000 HD
ATOM     17  H   UNL     1      33.547  26.719  48.707  0.00  0.00    +0.000 HD
ENDBRANCH   6   9
ENDBRANCH   5   6
ENDBRANCH   2   5
BRANCH   2  18
ATOM     18  O   UNL     1      38.520  33.312  49.498  0.00  0.00    +0.000 OA
BRANCH  18  21
ATOM     19 CL   UNL     1      40.773  32.442  51.117  0.00  0.00    +0.000 Cl
ATOM     20  C   UNL     1      40.796  33.466  49.678  0.00  0.00    +0.000 A 
ATOM     21  C   UNL     1      39.665  33.846  48.946  0.00  0.00    +0.000 A 
ATOM     22  C   UNL     1      39.838  34.651  47.842  0.00  0.00    +0.000 A 
ATOM     23  H   UNL     1      38.914  34.884  47.354  0.00  0.00    +0.000 HD
ATOM     24  C   UNL     1      41.091  35.069  47.472  0.00  0.00    +0.000 A 
ATOM     25  C   UNL     1      42.232  34.702  48.188  0.00  0.00    +0.000 A 
ATOM     26 CL   UNL     1      43.808  35.257  47.681  0.00  0.00    +0.000 Cl
ATOM     27  C   UNL     1      42.064  33.894  49.297  0.00  0.00    +0.000 A 
ATOM     28  H   UNL     1      42.967  33.629  49.828  0.00  0.00    +0.000 HD
ENDBRANCH  18  21
ENDBRANCH   2  18
TORSDOF 6
