
 OpenBabel03272500453D

 26 28  0  0  0  0  0  0  0  0999 V2000
   36.1350   30.3040   47.6710 C   0  0  0  0  0  0  0  0  0  0  0  0
   35.5610   29.7480   46.5280 C   0  0  0  0  0  0  0  0  0  0  0  0
   36.1190   30.3390   45.4090 C   0  0  0  0  0  0  0  0  0  0  0  0
   37.0210   31.2440   45.8900 N   0  0  0  0  0  0  0  0  0  0  0  0
   37.0110   31.2040   47.2150 N   0  0  0  0  0  0  0  0  0  0  0  0
   34.7930   28.9690   46.5080 H   0  0  0  0  0  0  0  0  0  0  0  0
   35.8550   30.0940   44.3870 H   0  0  0  0  0  0  0  0  0  0  0  0
   39.4500   32.3970   47.1470 Cl  0  0  0  0  0  0  0  0  0  0  0  0
   38.9380   32.6220   45.4830 C   0  0  0  0  0  0  0  0  0  0  0  0
   37.7850   32.0390   44.9910 C   0  0  0  0  0  0  0  0  0  0  0  0
   37.3840   32.2230   43.6630 C   0  0  0  0  0  0  0  0  0  0  0  0
   36.4580   31.7350   43.3260 H   0  0  0  0  0  0  0  0  0  0  0  0
   38.1540   33.0100   42.8010 C   0  0  0  0  0  3  0  0  0  0  0  0
   39.3160   33.5870   43.3240 C   0  0  0  0  0  0  0  0  0  0  0  0
   40.2820   34.5790   42.2290 Cl  0  0  0  0  0  0  0  0  0  0  0  0
   39.7050   33.4000   44.6400 C   0  0  0  0  0  0  0  0  0  0  0  0
   40.6170   33.8800   44.9740 H   0  0  0  0  0  0  0  0  0  0  0  0
   36.6980   29.7550   50.0420 C   0  0  0  0  0  0  0  0  0  0  0  0
   35.7780   29.9110   49.0100 C   0  0  0  0  0  0  0  0  0  0  0  0
   34.4340   29.6680   49.3070 C   0  0  0  0  0  0  0  0  0  0  0  0
   34.1130   29.2950   50.5830 N   0  0  0  0  0  0  0  0  0  0  0  0
   35.0450   29.1590   51.5460 C   0  0  0  0  0  0  0  0  0  0  0  0
   36.3560   29.3880   51.2830 N   0  0  0  0  0  0  0  0  0  0  0  0
   37.7620   29.9420   49.8280 H   0  0  0  0  0  0  0  0  0  0  0  0
   33.6440   29.7620   48.5730 H   0  0  0  0  0  0  0  0  0  0  0  0
   34.6370   28.8590   52.5020 H   0  0  0  0  0  0  0  0  0  0  0  0
  1 19  1  0  0  0  0
  2  1  1  0  0  0  0
  3  4  1  0  0  0  0
  3  2  2  0  0  0  0
  4  5  1  0  0  0  0
  5  1  2  0  0  0  0
  6  2  1  0  0  0  0
  7  3  1  0  0  0  0
  9  8  1  0  0  0  0
 10  9  1  0  0  0  0
 10  4  1  0  0  0  0
 11 10  2  0  0  0  0
 12 11  1  0  0  0  0
 13 14  2  0  0  0  0
 13 11  1  0  0  0  0
 14 16  1  0  0  0  0
 15 14  1  0  0  0  0
 16 17  1  0  0  0  0
 16  9  2  0  0  0  0
 18 23  1  0  0  0  0
 19 20  1  0  0  0  0
 19 18  2  0  0  0  0
 20 21  2  0  0  0  0
 21 22  1  0  0  0  0
 22 26  1  0  0  0  0
 23 22  2  0  0  0  0
 24 18  1  0  0  0  0
 25 20  1  0  0  0  0
M  END
>  <minimizedAffinity>
-2.98668909

>  <minimizedRMSD>
4.34290838

$$$$
