
     RDKit          3D

 43 46  0  0  0  0  0  0  0  0999 V2000
   38.4957   31.1423   45.9738 C   0  0  0  0  0  0  0  0  0  0  0  0
   39.8167   31.2046   46.3084 C   0  0  0  0  0  0  0  0  0  0  0  0
   40.4732   31.5250   45.1215 C   0  0  0  0  0  0  0  0  0  0  0  0
   39.5732   31.6448   44.1350 N   0  0  0  0  0  0  0  0  0  0  0  0
   38.3675   31.4117   44.6535 N   0  0  0  0  0  0  0  0  0  0  0  0
   36.4316   30.6255   49.0584 C   0  0  0  0  0  0  0  0  0  0  0  0
   37.5071   30.9295   48.2465 C   0  0  0  0  0  0  0  0  0  0  0  0
   37.4101   30.8390   46.8775 C   0  0  0  0  0  0  0  0  0  0  0  0
   36.2183   30.4408   46.3788 N   0  0  0  0  0  0  0  0  0  0  0  0
   35.1639   30.1434   47.1927 C   0  0  0  0  0  0  0  0  0  0  0  0
   35.2563   30.2299   48.5009 N   0  0  0  0  0  0  0  0  0  0  0  0
   36.7265   30.7781   50.4183 O   0  0  0  0  0  0  0  0  0  0  0  0
   36.7900   29.6930   51.3158 C   0  0  0  0  0  0  0  0  0  0  0  0
   35.5355   29.1902   51.6254 F   0  0  0  0  0  0  0  0  0  0  0  0
   37.4514   30.0917   52.4437 F   0  0  0  0  0  0  0  0  0  0  0  0
   37.5487   28.6963   50.7302 F   0  0  0  0  0  0  0  0  0  0  0  0
   39.9078   30.6989   41.8974 C   0  0  2  0  0  0  0  0  0  0  0  0
   39.9231   31.9709   42.7766 C   0  0  1  0  0  0  0  0  0  0  0  0
   38.8683   32.7574   42.0692 C   0  0  0  0  0  0  0  0  0  0  0  0
   38.9876   32.4920   40.7265 O   0  0  0  0  0  0  0  0  0  0  0  0
   39.8086   31.4240   40.5372 C   0  0  0  0  0  0  0  0  0  0  0  0
   38.7338   30.0682   42.1557 O   0  0  0  0  0  0  0  0  0  0  0  0
   40.2468   31.0364   47.2983 H   0  0  0  0  0  0  0  0  0  0  0  0
   41.5680   31.6323   45.1383 H   0  0  0  0  0  0  0  0  0  0  0  0
   38.4868   31.2547   48.6075 H   0  0  0  0  0  0  0  0  0  0  0  0
   34.2123   29.8243   46.7673 H   0  0  0  0  0  0  0  0  0  0  0  0
   40.8499   30.1620   41.9822 H   0  0  0  0  0  0  0  0  0  0  0  0
   40.8839   32.4864   42.7286 H   0  0  0  0  0  0  0  0  0  0  0  0
   37.8597   32.4541   42.4381 H   0  0  0  0  0  0  0  0  0  0  0  0
   38.9741   33.8232   42.3075 H   0  0  0  0  0  0  0  0  0  0  0  0
   39.3590   30.7374   39.7900 H   0  0  0  0  0  0  0  0  0  0  0  0
   40.8194   31.7579   40.2049 H   0  0  0  0  0  0  0  0  0  0  0  0
   40.1456   28.4899   44.4316 Cl  0  0  0  0  0  0  0  0  0  0  0  0
   38.8039   27.9233   43.4800 C   0  0  0  0  0  0  0  0  0  0  0  0
   38.3728   28.8280   42.5372 C   0  0  0  0  0  0  0  0  0  0  0  0
   37.2893   28.3837   41.7612 C   0  0  0  0  0  0  0  0  0  0  0  0
   36.7798   28.9327   40.9519 H   0  0  0  0  0  0  0  0  0  0  0  0
   36.7005   27.1449   41.9241 C   0  0  0  0  0  0  0  0  0  0  0  0
   37.1965   26.2976   42.8952 C   0  0  0  0  0  0  0  0  0  0  0  0
   36.5256   24.7111   43.1835 Cl  0  0  0  0  0  0  0  0  0  0  0  0
   38.2569   26.6899   43.6797 C   0  0  0  0  0  0  0  0  0  0  0  0
   38.6918   26.0815   44.4525 H   0  0  0  0  0  0  0  0  0  0  0  0
   35.8836   26.7486   41.3748 H   0  0  0  0  0  0  0  0  0  0  0  0
  1  2  1  0
  1  8  1  0
  3  2  2  0
  4  5  1  0
  4  3  1  0
  5  1  2  0
  6 12  1  0
  7  6  2  0
  8  7  1  0
  9  8  2  0
  9 10  1  0
 10 11  2  0
 11  6  1  0
 12 13  1  0
 13 14  1  0
 13 15  1  0
 16 13  1  0
 17 22  1  0
 17 18  1  0
 18  4  1  0
 19 18  1  0
 20 19  1  0
 21 20  1  0
 21 17  1  0
  2 23  1  0
  3 24  1  0
  7 25  1  0
 10 26  1  0
 17 27  1  6
 18 28  1  1
 19 29  1  0
 19 30  1  0
 21 31  1  0
 21 32  1  0
 33 34  1  0
 34 35  2  0
 35 36  1  0
 36 37  1  0
 36 38  2  0
 38 39  1  0
 39 40  1  0
 39 41  2  0
 41 42  1  0
 41 34  1  0
 38 43  1  0
 22 35  1  0
M  ISO  8  23  14  24  14  25  14  26  14  27  13  28  13  29  13  30  13
M  ISO  4  31  13  32  13  37  16  42  15
M  END
>  <DihAtoms>  (1) 
16,21,34,33

>  <DihDeg>  (1) 
0.06515824111615197

$$$$
