
 OpenBabel03272501313D

 21 22  0  0  0  0  0  0  0  0999 V2000
   39.4550   24.3320   34.4020 C   0  0  0  0  0  0  0  0  0  0  0  0
   40.6030   24.4840   33.9320 O   0  0  0  0  0  0  0  0  0  0  0  0
   38.5980   27.1870   33.9690 Cl  0  0  0  0  0  0  0  0  0  0  0  0
   37.8510   25.7730   33.2360 C   0  0  0  0  0  0  0  0  0  0  0  0
   38.3210   24.5020   33.5000 C   0  0  0  0  0  0  0  0  0  0  0  0
   37.6500   23.4780   32.8640 C   0  0  0  0  0  0  0  0  0  0  0  0
   37.9900   22.4710   33.0460 H   0  0  0  0  0  0  0  0  0  0  0  0
   36.5830   23.7020   32.0210 C   0  0  0  0  0  3  0  0  0  0  0  0
   36.1380   24.9850   31.7770 C   0  0  0  0  0  0  0  0  0  0  0  0
   34.7760   25.1940   30.6950 Cl  0  0  0  0  0  0  0  0  0  0  0  0
   36.7750   26.0450   32.3900 C   0  0  0  0  0  0  0  0  0  0  0  0
   36.4280   27.0500   32.2010 H   0  0  0  0  0  0  0  0  0  0  0  0
   37.9800   24.1700   37.8380 C   0  0  0  0  0  0  0  0  0  0  0  0
   38.1540   24.5360   36.5010 C   0  0  0  0  0  0  0  0  0  0  0  0
   39.2170   23.9960   35.7880 C   0  0  0  0  0  0  0  0  0  0  0  0
   40.0350   23.1360   36.4360 N   0  0  0  0  0  0  0  0  0  0  0  0
   39.8400   22.8000   37.7350 C   0  0  0  0  0  0  0  0  0  0  0  0
   38.8240   23.3100   38.4340 N   0  0  0  0  0  0  0  0  0  0  0  0
   37.1200   24.6510   38.2960 H   0  0  0  0  0  0  0  0  0  0  0  0
   37.4910   25.2290   35.9880 H   0  0  0  0  0  0  0  0  0  0  0  0
   40.5320   22.0950   38.2230 H   0  0  0  0  0  0  0  0  0  0  0  0
  1 15  1  0  0  0  0
  2  1  2  0  0  0  0
  4  5  1  0  0  0  0
  4  3  1  0  0  0  0
  5  1  1  0  0  0  0
  6  7  1  0  0  0  0
  6  5  2  0  0  0  0
  8  6  1  0  0  0  0
  9  8  2  0  0  0  0
  9 11  1  0  0  0  0
 10  9  1  0  0  0  0
 11  4  2  0  0  0  0
 12 11  1  0  0  0  0
 13 19  1  0  0  0  0
 13 18  1  0  0  0  0
 14 13  2  0  0  0  0
 15 16  2  0  0  0  0
 15 14  1  0  0  0  0
 16 17  1  0  0  0  0
 17 21  1  0  0  0  0
 17 18  2  0  0  0  0
 20 14  1  0  0  0  0
M  END
>  <minimizedAffinity>
-4.48407316

$$$$

 OpenBabel03272501313D

 21 22  0  0  0  0  0  0  0  0999 V2000
   37.8140   26.8520   34.9670 C   0  0  0  0  0  0  0  0  0  0  0  0
   37.9060   27.8880   35.6590 O   0  0  0  0  0  0  0  0  0  0  0  0
   40.6270   26.4030   33.9880 Cl  0  0  0  0  0  0  0  0  0  0  0  0
   39.7420   25.3420   35.0770 C   0  0  0  0  0  0  0  0  0  0  0  0
   38.4510   25.6390   35.4670 C   0  0  0  0  0  0  0  0  0  0  0  0
   37.8670   24.7290   36.3220 C   0  0  0  0  0  0  0  0  0  0  0  0
   36.8590   24.9280   36.6490 H   0  0  0  0  0  0  0  0  0  0  0  0
   38.5210   23.5980   36.7620 C   0  0  0  0  0  3  0  0  0  0  0  0
   39.8120   23.3310   36.3540 C   0  0  0  0  0  0  0  0  0  0  0  0
   40.5810   21.8750   36.9520 Cl  0  0  0  0  0  0  0  0  0  0  0  0
   40.4410   24.2110   35.4970 C   0  0  0  0  0  0  0  0  0  0  0  0
   41.4520   24.0030   35.1760 H   0  0  0  0  0  0  0  0  0  0  0  0
   35.8590   27.8480   31.9350 C   0  0  0  0  0  0  0  0  0  0  0  0
   36.5280   27.9520   33.1560 C   0  0  0  0  0  0  0  0  0  0  0  0
   37.1060   26.8150   33.7060 C   0  0  0  0  0  0  0  0  0  0  0  0
   36.9870   25.6560   33.0200 N   0  0  0  0  0  0  0  0  0  0  0  0
   36.3300   25.5860   31.8360 C   0  0  0  0  0  0  0  0  0  0  0  0
   35.7690   26.6690   31.2930 N   0  0  0  0  0  0  0  0  0  0  0  0
   35.4480   28.7960   31.5990 H   0  0  0  0  0  0  0  0  0  0  0  0
   36.6190   28.8890   33.7000 H   0  0  0  0  0  0  0  0  0  0  0  0
   36.2570   24.6200   31.3110 H   0  0  0  0  0  0  0  0  0  0  0  0
  1  5  1  0  0  0  0
  1  2  2  0  0  0  0
  3  4  1  0  0  0  0
  4  5  2  0  0  0  0
  4 11  1  0  0  0  0
  5  6  1  0  0  0  0
  6  7  1  0  0  0  0
  6  8  2  0  0  0  0
  9  8  1  0  0  0  0
  9 10  1  0  0  0  0
 11  9  2  0  0  0  0
 12 11  1  0  0  0  0
 13 14  1  0  0  0  0
 14 20  1  0  0  0  0
 14 15  2  0  0  0  0
 15  1  1  0  0  0  0
 16 15  1  0  0  0  0
 17 16  2  0  0  0  0
 18 17  1  0  0  0  0
 18 13  2  0  0  0  0
 19 13  1  0  0  0  0
 21 17  1  0  0  0  0
M  END
>  <minimizedAffinity>
-4.46017408

$$$$

 OpenBabel03272501313D

 21 22  0  0  0  0  0  0  0  0999 V2000
   38.4800   25.3100   33.0510 C   0  0  0  0  0  0  0  0  0  0  0  0
   39.5370   25.7990   32.5970 O   0  0  0  0  0  0  0  0  0  0  0  0
   37.6630   27.2730   35.1840 Cl  0  0  0  0  0  0  0  0  0  0  0  0
   38.1430   25.6030   35.4610 C   0  0  0  0  0  0  0  0  0  0  0  0
   38.5010   24.7830   34.4110 C   0  0  0  0  0  0  0  0  0  0  0  0
   38.8580   23.4970   34.7590 C   0  0  0  0  0  0  0  0  0  0  0  0
   39.1430   22.8260   33.9640 H   0  0  0  0  0  0  0  0  0  0  0  0
   38.8580   23.0550   36.0640 C   0  0  0  0  0  3  0  0  0  0  0  0
   38.4940   23.9010   37.0920 C   0  0  0  0  0  0  0  0  0  0  0  0
   38.5180   23.2710   38.7260 Cl  0  0  0  0  0  0  0  0  0  0  0  0
   38.1290   25.1990   36.7960 C   0  0  0  0  0  0  0  0  0  0  0  0
   37.8440   25.8630   37.5990 H   0  0  0  0  0  0  0  0  0  0  0  0
   35.4830   24.0560   31.1940 C   0  0  0  0  0  0  0  0  0  0  0  0
   36.6660   24.0420   31.9350 C   0  0  0  0  0  0  0  0  0  0  0  0
   37.2560   25.2510   32.2850 C   0  0  0  0  0  0  0  0  0  0  0  0
   36.6430   26.3870   31.8810 N   0  0  0  0  0  0  0  0  0  0  0  0
   35.4940   26.3680   31.1620 C   0  0  0  0  0  0  0  0  0  0  0  0
   34.9150   25.2150   30.8180 N   0  0  0  0  0  0  0  0  0  0  0  0
   35.1120   23.0570   30.9780 H   0  0  0  0  0  0  0  0  0  0  0  0
   37.1520   23.1230   32.2550 H   0  0  0  0  0  0  0  0  0  0  0  0
   35.0290   27.3180   30.8550 H   0  0  0  0  0  0  0  0  0  0  0  0
  1  5  1  0  0  0  0
  2  1  2  0  0  0  0
  3  4  1  0  0  0  0
  4 11  1  0  0  0  0
  5  6  1  0  0  0  0
  5  4  2  0  0  0  0
  6  8  2  0  0  0  0
  7  6  1  0  0  0  0
  8  9  1  0  0  0  0
  9 10  1  0  0  0  0
 11  9  2  0  0  0  0
 11 12  1  0  0  0  0
 13 14  1  0  0  0  0
 14 20  1  0  0  0  0
 14 15  2  0  0  0  0
 15  1  1  0  0  0  0
 16 15  1  0  0  0  0
 17 16  2  0  0  0  0
 18 17  1  0  0  0  0
 18 13  2  0  0  0  0
 19 13  1  0  0  0  0
 21 17  1  0  0  0  0
M  END
>  <minimizedAffinity>
-4.45858669

$$$$

 OpenBabel03272501313D

 21 22  0  0  0  0  0  0  0  0999 V2000
   38.9030   26.3290   35.0060 C   0  0  0  0  0  0  0  0  0  0  0  0
   40.0180   26.8070   35.3060 O   0  0  0  0  0  0  0  0  0  0  0  0
   39.5430   26.4200   32.0640 Cl  0  0  0  0  0  0  0  0  0  0  0  0
   38.2090   27.2590   32.8470 C   0  0  0  0  0  0  0  0  0  0  0  0
   38.0020   27.1520   34.2070 C   0  0  0  0  0  0  0  0  0  0  0  0
   36.9230   27.8570   34.6990 C   0  0  0  0  0  0  0  0  0  0  0  0
   36.7290   27.7970   35.7580 H   0  0  0  0  0  0  0  0  0  0  0  0
   36.1050   28.6190   33.8930 C   0  0  0  0  0  3  0  0  0  0  0  0
   36.3400   28.7040   32.5350 C   0  0  0  0  0  0  0  0  0  0  0  0
   35.2590   29.6920   31.5720 Cl  0  0  0  0  0  0  0  0  0  0  0  0
   37.4080   28.0170   31.9940 C   0  0  0  0  0  0  0  0  0  0  0  0
   37.5940   28.0840   30.9320 H   0  0  0  0  0  0  0  0  0  0  0  0
   37.5950   23.4620   37.0250 C   0  0  0  0  0  0  0  0  0  0  0  0
   37.9830   24.7610   36.6910 C   0  0  0  0  0  0  0  0  0  0  0  0
   38.4830   25.0090   35.4180 C   0  0  0  0  0  0  0  0  0  0  0  0
   38.5660   23.9640   34.5630 N   0  0  0  0  0  0  0  0  0  0  0  0
   38.1810   22.7130   34.9170 C   0  0  0  0  0  0  0  0  0  0  0  0
   37.6990   22.4590   36.1360 N   0  0  0  0  0  0  0  0  0  0  0  0
   37.2200   23.3850   38.0420 H   0  0  0  0  0  0  0  0  0  0  0  0
   37.9120   25.5950   37.3860 H   0  0  0  0  0  0  0  0  0  0  0  0
   38.2660   21.8920   34.1880 H   0  0  0  0  0  0  0  0  0  0  0  0
  1  2  2  0  0  0  0
  1 15  1  0  0  0  0
  3  4  1  0  0  0  0
  4  5  1  0  0  0  0
  5  6  2  0  0  0  0
  5  1  1  0  0  0  0
  6  7  1  0  0  0  0
  8  6  1  0  0  0  0
  9  8  2  0  0  0  0
 10  9  1  0  0  0  0
 11  9  1  0  0  0  0
 11  4  2  0  0  0  0
 12 11  1  0  0  0  0
 13 19  1  0  0  0  0
 14 13  1  0  0  0  0
 14 20  1  0  0  0  0
 15 14  2  0  0  0  0
 16 17  2  0  0  0  0
 16 15  1  0  0  0  0
 17 18  1  0  0  0  0
 18 13  2  0  0  0  0
 21 17  1  0  0  0  0
M  END
>  <minimizedAffinity>
-4.4380126

$$$$

 OpenBabel03272501313D

 21 22  0  0  0  0  0  0  0  0999 V2000
   39.4600   24.6540   34.5790 C   0  0  0  0  0  0  0  0  0  0  0  0
   40.6090   24.9210   34.1670 O   0  0  0  0  0  0  0  0  0  0  0  0
   38.5210   22.1060   33.2760 Cl  0  0  0  0  0  0  0  0  0  0  0  0
   37.8430   23.7060   33.0000 C   0  0  0  0  0  0  0  0  0  0  0  0
   38.3480   24.8140   33.6500 C   0  0  0  0  0  0  0  0  0  0  0  0
   37.7300   26.0100   33.3480 C   0  0  0  0  0  0  0  0  0  0  0  0
   38.0970   26.8980   33.8380 H   0  0  0  0  0  0  0  0  0  0  0  0
   36.6800   26.0990   32.4600 C   0  0  0  0  0  3  0  0  0  0  0  0
   36.1990   24.9710   31.8260 C   0  0  0  0  0  0  0  0  0  0  0  0
   34.8620   25.1600   30.7090 Cl  0  0  0  0  0  0  0  0  0  0  0  0
   36.7830   23.7500   32.0940 C   0  0  0  0  0  0  0  0  0  0  0  0
   36.4080   22.8660   31.5990 H   0  0  0  0  0  0  0  0  0  0  0  0
   37.9390   24.2010   37.9690 C   0  0  0  0  0  0  0  0  0  0  0  0
   38.1330   24.6840   36.6730 C   0  0  0  0  0  0  0  0  0  0  0  0
   39.2000   24.1990   35.9270 C   0  0  0  0  0  0  0  0  0  0  0  0
   40.0010   23.2750   36.5050 N   0  0  0  0  0  0  0  0  0  0  0  0
   39.7870   22.8260   37.7660 C   0  0  0  0  0  0  0  0  0  0  0  0
   38.7660   23.2820   38.4960 N   0  0  0  0  0  0  0  0  0  0  0  0
   37.0770   24.6480   38.4580 H   0  0  0  0  0  0  0  0  0  0  0  0
   37.4840   25.4270   36.2160 H   0  0  0  0  0  0  0  0  0  0  0  0
   40.4650   22.0720   38.1980 H   0  0  0  0  0  0  0  0  0  0  0  0
  1 15  1  0  0  0  0
  2  1  2  0  0  0  0
  4  3  1  0  0  0  0
  4  5  1  0  0  0  0
  5  1  1  0  0  0  0
  6  5  2  0  0  0  0
  6  7  1  0  0  0  0
  8  6  1  0  0  0  0
  9 11  1  0  0  0  0
  9  8  2  0  0  0  0
 10  9  1  0  0  0  0
 11  4  2  0  0  0  0
 12 11  1  0  0  0  0
 13 19  1  0  0  0  0
 13 18  1  0  0  0  0
 14 13  2  0  0  0  0
 15 16  2  0  0  0  0
 15 14  1  0  0  0  0
 16 17  1  0  0  0  0
 17 21  1  0  0  0  0
 17 18  2  0  0  0  0
 20 14  1  0  0  0  0
M  END
>  <minimizedAffinity>
-4.39386511

$$$$

 OpenBabel03272501313D

 21 22  0  0  0  0  0  0  0  0999 V2000
   38.4230   26.5860   35.2240 C   0  0  0  0  0  0  0  0  0  0  0  0
   38.9170   27.4100   36.0230 O   0  0  0  0  0  0  0  0  0  0  0  0
   40.6220   26.5960   33.1660 Cl  0  0  0  0  0  0  0  0  0  0  0  0
   38.9630   27.1130   32.8920 C   0  0  0  0  0  0  0  0  0  0  0  0
   38.0270   27.0690   33.9060 C   0  0  0  0  0  0  0  0  0  0  0  0
   36.7630   27.5000   33.5640 C   0  0  0  0  0  0  0  0  0  0  0  0
   36.0040   27.4790   34.3300 H   0  0  0  0  0  0  0  0  0  0  0  0
   36.4480   27.9450   32.2980 C   0  0  0  0  0  3  0  0  0  0  0  0
   37.4070   27.9760   31.3060 C   0  0  0  0  0  0  0  0  0  0  0  0
   36.9350   28.5550   29.7210 Cl  0  0  0  0  0  0  0  0  0  0  0  0
   38.6890   27.5550   31.5980 C   0  0  0  0  0  0  0  0  0  0  0  0
   39.4410   27.5790   30.8230 H   0  0  0  0  0  0  0  0  0  0  0  0
   37.8410   23.4110   37.1180 C   0  0  0  0  0  0  0  0  0  0  0  0
   38.0170   24.7730   36.8640 C   0  0  0  0  0  0  0  0  0  0  0  0
   38.2330   25.1920   35.5570 C   0  0  0  0  0  0  0  0  0  0  0  0
   38.2620   24.2460   34.5920 N   0  0  0  0  0  0  0  0  0  0  0  0
   38.0880   22.9300   34.8690 C   0  0  0  0  0  0  0  0  0  0  0  0
   37.8790   22.5110   36.1190 N   0  0  0  0  0  0  0  0  0  0  0  0
   37.6800   23.1980   38.1710 H   0  0  0  0  0  0  0  0  0  0  0  0
   37.9920   25.5270   37.6480 H   0  0  0  0  0  0  0  0  0  0  0  0
   38.1190   22.1930   34.0510 H   0  0  0  0  0  0  0  0  0  0  0  0
  1 15  1  0  0  0  0
  1  2  2  0  0  0  0
  4  3  1  0  0  0  0
  4  5  1  0  0  0  0
  5  1  1  0  0  0  0
  6  5  2  0  0  0  0
  6  7  1  0  0  0  0
  8  6  1  0  0  0  0
  9 11  1  0  0  0  0
  9  8  2  0  0  0  0
 10  9  1  0  0  0  0
 11  4  2  0  0  0  0
 12 11  1  0  0  0  0
 13 19  1  0  0  0  0
 14 13  1  0  0  0  0
 14 20  1  0  0  0  0
 15 14  2  0  0  0  0
 16 17  2  0  0  0  0
 16 15  1  0  0  0  0
 17 18  1  0  0  0  0
 18 13  2  0  0  0  0
 21 17  1  0  0  0  0
M  END
>  <minimizedAffinity>
-4.35005808

$$$$

 OpenBabel03272501313D

 21 22  0  0  0  0  0  0  0  0999 V2000
   39.4700   24.1380   34.4720 C   0  0  0  0  0  0  0  0  0  0  0  0
   40.4420   23.6270   33.8760 O   0  0  0  0  0  0  0  0  0  0  0  0
   40.1960   27.0600   34.5580 Cl  0  0  0  0  0  0  0  0  0  0  0  0
   38.8330   26.3700   33.6860 C   0  0  0  0  0  0  0  0  0  0  0  0
   38.5860   25.0130   33.7110 C   0  0  0  0  0  0  0  0  0  0  0  0
   37.4870   24.5970   32.9870 C   0  0  0  0  0  0  0  0  0  0  0  0
   37.2630   23.5420   32.9820 H   0  0  0  0  0  0  0  0  0  0  0  0
   36.6880   25.4730   32.2850 C   0  0  0  0  0  3  0  0  0  0  0  0
   36.9630   26.8250   32.2800 C   0  0  0  0  0  0  0  0  0  0  0  0
   35.9020   27.8790   31.3660 Cl  0  0  0  0  0  0  0  0  0  0  0  0
   38.0510   27.2920   32.9900 C   0  0  0  0  0  0  0  0  0  0  0  0
   38.2670   28.3500   32.9880 H   0  0  0  0  0  0  0  0  0  0  0  0
   37.8810   24.1620   37.8610 C   0  0  0  0  0  0  0  0  0  0  0  0
   38.0870   24.4370   36.5070 C   0  0  0  0  0  0  0  0  0  0  0  0
   39.1960   23.8940   35.8710 C   0  0  0  0  0  0  0  0  0  0  0  0
   40.0250   23.1200   36.6080 N   0  0  0  0  0  0  0  0  0  0  0  0
   39.7990   22.8710   37.9210 C   0  0  0  0  0  0  0  0  0  0  0  0
   38.7380   23.3850   38.5470 N   0  0  0  0  0  0  0  0  0  0  0  0
   36.9860   24.6360   38.2540 H   0  0  0  0  0  0  0  0  0  0  0  0
   37.4140   25.0610   35.9230 H   0  0  0  0  0  0  0  0  0  0  0  0
   40.5010   22.2340   38.4820 H   0  0  0  0  0  0  0  0  0  0  0  0
  1 15  1  0  0  0  0
  2  1  2  0  0  0  0
  4  5  1  0  0  0  0
  4  3  1  0  0  0  0
  5  1  1  0  0  0  0
  6  5  2  0  0  0  0
  7  6  1  0  0  0  0
  8  6  1  0  0  0  0
  9  8  2  0  0  0  0
  9 11  1  0  0  0  0
 10  9  1  0  0  0  0
 11  4  2  0  0  0  0
 12 11  1  0  0  0  0
 13 19  1  0  0  0  0
 13 18  1  0  0  0  0
 14 13  2  0  0  0  0
 15 14  1  0  0  0  0
 15 16  2  0  0  0  0
 16 17  1  0  0  0  0
 17 21  1  0  0  0  0
 17 18  2  0  0  0  0
 20 14  1  0  0  0  0
M  END
>  <minimizedAffinity>
-4.28280735

$$$$

 OpenBabel03272501313D

 21 22  0  0  0  0  0  0  0  0999 V2000
   38.5140   25.1800   33.0160 C   0  0  0  0  0  0  0  0  0  0  0  0
   39.5940   25.5650   32.5170 O   0  0  0  0  0  0  0  0  0  0  0  0
   39.6440   22.4310   33.5050 Cl  0  0  0  0  0  0  0  0  0  0  0  0
   39.0190   23.5150   34.7430 C   0  0  0  0  0  0  0  0  0  0  0  0
   38.5210   24.7590   34.4120 C   0  0  0  0  0  0  0  0  0  0  0  0
   38.0610   25.5130   35.4720 C   0  0  0  0  0  0  0  0  0  0  0  0
   37.6650   26.4920   35.2520 H   0  0  0  0  0  0  0  0  0  0  0  0
   38.0930   25.0610   36.7730 C   0  0  0  0  0  3  0  0  0  0  0  0
   38.5980   23.8110   37.0700 C   0  0  0  0  0  0  0  0  0  0  0  0
   38.6080   23.3030   38.7460 Cl  0  0  0  0  0  0  0  0  0  0  0  0
   39.0710   23.0170   36.0440 C   0  0  0  0  0  0  0  0  0  0  0  0
   39.4660   22.0380   36.2740 H   0  0  0  0  0  0  0  0  0  0  0  0
   35.4750   23.9710   31.1970 C   0  0  0  0  0  0  0  0  0  0  0  0
   36.6690   23.9400   31.9210 C   0  0  0  0  0  0  0  0  0  0  0  0
   37.2780   25.1390   32.2670 C   0  0  0  0  0  0  0  0  0  0  0  0
   36.6740   26.2850   31.8770 N   0  0  0  0  0  0  0  0  0  0  0  0
   35.5150   26.2830   31.1740 C   0  0  0  0  0  0  0  0  0  0  0  0
   34.9170   25.1390   30.8340 N   0  0  0  0  0  0  0  0  0  0  0  0
   35.0890   22.9780   30.9820 H   0  0  0  0  0  0  0  0  0  0  0  0
   37.1470   23.0130   32.2300 H   0  0  0  0  0  0  0  0  0  0  0  0
   35.0570   27.2400   30.8780 H   0  0  0  0  0  0  0  0  0  0  0  0
  1  5  1  0  0  0  0
  2  1  2  0  0  0  0
  3  4  1  0  0  0  0
  4 11  1  0  0  0  0
  5  4  2  0  0  0  0
  5  6  1  0  0  0  0
  6  8  2  0  0  0  0
  7  6  1  0  0  0  0
  8  9  1  0  0  0  0
  9 10  1  0  0  0  0
 11 12  1  0  0  0  0
 11  9  2  0  0  0  0
 13 14  1  0  0  0  0
 14 20  1  0  0  0  0
 14 15  2  0  0  0  0
 15  1  1  0  0  0  0
 16 15  1  0  0  0  0
 17 16  2  0  0  0  0
 18 17  1  0  0  0  0
 18 13  2  0  0  0  0
 19 13  1  0  0  0  0
 21 17  1  0  0  0  0
M  END
>  <minimizedAffinity>
-4.27802324

$$$$

 OpenBabel03272501313D

 21 22  0  0  0  0  0  0  0  0999 V2000
   38.7030   26.4640   35.4530 C   0  0  0  0  0  0  0  0  0  0  0  0
   38.2170   27.4260   36.0850 O   0  0  0  0  0  0  0  0  0  0  0  0
   37.4470   27.0380   32.7760 Cl  0  0  0  0  0  0  0  0  0  0  0  0
   39.1730   27.0360   33.1160 C   0  0  0  0  0  0  0  0  0  0  0  0
   39.6480   26.7590   34.3820 C   0  0  0  0  0  0  0  0  0  0  0  0
   41.0200   26.7890   34.5200 C   0  0  0  0  0  0  0  0  0  0  0  0
   41.4280   26.5790   35.4950 H   0  0  0  0  0  0  0  0  0  0  0  0
   41.8640   27.0760   33.4690 C   0  0  0  0  0  3  0  0  0  0  0  0
   41.3570   27.3490   32.2150 C   0  0  0  0  0  0  0  0  0  0  0  0
   42.4900   27.7050   30.9270 Cl  0  0  0  0  0  0  0  0  0  0  0  0
   39.9900   27.3310   32.0250 C   0  0  0  0  0  0  0  0  0  0  0  0
   39.5910   27.5440   31.0440 H   0  0  0  0  0  0  0  0  0  0  0  0
   37.6780   23.3330   37.2290 C   0  0  0  0  0  0  0  0  0  0  0  0
   37.9930   24.6770   37.0170 C   0  0  0  0  0  0  0  0  0  0  0  0
   38.3640   25.0880   35.7430 C   0  0  0  0  0  0  0  0  0  0  0  0
   38.4000   24.1530   34.7670 N   0  0  0  0  0  0  0  0  0  0  0  0
   38.0890   22.8550   35.0040 C   0  0  0  0  0  0  0  0  0  0  0  0
   37.7300   22.4430   36.2230 N   0  0  0  0  0  0  0  0  0  0  0  0
   37.4020   23.1250   38.2600 H   0  0  0  0  0  0  0  0  0  0  0  0
   37.9600   25.4230   37.8080 H   0  0  0  0  0  0  0  0  0  0  0  0
   38.1320   22.1260   34.1790 H   0  0  0  0  0  0  0  0  0  0  0  0
  1 15  1  0  0  0  0
  1  2  2  0  0  0  0
  3  4  1  0  0  0  0
  4  5  1  0  0  0  0
  5  6  2  0  0  0  0
  5  1  1  0  0  0  0
  6  7  1  0  0  0  0
  8  6  1  0  0  0  0
  9  8  2  0  0  0  0
 10  9  1  0  0  0  0
 11  9  1  0  0  0  0
 11  4  2  0  0  0  0
 12 11  1  0  0  0  0
 13 19  1  0  0  0  0
 14 13  1  0  0  0  0
 14 20  1  0  0  0  0
 15 14  2  0  0  0  0
 16 17  2  0  0  0  0
 16 15  1  0  0  0  0
 17 18  1  0  0  0  0
 18 13  2  0  0  0  0
 21 17  1  0  0  0  0
M  END
>  <minimizedAffinity>
-4.2618556

$$$$
