
 OpenBabel03272500093D

 40 43  0  0  0  0  0  0  0  0999 V2000
   35.4550   28.2460   32.4910 O   0  0  0  0  0  0  0  0  0  0  0  0
   35.9710   29.3750   31.8540 C   0  0  0  0  0  0  0  0  0  0  0  0
   36.5970   29.1190   30.6540 C   0  0  0  0  0  0  0  0  0  0  0  0
   37.1510   30.1460   29.9220 C   0  0  0  0  0  0  0  0  0  0  0  0
   37.0660   31.4560   30.4210 C   0  0  0  0  0  0  0  0  0  0  0  0
   36.4380   31.6950   31.6200 C   0  0  0  0  0  0  0  0  0  0  0  0
   35.8990   30.6610   32.3250 C   0  0  0  0  0  0  0  0  0  0  0  0
   36.6830   28.1260   30.2370 H   0  0  0  0  0  0  0  0  0  0  0  0
   37.6460   29.9250   28.9690 H   0  0  0  0  0  0  0  0  0  0  0  0
   37.5080   32.2340   29.8250 H   0  0  0  0  0  0  0  0  0  0  0  0
   36.4070   32.7190   31.9450 H   0  0  0  0  0  0  0  0  0  0  0  0
   33.0130   30.8850   31.8560 Cl  0  0  0  0  0  0  0  0  0  0  0  0
   33.8570   31.0160   33.3920 C   0  0  0  0  0  0  0  0  0  0  0  0
   35.2360   30.9090   33.5990 C   0  0  0  0  0  0  0  0  0  0  0  0
   35.7220   31.0410   34.8830 C   0  0  0  0  0  0  0  0  0  0  0  0
   36.7950   30.9350   34.8960 H   0  0  0  0  0  0  0  0  0  0  0  0
   34.8490   31.2720   35.9240 C   0  0  0  0  0  3  0  0  0  0  0  0
   33.4950   31.3800   35.7400 C   0  0  0  0  0  0  0  0  0  0  0  0
   32.5250   31.6760   37.1700 Cl  0  0  0  0  0  0  0  0  0  0  0  0
   32.9940   31.2520   34.4660 C   0  0  0  0  0  0  0  0  0  0  0  0
   31.9200   31.3460   34.3840 H   0  0  0  0  0  0  0  0  0  0  0  0
   37.5470   25.4360   33.3020 C   0  0  0  0  0  0  0  0  0  0  0  0
   38.2090   25.8580   34.4580 C   0  0  0  0  0  0  0  0  0  0  0  0
   37.9130   27.1290   34.9420 C   0  0  0  0  0  0  0  0  0  0  0  0
   37.0000   27.8840   34.2660 N   0  0  0  0  0  0  0  0  0  0  0  0
   36.3840   27.4560   33.1650 C   0  0  0  0  0  0  0  0  0  0  0  0
   36.6530   26.2150   32.6670 N   0  0  0  0  0  0  0  0  0  0  0  0
   37.7280   24.4570   32.8690 H   0  0  0  0  0  0  0  0  0  0  0  0
   38.4240   27.4450   35.8270 H   0  0  0  0  0  0  0  0  0  0  0  0
   39.1410   24.9760   35.0670 N   0  0  0  0  0  0  0  0  0  0  0  0
   40.3980   24.8660   34.6480 C   0  0  0  0  0  0  0  0  0  0  0  0
   41.2500   23.9800   35.2960 C   0  0  0  0  0  0  0  0  0  0  0  0
   40.7170   23.2810   36.3290 C   0  0  0  0  0  0  0  0  0  0  0  0
   41.4950   22.4730   36.9190 O   0  0  0  0  0  0  0  0  0  0  0  0
   39.4660   23.3630   36.7760 N   0  0  0  0  0  0  0  0  0  0  0  0
   38.6550   24.2380   36.1230 C   0  0  0  0  0  0  0  0  0  0  0  0
   37.4580   24.3300   36.5370 O   0  0  0  0  0  0  0  0  0  0  0  0
   40.7680   25.4520   33.8170 H   0  0  0  0  0  0  0  0  0  0  0  0
   42.2890   23.8560   34.9890 H   0  0  0  0  0  0  0  0  0  0  0  0
   39.1040   22.8000   37.5780 H   0  0  0  0  0  0  0  0  0  0  0  0
  1 26  1  0  0  0  0
  2  7  1  0  0  0  0
  2  1  1  0  0  0  0
  3  2  2  0  0  0  0
  4  5  2  0  0  0  0
  4  3  1  0  0  0  0
  5  6  1  0  0  0  0
  6 11  1  0  0  0  0
  6  7  2  0  0  0  0
  7 14  1  0  0  0  0
  8  3  1  0  0  0  0
  9  4  1  0  0  0  0
 10  5  1  0  0  0  0
 12 13  1  0  0  0  0
 13 14  2  0  0  0  0
 13 20  1  0  0  0  0
 14 15  1  0  0  0  0
 15 16  1  0  0  0  0
 15 17  2  0  0  0  0
 18 17  1  0  0  0  0
 18 19  1  0  0  0  0
 20 18  2  0  0  0  0
 21 20  1  0  0  0  0
 22 23  1  0  0  0  0
 23 24  2  0  0  0  0
 23 30  1  0  0  0  0
 24 29  1  0  0  0  0
 25 24  1  0  0  0  0
 26 25  2  0  0  0  0
 27 26  1  0  0  0  0
 27 22  2  0  0  0  0
 28 22  1  0  0  0  0
 30 36  1  0  0  0  0
 31 30  1  0  0  0  0
 31 32  2  0  0  0  0
 32 33  1  0  0  0  0
 33 35  1  0  0  0  0
 33 34  2  0  0  0  0
 35 40  1  0  0  0  0
 36 37  2  0  0  0  0
 36 35  1  0  0  0  0
 38 31  1  0  0  0  0
 39 32  1  0  0  0  0
M  END
>  <minimizedAffinity>
-6.16747761

$$$$

 OpenBabel03272500093D

 40 43  0  0  0  0  0  0  0  0999 V2000
   36.8120   28.0190   33.3330 O   0  0  0  0  0  0  0  0  0  0  0  0
   36.6550   28.9530   32.3080 C   0  0  0  0  0  0  0  0  0  0  0  0
   37.2500   28.6020   31.1170 C   0  0  0  0  0  0  0  0  0  0  0  0
   37.1710   29.4340   30.0230 C   0  0  0  0  0  0  0  0  0  0  0  0
   36.4730   30.6470   30.1450 C   0  0  0  0  0  0  0  0  0  0  0  0
   35.8840   30.9840   31.3410 C   0  0  0  0  0  0  0  0  0  0  0  0
   35.9780   30.1420   32.4070 C   0  0  0  0  0  0  0  0  0  0  0  0
   37.7950   27.6780   30.9840 H   0  0  0  0  0  0  0  0  0  0  0  0
   37.6500   29.1390   29.0830 H   0  0  0  0  0  0  0  0  0  0  0  0
   36.4290   31.2740   29.2730 H   0  0  0  0  0  0  0  0  0  0  0  0
   35.3660   31.9250   31.3660 H   0  0  0  0  0  0  0  0  0  0  0  0
   33.2810   28.9960   32.4930 Cl  0  0  0  0  0  0  0  0  0  0  0  0
   34.0720   29.9550   33.7360 C   0  0  0  0  0  0  0  0  0  0  0  0
   35.3600   30.4980   33.6780 C   0  0  0  0  0  0  0  0  0  0  0  0
   35.8150   31.2280   34.7560 C   0  0  0  0  0  0  0  0  0  0  0  0
   36.8180   31.5830   34.5780 H   0  0  0  0  0  0  0  0  0  0  0  0
   35.0020   31.4060   35.8540 C   0  0  0  0  0  3  0  0  0  0  0  0
   33.7380   30.8830   35.9280 C   0  0  0  0  0  0  0  0  0  0  0  0
   32.8340   31.2030   37.3950 Cl  0  0  0  0  0  0  0  0  0  0  0  0
   33.2680   30.1520   34.8620 C   0  0  0  0  0  0  0  0  0  0  0  0
   32.2640   29.7650   34.9780 H   0  0  0  0  0  0  0  0  0  0  0  0
   35.8300   25.0220   31.6060 C   0  0  0  0  0  0  0  0  0  0  0  0
   36.6950   24.0580   32.1290 C   0  0  0  0  0  0  0  0  0  0  0  0
   37.6160   24.4710   33.0870 C   0  0  0  0  0  0  0  0  0  0  0  0
   37.6220   25.7830   33.4570 N   0  0  0  0  0  0  0  0  0  0  0  0
   36.7870   26.6830   32.9400 C   0  0  0  0  0  0  0  0  0  0  0  0
   35.8720   26.3070   32.0000 N   0  0  0  0  0  0  0  0  0  0  0  0
   35.0860   24.7710   30.8550 H   0  0  0  0  0  0  0  0  0  0  0  0
   38.2740   23.7260   33.4840 H   0  0  0  0  0  0  0  0  0  0  0  0
   36.5870   22.7220   31.6580 N   0  0  0  0  0  0  0  0  0  0  0  0
   35.5610   21.9370   31.9700 C   0  0  0  0  0  0  0  0  0  0  0  0
   35.5260   20.6410   31.4680 C   0  0  0  0  0  0  0  0  0  0  0  0
   36.5680   20.2730   30.6810 C   0  0  0  0  0  0  0  0  0  0  0  0
   36.5360   19.0920   30.2250 O   0  0  0  0  0  0  0  0  0  0  0  0
   37.6110   21.0300   30.3480 N   0  0  0  0  0  0  0  0  0  0  0  0
   37.6190   22.2930   30.8530 C   0  0  0  0  0  0  0  0  0  0  0  0
   38.6060   23.0290   30.5440 O   0  0  0  0  0  0  0  0  0  0  0  0
   34.7570   22.2860   32.6030 H   0  0  0  0  0  0  0  0  0  0  0  0
   34.7050   19.9600   31.6970 H   0  0  0  0  0  0  0  0  0  0  0  0
   38.3910   20.6980   29.7370 H   0  0  0  0  0  0  0  0  0  0  0  0
  2  7  1  0  0  0  0
  2  1  1  0  0  0  0
  3  2  2  0  0  0  0
  4  5  2  0  0  0  0
  4  3  1  0  0  0  0
  5  6  1  0  0  0  0
  6 11  1  0  0  0  0
  6  7  2  0  0  0  0
  7 14  1  0  0  0  0
  8  3  1  0  0  0  0
  9  4  1  0  0  0  0
 10  5  1  0  0  0  0
 12 13  1  0  0  0  0
 13 20  1  0  0  0  0
 14 13  2  0  0  0  0
 14 15  1  0  0  0  0
 15 17  2  0  0  0  0
 16 15  1  0  0  0  0
 17 18  1  0  0  0  0
 18 19  1  0  0  0  0
 20 21  1  0  0  0  0
 20 18  2  0  0  0  0
 22 27  2  0  0  0  0
 22 23  1  0  0  0  0
 23 24  2  0  0  0  0
 24 25  1  0  0  0  0
 24 29  1  0  0  0  0
 26  1  1  0  0  0  0
 26 25  2  0  0  0  0
 27 26  1  0  0  0  0
 28 22  1  0  0  0  0
 30 31  1  0  0  0  0
 30 23  1  0  0  0  0
 31 38  1  0  0  0  0
 32 39  1  0  0  0  0
 32 31  2  0  0  0  0
 33 32  1  0  0  0  0
 34 33  2  0  0  0  0
 35 33  1  0  0  0  0
 35 36  1  0  0  0  0
 36 30  1  0  0  0  0
 37 36  2  0  0  0  0
 40 35  1  0  0  0  0
M  END
>  <minimizedAffinity>
-6.10220575

$$$$

 OpenBabel03272500093D

 40 43  0  0  0  0  0  0  0  0999 V2000
   37.5680   23.1250   31.2510 O   0  0  0  0  0  0  0  0  0  0  0  0
   36.8250   22.2060   31.9940 C   0  0  0  0  0  0  0  0  0  0  0  0
   35.7580   21.6550   31.3200 C   0  0  0  0  0  0  0  0  0  0  0  0
   34.9420   20.7330   31.9370 C   0  0  0  0  0  0  0  0  0  0  0  0
   35.2180   20.3670   33.2640 C   0  0  0  0  0  0  0  0  0  0  0  0
   36.2860   20.9260   33.9240 C   0  0  0  0  0  0  0  0  0  0  0  0
   37.0780   21.8360   33.2900 C   0  0  0  0  0  0  0  0  0  0  0  0
   35.5130   21.9110   30.2990 H   0  0  0  0  0  0  0  0  0  0  0  0
   34.0970   20.3040   31.3860 H   0  0  0  0  0  0  0  0  0  0  0  0
   34.5620   19.6450   33.7170 H   0  0  0  0  0  0  0  0  0  0  0  0
   36.4420   20.6020   34.9360 H   0  0  0  0  0  0  0  0  0  0  0  0
   39.5190   20.4030   32.5240 Cl  0  0  0  0  0  0  0  0  0  0  0  0
   39.3830   21.7630   33.6290 C   0  0  0  0  0  0  0  0  0  0  0  0
   38.2090   22.4350   33.9860 C   0  0  0  0  0  0  0  0  0  0  0  0
   38.2960   23.4860   34.8740 C   0  0  0  0  0  0  0  0  0  0  0  0
   37.3210   23.9110   35.0580 H   0  0  0  0  0  0  0  0  0  0  0  0
   39.5230   23.8500   35.3850 C   0  0  0  0  0  3  0  0  0  0  0  0
   40.6830   23.2040   35.0470 C   0  0  0  0  0  0  0  0  0  0  0  0
   42.1600   23.7910   35.7870 Cl  0  0  0  0  0  0  0  0  0  0  0  0
   40.6150   22.1530   34.1630 C   0  0  0  0  0  0  0  0  0  0  0  0
   41.5610   21.6830   33.9340 H   0  0  0  0  0  0  0  0  0  0  0  0
   35.5010   26.0550   30.9770 C   0  0  0  0  0  0  0  0  0  0  0  0
   36.3020   27.0600   31.5270 C   0  0  0  0  0  0  0  0  0  0  0  0
   37.5640   26.6960   31.9890 C   0  0  0  0  0  0  0  0  0  0  0  0
   37.9430   25.3910   31.8800 N   0  0  0  0  0  0  0  0  0  0  0  0
   37.1590   24.4530   31.3520 C   0  0  0  0  0  0  0  0  0  0  0  0
   35.9170   24.7790   30.8900 N   0  0  0  0  0  0  0  0  0  0  0  0
   34.5060   26.2670   30.5970 H   0  0  0  0  0  0  0  0  0  0  0  0
   38.1710   27.4710   32.4090 H   0  0  0  0  0  0  0  0  0  0  0  0
   35.7880   28.3820   31.5850 N   0  0  0  0  0  0  0  0  0  0  0  0
   34.9860   28.7930   32.5630 C   0  0  0  0  0  0  0  0  0  0  0  0
   34.5240   30.1030   32.5500 C   0  0  0  0  0  0  0  0  0  0  0  0
   34.9380   30.8770   31.5150 C   0  0  0  0  0  0  0  0  0  0  0  0
   34.5150   32.0710   31.5040 O   0  0  0  0  0  0  0  0  0  0  0  0
   35.7370   30.5010   30.5200 N   0  0  0  0  0  0  0  0  0  0  0  0
   36.1740   29.2130   30.5580 C   0  0  0  0  0  0  0  0  0  0  0  0
   36.9390   28.8390   29.6160 O   0  0  0  0  0  0  0  0  0  0  0  0
   34.6900   28.1300   33.3650 H   0  0  0  0  0  0  0  0  0  0  0  0
   33.8650   30.4860   33.3310 H   0  0  0  0  0  0  0  0  0  0  0  0
   36.0270   31.1370   29.7430 H   0  0  0  0  0  0  0  0  0  0  0  0
  1 26  1  0  0  0  0
  1  2  1  0  0  0  0
  2  7  1  0  0  0  0
  3  4  1  0  0  0  0
  3  2  2  0  0  0  0
  4  5  2  0  0  0  0
  5 10  1  0  0  0  0
  5  6  1  0  0  0  0
  6 11  1  0  0  0  0
  7  6  2  0  0  0  0
  7 14  1  0  0  0  0
  8  3  1  0  0  0  0
  9  4  1  0  0  0  0
 12 13  1  0  0  0  0
 13 14  2  0  0  0  0
 13 20  1  0  0  0  0
 14 15  1  0  0  0  0
 15 16  1  0  0  0  0
 15 17  2  0  0  0  0
 18 17  1  0  0  0  0
 18 19  1  0  0  0  0
 20 18  2  0  0  0  0
 21 20  1  0  0  0  0
 22 23  1  0  0  0  0
 23 30  1  0  0  0  0
 23 24  2  0  0  0  0
 24 29  1  0  0  0  0
 25 24  1  0  0  0  0
 26 25  2  0  0  0  0
 27 22  2  0  0  0  0
 27 26  1  0  0  0  0
 28 22  1  0  0  0  0
 30 31  1  0  0  0  0
 31 38  1  0  0  0  0
 32 31  2  0  0  0  0
 32 39  1  0  0  0  0
 33 32  1  0  0  0  0
 34 33  2  0  0  0  0
 35 36  1  0  0  0  0
 35 33  1  0  0  0  0
 36 30  1  0  0  0  0
 37 36  2  0  0  0  0
 40 35  1  0  0  0  0
M  END
>  <minimizedAffinity>
-5.9993577

$$$$

 OpenBabel03272500093D

 40 43  0  0  0  0  0  0  0  0999 V2000
   36.4890   27.6380   34.4910 O   0  0  0  0  0  0  0  0  0  0  0  0
   36.4180   28.3120   33.2710 C   0  0  0  0  0  0  0  0  0  0  0  0
   36.9130   27.6060   32.1970 C   0  0  0  0  0  0  0  0  0  0  0  0
   36.9030   28.1560   30.9340 C   0  0  0  0  0  0  0  0  0  0  0  0
   36.3800   29.4490   30.7640 C   0  0  0  0  0  0  0  0  0  0  0  0
   35.8900   30.1410   31.8460 C   0  0  0  0  0  0  0  0  0  0  0  0
   35.9120   29.5730   33.0840 C   0  0  0  0  0  0  0  0  0  0  0  0
   37.3230   26.6110   32.2880 H   0  0  0  0  0  0  0  0  0  0  0  0
   37.3000   27.5810   30.0910 H   0  0  0  0  0  0  0  0  0  0  0  0
   36.3870   29.8490   29.7650 H   0  0  0  0  0  0  0  0  0  0  0  0
   35.5040   31.1230   31.6460 H   0  0  0  0  0  0  0  0  0  0  0  0
   32.9970   29.2680   33.1670 Cl  0  0  0  0  0  0  0  0  0  0  0  0
   34.0070   30.1670   34.2890 C   0  0  0  0  0  0  0  0  0  0  0  0
   35.3980   30.3050   34.2350 C   0  0  0  0  0  0  0  0  0  0  0  0
   36.0240   31.0540   35.2090 C   0  0  0  0  0  0  0  0  0  0  0  0
   37.0910   31.0750   35.0450 H   0  0  0  0  0  0  0  0  0  0  0  0
   35.2770   31.6440   36.2040 C   0  0  0  0  0  3  0  0  0  0  0  0
   33.9140   31.5190   36.2740 C   0  0  0  0  0  0  0  0  0  0  0  0
   33.1130   32.3330   37.6040 Cl  0  0  0  0  0  0  0  0  0  0  0  0
   33.2730   30.7770   35.3110 C   0  0  0  0  0  0  0  0  0  0  0  0
   32.1990   30.7150   35.4180 H   0  0  0  0  0  0  0  0  0  0  0  0
   38.5370   24.6860   34.6340 C   0  0  0  0  0  0  0  0  0  0  0  0
   39.7880   25.1860   35.0040 C   0  0  0  0  0  0  0  0  0  0  0  0
   39.8990   26.5590   35.2000 C   0  0  0  0  0  0  0  0  0  0  0  0
   38.7900   27.3320   35.0220 N   0  0  0  0  0  0  0  0  0  0  0  0
   37.6090   26.8280   34.6680 C   0  0  0  0  0  0  0  0  0  0  0  0
   37.4690   25.4860   34.4690 N   0  0  0  0  0  0  0  0  0  0  0  0
   38.3770   23.6250   34.4650 H   0  0  0  0  0  0  0  0  0  0  0  0
   40.8600   26.9350   35.4840 H   0  0  0  0  0  0  0  0  0  0  0  0
   40.8660   24.2740   35.1550 N   0  0  0  0  0  0  0  0  0  0  0  0
   40.9810   23.4770   36.2130 C   0  0  0  0  0  0  0  0  0  0  0  0
   42.0650   22.6090   36.2890 C   0  0  0  0  0  0  0  0  0  0  0  0
   42.9390   22.6480   35.2520 C   0  0  0  0  0  0  0  0  0  0  0  0
   43.9270   21.8580   35.3230 O   0  0  0  0  0  0  0  0  0  0  0  0
   42.8570   23.4310   34.1800 N   0  0  0  0  0  0  0  0  0  0  0  0
   41.7860   24.2690   34.1320 C   0  0  0  0  0  0  0  0  0  0  0  0
   41.6920   25.0230   33.1140 O   0  0  0  0  0  0  0  0  0  0  0  0
   40.2510   23.4890   37.0110 H   0  0  0  0  0  0  0  0  0  0  0  0
   42.2020   21.9370   37.1360 H   0  0  0  0  0  0  0  0  0  0  0  0
   43.5590   23.4230   33.4060 H   0  0  0  0  0  0  0  0  0  0  0  0
  1 26  1  0  0  0  0
  2  1  1  0  0  0  0
  3  8  1  0  0  0  0
  3  2  2  0  0  0  0
  4  3  1  0  0  0  0
  5  4  2  0  0  0  0
  5  6  1  0  0  0  0
  6  7  2  0  0  0  0
  7  2  1  0  0  0  0
  7 14  1  0  0  0  0
  9  4  1  0  0  0  0
 10  5  1  0  0  0  0
 11  6  1  0  0  0  0
 12 13  1  0  0  0  0
 13 20  1  0  0  0  0
 14 13  2  0  0  0  0
 14 15  1  0  0  0  0
 15 17  2  0  0  0  0
 16 15  1  0  0  0  0
 17 18  1  0  0  0  0
 18 19  1  0  0  0  0
 20 21  1  0  0  0  0
 20 18  2  0  0  0  0
 22 23  1  0  0  0  0
 23 30  1  0  0  0  0
 23 24  2  0  0  0  0
 24 29  1  0  0  0  0
 25 24  1  0  0  0  0
 26 25  2  0  0  0  0
 27 22  2  0  0  0  0
 27 26  1  0  0  0  0
 28 22  1  0  0  0  0
 30 31  1  0  0  0  0
 31 32  2  0  0  0  0
 31 38  1  0  0  0  0
 32 39  1  0  0  0  0
 33 34  2  0  0  0  0
 33 32  1  0  0  0  0
 35 33  1  0  0  0  0
 36 35  1  0  0  0  0
 36 30  1  0  0  0  0
 37 36  2  0  0  0  0
 40 35  1  0  0  0  0
M  END
>  <minimizedAffinity>
-5.98765469

$$$$

 OpenBabel03272500093D

 40 43  0  0  0  0  0  0  0  0999 V2000
   38.3380   25.5030   32.8210 O   0  0  0  0  0  0  0  0  0  0  0  0
   39.5830   25.9910   33.2220 C   0  0  0  0  0  0  0  0  0  0  0  0
   40.1850   26.8360   32.3170 C   0  0  0  0  0  0  0  0  0  0  0  0
   41.4160   27.3900   32.5880 C   0  0  0  0  0  0  0  0  0  0  0  0
   42.0460   27.0750   33.8040 C   0  0  0  0  0  0  0  0  0  0  0  0
   41.4320   26.2300   34.6970 C   0  0  0  0  0  0  0  0  0  0  0  0
   40.2140   25.6970   34.4040 C   0  0  0  0  0  0  0  0  0  0  0  0
   39.7330   27.1020   31.3720 H   0  0  0  0  0  0  0  0  0  0  0  0
   41.8810   28.0610   31.8570 H   0  0  0  0  0  0  0  0  0  0  0  0
   43.0060   27.5240   33.9860 H   0  0  0  0  0  0  0  0  0  0  0  0
   41.9670   26.0320   35.6080 H   0  0  0  0  0  0  0  0  0  0  0  0
   38.5850   27.2870   36.2510 Cl  0  0  0  0  0  0  0  0  0  0  0  0
   38.7780   25.5400   36.2330 C   0  0  0  0  0  0  0  0  0  0  0  0
   39.5620   24.7950   35.3460 C   0  0  0  0  0  0  0  0  0  0  0  0
   39.5910   23.4240   35.4850 C   0  0  0  0  0  0  0  0  0  0  0  0
   40.2300   22.9800   34.7370 H   0  0  0  0  0  0  0  0  0  0  0  0
   38.8580   22.8210   36.4830 C   0  0  0  0  0  3  0  0  0  0  0  0
   38.0840   23.5340   37.3620 C   0  0  0  0  0  0  0  0  0  0  0  0
   37.2130   22.6150   38.5740 Cl  0  0  0  0  0  0  0  0  0  0  0  0
   38.0430   24.9030   37.2380 C   0  0  0  0  0  0  0  0  0  0  0  0
   37.4170   25.4110   37.9590 H   0  0  0  0  0  0  0  0  0  0  0  0
   36.2470   28.3840   33.3260 C   0  0  0  0  0  0  0  0  0  0  0  0
   35.4370   28.3910   32.1870 C   0  0  0  0  0  0  0  0  0  0  0  0
   35.6350   27.3800   31.2520 C   0  0  0  0  0  0  0  0  0  0  0  0
   36.5990   26.4480   31.4970 N   0  0  0  0  0  0  0  0  0  0  0  0
   37.3580   26.4660   32.5920 C   0  0  0  0  0  0  0  0  0  0  0  0
   37.1870   27.4440   33.5280 N   0  0  0  0  0  0  0  0  0  0  0  0
   36.1480   29.1420   34.0980 H   0  0  0  0  0  0  0  0  0  0  0  0
   35.0110   27.3920   30.3820 H   0  0  0  0  0  0  0  0  0  0  0  0
   34.4690   29.4210   32.0500 N   0  0  0  0  0  0  0  0  0  0  0  0
   33.3080   29.3980   32.6960 C   0  0  0  0  0  0  0  0  0  0  0  0
   32.4110   30.4440   32.5100 C   0  0  0  0  0  0  0  0  0  0  0  0
   32.8030   31.4280   31.6630 C   0  0  0  0  0  0  0  0  0  0  0  0
   31.9860   32.3800   31.4930 O   0  0  0  0  0  0  0  0  0  0  0  0
   33.9550   31.4850   30.9990 N   0  0  0  0  0  0  0  0  0  0  0  0
   34.8130   30.4480   31.2000 C   0  0  0  0  0  0  0  0  0  0  0  0
   35.9180   30.4870   30.5750 O   0  0  0  0  0  0  0  0  0  0  0  0
   33.0490   28.5850   33.3620 H   0  0  0  0  0  0  0  0  0  0  0  0
   31.4470   30.4690   33.0190 H   0  0  0  0  0  0  0  0  0  0  0  0
   34.2100   32.2670   30.3550 H   0  0  0  0  0  0  0  0  0  0  0  0
  1  2  1  0  0  0  0
  2  7  1  0  0  0  0
  3  4  1  0  0  0  0
  3  2  2  0  0  0  0
  4  5  2  0  0  0  0
  5 10  1  0  0  0  0
  5  6  1  0  0  0  0
  6 11  1  0  0  0  0
  7  6  2  0  0  0  0
  7 14  1  0  0  0  0
  8  3  1  0  0  0  0
  9  4  1  0  0  0  0
 13 12  1  0  0  0  0
 13 20  1  0  0  0  0
 14 15  1  0  0  0  0
 14 13  2  0  0  0  0
 15 17  2  0  0  0  0
 16 15  1  0  0  0  0
 17 18  1  0  0  0  0
 18 19  1  0  0  0  0
 20 18  2  0  0  0  0
 20 21  1  0  0  0  0
 22 27  1  0  0  0  0
 22 28  1  0  0  0  0
 23 22  2  0  0  0  0
 24 25  2  0  0  0  0
 24 23  1  0  0  0  0
 25 26  1  0  0  0  0
 26  1  1  0  0  0  0
 26 27  2  0  0  0  0
 29 24  1  0  0  0  0
 30 23  1  0  0  0  0
 30 31  1  0  0  0  0
 31 38  1  0  0  0  0
 32 31  2  0  0  0  0
 32 39  1  0  0  0  0
 33 32  1  0  0  0  0
 34 33  2  0  0  0  0
 35 36  1  0  0  0  0
 35 33  1  0  0  0  0
 36 30  1  0  0  0  0
 37 36  2  0  0  0  0
 40 35  1  0  0  0  0
M  END
>  <minimizedAffinity>
-5.90594864

$$$$

 OpenBabel03272500093D

 40 43  0  0  0  0  0  0  0  0999 V2000
   37.5900   26.9140   31.5410 O   0  0  0  0  0  0  0  0  0  0  0  0
   37.1140   25.6040   31.6170 C   0  0  0  0  0  0  0  0  0  0  0  0
   35.8260   25.4350   31.1600 C   0  0  0  0  0  0  0  0  0  0  0  0
   35.2350   24.1910   31.1790 C   0  0  0  0  0  0  0  0  0  0  0  0
   35.9700   23.1000   31.6730 C   0  0  0  0  0  0  0  0  0  0  0  0
   37.2550   23.2850   32.1260 C   0  0  0  0  0  0  0  0  0  0  0  0
   37.8150   24.5260   32.0950 C   0  0  0  0  0  0  0  0  0  0  0  0
   35.2300   26.2480   30.7730 H   0  0  0  0  0  0  0  0  0  0  0  0
   34.2100   24.0740   30.8120 H   0  0  0  0  0  0  0  0  0  0  0  0
   35.4800   22.1430   31.6740 H   0  0  0  0  0  0  0  0  0  0  0  0
   37.7610   22.4100   32.4890 H   0  0  0  0  0  0  0  0  0  0  0  0
   37.7740   24.5710   35.0270 Cl  0  0  0  0  0  0  0  0  0  0  0  0
   39.1720   24.7490   33.9770 C   0  0  0  0  0  0  0  0  0  0  0  0
   39.1760   24.7280   32.5790 C   0  0  0  0  0  0  0  0  0  0  0  0
   40.3770   24.8850   31.9210 C   0  0  0  0  0  0  0  0  0  0  0  0
   40.2330   24.8470   30.8520 H   0  0  0  0  0  0  0  0  0  0  0  0
   41.5360   25.0580   32.6450 C   0  0  0  0  0  3  0  0  0  0  0  0
   41.5530   25.0820   34.0150 C   0  0  0  0  0  0  0  0  0  0  0  0
   43.1120   25.3120   34.7830 Cl  0  0  0  0  0  0  0  0  0  0  0  0
   40.3630   24.9270   34.6880 C   0  0  0  0  0  0  0  0  0  0  0  0
   40.4390   24.9550   35.7660 H   0  0  0  0  0  0  0  0  0  0  0  0
   36.3380   28.4410   34.5460 C   0  0  0  0  0  0  0  0  0  0  0  0
   35.7370   29.6130   34.0790 C   0  0  0  0  0  0  0  0  0  0  0  0
   35.7770   29.8550   32.7090 C   0  0  0  0  0  0  0  0  0  0  0  0
   36.3960   28.9420   31.9070 N   0  0  0  0  0  0  0  0  0  0  0  0
   36.9620   27.8330   32.3800 C   0  0  0  0  0  0  0  0  0  0  0  0
   36.9380   27.5680   33.7180 N   0  0  0  0  0  0  0  0  0  0  0  0
   36.3450   28.1880   35.6020 H   0  0  0  0  0  0  0  0  0  0  0  0
   35.3140   30.7540   32.3590 H   0  0  0  0  0  0  0  0  0  0  0  0
   35.1270   30.4840   35.0200 N   0  0  0  0  0  0  0  0  0  0  0  0
   35.8170   31.3910   35.7030 C   0  0  0  0  0  0  0  0  0  0  0  0
   35.1480   32.2080   36.6070 C   0  0  0  0  0  0  0  0  0  0  0  0
   33.8100   32.0090   36.7210 C   0  0  0  0  0  0  0  0  0  0  0  0
   33.2010   32.7540   37.5450 O   0  0  0  0  0  0  0  0  0  0  0  0
   33.0870   31.1130   36.0550 N   0  0  0  0  0  0  0  0  0  0  0  0
   33.7680   30.3270   35.1780 C   0  0  0  0  0  0  0  0  0  0  0  0
   33.0920   29.4660   34.5330 O   0  0  0  0  0  0  0  0  0  0  0  0
   36.8840   31.5050   35.5700 H   0  0  0  0  0  0  0  0  0  0  0  0
   35.6710   32.9670   37.1900 H   0  0  0  0  0  0  0  0  0  0  0  0
   32.0560   30.9980   36.1800 H   0  0  0  0  0  0  0  0  0  0  0  0
  1  2  1  0  0  0  0
  1 26  1  0  0  0  0
  2  7  1  0  0  0  0
  3  4  1  0  0  0  0
  3  2  2  0  0  0  0
  4  5  2  0  0  0  0
  5 10  1  0  0  0  0
  5  6  1  0  0  0  0
  6 11  1  0  0  0  0
  7  6  2  0  0  0  0
  7 14  1  0  0  0  0
  8  3  1  0  0  0  0
  9  4  1  0  0  0  0
 13 20  1  0  0  0  0
 13 12  1  0  0  0  0
 14 13  2  0  0  0  0
 15 14  1  0  0  0  0
 15 17  2  0  0  0  0
 16 15  1  0  0  0  0
 17 18  1  0  0  0  0
 18 20  2  0  0  0  0
 18 19  1  0  0  0  0
 20 21  1  0  0  0  0
 22 28  1  0  0  0  0
 23 22  1  0  0  0  0
 23 30  1  0  0  0  0
 24 23  2  0  0  0  0
 25 26  2  0  0  0  0
 25 24  1  0  0  0  0
 26 27  1  0  0  0  0
 27 22  2  0  0  0  0
 29 24  1  0  0  0  0
 30 36  1  0  0  0  0
 30 31  1  0  0  0  0
 31 32  2  0  0  0  0
 32 33  1  0  0  0  0
 32 39  1  0  0  0  0
 33 34  2  0  0  0  0
 35 40  1  0  0  0  0
 35 33  1  0  0  0  0
 36 35  1  0  0  0  0
 37 36  2  0  0  0  0
 38 31  1  0  0  0  0
M  END
>  <minimizedAffinity>
-5.88426161

$$$$

 OpenBabel03272500093D

 40 43  0  0  0  0  0  0  0  0999 V2000
   35.8140   29.4870   32.5990 O   0  0  0  0  0  0  0  0  0  0  0  0
   34.5980   29.9350   33.1190 C   0  0  0  0  0  0  0  0  0  0  0  0
   33.5870   29.0010   33.0960 C   0  0  0  0  0  0  0  0  0  0  0  0
   32.3360   29.3120   33.5800 C   0  0  0  0  0  0  0  0  0  0  0  0
   32.1110   30.5990   34.0960 C   0  0  0  0  0  0  0  0  0  0  0  0
   33.1310   31.5210   34.1120 C   0  0  0  0  0  0  0  0  0  0  0  0
   34.3590   31.1870   33.6270 C   0  0  0  0  0  0  0  0  0  0  0  0
   33.7210   28.0010   32.7080 H   0  0  0  0  0  0  0  0  0  0  0  0
   31.5420   28.5570   33.5540 H   0  0  0  0  0  0  0  0  0  0  0  0
   31.1240   30.8110   34.4660 H   0  0  0  0  0  0  0  0  0  0  0  0
   32.8930   32.4860   34.5200 H   0  0  0  0  0  0  0  0  0  0  0  0
   35.3290   31.4860   36.3780 Cl  0  0  0  0  0  0  0  0  0  0  0  0
   35.9170   32.3140   34.9440 C   0  0  0  0  0  0  0  0  0  0  0  0
   35.4420   32.1620   33.6370 C   0  0  0  0  0  0  0  0  0  0  0  0
   36.0300   32.9010   32.6320 C   0  0  0  0  0  0  0  0  0  0  0  0
   35.5690   32.6850   31.6810 H   0  0  0  0  0  0  0  0  0  0  0  0
   37.0620   33.7640   32.9320 C   0  0  0  0  0  3  0  0  0  0  0  0
   37.5410   33.9260   34.2050 C   0  0  0  0  0  0  0  0  0  0  0  0
   38.8580   35.0640   34.4160 Cl  0  0  0  0  0  0  0  0  0  0  0  0
   36.9650   33.1970   35.2200 C   0  0  0  0  0  0  0  0  0  0  0  0
   37.3850   33.3670   36.2020 H   0  0  0  0  0  0  0  0  0  0  0  0
   37.3740   27.5760   35.2160 C   0  0  0  0  0  0  0  0  0  0  0  0
   37.5490   26.3210   34.6290 C   0  0  0  0  0  0  0  0  0  0  0  0
   37.1170   26.1580   33.3160 C   0  0  0  0  0  0  0  0  0  0  0  0
   36.5510   27.2250   32.6830 N   0  0  0  0  0  0  0  0  0  0  0  0
   36.3960   28.4110   33.2670 C   0  0  0  0  0  0  0  0  0  0  0  0
   36.8100   28.6010   34.5530 N   0  0  0  0  0  0  0  0  0  0  0  0
   37.6870   27.7750   36.2370 H   0  0  0  0  0  0  0  0  0  0  0  0
   37.2550   25.1940   32.8740 H   0  0  0  0  0  0  0  0  0  0  0  0
   38.1510   25.2900   35.3990 N   0  0  0  0  0  0  0  0  0  0  0  0
   37.5110   24.6730   36.3870 C   0  0  0  0  0  0  0  0  0  0  0  0
   38.1680   23.6730   37.0950 C   0  0  0  0  0  0  0  0  0  0  0  0
   39.4410   23.4010   36.7100 C   0  0  0  0  0  0  0  0  0  0  0  0
   40.0390   22.4900   37.3560 O   0  0  0  0  0  0  0  0  0  0  0  0
   40.1130   23.9970   35.7290 N   0  0  0  0  0  0  0  0  0  0  0  0
   39.4450   24.9720   35.0530 C   0  0  0  0  0  0  0  0  0  0  0  0
   40.0720   25.5510   34.1120 O   0  0  0  0  0  0  0  0  0  0  0  0
   36.4940   24.9320   36.6480 H   0  0  0  0  0  0  0  0  0  0  0  0
   37.6850   23.1380   37.9130 H   0  0  0  0  0  0  0  0  0  0  0  0
   41.0950   23.7510   35.4710 H   0  0  0  0  0  0  0  0  0  0  0  0
  1  2  1  0  0  0  0
  1 26  1  0  0  0  0
  2  7  1  0  0  0  0
  3  2  2  0  0  0  0
  3  4  1  0  0  0  0
  4  5  2  0  0  0  0
  5  6  1  0  0  0  0
  5 10  1  0  0  0  0
  6 11  1  0  0  0  0
  7 14  1  0  0  0  0
  7  6  2  0  0  0  0
  8  3  1  0  0  0  0
  9  4  1  0  0  0  0
 13 20  1  0  0  0  0
 13 12  1  0  0  0  0
 14 13  2  0  0  0  0
 15 17  2  0  0  0  0
 15 14  1  0  0  0  0
 16 15  1  0  0  0  0
 17 18  1  0  0  0  0
 18 19  1  0  0  0  0
 18 20  2  0  0  0  0
 20 21  1  0  0  0  0
 22 28  1  0  0  0  0
 23 22  1  0  0  0  0
 23 30  1  0  0  0  0
 24 23  2  0  0  0  0
 25 26  2  0  0  0  0
 25 24  1  0  0  0  0
 26 27  1  0  0  0  0
 27 22  2  0  0  0  0
 29 24  1  0  0  0  0
 30 31  1  0  0  0  0
 31 38  1  0  0  0  0
 31 32  2  0  0  0  0
 32 39  1  0  0  0  0
 33 32  1  0  0  0  0
 33 34  2  0  0  0  0
 35 33  1  0  0  0  0
 36 30  1  0  0  0  0
 36 35  1  0  0  0  0
 37 36  2  0  0  0  0
 40 35  1  0  0  0  0
M  END
>  <minimizedAffinity>
-5.83885479

$$$$

 OpenBabel03272500093D

 40 43  0  0  0  0  0  0  0  0999 V2000
   35.6170   27.7230   31.4450 O   0  0  0  0  0  0  0  0  0  0  0  0
   36.8270   27.8890   30.7680 C   0  0  0  0  0  0  0  0  0  0  0  0
   36.9740   29.1120   30.1510 C   0  0  0  0  0  0  0  0  0  0  0  0
   38.1210   29.4080   29.4490 C   0  0  0  0  0  0  0  0  0  0  0  0
   39.1360   28.4390   29.3730 C   0  0  0  0  0  0  0  0  0  0  0  0
   38.9740   27.2230   29.9940 C   0  0  0  0  0  0  0  0  0  0  0  0
   37.8290   26.9570   30.6820 C   0  0  0  0  0  0  0  0  0  0  0  0
   36.2170   29.8820   30.1870 H   0  0  0  0  0  0  0  0  0  0  0  0
   38.2220   30.3850   28.9650 H   0  0  0  0  0  0  0  0  0  0  0  0
   40.0190   28.7010   28.8170 H   0  0  0  0  0  0  0  0  0  0  0  0
   39.7880   26.5290   29.8970 H   0  0  0  0  0  0  0  0  0  0  0  0
   39.1480   27.0430   33.2990 Cl  0  0  0  0  0  0  0  0  0  0  0  0
   38.2730   25.6940   32.5900 C   0  0  0  0  0  0  0  0  0  0  0  0
   37.6510   25.6680   31.3370 C   0  0  0  0  0  0  0  0  0  0  0  0
   37.0080   24.5130   30.9450 C   0  0  0  0  0  0  0  0  0  0  0  0
   36.5740   24.6330   29.9650 H   0  0  0  0  0  0  0  0  0  0  0  0
   36.9910   23.4200   31.7850 C   0  0  0  0  0  3  0  0  0  0  0  0
   37.5950   23.4270   33.0150 C   0  0  0  0  0  0  0  0  0  0  0  0
   37.4820   21.9550   33.9600 Cl  0  0  0  0  0  0  0  0  0  0  0  0
   38.2410   24.5710   33.4220 C   0  0  0  0  0  0  0  0  0  0  0  0
   38.6990   24.5160   34.4000 H   0  0  0  0  0  0  0  0  0  0  0  0
   34.1590   30.4250   33.3170 C   0  0  0  0  0  0  0  0  0  0  0  0
   34.8770   30.4020   34.5160 C   0  0  0  0  0  0  0  0  0  0  0  0
   35.8690   29.4360   34.6540 C   0  0  0  0  0  0  0  0  0  0  0  0
   36.0820   28.5730   33.6200 N   0  0  0  0  0  0  0  0  0  0  0  0
   35.3820   28.6160   32.4880 C   0  0  0  0  0  0  0  0  0  0  0  0
   34.4030   29.5530   32.3230 N   0  0  0  0  0  0  0  0  0  0  0  0
   33.3720   31.1510   33.1400 H   0  0  0  0  0  0  0  0  0  0  0  0
   36.4150   29.4260   35.5740 H   0  0  0  0  0  0  0  0  0  0  0  0
   34.5560   31.3570   35.5170 N   0  0  0  0  0  0  0  0  0  0  0  0
   33.5120   31.2140   36.3280 C   0  0  0  0  0  0  0  0  0  0  0  0
   33.2630   32.1920   37.2840 C   0  0  0  0  0  0  0  0  0  0  0  0
   34.1260   33.2390   37.3120 C   0  0  0  0  0  0  0  0  0  0  0  0
   33.8970   34.1300   38.1830 O   0  0  0  0  0  0  0  0  0  0  0  0
   35.1780   33.4160   36.5170 N   0  0  0  0  0  0  0  0  0  0  0  0
   35.3980   32.4430   35.5910 C   0  0  0  0  0  0  0  0  0  0  0  0
   36.3990   32.5960   34.8250 O   0  0  0  0  0  0  0  0  0  0  0  0
   32.8580   30.3560   36.2600 H   0  0  0  0  0  0  0  0  0  0  0  0
   32.4200   32.1190   37.9720 H   0  0  0  0  0  0  0  0  0  0  0  0
   35.8130   34.2430   36.5790 H   0  0  0  0  0  0  0  0  0  0  0  0
  1 26  1  0  0  0  0
  2  1  1  0  0  0  0
  3  8  1  0  0  0  0
  3  2  2  0  0  0  0
  4  3  1  0  0  0  0
  5  4  2  0  0  0  0
  5  6  1  0  0  0  0
  6  7  2  0  0  0  0
  7  2  1  0  0  0  0
  7 14  1  0  0  0  0
  9  4  1  0  0  0  0
 10  5  1  0  0  0  0
 11  6  1  0  0  0  0
 13 12  1  0  0  0  0
 13 20  1  0  0  0  0
 14 13  2  0  0  0  0
 15 14  1  0  0  0  0
 15 17  2  0  0  0  0
 16 15  1  0  0  0  0
 17 18  1  0  0  0  0
 18 20  2  0  0  0  0
 18 19  1  0  0  0  0
 20 21  1  0  0  0  0
 22 23  1  0  0  0  0
 23 24  2  0  0  0  0
 23 30  1  0  0  0  0
 24 29  1  0  0  0  0
 25 24  1  0  0  0  0
 26 25  2  0  0  0  0
 27 26  1  0  0  0  0
 27 22  2  0  0  0  0
 28 22  1  0  0  0  0
 30 36  1  0  0  0  0
 30 31  1  0  0  0  0
 31 32  2  0  0  0  0
 32 33  1  0  0  0  0
 32 39  1  0  0  0  0
 33 34  2  0  0  0  0
 35 40  1  0  0  0  0
 35 33  1  0  0  0  0
 36 35  1  0  0  0  0
 37 36  2  0  0  0  0
 38 31  1  0  0  0  0
M  END
>  <minimizedAffinity>
-5.81594419

$$$$

 OpenBabel03272500093D

 40 43  0  0  0  0  0  0  0  0999 V2000
   35.6390   27.8030   32.1100 O   0  0  0  0  0  0  0  0  0  0  0  0
   36.7870   27.9720   31.3350 C   0  0  0  0  0  0  0  0  0  0  0  0
   36.6290   28.8100   30.2540 C   0  0  0  0  0  0  0  0  0  0  0  0
   37.6850   29.0640   29.4060 C   0  0  0  0  0  0  0  0  0  0  0  0
   38.9220   28.4520   29.6640 C   0  0  0  0  0  0  0  0  0  0  0  0
   39.0630   27.6170   30.7480 C   0  0  0  0  0  0  0  0  0  0  0  0
   38.0030   27.3830   31.5700 C   0  0  0  0  0  0  0  0  0  0  0  0
   35.6940   29.2990   30.0220 H   0  0  0  0  0  0  0  0  0  0  0  0
   37.5420   29.7340   28.5510 H   0  0  0  0  0  0  0  0  0  0  0  0
   39.7260   28.6710   28.9840 H   0  0  0  0  0  0  0  0  0  0  0  0
   40.0360   27.1820   30.8880 H   0  0  0  0  0  0  0  0  0  0  0  0
   37.1940   24.6810   30.7730 Cl  0  0  0  0  0  0  0  0  0  0  0  0
   37.7670   25.2000   32.3510 C   0  0  0  0  0  0  0  0  0  0  0  0
   38.1470   26.4950   32.7170 C   0  0  0  0  0  0  0  0  0  0  0  0
   38.5730   26.7160   34.0100 C   0  0  0  0  0  0  0  0  0  0  0  0
   38.8350   27.7530   34.1520 H   0  0  0  0  0  0  0  0  0  0  0  0
   38.6140   25.6700   34.9050 C   0  0  0  0  0  3  0  0  0  0  0  0
   38.2450   24.3940   34.5650 C   0  0  0  0  0  0  0  0  0  0  0  0
   38.3560   23.1770   35.8220 Cl  0  0  0  0  0  0  0  0  0  0  0  0
   37.8180   24.1560   33.2800 C   0  0  0  0  0  0  0  0  0  0  0  0
   37.5400   23.1320   33.0710 H   0  0  0  0  0  0  0  0  0  0  0  0
   35.8130   29.9700   34.9740 C   0  0  0  0  0  0  0  0  0  0  0  0
   34.7930   30.8940   34.7340 C   0  0  0  0  0  0  0  0  0  0  0  0
   34.0520   30.7460   33.5660 C   0  0  0  0  0  0  0  0  0  0  0  0
   34.3610   29.7150   32.7280 N   0  0  0  0  0  0  0  0  0  0  0  0
   35.3400   28.8480   32.9820 C   0  0  0  0  0  0  0  0  0  0  0  0
   36.0840   28.9680   34.1200 N   0  0  0  0  0  0  0  0  0  0  0  0
   36.4310   30.0250   35.8660 H   0  0  0  0  0  0  0  0  0  0  0  0
   33.2720   31.4570   33.3900 H   0  0  0  0  0  0  0  0  0  0  0  0
   34.5740   31.9250   35.6870 N   0  0  0  0  0  0  0  0  0  0  0  0
   35.2470   33.0700   35.6650 C   0  0  0  0  0  0  0  0  0  0  0  0
   34.9750   34.0320   36.6310 C   0  0  0  0  0  0  0  0  0  0  0  0
   34.0200   33.7150   37.5420 C   0  0  0  0  0  0  0  0  0  0  0  0
   33.7730   34.5910   38.4230 O   0  0  0  0  0  0  0  0  0  0  0  0
   33.3270   32.5800   37.5960 N   0  0  0  0  0  0  0  0  0  0  0  0
   33.6140   31.6580   36.6370 C   0  0  0  0  0  0  0  0  0  0  0  0
   32.9610   30.5700   36.6740 O   0  0  0  0  0  0  0  0  0  0  0  0
   35.9980   33.2680   34.9120 H   0  0  0  0  0  0  0  0  0  0  0  0
   35.5010   34.9860   36.6540 H   0  0  0  0  0  0  0  0  0  0  0  0
   32.6000   32.3840   38.3200 H   0  0  0  0  0  0  0  0  0  0  0  0
  1 26  1  0  0  0  0
  2  7  1  0  0  0  0
  2  1  1  0  0  0  0
  3  2  2  0  0  0  0
  4  5  2  0  0  0  0
  4  3  1  0  0  0  0
  5  6  1  0  0  0  0
  6 11  1  0  0  0  0
  6  7  2  0  0  0  0
  7 14  1  0  0  0  0
  8  3  1  0  0  0  0
  9  4  1  0  0  0  0
 10  5  1  0  0  0  0
 12 13  1  0  0  0  0
 13 14  2  0  0  0  0
 13 20  1  0  0  0  0
 14 15  1  0  0  0  0
 15 16  1  0  0  0  0
 15 17  2  0  0  0  0
 18 17  1  0  0  0  0
 18 19  1  0  0  0  0
 20 18  2  0  0  0  0
 21 20  1  0  0  0  0
 22 28  1  0  0  0  0
 23 22  1  0  0  0  0
 23 30  1  0  0  0  0
 24 23  2  0  0  0  0
 25 26  2  0  0  0  0
 25 24  1  0  0  0  0
 26 27  1  0  0  0  0
 27 22  2  0  0  0  0
 29 24  1  0  0  0  0
 30 36  1  0  0  0  0
 31 30  1  0  0  0  0
 31 32  2  0  0  0  0
 32 39  1  0  0  0  0
 32 33  1  0  0  0  0
 33 35  1  0  0  0  0
 33 34  2  0  0  0  0
 35 40  1  0  0  0  0
 36 37  2  0  0  0  0
 36 35  1  0  0  0  0
 38 31  1  0  0  0  0
M  END
>  <minimizedAffinity>
-5.77961349

$$$$
