REMARK  Name = 
REMARK  3 active torsions:
REMARK  status: ('A' for Active; 'I' for Inactive)
REMARK    1  A    between atoms: C_1  and  C_7
REMARK    2  A    between atoms: C_5  and  C_10
REMARK    3  A    between atoms: C_10  and  C_22
REMARK                            x       y       z     vdW  Elec       q    Type
REMARK                         _______ _______ _______ _____ _____    ______ ____
ROOT
ATOM      1  C   UNL     1      37.368  31.369  49.206  0.00  0.00    +0.000 A 
ATOM      2  C   UNL     1      37.704  32.665  49.602  0.00  0.00    +0.000 A 
ATOM      3  C   UNL     1      38.580  33.334  48.777  0.00  0.00    +0.000 A 
ATOM      4  N   UNL     1      39.064  32.718  47.647  0.00  0.00    +0.000 NA
ATOM      5  C   UNL     1      38.705  31.450  47.305  0.00  0.00    +0.000 A 
ATOM      6  N   UNL     1      37.836  30.758  48.104  0.00  0.00    +0.000 NA
ATOM      7  H   UNL     1      37.282  33.085  50.507  0.00  0.00    +0.000 HD
ATOM      8  H   UNL     1      38.884  34.344  49.024  0.00  0.00    +0.000 HD
ENDROOT
BRANCH   1   9
ATOM      9  C   UNL     1      36.385  30.615  50.067  0.00  0.00    +0.000 C 
ATOM     10  C   UNL     1      36.258  29.181  50.045  0.00  0.00    +0.000 C 
ATOM     11  C   UNL     1      37.068  29.796  51.172  0.00  0.00    +0.000 C 
ATOM     12  H   UNL     1      35.523  31.246  50.414  0.00  0.00    +0.000 HD
ATOM     13  H   UNL     1      35.294  28.711  50.272  0.00  0.00    +0.000 HD
ATOM     14  H   UNL     1      36.845  28.639  49.251  0.00  0.00    +0.000 HD
ATOM     15  H   UNL     1      36.556  29.854  52.139  0.00  0.00    +0.000 HD
ATOM     16  H   UNL     1      38.166  29.712  51.178  0.00  0.00    +0.000 HD
ENDBRANCH   1   9
BRANCH   5  17
ATOM     17  C   UNL     1      39.199  30.789  46.099  0.00  0.00    +0.000 C 
ATOM     18  H   UNL     1      39.182  29.670  46.242  0.00  0.00    +0.000 HD
ATOM     19  H   UNL     1      40.232  31.083  45.846  0.00  0.00    +0.000 HD
BRANCH  17  22
ATOM     20 CL   UNL     1      36.215  30.532  46.729  0.00  0.00    +0.000 Cl
ATOM     21  C   UNL     1      36.942  30.932  45.187  0.00  0.00    +0.000 A 
ATOM     22  C   UNL     1      38.292  31.043  44.924  0.00  0.00    +0.000 A 
ATOM     23  C   UNL     1      38.701  31.368  43.649  0.00  0.00    +0.000 A 
ATOM     24  H   UNL     1      39.774  31.442  43.499  0.00  0.00    +0.000 HD
ATOM     25  C   UNL     1      37.797  31.581  42.646  0.00  0.00    +0.000 A 
ATOM     26  C   UNL     1      36.428  31.471  42.898  0.00  0.00    +0.000 A 
ATOM     27 CL   UNL     1      35.310  31.753  41.582  0.00  0.00    +0.000 Cl
ATOM     28  C   UNL     1      36.001  31.146  44.176  0.00  0.00    +0.000 A 
ATOM     29  H   UNL     1      34.930  31.079  44.298  0.00  0.00    +0.000 HD
ENDBRANCH  17  22
ENDBRANCH   5  17
TORSDOF 3
