
     RDKit          3D

 29 30  0  0  0  0  0  0  0  0999 V2000
   36.0583   30.3069   50.0266 C   0  0  0  0  0  0  0  0  0  0  0  0
   35.1226   29.6006   49.1221 C   0  0  0  0  0  0  0  0  0  0  0  0
   34.6624   30.2914   47.9974 C   0  0  0  0  0  0  0  0  0  0  0  0
   33.7749   29.6511   47.1200 C   0  0  0  0  0  0  0  0  0  0  0  0
   33.4095   28.3618   47.4304 N   0  0  0  0  0  0  0  0  0  0  0  0
   33.8743   27.7336   48.5208 C   0  0  0  0  0  0  0  0  0  0  0  0
   34.7204   28.3329   49.3646 N   0  0  0  0  0  0  0  0  0  0  0  0
   36.3360   31.5917   49.6265 O   0  0  0  0  0  0  0  0  0  0  0  0
   38.4013   31.1581   48.0405 O   0  0  0  0  0  0  0  0  0  0  0  0
   38.0134   31.7130   49.3952 P   0  0  2  0  0  0  0  0  0  0  0  0
   38.8104   30.7535   50.5684 O   0  0  0  0  0  0  0  0  0  0  0  0
   38.5195   33.3124   49.4984 O   0  0  0  0  0  0  0  0  0  0  0  0
   35.5480   30.3538   51.0298 H   0  0  0  0  0  0  0  0  0  0  0  0
   36.9875   29.6832   50.1640 H   0  0  0  0  0  0  0  0  0  0  0  0
   34.9955   31.2952   47.8267 H   0  0  0  0  0  0  0  0  0  0  0  0
   33.4130   30.1699   46.2514 H   0  0  0  0  0  0  0  0  0  0  0  0
   33.5468   26.7191   48.7067 H   0  0  0  0  0  0  0  0  0  0  0  0
   39.7662   31.0238   50.5695 H   0  0  0  0  0  0  0  0  0  0  0  0
   40.6489   33.0645   51.4632 Cl  0  0  0  0  0  0  0  0  0  0  0  0
   40.7372   33.7603   49.8417 C   0  0  0  0  0  0  0  0  0  0  0  0
   39.6654   33.8465   48.9458 C   0  0  0  0  0  0  0  0  0  0  0  0
   39.8845   34.4165   47.7117 C   0  0  0  0  0  0  0  0  0  0  0  0
   39.0031   34.4337   47.1044 H   0  0  0  0  0  0  0  0  0  0  0  0
   41.1270   34.8880   47.3719 C   0  0  0  0  0  0  0  0  0  0  0  0
   42.2098   34.8124   48.2495 C   0  0  0  0  0  0  0  0  0  0  0  0
   43.7745   35.4257   47.7748 Cl  0  0  0  0  0  0  0  0  0  0  0  0
   41.9955   34.2413   49.4894 C   0  0  0  0  0  0  0  0  0  0  0  0
   42.8540   34.1984   50.1436 H   0  0  0  0  0  0  0  0  0  0  0  0
   41.2410   35.3276   46.3851 H   0  0  0  0  0  0  0  0  0  0  0  0
  2  7  1  0
  2  1  1  0
  3  2  2  0
  4  5  2  0
  4  3  1  0
  5  6  1  0
  6  7  2  0
  8  1  1  0
  9 10  2  0
 10 12  1  6
 10  8  1  0
 10 11  1  0
  1 13  1  0
  1 14  1  0
  3 15  1  0
  4 16  1  0
  6 17  1  0
 11 18  1  0
 19 20  1  0
 20 21  2  0
 21 22  1  0
 22 23  1  0
 22 24  2  0
 24 25  1  0
 25 26  1  0
 25 27  2  0
 27 28  1  0
 27 20  1  0
 24 29  1  0
 12 21  1  0
M  ISO  8  13   8  14   8  15  14  16  14  17  14  18   3  23  16  28  15
M  END
>  <DihAtoms>  (1) 
9,11,20,19

>  <DihDeg>  (1) 
-179.99970522869492

$$$$
