
 OpenBabel03262522573D

 26 28  0  0  0  0  0  0  0  0999 V2000
   34.0300   28.8530   48.3370 C   0  0  0  0  0  0  0  0  0  0  0  0
   34.8780   28.3850   49.3310 C   0  0  0  0  0  0  0  0  0  0  0  0
   36.0690   29.0360   49.2350 C   0  0  0  0  0  0  0  0  0  0  0  0
   35.9550   29.8950   48.1910 N   0  0  0  0  0  0  0  0  0  0  0  0
   34.7160   29.7650   47.6670 N   0  0  0  0  0  0  0  0  0  0  0  0
   34.6020   27.6350   50.0370 H   0  0  0  0  0  0  0  0  0  0  0  0
   36.9280   28.8870   49.8710 H   0  0  0  0  0  0  0  0  0  0  0  0
   36.7340   32.0720   50.1630 Cl  0  0  0  0  0  0  0  0  0  0  0  0
   37.4520   31.7900   48.5840 C   0  0  0  0  0  0  0  0  0  0  0  0
   37.0060   30.7600   47.7750 C   0  0  0  0  0  0  0  0  0  0  0  0
   37.6070   30.5730   46.5250 C   0  0  0  0  0  0  0  0  0  0  0  0
   37.2630   29.7590   45.8720 H   0  0  0  0  0  0  0  0  0  0  0  0
   38.6340   31.3830   46.0680 C   0  0  0  0  0  0  0  0  0  0  0  0
   39.0570   32.4040   46.9020 C   0  0  0  0  0  0  0  0  0  0  0  0
   40.3670   33.4590   46.3500 Cl  0  0  0  0  0  0  0  0  0  0  0  0
   38.4870   32.6230   48.1500 C   0  0  0  0  0  0  0  0  0  0  0  0
   38.8760   33.4480   48.7450 H   0  0  0  0  0  0  0  0  0  0  0  0
   30.8240   28.1600   46.7010 C   0  0  0  0  0  0  0  0  0  0  0  0
   30.0850   27.5480   47.7380 C   0  0  0  0  0  0  0  0  0  0  0  0
   30.6960   27.3820   48.9800 C   0  0  0  0  0  0  0  0  0  0  0  0
   31.9680   27.8220   49.1150 N   0  0  0  0  0  0  0  0  0  0  0  0
   32.6600   28.4080   48.0990 C   0  0  0  0  0  0  0  0  0  0  0  0
   32.0880   28.5770   46.8980 N   0  0  0  0  0  0  0  0  0  0  0  0
   30.3940   28.3180   45.7000 H   0  0  0  0  0  0  0  0  0  0  0  0
   29.0670   27.2310   47.5210 H   0  0  0  0  0  0  0  0  0  0  0  0
   30.1450   26.9170   49.7770 H   0  0  0  0  0  0  0  0  0  0  0  0
  1  2  1  0  0  0  0
  2  6  1  0  0  0  0
  3  2  2  0  0  0  0
  3  7  1  0  0  0  0
  4  3  1  0  0  0  0
  5  4  1  0  0  0  0
  5  1  2  0  0  0  0
  9  8  1  0  0  0  0
 10  4  1  0  0  0  0
 10  9  2  0  0  0  0
 11 10  1  0  0  0  0
 12 11  1  0  0  0  0
 13 11  2  0  0  0  0
 13 14  1  0  0  0  0
 14 16  2  0  0  0  0
 15 14  1  0  0  0  0
 16  9  1  0  0  0  0
 16 17  1  0  0  0  0
 18 23  2  0  0  0  0
 18 19  1  0  0  0  0
 19 20  2  0  0  0  0
 20 21  1  0  0  0  0
 20 26  1  0  0  0  0
 22  1  1  0  0  0  0
 22 21  2  0  0  0  0
 23 22  1  0  0  0  0
 24 18  1  0  0  0  0
 25 19  1  0  0  0  0
M  END
>  <minimizedAffinity>
-5.69454193

>  <minimizedRMSD>
7.52596045

$$$$
