
 OpenBabel03262522153D

 46 49  0  0  1  0  0  0  0  0999 V2000
   39.6240   32.7880   43.8220 C   0  0  0  0  0  0  0  0  0  0  0  0
   39.6880   33.6610   43.1220 H   0  0  0  0  0  0  0  0  0  0  0  0
   38.5690   32.6210   44.0590 H   0  0  0  0  0  0  0  0  0  0  0  0
   39.0090   29.7120   42.1730 C   0  0  1  0  0  0  0  0  0  0  0  0
   39.1740   31.2090   41.9490 C   0  0  0  0  0  0  0  0  0  0  0  0
   40.1060   31.5560   43.0870 C   0  0  2  0  0  0  0  0  0  0  0  0
   40.2260   30.4750   43.9040 O   0  0  0  0  0  0  0  0  0  0  0  0
   39.1360   29.6430   43.6870 C   0  0  0  0  0  0  0  0  0  0  0  0
   39.8320   29.1740   41.6730 H   0  0  0  0  0  0  0  0  0  0  0  0
   39.6980   31.3970   40.9830 H   0  0  0  0  0  0  0  0  0  0  0  0
   38.2180   31.7460   42.0540 H   0  0  0  0  0  0  0  0  0  0  0  0
   41.1190   31.8000   42.6880 H   0  0  0  0  0  0  0  0  0  0  0  0
   38.1970   30.0970   44.0810 H   0  0  0  0  0  0  0  0  0  0  0  0
   39.3130   28.6220   44.0430 H   0  0  0  0  0  0  0  0  0  0  0  0
   37.7700   29.2770   41.7480 O   0  0  0  0  0  0  0  0  0  0  0  0
   37.8680   26.3610   41.6910 Cl  0  0  0  0  0  0  0  0  0  0  0  0
   36.6790   27.3320   42.5280 C   0  0  0  0  0  0  0  0  0  0  0  0
   36.7640   28.7050   42.4610 C   0  0  0  0  0  0  0  0  0  0  0  0
   35.7920   29.3890   43.1440 C   0  0  0  0  0  0  0  0  0  0  0  0
   35.7970   30.4630   43.1360 H   0  0  0  0  0  0  0  0  0  0  0  0
   34.8010   28.7710   43.8460 C   0  0  0  0  0  3  0  0  0  0  0  0
   34.7550   27.3930   43.8860 C   0  0  0  0  0  0  0  0  0  0  0  0
   33.4970   26.5670   44.7780 Cl  0  0  0  0  0  0  0  0  0  0  0  0
   35.7090   26.6590   43.2160 C   0  0  0  0  0  0  0  0  0  0  0  0
   35.6780   25.5700   43.2430 H   0  0  0  0  0  0  0  0  0  0  0  0
   40.6920   33.0210   45.2650 S   0  0  0  0  0  0  0  0  0  0  0  0
   37.7820   31.7640   47.6720 C   0  0  0  0  0  0  0  0  0  0  0  0
   37.9390   32.5570   48.8180 C   0  0  0  0  0  0  0  0  0  0  0  0
   38.9350   33.5070   48.9100 C   0  0  0  0  0  0  0  0  0  0  0  0
   39.7600   33.6280   47.8130 C   0  0  0  0  0  0  0  0  0  0  0  0
   39.5930   32.8520   46.7120 C   0  0  0  0  0  0  0  0  0  0  0  0
   38.6180   31.9180   46.6160 N   0  0  0  0  0  0  0  0  0  0  0  0
   37.2800   32.4460   49.6710 H   0  0  0  0  0  0  0  0  0  0  0  0
   39.0450   34.1130   49.8030 H   0  0  0  0  0  0  0  0  0  0  0  0
   40.5650   34.3530   47.8140 H   0  0  0  0  0  0  0  0  0  0  0  0
   36.7230   30.8030   47.6610 C   0  0  0  0  0  0  0  0  0  0  0  0
   36.2360   30.4000   46.6060 O   0  0  0  0  0  0  0  0  0  0  0  0
   37.0410   29.6370   49.8120 C   0  0  0  0  0  0  0  0  0  0  0  0
   36.1550   30.2430   48.8930 C   0  0  0  0  0  0  0  0  0  0  0  0
   34.7870   30.2850   49.1900 C   0  0  0  0  0  0  0  0  0  0  0  0
   34.3650   29.7320   50.3700 N   0  0  0  0  0  0  0  0  0  0  0  0
   35.2290   29.1610   51.2270 C   0  0  0  0  0  0  0  0  0  0  0  0
   36.5300   29.1170   50.9530 N   0  0  0  0  0  0  0  0  0  0  0  0
   38.0930   29.6230   49.5520 H   0  0  0  0  0  0  0  0  0  0  0  0
   34.1300   30.7430   48.4910 H   0  0  0  0  0  0  0  0  0  0  0  0
   34.9280   28.7160   52.1670 H   0  0  0  0  0  0  0  0  0  0  0  0
  1  3  1  0  0  0  0
  1 26  1  0  0  0  0
  2  1  1  0  0  0  0
  4  9  1  6  0  0  0
  4  8  1  0  0  0  0
  5 11  1  0  0  0  0
  5  4  1  0  0  0  0
  5  6  1  0  0  0  0
  6 12  1  6  0  0  0
  6  1  1  0  0  0  0
  6  7  1  0  0  0  0
  8  7  1  0  0  0  0
  8 14  1  0  0  0  0
  8 13  1  0  0  0  0
 10  5  1  0  0  0  0
 15  4  1  0  0  0  0
 15 18  1  0  0  0  0
 16 17  1  0  0  0  0
 17 24  1  0  0  0  0
 18 17  2  0  0  0  0
 18 19  1  0  0  0  0
 19 21  2  0  0  0  0
 20 19  1  0  0  0  0
 21 22  1  0  0  0  0
 22 23  1  0  0  0  0
 24 25  1  0  0  0  0
 24 22  2  0  0  0  0
 26 31  1  0  0  0  0
 27 28  1  0  0  0  0
 28 29  2  0  0  0  0
 28 33  1  0  0  0  0
 29 34  1  0  0  0  0
 30 35  1  0  0  0  0
 30 29  1  0  0  0  0
 31 30  2  0  0  0  0
 32 31  1  0  0  0  0
 32 27  2  0  0  0  0
 36 27  1  0  0  0  0
 36 39  1  0  0  0  0
 37 36  2  0  0  0  0
 38 43  1  0  0  0  0
 39 40  1  0  0  0  0
 39 38  2  0  0  0  0
 40 41  2  0  0  0  0
 41 42  1  0  0  0  0
 42 46  1  0  0  0  0
 43 42  2  0  0  0  0
 44 38  1  0  0  0  0
 45 40  1  0  0  0  0
M  END
>  <minimizedAffinity>
-5.44108105

>  <minimizedRMSD>
2.03201747

$$$$
