
 OpenBabel03272510303D

 29 31  0  0  0  0  0  0  0  0999 V2000
   37.3380   31.3560   49.2730 C   0  0  0  0  0  0  0  0  0  0  0  0
   37.7380   32.6180   49.7170 C   0  0  0  0  0  0  0  0  0  0  0  0
   38.6350   33.2800   48.9090 C   0  0  0  0  0  0  0  0  0  0  0  0
   39.0770   32.6890   47.7490 N   0  0  0  0  0  0  0  0  0  0  0  0
   38.6560   31.4540   47.3600 C   0  0  0  0  0  0  0  0  0  0  0  0
   37.7650   30.7700   48.1410 N   0  0  0  0  0  0  0  0  0  0  0  0
   37.3450   33.0190   50.6440 H   0  0  0  0  0  0  0  0  0  0  0  0
   38.9880   34.2640   49.1930 H   0  0  0  0  0  0  0  0  0  0  0  0
   36.3310   30.6130   50.1150 C   0  0  0  0  0  0  0  0  0  0  0  0
   36.1420   29.1870   50.0410 C   0  0  0  0  0  0  0  0  0  0  0  0
   36.9870   29.7250   51.1830 C   0  0  0  0  0  0  0  0  0  0  0  0
   35.4990   31.2660   50.4930 H   0  0  0  0  0  0  0  0  0  0  0  0
   35.1610   28.7500   50.2600 H   0  0  0  0  0  0  0  0  0  0  0  0
   36.6990   28.6510   49.2220 H   0  0  0  0  0  0  0  0  0  0  0  0
   36.4860   29.7680   52.1560 H   0  0  0  0  0  0  0  0  0  0  0  0
   38.0800   29.5940   51.1750 H   0  0  0  0  0  0  0  0  0  0  0  0
   39.1060   30.8220   46.1220 C   0  0  0  0  0  0  0  0  0  0  0  0
   38.9740   29.7040   46.1940 H   0  0  0  0  0  0  0  0  0  0  0  0
   40.1680   31.0250   45.9020 H   0  0  0  0  0  0  0  0  0  0  0  0
   40.3830   32.9420   44.3230 Cl  0  0  0  0  0  0  0  0  0  0  0  0
   38.8120   32.1940   44.1290 C   0  0  0  0  0  0  0  0  0  0  0  0
   38.2530   31.2380   44.9530 C   0  0  0  0  0  0  0  0  0  0  0  0
   36.9990   30.7510   44.6570 C   0  0  0  0  0  0  0  0  0  0  0  0
   36.6090   30.0010   45.3400 H   0  0  0  0  0  0  0  0  0  0  0  0
   36.3030   31.1950   43.5690 C   0  0  0  0  0  3  0  0  0  0  0  0
   36.8560   32.1620   42.7270 C   0  0  0  0  0  0  0  0  0  0  0  0
   35.9240   32.6990   41.3460 Cl  0  0  0  0  0  0  0  0  0  0  0  0
   38.1170   32.6620   43.0110 C   0  0  0  0  0  0  0  0  0  0  0  0
   38.4800   33.4060   42.3170 H   0  0  0  0  0  0  0  0  0  0  0  0
  1  2  1  0  0  0  0
  1  9  1  0  0  0  0
  2  7  1  0  0  0  0
  3  8  1  0  0  0  0
  3  2  2  0  0  0  0
  4  3  1  0  0  0  0
  5  4  2  0  0  0  0
  5  6  1  0  0  0  0
  6  1  2  0  0  0  0
  9 12  1  0  0  0  0
  9 11  1  0  0  0  0
 10  9  1  0  0  0  0
 10 13  1  0  0  0  0
 10 11  1  0  0  0  0
 11 15  1  0  0  0  0
 14 10  1  0  0  0  0
 16 11  1  0  0  0  0
 17 18  1  0  0  0  0
 17  5  1  0  0  0  0
 19 17  1  0  0  0  0
 21 20  1  0  0  0  0
 21 22  1  0  0  0  0
 22 17  1  0  0  0  0
 23 22  2  0  0  0  0
 23 24  1  0  0  0  0
 25 23  1  0  0  0  0
 26 28  1  0  0  0  0
 26 25  2  0  0  0  0
 27 26  1  0  0  0  0
 28 21  2  0  0  0  0
 29 28  1  0  0  0  0
M  END
>  <minimizedAffinity>
-5.57085514

>  <minimizedRMSD>
0.295428276

$$$$
