
 OpenBabel03272505353D

 36 38  0  0  1  0  0  0  0  0999 V2000
   38.0670   25.3250   34.9830 C   0  0  0  0  0  0  0  0  0  0  0  0
   37.2930   26.4740   35.0720 C   0  0  0  0  0  0  0  0  0  0  0  0
   37.0200   27.1780   33.8870 C   0  0  0  0  0  0  0  0  0  0  0  0
   37.5380   26.6850   32.7190 N   0  0  0  0  0  0  0  0  0  0  0  0
   38.2830   25.5680   32.6770 C   0  0  0  0  0  0  0  0  0  0  0  0
   38.5290   24.9170   33.8000 N   0  0  0  0  0  0  0  0  0  0  0  0
   38.7650   25.1490   31.4170 N   0  0  0  0  0  0  0  0  0  0  0  0
   40.0690   25.6270   30.9610 C   0  0  0  0  0  0  0  0  0  0  0  0
   40.0070   26.0460   29.4990 C   0  0  0  0  0  0  0  0  0  0  0  0
   39.3830   25.0450   28.6830 N   0  0  0  0  0  0  0  0  0  0  0  0
   38.9000   23.9130   29.3810 C   0  0  0  0  0  0  0  0  0  0  0  0
   38.0110   24.2590   30.5530 C   0  0  1  0  0  0  0  0  0  0  0  0
   36.9050   26.8270   36.0150 H   0  0  0  0  0  0  0  0  0  0  0  0
   36.4280   28.0740   33.8860 H   0  0  0  0  0  0  0  0  0  0  0  0
   40.3850   26.4840   31.5620 H   0  0  0  0  0  0  0  0  0  0  0  0
   40.7540   24.7710   31.0200 H   0  0  0  0  0  0  0  0  0  0  0  0
   39.3360   26.9420   29.4640 H   0  0  0  0  0  0  0  0  0  0  0  0
   40.9970   26.3620   29.1870 H   0  0  0  0  0  0  0  0  0  0  0  0
   38.6970   25.4100   27.9960 H   0  0  0  0  0  0  0  0  0  0  0  0
   39.7400   23.2870   29.7950 H   0  0  0  0  0  0  0  0  0  0  0  0
   38.3890   23.2550   28.6450 H   0  0  0  0  0  0  0  0  0  0  0  0
   37.1420   24.8420   30.1400 H   0  0  0  0  0  0  0  0  0  0  0  0
   35.1150   24.4170   31.1720 Cl  0  0  0  0  0  0  0  0  0  0  0  0
   36.1120   23.0020   31.5500 C   0  0  0  0  0  0  0  0  0  0  0  0
   37.4670   23.0730   31.2020 C   0  0  0  0  0  0  0  0  0  0  0  0
   38.1500   21.9290   31.5360 C   0  0  0  0  0  0  0  0  0  0  0  0
   39.2020   21.8830   31.3020 H   0  0  0  0  0  0  0  0  0  0  0  0
   37.5960   20.8220   32.1430 C   0  0  0  0  0  3  0  0  0  0  0  0
   36.2440   20.8290   32.4560 C   0  0  0  0  0  0  0  0  0  0  0  0
   35.4470   19.4940   33.2190 Cl  0  0  0  0  0  0  0  0  0  0  0  0
   35.4900   21.9380   32.1530 C   0  0  0  0  0  0  0  0  0  0  0  0
   34.4340   21.9890   32.3780 H   0  0  0  0  0  0  0  0  0  0  0  0
   38.3650   24.5640   36.2360 C   0  0  0  0  0  0  0  0  0  0  0  0
   39.6810   24.0800   36.1850 F   0  0  0  0  0  0  0  0  0  0  0  0
   38.1200   25.3630   37.2920 F   0  0  0  0  0  0  0  0  0  0  0  0
   37.5400   23.4390   36.2340 F   0  0  0  0  0  0  0  0  0  0  0  0
  1  2  1  0  0  0  0
  1 33  1  0  0  0  0
  2 13  1  0  0  0  0
  3  2  2  0  0  0  0
  4  3  1  0  0  0  0
  5  4  2  0  0  0  0
  5  6  1  0  0  0  0
  6  1  2  0  0  0  0
  7  5  1  0  0  0  0
  8 16  1  0  0  0  0
  8  7  1  0  0  0  0
  8 15  1  0  0  0  0
  9  8  1  0  0  0  0
 10 11  1  0  0  0  0
 10  9  1  0  0  0  0
 11 20  1  0  0  0  0
 11 12  1  0  0  0  0
 12 22  1  6  0  0  0
 12 25  1  0  0  0  0
 12  7  1  0  0  0  0
 14  3  1  0  0  0  0
 17  9  1  0  0  0  0
 18  9  1  0  0  0  0
 19 10  1  0  0  0  0
 21 11  1  0  0  0  0
 23 24  1  0  0  0  0
 24 31  1  0  0  0  0
 25 26  1  0  0  0  0
 25 24  2  0  0  0  0
 26 28  2  0  0  0  0
 27 26  1  0  0  0  0
 28 29  1  0  0  0  0
 29 30  1  0  0  0  0
 31 32  1  0  0  0  0
 31 29  2  0  0  0  0
 33 35  1  0  0  0  0
 34 33  1  0  0  0  0
 36 33  1  0  0  0  0
M  END
>  <minimizedAffinity>
-6.04714537

$$$$

 OpenBabel03272505353D

 36 38  0  0  1  0  0  0  0  0999 V2000
   38.2400   22.6220   34.4310 C   0  0  0  0  0  0  0  0  0  0  0  0
   38.1490   22.2710   35.7700 C   0  0  0  0  0  0  0  0  0  0  0  0
   39.0310   22.8870   36.6740 C   0  0  0  0  0  0  0  0  0  0  0  0
   39.9240   23.7960   36.1740 N   0  0  0  0  0  0  0  0  0  0  0  0
   39.9790   24.1070   34.8690 C   0  0  0  0  0  0  0  0  0  0  0  0
   39.1430   23.5190   34.0320 N   0  0  0  0  0  0  0  0  0  0  0  0
   40.9400   25.0600   34.4610 N   0  0  0  0  0  0  0  0  0  0  0  0
   42.2680   24.6000   34.0570 C   0  0  0  0  0  0  0  0  0  0  0  0
   43.3500   25.4850   34.6600 C   0  0  0  0  0  0  0  0  0  0  0  0
   43.0770   26.8780   34.4550 N   0  0  0  0  0  0  0  0  0  0  0  0
   41.8540   27.1620   33.8010 C   0  0  0  0  0  0  0  0  0  0  0  0
   40.6600   26.4830   34.4310 C   0  0  1  0  0  0  0  0  0  0  0  0
   37.4280   21.5480   36.1230 H   0  0  0  0  0  0  0  0  0  0  0  0
   39.0130   22.6610   37.7240 H   0  0  0  0  0  0  0  0  0  0  0  0
   42.4250   23.5710   34.3900 H   0  0  0  0  0  0  0  0  0  0  0  0
   42.3230   24.7240   32.9670 H   0  0  0  0  0  0  0  0  0  0  0  0
   43.3040   25.3160   35.7660 H   0  0  0  0  0  0  0  0  0  0  0  0
   44.3160   25.1350   34.3120 H   0  0  0  0  0  0  0  0  0  0  0  0
   43.2310   27.4770   35.2860 H   0  0  0  0  0  0  0  0  0  0  0  0
   41.8710   26.8370   32.7230 H   0  0  0  0  0  0  0  0  0  0  0  0
   41.7390   28.2670   33.7650 H   0  0  0  0  0  0  0  0  0  0  0  0
   40.6060   26.8420   35.4960 H   0  0  0  0  0  0  0  0  0  0  0  0
   38.4360   27.0650   36.3050 Cl  0  0  0  0  0  0  0  0  0  0  0  0
   38.2720   27.1660   34.5440 C   0  0  0  0  0  0  0  0  0  0  0  0
   39.4080   26.8590   33.7850 C   0  0  0  0  0  0  0  0  0  0  0  0
   39.1770   26.9670   32.4350 C   0  0  0  0  0  0  0  0  0  0  0  0
   39.9950   26.7560   31.7640 H   0  0  0  0  0  0  0  0  0  0  0  0
   37.9780   27.3340   31.8620 C   0  0  0  0  0  3  0  0  0  0  0  0
   36.8970   27.6240   32.6840 C   0  0  0  0  0  0  0  0  0  0  0  0
   35.3470   28.0940   32.0700 Cl  0  0  0  0  0  0  0  0  0  0  0  0
   37.0480   27.5390   34.0470 C   0  0  0  0  0  0  0  0  0  0  0  0
   36.2350   27.7550   34.7270 H   0  0  0  0  0  0  0  0  0  0  0  0
   37.3070   21.9750   33.4560 C   0  0  0  0  0  0  0  0  0  0  0  0
   36.3020   21.2910   34.1570 F   0  0  0  0  0  0  0  0  0  0  0  0
   36.8390   22.9210   32.6190 F   0  0  0  0  0  0  0  0  0  0  0  0
   38.0390   20.9990   32.7810 F   0  0  0  0  0  0  0  0  0  0  0  0
  1  2  1  0  0  0  0
  2 13  1  0  0  0  0
  2  3  2  0  0  0  0
  3 14  1  0  0  0  0
  4  3  1  0  0  0  0
  5  4  2  0  0  0  0
  6  1  2  0  0  0  0
  6  5  1  0  0  0  0
  7  5  1  0  0  0  0
  8 15  1  0  0  0  0
  8  7  1  0  0  0  0
  8  9  1  0  0  0  0
  9 17  1  0  0  0  0
 10  9  1  0  0  0  0
 10 19  1  0  0  0  0
 11 12  1  0  0  0  0
 11 10  1  0  0  0  0
 12  7  1  0  0  0  0
 12 22  1  1  0  0  0
 16  8  1  0  0  0  0
 18  9  1  0  0  0  0
 20 11  1  0  0  0  0
 21 11  1  0  0  0  0
 24 23  1  0  0  0  0
 25 12  1  0  0  0  0
 25 24  2  0  0  0  0
 26 25  1  0  0  0  0
 27 26  1  0  0  0  0
 28 26  2  0  0  0  0
 28 29  1  0  0  0  0
 29 31  2  0  0  0  0
 30 29  1  0  0  0  0
 31 24  1  0  0  0  0
 31 32  1  0  0  0  0
 33 34  1  0  0  0  0
 33  1  1  0  0  0  0
 35 33  1  0  0  0  0
 36 33  1  0  0  0  0
M  END
>  <minimizedAffinity>
-5.95487118

$$$$

 OpenBabel03272505353D

 36 38  0  0  1  0  0  0  0  0999 V2000
   38.4500   24.5400   35.4020 C   0  0  0  0  0  0  0  0  0  0  0  0
   37.7370   25.6890   35.7160 C   0  0  0  0  0  0  0  0  0  0  0  0
   37.4010   26.5630   34.6680 C   0  0  0  0  0  0  0  0  0  0  0  0
   37.8010   26.2250   33.4030 N   0  0  0  0  0  0  0  0  0  0  0  0
   38.4910   25.1020   33.1430 C   0  0  0  0  0  0  0  0  0  0  0  0
   38.7980   24.2910   34.1380 N   0  0  0  0  0  0  0  0  0  0  0  0
   38.8520   24.8510   31.8000 N   0  0  0  0  0  0  0  0  0  0  0  0
   40.1350   25.3480   31.3050 C   0  0  0  0  0  0  0  0  0  0  0  0
   39.9750   25.9720   29.9260 C   0  0  0  0  0  0  0  0  0  0  0  0
   39.2440   25.1190   29.0350 N   0  0  0  0  0  0  0  0  0  0  0  0
   38.7690   23.9140   29.6070 C   0  0  0  0  0  0  0  0  0  0  0  0
   37.9930   24.1190   30.8870 C   0  0  1  0  0  0  0  0  0  0  0  0
   37.4410   25.9170   36.7290 H   0  0  0  0  0  0  0  0  0  0  0  0
   36.8500   27.4680   34.8430 H   0  0  0  0  0  0  0  0  0  0  0  0
   40.5350   26.1000   31.9900 H   0  0  0  0  0  0  0  0  0  0  0  0
   40.7840   24.4700   31.1860 H   0  0  0  0  0  0  0  0  0  0  0  0
   39.3420   26.8850   30.0740 H   0  0  0  0  0  0  0  0  0  0  0  0
   40.9490   26.2980   29.5780 H   0  0  0  0  0  0  0  0  0  0  0  0
   38.5220   25.6000   28.4670 H   0  0  0  0  0  0  0  0  0  0  0  0
   39.6120   23.2100   29.8570 H   0  0  0  0  0  0  0  0  0  0  0  0
   38.1730   23.3850   28.8330 H   0  0  0  0  0  0  0  0  0  0  0  0
   37.1200   24.7820   30.6360 H   0  0  0  0  0  0  0  0  0  0  0  0
   35.0830   24.1850   31.4570 Cl  0  0  0  0  0  0  0  0  0  0  0  0
   36.0900   22.7520   31.7200 C   0  0  0  0  0  0  0  0  0  0  0  0
   37.4510   22.8700   31.4090 C   0  0  0  0  0  0  0  0  0  0  0  0
   38.1420   21.7070   31.6470 C   0  0  0  0  0  0  0  0  0  0  0  0
   39.1990   21.6950   31.4330 H   0  0  0  0  0  0  0  0  0  0  0  0
   37.5900   20.5410   32.1340 C   0  0  0  0  0  3  0  0  0  0  0  0
   36.2320   20.5040   32.4180 C   0  0  0  0  0  0  0  0  0  0  0  0
   35.4370   19.0930   33.0330 Cl  0  0  0  0  0  0  0  0  0  0  0  0
   35.4710   21.6280   32.2060 C   0  0  0  0  0  0  0  0  0  0  0  0
   34.4090   21.6470   32.4120 H   0  0  0  0  0  0  0  0  0  0  0  0
   38.8140   23.5990   36.5060 C   0  0  0  0  0  0  0  0  0  0  0  0
   38.3890   24.1330   37.7320 F   0  0  0  0  0  0  0  0  0  0  0  0
   38.2890   22.3900   36.2290 F   0  0  0  0  0  0  0  0  0  0  0  0
   40.2060   23.5600   36.5640 F   0  0  0  0  0  0  0  0  0  0  0  0
  1  2  1  0  0  0  0
  1 33  1  0  0  0  0
  2 13  1  0  0  0  0
  3 14  1  0  0  0  0
  3  2  2  0  0  0  0
  4  3  1  0  0  0  0
  5  4  2  0  0  0  0
  5  6  1  0  0  0  0
  6  1  2  0  0  0  0
  7  5  1  0  0  0  0
  8  7  1  0  0  0  0
  8 15  1  0  0  0  0
  9 17  1  0  0  0  0
  9  8  1  0  0  0  0
 10 11  1  0  0  0  0
 10  9  1  0  0  0  0
 11 20  1  0  0  0  0
 11 12  1  0  0  0  0
 12 22  1  6  0  0  0
 12 25  1  0  0  0  0
 12  7  1  0  0  0  0
 16  8  1  0  0  0  0
 18  9  1  0  0  0  0
 19 10  1  0  0  0  0
 21 11  1  0  0  0  0
 23 24  1  0  0  0  0
 24 31  1  0  0  0  0
 25 26  1  0  0  0  0
 25 24  2  0  0  0  0
 26 28  2  0  0  0  0
 27 26  1  0  0  0  0
 28 29  1  0  0  0  0
 29 30  1  0  0  0  0
 31 32  1  0  0  0  0
 31 29  2  0  0  0  0
 33 36  1  0  0  0  0
 33 34  1  0  0  0  0
 35 33  1  0  0  0  0
M  END
>  <minimizedAffinity>
-5.86880922

$$$$

 OpenBabel03272505353D

 36 38  0  0  1  0  0  0  0  0999 V2000
   38.3440   24.0650   35.6270 C   0  0  0  0  0  0  0  0  0  0  0  0
   37.7490   25.2510   36.0340 C   0  0  0  0  0  0  0  0  0  0  0  0
   37.4730   26.2190   35.0550 C   0  0  0  0  0  0  0  0  0  0  0  0
   37.8100   25.9300   33.7600 N   0  0  0  0  0  0  0  0  0  0  0  0
   38.3860   24.7690   33.4080 C   0  0  0  0  0  0  0  0  0  0  0  0
   38.6390   23.8690   34.3410 N   0  0  0  0  0  0  0  0  0  0  0  0
   38.6910   24.5750   32.0420 N   0  0  0  0  0  0  0  0  0  0  0  0
   40.0030   24.9840   31.5420 C   0  0  0  0  0  0  0  0  0  0  0  0
   39.8700   25.7100   30.2120 C   0  0  0  0  0  0  0  0  0  0  0  0
   39.0430   24.9880   29.2890 N   0  0  0  0  0  0  0  0  0  0  0  0
   38.4710   23.7970   29.7980 C   0  0  0  0  0  0  0  0  0  0  0  0
   37.7470   23.9870   31.1100 C   0  0  1  0  0  0  0  0  0  0  0  0
   37.5000   25.4370   37.0680 H   0  0  0  0  0  0  0  0  0  0  0  0
   37.0130   27.1580   35.3030 H   0  0  0  0  0  0  0  0  0  0  0  0
   40.4870   25.6480   32.2630 H   0  0  0  0  0  0  0  0  0  0  0  0
   40.5650   24.0600   31.3490 H   0  0  0  0  0  0  0  0  0  0  0  0
   39.3290   26.6650   30.4350 H   0  0  0  0  0  0  0  0  0  0  0  0
   40.8620   25.9670   29.8570 H   0  0  0  0  0  0  0  0  0  0  0  0
   38.3560   25.5700   28.7750 H   0  0  0  0  0  0  0  0  0  0  0  0
   39.2490   23.0030   29.9770 H   0  0  0  0  0  0  0  0  0  0  0  0
   37.8100   23.3760   29.0090 H   0  0  0  0  0  0  0  0  0  0  0  0
   36.9330   24.7430   30.9270 H   0  0  0  0  0  0  0  0  0  0  0  0
   39.5780   21.6730   31.4070 Cl  0  0  0  0  0  0  0  0  0  0  0  0
   37.8440   21.5880   31.7570 C   0  0  0  0  0  0  0  0  0  0  0  0
   37.1030   22.7610   31.5670 C   0  0  0  0  0  0  0  0  0  0  0  0
   35.7730   22.5900   31.8650 C   0  0  0  0  0  0  0  0  0  0  0  0
   35.1170   23.4400   31.7560 H   0  0  0  0  0  0  0  0  0  0  0  0
   35.2020   21.4140   32.3030 C   0  0  0  0  0  3  0  0  0  0  0  0
   36.0050   20.2940   32.4670 C   0  0  0  0  0  0  0  0  0  0  0  0
   35.3920   18.7670   33.0110 Cl  0  0  0  0  0  0  0  0  0  0  0  0
   37.3480   20.3830   32.1890 C   0  0  0  0  0  0  0  0  0  0  0  0
   38.0120   19.5380   32.3020 H   0  0  0  0  0  0  0  0  0  0  0  0
   38.6440   23.0230   36.6580 C   0  0  0  0  0  0  0  0  0  0  0  0
   39.9130   23.2620   37.2060 F   0  0  0  0  0  0  0  0  0  0  0  0
   37.6500   23.0220   37.5680 F   0  0  0  0  0  0  0  0  0  0  0  0
   38.7360   21.8040   35.9890 F   0  0  0  0  0  0  0  0  0  0  0  0
  1  2  1  0  0  0  0
  1 33  1  0  0  0  0
  2 13  1  0  0  0  0
  3 14  1  0  0  0  0
  3  2  2  0  0  0  0
  4  3  1  0  0  0  0
  5  4  2  0  0  0  0
  5  6  1  0  0  0  0
  6  1  2  0  0  0  0
  7  5  1  0  0  0  0
  8  7  1  0  0  0  0
  8 15  1  0  0  0  0
  9 17  1  0  0  0  0
  9  8  1  0  0  0  0
 10 11  1  0  0  0  0
 10  9  1  0  0  0  0
 11 20  1  0  0  0  0
 11 12  1  0  0  0  0
 12 22  1  6  0  0  0
 12 25  1  0  0  0  0
 12  7  1  0  0  0  0
 16  8  1  0  0  0  0
 18  9  1  0  0  0  0
 19 10  1  0  0  0  0
 21 11  1  0  0  0  0
 23 24  1  0  0  0  0
 24 31  1  0  0  0  0
 25 24  2  0  0  0  0
 25 26  1  0  0  0  0
 26 28  2  0  0  0  0
 27 26  1  0  0  0  0
 28 29  1  0  0  0  0
 29 30  1  0  0  0  0
 31 32  1  0  0  0  0
 31 29  2  0  0  0  0
 33 34  1  0  0  0  0
 33 35  1  0  0  0  0
 36 33  1  0  0  0  0
M  END
>  <minimizedAffinity>
-5.83872509

$$$$

 OpenBabel03272505353D

 36 38  0  0  1  0  0  0  0  0999 V2000
   38.0650   25.0990   35.1860 C   0  0  0  0  0  0  0  0  0  0  0  0
   37.4030   26.3110   35.3280 C   0  0  0  0  0  0  0  0  0  0  0  0
   37.1860   27.0820   34.1750 C   0  0  0  0  0  0  0  0  0  0  0  0
   37.6430   26.5880   32.9820 N   0  0  0  0  0  0  0  0  0  0  0  0
   38.2790   25.4090   32.8880 C   0  0  0  0  0  0  0  0  0  0  0  0
   38.4750   24.6960   33.9830 N   0  0  0  0  0  0  0  0  0  0  0  0
   38.7070   24.9960   31.6070 N   0  0  0  0  0  0  0  0  0  0  0  0
   40.0460   25.3680   31.1510 C   0  0  0  0  0  0  0  0  0  0  0  0
   40.0080   25.8460   29.7070 C   0  0  0  0  0  0  0  0  0  0  0  0
   39.2850   24.9400   28.8620 N   0  0  0  0  0  0  0  0  0  0  0  0
   38.7050   23.8310   29.5250 C   0  0  0  0  0  0  0  0  0  0  0  0
   37.8650   24.2140   30.7210 C   0  0  1  0  0  0  0  0  0  0  0  0
   37.0590   26.6630   36.2900 H   0  0  0  0  0  0  0  0  0  0  0  0
   36.6800   28.0290   34.2160 H   0  0  0  0  0  0  0  0  0  0  0  0
   40.4460   26.1670   31.7790 H   0  0  0  0  0  0  0  0  0  0  0  0
   40.6480   24.4490   31.1690 H   0  0  0  0  0  0  0  0  0  0  0  0
   39.4230   26.8010   29.7140 H   0  0  0  0  0  0  0  0  0  0  0  0
   41.0200   26.0800   29.3940 H   0  0  0  0  0  0  0  0  0  0  0  0
   38.6290   25.3930   28.2000 H   0  0  0  0  0  0  0  0  0  0  0  0
   39.4870   23.1150   29.9040 H   0  0  0  0  0  0  0  0  0  0  0  0
   38.1270   23.2530   28.7720 H   0  0  0  0  0  0  0  0  0  0  0  0
   37.0490   24.8910   30.3420 H   0  0  0  0  0  0  0  0  0  0  0  0
   39.7190   22.0270   31.4790 Cl  0  0  0  0  0  0  0  0  0  0  0  0
   37.9690   21.9510   31.7460 C   0  0  0  0  0  0  0  0  0  0  0  0
   37.2180   23.0600   31.3320 C   0  0  0  0  0  0  0  0  0  0  0  0
   35.8770   22.9020   31.5830 C   0  0  0  0  0  0  0  0  0  0  0  0
   35.2130   23.7060   31.3050 H   0  0  0  0  0  0  0  0  0  0  0  0
   35.3040   21.7950   32.1730 C   0  0  0  0  0  3  0  0  0  0  0  0
   36.1170   20.7370   32.5560 C   0  0  0  0  0  0  0  0  0  0  0  0
   35.5020   19.3010   33.3040 Cl  0  0  0  0  0  0  0  0  0  0  0  0
   37.4710   20.8180   32.3390 C   0  0  0  0  0  0  0  0  0  0  0  0
   38.1440   20.0200   32.6200 H   0  0  0  0  0  0  0  0  0  0  0  0
   38.3030   24.2660   36.4060 C   0  0  0  0  0  0  0  0  0  0  0  0
   37.3600   23.2280   36.4520 F   0  0  0  0  0  0  0  0  0  0  0  0
   39.5810   23.8400   36.3910 F   0  0  0  0  0  0  0  0  0  0  0  0
   38.0400   25.0760   37.5090 F   0  0  0  0  0  0  0  0  0  0  0  0
  1  2  1  0  0  0  0
  1 33  1  0  0  0  0
  2 13  1  0  0  0  0
  3 14  1  0  0  0  0
  3  2  2  0  0  0  0
  4  3  1  0  0  0  0
  5  4  2  0  0  0  0
  5  6  1  0  0  0  0
  6  1  2  0  0  0  0
  7  5  1  0  0  0  0
  8 16  1  0  0  0  0
  8  7  1  0  0  0  0
  8 15  1  0  0  0  0
  9 17  1  0  0  0  0
  9  8  1  0  0  0  0
 10 11  1  0  0  0  0
 10  9  1  0  0  0  0
 11 20  1  0  0  0  0
 11 12  1  0  0  0  0
 12 22  1  6  0  0  0
 12 25  1  0  0  0  0
 12  7  1  0  0  0  0
 18  9  1  0  0  0  0
 19 10  1  0  0  0  0
 21 11  1  0  0  0  0
 23 24  1  0  0  0  0
 24 31  1  0  0  0  0
 25 26  1  0  0  0  0
 25 24  2  0  0  0  0
 26 28  2  0  0  0  0
 27 26  1  0  0  0  0
 28 29  1  0  0  0  0
 29 30  1  0  0  0  0
 31 29  2  0  0  0  0
 31 32  1  0  0  0  0
 33 34  1  0  0  0  0
 33 36  1  0  0  0  0
 35 33  1  0  0  0  0
M  END
>  <minimizedAffinity>
-5.78242016

$$$$

 OpenBabel03272505353D

 36 38  0  0  1  0  0  0  0  0999 V2000
   37.2360   26.1080   33.4790 C   0  0  0  0  0  0  0  0  0  0  0  0
   37.3990   27.4040   33.9480 C   0  0  0  0  0  0  0  0  0  0  0  0
   38.0150   27.5800   35.1980 C   0  0  0  0  0  0  0  0  0  0  0  0
   38.4160   26.4590   35.8740 N   0  0  0  0  0  0  0  0  0  0  0  0
   38.2400   25.2210   35.3840 C   0  0  0  0  0  0  0  0  0  0  0  0
   37.6590   25.0730   34.2070 N   0  0  0  0  0  0  0  0  0  0  0  0
   38.6930   24.1350   36.1660 N   0  0  0  0  0  0  0  0  0  0  0  0
   37.7760   23.5180   37.1230 C   0  0  0  0  0  0  0  0  0  0  0  0
   38.4760   23.2580   38.4490 C   0  0  0  0  0  0  0  0  0  0  0  0
   39.7350   22.5960   38.2670 N   0  0  0  0  0  0  0  0  0  0  0  0
   40.1080   22.3690   36.9200 C   0  0  0  0  0  0  0  0  0  0  0  0
   40.0410   23.6080   36.0580 C   0  0  1  0  0  0  0  0  0  0  0  0
   37.0670   28.2610   33.3810 H   0  0  0  0  0  0  0  0  0  0  0  0
   38.1710   28.5560   35.6180 H   0  0  0  0  0  0  0  0  0  0  0  0
   36.9190   24.1740   37.2970 H   0  0  0  0  0  0  0  0  0  0  0  0
   37.5030   22.5390   36.7070 H   0  0  0  0  0  0  0  0  0  0  0  0
   38.7120   24.2670   38.8750 H   0  0  0  0  0  0  0  0  0  0  0  0
   37.7770   22.7700   39.1200 H   0  0  0  0  0  0  0  0  0  0  0  0
   40.5140   22.9790   38.8350 H   0  0  0  0  0  0  0  0  0  0  0  0
   39.4460   21.6030   36.4270 H   0  0  0  0  0  0  0  0  0  0  0  0
   41.1220   21.9120   36.9230 H   0  0  0  0  0  0  0  0  0  0  0  0
   40.7390   24.3620   36.5170 H   0  0  0  0  0  0  0  0  0  0  0  0
   41.8750   25.6790   34.9890 Cl  0  0  0  0  0  0  0  0  0  0  0  0
   41.3810   24.2510   34.0640 C   0  0  0  0  0  0  0  0  0  0  0  0
   40.5050   23.3590   34.6990 C   0  0  0  0  0  0  0  0  0  0  0  0
   40.1850   22.2890   33.9000 C   0  0  0  0  0  0  0  0  0  0  0  0
   39.5190   21.5410   34.3020 H   0  0  0  0  0  0  0  0  0  0  0  0
   40.6530   22.0840   32.6200 C   0  0  0  0  0  3  0  0  0  0  0  0
   41.5190   23.0150   32.0610 C   0  0  0  0  0  0  0  0  0  0  0  0
   42.1660   22.8570   30.4620 Cl  0  0  0  0  0  0  0  0  0  0  0  0
   41.8880   24.1150   32.7970 C   0  0  0  0  0  0  0  0  0  0  0  0
   42.5600   24.8660   32.4040 H   0  0  0  0  0  0  0  0  0  0  0  0
   36.5820   25.9040   32.1490 C   0  0  0  0  0  0  0  0  0  0  0  0
   37.5440   26.0180   31.1340 F   0  0  0  0  0  0  0  0  0  0  0  0
   35.9440   24.7180   32.1620 F   0  0  0  0  0  0  0  0  0  0  0  0
   35.6980   26.9670   31.9640 F   0  0  0  0  0  0  0  0  0  0  0  0
  1  2  2  0  0  0  0
  1  6  1  0  0  0  0
  2  3  1  0  0  0  0
  3 14  1  0  0  0  0
  3  4  2  0  0  0  0
  5  4  1  0  0  0  0
  5  7  1  0  0  0  0
  6  5  2  0  0  0  0
  7  8  1  0  0  0  0
  8 15  1  0  0  0  0
  8  9  1  0  0  0  0
  9 17  1  0  0  0  0
  9 18  1  0  0  0  0
 10  9  1  0  0  0  0
 10 19  1  0  0  0  0
 11 21  1  0  0  0  0
 11 10  1  0  0  0  0
 12  7  1  0  0  0  0
 12 22  1  1  0  0  0
 12 11  1  0  0  0  0
 13  2  1  0  0  0  0
 16  8  1  0  0  0  0
 20 11  1  0  0  0  0
 24 25  1  0  0  0  0
 24 23  1  0  0  0  0
 25 12  1  0  0  0  0
 26 27  1  0  0  0  0
 26 25  2  0  0  0  0
 28 26  1  0  0  0  0
 29 28  2  0  0  0  0
 29 31  1  0  0  0  0
 30 29  1  0  0  0  0
 31 24  2  0  0  0  0
 32 31  1  0  0  0  0
 33 35  1  0  0  0  0
 33  1  1  0  0  0  0
 34 33  1  0  0  0  0
 36 33  1  0  0  0  0
M  END
>  <minimizedAffinity>
-5.67146635

$$$$

 OpenBabel03272505353D

 36 38  0  0  1  0  0  0  0  0999 V2000
   37.3490   22.8380   32.7350 C   0  0  0  0  0  0  0  0  0  0  0  0
   37.1750   21.9510   33.7880 C   0  0  0  0  0  0  0  0  0  0  0  0
   38.0420   22.0560   34.8890 C   0  0  0  0  0  0  0  0  0  0  0  0
   39.0060   23.0280   34.8500 N   0  0  0  0  0  0  0  0  0  0  0  0
   39.1400   23.8670   33.8100 C   0  0  0  0  0  0  0  0  0  0  0  0
   38.3160   23.7550   32.7830 N   0  0  0  0  0  0  0  0  0  0  0  0
   40.1690   24.8330   33.8750 N   0  0  0  0  0  0  0  0  0  0  0  0
   41.4890   24.5020   33.3410 C   0  0  0  0  0  0  0  0  0  0  0  0
   42.5850   24.9650   34.2890 C   0  0  0  0  0  0  0  0  0  0  0  0
   42.3970   26.3250   34.7020 N   0  0  0  0  0  0  0  0  0  0  0  0
   41.2240   26.9470   34.2100 C   0  0  0  0  0  0  0  0  0  0  0  0
   39.9660   26.1470   34.4580 C   0  0  1  0  0  0  0  0  0  0  0  0
   36.4000   21.1990   33.7780 H   0  0  0  0  0  0  0  0  0  0  0  0
   37.9610   21.4010   35.7360 H   0  0  0  0  0  0  0  0  0  0  0  0
   41.5750   23.4220   33.1980 H   0  0  0  0  0  0  0  0  0  0  0  0
   41.6040   25.0800   32.4130 H   0  0  0  0  0  0  0  0  0  0  0  0
   42.4760   24.3400   35.2130 H   0  0  0  0  0  0  0  0  0  0  0  0
   43.5480   24.7340   33.8450 H   0  0  0  0  0  0  0  0  0  0  0  0
   42.5410   26.4960   35.7140 H   0  0  0  0  0  0  0  0  0  0  0  0
   41.2760   27.1170   33.0980 H   0  0  0  0  0  0  0  0  0  0  0  0
   41.1690   27.9650   34.6530 H   0  0  0  0  0  0  0  0  0  0  0  0
   39.8790   26.0150   35.5720 H   0  0  0  0  0  0  0  0  0  0  0  0
   39.9710   26.8780   31.5840 Cl  0  0  0  0  0  0  0  0  0  0  0  0
   38.6290   27.2530   32.6780 C   0  0  0  0  0  0  0  0  0  0  0  0
   38.7690   26.8490   34.0120 C   0  0  0  0  0  0  0  0  0  0  0  0
   37.6770   27.1850   34.7750 C   0  0  0  0  0  0  0  0  0  0  0  0
   37.6870   26.9110   35.8180 H   0  0  0  0  0  0  0  0  0  0  0  0
   36.5570   27.8430   34.3120 C   0  0  0  0  0  3  0  0  0  0  0  0
   36.4940   28.2100   32.9750 C   0  0  0  0  0  0  0  0  0  0  0  0
   35.1370   29.0400   32.2890 Cl  0  0  0  0  0  0  0  0  0  0  0  0
   37.5480   27.9090   32.1450 C   0  0  0  0  0  0  0  0  0  0  0  0
   37.5440   28.1750   31.0970 H   0  0  0  0  0  0  0  0  0  0  0  0
   36.4320   22.7390   31.5570 C   0  0  0  0  0  0  0  0  0  0  0  0
   36.4950   23.9300   30.8170 F   0  0  0  0  0  0  0  0  0  0  0  0
   36.7600   21.6410   30.8490 F   0  0  0  0  0  0  0  0  0  0  0  0
   35.1330   22.6650   32.0580 F   0  0  0  0  0  0  0  0  0  0  0  0
  1  6  2  0  0  0  0
  1  2  1  0  0  0  0
  2  3  2  0  0  0  0
  3 14  1  0  0  0  0
  4  3  1  0  0  0  0
  5  7  1  0  0  0  0
  5  4  2  0  0  0  0
  6  5  1  0  0  0  0
  7 12  1  0  0  0  0
  8  7  1  0  0  0  0
  8  9  1  0  0  0  0
  9 10  1  0  0  0  0
  9 17  1  0  0  0  0
 10 19  1  0  0  0  0
 11 12  1  0  0  0  0
 11 21  1  0  0  0  0
 11 10  1  0  0  0  0
 12 22  1  1  0  0  0
 13  2  1  0  0  0  0
 15  8  1  0  0  0  0
 16  8  1  0  0  0  0
 18  9  1  0  0  0  0
 20 11  1  0  0  0  0
 23 24  1  0  0  0  0
 24 25  1  0  0  0  0
 25 12  1  0  0  0  0
 25 26  2  0  0  0  0
 26 27  1  0  0  0  0
 28 26  1  0  0  0  0
 29 28  2  0  0  0  0
 30 29  1  0  0  0  0
 31 24  2  0  0  0  0
 31 29  1  0  0  0  0
 32 31  1  0  0  0  0
 33 36  1  0  0  0  0
 33  1  1  0  0  0  0
 34 33  1  0  0  0  0
 35 33  1  0  0  0  0
M  END
>  <minimizedAffinity>
-5.65373468

$$$$

 OpenBabel03272505353D

 36 38  0  0  1  0  0  0  0  0999 V2000
   36.5290   21.5860   32.3260 C   0  0  0  0  0  0  0  0  0  0  0  0
   37.2780   21.0490   31.2890 C   0  0  0  0  0  0  0  0  0  0  0  0
   38.0380   21.9280   30.5010 C   0  0  0  0  0  0  0  0  0  0  0  0
   37.9900   23.2620   30.8070 N   0  0  0  0  0  0  0  0  0  0  0  0
   37.2510   23.7410   31.8210 C   0  0  0  0  0  0  0  0  0  0  0  0
   36.5420   22.9010   32.5530 N   0  0  0  0  0  0  0  0  0  0  0  0
   37.2760   25.1350   32.0490 N   0  0  0  0  0  0  0  0  0  0  0  0
   36.2900   25.9820   31.3790 C   0  0  0  0  0  0  0  0  0  0  0  0
   36.9470   27.2350   30.8200 C   0  0  0  0  0  0  0  0  0  0  0  0
   37.7750   27.8850   31.7950 N   0  0  0  0  0  0  0  0  0  0  0  0
   37.8710   27.2210   33.0420 C   0  0  0  0  0  0  0  0  0  0  0  0
   38.2490   25.7630   32.9230 C   0  0  1  0  0  0  0  0  0  0  0  0
   37.2870   19.9890   31.0830 H   0  0  0  0  0  0  0  0  0  0  0  0
   38.6400   21.5770   29.6830 H   0  0  0  0  0  0  0  0  0  0  0  0
   35.8190   25.4320   30.5600 H   0  0  0  0  0  0  0  0  0  0  0  0
   35.5820   26.3090   32.1530 H   0  0  0  0  0  0  0  0  0  0  0  0
   37.6350   26.8860   30.0080 H   0  0  0  0  0  0  0  0  0  0  0  0
   36.1810   27.8530   30.3620 H   0  0  0  0  0  0  0  0  0  0  0  0
   38.6970   28.1990   31.4410 H   0  0  0  0  0  0  0  0  0  0  0  0
   36.8970   27.2510   33.6070 H   0  0  0  0  0  0  0  0  0  0  0  0
   38.5860   27.7920   33.6740 H   0  0  0  0  0  0  0  0  0  0  0  0
   39.2470   25.7270   32.4040 H   0  0  0  0  0  0  0  0  0  0  0  0
   40.6160   23.9890   33.1300 Cl  0  0  0  0  0  0  0  0  0  0  0  0
   39.4940   24.2680   34.4720 C   0  0  0  0  0  0  0  0  0  0  0  0
   38.4170   25.1300   34.2250 C   0  0  0  0  0  0  0  0  0  0  0  0
   37.6090   25.2800   35.3260 C   0  0  0  0  0  0  0  0  0  0  0  0
   36.7530   25.9300   35.2390 H   0  0  0  0  0  0  0  0  0  0  0  0
   37.8060   24.6680   36.5460 C   0  0  0  0  0  3  0  0  0  0  0  0
   38.8990   23.8280   36.7100 C   0  0  0  0  0  0  0  0  0  0  0  0
   39.2410   23.0090   38.1980 Cl  0  0  0  0  0  0  0  0  0  0  0  0
   39.7560   23.6260   35.6560 C   0  0  0  0  0  0  0  0  0  0  0  0
   40.6200   22.9800   35.7360 H   0  0  0  0  0  0  0  0  0  0  0  0
   35.7140   20.6620   33.1750 C   0  0  0  0  0  0  0  0  0  0  0  0
   36.1730   19.3470   33.0050 F   0  0  0  0  0  0  0  0  0  0  0  0
   35.7640   21.0950   34.4500 F   0  0  0  0  0  0  0  0  0  0  0  0
   34.4150   20.6860   32.6700 F   0  0  0  0  0  0  0  0  0  0  0  0
  1  6  1  0  0  0  0
  1 33  1  0  0  0  0
  2  1  2  0  0  0  0
  3  4  2  0  0  0  0
  3  2  1  0  0  0  0
  4  5  1  0  0  0  0
  5  7  1  0  0  0  0
  5  6  2  0  0  0  0
  7 12  1  0  0  0  0
  8  7  1  0  0  0  0
  8 16  1  0  0  0  0
  9  8  1  0  0  0  0
  9 10  1  0  0  0  0
 10 11  1  0  0  0  0
 11 20  1  0  0  0  0
 11 21  1  0  0  0  0
 12 22  1  6  0  0  0
 12 11  1  0  0  0  0
 12 25  1  0  0  0  0
 13  2  1  0  0  0  0
 14  3  1  0  0  0  0
 15  8  1  0  0  0  0
 17  9  1  0  0  0  0
 18  9  1  0  0  0  0
 19 10  1  0  0  0  0
 23 24  1  0  0  0  0
 24 31  1  0  0  0  0
 25 24  2  0  0  0  0
 25 26  1  0  0  0  0
 26 28  2  0  0  0  0
 27 26  1  0  0  0  0
 28 29  1  0  0  0  0
 29 30  1  0  0  0  0
 31 32  1  0  0  0  0
 31 29  2  0  0  0  0
 33 35  1  0  0  0  0
 34 33  1  0  0  0  0
 36 33  1  0  0  0  0
M  END
>  <minimizedAffinity>
-5.58202076

$$$$

 OpenBabel03272505353D

 36 38  0  0  1  0  0  0  0  0999 V2000
   38.5360   24.1120   35.4040 C   0  0  0  0  0  0  0  0  0  0  0  0
   39.8090   23.5680   35.4930 C   0  0  0  0  0  0  0  0  0  0  0  0
   40.0860   22.4130   34.7420 C   0  0  0  0  0  0  0  0  0  0  0  0
   39.0800   21.8980   33.9700 N   0  0  0  0  0  0  0  0  0  0  0  0
   37.8600   22.4560   33.9130 C   0  0  0  0  0  0  0  0  0  0  0  0
   37.6150   23.5420   34.6250 N   0  0  0  0  0  0  0  0  0  0  0  0
   36.8960   21.8420   33.0830 N   0  0  0  0  0  0  0  0  0  0  0  0
   36.0240   20.8130   33.6480 C   0  0  0  0  0  0  0  0  0  0  0  0
   35.8990   19.6320   32.6960 C   0  0  0  0  0  0  0  0  0  0  0  0
   35.5910   20.0530   31.3600 N   0  0  0  0  0  0  0  0  0  0  0  0
   35.5240   21.4540   31.1700 C   0  0  0  0  0  0  0  0  0  0  0  0
   36.7380   22.1920   31.6830 C   0  0  1  0  0  0  0  0  0  0  0  0
   40.5750   24.0080   36.1150 H   0  0  0  0  0  0  0  0  0  0  0  0
   41.0520   21.9420   34.7650 H   0  0  0  0  0  0  0  0  0  0  0  0
   36.4300   20.4600   34.6000 H   0  0  0  0  0  0  0  0  0  0  0  0
   35.0250   21.2620   33.7340 H   0  0  0  0  0  0  0  0  0  0  0  0
   36.9160   19.1640   32.6510 H   0  0  0  0  0  0  0  0  0  0  0  0
   35.2200   18.9060   33.1330 H   0  0  0  0  0  0  0  0  0  0  0  0
   36.1380   19.5770   30.6190 H   0  0  0  0  0  0  0  0  0  0  0  0
   34.6340   21.9040   31.6940 H   0  0  0  0  0  0  0  0  0  0  0  0
   35.3440   21.6390   30.0890 H   0  0  0  0  0  0  0  0  0  0  0  0
   37.6270   21.7820   31.1280 H   0  0  0  0  0  0  0  0  0  0  0  0
   39.3060   23.3880   30.8060 Cl  0  0  0  0  0  0  0  0  0  0  0  0
   37.8090   24.3210   30.9730 C   0  0  0  0  0  0  0  0  0  0  0  0
   36.6740   23.6210   31.4020 C   0  0  0  0  0  0  0  0  0  0  0  0
   35.5690   24.4320   31.4990 C   0  0  0  0  0  0  0  0  0  0  0  0
   34.6400   23.9840   31.8160 H   0  0  0  0  0  0  0  0  0  0  0  0
   35.5470   25.7810   31.2150 C   0  0  0  0  0  3  0  0  0  0  0  0
   36.7150   26.4020   30.7950 C   0  0  0  0  0  0  0  0  0  0  0  0
   36.8000   28.0890   30.4130 Cl  0  0  0  0  0  0  0  0  0  0  0  0
   37.8650   25.6590   30.6720 C   0  0  0  0  0  0  0  0  0  0  0  0
   38.7980   26.0980   30.3490 H   0  0  0  0  0  0  0  0  0  0  0  0
   38.2260   25.3420   36.1980 C   0  0  0  0  0  0  0  0  0  0  0  0
   37.0580   25.9370   35.6970 F   0  0  0  0  0  0  0  0  0  0  0  0
   38.1490   25.0040   37.5000 F   0  0  0  0  0  0  0  0  0  0  0  0
   39.2560   26.2500   35.9570 F   0  0  0  0  0  0  0  0  0  0  0  0
  1  2  1  0  0  0  0
  1 33  1  0  0  0  0
  2 13  1  0  0  0  0
  3 14  1  0  0  0  0
  3  2  2  0  0  0  0
  4  3  1  0  0  0  0
  5  4  2  0  0  0  0
  5  6  1  0  0  0  0
  6  1  2  0  0  0  0
  7  8  1  0  0  0  0
  7  5  1  0  0  0  0
  8 16  1  0  0  0  0
  8 15  1  0  0  0  0
  9 18  1  0  0  0  0
  9  8  1  0  0  0  0
 10  9  1  0  0  0  0
 11 10  1  0  0  0  0
 11 12  1  0  0  0  0
 11 20  1  0  0  0  0
 12 22  1  6  0  0  0
 12  7  1  0  0  0  0
 17  9  1  0  0  0  0
 19 10  1  0  0  0  0
 21 11  1  0  0  0  0
 23 24  1  0  0  0  0
 24 25  1  0  0  0  0
 25 26  2  0  0  0  0
 25 12  1  0  0  0  0
 26 27  1  0  0  0  0
 28 26  1  0  0  0  0
 29 28  2  0  0  0  0
 30 29  1  0  0  0  0
 31 29  1  0  0  0  0
 31 24  2  0  0  0  0
 32 31  1  0  0  0  0
 33 35  1  0  0  0  0
 34 33  1  0  0  0  0
 36 33  1  0  0  0  0
M  END
>  <minimizedAffinity>
-5.54835987

$$$$
