
     RDKit          3D

 31 33  0  0  0  0  0  0  0  0999 V2000
   37.2698   29.4554   51.1254 Br  0  0  0  0  0  0  0  0  0  0  0  0
   35.9950   29.3243   49.7121 C   0  0  0  0  0  0  0  0  0  0  0  0
   36.0203   30.2061   48.6446 C   0  0  0  0  0  0  0  0  0  0  0  0
   35.0616   30.0397   47.6665 C   0  0  0  0  0  0  0  0  0  0  0  0
   34.0952   29.0520   47.7022 C   0  0  0  0  0  0  0  0  0  0  0  0
   34.1089   28.1877   48.7963 C   0  0  0  0  0  0  0  0  0  0  0  0
   35.0654   28.3378   49.7920 C   0  0  0  0  0  0  0  0  0  0  0  0
   37.8754   33.2318   49.4596 C   0  0  0  0  0  0  0  0  0  0  0  0
   38.8972   33.2637   48.4918 C   0  0  0  0  0  0  0  0  0  0  0  0
   38.9394   32.2402   47.5634 C   0  0  0  0  0  0  0  0  0  0  0  0
   37.9899   31.2619   47.6405 N   0  0  0  0  0  0  0  0  0  0  0  0
   37.0228   31.2552   48.5771 C   0  0  0  0  0  0  0  0  0  0  0  0
   36.9554   32.2558   49.5100 N   0  0  0  0  0  0  0  0  0  0  0  0
   39.7886   34.3124   48.5324 O   0  0  0  0  0  0  0  0  0  0  0  0
   35.1211   30.7493   46.8557 H   0  0  0  0  0  0  0  0  0  0  0  0
   33.3888   29.0114   46.8793 H   0  0  0  0  0  0  0  0  0  0  0  0
   33.3531   27.4154   48.8239 H   0  0  0  0  0  0  0  0  0  0  0  0
   35.0467   27.6472   50.6294 H   0  0  0  0  0  0  0  0  0  0  0  0
   37.7867   34.0018   50.2135 H   0  0  0  0  0  0  0  0  0  0  0  0
   39.7180   32.2486   46.8121 H   0  0  0  0  0  0  0  0  0  0  0  0
   39.0966   33.1427   51.1351 Cl  0  0  0  0  0  0  0  0  0  0  0  0
   40.6777   33.6114   50.5463 C   0  0  0  0  0  0  0  0  0  0  0  0
   40.9375   34.1622   49.2977 C   0  0  0  0  0  0  0  0  0  0  0  0
   42.2295   34.4931   48.9436 C   0  0  0  0  0  0  0  0  0  0  0  0
   42.3379   34.9147   47.9562 H   0  0  0  0  0  0  0  0  0  0  0  0
   43.2519   34.2663   49.8510 C   0  0  0  0  0  0  0  0  0  0  0  0
   43.0216   33.7218   51.0948 C   0  0  0  0  0  0  0  0  0  0  0  0
   44.3264   33.4555   52.1968 Cl  0  0  0  0  0  0  0  0  0  0  0  0
   41.7160   33.3958   51.4326 C   0  0  0  0  0  0  0  0  0  0  0  0
   41.5747   32.9668   52.4263 H   0  0  0  0  0  0  0  0  0  0  0  0
   44.2385   34.5463   49.5144 H   0  0  0  0  0  0  0  0  0  0  0  0
  2  7  2  0
  2  1  1  0
  3  2  1  0
  4  5  1  0
  4  3  2  0
  5  6  2  0
  6  7  1  0
  8 13  2  0
  9 14  1  0
  9  8  1  0
 10 11  1  0
 10  9  2  0
 11 12  2  0
 12  3  1  0
 12 13  1  0
  4 15  1  0
  5 16  1  0
  6 17  1  0
  7 18  1  0
  8 19  1  0
 10 20  1  0
 21 22  1  0
 22 23  2  0
 23 24  1  0
 24 25  1  0
 24 26  2  0
 26 27  1  0
 27 28  1  0
 27 29  2  0
 29 30  1  0
 29 22  1  0
 26 31  1  0
 14 23  1  0
M  ISO  8  15  14  16  14  17  14  18  14  19  14  20  14  25  16  30  15
M  END
>  <DihAtoms>  (1) 
8,13,22,21

>  <DihDeg>  (1) 
179.99783933343787

$$$$
