
 OpenBabel03272500263D

 35 37  0  0  0  0  0  0  0  0999 V2000
   39.6550   31.8340   45.2830 C   0  0  0  0  0  0  0  0  0  0  0  0
   39.6590   32.9160   44.4580 C   0  0  0  0  0  0  0  0  0  0  0  0
   39.4590   32.8090   43.0710 C   0  0  0  0  0  0  0  0  0  0  0  0
   39.2610   31.5180   42.6320 N   0  0  0  0  0  0  0  0  0  0  0  0
   39.2590   30.4570   43.4540 C   0  0  0  0  0  0  0  0  0  0  0  0
   39.4590   30.6250   44.7900 N   0  0  0  0  0  0  0  0  0  0  0  0
   39.8110   33.9460   44.7630 H   0  0  0  0  0  0  0  0  0  0  0  0
   39.4570   33.6440   42.4070 H   0  0  0  0  0  0  0  0  0  0  0  0
   41.6170   29.2690   42.1720 Cl  0  0  0  0  0  0  0  0  0  0  0  0
   40.0880   28.4560   42.3140 C   0  0  0  0  0  0  0  0  0  0  0  0
   39.0440   29.1080   42.9370 C   0  0  0  0  0  0  0  0  0  0  0  0
   37.8220   28.4790   43.0600 C   0  0  0  0  0  0  0  0  0  0  0  0
   37.0270   29.0210   43.5530 H   0  0  0  0  0  0  0  0  0  0  0  0
   37.6340   27.1870   42.5580 C   0  0  0  0  0  0  0  0  0  0  0  0
   38.7100   26.5900   41.9480 C   0  0  0  0  0  0  0  0  0  0  0  0
   38.5590   24.9680   41.2910 Cl  0  0  0  0  0  0  0  0  0  0  0  0
   39.9320   27.1830   41.8100 C   0  0  0  0  0  0  0  0  0  0  0  0
   40.7950   26.7320   41.3340 H   0  0  0  0  0  0  0  0  0  0  0  0
   39.8640   31.9920   46.6920 C   0  0  0  0  0  0  0  0  0  0  0  0
   40.7910   32.6240   46.8260 H   0  0  0  0  0  0  0  0  0  0  0  0
   40.1800   31.0120   47.1500 H   0  0  0  0  0  0  0  0  0  0  0  0
   38.7990   32.5180   47.5520 C   0  0  0  0  0  0  0  0  0  0  0  0
   38.0360   33.1180   47.0140 H   0  0  0  0  0  0  0  0  0  0  0  0
   39.2020   33.2440   48.3180 H   0  0  0  0  0  0  0  0  0  0  0  0
   38.0740   31.5040   48.3510 C   0  0  0  0  0  0  0  0  0  0  0  0
   37.0680   30.7300   47.7640 C   0  0  0  0  0  0  0  0  0  0  0  0
   36.5720   29.8850   48.7190 C   0  0  0  0  0  0  0  0  0  0  0  0
   37.2540   30.1390   49.8440 N   0  0  0  0  0  0  0  0  0  0  0  0
   38.1190   31.0850   49.5930 N   0  0  0  0  0  0  0  0  0  0  0  0
   36.6730   30.7190   46.7450 H   0  0  0  0  0  0  0  0  0  0  0  0
   35.7750   29.1300   48.6310 H   0  0  0  0  0  0  0  0  0  0  0  0
   37.0950   29.4950   51.1480 C   0  0  0  0  0  0  0  0  0  0  0  0
   37.8650   28.3540   51.2160 F   0  0  0  0  0  0  0  0  0  0  0  0
   35.7850   29.1650   51.4100 F   0  0  0  0  0  0  0  0  0  0  0  0
   37.5490   30.3250   52.1630 F   0  0  0  0  0  0  0  0  0  0  0  0
  1 19  1  0  0  0  0
  2  7  1  0  0  0  0
  2  1  2  0  0  0  0
  3  2  1  0  0  0  0
  4  3  2  0  0  0  0
  4  5  1  0  0  0  0
  5  6  2  0  0  0  0
  6  1  1  0  0  0  0
  8  3  1  0  0  0  0
  9 10  1  0  0  0  0
 10 11  1  0  0  0  0
 11 12  2  0  0  0  0
 11  5  1  0  0  0  0
 12 13  1  0  0  0  0
 14 12  1  0  0  0  0
 15 14  2  0  0  0  0
 16 15  1  0  0  0  0
 17 15  1  0  0  0  0
 17 10  2  0  0  0  0
 18 17  1  0  0  0  0
 19 20  1  0  0  0  0
 19 21  1  0  0  0  0
 19 22  1  0  0  0  0
 22 24  1  0  0  0  0
 22 25  1  0  0  0  0
 23 22  1  0  0  0  0
 25 29  2  0  0  0  0
 26 25  1  0  0  0  0
 26 27  2  0  0  0  0
 27 28  1  0  0  0  0
 28 32  1  0  0  0  0
 29 28  1  0  0  0  0
 30 26  1  0  0  0  0
 31 27  1  0  0  0  0
 32 33  1  0  0  0  0
 32 34  1  0  0  0  0
 32 35  1  0  0  0  0
M  END
>  <minimizedAffinity>
-6.31758785

>  <minimizedRMSD>
2.05595827

$$$$
