
 OpenBabel03272501553D

 25 26  0  0  0  0  0  0  0  0999 V2000
   33.8100   28.6170   48.5920 C   0  0  0  0  0  0  0  0  0  0  0  0
   34.6380   28.9220   47.9220 H   0  0  0  0  0  0  0  0  0  0  0  0
   33.0800   29.4740   48.6150 H   0  0  0  0  0  0  0  0  0  0  0  0
   30.9080   27.9220   49.2990 Cl  0  0  0  0  0  0  0  0  0  0  0  0
   31.9400   26.9350   48.2840 C   0  0  0  0  0  0  0  0  0  0  0  0
   33.2170   27.3900   48.0630 C   0  0  0  0  0  0  0  0  0  0  0  0
   33.9710   26.5410   47.2420 C   0  0  0  0  0  0  0  0  0  0  0  0
   35.0040   26.8680   47.0380 H   0  0  0  0  0  0  0  0  0  0  0  0
   33.5330   25.3550   46.6790 C   0  0  0  0  0  3  0  0  0  0  0  0
   32.2340   24.9670   46.9500 C   0  0  0  0  0  0  0  0  0  0  0  0
   31.7610   23.4580   46.2020 Cl  0  0  0  0  0  0  0  0  0  0  0  0
   31.4420   25.7590   47.7510 C   0  0  0  0  0  0  0  0  0  0  0  0
   30.4400   25.4060   47.9270 H   0  0  0  0  0  0  0  0  0  0  0  0
   34.4230   28.4650   49.9580 C   0  0  0  0  0  0  0  0  0  0  0  0
   33.7310   29.0420   50.6430 H   0  0  0  0  0  0  0  0  0  0  0  0
   34.5030   27.4190   50.2820 H   0  0  0  0  0  0  0  0  0  0  0  0
   37.3830   30.2110   51.2940 C   0  0  0  0  0  0  0  0  0  0  0  0
   38.0350   30.5950   50.1230 C   0  0  0  0  0  0  0  0  0  0  0  0
   37.4610   30.2580   48.8620 C   0  0  0  0  0  0  0  0  0  0  0  0
   36.2900   29.5710   48.8850 N   0  0  0  0  0  0  0  0  0  0  0  0
   35.7010   29.2250   50.0510 C   0  0  0  0  0  0  0  0  0  0  0  0
   36.2380   29.5390   51.2410 N   0  0  0  0  0  0  0  0  0  0  0  0
   37.9190   30.5260   52.1820 H   0  0  0  0  0  0  0  0  0  0  0  0
   38.9750   31.1470   50.0260 H   0  0  0  0  0  0  0  0  0  0  0  0
   37.8690   30.5000   47.8980 H   0  0  0  0  0  0  0  0  0  0  0  0
  1  3  1  0  0  0  0
  1 14  1  0  0  0  0
  2  1  1  0  0  0  0
  5  4  1  0  0  0  0
  6  5  1  0  0  0  0
  6  1  1  0  0  0  0
  7  6  2  0  0  0  0
  8  7  1  0  0  0  0
  9 10  2  0  0  0  0
  9  7  1  0  0  0  0
 10 12  1  0  0  0  0
 11 10  1  0  0  0  0
 12 13  1  0  0  0  0
 12  5  2  0  0  0  0
 14 21  1  0  0  0  0
 14 16  1  0  0  0  0
 14 15  1  0  0  0  0
 17 23  1  0  0  0  0
 18 17  2  0  0  0  0
 19 20  2  0  0  0  0
 19 18  1  0  0  0  0
 20 21  1  0  0  0  0
 21 22  2  0  0  0  0
 22 17  1  0  0  0  0
 24 18  1  0  0  0  0
 25 19  1  0  0  0  0
M  END
>  <minimizedAffinity>
-4.59694719

>  <minimizedRMSD>
1.33233833

$$$$
