
 OpenBabel03272510273D

 46 50  0  0  1  0  0  0  0  0999 V2000
   39.5120   33.5860   43.3220 O   0  0  0  0  0  0  0  0  0  0  0  0
   36.2710   30.1950   46.8930 C   0  0  0  0  0  0  0  0  0  0  0  0
   37.0840   30.7540   47.8640 C   0  0  0  0  0  0  0  0  0  0  0  0
   38.0740   31.6780   47.5110 C   0  0  0  0  0  0  0  0  0  0  0  0
   38.1700   31.9790   46.1560 C   0  0  0  0  0  0  0  0  0  0  0  0
   39.0620   32.8470   45.5640 N   0  0  0  0  0  0  0  0  0  0  0  0
   38.7980   32.8210   44.2510 C   0  0  0  0  0  0  0  0  0  0  0  0
   37.8050   31.9940   44.0200 N   0  0  0  0  0  0  0  0  0  0  0  0
   37.3850   31.4470   45.1730 C   0  0  0  0  0  0  0  0  0  0  0  0
   36.4060   30.5300   45.5510 C   0  0  0  0  0  0  0  0  0  0  0  0
   35.4860   29.4720   47.1060 H   0  0  0  0  0  0  0  0  0  0  0  0
   38.7160   32.1220   48.2590 H   0  0  0  0  0  0  0  0  0  0  0  0
   39.7930   33.4040   46.0730 H   0  0  0  0  0  0  0  0  0  0  0  0
   35.7800   30.1040   44.7780 H   0  0  0  0  0  0  0  0  0  0  0  0
   37.4380   30.1400   51.5460 C   0  0  0  0  0  0  0  0  0  0  0  0
   37.7690   30.5880   50.2750 C   0  0  0  0  0  0  0  0  0  0  0  0
   36.8830   30.3550   49.2410 C   0  0  0  0  0  0  0  0  0  0  0  0
   35.7200   29.6900   49.5380 N   0  0  0  0  0  0  0  0  0  0  0  0
   35.4190   29.2640   50.7810 C   0  0  0  0  0  0  0  0  0  0  0  0
   36.2760   29.4910   51.7670 N   0  0  0  0  0  0  0  0  0  0  0  0
   38.1470   30.3310   52.3520 H   0  0  0  0  0  0  0  0  0  0  0  0
   38.6830   31.1100   50.0470 H   0  0  0  0  0  0  0  0  0  0  0  0
   34.4740   28.7510   50.8950 H   0  0  0  0  0  0  0  0  0  0  0  0
   39.6450   31.8610   41.7950 N   0  0  0  0  0  0  0  0  0  0  0  0
   39.3030   33.2790   41.9510 C   0  0  1  0  0  0  0  0  0  0  0  0
   37.9010   33.4520   41.5950 C   0  0  0  0  0  0  0  0  0  0  0  0
   37.7430   33.1730   40.2320 O   0  0  0  0  0  0  0  0  0  0  0  0
   38.1530   31.9090   39.8570 C   0  0  0  0  0  0  0  0  0  0  0  0
   39.5460   31.5960   40.3940 C   0  0  2  0  0  0  0  0  0  0  0  0
   38.9320   31.2500   42.2300 H   0  0  0  0  0  0  0  0  0  0  0  0
   39.9630   33.8100   41.2690 H   0  0  0  0  0  0  0  0  0  0  0  0
   37.0910   32.9360   42.0400 H   0  0  0  0  0  0  0  0  0  0  0  0
   37.6620   34.5570   41.6740 H   0  0  0  0  0  0  0  0  0  0  0  0
   37.4470   31.1330   40.1950 H   0  0  0  0  0  0  0  0  0  0  0  0
   38.1960   31.9000   38.7560 H   0  0  0  0  0  0  0  0  0  0  0  0
   40.2950   32.2530   39.8480 H   0  0  0  0  0  0  0  0  0  0  0  0
   41.5220   30.4070   38.0500 Cl  0  0  0  0  0  0  0  0  0  0  0  0
   40.6150   29.4730   39.2080 C   0  0  0  0  0  0  0  0  0  0  0  0
   39.8470   30.2030   40.0780 C   0  0  0  0  0  0  0  0  0  0  0  0
   39.1520   29.3400   40.9540 C   0  0  0  0  0  0  0  0  0  0  0  0
   38.4670   29.6760   41.7470 H   0  0  0  0  0  0  0  0  0  0  0  0
   39.2170   27.9460   40.9550 C   0  0  0  0  0  3  0  0  0  0  0  0
   40.0190   27.3380   40.0390 C   0  0  0  0  0  0  0  0  0  0  0  0
   40.1790   25.6010   39.9470 Cl  0  0  0  0  0  0  0  0  0  0  0  0
   40.7200   28.1110   39.1620 C   0  0  0  0  0  0  0  0  0  0  0  0
   41.3570   27.6720   38.4300 H   0  0  0  0  0  0  0  0  0  0  0  0
  1  7  1  0  0  0  0
  2 11  1  0  0  0  0
  2  3  1  0  0  0  0
  3 17  1  0  0  0  0
  4  3  2  0  0  0  0
  4 12  1  0  0  0  0
  5  4  1  0  0  0  0
  6 13  1  0  0  0  0
  6  5  1  0  0  0  0
  7  6  1  0  0  0  0
  8  7  2  0  0  0  0
  8  9  1  0  0  0  0
  9 10  1  0  0  0  0
  9  5  2  0  0  0  0
 10  2  2  0  0  0  0
 14 10  1  0  0  0  0
 15 20  1  0  0  0  0
 15 21  1  0  0  0  0
 16 15  2  0  0  0  0
 17 18  2  0  0  0  0
 17 16  1  0  0  0  0
 18 19  1  0  0  0  0
 19 23  1  0  0  0  0
 19 20  2  0  0  0  0
 22 16  1  0  0  0  0
 24 25  1  0  0  0  0
 24 30  1  0  0  0  0
 25 31  1  6  0  0  0
 25  1  1  0  0  0  0
 26 33  1  0  0  0  0
 26 25  1  0  0  0  0
 26 32  1  0  0  0  0
 27 26  1  0  0  0  0
 28 34  1  0  0  0  0
 28 27  1  0  0  0  0
 28 29  1  0  0  0  0
 29 36  1  6  0  0  0
 29 24  1  0  0  0  0
 35 28  1  0  0  0  0
 37 38  1  0  0  0  0
 38 39  1  0  0  0  0
 39 29  1  0  0  0  0
 39 40  2  0  0  0  0
 40 42  1  0  0  0  0
 40 41  1  0  0  0  0
 43 42  2  0  0  0  0
 44 43  1  0  0  0  0
 45 38  2  0  0  0  0
 45 43  1  0  0  0  0
 46 45  1  0  0  0  0
M  END
>  <minimizedAffinity>
-6.10058594

>  <minimizedRMSD>
0.116895631

$$$$
