
 OpenBabel03272508023D

 29 31  0  0  0  0  0  0  0  0999 V2000
   34.8870   30.3960   44.7550 C   0  0  0  0  0  0  0  0  0  0  0  0
   36.2070   30.3710   45.1180 C   0  0  0  0  0  0  0  0  0  0  0  0
   36.9680   31.0430   44.1600 C   0  0  0  0  0  0  0  0  0  0  0  0
   36.0440   31.4560   43.2320 N   0  0  0  0  0  0  0  0  0  0  0  0
   34.8460   31.0740   43.5910 N   0  0  0  0  0  0  0  0  0  0  0  0
   36.5420   29.8860   46.0260 H   0  0  0  0  0  0  0  0  0  0  0  0
   38.0410   31.1400   44.2530 H   0  0  0  0  0  0  0  0  0  0  0  0
   34.5200   33.9770   42.6700 Cl  0  0  0  0  0  0  0  0  0  0  0  0
   35.8710   33.3630   41.7500 C   0  0  0  0  0  0  0  0  0  0  0  0
   36.5000   32.1860   42.0990 C   0  0  0  0  0  0  0  0  0  0  0  0
   37.5640   31.7460   41.3360 C   0  0  0  0  0  0  0  0  0  0  0  0
   38.0060   30.8180   41.6710 H   0  0  0  0  0  0  0  0  0  0  0  0
   38.0550   32.4180   40.2170 C   0  0  0  0  0  3  0  0  0  0  0  0
   37.4210   33.5820   39.8840 C   0  0  0  0  0  0  0  0  0  0  0  0
   38.0000   34.4580   38.4920 Cl  0  0  0  0  0  0  0  0  0  0  0  0
   36.3550   34.0430   40.6310 C   0  0  0  0  0  0  0  0  0  0  0  0
   35.9100   34.9610   40.3070 H   0  0  0  0  0  0  0  0  0  0  0  0
   33.7510   29.8140   45.4730 C   0  0  0  0  0  0  0  0  0  0  0  0
   34.0190   28.7840   46.4130 C   0  0  0  0  0  0  0  0  0  0  0  0
   32.9510   28.2180   47.1040 C   0  0  0  0  0  0  0  0  0  0  0  0
   31.7130   28.6900   46.8340 N   0  0  0  0  0  0  0  0  0  0  0  0
   31.4710   29.6720   45.9360 C   0  0  0  0  0  0  0  0  0  0  0  0
   32.5060   30.2170   45.2690 N   0  0  0  0  0  0  0  0  0  0  0  0
   35.0520   28.4800   46.5530 H   0  0  0  0  0  0  0  0  0  0  0  0
   30.4510   29.9900   45.7810 H   0  0  0  0  0  0  0  0  0  0  0  0
   33.2250   27.1380   48.0910 C   0  0  0  0  0  0  0  0  0  0  0  0
   33.7930   27.7690   49.1890 F   0  0  0  0  0  0  0  0  0  0  0  0
   32.0690   26.4960   48.4990 F   0  0  0  0  0  0  0  0  0  0  0  0
   34.1440   26.2130   47.6170 F   0  0  0  0  0  0  0  0  0  0  0  0
  1  2  1  0  0  0  0
  1 18  1  0  0  0  0
  2  6  1  0  0  0  0
  3  7  1  0  0  0  0
  3  2  2  0  0  0  0
  4  5  1  0  0  0  0
  4  3  1  0  0  0  0
  5  1  2  0  0  0  0
  9 10  1  0  0  0  0
  9  8  1  0  0  0  0
 10  4  1  0  0  0  0
 11 12  1  0  0  0  0
 11 10  2  0  0  0  0
 13 11  1  0  0  0  0
 14 13  2  0  0  0  0
 14 16  1  0  0  0  0
 15 14  1  0  0  0  0
 16  9  2  0  0  0  0
 17 16  1  0  0  0  0
 18 19  1  0  0  0  0
 19 24  1  0  0  0  0
 19 20  2  0  0  0  0
 20 26  1  0  0  0  0
 21 20  1  0  0  0  0
 22 21  2  0  0  0  0
 23 18  2  0  0  0  0
 23 22  1  0  0  0  0
 25 22  1  0  0  0  0
 26 28  1  0  0  0  0
 26 27  1  0  0  0  0
 29 26  1  0  0  0  0
M  END
>  <minimizedAffinity>
-3.67186308

>  <minimizedRMSD>
5.73684597

$$$$
