
 OpenBabel03272501593D

 32 34  0  0  0  0  0  0  0  0999 V2000
   36.7740   27.5190   33.6130 C   0  0  0  0  0  0  0  0  0  0  0  0
   36.5690   28.1830   32.4130 C   0  0  0  0  0  0  0  0  0  0  0  0
   35.9720   29.4110   32.6230 C   0  0  0  0  0  0  0  0  0  0  0  0
   35.8310   29.4530   33.9620 N   0  0  0  0  0  0  0  0  0  0  0  0
   36.2910   28.3640   34.5530 N   0  0  0  0  0  0  0  0  0  0  0  0
   36.8230   27.8380   31.3990 H   0  0  0  0  0  0  0  0  0  0  0  0
   35.6530   30.2080   32.0020 H   0  0  0  0  0  0  0  0  0  0  0  0
   32.8960   29.3110   34.0920 Cl  0  0  0  0  0  0  0  0  0  0  0  0
   33.9170   30.4120   34.9780 C   0  0  0  0  0  0  0  0  0  0  0  0
   35.2960   30.4180   34.8630 C   0  0  0  0  0  0  0  0  0  0  0  0
   36.0710   31.3210   35.5940 C   0  0  0  0  0  0  0  0  0  0  0  0
   37.1280   31.2100   35.4050 H   0  0  0  0  0  0  0  0  0  0  0  0
   35.4630   32.2220   36.4450 C   0  0  0  0  0  3  0  0  0  0  0  0
   34.0800   32.2220   36.5670 C   0  0  0  0  0  0  0  0  0  0  0  0
   33.3520   33.3910   37.6660 Cl  0  0  0  0  0  0  0  0  0  0  0  0
   33.3080   31.3220   35.8370 C   0  0  0  0  0  0  0  0  0  0  0  0
   32.2300   31.3480   35.9540 H   0  0  0  0  0  0  0  0  0  0  0  0
   37.4040   26.1530   33.7470 C   0  0  0  0  0  0  0  0  0  0  0  0
   36.7050   25.4700   34.2890 H   0  0  0  0  0  0  0  0  0  0  0  0
   37.6050   25.7480   32.7390 H   0  0  0  0  0  0  0  0  0  0  0  0
   38.6580   26.3400   34.5420 C   0  0  0  0  0  0  0  0  0  0  0  0
   38.6970   27.3010   35.1020 H   0  0  0  0  0  0  0  0  0  0  0  0
   39.5830   26.3250   33.9070 H   0  0  0  0  0  0  0  0  0  0  0  0
   37.9880   24.1410   37.4400 C   0  0  0  0  0  0  0  0  0  0  0  0
   39.0340   23.2070   37.3790 C   0  0  0  0  0  0  0  0  0  0  0  0
   39.9670   23.3540   36.3250 C   0  0  0  0  0  0  0  0  0  0  0  0
   39.8120   24.3650   35.4420 N   0  0  0  0  0  0  0  0  0  0  0  0
   38.7750   25.2370   35.5560 C   0  0  0  0  0  0  0  0  0  0  0  0
   37.8910   25.1150   36.5380 N   0  0  0  0  0  0  0  0  0  0  0  0
   37.3060   23.9810   38.2630 H   0  0  0  0  0  0  0  0  0  0  0  0
   39.2400   22.3830   38.0220 H   0  0  0  0  0  0  0  0  0  0  0  0
   40.8270   22.7360   36.1240 H   0  0  0  0  0  0  0  0  0  0  0  0
  1 18  1  0  0  0  0
  1  5  2  0  0  0  0
  2  3  2  0  0  0  0
  2  1  1  0  0  0  0
  3  4  1  0  0  0  0
  4  5  1  0  0  0  0
  4 10  1  0  0  0  0
  6  2  1  0  0  0  0
  7  3  1  0  0  0  0
  8  9  1  0  0  0  0
  9 16  1  0  0  0  0
 10  9  2  0  0  0  0
 10 11  1  0  0  0  0
 11 13  2  0  0  0  0
 12 11  1  0  0  0  0
 13 14  1  0  0  0  0
 14 15  1  0  0  0  0
 16 17  1  0  0  0  0
 16 14  2  0  0  0  0
 18 19  1  0  0  0  0
 18 21  1  0  0  0  0
 20 18  1  0  0  0  0
 21 22  1  0  0  0  0
 21 28  1  0  0  0  0
 23 21  1  0  0  0  0
 24 30  1  0  0  0  0
 25 24  1  0  0  0  0
 25 31  1  0  0  0  0
 26 25  2  0  0  0  0
 27 28  2  0  0  0  0
 27 26  1  0  0  0  0
 28 29  1  0  0  0  0
 29 24  2  0  0  0  0
 32 26  1  0  0  0  0
M  END
>  <minimizedAffinity>
-5.2598691

$$$$

 OpenBabel03272501593D

 32 34  0  0  0  0  0  0  0  0999 V2000
   38.1150   25.3180   35.8020 C   0  0  0  0  0  0  0  0  0  0  0  0
   38.3820   26.5380   36.4020 C   0  0  0  0  0  0  0  0  0  0  0  0
   38.4320   27.5500   35.4640 C   0  0  0  0  0  0  0  0  0  0  0  0
   38.1910   26.9020   34.3070 N   0  0  0  0  0  0  0  0  0  0  0  0
   38.0040   25.6060   34.4840 N   0  0  0  0  0  0  0  0  0  0  0  0
   38.5430   26.7440   37.4720 H   0  0  0  0  0  0  0  0  0  0  0  0
   38.6030   28.5960   35.4920 H   0  0  0  0  0  0  0  0  0  0  0  0
   35.8140   28.5720   33.8470 Cl  0  0  0  0  0  0  0  0  0  0  0  0
   37.0000   28.1120   32.6540 C   0  0  0  0  0  0  0  0  0  0  0  0
   38.0960   27.3200   32.9490 C   0  0  0  0  0  0  0  0  0  0  0  0
   39.0180   26.9780   31.9580 C   0  0  0  0  0  0  0  0  0  0  0  0
   39.8190   26.3590   32.3320 H   0  0  0  0  0  0  0  0  0  0  0  0
   38.8430   27.4310   30.6650 C   0  0  0  0  0  3  0  0  0  0  0  0
   37.7470   28.2250   30.3620 C   0  0  0  0  0  0  0  0  0  0  0  0
   37.5680   28.7780   28.6980 Cl  0  0  0  0  0  0  0  0  0  0  0  0
   36.8270   28.5660   31.3490 C   0  0  0  0  0  0  0  0  0  0  0  0
   35.9810   29.1890   31.0800 H   0  0  0  0  0  0  0  0  0  0  0  0
   37.9930   24.0030   36.5360 C   0  0  0  0  0  0  0  0  0  0  0  0
   38.5290   24.0700   37.5150 H   0  0  0  0  0  0  0  0  0  0  0  0
   36.9250   23.7890   36.7160 H   0  0  0  0  0  0  0  0  0  0  0  0
   38.6400   22.9700   35.6680 C   0  0  0  0  0  0  0  0  0  0  0  0
   39.3490   22.3060   36.2110 H   0  0  0  0  0  0  0  0  0  0  0  0
   39.2320   23.4180   34.8260 H   0  0  0  0  0  0  0  0  0  0  0  0
   36.6330   21.0470   33.2280 C   0  0  0  0  0  0  0  0  0  0  0  0
   35.6310   20.4720   34.0230 C   0  0  0  0  0  0  0  0  0  0  0  0
   35.6630   20.7610   35.4080 C   0  0  0  0  0  0  0  0  0  0  0  0
   36.6380   21.5620   35.8930 N   0  0  0  0  0  0  0  0  0  0  0  0
   37.5820   22.0870   35.0690 C   0  0  0  0  0  0  0  0  0  0  0  0
   37.5670   21.8280   33.7670 N   0  0  0  0  0  0  0  0  0  0  0  0
   36.5600   20.7930   32.1800 H   0  0  0  0  0  0  0  0  0  0  0  0
   34.8260   19.8340   33.7370 H   0  0  0  0  0  0  0  0  0  0  0  0
   34.9790   20.4100   36.1640 H   0  0  0  0  0  0  0  0  0  0  0  0
  1  2  1  0  0  0  0
  1 18  1  0  0  0  0
  2  6  1  0  0  0  0
  3  7  1  0  0  0  0
  3  2  2  0  0  0  0
  4  5  1  0  0  0  0
  4  3  1  0  0  0  0
  5  1  2  0  0  0  0
  9 10  1  0  0  0  0
  9  8  1  0  0  0  0
 10  4  1  0  0  0  0
 11 12  1  0  0  0  0
 11 10  2  0  0  0  0
 13 11  1  0  0  0  0
 14 13  2  0  0  0  0
 14 16  1  0  0  0  0
 15 14  1  0  0  0  0
 16  9  2  0  0  0  0
 17 16  1  0  0  0  0
 18 20  1  0  0  0  0
 18 19  1  0  0  0  0
 21 22  1  0  0  0  0
 21 18  1  0  0  0  0
 23 21  1  0  0  0  0
 24 29  2  0  0  0  0
 24 25  1  0  0  0  0
 25 26  2  0  0  0  0
 26 27  1  0  0  0  0
 26 32  1  0  0  0  0
 28 21  1  0  0  0  0
 28 27  2  0  0  0  0
 29 28  1  0  0  0  0
 30 24  1  0  0  0  0
 31 25  1  0  0  0  0
M  END
>  <minimizedAffinity>
-5.12930584

$$$$

 OpenBabel03272501593D

 32 34  0  0  0  0  0  0  0  0999 V2000
   37.9720   25.2980   35.9390 C   0  0  0  0  0  0  0  0  0  0  0  0
   38.3390   26.4980   36.5290 C   0  0  0  0  0  0  0  0  0  0  0  0
   38.3540   27.5210   35.6000 C   0  0  0  0  0  0  0  0  0  0  0  0
   37.9920   26.9000   34.4610 N   0  0  0  0  0  0  0  0  0  0  0  0
   37.7650   25.6100   34.6380 N   0  0  0  0  0  0  0  0  0  0  0  0
   38.5950   26.6820   37.5840 H   0  0  0  0  0  0  0  0  0  0  0  0
   38.5710   28.5580   35.6260 H   0  0  0  0  0  0  0  0  0  0  0  0
   40.4810   26.7440   32.9030 Cl  0  0  0  0  0  0  0  0  0  0  0  0
   38.9330   27.2960   32.3220 C   0  0  0  0  0  0  0  0  0  0  0  0
   37.8030   27.3410   33.1200 C   0  0  0  0  0  0  0  0  0  0  0  0
   36.5840   27.7920   32.6090 C   0  0  0  0  0  0  0  0  0  0  0  0
   35.7920   27.7710   33.3410 H   0  0  0  0  0  0  0  0  0  0  0  0
   36.4960   28.2000   31.2920 C   0  0  0  0  0  3  0  0  0  0  0  0
   37.6250   28.1580   30.4860 C   0  0  0  0  0  0  0  0  0  0  0  0
   37.4610   28.6890   28.8140 Cl  0  0  0  0  0  0  0  0  0  0  0  0
   38.8400   27.7090   30.9960 C   0  0  0  0  0  0  0  0  0  0  0  0
   39.7030   27.6880   30.3400 H   0  0  0  0  0  0  0  0  0  0  0  0
   37.8550   23.9800   36.6660 C   0  0  0  0  0  0  0  0  0  0  0  0
   38.3570   24.0560   37.6620 H   0  0  0  0  0  0  0  0  0  0  0  0
   36.7860   23.7410   36.8110 H   0  0  0  0  0  0  0  0  0  0  0  0
   38.5530   22.9630   35.8180 C   0  0  0  0  0  0  0  0  0  0  0  0
   39.2330   22.2910   36.3880 H   0  0  0  0  0  0  0  0  0  0  0  0
   39.1900   23.4280   35.0190 H   0  0  0  0  0  0  0  0  0  0  0  0
   36.6590   21.1250   33.2270 C   0  0  0  0  0  0  0  0  0  0  0  0
   35.6510   20.4850   33.9640 C   0  0  0  0  0  0  0  0  0  0  0  0
   35.6400   20.7010   35.3630 C   0  0  0  0  0  0  0  0  0  0  0  0
   36.5820   21.4980   35.9150 N   0  0  0  0  0  0  0  0  0  0  0  0
   37.5330   22.0890   35.1450 C   0  0  0  0  0  0  0  0  0  0  0  0
   37.5580   21.8980   33.8320 N   0  0  0  0  0  0  0  0  0  0  0  0
   36.6190   20.9250   32.1660 H   0  0  0  0  0  0  0  0  0  0  0  0
   34.8700   19.8450   33.6240 H   0  0  0  0  0  0  0  0  0  0  0  0
   34.9460   20.2950   36.0800 H   0  0  0  0  0  0  0  0  0  0  0  0
  1  2  1  0  0  0  0
  1 18  1  0  0  0  0
  2  6  1  0  0  0  0
  3  7  1  0  0  0  0
  3  2  2  0  0  0  0
  4  5  1  0  0  0  0
  4  3  1  0  0  0  0
  5  1  2  0  0  0  0
  9  8  1  0  0  0  0
  9 10  1  0  0  0  0
 10  4  1  0  0  0  0
 11 10  2  0  0  0  0
 11 12  1  0  0  0  0
 13 11  1  0  0  0  0
 14 16  1  0  0  0  0
 14 13  2  0  0  0  0
 15 14  1  0  0  0  0
 16  9  2  0  0  0  0
 17 16  1  0  0  0  0
 18 20  1  0  0  0  0
 18 19  1  0  0  0  0
 21 22  1  0  0  0  0
 21 18  1  0  0  0  0
 23 21  1  0  0  0  0
 24 29  2  0  0  0  0
 24 25  1  0  0  0  0
 25 26  2  0  0  0  0
 26 27  1  0  0  0  0
 26 32  1  0  0  0  0
 28 21  1  0  0  0  0
 28 27  2  0  0  0  0
 29 28  1  0  0  0  0
 30 24  1  0  0  0  0
 31 25  1  0  0  0  0
M  END
>  <minimizedAffinity>
-5.08876133

$$$$

 OpenBabel03272501593D

 32 34  0  0  0  0  0  0  0  0999 V2000
   35.5180   29.8510   32.0910 C   0  0  0  0  0  0  0  0  0  0  0  0
   36.2060   29.9760   30.8940 C   0  0  0  0  0  0  0  0  0  0  0  0
   36.5910   28.7400   30.4130 C   0  0  0  0  0  0  0  0  0  0  0  0
   36.1180   27.8920   31.3480 N   0  0  0  0  0  0  0  0  0  0  0  0
   35.4930   28.5190   32.3290 N   0  0  0  0  0  0  0  0  0  0  0  0
   36.4460   30.9010   30.3470 H   0  0  0  0  0  0  0  0  0  0  0  0
   37.1170   28.3940   29.5610 H   0  0  0  0  0  0  0  0  0  0  0  0
   38.4500   27.0160   32.9120 Cl  0  0  0  0  0  0  0  0  0  0  0  0
   37.2230   25.9870   32.2220 C   0  0  0  0  0  0  0  0  0  0  0  0
   36.1520   26.4760   31.4950 C   0  0  0  0  0  0  0  0  0  0  0  0
   35.1950   25.6110   30.9620 C   0  0  0  0  0  0  0  0  0  0  0  0
   34.4190   26.1310   30.4220 H   0  0  0  0  0  0  0  0  0  0  0  0
   35.3100   24.2480   31.1580 C   0  0  0  0  0  3  0  0  0  0  0  0
   36.3810   23.7500   31.8850 C   0  0  0  0  0  0  0  0  0  0  0  0
   36.4840   22.0050   32.1070 Cl  0  0  0  0  0  0  0  0  0  0  0  0
   37.3360   24.6130   32.4160 C   0  0  0  0  0  0  0  0  0  0  0  0
   38.1610   24.1920   32.9800 H   0  0  0  0  0  0  0  0  0  0  0  0
   34.9570   31.0040   32.8880 C   0  0  0  0  0  0  0  0  0  0  0  0
   35.2850   31.9700   32.4310 H   0  0  0  0  0  0  0  0  0  0  0  0
   33.8540   30.9490   32.8760 H   0  0  0  0  0  0  0  0  0  0  0  0
   35.5150   30.8770   34.2710 C   0  0  0  0  0  0  0  0  0  0  0  0
   36.1900   31.7120   34.5630 H   0  0  0  0  0  0  0  0  0  0  0  0
   36.1170   29.9400   34.4120 H   0  0  0  0  0  0  0  0  0  0  0  0
   32.3610   29.9990   35.9910 C   0  0  0  0  0  0  0  0  0  0  0  0
   32.3560   30.8530   37.1040 C   0  0  0  0  0  0  0  0  0  0  0  0
   33.4570   31.7320   37.2450 C   0  0  0  0  0  0  0  0  0  0  0  0
   34.4430   31.7090   36.3200 N   0  0  0  0  0  0  0  0  0  0  0  0
   34.3880   30.8550   35.2650 C   0  0  0  0  0  0  0  0  0  0  0  0
   33.3630   30.0240   35.1160 N   0  0  0  0  0  0  0  0  0  0  0  0
   31.4980   29.3500   35.9350 H   0  0  0  0  0  0  0  0  0  0  0  0
   31.6330   30.9460   37.8800 H   0  0  0  0  0  0  0  0  0  0  0  0
   33.6200   32.4520   38.0290 H   0  0  0  0  0  0  0  0  0  0  0  0
  1  5  2  0  0  0  0
  1 18  1  0  0  0  0
  2  1  1  0  0  0  0
  3  2  2  0  0  0  0
  3  4  1  0  0  0  0
  4 10  1  0  0  0  0
  4  5  1  0  0  0  0
  6  2  1  0  0  0  0
  7  3  1  0  0  0  0
  9 16  1  0  0  0  0
  9  8  1  0  0  0  0
 10  9  2  0  0  0  0
 11 13  2  0  0  0  0
 11 10  1  0  0  0  0
 12 11  1  0  0  0  0
 13 14  1  0  0  0  0
 14 15  1  0  0  0  0
 14 16  2  0  0  0  0
 16 17  1  0  0  0  0
 18 21  1  0  0  0  0
 19 18  1  0  0  0  0
 20 18  1  0  0  0  0
 21 23  1  0  0  0  0
 21 22  1  0  0  0  0
 21 28  1  0  0  0  0
 24 25  1  0  0  0  0
 25 26  2  0  0  0  0
 25 31  1  0  0  0  0
 26 32  1  0  0  0  0
 27 26  1  0  0  0  0
 28 27  2  0  0  0  0
 29 28  1  0  0  0  0
 29 24  2  0  0  0  0
 30 24  1  0  0  0  0
M  END
>  <minimizedAffinity>
-5.05278397

$$$$

 OpenBabel03272501593D

 32 34  0  0  0  0  0  0  0  0999 V2000
   37.0140   27.4600   33.3440 C   0  0  0  0  0  0  0  0  0  0  0  0
   37.7410   27.7600   32.2020 C   0  0  0  0  0  0  0  0  0  0  0  0
   37.9320   26.6320   31.4280 C   0  0  0  0  0  0  0  0  0  0  0  0
   37.3070   25.6700   32.1350 N   0  0  0  0  0  0  0  0  0  0  0  0
   36.7680   26.1320   33.2500 N   0  0  0  0  0  0  0  0  0  0  0  0
   38.1400   28.7380   31.8930 H   0  0  0  0  0  0  0  0  0  0  0  0
   38.4160   26.4230   30.5090 H   0  0  0  0  0  0  0  0  0  0  0  0
   34.7620   25.1210   30.7680 Cl  0  0  0  0  0  0  0  0  0  0  0  0
   35.9280   23.9370   31.2920 C   0  0  0  0  0  0  0  0  0  0  0  0
   37.1080   24.2750   31.9320 C   0  0  0  0  0  0  0  0  0  0  0  0
   38.0120   23.2890   32.3340 C   0  0  0  0  0  0  0  0  0  0  0  0
   38.8850   23.6970   32.8180 H   0  0  0  0  0  0  0  0  0  0  0  0
   37.7330   21.9580   32.0930 C   0  0  0  0  0  3  0  0  0  0  0  0
   36.5530   21.6110   31.4520 C   0  0  0  0  0  0  0  0  0  0  0  0
   36.2430   19.8990   31.1680 Cl  0  0  0  0  0  0  0  0  0  0  0  0
   35.6510   22.5940   31.0520 C   0  0  0  0  0  0  0  0  0  0  0  0
   34.7370   22.2900   30.5540 H   0  0  0  0  0  0  0  0  0  0  0  0
   36.6270   28.4600   34.4070 C   0  0  0  0  0  0  0  0  0  0  0  0
   36.1560   27.9270   35.2690 H   0  0  0  0  0  0  0  0  0  0  0  0
   37.5330   28.9880   34.7530 H   0  0  0  0  0  0  0  0  0  0  0  0
   35.6360   29.3890   33.7770 C   0  0  0  0  0  0  0  0  0  0  0  0
   34.8010   28.8700   33.2560 H   0  0  0  0  0  0  0  0  0  0  0  0
   36.1000   30.0610   33.0070 H   0  0  0  0  0  0  0  0  0  0  0  0
   33.1600   30.9950   36.0050 C   0  0  0  0  0  0  0  0  0  0  0  0
   33.9450   31.8600   36.7820 C   0  0  0  0  0  0  0  0  0  0  0  0
   35.3360   31.8760   36.5220 C   0  0  0  0  0  0  0  0  0  0  0  0
   35.8350   31.0740   35.5560 N   0  0  0  0  0  0  0  0  0  0  0  0
   35.0210   30.2570   34.8380 C   0  0  0  0  0  0  0  0  0  0  0  0
   33.7140   30.2290   35.0680 N   0  0  0  0  0  0  0  0  0  0  0  0
   32.1070   31.0240   36.2470 H   0  0  0  0  0  0  0  0  0  0  0  0
   33.6470   32.5260   37.5590 H   0  0  0  0  0  0  0  0  0  0  0  0
   36.0850   32.4730   37.0150 H   0  0  0  0  0  0  0  0  0  0  0  0
  1 18  1  0  0  0  0
  2  1  1  0  0  0  0
  3  4  1  0  0  0  0
  3  2  2  0  0  0  0
  4  5  1  0  0  0  0
  5  1  2  0  0  0  0
  6  2  1  0  0  0  0
  7  3  1  0  0  0  0
  8  9  1  0  0  0  0
  9 10  1  0  0  0  0
 10  4  1  0  0  0  0
 10 11  2  0  0  0  0
 11 12  1  0  0  0  0
 13 11  1  0  0  0  0
 14 13  2  0  0  0  0
 15 14  1  0  0  0  0
 16  9  2  0  0  0  0
 16 14  1  0  0  0  0
 17 16  1  0  0  0  0
 18 20  1  0  0  0  0
 18 19  1  0  0  0  0
 21 18  1  0  0  0  0
 21 28  1  0  0  0  0
 22 21  1  0  0  0  0
 23 21  1  0  0  0  0
 24 30  1  0  0  0  0
 24 25  1  0  0  0  0
 25 31  1  0  0  0  0
 26 25  2  0  0  0  0
 26 32  1  0  0  0  0
 27 26  1  0  0  0  0
 28 29  1  0  0  0  0
 28 27  2  0  0  0  0
 29 24  2  0  0  0  0
M  END
>  <minimizedAffinity>
-5.04724169

$$$$

 OpenBabel03272501593D

 32 34  0  0  0  0  0  0  0  0999 V2000
   38.9170   23.9210   33.4150 C   0  0  0  0  0  0  0  0  0  0  0  0
   40.0100   24.6990   33.0640 C   0  0  0  0  0  0  0  0  0  0  0  0
   39.6420   26.0190   32.8930 C   0  0  0  0  0  0  0  0  0  0  0  0
   38.3190   26.0000   33.1490 N   0  0  0  0  0  0  0  0  0  0  0  0
   37.8810   24.7910   33.4540 N   0  0  0  0  0  0  0  0  0  0  0  0
   41.0530   24.3750   32.9240 H   0  0  0  0  0  0  0  0  0  0  0  0
   40.1480   26.9140   32.6340 H   0  0  0  0  0  0  0  0  0  0  0  0
   38.0800   27.2780   35.7870 Cl  0  0  0  0  0  0  0  0  0  0  0  0
   37.1350   27.6500   34.3700 C   0  0  0  0  0  0  0  0  0  0  0  0
   37.3070   27.0020   33.1600 C   0  0  0  0  0  0  0  0  0  0  0  0
   36.5240   27.3350   32.0520 C   0  0  0  0  0  0  0  0  0  0  0  0
   36.7690   26.7510   31.1790 H   0  0  0  0  0  0  0  0  0  0  0  0
   35.5650   28.3230   32.1570 C   0  0  0  0  0  3  0  0  0  0  0  0
   35.3860   28.9770   33.3670 C   0  0  0  0  0  0  0  0  0  0  0  0
   34.1490   30.2300   33.4510 Cl  0  0  0  0  0  0  0  0  0  0  0  0
   36.1660   28.6440   34.4720 C   0  0  0  0  0  0  0  0  0  0  0  0
   36.0020   29.1740   35.4040 H   0  0  0  0  0  0  0  0  0  0  0  0
   38.9650   22.4340   33.6770 C   0  0  0  0  0  0  0  0  0  0  0  0
   38.7600   21.8810   32.7270 H   0  0  0  0  0  0  0  0  0  0  0  0
   39.9690   22.1660   34.0490 H   0  0  0  0  0  0  0  0  0  0  0  0
   37.8920   22.1450   34.6790 C   0  0  0  0  0  0  0  0  0  0  0  0
   37.6170   21.0690   34.7460 H   0  0  0  0  0  0  0  0  0  0  0  0
   36.9340   22.6870   34.4600 H   0  0  0  0  0  0  0  0  0  0  0  0
   40.0010   22.6400   37.6770 C   0  0  0  0  0  0  0  0  0  0  0  0
   39.1600   23.3550   38.5430 C   0  0  0  0  0  0  0  0  0  0  0  0
   37.8600   23.6580   38.0730 C   0  0  0  0  0  0  0  0  0  0  0  0
   37.4950   23.2550   36.8360 N   0  0  0  0  0  0  0  0  0  0  0  0
   38.3580   22.5660   36.0450 C   0  0  0  0  0  0  0  0  0  0  0  0
   39.5810   22.2720   36.4690 N   0  0  0  0  0  0  0  0  0  0  0  0
   40.9810   22.4370   38.0870 H   0  0  0  0  0  0  0  0  0  0  0  0
   39.3540   23.7130   39.5280 H   0  0  0  0  0  0  0  0  0  0  0  0
   37.0860   24.1940   38.5970 H   0  0  0  0  0  0  0  0  0  0  0  0
  1  5  2  0  0  0  0
  1 18  1  0  0  0  0
  2  1  1  0  0  0  0
  3  2  2  0  0  0  0
  3  4  1  0  0  0  0
  4 10  1  0  0  0  0
  4  5  1  0  0  0  0
  6  2  1  0  0  0  0
  7  3  1  0  0  0  0
  9 16  1  0  0  0  0
  9  8  1  0  0  0  0
 10  9  2  0  0  0  0
 11 13  2  0  0  0  0
 11 10  1  0  0  0  0
 12 11  1  0  0  0  0
 13 14  1  0  0  0  0
 14 15  1  0  0  0  0
 14 16  2  0  0  0  0
 16 17  1  0  0  0  0
 18 20  1  0  0  0  0
 18 21  1  0  0  0  0
 19 18  1  0  0  0  0
 21 22  1  0  0  0  0
 21 28  1  0  0  0  0
 23 21  1  0  0  0  0
 24 30  1  0  0  0  0
 24 25  1  0  0  0  0
 25 31  1  0  0  0  0
 26 25  2  0  0  0  0
 26 32  1  0  0  0  0
 27 26  1  0  0  0  0
 28 29  1  0  0  0  0
 28 27  2  0  0  0  0
 29 24  2  0  0  0  0
M  END
>  <minimizedAffinity>
-5.02878571

$$$$

 OpenBabel03272501593D

 32 34  0  0  0  0  0  0  0  0999 V2000
   36.6480   27.9550   33.9280 C   0  0  0  0  0  0  0  0  0  0  0  0
   36.2120   28.4740   32.7190 C   0  0  0  0  0  0  0  0  0  0  0  0
   35.5860   29.6920   32.9010 C   0  0  0  0  0  0  0  0  0  0  0  0
   35.6630   29.8750   34.2340 N   0  0  0  0  0  0  0  0  0  0  0  0
   36.2770   28.8780   34.8460 N   0  0  0  0  0  0  0  0  0  0  0  0
   36.3170   28.0320   31.7160 H   0  0  0  0  0  0  0  0  0  0  0  0
   35.1220   30.4030   32.2660 H   0  0  0  0  0  0  0  0  0  0  0  0
   32.8770   29.4740   35.0880 Cl  0  0  0  0  0  0  0  0  0  0  0  0
   33.9210   30.7890   35.5560 C   0  0  0  0  0  0  0  0  0  0  0  0
   35.2260   30.9100   35.1100 C   0  0  0  0  0  0  0  0  0  0  0  0
   36.0240   31.9820   35.5130 C   0  0  0  0  0  0  0  0  0  0  0  0
   37.0150   31.9460   35.0890 H   0  0  0  0  0  0  0  0  0  0  0  0
   35.5130   32.9400   36.3670 C   0  0  0  0  0  3  0  0  0  0  0  0
   34.2060   32.8260   36.8190 C   0  0  0  0  0  0  0  0  0  0  0  0
   33.6010   34.0730   37.9070 Cl  0  0  0  0  0  0  0  0  0  0  0  0
   33.4100   31.7570   36.4160 C   0  0  0  0  0  0  0  0  0  0  0  0
   32.3930   31.6970   36.7870 H   0  0  0  0  0  0  0  0  0  0  0  0
   37.3720   26.6400   34.0910 C   0  0  0  0  0  0  0  0  0  0  0  0
   38.2660   26.7830   34.7470 H   0  0  0  0  0  0  0  0  0  0  0  0
   36.6890   25.9070   34.5550 H   0  0  0  0  0  0  0  0  0  0  0  0
   37.8050   26.2210   32.7210 C   0  0  0  0  0  0  0  0  0  0  0  0
   38.9040   26.0820   32.6180 H   0  0  0  0  0  0  0  0  0  0  0  0
   37.5210   26.9640   31.9290 H   0  0  0  0  0  0  0  0  0  0  0  0
   37.0630   22.6010   32.5680 C   0  0  0  0  0  0  0  0  0  0  0  0
   35.9560   22.5380   31.7090 C   0  0  0  0  0  0  0  0  0  0  0  0
   35.4750   23.7640   31.1880 C   0  0  0  0  0  0  0  0  0  0  0  0
   36.0930   24.9150   31.5340 N   0  0  0  0  0  0  0  0  0  0  0  0
   37.1620   24.9080   32.3730 C   0  0  0  0  0  0  0  0  0  0  0  0
   37.6260   23.7680   32.8710 N   0  0  0  0  0  0  0  0  0  0  0  0
   37.3860   21.6370   32.9350 H   0  0  0  0  0  0  0  0  0  0  0  0
   35.4060   21.6880   31.3780 H   0  0  0  0  0  0  0  0  0  0  0  0
   34.6430   23.9070   30.5190 H   0  0  0  0  0  0  0  0  0  0  0  0
  1 18  1  0  0  0  0
  1  5  2  0  0  0  0
  2  3  2  0  0  0  0
  2  1  1  0  0  0  0
  3  4  1  0  0  0  0
  4  5  1  0  0  0  0
  4 10  1  0  0  0  0
  6  2  1  0  0  0  0
  7  3  1  0  0  0  0
  8  9  1  0  0  0  0
  9 16  1  0  0  0  0
 10 11  1  0  0  0  0
 10  9  2  0  0  0  0
 11 13  2  0  0  0  0
 12 11  1  0  0  0  0
 13 14  1  0  0  0  0
 14 15  1  0  0  0  0
 16 17  1  0  0  0  0
 16 14  2  0  0  0  0
 18 20  1  0  0  0  0
 18 19  1  0  0  0  0
 21 18  1  0  0  0  0
 22 21  1  0  0  0  0
 23 21  1  0  0  0  0
 24 29  1  0  0  0  0
 24 30  1  0  0  0  0
 25 24  2  0  0  0  0
 26 27  2  0  0  0  0
 26 25  1  0  0  0  0
 27 28  1  0  0  0  0
 28 21  1  0  0  0  0
 28 29  2  0  0  0  0
 31 25  1  0  0  0  0
 32 26  1  0  0  0  0
M  END
>  <minimizedAffinity>
-4.93972254

$$$$

 OpenBabel03272501593D

 32 34  0  0  0  0  0  0  0  0999 V2000
   37.9390   25.3340   36.0170 C   0  0  0  0  0  0  0  0  0  0  0  0
   38.4380   26.5020   36.5710 C   0  0  0  0  0  0  0  0  0  0  0  0
   38.5830   27.4830   35.6090 C   0  0  0  0  0  0  0  0  0  0  0  0
   38.1620   26.8690   34.4860 N   0  0  0  0  0  0  0  0  0  0  0  0
   37.7840   25.6210   34.7040 N   0  0  0  0  0  0  0  0  0  0  0  0
   38.7030   26.6920   37.6230 H   0  0  0  0  0  0  0  0  0  0  0  0
   38.9200   28.4870   35.6030 H   0  0  0  0  0  0  0  0  0  0  0  0
   35.8220   28.6030   34.0810 Cl  0  0  0  0  0  0  0  0  0  0  0  0
   36.9590   28.1020   32.8590 C   0  0  0  0  0  0  0  0  0  0  0  0
   38.0400   27.2810   33.1280 C   0  0  0  0  0  0  0  0  0  0  0  0
   38.9240   26.9060   32.1140 C   0  0  0  0  0  0  0  0  0  0  0  0
   39.7170   26.2670   32.4690 H   0  0  0  0  0  0  0  0  0  0  0  0
   38.7250   27.3560   30.8240 C   0  0  0  0  0  3  0  0  0  0  0  0
   37.6440   28.1800   30.5460 C   0  0  0  0  0  0  0  0  0  0  0  0
   37.4340   28.7280   28.8840 Cl  0  0  0  0  0  0  0  0  0  0  0  0
   36.7630   28.5530   31.5560 C   0  0  0  0  0  0  0  0  0  0  0  0
   35.9270   29.1980   31.3060 H   0  0  0  0  0  0  0  0  0  0  0  0
   37.6600   24.0650   36.7870 C   0  0  0  0  0  0  0  0  0  0  0  0
   38.3340   24.0120   37.6780 H   0  0  0  0  0  0  0  0  0  0  0  0
   36.6080   24.0690   37.1220 H   0  0  0  0  0  0  0  0  0  0  0  0
   37.9540   22.9300   35.8570 C   0  0  0  0  0  0  0  0  0  0  0  0
   37.8250   23.1850   34.7810 H   0  0  0  0  0  0  0  0  0  0  0  0
   37.2940   22.0390   36.0360 H   0  0  0  0  0  0  0  0  0  0  0  0
   41.1430   21.8940   37.4170 C   0  0  0  0  0  0  0  0  0  0  0  0
   41.9870   21.6930   36.3140 C   0  0  0  0  0  0  0  0  0  0  0  0
   41.4340   21.9220   35.0310 C   0  0  0  0  0  0  0  0  0  0  0  0
   40.1450   22.3160   34.9280 N   0  0  0  0  0  0  0  0  0  0  0  0
   39.3800   22.4920   36.0370 C   0  0  0  0  0  0  0  0  0  0  0  0
   39.8810   22.2820   37.2480 N   0  0  0  0  0  0  0  0  0  0  0  0
   41.6160   21.7040   38.3700 H   0  0  0  0  0  0  0  0  0  0  0  0
   43.0070   21.3870   36.2920 H   0  0  0  0  0  0  0  0  0  0  0  0
   41.9300   21.8200   34.0800 H   0  0  0  0  0  0  0  0  0  0  0  0
  1  2  1  0  0  0  0
  1 18  1  0  0  0  0
  2  6  1  0  0  0  0
  3  2  2  0  0  0  0
  4  5  1  0  0  0  0
  4  3  1  0  0  0  0
  5  1  2  0  0  0  0
  7  3  1  0  0  0  0
  9 10  1  0  0  0  0
  9  8  1  0  0  0  0
 10  4  1  0  0  0  0
 11 12  1  0  0  0  0
 11 10  2  0  0  0  0
 13 11  1  0  0  0  0
 14 13  2  0  0  0  0
 14 16  1  0  0  0  0
 15 14  1  0  0  0  0
 16  9  2  0  0  0  0
 17 16  1  0  0  0  0
 18 20  1  0  0  0  0
 18 19  1  0  0  0  0
 21 23  1  0  0  0  0
 21 28  1  0  0  0  0
 21 18  1  0  0  0  0
 22 21  1  0  0  0  0
 24 30  1  0  0  0  0
 25 24  2  0  0  0  0
 26 25  1  0  0  0  0
 27 26  2  0  0  0  0
 27 28  1  0  0  0  0
 28 29  2  0  0  0  0
 29 24  1  0  0  0  0
 31 25  1  0  0  0  0
 32 26  1  0  0  0  0
M  END
>  <minimizedAffinity>
-4.93347359

$$$$

 OpenBabel03272501593D

 32 34  0  0  0  0  0  0  0  0999 V2000
   37.0690   25.0730   32.5800 C   0  0  0  0  0  0  0  0  0  0  0  0
   36.0900   24.8730   31.6190 C   0  0  0  0  0  0  0  0  0  0  0  0
   35.5040   26.0690   31.2540 C   0  0  0  0  0  0  0  0  0  0  0  0
   36.1550   26.9690   32.0160 N   0  0  0  0  0  0  0  0  0  0  0  0
   37.0670   26.4090   32.7910 N   0  0  0  0  0  0  0  0  0  0  0  0
   35.7720   23.9200   31.1660 H   0  0  0  0  0  0  0  0  0  0  0  0
   34.7420   26.3580   30.5760 H   0  0  0  0  0  0  0  0  0  0  0  0
   37.2380   28.3670   29.6660 Cl  0  0  0  0  0  0  0  0  0  0  0  0
   36.5570   29.1120   31.0870 C   0  0  0  0  0  0  0  0  0  0  0  0
   36.0670   28.3840   32.1570 C   0  0  0  0  0  0  0  0  0  0  0  0
   35.5310   29.0270   33.2740 C   0  0  0  0  0  0  0  0  0  0  0  0
   35.1870   28.3350   34.0270 H   0  0  0  0  0  0  0  0  0  0  0  0
   35.4860   30.4060   33.3220 C   0  0  0  0  0  3  0  0  0  0  0  0
   35.9760   31.1430   32.2540 C   0  0  0  0  0  0  0  0  0  0  0  0
   35.8960   32.9010   32.3620 Cl  0  0  0  0  0  0  0  0  0  0  0  0
   36.5110   30.5020   31.1390 C   0  0  0  0  0  0  0  0  0  0  0  0
   36.8860   31.1070   30.3210 H   0  0  0  0  0  0  0  0  0  0  0  0
   37.9050   23.9780   33.2000 C   0  0  0  0  0  0  0  0  0  0  0  0
   37.2650   23.3520   33.8700 H   0  0  0  0  0  0  0  0  0  0  0  0
   38.3250   23.3460   32.3980 H   0  0  0  0  0  0  0  0  0  0  0  0
   38.9700   24.6590   34.0000 C   0  0  0  0  0  0  0  0  0  0  0  0
   38.8740   25.7680   34.0270 H   0  0  0  0  0  0  0  0  0  0  0  0
   40.0030   24.4570   33.6100 H   0  0  0  0  0  0  0  0  0  0  0  0
   39.7690   22.8930   37.1500 C   0  0  0  0  0  0  0  0  0  0  0  0
   38.7620   23.3300   38.0240 C   0  0  0  0  0  0  0  0  0  0  0  0
   37.8090   24.2400   37.5060 C   0  0  0  0  0  0  0  0  0  0  0  0
   37.9110   24.6380   36.2180 N   0  0  0  0  0  0  0  0  0  0  0  0
   38.9120   24.1780   35.4230 C   0  0  0  0  0  0  0  0  0  0  0  0
   39.8140   23.3250   35.8920 N   0  0  0  0  0  0  0  0  0  0  0  0
   40.4680   22.2020   37.5990 H   0  0  0  0  0  0  0  0  0  0  0  0
   38.5990   23.0750   39.0460 H   0  0  0  0  0  0  0  0  0  0  0  0
   36.9740   24.6760   38.0270 H   0  0  0  0  0  0  0  0  0  0  0  0
  1  5  2  0  0  0  0
  1 18  1  0  0  0  0
  2  1  1  0  0  0  0
  3  2  2  0  0  0  0
  3  4  1  0  0  0  0
  4 10  1  0  0  0  0
  4  5  1  0  0  0  0
  6  2  1  0  0  0  0
  7  3  1  0  0  0  0
  8  9  1  0  0  0  0
  9 16  2  0  0  0  0
  9 10  1  0  0  0  0
 10 11  2  0  0  0  0
 11 13  1  0  0  0  0
 11 12  1  0  0  0  0
 14 15  1  0  0  0  0
 14 13  2  0  0  0  0
 16 14  1  0  0  0  0
 17 16  1  0  0  0  0
 18 19  1  0  0  0  0
 18 21  1  0  0  0  0
 20 18  1  0  0  0  0
 21 22  1  0  0  0  0
 21 28  1  0  0  0  0
 23 21  1  0  0  0  0
 24 30  1  0  0  0  0
 24 25  1  0  0  0  0
 25 31  1  0  0  0  0
 26 25  2  0  0  0  0
 26 32  1  0  0  0  0
 27 26  1  0  0  0  0
 28 29  1  0  0  0  0
 28 27  2  0  0  0  0
 29 24  2  0  0  0  0
M  END
>  <minimizedAffinity>
-4.92997217

$$$$
