
 OpenBabel03272510273D

 46 50  0  0  1  0  0  0  0  0999 V2000
   39.3830   33.5170   43.3250 O   0  0  0  0  0  0  0  0  0  0  0  0
   36.1430   30.2260   46.9890 C   0  0  0  0  0  0  0  0  0  0  0  0
   37.0160   30.7390   47.9320 C   0  0  0  0  0  0  0  0  0  0  0  0
   38.0300   31.6250   47.5490 C   0  0  0  0  0  0  0  0  0  0  0  0
   38.0860   31.9370   46.1950 C   0  0  0  0  0  0  0  0  0  0  0  0
   38.9900   32.7730   45.5760 N   0  0  0  0  0  0  0  0  0  0  0  0
   38.6740   32.7730   44.2740 C   0  0  0  0  0  0  0  0  0  0  0  0
   37.6380   31.9900   44.0750 N   0  0  0  0  0  0  0  0  0  0  0  0
   37.2410   31.4490   45.2370 C   0  0  0  0  0  0  0  0  0  0  0  0
   36.2400   30.5700   45.6460 C   0  0  0  0  0  0  0  0  0  0  0  0
   35.3370   29.5350   47.2260 H   0  0  0  0  0  0  0  0  0  0  0  0
   38.7190   32.0340   48.2750 H   0  0  0  0  0  0  0  0  0  0  0  0
   39.7640   33.2930   46.0600 H   0  0  0  0  0  0  0  0  0  0  0  0
   35.5660   30.1790   44.8930 H   0  0  0  0  0  0  0  0  0  0  0  0
   37.4690   30.1090   51.6000 C   0  0  0  0  0  0  0  0  0  0  0  0
   37.7660   30.5640   50.3230 C   0  0  0  0  0  0  0  0  0  0  0  0
   36.8520   30.3340   49.3120 C   0  0  0  0  0  0  0  0  0  0  0  0
   35.6980   29.6660   49.6370 N   0  0  0  0  0  0  0  0  0  0  0  0
   35.4310   29.2340   50.8850 C   0  0  0  0  0  0  0  0  0  0  0  0
   36.3140   29.4580   51.8500 N   0  0  0  0  0  0  0  0  0  0  0  0
   38.1980   30.2980   52.3880 H   0  0  0  0  0  0  0  0  0  0  0  0
   38.6720   31.0870   50.0740 H   0  0  0  0  0  0  0  0  0  0  0  0
   34.4900   28.7190   51.0220 H   0  0  0  0  0  0  0  0  0  0  0  0
   39.3960   31.5390   42.1380 N   0  0  0  0  0  0  0  0  0  0  0  0
   39.4120   32.9990   42.0030 C   0  0  1  0  0  0  0  0  0  0  0  0
   38.2210   33.4030   41.2680 C   0  0  0  0  0  0  0  0  0  0  0  0
   38.3030   32.9020   39.9630 O   0  0  0  0  0  0  0  0  0  0  0  0
   38.4400   31.5310   39.8860 C   0  0  0  0  0  0  0  0  0  0  0  0
   39.5470   31.0300   40.8100 C   0  0  2  0  0  0  0  0  0  0  0  0
   38.4690   31.1980   42.4470 H   0  0  0  0  0  0  0  0  0  0  0  0
   40.3230   33.2270   41.4540 H   0  0  0  0  0  0  0  0  0  0  0  0
   37.2260   33.1760   41.5480 H   0  0  0  0  0  0  0  0  0  0  0  0
   38.2690   34.5270   41.1290 H   0  0  0  0  0  0  0  0  0  0  0  0
   37.4990   31.0110   40.1270 H   0  0  0  0  0  0  0  0  0  0  0  0
   38.7240   31.2950   38.8480 H   0  0  0  0  0  0  0  0  0  0  0  0
   40.5430   31.3850   40.3980 H   0  0  0  0  0  0  0  0  0  0  0  0
   41.8110   28.9390   41.9530 Cl  0  0  0  0  0  0  0  0  0  0  0  0
   40.3060   28.5130   41.1840 C   0  0  0  0  0  0  0  0  0  0  0  0
   39.5340   29.5710   40.7790 C   0  0  0  0  0  0  0  0  0  0  0  0
   38.3540   29.1030   40.1590 C   0  0  0  0  0  0  0  0  0  0  0  0
   37.5670   29.7510   39.7460 H   0  0  0  0  0  0  0  0  0  0  0  0
   38.0000   27.7660   39.9750 C   0  0  0  0  0  3  0  0  0  0  0  0
   38.8520   26.8050   40.4240 C   0  0  0  0  0  0  0  0  0  0  0  0
   38.5140   25.1010   40.2490 Cl  0  0  0  0  0  0  0  0  0  0  0  0
   40.0120   27.1860   41.0310 C   0  0  0  0  0  0  0  0  0  0  0  0
   40.7050   26.4650   41.3960 H   0  0  0  0  0  0  0  0  0  0  0  0
  1  7  1  0  0  0  0
  2 11  1  0  0  0  0
  2  3  1  0  0  0  0
  3 17  1  0  0  0  0
  4  3  2  0  0  0  0
  4 12  1  0  0  0  0
  5  4  1  0  0  0  0
  6 13  1  0  0  0  0
  6  5  1  0  0  0  0
  7  6  1  0  0  0  0
  8  7  2  0  0  0  0
  8  9  1  0  0  0  0
  9 10  1  0  0  0  0
  9  5  2  0  0  0  0
 10  2  2  0  0  0  0
 14 10  1  0  0  0  0
 15 20  1  0  0  0  0
 15 21  1  0  0  0  0
 16 15  2  0  0  0  0
 17 18  2  0  0  0  0
 17 16  1  0  0  0  0
 18 19  1  0  0  0  0
 19 23  1  0  0  0  0
 19 20  2  0  0  0  0
 22 16  1  0  0  0  0
 24 30  1  0  0  0  0
 25 31  1  6  0  0  0
 25 24  1  0  0  0  0
 25  1  1  0  0  0  0
 26 32  1  0  0  0  0
 26 25  1  0  0  0  0
 27 26  1  0  0  0  0
 28 27  1  0  0  0  0
 28 34  1  0  0  0  0
 28 29  1  0  0  0  0
 29 36  1  6  0  0  0
 29 24  1  0  0  0  0
 33 26  1  0  0  0  0
 35 28  1  0  0  0  0
 38 37  1  0  0  0  0
 39 29  1  0  0  0  0
 39 38  2  0  0  0  0
 40 39  1  0  0  0  0
 41 40  1  0  0  0  0
 42 40  2  0  0  0  0
 42 43  1  0  0  0  0
 43 45  2  0  0  0  0
 44 43  1  0  0  0  0
 45 38  1  0  0  0  0
 45 46  1  0  0  0  0
M  END
>  <minimizedAffinity>
-6.23679447

>  <minimizedRMSD>
0.988615513

$$$$
