REMARK  Name = 
REMARK  2 active torsions:
REMARK  status: ('A' for Active; 'I' for Inactive)
REMARK    1  A    between atoms: C_2  and  N_7
REMARK    2  A    between atoms: C_12  and  C_26
REMARK                            x       y       z     vdW  Elec       q    Type
REMARK                         _______ _______ _______ _____ _____    ______ ____
ROOT
ATOM      1  N   UNL     1      37.504  31.479  48.383  0.00  0.00    +0.000 N 
ATOM      2  C   UNL     1      37.282  31.175  46.956  0.00  0.00    +0.000 C 
ATOM      3  C   UNL     1      38.276  31.835  46.086  0.00  0.00    +0.000 C 
ATOM      4  N   UNL     1      39.509  32.031  46.809  0.00  0.00    +0.000 NA
ATOM      5  C   UNL     1      39.209  33.116  47.756  0.00  0.00    +0.000 C 
ATOM      6  C   UNL     1      38.422  32.485  48.868  0.00  0.00    +0.000 C 
ATOM      7  H   UNL     1      36.243  31.501  46.744  0.00  0.00    +0.000 HD
ATOM      8  H   UNL     1      37.290  30.083  46.809  0.00  0.00    +0.000 HD
ATOM      9  H   UNL     1      38.445  31.302  45.148  0.00  0.00    +0.000 HD
ATOM     10  H   UNL     1      37.879  32.857  45.836  0.00  0.00    +0.000 HD
ATOM     11  H   UNL     1      40.232  32.399  46.149  0.00  0.00    +0.000 HD
ATOM     12  H   UNL     1      38.650  33.920  47.237  0.00  0.00    +0.000 HD
ATOM     13  H   UNL     1      40.160  33.511  48.197  0.00  0.00    +0.000 HD
ATOM     14  H   UNL     1      39.109  32.060  49.631  0.00  0.00    +0.000 HD
ENDROOT
BRANCH   6  17
ATOM     15 CL   UNL     1      37.203  31.881  51.577  0.00  0.00    +0.000 Cl
ATOM     16  C   UNL     1      37.004  33.409  50.716  0.00  0.00    +0.000 A 
ATOM     17  C   UNL     1      37.609  33.577  49.476  0.00  0.00    +0.000 A 
ATOM     18  C   UNL     1      37.411  34.799  48.858  0.00  0.00    +0.000 A 
ATOM     19  H   UNL     1      37.849  34.990  47.904  0.00  0.00    +0.000 HD
ATOM     20  C   UNL     1      36.657  35.809  49.423  0.00  0.00    +0.000 A 
ATOM     21  C   UNL     1      36.064  35.620  50.658  0.00  0.00    +0.000 A 
ATOM     22 CL   UNL     1      35.124  36.944  51.313  0.00  0.00    +0.000 Cl
ATOM     23  C   UNL     1      36.253  34.416  51.280  0.00  0.00    +0.000 A 
ATOM     24  H   UNL     1      35.784  34.282  52.243  0.00  0.00    +0.000 HD
ENDBRANCH   6  17
BRANCH   1  26
ATOM     25  C   UNL     1      37.347  30.296  50.544  0.00  0.00    +0.000 A 
ATOM     26  C   UNL     1      36.768  30.733  49.346  0.00  0.00    +0.000 A 
ATOM     27  C   UNL     1      35.434  30.403  49.136  0.00  0.00    +0.000 A 
ATOM     28  N   UNL     1      34.769  29.684  50.091  0.00  0.00    +0.000 NA
ATOM     29  C   UNL     1      35.383  29.290  51.232  0.00  0.00    +0.000 A 
ATOM     30  N   UNL     1      36.688  29.590  51.478  0.00  0.00    +0.000 NA
ATOM     31  H   UNL     1      38.382  30.524  50.760  0.00  0.00    +0.000 HD
ATOM     32  H   UNL     1      34.953  30.723  48.224  0.00  0.00    +0.000 HD
ATOM     33  H   UNL     1      34.833  28.721  51.972  0.00  0.00    +0.000 HD
ENDBRANCH   1  26
TORSDOF 2
