
 OpenBabel03272506473D

 43 46  0  0  1  0  0  0  0  0999 V2000
   32.0150   28.3720   47.4870 C   0  0  2  0  0  0  0  0  0  0  0  0
   33.2730   28.1710   48.2810 C   0  0  1  0  0  0  0  0  0  0  0  0
   33.6370   26.8620   48.1690 O   0  0  0  0  0  0  0  0  0  0  0  0
   32.8980   26.2660   47.1520 C   0  0  0  0  0  0  0  0  0  0  0  0
   32.3000   27.3730   46.3220 C   0  0  1  0  0  0  0  0  0  0  0  0
   31.0950   28.0390   47.9540 H   0  0  0  0  0  0  0  0  0  0  0  0
   33.1590   28.4680   49.3400 H   0  0  0  0  0  0  0  0  0  0  0  0
   32.2050   25.5860   47.6230 H   0  0  0  0  0  0  0  0  0  0  0  0
   33.5570   25.6890   46.4540 H   0  0  0  0  0  0  0  0  0  0  0  0
   33.0310   27.8490   45.6670 H   0  0  0  0  0  0  0  0  0  0  0  0
   31.9610   29.6810   46.9630 O   0  0  0  0  0  0  0  0  0  0  0  0
   32.6560   30.2670   47.3610 H   0  0  0  0  0  0  0  0  0  0  0  0
   34.5870   29.1940   47.5020 S   0  0  0  0  0  0  0  0  0  0  0  0
   37.0080   29.2440   50.6390 C   0  0  0  0  0  0  0  0  0  0  0  0
   37.4180   30.5690   50.7650 C   0  0  0  0  0  0  0  0  0  0  0  0
   36.9190   31.4940   49.8340 C   0  0  0  0  0  0  0  0  0  0  0  0
   36.0710   31.0530   48.8630 N   0  0  0  0  0  0  0  0  0  0  0  0
   35.7050   29.7540   48.7840 C   0  0  0  0  0  0  0  0  0  0  0  0
   36.1660   28.8330   49.6690 N   0  0  0  0  0  0  0  0  0  0  0  0
   37.3310   28.4550   51.3030 H   0  0  0  0  0  0  0  0  0  0  0  0
   38.1000   30.8270   51.5750 H   0  0  0  0  0  0  0  0  0  0  0  0
   37.2260   32.5130   49.9180 H   0  0  0  0  0  0  0  0  0  0  0  0
   31.1300   26.9270   45.7580 O   0  0  0  0  0  0  0  0  0  0  0  0
   29.9430   29.1650   44.2580 Cl  0  0  0  0  0  0  0  0  0  0  0  0
   29.2450   28.2350   45.5640 C   0  0  0  0  0  0  0  0  0  0  0  0
   29.8980   27.1950   46.1840 C   0  0  0  0  0  0  0  0  0  0  0  0
   29.2260   26.5090   47.1980 C   0  0  0  0  0  0  0  0  0  0  0  0
   27.9450   26.8700   47.5610 C   0  0  0  0  0  0  0  0  0  0  0  0
   27.2790   27.9150   46.9430 C   0  0  0  0  0  0  0  0  0  0  0  0
   27.9400   28.5970   45.9390 C   0  0  0  0  0  0  0  0  0  0  0  0
   29.6570   25.6820   47.7330 H   0  0  0  0  0  0  0  0  0  0  0  0
   27.3670   26.3860   48.3330 H   0  0  0  0  0  0  0  0  0  0  0  0
   26.2700   28.2330   47.1970 H   0  0  0  0  0  0  0  0  0  0  0  0
   26.5560   28.1350   43.2580 Cl  0  0  0  0  0  0  0  0  0  0  0  0
   26.5880   29.6750   44.0860 C   0  0  0  0  0  0  0  0  0  0  0  0
   27.2540   29.7010   45.2760 C   0  0  0  0  0  0  0  0  0  0  0  0
   27.3440   30.8800   46.0250 C   0  0  0  0  0  0  0  0  0  0  0  0
   27.8490   31.0080   46.9810 H   0  0  0  0  0  0  0  0  0  0  0  0
   26.7430   32.0470   45.5420 C   0  0  0  0  0  3  0  0  0  0  0  0
   26.0750   32.0000   44.3360 C   0  0  0  0  0  0  0  0  0  0  0  0
   25.3110   33.4650   43.7180 Cl  0  0  0  0  0  0  0  0  0  0  0  0
   25.9870   30.8360   43.6020 C   0  0  0  0  0  0  0  0  0  0  0  0
   25.4660   30.7660   42.6450 H   0  0  0  0  0  0  0  0  0  0  0  0
  1  6  1  1  0  0  0
  1  2  1  0  0  0  0
  2  7  1  1  0  0  0
  3  2  1  0  0  0  0
  4  8  1  0  0  0  0
  4  3  1  0  0  0  0
  5 10  1  6  0  0  0
  5  4  1  0  0  0  0
  5  1  1  0  0  0  0
  9  4  1  0  0  0  0
 11 12  1  0  0  0  0
 11  1  1  0  0  0  0
 13  2  1  0  0  0  0
 13 18  1  0  0  0  0
 14 15  1  0  0  0  0
 14 20  1  0  0  0  0
 15 21  1  0  0  0  0
 16 22  1  0  0  0  0
 16 15  2  0  0  0  0
 17 16  1  0  0  0  0
 18 17  2  0  0  0  0
 18 19  1  0  0  0  0
 19 14  2  0  0  0  0
 23 26  1  0  0  0  0
 23  5  1  0  0  0  0
 24 25  1  0  0  0  0
 25 30  2  0  0  0  0
 25 26  1  0  0  0  0
 26 27  2  0  0  0  0
 27 28  1  0  0  0  0
 27 31  1  0  0  0  0
 28 32  1  0  0  0  0
 29 33  1  0  0  0  0
 29 28  2  0  0  0  0
 30 29  1  0  0  0  0
 34 35  1  0  0  0  0
 35 36  1  0  0  0  0
 36 30  1  0  0  0  0
 36 37  2  0  0  0  0
 37 38  1  0  0  0  0
 39 37  1  0  0  0  0
 40 39  2  0  0  0  0
 41 40  1  0  0  0  0
 42 35  2  0  0  0  0
 42 40  1  0  0  0  0
 43 42  1  0  0  0  0
M  END
>  <minimizedAffinity>
-5.80174255

>  <minimizedRMSD>
0.55035013

$$$$
