
 OpenBabel03272508123D

 35 37  0  0  0  0  0  0  0  0999 V2000
   36.7410   29.3860   44.1240 Cl  0  0  0  0  0  0  0  0  0  0  0  0
   38.3990   29.8020   43.6220 C   0  0  0  0  0  0  0  0  0  0  0  0
   39.3570   30.3250   44.4730 C   0  0  0  0  0  0  0  0  0  0  0  0
   40.5980   30.5960   43.9370 C   0  0  0  0  0  0  0  0  0  0  0  0
   40.8740   30.3590   42.6140 C   0  0  0  0  0  0  0  0  0  0  0  0
   39.9370   29.8420   41.7580 C   0  0  0  0  0  0  0  0  0  0  0  0
   38.7030   29.5660   42.2690 C   0  0  0  0  0  0  0  0  0  0  0  0
   41.3060   31.0060   44.6620 H   0  0  0  0  0  0  0  0  0  0  0  0
   41.8950   30.6210   42.3320 H   0  0  0  0  0  0  0  0  0  0  0  0
   40.2150   29.6770   40.7280 H   0  0  0  0  0  0  0  0  0  0  0  0
   38.2880   26.5470   42.0810 Cl  0  0  0  0  0  0  0  0  0  0  0  0
   37.3570   27.6930   41.1460 C   0  0  0  0  0  0  0  0  0  0  0  0
   37.6880   29.0130   41.3670 C   0  0  0  0  0  0  0  0  0  0  0  0
   37.0300   30.0310   40.6940 C   0  0  0  0  0  0  0  0  0  0  0  0
   37.1990   31.0960   40.7810 H   0  0  0  0  0  0  0  0  0  0  0  0
   36.0200   29.7420   39.7800 C   0  0  0  0  0  3  0  0  0  0  0  0
   35.6930   28.3990   39.5640 C   0  0  0  0  0  0  0  0  0  0  0  0
   34.4350   27.9650   38.4300 Cl  0  0  0  0  0  0  0  0  0  0  0  0
   36.3580   27.3990   40.2430 C   0  0  0  0  0  0  0  0  0  0  0  0
   36.1480   26.3350   40.1170 H   0  0  0  0  0  0  0  0  0  0  0  0
   38.9030   30.4930   45.7480 O   0  0  0  0  0  0  0  0  0  0  0  0
   39.3960   32.5690   47.1950 O   0  0  0  0  0  0  0  0  0  0  0  0
   38.2870   31.8690   46.4940 P   0  0  1  0  0  0  0  0  0  0  0  0
   37.7140   32.8430   45.2160 O   0  0  0  0  0  0  0  0  0  0  0  0
   37.1430   32.3320   44.6070 H   0  0  0  0  0  0  0  0  0  0  0  0
   37.0020   31.4460   47.5030 O   0  0  0  0  0  0  0  0  0  0  0  0
   37.5120   30.5240   51.0500 C   0  0  0  0  0  0  0  0  0  0  0  0
   37.6200   31.3210   49.8950 C   0  0  0  0  0  0  0  0  0  0  0  0
   37.0290   30.8590   48.7160 C   0  0  0  0  0  0  0  0  0  0  0  0
   36.3790   29.6600   48.7540 N   0  0  0  0  0  0  0  0  0  0  0  0
   36.2980   28.9220   49.8840 C   0  0  0  0  0  0  0  0  0  0  0  0
   36.8710   29.3670   51.0270 N   0  0  0  0  0  0  0  0  0  0  0  0
   37.9990   30.9570   51.9120 H   0  0  0  0  0  0  0  0  0  0  0  0
   38.1100   32.2670   49.7870 H   0  0  0  0  0  0  0  0  0  0  0  0
   35.7750   27.9680   49.8890 H   0  0  0  0  0  0  0  0  0  0  0  0
  2  1  1  0  0  0  0
  2  3  1  0  0  0  0
  3 21  1  0  0  0  0
  4  3  2  0  0  0  0
  4  8  1  0  0  0  0
  5  4  1  0  0  0  0
  6  7  1  0  0  0  0
  6  5  2  0  0  0  0
  7  2  2  0  0  0  0
  9  5  1  0  0  0  0
 10  6  1  0  0  0  0
 12 13  1  0  0  0  0
 12 11  1  0  0  0  0
 13  7  1  0  0  0  0
 14 15  1  0  0  0  0
 14 13  2  0  0  0  0
 16 14  1  0  0  0  0
 17 16  2  0  0  0  0
 17 19  1  0  0  0  0
 18 17  1  0  0  0  0
 19 12  2  0  0  0  0
 20 19  1  0  0  0  0
 21 23  1  0  0  0  0
 23 22  2  1  0  0  0
 23 26  1  0  0  0  0
 24 23  1  0  0  0  0
 25 24  1  0  0  0  0
 26 29  1  0  0  0  0
 27 33  1  0  0  0  0
 28 27  2  0  0  0  0
 29 30  2  0  0  0  0
 29 28  1  0  0  0  0
 30 31  1  0  0  0  0
 31 35  1  0  0  0  0
 31 32  2  0  0  0  0
 32 27  1  0  0  0  0
 34 28  1  0  0  0  0
M  END
>  <minimizedAffinity>
-4.8901062

>  <minimizedRMSD>
0.81968987

$$$$
