
     RDKit          3D

 42 46  0  0  0  0  0  0  0  0999 V2000
   35.5477   29.6940   49.8093 C   0  0  0  0  0  0  0  0  0  0  0  0
   36.5444   29.5231   50.7522 C   0  0  0  0  0  0  0  0  0  0  0  0
   37.6659   30.0686   50.1372 C   0  0  0  0  0  0  0  0  0  0  0  0
   37.3163   30.5345   48.8844 C   0  0  0  0  0  0  0  0  0  0  0  0
   36.0401   30.2901   48.7296 O   0  0  0  0  0  0  0  0  0  0  0  0
   38.6281   32.4596   48.1373 C   0  0  0  0  0  0  0  0  0  0  0  0
   38.1924   31.1732   47.9214 C   0  0  0  0  0  0  0  0  0  0  0  0
   38.5762   30.4578   46.7862 C   0  0  0  0  0  0  0  0  0  0  0  0
   39.4116   31.0378   45.8477 C   0  0  0  0  0  0  0  0  0  0  0  0
   39.9472   30.6237   44.6827 N   0  0  0  0  0  0  0  0  0  0  0  0
   40.6823   31.6305   44.2129 N   0  0  0  0  0  0  0  0  0  0  0  0
   40.6272   32.6834   45.0570 C   0  0  0  0  0  0  0  0  0  0  0  0
   39.8114   32.3255   46.1226 C   0  0  0  0  0  0  0  0  0  0  0  0
   39.4746   33.0788   47.2087 C   0  0  0  0  0  0  0  0  0  0  0  0
   34.1670   29.2788   49.9841 C   0  0  0  0  0  0  0  0  0  0  0  0
   33.5017   29.8288   50.8926 O   0  0  0  0  0  0  0  0  0  0  0  0
   31.6882   27.1634   48.3516 C   0  0  0  0  0  0  0  0  0  0  0  0
   32.4725   26.3539   47.5233 C   0  0  0  0  0  0  0  0  0  0  0  0
   33.8342   26.5202   47.5146 C   0  0  0  0  0  0  0  0  0  0  0  0
   34.3601   27.4758   48.3218 N   0  0  0  0  0  0  0  0  0  0  0  0
   33.5955   28.2534   49.1187 C   0  0  0  0  0  0  0  0  0  0  0  0
   32.2584   28.0932   49.1301 N   0  0  0  0  0  0  0  0  0  0  0  0
   36.4516   29.0769   51.7138 H   0  0  0  0  0  0  0  0  0  0  0  0
   38.6510   30.0955   50.6242 H   0  0  0  0  0  0  0  0  0  0  0  0
   38.3147   33.0059   49.0370 H   0  0  0  0  0  0  0  0  0  0  0  0
   38.2597   29.4391   46.5692 H   0  0  0  0  0  0  0  0  0  0  0  0
   39.7961   29.6894   44.2579 H   0  0  0  0  0  0  0  0  0  0  0  0
   41.1372   33.6505   44.9236 H   0  0  0  0  0  0  0  0  0  0  0  0
   39.8098   34.0740   47.3787 H   0  0  0  0  0  0  0  0  0  0  0  0
   30.6268   27.0706   48.3919 H   0  0  0  0  0  0  0  0  0  0  0  0
   31.9811   25.6211   46.9147 H   0  0  0  0  0  0  0  0  0  0  0  0
   32.5620   24.0708   46.3720 Cl  0  0  0  0  0  0  0  0  0  0  0  0
   34.2064   24.5540   46.1010 C   0  0  0  0  0  0  0  0  0  0  0  0
   34.7041   25.7082   46.6754 C   0  0  0  0  0  0  0  0  0  0  0  0
   36.0039   25.9889   46.3942 C   0  0  0  0  0  0  0  0  0  0  0  0
   36.4537   26.8738   46.8103 H   0  0  0  0  0  0  0  0  0  0  0  0
   36.7982   25.1940   45.5925 C   0  0  0  0  0  0  0  0  0  0  0  0
   36.2690   24.0432   45.0315 C   0  0  0  0  0  0  0  0  0  0  0  0
   37.3355   23.0684   44.0153 Cl  0  0  0  0  0  0  0  0  0  0  0  0
   34.9409   23.7165   45.2928 C   0  0  0  0  0  0  0  0  0  0  0  0
   34.5601   22.8147   44.8411 H   0  0  0  0  0  0  0  0  0  0  0  0
   37.8335   25.4556   45.3933 H   0  0  0  0  0  0  0  0  0  0  0  0
  1 15  1  0
  1  2  2  0
  3  2  1  0
  4  3  2  0
  5  4  1  0
  5  1  1  0
  7  6  2  0
  7  4  1  0
  8  7  1  0
  9 13  1  0
  9  8  2  0
 10  9  1  0
 11 10  1  0
 11 12  2  0
 12 13  1  0
 13 14  2  0
 14  6  1  0
 15 16  2  0
 17 22  2  0
 18 17  1  0
 19 18  2  0
 19 20  1  0
 20 21  2  0
 21 22  1  0
 21 15  1  0
  2 23  1  0
  3 24  1  0
  6 25  1  0
  8 26  1  0
 10 27  1  0
 12 28  1  0
 14 29  1  0
 17 30  1  0
 18 31  1  0
 32 33  1  0
 33 34  2  0
 34 35  1  0
 35 36  1  0
 35 37  2  0
 37 38  1  0
 38 39  1  0
 38 40  2  0
 40 41  1  0
 40 33  1  0
 37 42  1  0
 19 34  1  0
M  ISO  8  23  14  24  14  25  14  26  14  27   9  28  14  29  14  30  14
M  ISO  3  31  14  36  16  41  15
M  END
>  <DihAtoms>  (1) 
17,18,33,32

>  <DihDeg>  (1) 
-179.7222998771106

$$$$
