
 OpenBabel03272506093D

 45 48  0  0  0  0  0  0  0  0999 V2000
   34.9000   28.3480   49.1430 C   0  0  0  0  0  0  0  0  0  0  0  0
   34.9390   27.4510   49.8430 H   0  0  0  0  0  0  0  0  0  0  0  0
   35.8090   28.2400   48.5410 H   0  0  0  0  0  0  0  0  0  0  0  0
   33.6450   28.2030   48.3260 C   0  0  0  0  0  0  0  0  0  0  0  0
   33.6870   28.3870   46.9020 C   0  0  0  0  0  0  0  0  0  0  0  0
   31.9990   28.1140   46.4570 S   0  0  0  0  0  0  0  0  0  0  0  0
   31.4320   27.7910   48.2080 C   0  0  0  0  0  0  0  0  0  0  0  0
   32.4640   27.9200   48.7810 N   0  0  0  0  0  0  0  0  0  0  0  0
   30.1220   27.4720   48.7540 N   0  0  0  0  0  0  0  0  0  0  0  0
   29.2400   26.7560   47.8960 C   0  0  0  0  0  0  0  0  0  0  0  0
   27.8070   26.8080   48.3270 C   0  0  0  0  0  0  0  0  0  0  0  0
   27.5520   27.7320   49.4230 N   0  0  0  0  0  0  0  0  0  0  0  0
   28.4670   27.3400   50.4820 C   0  0  0  0  0  0  0  0  0  0  0  0
   29.8110   27.8940   50.1060 C   0  0  0  0  0  0  0  0  0  0  0  0
   34.4920   28.6280   46.2130 H   0  0  0  0  0  0  0  0  0  0  0  0
   29.2680   27.1980   46.8650 H   0  0  0  0  0  0  0  0  0  0  0  0
   29.6190   25.7210   47.7690 H   0  0  0  0  0  0  0  0  0  0  0  0
   27.5580   25.7870   48.7230 H   0  0  0  0  0  0  0  0  0  0  0  0
   27.1000   26.9740   47.4850 H   0  0  0  0  0  0  0  0  0  0  0  0
   26.5660   27.5560   49.7220 H   0  0  0  0  0  0  0  0  0  0  0  0
   28.4520   26.2570   50.6260 H   0  0  0  0  0  0  0  0  0  0  0  0
   28.1390   27.8580   51.3990 H   0  0  0  0  0  0  0  0  0  0  0  0
   30.6060   27.6540   50.8280 H   0  0  0  0  0  0  0  0  0  0  0  0
   29.7090   29.0060   50.0700 H   0  0  0  0  0  0  0  0  0  0  0  0
   34.9190   29.5950   49.9110 C   0  0  0  0  0  0  0  0  0  0  0  0
   35.2000   29.3740   50.9820 H   0  0  0  0  0  0  0  0  0  0  0  0
   33.9690   30.1500   49.9860 H   0  0  0  0  0  0  0  0  0  0  0  0
   37.3400   32.3870   49.7010 C   0  0  0  0  0  0  0  0  0  0  0  0
   37.9590   32.1540   48.4800 C   0  0  0  0  0  0  0  0  0  0  0  0
   37.5480   31.0320   47.7190 C   0  0  0  0  0  0  0  0  0  0  0  0
   36.5790   30.2370   48.2060 N   0  0  0  0  0  0  0  0  0  0  0  0
   36.0070   30.5190   49.4160 C   0  0  0  0  0  0  0  0  0  0  0  0
   36.3700   31.5680   50.1580 N   0  0  0  0  0  0  0  0  0  0  0  0
   37.5270   33.1930   50.4100 H   0  0  0  0  0  0  0  0  0  0  0  0
   38.6700   32.9200   48.3430 H   0  0  0  0  0  0  0  0  0  0  0  0
   35.9700   30.3550   45.1370 Cl  0  0  0  0  0  0  0  0  0  0  0  0
   37.6890   30.6250   45.2550 C   0  0  0  0  0  0  0  0  0  0  0  0
   38.2680   30.9180   46.4680 C   0  0  0  0  0  0  0  0  0  0  0  0
   39.6190   31.1030   46.3540 C   0  0  0  0  0  0  0  0  0  0  0  0
   40.2390   31.3360   47.1930 H   0  0  0  0  0  0  0  0  0  0  0  0
   40.3320   31.0130   45.1850 C   0  0  0  0  0  3  0  0  0  0  0  0
   39.6950   30.7160   44.0020 C   0  0  0  0  0  0  0  0  0  0  0  0
   40.5970   30.5990   42.5070 Cl  0  0  0  0  0  0  0  0  0  0  0  0
   38.3320   30.5170   44.0430 C   0  0  0  0  0  0  0  0  0  0  0  0
   37.8540   30.2850   43.1030 H   0  0  0  0  0  0  0  0  0  0  0  0
  1  2  1  0  0  0  0
  1 25  1  0  0  0  0
  3  1  1  0  0  0  0
  4  8  1  0  0  0  0
  4  1  1  0  0  0  0
  5  4  2  0  0  0  0
  6  5  1  0  0  0  0
  6  7  1  0  0  0  0
  7  9  1  0  0  0  0
  7  8  2  0  0  0  0
  9 14  1  0  0  0  0
 10 11  1  0  0  0  0
 10  9  1  0  0  0  0
 11 18  1  0  0  0  0
 11 12  1  0  0  0  0
 12 20  1  0  0  0  0
 12 13  1  0  0  0  0
 13 21  1  0  0  0  0
 13 22  1  0  0  0  0
 14 13  1  0  0  0  0
 14 23  1  0  0  0  0
 15  5  1  0  0  0  0
 16 10  1  0  0  0  0
 17 10  1  0  0  0  0
 19 11  1  0  0  0  0
 24 14  1  0  0  0  0
 25 27  1  0  0  0  0
 25 26  1  0  0  0  0
 28 33  1  0  0  0  0
 28 34  1  0  0  0  0
 29 28  2  0  0  0  0
 30 31  2  0  0  0  0
 30 29  1  0  0  0  0
 31 32  1  0  0  0  0
 32 25  1  0  0  0  0
 32 33  2  0  0  0  0
 35 29  1  0  0  0  0
 36 37  1  0  0  0  0
 37 38  1  0  0  0  0
 38 30  1  0  0  0  0
 39 38  2  0  0  0  0
 39 40  1  0  0  0  0
 41 39  1  0  0  0  0
 42 44  1  0  0  0  0
 42 41  2  0  0  0  0
 43 42  1  0  0  0  0
 44 37  2  0  0  0  0
 45 44  1  0  0  0  0
M  END
>  <minimizedAffinity>
-7.03953695

>  <minimizedRMSD>
0.905281603

$$$$
