
 OpenBabel03272507023D

 47 50  0  0  1  0  0  0  0  0999 V2000
   35.3710   30.3400   49.9730 C   0  0  2  0  0  0  0  0  0  0  0  0
   36.0640   31.5320   49.4110 C   0  0  0  0  0  0  0  0  0  0  0  0
   37.5460   31.2880   49.1900 C   0  0  2  0  0  0  0  0  0  0  0  0
   38.2290   30.8860   50.4630 C   0  0  0  0  0  0  0  0  0  0  0  0
   37.4860   29.8400   51.2200 C   0  0  0  0  0  0  0  0  0  0  0  0
   36.3140   29.2680   50.4640 C   0  0  0  0  0  0  0  0  0  0  0  0
   34.7270   30.5720   50.8730 H   0  0  0  0  0  0  0  0  0  0  0  0
   35.7090   31.9680   48.4950 H   0  0  0  0  0  0  0  0  0  0  0  0
   36.0460   32.3000   50.2520 H   0  0  0  0  0  0  0  0  0  0  0  0
   37.6220   30.4400   48.4820 H   0  0  0  0  0  0  0  0  0  0  0  0
   39.2360   30.5080   50.2020 H   0  0  0  0  0  0  0  0  0  0  0  0
   38.3630   31.7110   51.1810 H   0  0  0  0  0  0  0  0  0  0  0  0
   37.0590   30.2220   52.1810 H   0  0  0  0  0  0  0  0  0  0  0  0
   38.1740   29.0160   51.5090 H   0  0  0  0  0  0  0  0  0  0  0  0
   36.7560   28.7290   49.5870 H   0  0  0  0  0  0  0  0  0  0  0  0
   35.7630   28.5800   51.1160 H   0  0  0  0  0  0  0  0  0  0  0  0
   38.2030   32.4140   48.6400 N   0  0  1  0  0  0  0  0  0  0  0  0
   38.8960   33.2040   49.6470 C   0  0  0  0  0  0  0  0  0  0  0  0
   39.4280   34.3460   48.7750 C   0  0  0  0  0  0  0  0  0  0  0  0
   39.8840   33.5820   47.5540 C   0  0  0  0  0  0  0  0  0  0  0  0
   39.1100   32.2430   47.6150 C   0  0  2  0  0  0  0  0  0  0  0  0
   39.7890   32.6540   50.0250 H   0  0  0  0  0  0  0  0  0  0  0  0
   38.2350   33.5500   50.4500 H   0  0  0  0  0  0  0  0  0  0  0  0
   38.6320   35.0680   48.6020 H   0  0  0  0  0  0  0  0  0  0  0  0
   40.2830   34.8470   49.2730 H   0  0  0  0  0  0  0  0  0  0  0  0
   40.9720   33.4280   47.6060 H   0  0  0  0  0  0  0  0  0  0  0  0
   39.6390   34.1700   46.6740 H   0  0  0  0  0  0  0  0  0  0  0  0
   39.8610   31.4900   47.8820 H   0  0  0  0  0  0  0  0  0  0  0  0
   37.4980   29.7260   46.9310 Cl  0  0  0  0  0  0  0  0  0  0  0  0
   37.9470   30.9370   45.7460 C   0  0  0  0  0  0  0  0  0  0  0  0
   38.6840   32.0280   46.2270 C   0  0  0  0  0  0  0  0  0  0  0  0
   39.0080   32.9490   45.2380 C   0  0  0  0  0  0  0  0  0  0  0  0
   39.5860   33.8210   45.5700 H   0  0  0  0  0  0  0  0  0  0  0  0
   38.6750   32.8710   43.9010 C   0  0  0  0  0  0  0  0  0  0  0  0
   37.9490   31.7700   43.4980 C   0  0  0  0  0  0  0  0  0  0  0  0
   37.5340   31.6840   41.8040 Cl  0  0  0  0  0  0  0  0  0  0  0  0
   37.5870   30.8090   44.4200 C   0  0  0  0  0  0  0  0  0  0  0  0
   37.0170   29.9500   44.0900 H   0  0  0  0  0  0  0  0  0  0  0  0
   34.4600   29.6980   48.9940 C   0  0  0  0  0  0  0  0  0  0  0  0
   34.3230   30.3810   47.7830 C   0  0  0  0  0  0  0  0  0  0  0  0
   33.4830   29.7970   46.8240 C   0  0  0  0  0  0  0  0  0  0  0  0
   32.8450   28.6070   47.1120 N   0  0  0  0  0  0  0  0  0  0  0  0
   33.0120   27.9830   48.3080 C   0  0  0  0  0  0  0  0  0  0  0  0
   33.8050   28.5350   49.2090 N   0  0  0  0  0  0  0  0  0  0  0  0
   34.6680   31.2790   47.3140 H   0  0  0  0  0  0  0  0  0  0  0  0
   33.2130   30.1130   45.8350 H   0  0  0  0  0  0  0  0  0  0  0  0
   32.5040   27.0500   48.5160 H   0  0  0  0  0  0  0  0  0  0  0  0
  1  6  1  0  0  0  0
  1  7  1  1  0  0  0
  2  1  1  0  0  0  0
  2  9  1  0  0  0  0
  3 10  1  6  0  0  0
  3  2  1  0  0  0  0
  3  4  1  0  0  0  0
  4 12  1  0  0  0  0
  4  5  1  0  0  0  0
  5 14  1  0  0  0  0
  5 13  1  0  0  0  0
  6 16  1  0  0  0  0
  6  5  1  0  0  0  0
  8  2  1  0  0  0  0
 11  4  1  0  0  0  0
 15  6  1  0  0  0  0
 17  3  1  0  0  0  0
 17 18  1  1  0  0  0
 18 22  1  0  0  0  0
 18 23  1  0  0  0  0
 19 25  1  0  0  0  0
 19 18  1  0  0  0  0
 20 26  1  0  0  0  0
 20 21  1  0  0  0  0
 20 19  1  0  0  0  0
 21 28  1  1  0  0  0
 21 17  1  0  0  0  0
 24 19  1  0  0  0  0
 27 20  1  0  0  0  0
 30 31  1  0  0  0  0
 30 29  1  0  0  0  0
 31 21  1  0  0  0  0
 32 33  1  0  0  0  0
 32 31  2  0  0  0  0
 34 32  1  0  0  0  0
 35 34  2  0  0  0  0
 35 37  1  0  0  0  0
 36 35  1  0  0  0  0
 37 30  2  0  0  0  0
 38 37  1  0  0  0  0
 39 44  1  0  0  0  0
 39  1  1  0  0  0  0
 40 39  2  0  0  0  0
 41 42  2  0  0  0  0
 41 40  1  0  0  0  0
 42 43  1  0  0  0  0
 43 47  1  0  0  0  0
 43 44  2  0  0  0  0
 45 40  1  0  0  0  0
 46 41  1  0  0  0  0
M  END
>  <minimizedAffinity>
-6.42534637

>  <minimizedRMSD>
4.23257589

$$$$
