
     RDKit          3D

 46 49  0  0  0  0  0  0  0  0999 V2000
   37.6872   31.0327   47.9320 C   0  0  0  0  0  0  0  0  0  0  0  0
   36.9969   30.7926   46.7592 C   0  0  0  0  0  0  0  0  0  0  0  0
   37.6880   31.4572   45.7371 C   0  0  0  0  0  0  0  0  0  0  0  0
   38.7270   32.0478   46.3195 N   0  0  0  0  0  0  0  0  0  0  0  0
   38.7231   31.7920   47.6275 N   0  0  0  0  0  0  0  0  0  0  0  0
   37.4041   30.1353   51.5732 C   0  0  0  0  0  0  0  0  0  0  0  0
   37.9241   30.6992   50.4011 C   0  0  0  0  0  0  0  0  0  0  0  0
   37.2612   30.5018   49.2026 C   0  0  0  0  0  0  0  0  0  0  0  0
   36.1274   29.7522   49.2783 N   0  0  0  0  0  0  0  0  0  0  0  0
   35.6417   29.2174   50.4141 C   0  0  0  0  0  0  0  0  0  0  0  0
   36.2925   29.4182   51.5559 N   0  0  0  0  0  0  0  0  0  0  0  0
   39.6986   32.8624   45.5941 C   0  0  0  0  0  0  0  0  0  0  0  0
   40.6197   32.0268   44.8451 C   0  0  0  0  0  0  0  0  0  0  0  0
   40.3928   31.7960   43.4605 N   0  0  0  0  0  0  0  0  0  0  0  0
   39.5097   32.7019   42.8310 C   0  0  0  0  0  0  0  0  0  0  0  0
   38.2534   32.1428   42.2861 C   0  0  0  0  0  0  0  0  0  0  0  0
   38.4323   30.8877   41.7096 O   0  0  0  0  0  0  0  0  0  0  0  0
   38.9868   30.0125   42.5791 C   0  0  0  0  0  0  0  0  0  0  0  0
   40.3485   30.4785   43.0149 C   0  0  1  0  0  0  0  0  0  0  0  0
   36.0738   30.1875   46.6616 H   0  0  0  0  0  0  0  0  0  0  0  0
   37.2907   31.3676   44.7969 H   0  0  0  0  0  0  0  0  0  0  0  0
   38.0474   30.3869   52.4270 H   0  0  0  0  0  0  0  0  0  0  0  0
   38.8233   31.2961   50.3269 H   0  0  0  0  0  0  0  0  0  0  0  0
   34.7316   28.6361   50.3696 H   0  0  0  0  0  0  0  0  0  0  0  0
   40.2590   33.4361   46.4060 H   0  0  0  0  0  0  0  0  0  0  0  0
   39.0857   33.6364   45.1555 H   0  0  0  0  0  0  0  0  0  0  0  0
   41.6760   32.3363   45.0768 H   0  0  0  0  0  0  0  0  0  0  0  0
   40.6070   30.9872   45.2983 H   0  0  0  0  0  0  0  0  0  0  0  0
   40.1247   32.9521   41.9285 H   0  0  0  0  0  0  0  0  0  0  0  0
   39.4124   33.7161   43.2307 H   0  0  0  0  0  0  0  0  0  0  0  0
   38.0541   32.7353   41.3072 H   0  0  0  0  0  0  0  0  0  0  0  0
   37.3056   32.3674   42.7402 H   0  0  0  0  0  0  0  0  0  0  0  0
   38.3515   29.5628   43.3343 H   0  0  0  0  0  0  0  0  0  0  0  0
   39.1755   29.1254   41.9215 H   0  0  0  0  0  0  0  0  0  0  0  0
   40.4162   29.9003   44.0305 H   0  0  0  0  0  0  0  0  0  0  0  0
   41.0983   31.4331   40.1405 Cl  0  0  0  0  0  0  0  0  0  0  0  0
   41.8798   30.1812   41.0289 C   0  0  0  0  0  0  0  0  0  0  0  0
   41.4325   29.8361   42.2881 C   0  0  0  0  0  0  0  0  0  0  0  0
   42.2079   28.7711   42.7946 C   0  0  0  0  0  0  0  0  0  0  0  0
   41.9523   28.3958   43.8012 H   0  0  0  0  0  0  0  0  0  0  0  0
   43.2619   28.1245   42.1894 C   0  0  0  0  0  0  0  0  0  0  0  0
   43.6211   28.5556   40.9314 C   0  0  0  0  0  0  0  0  0  0  0  0
   44.9524   27.7455   40.1579 Cl  0  0  0  0  0  0  0  0  0  0  0  0
   42.9266   29.5810   40.3612 C   0  0  0  0  0  0  0  0  0  0  0  0
   43.2662   29.8635   39.3740 H   0  0  0  0  0  0  0  0  0  0  0  0
   43.7716   27.3219   42.6877 H   0  0  0  0  0  0  0  0  0  0  0  0
  1  8  1  0
  2  1  1  0
  3  4  1  0
  3  2  2  0
  4  5  1  0
  5  1  2  0
  7  6  2  0
  8  9  2  0
  8  7  1  0
  9 10  1  0
 10 11  2  0
 11  6  1  0
 12  4  1  0
 13 12  1  0
 14 13  1  0
 15 14  1  0
 16 15  1  0
 17 16  1  0
 17 18  1  0
 18 19  1  0
 19 14  1  0
  2 20  1  0
  3 21  1  0
  6 22  1  0
  7 23  1  0
 10 24  1  0
 12 25  1  0
 12 26  1  0
 13 27  1  0
 13 28  1  0
 15 29  1  0
 15 30  1  0
 16 31  1  0
 16 32  1  0
 18 33  1  0
 18 34  1  0
 19 35  1  1
 36 37  1  0
 37 38  2  0
 38 39  1  0
 39 40  1  0
 39 41  2  0
 41 42  1  0
 42 43  1  0
 42 44  2  0
 44 45  1  0
 44 37  1  0
 41 46  1  0
 19 38  1  0
M  ISO  8  20  14  21  14  22  14  23  14  24  14  25   8  26   8  27   8
M  ISO  8  28   8  29  13  30  13  31  13  32  13  33  13  34  13  35  13
M  ISO  2  40  16  45  15
M  END
>  <DihAtoms>  (1) 
17,18,37,36

>  <DihDeg>  (1) 
65.39449712782597

$$$$
