
 OpenBabel03272506093D

 45 48  0  0  0  0  0  0  0  0999 V2000
   34.1360   28.0130   49.0450 C   0  0  0  0  0  0  0  0  0  0  0  0
   34.2340   26.9470   49.4340 H   0  0  0  0  0  0  0  0  0  0  0  0
   34.9910   28.1150   48.3660 H   0  0  0  0  0  0  0  0  0  0  0  0
   32.8160   28.0910   48.3280 C   0  0  0  0  0  0  0  0  0  0  0  0
   32.7540   28.6020   46.9870 C   0  0  0  0  0  0  0  0  0  0  0  0
   31.0260   28.4790   46.6390 S   0  0  0  0  0  0  0  0  0  0  0  0
   30.5850   27.7690   48.3100 C   0  0  0  0  0  0  0  0  0  0  0  0
   31.6630   27.7370   48.8060 N   0  0  0  0  0  0  0  0  0  0  0  0
   29.3100   27.3610   48.8780 N   0  0  0  0  0  0  0  0  0  0  0  0
   28.3330   26.8860   47.9570 C   0  0  0  0  0  0  0  0  0  0  0  0
   26.9420   26.8690   48.5110 C   0  0  0  0  0  0  0  0  0  0  0  0
   26.8140   27.5170   49.8080 N   0  0  0  0  0  0  0  0  0  0  0  0
   27.7910   26.8680   50.6660 C   0  0  0  0  0  0  0  0  0  0  0  0
   29.1240   27.4630   50.3120 C   0  0  0  0  0  0  0  0  0  0  0  0
   33.5120   28.9790   46.3050 H   0  0  0  0  0  0  0  0  0  0  0  0
   28.3000   27.5550   47.0580 H   0  0  0  0  0  0  0  0  0  0  0  0
   28.6580   25.9010   47.5630 H   0  0  0  0  0  0  0  0  0  0  0  0
   26.6820   25.7900   48.6810 H   0  0  0  0  0  0  0  0  0  0  0  0
   26.1800   27.2430   47.7940 H   0  0  0  0  0  0  0  0  0  0  0  0
   25.8480   27.2990   50.1430 H   0  0  0  0  0  0  0  0  0  0  0  0
   27.7430   25.7820   50.5560 H   0  0  0  0  0  0  0  0  0  0  0  0
   27.5590   27.1650   51.7020 H   0  0  0  0  0  0  0  0  0  0  0  0
   29.9620   27.0440   50.8890 H   0  0  0  0  0  0  0  0  0  0  0  0
   29.0670   28.5550   50.5430 H   0  0  0  0  0  0  0  0  0  0  0  0
   34.2230   28.9700   50.1510 C   0  0  0  0  0  0  0  0  0  0  0  0
   34.0710   28.4280   51.1300 H   0  0  0  0  0  0  0  0  0  0  0  0
   33.4770   29.7820   50.1680 H   0  0  0  0  0  0  0  0  0  0  0  0
   37.4780   30.0980   51.5070 C   0  0  0  0  0  0  0  0  0  0  0  0
   38.1000   30.6280   50.3850 C   0  0  0  0  0  0  0  0  0  0  0  0
   37.4050   30.5990   49.1520 C   0  0  0  0  0  0  0  0  0  0  0  0
   36.1730   30.0620   49.1130 N   0  0  0  0  0  0  0  0  0  0  0  0
   35.6110   29.5560   50.2520 C   0  0  0  0  0  0  0  0  0  0  0  0
   36.2390   29.5660   51.4310 N   0  0  0  0  0  0  0  0  0  0  0  0
   37.8580   30.0360   52.5260 H   0  0  0  0  0  0  0  0  0  0  0  0
   39.0450   30.9780   50.6940 H   0  0  0  0  0  0  0  0  0  0  0  0
   38.4000   33.5230   49.4490 Cl  0  0  0  0  0  0  0  0  0  0  0  0
   38.6650   32.4750   48.0790 C   0  0  0  0  0  0  0  0  0  0  0  0
   38.1670   31.1940   48.0730 C   0  0  0  0  0  0  0  0  0  0  0  0
   38.4870   30.5310   46.9190 C   0  0  0  0  0  0  0  0  0  0  0  0
   38.1810   29.5220   46.7330 H   0  0  0  0  0  0  0  0  0  0  0  0
   39.2130   31.0570   45.8820 C   0  0  0  0  0  0  0  0  0  0  0  0
   39.6850   32.3480   45.9470 C   0  0  0  0  0  0  0  0  0  0  0  0
   40.6120   33.0260   44.6270 Cl  0  0  0  0  0  0  0  0  0  0  0  0
   39.4000   33.0760   47.0820 C   0  0  0  0  0  0  0  0  0  0  0  0
   39.7810   34.0850   47.1100 H   0  0  0  0  0  0  0  0  0  0  0  0
  1  2  1  0  0  0  0
  1 25  1  0  0  0  0
  3  1  1  0  0  0  0
  4  8  1  0  0  0  0
  4  1  1  0  0  0  0
  5  4  2  0  0  0  0
  6  5  1  0  0  0  0
  6  7  1  0  0  0  0
  7  8  2  0  0  0  0
  7  9  1  0  0  0  0
  9 14  1  0  0  0  0
 10 11  1  0  0  0  0
 10  9  1  0  0  0  0
 11 18  1  0  0  0  0
 11 12  1  0  0  0  0
 12 20  1  0  0  0  0
 12 13  1  0  0  0  0
 13 22  1  0  0  0  0
 14 24  1  0  0  0  0
 14 13  1  0  0  0  0
 14 23  1  0  0  0  0
 15  5  1  0  0  0  0
 16 10  1  0  0  0  0
 17 10  1  0  0  0  0
 19 11  1  0  0  0  0
 21 13  1  0  0  0  0
 25 27  1  0  0  0  0
 25 32  1  0  0  0  0
 25 26  1  0  0  0  0
 28 34  1  0  0  0  0
 29 35  1  0  0  0  0
 29 28  2  0  0  0  0
 30 29  1  0  0  0  0
 31 30  2  0  0  0  0
 31 32  1  0  0  0  0
 32 33  2  0  0  0  0
 33 28  1  0  0  0  0
 37 36  1  0  0  0  0
 38 37  1  0  0  0  0
 38 30  1  0  0  0  0
 39 38  2  0  0  0  0
 40 39  1  0  0  0  0
 41 42  2  0  0  0  0
 41 39  1  0  0  0  0
 42 44  1  0  0  0  0
 43 42  1  0  0  0  0
 44 45  1  0  0  0  0
 44 37  2  0  0  0  0
M  END
>  <minimizedAffinity>
-8.34025288

>  <minimizedRMSD>
2.03599596

$$$$
