REMARK  Name = 
REMARK  2 active torsions:
REMARK  status: ('A' for Active; 'I' for Inactive)
REMARK    1  A    between atoms: C_2  and  C_12
REMARK    2  A    between atoms: C_6  and  C_25
REMARK                            x       y       z     vdW  Elec       q    Type
REMARK                         _______ _______ _______ _____ _____    ______ ____
ROOT
ATOM      1  C   UNL     1      37.087  30.676  46.766  0.00  0.00    +0.000 A 
ATOM      2  C   UNL     1      37.708  31.136  47.921  0.00  0.00    +0.000 A 
ATOM      3  C   UNL     1      38.701  32.083  47.846  0.00  0.00    +0.000 A 
ATOM      4  C   UNL     1      39.046  32.551  46.580  0.00  0.00    +0.000 A 
ATOM      5  N   UNL     1      39.976  33.470  46.230  0.00  0.00    +0.000 N 
ATOM      6  C   UNL     1      39.980  33.620  44.912  0.00  0.00    +0.000 A 
ATOM      7  N   UNL     1      39.058  32.804  44.404  0.00  0.00    +0.000 NA
ATOM      8  C   UNL     1      38.462  32.129  45.403  0.00  0.00    +0.000 A 
ATOM      9  C   UNL     1      37.451  31.160  45.505  0.00  0.00    +0.000 A 
ATOM     10  H   UNL     1      36.295  29.926  46.771  0.00  0.00    +0.000 HD
ATOM     11  H   UNL     1      39.183  32.441  48.737  0.00  0.00    +0.000 HD
ATOM     12  H   UNL     1      40.571  33.958  46.907  0.00  0.00    +0.000 HD
ATOM     13  H   UNL     1      36.979  30.815  44.596  0.00  0.00    +0.000 HD
ENDROOT
BRANCH   6  16
ATOM     14 CL   UNL     1      39.455  33.467  41.825  0.00  0.00    +0.000 Cl
ATOM     15  C   UNL     1      40.617  34.477  42.645  0.00  0.00    +0.000 A 
ATOM     16  C   UNL     1      40.753  34.453  44.010  0.00  0.00    +0.000 A 
ATOM     17  C   UNL     1      41.725  35.325  44.448  0.00  0.00    +0.000 A 
ATOM     18  H   UNL     1      41.937  35.407  45.526  0.00  0.00    +0.000 HD
ATOM     19  C   UNL     1      42.489  36.138  43.648  0.00  0.00    +0.000 A 
ATOM     20  C   UNL     1      42.302  36.112  42.287  0.00  0.00    +0.000 A 
ATOM     21 CL   UNL     1      43.282  37.151  41.296  0.00  0.00    +0.000 Cl
ATOM     22  C   UNL     1      41.344  35.261  41.784  0.00  0.00    +0.000 A 
ATOM     23  H   UNL     1      41.235  35.276  40.715  0.00  0.00    +0.000 HD
ENDBRANCH   6  16
BRANCH   2  26
ATOM     24  C   UNL     1      37.416  30.109  51.534  0.00  0.00    +0.000 A 
ATOM     25  C   UNL     1      37.939  30.694  50.377  0.00  0.00    +0.000 A 
ATOM     26  C   UNL     1      37.254  30.567  49.182  0.00  0.00    +0.000 A 
ATOM     27  N   UNL     1      36.087  29.871  49.181  0.00  0.00    +0.000 NA
ATOM     28  C   UNL     1      35.589  29.307  50.315  0.00  0.00    +0.000 A 
ATOM     29  N   UNL     1      36.257  29.431  51.481  0.00  0.00    +0.000 NA
ATOM     30  H   UNL     1      38.037  30.275  52.404  0.00  0.00    +0.000 HD
ATOM     31  H   UNL     1      38.862  31.248  50.361  0.00  0.00    +0.000 HD
ATOM     32  H   UNL     1      34.656  28.755  50.299  0.00  0.00    +0.000 HD
ENDBRANCH   2  26
TORSDOF 2
