
 OpenBabel03272507243D

 31 33  0  0  1  0  0  0  0  0999 V2000
   37.2480   29.6330   51.2130 C   0  0  0  0  0  0  0  0  0  0  0  0
   37.9560   30.2470   50.1610 C   0  0  0  0  0  0  0  0  0  0  0  0
   37.2570   30.4470   48.9620 C   0  0  0  0  0  0  0  0  0  0  0  0
   35.9830   30.0370   48.9300 N   0  0  0  0  0  0  0  0  0  0  0  0
   35.3110   29.4530   49.9370 C   0  0  0  0  0  0  0  0  0  0  0  0
   35.9640   29.2530   51.0910 N   0  0  0  0  0  0  0  0  0  0  0  0
   37.8600   31.0460   47.8430 N   0  0  0  0  0  0  0  0  0  0  0  0
   38.9110   32.0680   47.9210 C   0  0  0  0  0  0  0  0  0  0  0  0
   39.1700   32.4830   46.4970 C   0  0  0  0  0  0  0  0  0  0  0  0
   37.8610   32.1530   45.8500 C   0  0  0  0  0  0  0  0  0  0  0  0
   37.6050   30.7960   46.4850 C   0  0  2  0  0  0  0  0  0  0  0  0
   37.7990   29.4860   52.1270 H   0  0  0  0  0  0  0  0  0  0  0  0
   38.9770   30.5520   50.2500 H   0  0  0  0  0  0  0  0  0  0  0  0
   34.2870   29.1990   49.7020 H   0  0  0  0  0  0  0  0  0  0  0  0
   38.6350   32.8920   48.5780 H   0  0  0  0  0  0  0  0  0  0  0  0
   39.8230   31.5770   48.3040 H   0  0  0  0  0  0  0  0  0  0  0  0
   39.2880   33.6040   46.4560 H   0  0  0  0  0  0  0  0  0  0  0  0
   40.0370   32.0140   46.0250 H   0  0  0  0  0  0  0  0  0  0  0  0
   37.0900   32.8900   46.0820 H   0  0  0  0  0  0  0  0  0  0  0  0
   37.9690   31.9520   44.7580 H   0  0  0  0  0  0  0  0  0  0  0  0
   38.3200   30.0740   46.0140 H   0  0  0  0  0  0  0  0  0  0  0  0
   37.2790   29.3030   43.9300 Cl  0  0  0  0  0  0  0  0  0  0  0  0
   35.9360   29.6380   45.0350 C   0  0  0  0  0  0  0  0  0  0  0  0
   36.2390   30.3330   46.2140 C   0  0  0  0  0  0  0  0  0  0  0  0
   35.1190   30.5310   46.9850 C   0  0  0  0  0  0  0  0  0  0  0  0
   35.2490   31.0760   47.9200 H   0  0  0  0  0  0  0  0  0  0  0  0
   33.8540   30.1070   46.6570 C   0  0  0  0  0  0  0  0  0  0  0  0
   33.6370   29.4290   45.4800 C   0  0  0  0  0  0  0  0  0  0  0  0
   32.0220   28.9170   45.1150 Cl  0  0  0  0  0  0  0  0  0  0  0  0
   34.6940   29.1840   44.6440 C   0  0  0  0  0  0  0  0  0  0  0  0
   34.5680   28.6630   43.7240 H   0  0  0  0  0  0  0  0  0  0  0  0
  1 12  1  0  0  0  0
  2 13  1  0  0  0  0
  2  1  2  0  0  0  0
  3  2  1  0  0  0  0
  4  3  2  0  0  0  0
  4  5  1  0  0  0  0
  5  6  2  0  0  0  0
  6  1  1  0  0  0  0
  7  8  1  0  0  0  0
  7  3  1  0  0  0  0
  8 16  1  0  0  0  0
  8 15  1  0  0  0  0
  9  8  1  0  0  0  0
 10 19  1  0  0  0  0
 10 11  1  0  0  0  0
 10  9  1  0  0  0  0
 11 21  1  6  0  0  0
 11  7  1  0  0  0  0
 14  5  1  0  0  0  0
 17  9  1  0  0  0  0
 18  9  1  0  0  0  0
 20 10  1  0  0  0  0
 22 23  1  0  0  0  0
 23 24  1  0  0  0  0
 24 11  1  0  0  0  0
 24 25  2  0  0  0  0
 25 26  1  0  0  0  0
 27 25  1  0  0  0  0
 28 27  2  0  0  0  0
 29 28  1  0  0  0  0
 30 23  2  0  0  0  0
 30 28  1  0  0  0  0
 31 30  1  0  0  0  0
M  END
>  <minimizedAffinity>
-4.96799278

>  <minimizedRMSD>
1.35373497

$$$$
