
 OpenBabel03272509503D

 34 36  0  0  0  0  0  0  0  0999 V2000
   37.1510   29.9200   51.6180 C   0  0  0  0  0  0  0  0  0  0  0  0
   37.9690   30.5560   50.6830 C   0  0  0  0  0  0  0  0  0  0  0  0
   37.5450   30.7050   49.3850 C   0  0  0  0  0  0  0  0  0  0  0  0
   36.3120   30.1920   49.1380 N   0  0  0  0  0  0  0  0  0  0  0  0
   35.5230   29.5850   50.0120 C   0  0  0  0  0  0  0  0  0  0  0  0
   35.9570   29.4520   51.2730 N   0  0  0  0  0  0  0  0  0  0  0  0
   37.5340   29.8300   52.6280 H   0  0  0  0  0  0  0  0  0  0  0  0
   38.9220   30.9170   50.9660 H   0  0  0  0  0  0  0  0  0  0  0  0
   38.7920   33.5980   49.5270 Cl  0  0  0  0  0  0  0  0  0  0  0  0
   38.8290   32.5340   48.1520 C   0  0  0  0  0  0  0  0  0  0  0  0
   38.2360   31.3160   48.2650 C   0  0  0  0  0  0  0  0  0  0  0  0
   38.3200   30.5840   47.0970 C   0  0  0  0  0  0  0  0  0  0  0  0
   37.8980   29.5720   46.9910 H   0  0  0  0  0  0  0  0  0  0  0  0
   38.9340   31.0330   45.9500 C   0  0  0  0  0  3  0  0  0  0  0  0
   39.5120   32.2780   45.9150 C   0  0  0  0  0  0  0  0  0  0  0  0
   40.2870   32.8290   44.4470 Cl  0  0  0  0  0  0  0  0  0  0  0  0
   39.4470   33.0300   47.0540 C   0  0  0  0  0  0  0  0  0  0  0  0
   39.9030   34.0040   47.0170 H   0  0  0  0  0  0  0  0  0  0  0  0
   34.3230   29.1650   49.4730 O   0  0  0  0  0  0  0  0  0  0  0  0
   34.3340   28.5120   48.2200 C   0  0  0  0  0  0  0  0  0  0  0  0
   35.3560   28.2230   47.8990 H   0  0  0  0  0  0  0  0  0  0  0  0
   33.9820   29.2730   47.4680 H   0  0  0  0  0  0  0  0  0  0  0  0
   33.3550   27.3860   48.1860 C   0  0  0  0  0  0  0  0  0  0  0  0
   33.4020   26.7550   49.0940 H   0  0  0  0  0  0  0  0  0  0  0  0
   33.6200   26.7260   47.3290 H   0  0  0  0  0  0  0  0  0  0  0  0
   31.9560   27.8530   47.9380 C   0  0  0  0  0  0  0  0  0  0  0  0
   31.0120   27.5650   48.9170 C   0  0  0  0  0  0  0  0  0  0  0  0
   29.6970   27.9560   48.7790 C   0  0  0  0  0  0  0  0  0  0  0  0
   29.3150   28.6190   47.6960 N   0  0  0  0  0  0  0  0  0  0  0  0
   30.2500   28.8940   46.7460 C   0  0  0  0  0  0  0  0  0  0  0  0
   31.5350   28.5270   46.8530 N   0  0  0  0  0  0  0  0  0  0  0  0
   31.2890   27.0250   49.8170 H   0  0  0  0  0  0  0  0  0  0  0  0
   28.9590   27.7340   49.5390 H   0  0  0  0  0  0  0  0  0  0  0  0
   30.0680   29.4320   45.8080 H   0  0  0  0  0  0  0  0  0  0  0  0
  1  7  1  0  0  0  0
  2  8  1  0  0  0  0
  2  1  2  0  0  0  0
  3  2  1  0  0  0  0
  4  3  2  0  0  0  0
  4  5  1  0  0  0  0
  5  6  2  0  0  0  0
  6  1  1  0  0  0  0
 10 11  1  0  0  0  0
 10  9  1  0  0  0  0
 11  3  1  0  0  0  0
 12 11  2  0  0  0  0
 13 12  1  0  0  0  0
 14 12  1  0  0  0  0
 15 14  2  0  0  0  0
 15 17  1  0  0  0  0
 16 15  1  0  0  0  0
 17 10  2  0  0  0  0
 18 17  1  0  0  0  0
 19  5  1  0  0  0  0
 20 19  1  0  0  0  0
 21 20  1  0  0  0  0
 22 20  1  0  0  0  0
 23 20  1  0  0  0  0
 23 24  1  0  0  0  0
 25 23  1  0  0  0  0
 26 23  1  0  0  0  0
 26 27  1  0  0  0  0
 27 32  1  0  0  0  0
 28 27  2  0  0  0  0
 28 33  1  0  0  0  0
 29 28  1  0  0  0  0
 30 31  1  0  0  0  0
 30 29  2  0  0  0  0
 31 26  2  0  0  0  0
 34 30  1  0  0  0  0
M  END
>  <minimizedAffinity>
-6.58589697

>  <minimizedRMSD>
1.3302536

$$$$
