
 OpenBabel03272509503D

 34 36  0  0  0  0  0  0  0  0999 V2000
   37.1300   29.9020   51.6190 C   0  0  0  0  0  0  0  0  0  0  0  0
   37.9500   30.5340   50.6830 C   0  0  0  0  0  0  0  0  0  0  0  0
   37.5240   30.6870   49.3870 C   0  0  0  0  0  0  0  0  0  0  0  0
   36.2870   30.1830   49.1410 N   0  0  0  0  0  0  0  0  0  0  0  0
   35.4950   29.5820   50.0170 C   0  0  0  0  0  0  0  0  0  0  0  0
   35.9310   29.4430   51.2770 N   0  0  0  0  0  0  0  0  0  0  0  0
   37.5150   29.8080   52.6280 H   0  0  0  0  0  0  0  0  0  0  0  0
   38.9060   30.8870   50.9640 H   0  0  0  0  0  0  0  0  0  0  0  0
   38.7800   33.5760   49.5220 Cl  0  0  0  0  0  0  0  0  0  0  0  0
   38.8150   32.5100   48.1500 C   0  0  0  0  0  0  0  0  0  0  0  0
   38.2170   31.2950   48.2660 C   0  0  0  0  0  0  0  0  0  0  0  0
   38.2980   30.5600   47.0990 C   0  0  0  0  0  0  0  0  0  0  0  0
   37.8730   29.5490   46.9950 H   0  0  0  0  0  0  0  0  0  0  0  0
   38.9130   31.0060   45.9510 C   0  0  0  0  0  3  0  0  0  0  0  0
   39.4950   32.2480   45.9130 C   0  0  0  0  0  0  0  0  0  0  0  0
   40.2710   32.7950   44.4440 Cl  0  0  0  0  0  0  0  0  0  0  0  0
   39.4330   33.0020   47.0520 C   0  0  0  0  0  0  0  0  0  0  0  0
   39.8910   33.9750   47.0120 H   0  0  0  0  0  0  0  0  0  0  0  0
   34.2910   29.1710   49.4800 O   0  0  0  0  0  0  0  0  0  0  0  0
   34.2920   28.5390   48.2160 C   0  0  0  0  0  0  0  0  0  0  0  0
   35.3120   28.2710   47.8750 H   0  0  0  0  0  0  0  0  0  0  0  0
   33.9170   29.3080   47.4830 H   0  0  0  0  0  0  0  0  0  0  0  0
   33.3290   27.3990   48.1790 C   0  0  0  0  0  0  0  0  0  0  0  0
   33.4050   26.7490   49.0710 H   0  0  0  0  0  0  0  0  0  0  0  0
   33.5850   26.7630   47.3010 H   0  0  0  0  0  0  0  0  0  0  0  0
   31.9180   27.8510   47.9720 C   0  0  0  0  0  0  0  0  0  0  0  0
   31.0080   27.5630   48.9830 C   0  0  0  0  0  0  0  0  0  0  0  0
   29.6860   27.9400   48.8830 C   0  0  0  0  0  0  0  0  0  0  0  0
   29.2630   28.5900   47.8080 N   0  0  0  0  0  0  0  0  0  0  0  0
   30.1640   28.8650   46.8260 C   0  0  0  0  0  0  0  0  0  0  0  0
   31.4560   28.5120   46.8950 N   0  0  0  0  0  0  0  0  0  0  0  0
   31.3190   27.0330   49.8780 H   0  0  0  0  0  0  0  0  0  0  0  0
   28.9750   27.7170   49.6680 H   0  0  0  0  0  0  0  0  0  0  0  0
   29.9470   29.3940   45.8900 H   0  0  0  0  0  0  0  0  0  0  0  0
  1  7  1  0  0  0  0
  2  8  1  0  0  0  0
  2  1  2  0  0  0  0
  3  2  1  0  0  0  0
  4  3  2  0  0  0  0
  4  5  1  0  0  0  0
  5  6  2  0  0  0  0
  6  1  1  0  0  0  0
 10 11  1  0  0  0  0
 10  9  1  0  0  0  0
 11  3  1  0  0  0  0
 12 11  2  0  0  0  0
 13 12  1  0  0  0  0
 14 12  1  0  0  0  0
 15 14  2  0  0  0  0
 15 17  1  0  0  0  0
 16 15  1  0  0  0  0
 17 10  2  0  0  0  0
 18 17  1  0  0  0  0
 19  5  1  0  0  0  0
 20 19  1  0  0  0  0
 21 20  1  0  0  0  0
 22 20  1  0  0  0  0
 23 20  1  0  0  0  0
 23 24  1  0  0  0  0
 25 23  1  0  0  0  0
 26 23  1  0  0  0  0
 26 27  1  0  0  0  0
 27 32  1  0  0  0  0
 28 27  2  0  0  0  0
 28 33  1  0  0  0  0
 29 28  1  0  0  0  0
 30 31  1  0  0  0  0
 30 29  2  0  0  0  0
 31 26  2  0  0  0  0
 34 30  1  0  0  0  0
M  END
>  <minimizedAffinity>
-6.58699083

>  <minimizedRMSD>
1.11361945

$$$$
