
 OpenBabel03272505123D

 40 43  0  0  0  0  0  0  0  0999 V2000
   34.0650   29.9680   47.5630 S   0  0  0  0  0  0  0  0  0  0  0  0
   36.4080   30.9090   45.7250 Cl  0  0  0  0  0  0  0  0  0  0  0  0
   36.7010   30.7890   47.4390 C   0  0  0  0  0  0  0  0  0  0  0  0
   37.9610   31.1200   47.8940 C   0  0  0  0  0  0  0  0  0  0  0  0
   38.2060   31.0280   49.2540 C   0  0  0  0  0  0  0  0  0  0  0  0
   37.2150   30.6230   50.0940 C   0  0  0  0  0  0  0  0  0  0  0  0
   35.9580   30.3010   49.5780 C   0  0  0  0  0  0  0  0  0  0  0  0
   35.6490   30.3690   48.2430 C   0  0  0  0  0  0  0  0  0  0  0  0
   39.2020   31.2920   49.5910 H   0  0  0  0  0  0  0  0  0  0  0  0
   37.4270   30.5580   51.1520 H   0  0  0  0  0  0  0  0  0  0  0  0
   35.1920   29.9810   50.2760 H   0  0  0  0  0  0  0  0  0  0  0  0
   40.2230   33.3320   46.0730 C   0  0  0  0  0  0  0  0  0  0  0  0
   40.9310   32.4660   45.2110 C   0  0  0  0  0  0  0  0  0  0  0  0
   40.6130   31.1050   45.2720 C   0  0  0  0  0  0  0  0  0  0  0  0
   39.6490   30.6900   46.1470 N   0  0  0  0  0  0  0  0  0  0  0  0
   39.0070   31.5570   46.9420 C   0  0  0  0  0  0  0  0  0  0  0  0
   39.2950   32.8540   46.9010 N   0  0  0  0  0  0  0  0  0  0  0  0
   40.4480   34.3960   46.0500 H   0  0  0  0  0  0  0  0  0  0  0  0
   41.6890   32.8170   44.5290 H   0  0  0  0  0  0  0  0  0  0  0  0
   41.1170   30.3720   44.6380 H   0  0  0  0  0  0  0  0  0  0  0  0
   33.8990   29.2260   44.5040 Cl  0  0  0  0  0  0  0  0  0  0  0  0
   33.8870   27.9870   45.7520 C   0  0  0  0  0  0  0  0  0  0  0  0
   33.9570   28.2210   47.1220 C   0  0  0  0  0  0  0  0  0  0  0  0
   33.9420   27.1760   48.0000 C   0  0  0  0  0  0  0  0  0  0  0  0
   33.8550   25.8840   47.5410 C   0  0  0  0  0  0  0  0  0  0  0  0
   33.7830   25.5880   46.1850 C   0  0  0  0  0  0  0  0  0  0  0  0
   33.8020   26.6560   45.3300 C   0  0  0  0  0  0  0  0  0  0  0  0
   34.0000   27.4480   49.0550 H   0  0  0  0  0  0  0  0  0  0  0  0
   33.8440   25.0730   48.2480 H   0  0  0  0  0  0  0  0  0  0  0  0
   33.7160   24.5630   45.8450 H   0  0  0  0  0  0  0  0  0  0  0  0
   31.0000   26.5520   44.4660 Cl  0  0  0  0  0  0  0  0  0  0  0  0
   32.3960   26.3080   43.4710 C   0  0  0  0  0  0  0  0  0  0  0  0
   33.7260   26.3600   43.8930 C   0  0  0  0  0  0  0  0  0  0  0  0
   34.7750   26.1510   43.0220 C   0  0  0  0  0  0  0  0  0  0  0  0
   35.7540   26.2200   43.4780 H   0  0  0  0  0  0  0  0  0  0  0  0
   34.5110   25.8830   41.6950 C   0  0  0  0  0  3  0  0  0  0  0  0
   33.2020   25.8260   41.2500 C   0  0  0  0  0  0  0  0  0  0  0  0
   32.8610   25.4840   39.5590 Cl  0  0  0  0  0  0  0  0  0  0  0  0
   32.1400   26.0350   42.1240 C   0  0  0  0  0  0  0  0  0  0  0  0
   31.1400   25.9790   41.7230 H   0  0  0  0  0  0  0  0  0  0  0  0
  1  8  1  0  0  0  0
  2  3  1  0  0  0  0
  3  4  2  0  0  0  0
  3  8  1  0  0  0  0
  4  5  1  0  0  0  0
  5  9  1  0  0  0  0
  5  6  2  0  0  0  0
  6 10  1  0  0  0  0
  7  6  1  0  0  0  0
  7 11  1  0  0  0  0
  8  7  2  0  0  0  0
 12 17  1  0  0  0  0
 13 14  1  0  0  0  0
 13 12  2  0  0  0  0
 14 15  2  0  0  0  0
 15 16  1  0  0  0  0
 16  4  1  0  0  0  0
 17 16  2  0  0  0  0
 18 12  1  0  0  0  0
 19 13  1  0  0  0  0
 20 14  1  0  0  0  0
 21 22  1  0  0  0  0
 22 23  1  0  0  0  0
 23  1  1  0  0  0  0
 23 24  2  0  0  0  0
 24 28  1  0  0  0  0
 25 24  1  0  0  0  0
 25 29  1  0  0  0  0
 26 25  2  0  0  0  0
 27 22  2  0  0  0  0
 27 26  1  0  0  0  0
 30 26  1  0  0  0  0
 32 33  1  0  0  0  0
 32 31  1  0  0  0  0
 33 27  1  0  0  0  0
 34 35  1  0  0  0  0
 34 33  2  0  0  0  0
 36 34  1  0  0  0  0
 37 36  2  0  0  0  0
 37 39  1  0  0  0  0
 38 37  1  0  0  0  0
 39 32  2  0  0  0  0
 40 39  1  0  0  0  0
M  END
>  <minimizedAffinity>
-5.73367167

>  <minimizedRMSD>
0.381441921

$$$$
