
     RDKit          3D

 27 29  0  0  0  0  0  0  0  0999 V2000
   37.0064   31.1579   49.2447 C   0  0  0  0  0  0  0  0  0  0  0  0
   37.3206   32.4433   49.7169 C   0  0  0  0  0  0  0  0  0  0  0  0
   38.3066   33.1187   49.0198 C   0  0  0  0  0  0  0  0  0  0  0  0
   38.9053   32.5391   47.9531 N   0  0  0  0  0  0  0  0  0  0  0  0
   38.5792   31.2841   47.5136 C   0  0  0  0  0  0  0  0  0  0  0  0
   37.6116   30.5934   48.1808 N   0  0  0  0  0  0  0  0  0  0  0  0
   35.9224   30.3955   49.9655 C   0  0  1  0  0  0  0  0  0  0  0  0
   35.8145   28.9462   49.8495 C   0  0  1  0  0  0  0  0  0  0  0  0
   36.4684   29.5108   51.0762 C   0  0  0  0  0  0  0  0  0  0  0  0
   36.7894   32.8048   50.5633 H   0  0  0  0  0  0  0  0  0  0  0  0
   38.5500   34.0948   49.3738 H   0  0  0  0  0  0  0  0  0  0  0  0
   39.0967   30.8808   46.6547 H   0  0  0  0  0  0  0  0  0  0  0  0
   35.0416   31.0320   50.2449 H   0  0  0  0  0  0  0  0  0  0  0  0
   36.5639   28.4798   49.1440 H   0  0  0  0  0  0  0  0  0  0  0  0
   35.8623   29.4619   51.9904 H   0  0  0  0  0  0  0  0  0  0  0  0
   37.5445   29.4658   51.2190 H   0  0  0  0  0  0  0  0  0  0  0  0
   33.8037   30.2784   51.5480 Cl  0  0  0  0  0  0  0  0  0  0  0  0
   33.5466   28.7621   50.6905 C   0  0  0  0  0  0  0  0  0  0  0  0
   34.5499   28.2144   49.9177 C   0  0  0  0  0  0  0  0  0  0  0  0
   34.3271   27.0245   49.2538 C   0  0  0  0  0  0  0  0  0  0  0  0
   35.1184   26.5884   48.6415 H   0  0  0  0  0  0  0  0  0  0  0  0
   33.1026   26.3556   49.3451 C   0  0  0  0  0  0  0  0  0  0  0  0
   32.1372   26.9610   50.1387 C   0  0  0  0  0  0  0  0  0  0  0  0
   30.5653   26.1644   50.2956 Cl  0  0  0  0  0  0  0  0  0  0  0  0
   32.3264   28.1609   50.8232 C   0  0  0  0  0  0  0  0  0  0  0  0
   31.5132   28.5483   51.4136 H   0  0  0  0  0  0  0  0  0  0  0  0
   32.9033   25.4386   48.8452 H   0  0  0  0  0  0  0  0  0  0  0  0
  1  2  2  0
  1  7  1  0
  3  2  1  0
  4  3  2  0
  5  4  1  0
  5  6  2  0
  6  1  1  0
  7  9  1  0
  8  7  1  0
  8  9  1  0
  2 10  1  0
  3 11  1  0
  5 12  1  0
  7 13  1  1
  8 14  1  6
  9 15  1  0
  9 16  1  0
 17 18  1  0
 18 19  2  0
 19 20  1  0
 20 21  1  0
 20 22  2  0
 22 23  1  0
 23 24  1  0
 23 25  2  0
 25 26  1  0
 25 18  1  0
 22 27  1  0
  8 19  1  0
M  ISO  8  10  14  11  14  12  14  13  13  14  13  15  13  16  13  21  16
M  ISO  1  26  15
M  END
>  <DihAtoms>  (1) 
6,7,18,17

>  <DihDeg>  (1) 
90.00016698405527

$$$$
