
 OpenBabel03272501113D

 26 28  0  0  1  0  0  0  0  0999 V2000
   35.9790   30.3580   49.2880 C   0  0  1  0  0  0  0  0  0  0  0  0
   35.8280   29.0650   48.6320 C   0  0  1  0  0  0  0  0  0  0  0  0
   36.4890   29.1020   49.9780 C   0  0  0  0  0  0  0  0  0  0  0  0
   35.1170   30.8690   49.7920 H   0  0  0  0  0  0  0  0  0  0  0  0
   36.5680   28.8780   47.7990 H   0  0  0  0  0  0  0  0  0  0  0  0
   35.8750   28.7300   50.8080 H   0  0  0  0  0  0  0  0  0  0  0  0
   37.5620   28.9730   50.0890 H   0  0  0  0  0  0  0  0  0  0  0  0
   33.8230   29.7740   50.6760 Cl  0  0  0  0  0  0  0  0  0  0  0  0
   33.5390   28.6730   49.3320 C   0  0  0  0  0  0  0  0  0  0  0  0
   34.5410   28.4020   48.4240 C   0  0  0  0  0  0  0  0  0  0  0  0
   34.2970   27.5350   47.3770 C   0  0  0  0  0  0  0  0  0  0  0  0
   35.0870   27.3180   46.6570 H   0  0  0  0  0  0  0  0  0  0  0  0
   33.0520   26.9220   47.2130 C   0  0  0  0  0  3  0  0  0  0  0  0
   32.0880   27.2380   48.1620 C   0  0  0  0  0  0  0  0  0  0  0  0
   30.4900   26.4930   48.0100 Cl  0  0  0  0  0  0  0  0  0  0  0  0
   32.2980   28.1080   49.2300 C   0  0  0  0  0  0  0  0  0  0  0  0
   31.4850   28.2870   49.9130 H   0  0  0  0  0  0  0  0  0  0  0  0
   37.0910   31.3030   48.9060 C   0  0  0  0  0  0  0  0  0  0  0  0
   37.2770   32.4460   49.7010 C   0  0  0  0  0  0  0  0  0  0  0  0
   38.2940   33.2970   49.3090 C   0  0  0  0  0  0  0  0  0  0  0  0
   39.0410   33.0080   48.2180 N   0  0  0  0  0  0  0  0  0  0  0  0
   38.8400   31.8850   47.4600 C   0  0  0  0  0  0  0  0  0  0  0  0
   37.8450   31.0270   47.8220 N   0  0  0  0  0  0  0  0  0  0  0  0
   36.6330   32.5790   50.5360 H   0  0  0  0  0  0  0  0  0  0  0  0
   38.4390   34.1670   49.9090 H   0  0  0  0  0  0  0  0  0  0  0  0
   39.4740   31.7150   46.6010 H   0  0  0  0  0  0  0  0  0  0  0  0
  1  4  1  1  0  0  0
  1  3  1  0  0  0  0
  2  5  1  6  0  0  0
  2  1  1  0  0  0  0
  2  3  1  0  0  0  0
  3  7  1  0  0  0  0
  3  6  1  0  0  0  0
  9  8  1  0  0  0  0
 10  2  1  0  0  0  0
 10  9  2  0  0  0  0
 11 10  1  0  0  0  0
 12 11  1  0  0  0  0
 13 11  2  0  0  0  0
 13 14  1  0  0  0  0
 14 16  2  0  0  0  0
 15 14  1  0  0  0  0
 16  9  1  0  0  0  0
 16 17  1  0  0  0  0
 18  1  1  0  0  0  0
 18 19  1  0  0  0  0
 19 24  1  0  0  0  0
 20 19  2  0  0  0  0
 20 25  1  0  0  0  0
 21 20  1  0  0  0  0
 22 23  1  0  0  0  0
 22 21  2  0  0  0  0
 23 18  2  0  0  0  0
 26 22  1  0  0  0  0
M  END
>  <minimizedAffinity>
-5.36853886

>  <minimizedRMSD>
1.3364954

$$$$
