REMARK  Name = 
REMARK  2 active torsions:
REMARK  status: ('A' for Active; 'I' for Inactive)
REMARK    1  A    between atoms: C_1  and  C_7
REMARK    2  A    between atoms: C_8  and  C_19
REMARK                            x       y       z     vdW  Elec       q    Type
REMARK                         _______ _______ _______ _____ _____    ______ ____
ROOT
ATOM      1  C   UNL     1      35.922  30.395  49.965  0.00  0.00    +0.000 C 
ATOM      2  C   UNL     1      35.815  28.946  49.849  0.00  0.00    +0.000 C 
ATOM      3  C   UNL     1      36.468  29.511  51.076  0.00  0.00    +0.000 C 
ATOM      4  H   UNL     1      35.042  31.032  50.245  0.00  0.00    +0.000 HD
ATOM      5  H   UNL     1      36.564  28.480  49.144  0.00  0.00    +0.000 HD
ATOM      6  H   UNL     1      35.862  29.462  51.990  0.00  0.00    +0.000 HD
ATOM      7  H   UNL     1      37.544  29.466  51.219  0.00  0.00    +0.000 HD
ENDROOT
BRANCH   2  10
ATOM      8 CL   UNL     1      33.804  30.278  51.548  0.00  0.00    +0.000 Cl
ATOM      9  C   UNL     1      33.547  28.762  50.691  0.00  0.00    +0.000 A 
ATOM     10  C   UNL     1      34.550  28.214  49.918  0.00  0.00    +0.000 A 
ATOM     11  C   UNL     1      34.327  27.024  49.254  0.00  0.00    +0.000 A 
ATOM     12  H   UNL     1      35.118  26.588  48.642  0.00  0.00    +0.000 HD
ATOM     13  C   UNL     1      33.103  26.356  49.345  0.00  0.00    +0.000 A 
ATOM     14  C   UNL     1      32.137  26.961  50.139  0.00  0.00    +0.000 A 
ATOM     15 CL   UNL     1      30.565  26.164  50.296  0.00  0.00    +0.000 Cl
ATOM     16  C   UNL     1      32.326  28.161  50.823  0.00  0.00    +0.000 A 
ATOM     17  H   UNL     1      31.513  28.548  51.414  0.00  0.00    +0.000 HD
ENDBRANCH   2  10
BRANCH   1  18
ATOM     18  C   UNL     1      37.006  31.158  49.245  0.00  0.00    +0.000 A 
ATOM     19  C   UNL     1      37.321  32.443  49.717  0.00  0.00    +0.000 A 
ATOM     20  C   UNL     1      38.307  33.119  49.020  0.00  0.00    +0.000 A 
ATOM     21  N   UNL     1      38.905  32.539  47.953  0.00  0.00    +0.000 NA
ATOM     22  C   UNL     1      38.579  31.284  47.514  0.00  0.00    +0.000 A 
ATOM     23  N   UNL     1      37.612  30.593  48.181  0.00  0.00    +0.000 NA
ATOM     24  H   UNL     1      36.789  32.805  50.563  0.00  0.00    +0.000 HD
ATOM     25  H   UNL     1      38.550  34.095  49.374  0.00  0.00    +0.000 HD
ATOM     26  H   UNL     1      39.097  30.881  46.655  0.00  0.00    +0.000 HD
ENDBRANCH   1  18
TORSDOF 2
