
 OpenBabel03272506473D

 43 46  0  0  1  0  0  0  0  0999 V2000
   32.1810   27.1230   48.4720 C   0  0  2  0  0  0  0  0  0  0  0  0
   33.5890   27.3020   47.9830 C   0  0  1  0  0  0  0  0  0  0  0  0
   33.7010   26.6660   46.7830 O   0  0  0  0  0  0  0  0  0  0  0  0
   32.4320   26.3380   46.3160 C   0  0  0  0  0  0  0  0  0  0  0  0
   31.4390   27.1590   47.0990 C   0  0  1  0  0  0  0  0  0  0  0  0
   31.9480   26.1630   48.9180 H   0  0  0  0  0  0  0  0  0  0  0  0
   34.3400   26.9330   48.7060 H   0  0  0  0  0  0  0  0  0  0  0  0
   32.3380   25.2660   46.3880 H   0  0  0  0  0  0  0  0  0  0  0  0
   32.3000   26.6460   45.2470 H   0  0  0  0  0  0  0  0  0  0  0  0
   31.4110   28.2020   46.7810 H   0  0  0  0  0  0  0  0  0  0  0  0
   31.7760   28.2350   49.2400 O   0  0  0  0  0  0  0  0  0  0  0  0
   32.5390   28.8280   49.4630 H   0  0  0  0  0  0  0  0  0  0  0  0
   33.8510   29.1000   47.7000 S   0  0  0  0  0  0  0  0  0  0  0  0
   36.8850   29.1630   50.2480 C   0  0  0  0  0  0  0  0  0  0  0  0
   37.5730   30.3410   49.9700 C   0  0  0  0  0  0  0  0  0  0  0  0
   37.0740   31.1580   48.9430 C   0  0  0  0  0  0  0  0  0  0  0  0
   35.9530   30.7590   48.2770 N   0  0  0  0  0  0  0  0  0  0  0  0
   35.3220   29.6050   48.5870 C   0  0  0  0  0  0  0  0  0  0  0  0
   35.7760   28.7920   49.5750 N   0  0  0  0  0  0  0  0  0  0  0  0
   37.1830   28.4660   51.0190 H   0  0  0  0  0  0  0  0  0  0  0  0
   38.4610   30.5750   50.5580 H   0  0  0  0  0  0  0  0  0  0  0  0
   37.5920   32.0630   48.7180 H   0  0  0  0  0  0  0  0  0  0  0  0
   30.2490   26.4780   47.1640 O   0  0  0  0  0  0  0  0  0  0  0  0
   29.2800   27.7160   44.6750 Cl  0  0  0  0  0  0  0  0  0  0  0  0
   28.4900   27.6360   46.2330 C   0  0  0  0  0  0  0  0  0  0  0  0
   29.0420   27.0150   47.3290 C   0  0  0  0  0  0  0  0  0  0  0  0
   28.3030   26.9930   48.5130 C   0  0  0  0  0  0  0  0  0  0  0  0
   27.0570   27.5810   48.5740 C   0  0  0  0  0  0  0  0  0  0  0  0
   26.4920   28.2090   47.4770 C   0  0  0  0  0  0  0  0  0  0  0  0
   27.2200   28.2330   46.3020 C   0  0  0  0  0  0  0  0  0  0  0  0
   28.6530   26.5270   49.4170 H   0  0  0  0  0  0  0  0  0  0  0  0
   26.4310   27.6030   49.4530 H   0  0  0  0  0  0  0  0  0  0  0  0
   25.5140   28.6840   47.4800 H   0  0  0  0  0  0  0  0  0  0  0  0
   27.8810   31.1550   45.7220 Cl  0  0  0  0  0  0  0  0  0  0  0  0
   26.8260   30.1790   44.7270 C   0  0  0  0  0  0  0  0  0  0  0  0
   26.6410   28.8900   45.1350 C   0  0  0  0  0  0  0  0  0  0  0  0
   25.8170   28.0180   44.4160 C   0  0  0  0  0  0  0  0  0  0  0  0
   25.6030   26.9780   44.6530 H   0  0  0  0  0  0  0  0  0  0  0  0
   25.1740   28.4780   43.2620 C   0  0  0  0  0  3  0  0  0  0  0  0
   25.3740   29.7850   42.8650 C   0  0  0  0  0  0  0  0  0  0  0  0
   24.5700   30.3750   41.4110 Cl  0  0  0  0  0  0  0  0  0  0  0  0
   26.1880   30.6410   43.5770 C   0  0  0  0  0  0  0  0  0  0  0  0
   26.3660   31.6800   43.2900 H   0  0  0  0  0  0  0  0  0  0  0  0
  1  6  1  1  0  0  0
  1 11  1  0  0  0  0
  2  1  1  0  0  0  0
  2  7  1  1  0  0  0
  3  2  1  0  0  0  0
  4  8  1  0  0  0  0
  4  3  1  0  0  0  0
  4  5  1  0  0  0  0
  5 10  1  6  0  0  0
  5 23  1  0  0  0  0
  5  1  1  0  0  0  0
  9  4  1  0  0  0  0
 11 12  1  0  0  0  0
 13  2  1  0  0  0  0
 13 18  1  0  0  0  0
 14 20  1  0  0  0  0
 15 14  1  0  0  0  0
 15 21  1  0  0  0  0
 16 15  2  0  0  0  0
 17 18  2  0  0  0  0
 17 16  1  0  0  0  0
 18 19  1  0  0  0  0
 19 14  2  0  0  0  0
 22 16  1  0  0  0  0
 23 26  1  0  0  0  0
 24 25  1  0  0  0  0
 25 30  2  0  0  0  0
 25 26  1  0  0  0  0
 26 27  2  0  0  0  0
 27 28  1  0  0  0  0
 27 31  1  0  0  0  0
 28 32  1  0  0  0  0
 29 33  1  0  0  0  0
 29 28  2  0  0  0  0
 30 29  1  0  0  0  0
 35 36  1  0  0  0  0
 35 34  1  0  0  0  0
 36 30  1  0  0  0  0
 37 38  1  0  0  0  0
 37 36  2  0  0  0  0
 39 37  1  0  0  0  0
 40 39  2  0  0  0  0
 40 42  1  0  0  0  0
 41 40  1  0  0  0  0
 42 35  2  0  0  0  0
 43 42  1  0  0  0  0
M  END
>  <minimizedAffinity>
-5.98764992

>  <minimizedRMSD>
1.49491644

$$$$
