
     RDKit          3D

 35 37  0  0  0  0  0  0  0  0999 V2000
   33.7260   28.5932   48.7081 C   0  0  0  0  0  0  0  0  0  0  0  0
   32.8218   27.4667   48.3295 C   0  0  0  0  0  0  0  0  0  0  0  0
   31.3798   27.8652   48.3379 C   0  0  0  0  0  0  0  0  0  0  0  0
   30.6935   27.7272   49.5389 C   0  0  0  0  0  0  0  0  0  0  0  0
   29.3633   28.0685   49.6447 C   0  0  0  0  0  0  0  0  0  0  0  0
   28.7146   28.5386   48.5882 N   0  0  0  0  0  0  0  0  0  0  0  0
   29.3987   28.6685   47.4191 C   0  0  0  0  0  0  0  0  0  0  0  0
   30.6930   28.3447   47.2860 N   0  0  0  0  0  0  0  0  0  0  0  0
   34.6023   28.2203   49.7516 O   0  0  0  0  0  0  0  0  0  0  0  0
   37.2446   30.1834   51.2780 C   0  0  0  0  0  0  0  0  0  0  0  0
   37.8955   30.6102   50.1191 C   0  0  0  0  0  0  0  0  0  0  0  0
   37.4270   30.2275   48.8857 C   0  0  0  0  0  0  0  0  0  0  0  0
   36.3249   29.4338   48.9284 N   0  0  0  0  0  0  0  0  0  0  0  0
   35.6955   29.0196   50.0182 C   0  0  0  0  0  0  0  0  0  0  0  0
   36.1696   29.4057   51.2096 N   0  0  0  0  0  0  0  0  0  0  0  0
   34.2581   29.0454   47.8475 H   0  0  0  0  0  0  0  0  0  0  0  0
   33.0721   29.4103   49.1258 H   0  0  0  0  0  0  0  0  0  0  0  0
   32.9831   26.5660   48.9524 H   0  0  0  0  0  0  0  0  0  0  0  0
   33.0591   27.1744   47.2819 H   0  0  0  0  0  0  0  0  0  0  0  0
   31.1921   27.3456   50.4249 H   0  0  0  0  0  0  0  0  0  0  0  0
   28.8248   27.9626   50.5783 H   0  0  0  0  0  0  0  0  0  0  0  0
   28.9846   29.0426   46.4748 H   0  0  0  0  0  0  0  0  0  0  0  0
   37.6556   30.5147   52.2235 H   0  0  0  0  0  0  0  0  0  0  0  0
   38.7562   31.2205   50.1842 H   0  0  0  0  0  0  0  0  0  0  0  0
   37.3198   33.1308   47.6602 Cl  0  0  0  0  0  0  0  0  0  0  0  0
   37.9966   31.7228   46.8975 C   0  0  0  0  0  0  0  0  0  0  0  0
   37.9554   30.5438   47.5720 C   0  0  0  0  0  0  0  0  0  0  0  0
   38.5050   29.5066   46.8443 C   0  0  0  0  0  0  0  0  0  0  0  0
   38.5638   28.4735   47.2211 H   0  0  0  0  0  0  0  0  0  0  0  0
   39.0345   29.6482   45.5823 C   0  0  0  0  0  0  0  0  0  0  0  0
   39.0402   30.8748   44.9660 C   0  0  0  0  0  0  0  0  0  0  0  0
   39.7184   31.0335   43.3617 Cl  0  0  0  0  0  0  0  0  0  0  0  0
   38.5031   31.9244   45.6582 C   0  0  0  0  0  0  0  0  0  0  0  0
   38.5117   32.8822   45.1673 H   0  0  0  0  0  0  0  0  0  0  0  0
   39.4535   28.8184   45.0480 H   0  0  0  0  0  0  0  0  0  0  0  0
  1  9  1  0
  2  1  1  0
  3  2  1  0
  3  4  2  0
  4  5  1  0
  6  5  2  0
  7  6  1  0
  8  7  2  0
  8  3  1  0
  9 14  1  0
 11 10  2  0
 12 11  1  0
 13 12  2  0
 13 14  1  0
 14 15  2  0
 15 10  1  0
  1 16  1  0
  1 17  1  0
  2 18  1  0
  2 19  1  0
  4 20  1  0
  5 21  1  0
  7 22  1  0
 10 23  1  0
 11 24  1  0
 25 26  1  0
 26 27  2  0
 27 28  1  0
 28 29  1  0
 28 30  2  0
 30 31  1  0
 31 32  1  0
 31 33  2  0
 33 34  1  0
 33 26  1  0
 30 35  1  0
 12 27  1  0
M  ISO  8  16   8  17   8  18   8  19   8  20  14  21  14  22  14  23  14
M  ISO  3  24  14  29  16  34  15
M  END
>  <DihAtoms>  (1) 
10,11,26,25

>  <DihDeg>  (1) 
-8.76254854913397

$$$$
