REMARK  Name = 
REMARK  2 active torsions:
REMARK  status: ('A' for Active; 'I' for Inactive)
REMARK    1  A    between atoms: C_5  and  C_7
REMARK    2  A    between atoms: C_12  and  C_22
REMARK                            x       y       z     vdW  Elec       q    Type
REMARK                         _______ _______ _______ _____ _____    ______ ____
ROOT
ATOM      1  C   UNL     1      36.094  30.134  48.607  0.00  0.00    +0.000 A 
ATOM      2  C   UNL     1      35.282  29.960  47.500  0.00  0.00    +0.000 A 
ATOM      3  C   UNL     1      34.301  28.978  47.516  0.00  0.00    +0.000 A 
ATOM      4  C   UNL     1      34.151  28.193  48.630  0.00  0.00    +0.000 A 
ATOM      5  C   UNL     1      34.955  28.357  49.736  0.00  0.00    +0.000 A 
ATOM      6  C   UNL     1      35.940  29.337  49.731  0.00  0.00    +0.000 A 
ATOM      7  H   UNL     1      35.409  30.585  46.629  0.00  0.00    +0.000 HD
ATOM      8  H   UNL     1      33.696  28.892  46.617  0.00  0.00    +0.000 HD
ATOM      9  H   UNL     1      33.357  27.444  48.560  0.00  0.00    +0.000 HD
ATOM     10  H   UNL     1      34.809  27.720  50.598  0.00  0.00    +0.000 HD
ENDROOT
BRANCH   6  13
ATOM     11 CL   UNL     1      34.700  29.231  52.522  0.00  0.00    +0.000 Cl
ATOM     12  C   UNL     1      36.412  29.514  52.217  0.00  0.00    +0.000 A 
ATOM     13  C   UNL     1      36.801  29.529  50.892  0.00  0.00    +0.000 A 
ATOM     14  C   UNL     1      38.148  29.751  50.655  0.00  0.00    +0.000 A 
ATOM     15  H   UNL     1      38.512  29.773  49.643  0.00  0.00    +0.000 HD
ATOM     16  C   UNL     1      39.090  29.950  51.643  0.00  0.00    +0.000 A 
ATOM     17  C   UNL     1      38.679  29.930  52.946  0.00  0.00    +0.000 A 
ATOM     18 CL   UNL     1      39.836  30.179  54.248  0.00  0.00    +0.000 Cl
ATOM     19  C   UNL     1      37.352  29.714  53.220  0.00  0.00    +0.000 A 
ATOM     20  H   UNL     1      37.000  29.693  54.242  0.00  0.00    +0.000 HD
ENDBRANCH   6  13
BRANCH   1  25
ATOM     21  C   UNL     1      38.016  33.103  49.470  0.00  0.00    +0.000 A 
ATOM     22  C   UNL     1      38.975  33.215  48.470  0.00  0.00    +0.000 A 
ATOM     23  C   UNL     1      38.944  32.223  47.470  0.00  0.00    +0.000 A 
ATOM     24  N   UNL     1      38.012  31.245  47.534  0.00  0.00    +0.000 NA
ATOM     25  C   UNL     1      37.100  31.177  48.526  0.00  0.00    +0.000 A 
ATOM     26  N   UNL     1      37.114  32.114  49.487  0.00  0.00    +0.000 NA
ATOM     27  H   UNL     1      38.042  33.874  50.246  0.00  0.00    +0.000 HD
ATOM     28  H   UNL     1      39.729  33.969  48.381  0.00  0.00    +0.000 HD
ATOM     29  H   UNL     1      39.660  32.242  46.656  0.00  0.00    +0.000 HD
ENDBRANCH   1  25
TORSDOF 2
