REMARK  Name = 
REMARK  2 active torsions:
REMARK  status: ('A' for Active; 'I' for Inactive)
REMARK    1  A    between atoms: C_5  and  C_7
REMARK    2  A    between atoms: C_12  and  C_22
REMARK                            x       y       z     vdW  Elec       q    Type
REMARK                         _______ _______ _______ _____ _____    ______ ____
ROOT
ATOM      1  C   UNL     1      36.094  30.134  48.607  0.00  0.00    +0.000 A 
ATOM      2  C   UNL     1      35.282  29.960  47.500  0.00  0.00    +0.000 A 
ATOM      3  C   UNL     1      34.301  28.978  47.516  0.00  0.00    +0.000 A 
ATOM      4  C   UNL     1      34.151  28.193  48.630  0.00  0.00    +0.000 A 
ATOM      5  C   UNL     1      34.955  28.357  49.736  0.00  0.00    +0.000 A 
ATOM      6  C   UNL     1      35.940  29.337  49.731  0.00  0.00    +0.000 A 
ATOM      7  H   UNL     1      35.409  30.585  46.629  0.00  0.00    +0.000 HD
ATOM      8  H   UNL     1      33.696  28.892  46.617  0.00  0.00    +0.000 HD
ATOM      9  H   UNL     1      33.357  27.444  48.560  0.00  0.00    +0.000 HD
ATOM     10  H   UNL     1      34.809  27.720  50.598  0.00  0.00    +0.000 HD
ENDROOT
BRANCH   6  13
ATOM     11 CL   UNL     1      38.734  30.503  49.319  0.00  0.00    +0.000 Cl
ATOM     12  C   UNL     1      38.084  30.039  50.889  0.00  0.00    +0.000 A 
ATOM     13  C   UNL     1      36.801  29.529  50.892  0.00  0.00    +0.000 A 
ATOM     14  C   UNL     1      36.292  29.166  52.129  0.00  0.00    +0.000 A 
ATOM     15  H   UNL     1      35.297  28.762  52.195  0.00  0.00    +0.000 HD
ATOM     16  C   UNL     1      36.979  29.284  53.319  0.00  0.00    +0.000 A 
ATOM     17  C   UNL     1      38.248  29.792  53.289  0.00  0.00    +0.000 A 
ATOM     18 CL   UNL     1      39.172  29.966  54.776  0.00  0.00    +0.000 Cl
ATOM     19  C   UNL     1      38.786  30.163  52.082  0.00  0.00    +0.000 A 
ATOM     20  H   UNL     1      39.787  30.567  52.030  0.00  0.00    +0.000 HD
ENDBRANCH   6  13
BRANCH   1  25
ATOM     21  C   UNL     1      38.016  33.103  49.470  0.00  0.00    +0.000 A 
ATOM     22  C   UNL     1      38.975  33.215  48.470  0.00  0.00    +0.000 A 
ATOM     23  C   UNL     1      38.944  32.223  47.470  0.00  0.00    +0.000 A 
ATOM     24  N   UNL     1      38.012  31.245  47.534  0.00  0.00    +0.000 NA
ATOM     25  C   UNL     1      37.100  31.177  48.526  0.00  0.00    +0.000 A 
ATOM     26  N   UNL     1      37.114  32.114  49.487  0.00  0.00    +0.000 NA
ATOM     27  H   UNL     1      38.042  33.874  50.246  0.00  0.00    +0.000 HD
ATOM     28  H   UNL     1      39.729  33.969  48.381  0.00  0.00    +0.000 HD
ATOM     29  H   UNL     1      39.660  32.242  46.656  0.00  0.00    +0.000 HD
ENDBRANCH   1  25
TORSDOF 2
