
 OpenBabel03272508253D

 26 28  0  0  1  0  0  0  0  0999 V2000
   35.8950   30.6750   49.0550 C   0  0  1  0  0  0  0  0  0  0  0  0
   35.6150   29.4480   48.3210 C   0  0  1  0  0  0  0  0  0  0  0  0
   36.2720   29.3340   49.6660 C   0  0  0  0  0  0  0  0  0  0  0  0
   35.0870   31.2390   49.5930 H   0  0  0  0  0  0  0  0  0  0  0  0
   36.3350   29.2370   47.4770 H   0  0  0  0  0  0  0  0  0  0  0  0
   35.6200   28.9760   50.4730 H   0  0  0  0  0  0  0  0  0  0  0  0
   37.3250   29.0890   49.7650 H   0  0  0  0  0  0  0  0  0  0  0  0
   34.6390   30.0280   45.5990 Cl  0  0  0  0  0  0  0  0  0  0  0  0
   33.7270   29.1580   46.8270 C   0  0  0  0  0  0  0  0  0  0  0  0
   34.2680   28.9330   48.0760 C   0  0  0  0  0  0  0  0  0  0  0  0
   33.5350   28.2480   49.0250 C   0  0  0  0  0  0  0  0  0  0  0  0
   33.9590   28.0690   50.0140 H   0  0  0  0  0  0  0  0  0  0  0  0
   32.2480   27.7730   48.7510 C   0  0  0  0  0  0  0  0  0  0  0  0
   31.7640   28.0330   47.4760 C   0  0  0  0  0  0  0  0  0  0  0  0
   30.1420   27.4570   47.0650 Cl  0  0  0  0  0  0  0  0  0  0  0  0
   32.4750   28.7200   46.4930 C   0  0  0  0  0  0  0  0  0  0  0  0
   32.0090   28.8700   45.5330 H   0  0  0  0  0  0  0  0  0  0  0  0
   37.0990   31.5230   48.7290 C   0  0  0  0  0  0  0  0  0  0  0  0
   37.4420   32.5420   49.6330 C   0  0  0  0  0  0  0  0  0  0  0  0
   38.5410   33.3100   49.2910 C   0  0  0  0  0  0  0  0  0  0  0  0
   39.2150   33.0610   48.1440 N   0  0  0  0  0  0  0  0  0  0  0  0
   38.8590   32.0600   47.2800 C   0  0  0  0  0  0  0  0  0  0  0  0
   37.7810   31.2860   47.5900 N   0  0  0  0  0  0  0  0  0  0  0  0
   36.8440   32.6540   50.5050 H   0  0  0  0  0  0  0  0  0  0  0  0
   38.8060   34.0850   49.9740 H   0  0  0  0  0  0  0  0  0  0  0  0
   39.4420   31.9160   46.3810 H   0  0  0  0  0  0  0  0  0  0  0  0
  1  4  1  1  0  0  0
  1  3  1  0  0  0  0
  2  5  1  6  0  0  0
  2  1  1  0  0  0  0
  2  3  1  0  0  0  0
  3  7  1  0  0  0  0
  3  6  1  0  0  0  0
  8  9  1  0  0  0  0
  9 10  1  0  0  0  0
 10  2  1  0  0  0  0
 10 11  2  0  0  0  0
 11 12  1  0  0  0  0
 13 11  1  0  0  0  0
 14 13  2  0  0  0  0
 15 14  1  0  0  0  0
 16  9  2  0  0  0  0
 16 14  1  0  0  0  0
 17 16  1  0  0  0  0
 18  1  1  0  0  0  0
 18 19  1  0  0  0  0
 19 24  1  0  0  0  0
 20 19  2  0  0  0  0
 20 25  1  0  0  0  0
 21 20  1  0  0  0  0
 22 23  1  0  0  0  0
 22 21  2  0  0  0  0
 23 18  2  0  0  0  0
 26 22  1  0  0  0  0
M  END
>  <minimizedAffinity>
-5.42596483

>  <minimizedRMSD>
2.09862804

$$$$
