
 OpenBabel03272506123D

 45 48  0  0  1  0  0  0  0  0999 V2000
   37.3120   30.5360   48.6530 C   0  0  1  0  0  0  0  0  0  0  0  0
   37.7860   29.0700   48.9990 C   0  0  0  0  0  0  0  0  0  0  0  0
   37.2510   28.6140   50.3330 C   0  0  0  0  0  0  0  0  0  0  0  0
   37.3310   29.7390   51.3610 C   0  0  0  0  0  0  0  0  0  0  0  0
   38.3740   30.6730   50.8830 C   0  0  0  0  0  0  0  0  0  0  0  0
   37.8670   31.4510   49.7090 C   0  0  2  0  0  0  0  0  0  0  0  0
   36.3390   30.3820   48.9690 H   0  0  0  0  0  0  0  0  0  0  0  0
   38.8240   28.9150   48.7890 H   0  0  0  0  0  0  0  0  0  0  0  0
   37.2380   28.4790   48.2340 H   0  0  0  0  0  0  0  0  0  0  0  0
   36.2330   28.1850   50.2610 H   0  0  0  0  0  0  0  0  0  0  0  0
   37.9050   27.7690   50.6490 H   0  0  0  0  0  0  0  0  0  0  0  0
   37.5910   29.2960   52.3230 H   0  0  0  0  0  0  0  0  0  0  0  0
   36.2720   30.1390   51.3380 H   0  0  0  0  0  0  0  0  0  0  0  0
   38.9840   31.2120   51.5860 H   0  0  0  0  0  0  0  0  0  0  0  0
   39.1840   30.0240   50.4100 H   0  0  0  0  0  0  0  0  0  0  0  0
   38.7610   32.0200   49.3790 H   0  0  0  0  0  0  0  0  0  0  0  0
   36.9520   30.6230   46.2110 C   0  0  0  0  0  0  0  0  0  0  0  0
   37.4690   30.9450   44.9720 C   0  0  0  0  0  0  0  0  0  0  0  0
   38.7380   31.3990   44.7370 C   0  0  0  0  0  0  0  0  0  0  0  0
   39.6030   31.5570   45.8230 C   0  0  0  0  0  0  0  0  0  0  0  0
   39.0890   31.2320   47.0730 C   0  0  0  0  0  0  0  0  0  0  0  0
   37.7970   30.7730   47.3110 C   0  0  0  0  0  0  0  0  0  0  0  0
   36.8520   30.8530   44.0580 H   0  0  0  0  0  0  0  0  0  0  0  0
   39.0600   31.6310   43.7310 H   0  0  0  0  0  0  0  0  0  0  0  0
   40.5750   31.9110   45.6000 H   0  0  0  0  0  0  0  0  0  0  0  0
   39.8770   31.3890   47.7970 H   0  0  0  0  0  0  0  0  0  0  0  0
   35.1430   29.5060   45.0210 C   0  0  0  0  0  0  0  0  0  0  0  0
   35.6160   30.1400   46.2280 C   0  0  0  0  0  0  0  0  0  0  0  0
   34.7410   30.2000   47.2960 C   0  0  0  0  0  0  0  0  0  0  0  0
   33.5000   29.6710   47.1880 N   0  0  0  0  0  0  0  0  0  0  0  0
   33.0680   29.0700   46.0340 C   0  0  0  0  0  0  0  0  0  0  0  0
   33.8980   28.9940   44.9570 N   0  0  0  0  0  0  0  0  0  0  0  0
   35.7000   29.3800   44.1110 H   0  0  0  0  0  0  0  0  0  0  0  0
   34.8200   30.6650   48.2290 H   0  0  0  0  0  0  0  0  0  0  0  0
   32.0760   28.6400   45.9270 H   0  0  0  0  0  0  0  0  0  0  0  0
   34.7580   31.0250   50.1900 Cl  0  0  0  0  0  0  0  0  0  0  0  0
   35.5440   32.5830   50.1670 C   0  0  0  0  0  0  0  0  0  0  0  0
   36.8990   32.5400   49.9810 C   0  0  0  0  0  0  0  0  0  0  0  0
   37.5430   33.7890   50.0090 C   0  0  0  0  0  0  0  0  0  0  0  0
   38.5850   34.0940   49.8990 H   0  0  0  0  0  0  0  0  0  0  0  0
   36.8110   34.9400   50.2100 C   0  0  0  0  0  3  0  0  0  0  0  0
   35.4310   34.9250   50.3920 C   0  0  0  0  0  0  0  0  0  0  0  0
   34.4440   36.3470   50.6500 Cl  0  0  0  0  0  0  0  0  0  0  0  0
   34.7980   33.7130   50.3670 C   0  0  0  0  0  0  0  0  0  0  0  0
   33.7330   33.5920   50.4980 H   0  0  0  0  0  0  0  0  0  0  0  0
  1  7  1  1  0  0  0
  1  2  1  0  0  0  0
  1  6  1  0  0  0  0
  2  3  1  0  0  0  0
  3 11  1  0  0  0  0
  3  4  1  0  0  0  0
  4 12  1  0  0  0  0
  5  4  1  0  0  0  0
  5 14  1  0  0  0  0
  6 16  1  6  0  0  0
  6 38  1  0  0  0  0
  6  5  1  0  0  0  0
  8  2  1  0  0  0  0
  9  2  1  0  0  0  0
 10  3  1  0  0  0  0
 13  4  1  0  0  0  0
 15  5  1  0  0  0  0
 17 28  1  0  0  0  0
 17 22  1  0  0  0  0
 18 17  2  0  0  0  0
 19 18  1  0  0  0  0
 19 20  2  0  0  0  0
 20 21  1  0  0  0  0
 21 22  2  0  0  0  0
 21 26  1  0  0  0  0
 22  1  1  0  0  0  0
 23 18  1  0  0  0  0
 24 19  1  0  0  0  0
 25 20  1  0  0  0  0
 27 28  1  0  0  0  0
 28 29  2  0  0  0  0
 29 34  1  0  0  0  0
 30 29  1  0  0  0  0
 31 30  2  0  0  0  0
 32 27  2  0  0  0  0
 32 31  1  0  0  0  0
 33 27  1  0  0  0  0
 35 31  1  0  0  0  0
 37 36  1  0  0  0  0
 37 44  1  0  0  0  0
 38 39  1  0  0  0  0
 38 37  2  0  0  0  0
 39 41  2  0  0  0  0
 40 39  1  0  0  0  0
 41 42  1  0  0  0  0
 42 43  1  0  0  0  0
 44 42  2  0  0  0  0
 44 45  1  0  0  0  0
M  END
>  <minimizedAffinity>
4.11418676

>  <minimizedRMSD>
1.52706826

$$$$
