
 OpenBabel03272509503D

 34 36  0  0  0  0  0  0  0  0999 V2000
   37.2630   30.2120   51.2890 C   0  0  0  0  0  0  0  0  0  0  0  0
   37.8200   30.9100   50.2160 C   0  0  0  0  0  0  0  0  0  0  0  0
   37.3950   30.6570   48.9350 C   0  0  0  0  0  0  0  0  0  0  0  0
   36.4290   29.7060   48.8440 N   0  0  0  0  0  0  0  0  0  0  0  0
   35.8900   29.0350   49.8510 C   0  0  0  0  0  0  0  0  0  0  0  0
   36.3200   29.2980   51.0920 N   0  0  0  0  0  0  0  0  0  0  0  0
   37.6340   30.4510   52.2780 H   0  0  0  0  0  0  0  0  0  0  0  0
   38.5780   31.6290   50.3830 H   0  0  0  0  0  0  0  0  0  0  0  0
   35.8970   30.2210   46.1940 Cl  0  0  0  0  0  0  0  0  0  0  0  0
   37.3290   31.1770   46.4370 C   0  0  0  0  0  0  0  0  0  0  0  0
   37.8460   31.2530   47.6910 C   0  0  0  0  0  0  0  0  0  0  0  0
   38.9920   32.0230   47.7370 C   0  0  0  0  0  0  0  0  0  0  0  0
   39.5560   32.2050   48.6660 H   0  0  0  0  0  0  0  0  0  0  0  0
   39.5470   32.6430   46.6420 C   0  0  0  0  0  3  0  0  0  0  0  0
   38.9640   32.5180   45.4050 C   0  0  0  0  0  0  0  0  0  0  0  0
   39.6860   33.3130   44.0250 Cl  0  0  0  0  0  0  0  0  0  0  0  0
   37.8290   31.7610   45.3230 C   0  0  0  0  0  0  0  0  0  0  0  0
   37.3790   31.6700   44.3490 H   0  0  0  0  0  0  0  0  0  0  0  0
   34.9280   28.1270   49.4540 O   0  0  0  0  0  0  0  0  0  0  0  0
   33.7700   28.6060   48.8020 C   0  0  0  0  0  0  0  0  0  0  0  0
   34.0050   29.3310   47.9970 H   0  0  0  0  0  0  0  0  0  0  0  0
   33.1920   29.1860   49.5760 H   0  0  0  0  0  0  0  0  0  0  0  0
   32.8920   27.4830   48.3590 C   0  0  0  0  0  0  0  0  0  0  0  0
   33.0110   26.5790   48.9860 H   0  0  0  0  0  0  0  0  0  0  0  0
   33.1980   27.1940   47.3280 H   0  0  0  0  0  0  0  0  0  0  0  0
   31.4530   27.8820   48.2730 C   0  0  0  0  0  0  0  0  0  0  0  0
   30.6830   27.7150   49.4180 C   0  0  0  0  0  0  0  0  0  0  0  0
   29.3470   28.0560   49.4360 C   0  0  0  0  0  0  0  0  0  0  0  0
   28.7770   28.5530   48.3480 N   0  0  0  0  0  0  0  0  0  0  0  0
   29.5430   28.7120   47.2350 C   0  0  0  0  0  0  0  0  0  0  0  0
   30.8440   28.3900   47.1870 N   0  0  0  0  0  0  0  0  0  0  0  0
   31.1160   27.3110   50.3280 H   0  0  0  0  0  0  0  0  0  0  0  0
   28.7430   27.9270   50.3250 H   0  0  0  0  0  0  0  0  0  0  0  0
   29.1980   29.1100   46.2730 H   0  0  0  0  0  0  0  0  0  0  0  0
  1  7  1  0  0  0  0
  2  8  1  0  0  0  0
  2  1  2  0  0  0  0
  3  2  1  0  0  0  0
  4  3  2  0  0  0  0
  4  5  1  0  0  0  0
  5  6  2  0  0  0  0
  6  1  1  0  0  0  0
  9 10  1  0  0  0  0
 10 11  1  0  0  0  0
 11 12  2  0  0  0  0
 11  3  1  0  0  0  0
 12 13  1  0  0  0  0
 14 12  1  0  0  0  0
 15 14  2  0  0  0  0
 16 15  1  0  0  0  0
 17 15  1  0  0  0  0
 17 10  2  0  0  0  0
 18 17  1  0  0  0  0
 19  5  1  0  0  0  0
 20 19  1  0  0  0  0
 20 22  1  0  0  0  0
 21 20  1  0  0  0  0
 23 20  1  0  0  0  0
 23 24  1  0  0  0  0
 25 23  1  0  0  0  0
 26 23  1  0  0  0  0
 26 27  1  0  0  0  0
 27 28  2  0  0  0  0
 27 32  1  0  0  0  0
 28 33  1  0  0  0  0
 29 28  1  0  0  0  0
 30 29  2  0  0  0  0
 31 30  1  0  0  0  0
 31 26  2  0  0  0  0
 34 30  1  0  0  0  0
M  END
>  <minimizedAffinity>
-6.38796997

>  <minimizedRMSD>
1.0010339

$$$$
