
 OpenBabel03272503373D

 20 21  0  0  0  0  0  0  0  0999 V2000
   37.1270   29.5110   50.8040 C   0  0  0  0  0  0  0  0  0  0  0  0
   37.8830   30.1040   49.7890 C   0  0  0  0  0  0  0  0  0  0  0  0
   37.1980   30.7570   48.7780 C   0  0  0  0  0  0  0  0  0  0  0  0
   35.8310   30.7780   48.8430 N   0  0  0  0  0  0  0  0  0  0  0  0
   35.1180   30.2000   49.8330 C   0  0  0  0  0  0  0  0  0  0  0  0
   35.7900   29.5770   50.7940 N   0  0  0  0  0  0  0  0  0  0  0  0
   38.9640   30.0720   49.7640 H   0  0  0  0  0  0  0  0  0  0  0  0
   34.0380   30.2480   49.8310 H   0  0  0  0  0  0  0  0  0  0  0  0
   36.0180   30.1990   46.0770 Cl  0  0  0  0  0  0  0  0  0  0  0  0
   37.4060   31.2360   46.3870 C   0  0  0  0  0  0  0  0  0  0  0  0
   37.8530   31.4120   47.6680 C   0  0  0  0  0  0  0  0  0  0  0  0
   38.9280   32.2300   47.7930 C   0  0  0  0  0  0  0  0  0  0  0  0
   39.3610   32.4400   48.7530 H   0  0  0  0  0  0  0  0  0  0  0  0
   39.5650   32.8670   46.7230 C   0  0  0  0  0  3  0  0  0  0  0  0
   39.0590   32.6400   45.4640 C   0  0  0  0  0  0  0  0  0  0  0  0
   39.8250   33.4180   44.0900 Cl  0  0  0  0  0  0  0  0  0  0  0  0
   37.9700   31.8210   45.2740 C   0  0  0  0  0  0  0  0  0  0  0  0
   37.6270   31.6870   44.2770 H   0  0  0  0  0  0  0  0  0  0  0  0
   37.9020   28.8860   51.7640 O   0  0  0  0  0  0  0  0  0  0  0  0
   38.6300   29.4430   52.2000 H   0  0  0  0  0  0  0  0  0  0  0  0
  1 19  1  0  0  0  0
  2  1  2  0  0  0  0
  3  4  2  0  0  0  0
  3  2  1  0  0  0  0
  4  5  1  0  0  0  0
  5  6  2  0  0  0  0
  6  1  1  0  0  0  0
  7  2  1  0  0  0  0
  8  5  1  0  0  0  0
  9 10  1  0  0  0  0
 10 11  1  0  0  0  0
 11 12  2  0  0  0  0
 11  3  1  0  0  0  0
 12 13  1  0  0  0  0
 14 12  1  0  0  0  0
 15 14  2  0  0  0  0
 16 15  1  0  0  0  0
 17 15  1  0  0  0  0
 17 10  2  0  0  0  0
 18 17  1  0  0  0  0
 19 20  1  0  0  0  0
M  END
>  <minimizedAffinity>
-5.58153486

>  <minimizedRMSD>
1.30278587

$$$$
