
 OpenBabel03262523303D

 32 35  0  0  0  0  0  0  0  0999 V2000
   36.5050   28.6410   31.8660 C   0  0  0  0  0  0  0  0  0  0  0  0
   37.0470   27.4720   32.4110 C   0  0  0  0  0  0  0  0  0  0  0  0
   36.9810   27.2790   33.7850 C   0  0  0  0  0  0  0  0  0  0  0  0
   36.3900   28.2420   34.5210 N   0  0  0  0  0  0  0  0  0  0  0  0
   35.8660   29.3730   33.9860 C   0  0  0  0  0  0  0  0  0  0  0  0
   35.9240   29.5690   32.6730 N   0  0  0  0  0  0  0  0  0  0  0  0
   36.5980   28.7150   30.7860 H   0  0  0  0  0  0  0  0  0  0  0  0
   37.5160   26.7150   31.7990 H   0  0  0  0  0  0  0  0  0  0  0  0
   38.0240   25.1100   33.6470 C   0  0  0  0  0  0  0  0  0  0  0  0
   37.5080   26.1100   34.4600 C   0  0  0  0  0  0  0  0  0  0  0  0
   37.5210   25.9550   35.8190 C   0  0  0  0  0  0  0  0  0  0  0  0
   38.0560   24.7840   36.3380 C   0  0  0  0  0  0  0  0  0  0  0  0
   38.1710   24.4160   37.6460 N   0  0  0  0  0  0  0  0  0  0  0  0
   38.7520   23.1990   37.6710 C   0  0  0  0  0  0  0  0  0  0  0  0
   39.0070   22.7860   36.4180 N   0  0  0  0  0  0  0  0  0  0  0  0
   38.5810   23.7590   35.5710 C   0  0  0  0  0  0  0  0  0  0  0  0
   38.5590   23.9380   34.1950 C   0  0  0  0  0  0  0  0  0  0  0  0
   38.0660   25.1270   32.5600 H   0  0  0  0  0  0  0  0  0  0  0  0
   37.1190   26.7320   36.4550 H   0  0  0  0  0  0  0  0  0  0  0  0
   37.8960   24.9060   38.5270 H   0  0  0  0  0  0  0  0  0  0  0  0
   39.0430   22.5160   38.4590 H   0  0  0  0  0  0  0  0  0  0  0  0
   38.9660   23.1460   33.5790 H   0  0  0  0  0  0  0  0  0  0  0  0
   32.8310   29.3000   34.0700 Cl  0  0  0  0  0  0  0  0  0  0  0  0
   33.8680   30.3870   34.9830 C   0  0  0  0  0  0  0  0  0  0  0  0
   35.2510   30.3470   34.8800 C   0  0  0  0  0  0  0  0  0  0  0  0
   36.0400   31.2130   35.6090 C   0  0  0  0  0  0  0  0  0  0  0  0
   37.1140   31.1400   35.4910 H   0  0  0  0  0  0  0  0  0  0  0  0
   35.4340   32.1390   36.4590 C   0  0  0  0  0  3  0  0  0  0  0  0
   34.0570   32.1410   36.5280 C   0  0  0  0  0  0  0  0  0  0  0  0
   33.3060   33.2980   37.5910 Cl  0  0  0  0  0  0  0  0  0  0  0  0
   33.2230   31.3000   35.8240 C   0  0  0  0  0  0  0  0  0  0  0  0
   32.1470   31.3490   35.9200 H   0  0  0  0  0  0  0  0  0  0  0  0
  1  2  2  0  0  0  0
  1  6  1  0  0  0  0
  2  3  1  0  0  0  0
  3 10  1  0  0  0  0
  3  4  2  0  0  0  0
  5  4  1  0  0  0  0
  5 25  1  0  0  0  0
  6  5  2  0  0  0  0
  7  1  1  0  0  0  0
  8  2  1  0  0  0  0
  9 17  2  0  0  0  0
  9 10  1  0  0  0  0
 10 11  2  0  0  0  0
 11 12  1  0  0  0  0
 11 19  1  0  0  0  0
 12 13  1  0  0  0  0
 13 14  1  0  0  0  0
 13 20  1  0  0  0  0
 14 21  1  0  0  0  0
 15 14  2  0  0  0  0
 16 12  2  0  0  0  0
 16 15  1  0  0  0  0
 17 16  1  0  0  0  0
 18  9  1  0  0  0  0
 22 17  1  0  0  0  0
 23 24  1  0  0  0  0
 24 31  1  0  0  0  0
 25 24  2  0  0  0  0
 25 26  1  0  0  0  0
 26 28  2  0  0  0  0
 27 26  1  0  0  0  0
 28 29  1  0  0  0  0
 29 30  1  0  0  0  0
 31 32  1  0  0  0  0
 31 29  2  0  0  0  0
M  END
>  <minimizedAffinity>
-6.30632067

$$$$

 OpenBabel03262523303D

 32 35  0  0  0  0  0  0  0  0999 V2000
   36.9300   28.5420   31.5200 C   0  0  0  0  0  0  0  0  0  0  0  0
   36.1940   29.4180   32.3260 C   0  0  0  0  0  0  0  0  0  0  0  0
   35.9790   29.0850   33.6570 C   0  0  0  0  0  0  0  0  0  0  0  0
   36.4990   27.9220   34.0990 N   0  0  0  0  0  0  0  0  0  0  0  0
   37.2110   27.0770   33.3140 C   0  0  0  0  0  0  0  0  0  0  0  0
   37.4230   27.3840   32.0380 N   0  0  0  0  0  0  0  0  0  0  0  0
   37.0520   28.8750   30.4940 H   0  0  0  0  0  0  0  0  0  0  0  0
   35.7880   30.3450   31.9470 H   0  0  0  0  0  0  0  0  0  0  0  0
   35.9760   30.7910   35.3610 C   0  0  0  0  0  0  0  0  0  0  0  0
   35.2330   29.9130   34.5840 C   0  0  0  0  0  0  0  0  0  0  0  0
   33.8720   29.8690   34.7200 C   0  0  0  0  0  0  0  0  0  0  0  0
   33.2820   30.7180   35.6470 C   0  0  0  0  0  0  0  0  0  0  0  0
   31.9590   30.8450   35.9510 N   0  0  0  0  0  0  0  0  0  0  0  0
   31.8560   31.7900   36.9070 C   0  0  0  0  0  0  0  0  0  0  0  0
   33.0740   32.2640   37.2180 N   0  0  0  0  0  0  0  0  0  0  0  0
   33.9780   31.6090   36.4440 C   0  0  0  0  0  0  0  0  0  0  0  0
   35.3570   31.6370   36.2870 C   0  0  0  0  0  0  0  0  0  0  0  0
   37.0580   30.9100   35.3350 H   0  0  0  0  0  0  0  0  0  0  0  0
   33.2900   29.1860   34.1170 H   0  0  0  0  0  0  0  0  0  0  0  0
   31.1140   30.3560   35.5760 H   0  0  0  0  0  0  0  0  0  0  0  0
   31.0290   32.2270   37.4530 H   0  0  0  0  0  0  0  0  0  0  0  0
   35.9180   32.3290   36.9030 H   0  0  0  0  0  0  0  0  0  0  0  0
   38.6850   27.4280   35.9460 Cl  0  0  0  0  0  0  0  0  0  0  0  0
   38.4130   25.9090   35.1040 C   0  0  0  0  0  0  0  0  0  0  0  0
   37.7250   25.8450   33.9010 C   0  0  0  0  0  0  0  0  0  0  0  0
   37.5270   24.6390   33.2620 C   0  0  0  0  0  0  0  0  0  0  0  0
   36.9840   24.6450   32.3250 H   0  0  0  0  0  0  0  0  0  0  0  0
   38.0270   23.4690   33.8390 C   0  0  0  0  0  3  0  0  0  0  0  0
   38.7030   23.5830   35.0350 C   0  0  0  0  0  0  0  0  0  0  0  0
   39.3240   22.1220   35.7500 Cl  0  0  0  0  0  0  0  0  0  0  0  0
   38.9290   24.7600   35.7140 C   0  0  0  0  0  0  0  0  0  0  0  0
   39.4680   24.7860   36.6500 H   0  0  0  0  0  0  0  0  0  0  0  0
  1  6  2  0  0  0  0
  1  2  1  0  0  0  0
  2  3  2  0  0  0  0
  3  4  1  0  0  0  0
  3 10  1  0  0  0  0
  5 25  1  0  0  0  0
  5  4  2  0  0  0  0
  6  5  1  0  0  0  0
  7  1  1  0  0  0  0
  8  2  1  0  0  0  0
  9 17  1  0  0  0  0
 10 11  1  0  0  0  0
 10  9  2  0  0  0  0
 11 12  2  0  0  0  0
 12 13  1  0  0  0  0
 12 16  1  0  0  0  0
 13 14  1  0  0  0  0
 14 15  2  0  0  0  0
 14 21  1  0  0  0  0
 16 15  1  0  0  0  0
 17 16  2  0  0  0  0
 17 22  1  0  0  0  0
 18  9  1  0  0  0  0
 19 11  1  0  0  0  0
 20 13  1  0  0  0  0
 24 31  1  0  0  0  0
 24 23  1  0  0  0  0
 25 24  2  0  0  0  0
 26 28  2  0  0  0  0
 26 25  1  0  0  0  0
 27 26  1  0  0  0  0
 28 29  1  0  0  0  0
 29 31  2  0  0  0  0
 29 30  1  0  0  0  0
 31 32  1  0  0  0  0
M  END
>  <minimizedAffinity>
-6.11581659

$$$$

 OpenBabel03262523303D

 32 35  0  0  0  0  0  0  0  0999 V2000
   37.0390   28.4180   31.4470 C   0  0  0  0  0  0  0  0  0  0  0  0
   36.2530   29.2870   32.2110 C   0  0  0  0  0  0  0  0  0  0  0  0
   35.9870   28.9650   33.5360 C   0  0  0  0  0  0  0  0  0  0  0  0
   36.5110   27.8170   34.0130 N   0  0  0  0  0  0  0  0  0  0  0  0
   37.2730   26.9790   33.2680 C   0  0  0  0  0  0  0  0  0  0  0  0
   37.5330   27.2760   32.0000 N   0  0  0  0  0  0  0  0  0  0  0  0
   37.1980   28.7430   30.4230 H   0  0  0  0  0  0  0  0  0  0  0  0
   35.8440   30.2010   31.8040 H   0  0  0  0  0  0  0  0  0  0  0  0
   33.8100   29.6320   34.3270 C   0  0  0  0  0  0  0  0  0  0  0  0
   35.1860   29.7870   34.4200 C   0  0  0  0  0  0  0  0  0  0  0  0
   35.7110   30.6790   35.3150 C   0  0  0  0  0  0  0  0  0  0  0  0
   34.8300   31.4060   36.1040 C   0  0  0  0  0  0  0  0  0  0  0  0
   35.1220   32.3420   37.0520 N   0  0  0  0  0  0  0  0  0  0  0  0
   33.9510   32.7780   37.5590 C   0  0  0  0  0  0  0  0  0  0  0  0
   32.9280   32.1490   36.9600 N   0  0  0  0  0  0  0  0  0  0  0  0
   33.4530   31.2880   36.0490 C   0  0  0  0  0  0  0  0  0  0  0  0
   32.9430   30.3760   35.1350 C   0  0  0  0  0  0  0  0  0  0  0  0
   33.2870   28.9540   33.6550 H   0  0  0  0  0  0  0  0  0  0  0  0
   36.7820   30.8030   35.3900 H   0  0  0  0  0  0  0  0  0  0  0  0
   36.0370   32.7160   37.3940 H   0  0  0  0  0  0  0  0  0  0  0  0
   33.6790   33.5020   38.3170 H   0  0  0  0  0  0  0  0  0  0  0  0
   31.8670   30.2700   35.0790 H   0  0  0  0  0  0  0  0  0  0  0  0
   38.7640   27.4080   35.8790 Cl  0  0  0  0  0  0  0  0  0  0  0  0
   38.4820   25.8640   35.0880 C   0  0  0  0  0  0  0  0  0  0  0  0
   37.7870   25.7640   33.8910 C   0  0  0  0  0  0  0  0  0  0  0  0
   37.5800   24.5390   33.2920 C   0  0  0  0  0  0  0  0  0  0  0  0
   37.0320   24.5180   32.3590 H   0  0  0  0  0  0  0  0  0  0  0  0
   38.0800   23.3870   33.9030 C   0  0  0  0  0  3  0  0  0  0  0  0
   38.7640   23.5360   35.0910 C   0  0  0  0  0  0  0  0  0  0  0  0
   39.3840   22.0960   35.8480 Cl  0  0  0  0  0  0  0  0  0  0  0  0
   38.9980   24.7330   35.7300 C   0  0  0  0  0  0  0  0  0  0  0  0
   39.5420   24.7870   36.6630 H   0  0  0  0  0  0  0  0  0  0  0  0
  1  6  2  0  0  0  0
  1  2  1  0  0  0  0
  2  3  2  0  0  0  0
  3  4  1  0  0  0  0
  3 10  1  0  0  0  0
  5 25  1  0  0  0  0
  5  4  2  0  0  0  0
  6  5  1  0  0  0  0
  7  1  1  0  0  0  0
  8  2  1  0  0  0  0
  9 10  2  0  0  0  0
  9 17  1  0  0  0  0
 10 11  1  0  0  0  0
 11 19  1  0  0  0  0
 11 12  2  0  0  0  0
 12 13  1  0  0  0  0
 13 20  1  0  0  0  0
 13 14  1  0  0  0  0
 14 21  1  0  0  0  0
 15 14  2  0  0  0  0
 16 12  1  0  0  0  0
 16 15  1  0  0  0  0
 17 16  2  0  0  0  0
 18  9  1  0  0  0  0
 22 17  1  0  0  0  0
 24 31  1  0  0  0  0
 24 23  1  0  0  0  0
 25 24  2  0  0  0  0
 26 25  1  0  0  0  0
 26 28  2  0  0  0  0
 27 26  1  0  0  0  0
 28 29  1  0  0  0  0
 29 31  2  0  0  0  0
 29 30  1  0  0  0  0
 31 32  1  0  0  0  0
M  END
>  <minimizedAffinity>
-6.09487295

$$$$

 OpenBabel03262523303D

 32 35  0  0  0  0  0  0  0  0999 V2000
   36.6500   28.9860   30.4780 C   0  0  0  0  0  0  0  0  0  0  0  0
   36.0580   29.7480   31.4910 C   0  0  0  0  0  0  0  0  0  0  0  0
   35.6900   29.1220   32.6750 C   0  0  0  0  0  0  0  0  0  0  0  0
   35.9300   27.7990   32.7790 N   0  0  0  0  0  0  0  0  0  0  0  0
   36.5050   27.0660   31.7940 C   0  0  0  0  0  0  0  0  0  0  0  0
   36.8600   27.6530   30.6560 N   0  0  0  0  0  0  0  0  0  0  0  0
   36.9060   29.5500   29.5860 H   0  0  0  0  0  0  0  0  0  0  0  0
   35.8760   30.8080   31.3820 H   0  0  0  0  0  0  0  0  0  0  0  0
   33.7210   29.5550   33.9960 C   0  0  0  0  0  0  0  0  0  0  0  0
   35.0700   29.8080   33.7910 C   0  0  0  0  0  0  0  0  0  0  0  0
   35.7360   30.6650   34.6230 C   0  0  0  0  0  0  0  0  0  0  0  0
   35.0210   31.2580   35.6560 C   0  0  0  0  0  0  0  0  0  0  0  0
   35.4710   32.1360   36.5970 N   0  0  0  0  0  0  0  0  0  0  0  0
   34.4270   32.4410   37.3930 C   0  0  0  0  0  0  0  0  0  0  0  0
   33.3290   31.7830   36.9840 N   0  0  0  0  0  0  0  0  0  0  0  0
   33.6780   31.0390   35.9020 C   0  0  0  0  0  0  0  0  0  0  0  0
   33.0230   30.1650   35.0450 C   0  0  0  0  0  0  0  0  0  0  0  0
   33.0960   28.8940   33.3990 H   0  0  0  0  0  0  0  0  0  0  0  0
   36.7860   30.8650   34.4660 H   0  0  0  0  0  0  0  0  0  0  0  0
   36.4170   32.5520   36.7570 H   0  0  0  0  0  0  0  0  0  0  0  0
   34.2960   33.0800   38.2580 H   0  0  0  0  0  0  0  0  0  0  0  0
   31.9710   29.9820   35.2230 H   0  0  0  0  0  0  0  0  0  0  0  0
   34.4340   25.2480   30.5180 Cl  0  0  0  0  0  0  0  0  0  0  0  0
   35.8170   24.7330   31.4720 C   0  0  0  0  0  0  0  0  0  0  0  0
   36.7150   25.6400   32.0180 C   0  0  0  0  0  0  0  0  0  0  0  0
   37.7920   25.2070   32.7630 C   0  0  0  0  0  0  0  0  0  0  0  0
   38.4620   25.9560   33.1670 H   0  0  0  0  0  0  0  0  0  0  0  0
   37.9770   23.8380   32.9670 C   0  0  0  0  0  3  0  0  0  0  0  0
   37.0590   22.9770   32.4050 C   0  0  0  0  0  0  0  0  0  0  0  0
   37.2950   21.2710   32.6620 Cl  0  0  0  0  0  0  0  0  0  0  0  0
   35.9680   23.3540   31.6540 C   0  0  0  0  0  0  0  0  0  0  0  0
   35.2820   22.6300   31.2380 H   0  0  0  0  0  0  0  0  0  0  0  0
  1  6  2  0  0  0  0
  1  2  1  0  0  0  0
  2  3  2  0  0  0  0
  3  4  1  0  0  0  0
  3 10  1  0  0  0  0
  5 25  1  0  0  0  0
  5  4  2  0  0  0  0
  6  5  1  0  0  0  0
  7  1  1  0  0  0  0
  8  2  1  0  0  0  0
  9 17  1  0  0  0  0
 10  9  2  0  0  0  0
 10 11  1  0  0  0  0
 11 12  2  0  0  0  0
 12 16  1  0  0  0  0
 12 13  1  0  0  0  0
 13 20  1  0  0  0  0
 13 14  1  0  0  0  0
 14 21  1  0  0  0  0
 15 14  2  0  0  0  0
 16 15  1  0  0  0  0
 17 22  1  0  0  0  0
 17 16  2  0  0  0  0
 18  9  1  0  0  0  0
 19 11  1  0  0  0  0
 23 24  1  0  0  0  0
 24 31  2  0  0  0  0
 24 25  1  0  0  0  0
 25 26  2  0  0  0  0
 26 28  1  0  0  0  0
 26 27  1  0  0  0  0
 29 30  1  0  0  0  0
 29 28  2  0  0  0  0
 31 29  1  0  0  0  0
 32 31  1  0  0  0  0
M  END
>  <minimizedAffinity>
-5.92033958

$$$$

 OpenBabel03262523303D

 32 35  0  0  0  0  0  0  0  0999 V2000
   36.5930   29.5240   30.4250 C   0  0  0  0  0  0  0  0  0  0  0  0
   36.0450   30.2120   31.5130 C   0  0  0  0  0  0  0  0  0  0  0  0
   35.5710   29.4850   32.5980 C   0  0  0  0  0  0  0  0  0  0  0  0
   35.6700   28.1420   32.5360 N   0  0  0  0  0  0  0  0  0  0  0  0
   36.2040   27.4810   31.4800 C   0  0  0  0  0  0  0  0  0  0  0  0
   36.6590   28.1650   30.4360 N   0  0  0  0  0  0  0  0  0  0  0  0
   36.9390   30.1660   29.6200 H   0  0  0  0  0  0  0  0  0  0  0  0
   35.9760   31.2910   31.5370 H   0  0  0  0  0  0  0  0  0  0  0  0
   33.6730   29.7300   34.0630 C   0  0  0  0  0  0  0  0  0  0  0  0
   34.9830   30.0890   33.7770 C   0  0  0  0  0  0  0  0  0  0  0  0
   35.6420   30.9650   34.5940 C   0  0  0  0  0  0  0  0  0  0  0  0
   34.9610   31.4710   35.6930 C   0  0  0  0  0  0  0  0  0  0  0  0
   35.4120   32.3490   36.6340 N   0  0  0  0  0  0  0  0  0  0  0  0
   34.4060   32.5500   37.5090 C   0  0  0  0  0  0  0  0  0  0  0  0
   33.3330   31.8270   37.1510 N   0  0  0  0  0  0  0  0  0  0  0  0
   33.6570   31.1460   36.0210 C   0  0  0  0  0  0  0  0  0  0  0  0
   33.0080   30.2530   35.1790 C   0  0  0  0  0  0  0  0  0  0  0  0
   33.0560   29.0440   33.4860 H   0  0  0  0  0  0  0  0  0  0  0  0
   36.6620   31.2470   34.3740 H   0  0  0  0  0  0  0  0  0  0  0  0
   36.3350   32.8280   36.7450 H   0  0  0  0  0  0  0  0  0  0  0  0
   34.2910   33.1500   38.4040 H   0  0  0  0  0  0  0  0  0  0  0  0
   31.9870   29.9880   35.4200 H   0  0  0  0  0  0  0  0  0  0  0  0
   38.7200   26.3290   32.7310 Cl  0  0  0  0  0  0  0  0  0  0  0  0
   37.3720   25.4090   32.0780 C   0  0  0  0  0  0  0  0  0  0  0  0
   36.2590   26.0240   31.5240 C   0  0  0  0  0  0  0  0  0  0  0  0
   35.2150   25.2760   31.0180 C   0  0  0  0  0  0  0  0  0  0  0  0
   34.3710   25.8060   30.5960 H   0  0  0  0  0  0  0  0  0  0  0  0
   35.2860   23.8830   31.0680 C   0  0  0  0  0  3  0  0  0  0  0  0
   36.4110   23.3180   31.6290 C   0  0  0  0  0  0  0  0  0  0  0  0
   36.4930   21.5790   31.6890 Cl  0  0  0  0  0  0  0  0  0  0  0  0
   37.4800   24.0160   32.1460 C   0  0  0  0  0  0  0  0  0  0  0  0
   38.3370   23.5150   32.5740 H   0  0  0  0  0  0  0  0  0  0  0  0
  1  6  2  0  0  0  0
  1  2  1  0  0  0  0
  2  8  1  0  0  0  0
  2  3  2  0  0  0  0
  3 10  1  0  0  0  0
  4  3  1  0  0  0  0
  5 25  1  0  0  0  0
  5  4  2  0  0  0  0
  6  5  1  0  0  0  0
  7  1  1  0  0  0  0
  9 17  1  0  0  0  0
 10  9  2  0  0  0  0
 10 11  1  0  0  0  0
 11 12  2  0  0  0  0
 12 16  1  0  0  0  0
 12 13  1  0  0  0  0
 13 20  1  0  0  0  0
 13 14  1  0  0  0  0
 14 21  1  0  0  0  0
 15 14  2  0  0  0  0
 16 15  1  0  0  0  0
 17 22  1  0  0  0  0
 17 16  2  0  0  0  0
 18  9  1  0  0  0  0
 19 11  1  0  0  0  0
 24 31  1  0  0  0  0
 24 23  1  0  0  0  0
 25 24  2  0  0  0  0
 26 28  2  0  0  0  0
 26 25  1  0  0  0  0
 27 26  1  0  0  0  0
 28 29  1  0  0  0  0
 29 30  1  0  0  0  0
 29 31  2  0  0  0  0
 31 32  1  0  0  0  0
M  END
>  <minimizedAffinity>
-5.90232038

$$$$

 OpenBabel03262523303D

 32 35  0  0  0  0  0  0  0  0999 V2000
   36.3430   29.3440   31.6350 C   0  0  0  0  0  0  0  0  0  0  0  0
   37.0260   28.2770   32.2290 C   0  0  0  0  0  0  0  0  0  0  0  0
   36.7260   27.9350   33.5410 C   0  0  0  0  0  0  0  0  0  0  0  0
   35.7810   28.6610   34.1720 N   0  0  0  0  0  0  0  0  0  0  0  0
   35.1220   29.6930   33.5910 C   0  0  0  0  0  0  0  0  0  0  0  0
   35.4010   30.0310   32.3360 N   0  0  0  0  0  0  0  0  0  0  0  0
   36.6370   29.5460   30.6090 H   0  0  0  0  0  0  0  0  0  0  0  0
   37.7810   27.7110   31.7010 H   0  0  0  0  0  0  0  0  0  0  0  0
   37.8170   27.1430   35.5400 C   0  0  0  0  0  0  0  0  0  0  0  0
   37.3690   26.8520   34.2590 C   0  0  0  0  0  0  0  0  0  0  0  0
   37.5440   25.5970   33.7450 C   0  0  0  0  0  0  0  0  0  0  0  0
   38.1770   24.6500   34.5390 C   0  0  0  0  0  0  0  0  0  0  0  0
   38.4580   23.3490   34.2390 N   0  0  0  0  0  0  0  0  0  0  0  0
   39.0770   22.8150   35.3110 C   0  0  0  0  0  0  0  0  0  0  0  0
   39.1970   23.7380   36.2800 N   0  0  0  0  0  0  0  0  0  0  0  0
   38.6420   24.8890   35.8200 C   0  0  0  0  0  0  0  0  0  0  0  0
   38.4510   26.1700   36.3210 C   0  0  0  0  0  0  0  0  0  0  0  0
   37.7290   28.1020   36.0460 H   0  0  0  0  0  0  0  0  0  0  0  0
   37.1970   25.3670   32.7470 H   0  0  0  0  0  0  0  0  0  0  0  0
   38.2730   22.7840   33.3790 H   0  0  0  0  0  0  0  0  0  0  0  0
   39.4810   21.8370   35.5420 H   0  0  0  0  0  0  0  0  0  0  0  0
   38.8080   26.3750   37.3220 H   0  0  0  0  0  0  0  0  0  0  0  0
   36.2270   31.3970   35.8490 Cl  0  0  0  0  0  0  0  0  0  0  0  0
   34.5310   31.2120   35.4240 C   0  0  0  0  0  0  0  0  0  0  0  0
   34.1180   30.4080   34.3710 C   0  0  0  0  0  0  0  0  0  0  0  0
   32.7800   30.2810   34.0600 C   0  0  0  0  0  0  0  0  0  0  0  0
   32.5120   29.6410   33.2290 H   0  0  0  0  0  0  0  0  0  0  0  0
   31.8330   30.9730   34.8190 C   0  0  0  0  0  3  0  0  0  0  0  0
   32.2920   31.7590   35.8540 C   0  0  0  0  0  0  0  0  0  0  0  0
   31.1070   32.6200   36.7960 Cl  0  0  0  0  0  0  0  0  0  0  0  0
   33.6130   31.9210   36.2070 C   0  0  0  0  0  0  0  0  0  0  0  0
   33.9120   32.5530   37.0320 H   0  0  0  0  0  0  0  0  0  0  0  0
  1  2  2  0  0  0  0
  1  6  1  0  0  0  0
  2  3  1  0  0  0  0
  3  4  2  0  0  0  0
  3 10  1  0  0  0  0
  5  4  1  0  0  0  0
  5 25  1  0  0  0  0
  6  5  2  0  0  0  0
  7  1  1  0  0  0  0
  8  2  1  0  0  0  0
  9 18  1  0  0  0  0
  9 17  1  0  0  0  0
 10  9  2  0  0  0  0
 11 10  1  0  0  0  0
 11 12  2  0  0  0  0
 12 16  1  0  0  0  0
 13 12  1  0  0  0  0
 13 14  1  0  0  0  0
 14 21  1  0  0  0  0
 14 15  2  0  0  0  0
 16 15  1  0  0  0  0
 16 17  2  0  0  0  0
 17 22  1  0  0  0  0
 19 11  1  0  0  0  0
 20 13  1  0  0  0  0
 24 23  1  0  0  0  0
 24 31  1  0  0  0  0
 25 24  2  0  0  0  0
 26 25  1  0  0  0  0
 26 28  2  0  0  0  0
 27 26  1  0  0  0  0
 28 29  1  0  0  0  0
 29 31  2  0  0  0  0
 29 30  1  0  0  0  0
 31 32  1  0  0  0  0
M  END
>  <minimizedAffinity>
-5.78795815

$$$$

 OpenBabel03262523303D

 32 35  0  0  0  0  0  0  0  0999 V2000
   36.6530   28.1920   31.7720 C   0  0  0  0  0  0  0  0  0  0  0  0
   35.9180   29.1260   32.5100 C   0  0  0  0  0  0  0  0  0  0  0  0
   35.9490   29.0610   33.8970 C   0  0  0  0  0  0  0  0  0  0  0  0
   36.6970   28.0890   34.4570 N   0  0  0  0  0  0  0  0  0  0  0  0
   37.4080   27.1870   33.7360 C   0  0  0  0  0  0  0  0  0  0  0  0
   37.3850   27.2390   32.4090 N   0  0  0  0  0  0  0  0  0  0  0  0
   36.5740   28.3120   30.6960 H   0  0  0  0  0  0  0  0  0  0  0  0
   35.3250   29.8960   32.0360 H   0  0  0  0  0  0  0  0  0  0  0  0
   35.9990   30.8500   35.5120 C   0  0  0  0  0  0  0  0  0  0  0  0
   35.2280   29.9730   34.7630 C   0  0  0  0  0  0  0  0  0  0  0  0
   33.8640   30.0060   34.8680 C   0  0  0  0  0  0  0  0  0  0  0  0
   33.3000   30.9300   35.7370 C   0  0  0  0  0  0  0  0  0  0  0  0
   31.9780   31.1410   36.0020 N   0  0  0  0  0  0  0  0  0  0  0  0
   31.9050   32.1370   36.9070 C   0  0  0  0  0  0  0  0  0  0  0  0
   33.1390   32.5630   37.2230 N   0  0  0  0  0  0  0  0  0  0  0  0
   34.0240   31.8240   36.5050 C   0  0  0  0  0  0  0  0  0  0  0  0
   35.4060   31.7730   36.3800 C   0  0  0  0  0  0  0  0  0  0  0  0
   37.0860   30.9120   35.5060 H   0  0  0  0  0  0  0  0  0  0  0  0
   33.2600   29.3240   34.2870 H   0  0  0  0  0  0  0  0  0  0  0  0
   31.1180   30.6770   35.6310 H   0  0  0  0  0  0  0  0  0  0  0  0
   31.0900   32.6430   37.4100 H   0  0  0  0  0  0  0  0  0  0  0  0
   35.9890   32.4660   36.9740 H   0  0  0  0  0  0  0  0  0  0  0  0
   40.4010   27.2690   33.2280 Cl  0  0  0  0  0  0  0  0  0  0  0  0
   39.5590   26.1390   34.2790 C   0  0  0  0  0  0  0  0  0  0  0  0
   38.1820   26.1780   34.4500 C   0  0  0  0  0  0  0  0  0  0  0  0
   37.5470   25.2780   35.2820 C   0  0  0  0  0  0  0  0  0  0  0  0
   36.4720   25.3520   35.3790 H   0  0  0  0  0  0  0  0  0  0  0  0
   38.3040   24.3190   35.9570 C   0  0  0  0  0  3  0  0  0  0  0  0
   39.6680   24.3200   35.7550 C   0  0  0  0  0  0  0  0  0  0  0  0
   40.6070   23.1220   36.5990 Cl  0  0  0  0  0  0  0  0  0  0  0  0
   40.3520   25.1930   34.9380 C   0  0  0  0  0  0  0  0  0  0  0  0
   41.4250   25.1450   34.8190 H   0  0  0  0  0  0  0  0  0  0  0  0
  1  6  2  0  0  0  0
  1  2  1  0  0  0  0
  2  3  2  0  0  0  0
  3  4  1  0  0  0  0
  3 10  1  0  0  0  0
  5 25  1  0  0  0  0
  5  4  2  0  0  0  0
  6  5  1  0  0  0  0
  7  1  1  0  0  0  0
  8  2  1  0  0  0  0
  9 17  1  0  0  0  0
 10 11  1  0  0  0  0
 10  9  2  0  0  0  0
 11 12  2  0  0  0  0
 12 13  1  0  0  0  0
 12 16  1  0  0  0  0
 13 14  1  0  0  0  0
 14 15  2  0  0  0  0
 14 21  1  0  0  0  0
 16 15  1  0  0  0  0
 17 16  2  0  0  0  0
 17 22  1  0  0  0  0
 18  9  1  0  0  0  0
 19 11  1  0  0  0  0
 20 13  1  0  0  0  0
 23 24  1  0  0  0  0
 24 25  2  0  0  0  0
 24 31  1  0  0  0  0
 25 26  1  0  0  0  0
 26 27  1  0  0  0  0
 26 28  2  0  0  0  0
 29 28  1  0  0  0  0
 29 30  1  0  0  0  0
 31 29  2  0  0  0  0
 32 31  1  0  0  0  0
M  END
>  <minimizedAffinity>
-5.77719593

$$$$

 OpenBabel03262523303D

 32 35  0  0  0  0  0  0  0  0999 V2000
   37.9160   24.1470   37.7060 C   0  0  0  0  0  0  0  0  0  0  0  0
   39.0170   23.2850   37.6670 C   0  0  0  0  0  0  0  0  0  0  0  0
   39.7100   23.1340   36.4730 C   0  0  0  0  0  0  0  0  0  0  0  0
   39.2750   23.8390   35.4090 N   0  0  0  0  0  0  0  0  0  0  0  0
   38.2080   24.6740   35.4530 C   0  0  0  0  0  0  0  0  0  0  0  0
   37.5360   24.8250   36.5890 N   0  0  0  0  0  0  0  0  0  0  0  0
   37.4300   24.2070   38.6760 H   0  0  0  0  0  0  0  0  0  0  0  0
   39.3450   22.7300   38.5350 H   0  0  0  0  0  0  0  0  0  0  0  0
   41.5930   22.4270   35.1440 C   0  0  0  0  0  0  0  0  0  0  0  0
   40.8620   22.2690   36.3140 C   0  0  0  0  0  0  0  0  0  0  0  0
   41.2490   21.3370   37.2370 C   0  0  0  0  0  0  0  0  0  0  0  0
   42.3740   20.5730   36.9610 C   0  0  0  0  0  0  0  0  0  0  0  0
   42.9380   19.5940   37.7250 N   0  0  0  0  0  0  0  0  0  0  0  0
   44.0130   19.1320   37.0560 C   0  0  0  0  0  0  0  0  0  0  0  0
   44.1470   19.7870   35.8910 N   0  0  0  0  0  0  0  0  0  0  0  0
   43.1350   20.6910   35.8110 C   0  0  0  0  0  0  0  0  0  0  0  0
   42.7250   21.6440   34.8890 C   0  0  0  0  0  0  0  0  0  0  0  0
   41.3780   23.1340   34.3460 H   0  0  0  0  0  0  0  0  0  0  0  0
   40.6820   21.2120   38.1490 H   0  0  0  0  0  0  0  0  0  0  0  0
   42.6690   19.2060   38.6580 H   0  0  0  0  0  0  0  0  0  0  0  0
   44.7600   18.3730   37.2560 H   0  0  0  0  0  0  0  0  0  0  0  0
   43.3090   21.7500   33.9840 H   0  0  0  0  0  0  0  0  0  0  0  0
   38.3510   27.7020   35.6400 Cl  0  0  0  0  0  0  0  0  0  0  0  0
   37.8620   26.7720   34.2300 C   0  0  0  0  0  0  0  0  0  0  0  0
   37.8270   25.3850   34.2380 C   0  0  0  0  0  0  0  0  0  0  0  0
   37.4390   24.6810   33.1170 C   0  0  0  0  0  0  0  0  0  0  0  0
   37.4290   23.6000   33.1760 H   0  0  0  0  0  0  0  0  0  0  0  0
   37.0780   25.3790   31.9620 C   0  0  0  0  0  3  0  0  0  0  0  0
   37.1290   26.7560   32.0030 C   0  0  0  0  0  0  0  0  0  0  0  0
   36.6780   27.6210   30.5610 Cl  0  0  0  0  0  0  0  0  0  0  0  0
   37.5080   27.5070   33.0940 C   0  0  0  0  0  0  0  0  0  0  0  0
   37.5280   28.5870   33.0660 H   0  0  0  0  0  0  0  0  0  0  0  0
  1  7  1  0  0  0  0
  2  1  1  0  0  0  0
  2  8  1  0  0  0  0
  3  2  2  0  0  0  0
  4  5  2  0  0  0  0
  4  3  1  0  0  0  0
  5  6  1  0  0  0  0
  6  1  2  0  0  0  0
  9 10  1  0  0  0  0
 10  3  1  0  0  0  0
 10 11  2  0  0  0  0
 11 19  1  0  0  0  0
 12 11  1  0  0  0  0
 12 13  1  0  0  0  0
 13 20  1  0  0  0  0
 14 21  1  0  0  0  0
 14 13  1  0  0  0  0
 15 14  2  0  0  0  0
 16 15  1  0  0  0  0
 16 12  2  0  0  0  0
 17  9  2  0  0  0  0
 17 16  1  0  0  0  0
 18  9  1  0  0  0  0
 22 17  1  0  0  0  0
 24 25  1  0  0  0  0
 24 23  1  0  0  0  0
 25  5  1  0  0  0  0
 26 27  1  0  0  0  0
 26 25  2  0  0  0  0
 28 29  2  0  0  0  0
 28 26  1  0  0  0  0
 29 31  1  0  0  0  0
 30 29  1  0  0  0  0
 31 24  2  0  0  0  0
 32 31  1  0  0  0  0
M  END
>  <minimizedAffinity>
-5.75472546

$$$$

 OpenBabel03262523303D

 32 35  0  0  0  0  0  0  0  0999 V2000
   39.7260   25.5510   32.5030 C   0  0  0  0  0  0  0  0  0  0  0  0
   39.0150   26.7530   32.5730 C   0  0  0  0  0  0  0  0  0  0  0  0
   37.6260   26.7130   32.5600 C   0  0  0  0  0  0  0  0  0  0  0  0
   37.0400   25.5020   32.4810 N   0  0  0  0  0  0  0  0  0  0  0  0
   37.7350   24.3400   32.4140 C   0  0  0  0  0  0  0  0  0  0  0  0
   39.0640   24.3650   32.4250 N   0  0  0  0  0  0  0  0  0  0  0  0
   40.8060   25.6700   32.5180 H   0  0  0  0  0  0  0  0  0  0  0  0
   39.5090   27.7120   32.6360 H   0  0  0  0  0  0  0  0  0  0  0  0
   36.3750   28.2850   33.8930 C   0  0  0  0  0  0  0  0  0  0  0  0
   36.7860   27.8930   32.6270 C   0  0  0  0  0  0  0  0  0  0  0  0
   36.3950   28.6120   31.5310 C   0  0  0  0  0  0  0  0  0  0  0  0
   35.5880   29.7240   31.7350 C   0  0  0  0  0  0  0  0  0  0  0  0
   35.0810   30.5810   30.8030 N   0  0  0  0  0  0  0  0  0  0  0  0
   34.3570   31.5080   31.4630 C   0  0  0  0  0  0  0  0  0  0  0  0
   34.3900   31.2630   32.7830 N   0  0  0  0  0  0  0  0  0  0  0  0
   35.1520   30.1550   32.9750 C   0  0  0  0  0  0  0  0  0  0  0  0
   35.5620   29.4100   34.0730 C   0  0  0  0  0  0  0  0  0  0  0  0
   36.6260   27.7890   34.8300 H   0  0  0  0  0  0  0  0  0  0  0  0
   36.7130   28.3100   30.5440 H   0  0  0  0  0  0  0  0  0  0  0  0
   35.1760   30.6030   29.7630 H   0  0  0  0  0  0  0  0  0  0  0  0
   33.7800   32.3720   31.1590 H   0  0  0  0  0  0  0  0  0  0  0  0
   35.2300   29.7330   35.0510 H   0  0  0  0  0  0  0  0  0  0  0  0
   37.9970   22.5300   34.8390 Cl  0  0  0  0  0  0  0  0  0  0  0  0
   37.0540   22.1960   33.3930 C   0  0  0  0  0  0  0  0  0  0  0  0
   36.9930   23.0870   32.3300 C   0  0  0  0  0  0  0  0  0  0  0  0
   36.2460   22.7990   31.2080 C   0  0  0  0  0  0  0  0  0  0  0  0
   36.2330   23.5270   30.4070 H   0  0  0  0  0  0  0  0  0  0  0  0
   35.5430   21.5940   31.1450 C   0  0  0  0  0  3  0  0  0  0  0  0
   35.6330   20.7420   32.2250 C   0  0  0  0  0  0  0  0  0  0  0  0
   34.7540   19.2410   32.1420 Cl  0  0  0  0  0  0  0  0  0  0  0  0
   36.3640   20.9790   33.3680 C   0  0  0  0  0  0  0  0  0  0  0  0
   36.3970   20.2710   34.1840 H   0  0  0  0  0  0  0  0  0  0  0  0
  1  7  1  0  0  0  0
  1  2  1  0  0  0  0
  2  8  1  0  0  0  0
  3  2  2  0  0  0  0
  3 10  1  0  0  0  0
  4  3  1  0  0  0  0
  5  6  1  0  0  0  0
  5  4  2  0  0  0  0
  6  1  2  0  0  0  0
  9 17  1  0  0  0  0
  9 18  1  0  0  0  0
 10  9  2  0  0  0  0
 11 12  2  0  0  0  0
 11 10  1  0  0  0  0
 12 16  1  0  0  0  0
 13 14  1  0  0  0  0
 13 12  1  0  0  0  0
 14 15  2  0  0  0  0
 15 16  1  0  0  0  0
 16 17  2  0  0  0  0
 17 22  1  0  0  0  0
 19 11  1  0  0  0  0
 20 13  1  0  0  0  0
 21 14  1  0  0  0  0
 24 23  1  0  0  0  0
 25  5  1  0  0  0  0
 25 24  2  0  0  0  0
 26 25  1  0  0  0  0
 27 26  1  0  0  0  0
 28 26  2  0  0  0  0
 28 29  1  0  0  0  0
 29 31  2  0  0  0  0
 30 29  1  0  0  0  0
 31 24  1  0  0  0  0
 31 32  1  0  0  0  0
M  END
>  <minimizedAffinity>
-5.73857975

$$$$
