REMARK  Name = 
REMARK  1 active torsions:
REMARK  status: ('A' for Active; 'I' for Inactive)
REMARK    1  A    between atoms: C_12  and  C_26
REMARK                            x       y       z     vdW  Elec       q    Type
REMARK                         _______ _______ _______ _____ _____    ______ ____
ROOT
ATOM      1  C   UNL     1      37.231  29.858  51.262  0.00  0.00    +0.000 A 
ATOM      2  C   UNL     1      38.072  30.701  50.531  0.00  0.00    +0.000 A 
ATOM      3  C   UNL     1      37.586  31.354  49.396  0.00  0.00    +0.000 A 
ATOM      4  N   UNL     1      36.284  31.128  49.054  0.00  0.00    +0.000 NA
ATOM      5  C   UNL     1      35.477  30.309  49.769  0.00  0.00    +0.000 A 
ATOM      6  N   UNL     1      35.958  29.677  50.872  0.00  0.00    +0.000 NA
ATOM      7  N   UNL     1      38.417  32.215  48.636  0.00  0.00    +0.000 N 
ATOM      8  C   UNL     1      38.902  31.716  47.386  0.00  0.00    +0.000 C 
ATOM      9  C   UNL     1      39.679  32.682  46.575  0.00  0.00    +0.000 C 
ATOM     10  N   UNL     1      39.873  33.949  47.090  0.00  0.00    +0.000 NA
ATOM     11  C   UNL     1      39.832  34.220  48.462  0.00  0.00    +0.000 C 
ATOM     12  C   UNL     1      38.711  33.521  49.175  0.00  0.00    +0.000 C 
ATOM     13  H   UNL     1      37.675  29.391  52.122  0.00  0.00    +0.000 HD
ATOM     14  H   UNL     1      39.104  30.877  50.807  0.00  0.00    +0.000 HD
ATOM     15  H   UNL     1      34.439  30.167  49.443  0.00  0.00    +0.000 HD
ATOM     16  H   UNL     1      38.014  31.291  46.834  0.00  0.00    +0.000 HD
ATOM     17  H   UNL     1      39.509  30.809  47.639  0.00  0.00    +0.000 HD
ATOM     18  H   UNL     1      40.675  32.217  46.317  0.00  0.00    +0.000 HD
ATOM     19  H   UNL     1      39.182  32.756  45.567  0.00  0.00    +0.000 HD
ATOM     20  H   UNL     1      40.144  34.660  46.427  0.00  0.00    +0.000 HD
ATOM     21  H   UNL     1      39.688  35.315  48.619  0.00  0.00    +0.000 HD
ATOM     22  H   UNL     1      40.800  33.983  48.992  0.00  0.00    +0.000 HD
ATOM     23  H   UNL     1      39.022  33.350  50.241  0.00  0.00    +0.000 HD
ENDROOT
BRANCH  12  26
ATOM     24 CL   UNL     1      39.017  36.242  47.829  0.00  0.00    +0.000 Cl
ATOM     25  C   UNL     1      37.527  35.689  48.606  0.00  0.00    +0.000 A 
ATOM     26  C   UNL     1      37.523  34.422  49.184  0.00  0.00    +0.000 A 
ATOM     27  C   UNL     1      36.404  33.921  49.807  0.00  0.00    +0.000 A 
ATOM     28  H   UNL     1      36.365  32.940  50.266  0.00  0.00    +0.000 HD
ATOM     29  C   UNL     1      35.260  34.672  49.868  0.00  0.00    +0.000 A 
ATOM     30  C   UNL     1      35.255  35.929  49.298  0.00  0.00    +0.000 A 
ATOM     31 CL   UNL     1      33.790  36.890  49.378  0.00  0.00    +0.000 Cl
ATOM     32  C   UNL     1      36.382  36.458  48.660  0.00  0.00    +0.000 A 
ATOM     33  H   UNL     1      36.391  37.448  48.207  0.00  0.00    +0.000 HD
ENDBRANCH  12  26
TORSDOF 1
