
     RDKit          3D

 34 36  0  0  0  0  0  0  0  0999 V2000
   37.2312   29.8578   51.2622 C   0  0  0  0  0  0  0  0  0  0  0  0
   38.0724   30.7008   50.5314 C   0  0  0  0  0  0  0  0  0  0  0  0
   37.5862   31.3537   49.3964 C   0  0  0  0  0  0  0  0  0  0  0  0
   36.2836   31.1276   49.0539 N   0  0  0  0  0  0  0  0  0  0  0  0
   35.4771   30.3089   49.7689 C   0  0  0  0  0  0  0  0  0  0  0  0
   35.9575   29.6774   50.8718 N   0  0  0  0  0  0  0  0  0  0  0  0
   38.4171   32.2147   48.6365 N   0  0  0  0  0  0  0  0  0  0  0  0
   38.9022   31.7157   47.3857 C   0  0  0  0  0  0  0  0  0  0  0  0
   39.6794   32.6819   46.5748 C   0  0  0  0  0  0  0  0  0  0  0  0
   39.8733   33.9487   47.0895 N   0  0  0  0  0  0  0  0  0  0  0  0
   39.8322   34.2200   48.4616 C   0  0  0  0  0  0  0  0  0  0  0  0
   38.7109   33.5207   49.1752 C   0  0  1  0  0  0  0  0  0  0  0  0
   37.6747   29.3910   52.1217 H   0  0  0  0  0  0  0  0  0  0  0  0
   39.1041   30.8770   50.8067 H   0  0  0  0  0  0  0  0  0  0  0  0
   34.4389   30.1672   49.4432 H   0  0  0  0  0  0  0  0  0  0  0  0
   38.0142   31.2907   46.8344 H   0  0  0  0  0  0  0  0  0  0  0  0
   39.5091   30.8086   47.6394 H   0  0  0  0  0  0  0  0  0  0  0  0
   40.6748   32.2170   46.3167 H   0  0  0  0  0  0  0  0  0  0  0  0
   39.1819   32.7559   45.5668 H   0  0  0  0  0  0  0  0  0  0  0  0
   40.1442   34.6600   46.4273 H   0  0  0  0  0  0  0  0  0  0  0  0
   39.6884   35.3154   48.6188 H   0  0  0  0  0  0  0  0  0  0  0  0
   40.8005   33.9826   48.9915 H   0  0  0  0  0  0  0  0  0  0  0  0
   39.0224   33.3497   50.2406 H   0  0  0  0  0  0  0  0  0  0  0  0
   39.0170   36.2422   47.8293 Cl  0  0  0  0  0  0  0  0  0  0  0  0
   37.5274   35.6889   48.6061 C   0  0  0  0  0  0  0  0  0  0  0  0
   37.5229   34.4222   49.1840 C   0  0  0  0  0  0  0  0  0  0  0  0
   36.4039   33.9209   49.8066 C   0  0  0  0  0  0  0  0  0  0  0  0
   36.3652   32.9403   50.2663 H   0  0  0  0  0  0  0  0  0  0  0  0
   35.2602   34.6720   49.8682 C   0  0  0  0  0  0  0  0  0  0  0  0
   35.2545   35.9292   49.2983 C   0  0  0  0  0  0  0  0  0  0  0  0
   33.7896   36.8903   49.3776 Cl  0  0  0  0  0  0  0  0  0  0  0  0
   36.3818   36.4581   48.6602 C   0  0  0  0  0  0  0  0  0  0  0  0
   36.3905   37.4482   48.2068 H   0  0  0  0  0  0  0  0  0  0  0  0
   34.3573   34.2849   50.3626 H   0  0  0  0  0  0  0  0  0  0  0  0
  2  1  2  0
  3  2  1  0
  4  3  2  0
  4  5  1  0
  5  6  2  0
  6  1  1  0
  7 12  1  0
  7  3  1  0
  8  7  1  0
  9 10  1  0
  9  8  1  0
 10 11  1  0
 11 12  1  0
  1 13  1  0
  2 14  1  0
  5 15  1  0
  8 16  1  0
  8 17  1  0
  9 18  1  0
  9 19  1  0
 10 20  1  0
 11 21  1  0
 11 22  1  0
 12 23  1  1
 24 25  1  0
 25 26  2  0
 26 27  1  0
 27 28  1  0
 27 29  2  0
 29 30  1  0
 30 31  1  0
 30 32  2  0
 32 33  1  0
 32 25  1  0
 29 34  1  0
 12 26  1  0
M  ISO  8  13  14  14  14  15  14  16  13  17  13  18  13  19  13  20   5
M  ISO  5  21  13  22  13  23  13  28  16  33  15
M  END
>  <DihAtoms>  (1) 
6,11,25,24

>  <DihDeg>  (1) 
143.6552578026918

$$$$
