REMARK  Name = 
REMARK  5 active torsions:
REMARK  status: ('A' for Active; 'I' for Inactive)
REMARK    1  A    between atoms: C_1  and  C_8
REMARK    2  A    between atoms: N_4  and  C_12
REMARK    3  A    between atoms: C_12  and  C_13
REMARK    4  A    between atoms: C_13  and  N_14
REMARK    5  A    between atoms: C_19  and  C_38
REMARK                            x       y       z     vdW  Elec       q    Type
REMARK                         _______ _______ _______ _____ _____    ______ ____
ROOT
ATOM      1  N   UNL     1      40.393  31.796  43.461  0.00  0.00    +0.000 NA
ATOM      2  C   UNL     1      39.510  32.702  42.831  0.00  0.00    +0.000 C 
ATOM      3  C   UNL     1      38.253  32.143  42.286  0.00  0.00    +0.000 C 
ATOM      4  O   UNL     1      38.432  30.888  41.710  0.00  0.00    +0.000 OA
ATOM      5  C   UNL     1      38.987  30.012  42.579  0.00  0.00    +0.000 C 
ATOM      6  C   UNL     1      40.349  30.479  43.015  0.00  0.00    +0.000 C 
ATOM      7  H   UNL     1      40.125  32.952  41.928  0.00  0.00    +0.000 HD
ATOM      8  H   UNL     1      39.412  33.716  43.231  0.00  0.00    +0.000 HD
ATOM      9  H   UNL     1      38.054  32.735  41.307  0.00  0.00    +0.000 HD
ATOM     10  H   UNL     1      37.306  32.367  42.740  0.00  0.00    +0.000 HD
ATOM     11  H   UNL     1      38.352  29.563  43.334  0.00  0.00    +0.000 HD
ATOM     12  H   UNL     1      39.175  29.125  41.922  0.00  0.00    +0.000 HD
ATOM     13  H   UNL     1      40.416  29.900  44.031  0.00  0.00    +0.000 HD
ENDROOT
BRANCH   6  16
ATOM     14 CL   UNL     1      41.098  31.433  40.141  0.00  0.00    +0.000 Cl
ATOM     15  C   UNL     1      41.880  30.181  41.029  0.00  0.00    +0.000 A 
ATOM     16  C   UNL     1      41.432  29.836  42.288  0.00  0.00    +0.000 A 
ATOM     17  C   UNL     1      42.208  28.771  42.795  0.00  0.00    +0.000 A 
ATOM     18  H   UNL     1      41.952  28.396  43.801  0.00  0.00    +0.000 HD
ATOM     19  C   UNL     1      43.262  28.125  42.189  0.00  0.00    +0.000 A 
ATOM     20  C   UNL     1      43.621  28.556  40.931  0.00  0.00    +0.000 A 
ATOM     21 CL   UNL     1      44.952  27.745  40.158  0.00  0.00    +0.000 Cl
ATOM     22  C   UNL     1      42.927  29.581  40.361  0.00  0.00    +0.000 A 
ATOM     23  H   UNL     1      43.266  29.863  39.374  0.00  0.00    +0.000 HD
ENDBRANCH   6  16
BRANCH   1  24
ATOM     24  C   UNL     1      40.620  32.027  44.845  0.00  0.00    +0.000 C 
ATOM     25  H   UNL     1      41.676  32.336  45.077  0.00  0.00    +0.000 HD
ATOM     26  H   UNL     1      40.607  30.987  45.298  0.00  0.00    +0.000 HD
BRANCH  24  27
ATOM     27  C   UNL     1      39.699  32.862  45.594  0.00  0.00    +0.000 C 
ATOM     28  H   UNL     1      40.259  33.436  46.406  0.00  0.00    +0.000 HD
ATOM     29  H   UNL     1      39.086  33.636  45.156  0.00  0.00    +0.000 HD
BRANCH  27  33
ATOM     30  C   UNL     1      37.687  31.033  47.932  0.00  0.00    +0.000 A 
ATOM     31  C   UNL     1      36.997  30.793  46.759  0.00  0.00    +0.000 A 
ATOM     32  C   UNL     1      37.688  31.457  45.737  0.00  0.00    +0.000 A 
ATOM     33  N   UNL     1      38.727  32.048  46.319  0.00  0.00    +0.000 N 
ATOM     34  N   UNL     1      38.723  31.792  47.627  0.00  0.00    +0.000 NA
ATOM     35  H   UNL     1      36.074  30.188  46.662  0.00  0.00    +0.000 HD
ATOM     36  H   UNL     1      37.291  31.368  44.797  0.00  0.00    +0.000 HD
BRANCH  30  39
ATOM     37  C   UNL     1      37.404  30.135  51.573  0.00  0.00    +0.000 A 
ATOM     38  C   UNL     1      37.924  30.699  50.401  0.00  0.00    +0.000 A 
ATOM     39  C   UNL     1      37.261  30.502  49.203  0.00  0.00    +0.000 A 
ATOM     40  N   UNL     1      36.127  29.752  49.278  0.00  0.00    +0.000 NA
ATOM     41  C   UNL     1      35.642  29.217  50.414  0.00  0.00    +0.000 A 
ATOM     42  N   UNL     1      36.292  29.418  51.556  0.00  0.00    +0.000 NA
ATOM     43  H   UNL     1      38.047  30.387  52.427  0.00  0.00    +0.000 HD
ATOM     44  H   UNL     1      38.823  31.296  50.327  0.00  0.00    +0.000 HD
ATOM     45  H   UNL     1      34.732  28.636  50.370  0.00  0.00    +0.000 HD
ENDBRANCH  30  39
ENDBRANCH  27  33
ENDBRANCH  24  27
ENDBRANCH   1  24
TORSDOF 5
