
 OpenBabel03272507023D

 47 50  0  0  1  0  0  0  0  0999 V2000
   38.7690   26.2410   35.4680 C   0  0  2  0  0  0  0  0  0  0  0  0
   37.7260   26.1320   34.4100 C   0  0  0  0  0  0  0  0  0  0  0  0
   38.3130   25.7760   33.0560 C   0  0  2  0  0  0  0  0  0  0  0  0
   39.3390   26.7810   32.6240 C   0  0  0  0  0  0  0  0  0  0  0  0
   40.3090   27.1260   33.7010 C   0  0  0  0  0  0  0  0  0  0  0  0
   40.1780   26.2600   34.9290 C   0  0  0  0  0  0  0  0  0  0  0  0
   38.6960   27.1870   36.0820 H   0  0  0  0  0  0  0  0  0  0  0  0
   36.9000   25.4590   34.5470 H   0  0  0  0  0  0  0  0  0  0  0  0
   37.3520   27.1980   34.2630 H   0  0  0  0  0  0  0  0  0  0  0  0
   38.8230   24.8020   33.1820 H   0  0  0  0  0  0  0  0  0  0  0  0
   39.8840   26.3580   31.7580 H   0  0  0  0  0  0  0  0  0  0  0  0
   38.9160   27.7480   32.3070 H   0  0  0  0  0  0  0  0  0  0  0  0
   40.1930   28.1760   34.0680 H   0  0  0  0  0  0  0  0  0  0  0  0
   41.3490   27.0600   33.3140 H   0  0  0  0  0  0  0  0  0  0  0  0
   40.4680   25.2280   34.6000 H   0  0  0  0  0  0  0  0  0  0  0  0
   40.8530   26.6320   35.7080 H   0  0  0  0  0  0  0  0  0  0  0  0
   37.3220   25.6570   32.0530 N   0  0  1  0  0  0  0  0  0  0  0  0
   36.6970   24.3420   32.0390 C   0  0  0  0  0  0  0  0  0  0  0  0
   35.7540   24.5040   30.8420 C   0  0  0  0  0  0  0  0  0  0  0  0
   35.2340   25.9030   31.0780 C   0  0  0  0  0  0  0  0  0  0  0  0
   36.2820   26.5610   32.0080 C   0  0  2  0  0  0  0  0  0  0  0  0
   36.0480   24.2110   32.9350 H   0  0  0  0  0  0  0  0  0  0  0  0
   37.4180   23.5260   31.9080 H   0  0  0  0  0  0  0  0  0  0  0  0
   36.3160   24.3660   29.9200 H   0  0  0  0  0  0  0  0  0  0  0  0
   34.9330   23.7610   30.8920 H   0  0  0  0  0  0  0  0  0  0  0  0
   34.2440   25.8480   31.5520 H   0  0  0  0  0  0  0  0  0  0  0  0
   35.1540   26.4020   30.1160 H   0  0  0  0  0  0  0  0  0  0  0  0
   35.7900   26.6360   32.9850 H   0  0  0  0  0  0  0  0  0  0  0  0
   35.6400   28.9890   33.7660 Cl  0  0  0  0  0  0  0  0  0  0  0  0
   36.1960   29.1170   32.1080 C   0  0  0  0  0  0  0  0  0  0  0  0
   36.4450   27.9070   31.4460 C   0  0  0  0  0  0  0  0  0  0  0  0
   36.8810   28.0790   30.1380 C   0  0  0  0  0  0  0  0  0  0  0  0
   37.0890   27.1560   29.5800 H   0  0  0  0  0  0  0  0  0  0  0  0
   37.0770   29.2790   29.4860 C   0  0  0  0  0  3  0  0  0  0  0  0
   36.8120   30.4290   30.1990 C   0  0  0  0  0  0  0  0  0  0  0  0
   37.0620   31.9430   29.3640 Cl  0  0  0  0  0  0  0  0  0  0  0  0
   36.3740   30.3450   31.5050 C   0  0  0  0  0  0  0  0  0  0  0  0
   36.1710   31.2560   32.0520 H   0  0  0  0  0  0  0  0  0  0  0  0
   38.6980   25.1310   36.4500 C   0  0  0  0  0  0  0  0  0  0  0  0
   39.4360   23.9950   36.1090 C   0  0  0  0  0  0  0  0  0  0  0  0
   39.4080   22.9300   37.0200 C   0  0  0  0  0  0  0  0  0  0  0  0
   38.6730   23.0480   38.1820 N   0  0  0  0  0  0  0  0  0  0  0  0
   37.9710   24.1770   38.4670 C   0  0  0  0  0  0  0  0  0  0  0  0
   38.0000   25.1790   37.6060 N   0  0  0  0  0  0  0  0  0  0  0  0
   40.0560   23.6390   35.3120 H   0  0  0  0  0  0  0  0  0  0  0  0
   39.8790   21.9660   36.9950 H   0  0  0  0  0  0  0  0  0  0  0  0
   37.3990   24.2510   39.3830 H   0  0  0  0  0  0  0  0  0  0  0  0
  1  7  1  1  0  0  0
  1 39  1  0  0  0  0
  2  8  1  0  0  0  0
  2  1  1  0  0  0  0
  3 10  1  1  0  0  0
  3  2  1  0  0  0  0
  4  3  1  0  0  0  0
  4  5  1  0  0  0  0
  5 13  1  0  0  0  0
  5  6  1  0  0  0  0
  6  1  1  0  0  0  0
  6 16  1  0  0  0  0
  9  2  1  0  0  0  0
 11  4  1  0  0  0  0
 12  4  1  0  0  0  0
 14  5  1  0  0  0  0
 15  6  1  0  0  0  0
 17 18  1  1  0  0  0
 17  3  1  0  0  0  0
 18 22  1  0  0  0  0
 19 25  1  0  0  0  0
 19 20  1  0  0  0  0
 19 18  1  0  0  0  0
 20 26  1  0  0  0  0
 20 21  1  0  0  0  0
 21 17  1  0  0  0  0
 21 28  1  1  0  0  0
 23 18  1  0  0  0  0
 24 19  1  0  0  0  0
 27 20  1  0  0  0  0
 30 29  1  0  0  0  0
 31 21  1  0  0  0  0
 31 30  2  0  0  0  0
 32 31  1  0  0  0  0
 33 32  1  0  0  0  0
 34 32  2  0  0  0  0
 34 35  1  0  0  0  0
 35 37  2  0  0  0  0
 36 35  1  0  0  0  0
 37 38  1  0  0  0  0
 37 30  1  0  0  0  0
 39 44  1  0  0  0  0
 40 39  2  0  0  0  0
 40 41  1  0  0  0  0
 41 42  2  0  0  0  0
 42 43  1  0  0  0  0
 43 47  1  0  0  0  0
 44 43  2  0  0  0  0
 45 40  1  0  0  0  0
 46 41  1  0  0  0  0
M  END
>  <minimizedAffinity>
-6.21645403

$$$$

 OpenBabel03272507023D

 47 50  0  0  1  0  0  0  0  0999 V2000
   37.7660   25.3210   35.6190 C   0  0  2  0  0  0  0  0  0  0  0  0
   37.7630   24.8990   34.1910 C   0  0  0  0  0  0  0  0  0  0  0  0
   38.5780   25.8310   33.3120 C   0  0  2  0  0  0  0  0  0  0  0  0
   38.0790   27.2420   33.4020 C   0  0  0  0  0  0  0  0  0  0  0  0
   37.8360   27.6890   34.8020 C   0  0  0  0  0  0  0  0  0  0  0  0
   38.3210   26.7070   35.8390 C   0  0  0  0  0  0  0  0  0  0  0  0
   36.7360   25.3610   36.0830 H   0  0  0  0  0  0  0  0  0  0  0  0
   38.0870   23.9090   33.9300 H   0  0  0  0  0  0  0  0  0  0  0  0
   36.6940   25.0750   33.8400 H   0  0  0  0  0  0  0  0  0  0  0  0
   39.6120   25.8110   33.7080 H   0  0  0  0  0  0  0  0  0  0  0  0
   38.8350   27.9000   32.9300 H   0  0  0  0  0  0  0  0  0  0  0  0
   37.1230   27.4150   32.8820 H   0  0  0  0  0  0  0  0  0  0  0  0
   36.7510   27.8420   35.0260 H   0  0  0  0  0  0  0  0  0  0  0  0
   38.3170   28.6760   34.9780 H   0  0  0  0  0  0  0  0  0  0  0  0
   39.4370   26.6850   35.7340 H   0  0  0  0  0  0  0  0  0  0  0  0
   38.0240   27.0560   36.8350 H   0  0  0  0  0  0  0  0  0  0  0  0
   38.5910   25.4230   31.9570 N   0  0  1  0  0  0  0  0  0  0  0  0
   39.4760   26.2350   31.1360 C   0  0  0  0  0  0  0  0  0  0  0  0
   39.2220   25.6080   29.7620 C   0  0  0  0  0  0  0  0  0  0  0  0
   39.1900   24.1410   30.1220 C   0  0  0  0  0  0  0  0  0  0  0  0
   38.8900   24.1150   31.6400 C   0  0  2  0  0  0  0  0  0  0  0  0
   40.5410   26.0250   31.3870 H   0  0  0  0  0  0  0  0  0  0  0  0
   39.2320   27.3040   31.1700 H   0  0  0  0  0  0  0  0  0  0  0  0
   38.2970   26.0060   29.3490 H   0  0  0  0  0  0  0  0  0  0  0  0
   40.0630   25.8300   29.0730 H   0  0  0  0  0  0  0  0  0  0  0  0
   40.1640   23.6870   29.8890 H   0  0  0  0  0  0  0  0  0  0  0  0
   38.4120   23.6630   29.5320 H   0  0  0  0  0  0  0  0  0  0  0  0
   39.8320   23.8060   32.1120 H   0  0  0  0  0  0  0  0  0  0  0  0
   39.6540   21.6050   33.2280 Cl  0  0  0  0  0  0  0  0  0  0  0  0
   38.0920   21.8280   32.4660 C   0  0  0  0  0  0  0  0  0  0  0  0
   37.9060   23.0350   31.7790 C   0  0  0  0  0  0  0  0  0  0  0  0
   36.6480   23.1470   31.1990 C   0  0  0  0  0  0  0  0  0  0  0  0
   36.4580   24.0790   30.6490 H   0  0  0  0  0  0  0  0  0  0  0  0
   35.6320   22.2140   31.2490 C   0  0  0  0  0  3  0  0  0  0  0  0
   35.8850   21.0490   31.9430 C   0  0  0  0  0  0  0  0  0  0  0  0
   34.5920   19.8760   31.9990 Cl  0  0  0  0  0  0  0  0  0  0  0  0
   37.1110   20.8600   32.5480 C   0  0  0  0  0  0  0  0  0  0  0  0
   37.2950   19.9410   33.0890 H   0  0  0  0  0  0  0  0  0  0  0  0
   38.5480   24.4010   36.4810 C   0  0  0  0  0  0  0  0  0  0  0  0
   38.0620   24.2600   37.7830 C   0  0  0  0  0  0  0  0  0  0  0  0
   38.7650   23.3850   38.6250 C   0  0  0  0  0  0  0  0  0  0  0  0
   39.8750   22.7230   38.1420 N   0  0  0  0  0  0  0  0  0  0  0  0
   40.3070   22.8970   36.8650 C   0  0  0  0  0  0  0  0  0  0  0  0
   39.6420   23.7210   36.0750 N   0  0  0  0  0  0  0  0  0  0  0  0
   37.2730   24.6370   38.4010 H   0  0  0  0  0  0  0  0  0  0  0  0
   38.6020   23.1060   39.6480 H   0  0  0  0  0  0  0  0  0  0  0  0
   41.1810   22.3690   36.5050 H   0  0  0  0  0  0  0  0  0  0  0  0
  1  6  1  0  0  0  0
  1  7  1  1  0  0  0
  1 39  1  0  0  0  0
  2  1  1  0  0  0  0
  3  4  1  0  0  0  0
  3 10  1  1  0  0  0
  3  2  1  0  0  0  0
  4  5  1  0  0  0  0
  5 14  1  0  0  0  0
  5 13  1  0  0  0  0
  5  6  1  0  0  0  0
  6 16  1  0  0  0  0
  8  2  1  0  0  0  0
  9  2  1  0  0  0  0
 11  4  1  0  0  0  0
 12  4  1  0  0  0  0
 15  6  1  0  0  0  0
 17 18  1  6  0  0  0
 17  3  1  0  0  0  0
 18 23  1  0  0  0  0
 18 22  1  0  0  0  0
 19 20  1  0  0  0  0
 19 18  1  0  0  0  0
 20 21  1  0  0  0  0
 21 31  1  0  0  0  0
 21 17  1  0  0  0  0
 21 28  1  1  0  0  0
 24 19  1  0  0  0  0
 25 19  1  0  0  0  0
 26 20  1  0  0  0  0
 27 20  1  0  0  0  0
 30 37  1  0  0  0  0
 30 29  1  0  0  0  0
 31 30  2  0  0  0  0
 32 34  2  0  0  0  0
 32 31  1  0  0  0  0
 33 32  1  0  0  0  0
 34 35  1  0  0  0  0
 35 36  1  0  0  0  0
 35 37  2  0  0  0  0
 37 38  1  0  0  0  0
 39 40  1  0  0  0  0
 40 45  1  0  0  0  0
 40 41  2  0  0  0  0
 41 46  1  0  0  0  0
 42 41  1  0  0  0  0
 43 42  2  0  0  0  0
 44 39  2  0  0  0  0
 44 43  1  0  0  0  0
 47 43  1  0  0  0  0
M  END
>  <minimizedAffinity>
-6.02962255

$$$$

 OpenBabel03272507023D

 47 50  0  0  1  0  0  0  0  0999 V2000
   36.7760   23.2540   31.1030 C   0  0  2  0  0  0  0  0  0  0  0  0
   38.0480   23.9060   31.5200 C   0  0  0  0  0  0  0  0  0  0  0  0
   37.8250   25.0090   32.5400 C   0  0  2  0  0  0  0  0  0  0  0  0
   36.8920   26.0590   32.0140 C   0  0  0  0  0  0  0  0  0  0  0  0
   35.6750   25.4900   31.3690 C   0  0  0  0  0  0  0  0  0  0  0  0
   35.5410   23.9990   31.5490 C   0  0  0  0  0  0  0  0  0  0  0  0
   36.6560   23.1690   29.9830 H   0  0  0  0  0  0  0  0  0  0  0  0
   38.8440   23.3070   31.9220 H   0  0  0  0  0  0  0  0  0  0  0  0
   38.4010   24.4710   30.5950 H   0  0  0  0  0  0  0  0  0  0  0  0
   37.3420   24.5340   33.4150 H   0  0  0  0  0  0  0  0  0  0  0  0
   36.5930   26.7030   32.8630 H   0  0  0  0  0  0  0  0  0  0  0  0
   37.3370   26.7120   31.2460 H   0  0  0  0  0  0  0  0  0  0  0  0
   35.6530   25.6560   30.2630 H   0  0  0  0  0  0  0  0  0  0  0  0
   34.7640   25.9910   31.7630 H   0  0  0  0  0  0  0  0  0  0  0  0
   35.3840   23.8410   32.6470 H   0  0  0  0  0  0  0  0  0  0  0  0
   34.6810   23.6400   30.9710 H   0  0  0  0  0  0  0  0  0  0  0  0
   39.0340   25.6190   32.9500 N   0  0  1  0  0  0  0  0  0  0  0  0
   39.2200   26.9390   32.3660 C   0  0  0  0  0  0  0  0  0  0  0  0
   40.6010   27.2910   32.9290 C   0  0  0  0  0  0  0  0  0  0  0  0
   40.4660   26.7880   34.3470 C   0  0  0  0  0  0  0  0  0  0  0  0
   39.3030   25.7670   34.2940 C   0  0  2  0  0  0  0  0  0  0  0  0
   38.5030   27.6660   32.8130 H   0  0  0  0  0  0  0  0  0  0  0  0
   39.1940   26.9310   31.2700 H   0  0  0  0  0  0  0  0  0  0  0  0
   41.3690   26.8010   32.3330 H   0  0  0  0  0  0  0  0  0  0  0  0
   40.7590   28.3890   32.9100 H   0  0  0  0  0  0  0  0  0  0  0  0
   40.2380   27.6330   35.0130 H   0  0  0  0  0  0  0  0  0  0  0  0
   41.4100   26.3350   34.6390 H   0  0  0  0  0  0  0  0  0  0  0  0
   38.4670   26.2590   34.8060 H   0  0  0  0  0  0  0  0  0  0  0  0
   37.5010   24.6880   36.5270 Cl  0  0  0  0  0  0  0  0  0  0  0  0
   39.0930   24.0450   36.1750 C   0  0  0  0  0  0  0  0  0  0  0  0
   39.7850   24.6530   35.1190 C   0  0  0  0  0  0  0  0  0  0  0  0
   41.0380   24.0970   34.8930 C   0  0  0  0  0  0  0  0  0  0  0  0
   41.6170   24.5430   34.0740 H   0  0  0  0  0  0  0  0  0  0  0  0
   41.6130   23.0530   35.5890 C   0  0  0  0  0  3  0  0  0  0  0  0
   40.8740   22.5030   36.6160 C   0  0  0  0  0  0  0  0  0  0  0  0
   41.6120   21.1830   37.4900 Cl  0  0  0  0  0  0  0  0  0  0  0  0
   39.6190   22.9980   36.9040 C   0  0  0  0  0  0  0  0  0  0  0  0
   39.0510   22.5570   37.7120 H   0  0  0  0  0  0  0  0  0  0  0  0
   36.6530   21.8680   31.6170 C   0  0  0  0  0  0  0  0  0  0  0  0
   35.4650   21.5970   32.3000 C   0  0  0  0  0  0  0  0  0  0  0  0
   35.3040   20.2920   32.7880 C   0  0  0  0  0  0  0  0  0  0  0  0
   36.3000   19.3600   32.5780 N   0  0  0  0  0  0  0  0  0  0  0  0
   37.4390   19.6760   31.9070 C   0  0  0  0  0  0  0  0  0  0  0  0
   37.5870   20.9060   31.4480 N   0  0  0  0  0  0  0  0  0  0  0  0
   34.5710   22.1010   32.6060 H   0  0  0  0  0  0  0  0  0  0  0  0
   34.5010   19.8360   33.3340 H   0  0  0  0  0  0  0  0  0  0  0  0
   38.2090   18.9310   31.7520 H   0  0  0  0  0  0  0  0  0  0  0  0
  1  7  1  6  0  0  0
  1  2  1  0  0  0  0
  1  6  1  0  0  0  0
  1 39  1  0  0  0  0
  2  8  1  0  0  0  0
  2  3  1  0  0  0  0
  3 17  1  0  0  0  0
  3 10  1  1  0  0  0
  4  3  1  0  0  0  0
  4 11  1  0  0  0  0
  5  6  1  0  0  0  0
  5 14  1  0  0  0  0
  5  4  1  0  0  0  0
  6 15  1  0  0  0  0
  9  2  1  0  0  0  0
 12  4  1  0  0  0  0
 13  5  1  0  0  0  0
 16  6  1  0  0  0  0
 17 18  1  6  0  0  0
 17 21  1  0  0  0  0
 18 22  1  0  0  0  0
 18 19  1  0  0  0  0
 19 20  1  0  0  0  0
 20 27  1  0  0  0  0
 20 26  1  0  0  0  0
 21 20  1  0  0  0  0
 21 28  1  1  0  0  0
 21 31  1  0  0  0  0
 23 18  1  0  0  0  0
 24 19  1  0  0  0  0
 25 19  1  0  0  0  0
 30 29  1  0  0  0  0
 30 37  1  0  0  0  0
 31 30  2  0  0  0  0
 32 31  1  0  0  0  0
 32 34  2  0  0  0  0
 33 32  1  0  0  0  0
 34 35  1  0  0  0  0
 35 37  2  0  0  0  0
 35 36  1  0  0  0  0
 37 38  1  0  0  0  0
 39 40  1  0  0  0  0
 40 45  1  0  0  0  0
 40 41  2  0  0  0  0
 41 46  1  0  0  0  0
 42 41  1  0  0  0  0
 43 42  2  0  0  0  0
 44 39  2  0  0  0  0
 44 43  1  0  0  0  0
 47 43  1  0  0  0  0
M  END
>  <minimizedAffinity>
-5.9646349

$$$$

 OpenBabel03272507023D

 47 50  0  0  1  0  0  0  0  0999 V2000
   37.8720   25.8200   32.8160 C   0  0  2  0  0  0  0  0  0  0  0  0
   37.8110   27.2630   32.4530 C   0  0  0  0  0  0  0  0  0  0  0  0
   36.4280   27.6840   31.9920 C   0  0  2  0  0  0  0  0  0  0  0  0
   35.9710   26.8690   30.8190 C   0  0  0  0  0  0  0  0  0  0  0  0
   36.1980   25.4070   30.9990 C   0  0  0  0  0  0  0  0  0  0  0  0
   36.6560   25.0360   32.3860 C   0  0  0  0  0  0  0  0  0  0  0  0
   38.7370   25.2680   32.3410 H   0  0  0  0  0  0  0  0  0  0  0  0
   38.1080   28.0040   33.1720 H   0  0  0  0  0  0  0  0  0  0  0  0
   38.4420   27.3500   31.5070 H   0  0  0  0  0  0  0  0  0  0  0  0
   35.7410   27.4800   32.8350 H   0  0  0  0  0  0  0  0  0  0  0  0
   34.8900   27.0600   30.6740 H   0  0  0  0  0  0  0  0  0  0  0  0
   36.4780   27.1180   29.8730 H   0  0  0  0  0  0  0  0  0  0  0  0
   36.9820   25.0030   30.3110 H   0  0  0  0  0  0  0  0  0  0  0  0
   35.2710   24.8440   30.7550 H   0  0  0  0  0  0  0  0  0  0  0  0
   35.7960   25.2790   33.0620 H   0  0  0  0  0  0  0  0  0  0  0  0
   36.8940   23.9670   32.4150 H   0  0  0  0  0  0  0  0  0  0  0  0
   36.3640   29.0590   31.6610 N   0  0  1  0  0  0  0  0  0  0  0  0
   36.7630   29.3230   30.2870 C   0  0  0  0  0  0  0  0  0  0  0  0
   36.6560   30.8510   30.2630 C   0  0  0  0  0  0  0  0  0  0  0  0
   35.3720   31.0570   31.0320 C   0  0  0  0  0  0  0  0  0  0  0  0
   35.1850   29.7510   31.8430 C   0  0  2  0  0  0  0  0  0  0  0  0
   35.9920   28.9410   29.5780 H   0  0  0  0  0  0  0  0  0  0  0  0
   37.7730   28.9610   30.0570 H   0  0  0  0  0  0  0  0  0  0  0  0
   37.5460   31.2820   30.7180 H   0  0  0  0  0  0  0  0  0  0  0  0
   36.5570   31.2160   29.2200 H   0  0  0  0  0  0  0  0  0  0  0  0
   34.5460   31.2210   30.3250 H   0  0  0  0  0  0  0  0  0  0  0  0
   35.4920   31.9310   31.6660 H   0  0  0  0  0  0  0  0  0  0  0  0
   34.3500   29.2310   31.3580 H   0  0  0  0  0  0  0  0  0  0  0  0
   32.4180   28.9380   32.8830 Cl  0  0  0  0  0  0  0  0  0  0  0  0
   33.5300   29.9480   33.7850 C   0  0  0  0  0  0  0  0  0  0  0  0
   34.7560   30.2240   33.1640 C   0  0  0  0  0  0  0  0  0  0  0  0
   35.5890   31.0290   33.9320 C   0  0  0  0  0  0  0  0  0  0  0  0
   36.5620   31.2720   33.4830 H   0  0  0  0  0  0  0  0  0  0  0  0
   35.3140   31.5420   35.1830 C   0  0  0  0  0  3  0  0  0  0  0  0
   34.0890   31.2300   35.7320 C   0  0  0  0  0  0  0  0  0  0  0  0
   33.7520   31.8850   37.3160 Cl  0  0  0  0  0  0  0  0  0  0  0  0
   33.2030   30.4350   35.0340 C   0  0  0  0  0  0  0  0  0  0  0  0
   32.2450   30.1970   35.4780 H   0  0  0  0  0  0  0  0  0  0  0  0
   38.0280   25.6090   34.2760 C   0  0  0  0  0  0  0  0  0  0  0  0
   38.1540   26.7790   35.0300 C   0  0  0  0  0  0  0  0  0  0  0  0
   38.2860   26.6220   36.4170 C   0  0  0  0  0  0  0  0  0  0  0  0
   38.2860   25.3530   36.9610 N   0  0  0  0  0  0  0  0  0  0  0  0
   38.1610   24.2460   36.1820 C   0  0  0  0  0  0  0  0  0  0  0  0
   38.0360   24.3980   34.8760 N   0  0  0  0  0  0  0  0  0  0  0  0
   38.1960   27.8380   34.8830 H   0  0  0  0  0  0  0  0  0  0  0  0
   38.3960   27.3440   37.2020 H   0  0  0  0  0  0  0  0  0  0  0  0
   38.1640   23.2590   36.6270 H   0  0  0  0  0  0  0  0  0  0  0  0
  1  7  1  6  0  0  0
  1 39  1  0  0  0  0
  2  1  1  0  0  0  0
  2  8  1  0  0  0  0
  3  2  1  0  0  0  0
  3 10  1  1  0  0  0
  4  5  1  0  0  0  0
  4  3  1  0  0  0  0
  5  6  1  0  0  0  0
  6 16  1  0  0  0  0
  6  1  1  0  0  0  0
  6 15  1  0  0  0  0
  9  2  1  0  0  0  0
 11  4  1  0  0  0  0
 12  4  1  0  0  0  0
 13  5  1  0  0  0  0
 14  5  1  0  0  0  0
 17 18  1  6  0  0  0
 17 21  1  0  0  0  0
 17  3  1  0  0  0  0
 19 18  1  0  0  0  0
 19 24  1  0  0  0  0
 19 20  1  0  0  0  0
 20 27  1  0  0  0  0
 20 21  1  0  0  0  0
 21 28  1  6  0  0  0
 21 31  1  0  0  0  0
 22 18  1  0  0  0  0
 23 18  1  0  0  0  0
 25 19  1  0  0  0  0
 26 20  1  0  0  0  0
 29 30  1  0  0  0  0
 30 37  1  0  0  0  0
 31 30  2  0  0  0  0
 31 32  1  0  0  0  0
 32 34  2  0  0  0  0
 33 32  1  0  0  0  0
 34 35  1  0  0  0  0
 35 36  1  0  0  0  0
 37 38  1  0  0  0  0
 37 35  2  0  0  0  0
 39 44  2  0  0  0  0
 39 40  1  0  0  0  0
 40 41  2  0  0  0  0
 41 42  1  0  0  0  0
 41 46  1  0  0  0  0
 43 47  1  0  0  0  0
 43 42  2  0  0  0  0
 44 43  1  0  0  0  0
 45 40  1  0  0  0  0
M  END
>  <minimizedAffinity>
-5.80910921

$$$$

 OpenBabel03272507023D

 47 50  0  0  1  0  0  0  0  0999 V2000
   39.6910   25.6880   35.0360 C   0  0  2  0  0  0  0  0  0  0  0  0
   38.8380   25.2960   33.8800 C   0  0  0  0  0  0  0  0  0  0  0  0
   38.0480   26.4670   33.3230 C   0  0  2  0  0  0  0  0  0  0  0  0
   37.1810   27.0910   34.3750 C   0  0  0  0  0  0  0  0  0  0  0  0
   37.8970   27.3210   35.6620 C   0  0  0  0  0  0  0  0  0  0  0  0
   39.3800   27.0610   35.5790 C   0  0  0  0  0  0  0  0  0  0  0  0
   39.5830   25.0070   35.9310 H   0  0  0  0  0  0  0  0  0  0  0  0
   39.2870   24.8250   33.0250 H   0  0  0  0  0  0  0  0  0  0  0  0
   38.0340   24.6250   34.3280 H   0  0  0  0  0  0  0  0  0  0  0  0
   38.7910   27.2230   33.0030 H   0  0  0  0  0  0  0  0  0  0  0  0
   36.8110   28.0570   33.9800 H   0  0  0  0  0  0  0  0  0  0  0  0
   36.3000   26.4880   34.6490 H   0  0  0  0  0  0  0  0  0  0  0  0
   37.5280   26.6630   36.4870 H   0  0  0  0  0  0  0  0  0  0  0  0
   37.7260   28.3620   36.0130 H   0  0  0  0  0  0  0  0  0  0  0  0
   39.7840   27.8400   34.8820 H   0  0  0  0  0  0  0  0  0  0  0  0
   39.8210   27.1570   36.5780 H   0  0  0  0  0  0  0  0  0  0  0  0
   37.2490   26.1000   32.2140 N   0  0  1  0  0  0  0  0  0  0  0  0
   36.6620   24.7760   32.3610 C   0  0  0  0  0  0  0  0  0  0  0  0
   35.9390   24.6500   31.0160 C   0  0  0  0  0  0  0  0  0  0  0  0
   35.3580   26.0380   30.8760 C   0  0  0  0  0  0  0  0  0  0  0  0
   36.2150   26.9200   31.8150 C   0  0  2  0  0  0  0  0  0  0  0  0
   35.8700   24.7880   33.1450 H   0  0  0  0  0  0  0  0  0  0  0  0
   37.4100   23.9910   32.5200 H   0  0  0  0  0  0  0  0  0  0  0  0
   36.6540   24.3650   30.2480 H   0  0  0  0  0  0  0  0  0  0  0  0
   35.1350   23.8880   31.0780 H   0  0  0  0  0  0  0  0  0  0  0  0
   34.3010   26.0230   31.1800 H   0  0  0  0  0  0  0  0  0  0  0  0
   35.4360   26.3350   29.8330 H   0  0  0  0  0  0  0  0  0  0  0  0
   35.5590   27.1580   32.6620 H   0  0  0  0  0  0  0  0  0  0  0  0
   34.8850   29.5360   32.7050 Cl  0  0  0  0  0  0  0  0  0  0  0  0
   35.9170   29.4080   31.2930 C   0  0  0  0  0  0  0  0  0  0  0  0
   36.4460   28.1380   31.0280 C   0  0  0  0  0  0  0  0  0  0  0  0
   37.2540   28.1060   29.8980 C   0  0  0  0  0  0  0  0  0  0  0  0
   37.6900   27.1290   29.6520 H   0  0  0  0  0  0  0  0  0  0  0  0
   37.5540   29.1690   29.0710 C   0  0  0  0  0  3  0  0  0  0  0  0
   36.9990   30.3890   29.3920 C   0  0  0  0  0  0  0  0  0  0  0  0
   37.3860   31.7270   28.3370 Cl  0  0  0  0  0  0  0  0  0  0  0  0
   36.1850   30.5050   30.5000 C   0  0  0  0  0  0  0  0  0  0  0  0
   35.7560   31.4700   30.7400 H   0  0  0  0  0  0  0  0  0  0  0  0
   41.1370   25.6730   34.7050 C   0  0  0  0  0  0  0  0  0  0  0  0
   41.6280   26.8600   34.1570 C   0  0  0  0  0  0  0  0  0  0  0  0
   42.9950   26.8910   33.8460 C   0  0  0  0  0  0  0  0  0  0  0  0
   43.7730   25.7770   34.0880 N   0  0  0  0  0  0  0  0  0  0  0  0
   43.2450   24.6440   34.6230 C   0  0  0  0  0  0  0  0  0  0  0  0
   41.9570   24.6190   34.9150 N   0  0  0  0  0  0  0  0  0  0  0  0
   41.2730   27.8270   33.8650 H   0  0  0  0  0  0  0  0  0  0  0  0
   43.6070   27.6650   33.4250 H   0  0  0  0  0  0  0  0  0  0  0  0
   43.8710   23.7800   34.8050 H   0  0  0  0  0  0  0  0  0  0  0  0
  1  6  1  0  0  0  0
  1  7  1  1  0  0  0
  2  9  1  0  0  0  0
  2  1  1  0  0  0  0
  3 10  1  6  0  0  0
  3  2  1  0  0  0  0
  3  4  1  0  0  0  0
  4 12  1  0  0  0  0
  4  5  1  0  0  0  0
  5 14  1  0  0  0  0
  5 13  1  0  0  0  0
  6  5  1  0  0  0  0
  6 16  1  0  0  0  0
  8  2  1  0  0  0  0
 11  4  1  0  0  0  0
 15  6  1  0  0  0  0
 17 18  1  1  0  0  0
 17  3  1  0  0  0  0
 18 23  1  0  0  0  0
 18 22  1  0  0  0  0
 19 25  1  0  0  0  0
 19 18  1  0  0  0  0
 20 19  1  0  0  0  0
 20 26  1  0  0  0  0
 20 21  1  0  0  0  0
 21 17  1  0  0  0  0
 21 28  1  1  0  0  0
 24 19  1  0  0  0  0
 27 20  1  0  0  0  0
 30 29  1  0  0  0  0
 31 30  1  0  0  0  0
 31 21  1  0  0  0  0
 32 31  2  0  0  0  0
 33 32  1  0  0  0  0
 34 35  2  0  0  0  0
 34 32  1  0  0  0  0
 35 37  1  0  0  0  0
 36 35  1  0  0  0  0
 37 38  1  0  0  0  0
 37 30  2  0  0  0  0
 39 44  1  0  0  0  0
 39  1  1  0  0  0  0
 40 39  2  0  0  0  0
 41 42  2  0  0  0  0
 41 40  1  0  0  0  0
 42 43  1  0  0  0  0
 43 47  1  0  0  0  0
 43 44  2  0  0  0  0
 45 40  1  0  0  0  0
 46 41  1  0  0  0  0
M  END
>  <minimizedAffinity>
-5.7790041

$$$$

 OpenBabel03272507023D

 47 50  0  0  1  0  0  0  0  0999 V2000
   38.4080   25.0540   35.8890 C   0  0  2  0  0  0  0  0  0  0  0  0
   37.6950   24.7980   34.6060 C   0  0  0  0  0  0  0  0  0  0  0  0
   37.8880   25.9230   33.6040 C   0  0  2  0  0  0  0  0  0  0  0  0
   37.4270   27.2360   34.1610 C   0  0  0  0  0  0  0  0  0  0  0  0
   37.9140   27.4870   35.5470 C   0  0  0  0  0  0  0  0  0  0  0  0
   38.9180   26.4680   36.0250 C   0  0  0  0  0  0  0  0  0  0  0  0
   37.7620   24.9050   36.8040 H   0  0  0  0  0  0  0  0  0  0  0  0
   37.8940   23.8950   34.0600 H   0  0  0  0  0  0  0  0  0  0  0  0
   36.5890   24.8690   34.8710 H   0  0  0  0  0  0  0  0  0  0  0  0
   38.9770   25.9950   33.4210 H   0  0  0  0  0  0  0  0  0  0  0  0
   37.7940   28.0370   33.4900 H   0  0  0  0  0  0  0  0  0  0  0  0
   36.3320   27.3380   34.2260 H   0  0  0  0  0  0  0  0  0  0  0  0
   37.0920   27.4690   36.3050 H   0  0  0  0  0  0  0  0  0  0  0  0
   38.3600   28.5030   35.6180 H   0  0  0  0  0  0  0  0  0  0  0  0
   39.8190   26.6060   35.3740 H   0  0  0  0  0  0  0  0  0  0  0  0
   39.1550   26.6600   37.0780 H   0  0  0  0  0  0  0  0  0  0  0  0
   37.2250   25.6740   32.3790 N   0  0  1  0  0  0  0  0  0  0  0  0
   36.5690   24.3750   32.3520 C   0  0  0  0  0  0  0  0  0  0  0  0
   36.0210   24.3780   30.9210 C   0  0  0  0  0  0  0  0  0  0  0  0
   35.5220   25.8000   30.8120 C   0  0  0  0  0  0  0  0  0  0  0  0
   36.2870   26.5710   31.9150 C   0  0  2  0  0  0  0  0  0  0  0  0
   35.6830   24.3730   33.0280 H   0  0  0  0  0  0  0  0  0  0  0  0
   37.2570   23.5430   32.5450 H   0  0  0  0  0  0  0  0  0  0  0  0
   36.8180   24.1100   30.2300 H   0  0  0  0  0  0  0  0  0  0  0  0
   35.1860   23.6550   30.8240 H   0  0  0  0  0  0  0  0  0  0  0  0
   34.4350   25.8180   30.9780 H   0  0  0  0  0  0  0  0  0  0  0  0
   35.7470   26.1640   29.8120 H   0  0  0  0  0  0  0  0  0  0  0  0
   35.5370   26.7840   32.6870 H   0  0  0  0  0  0  0  0  0  0  0  0
   38.8080   26.6240   30.1710 Cl  0  0  0  0  0  0  0  0  0  0  0  0
   37.7840   28.0230   30.4320 C   0  0  0  0  0  0  0  0  0  0  0  0
   36.6680   27.8260   31.2570 C   0  0  0  0  0  0  0  0  0  0  0  0
   35.9010   28.9730   31.4220 C   0  0  0  0  0  0  0  0  0  0  0  0
   35.0150   28.8650   32.0620 H   0  0  0  0  0  0  0  0  0  0  0  0
   36.1420   30.2120   30.8650 C   0  0  0  0  0  3  0  0  0  0  0  0
   37.2580   30.3330   30.0640 C   0  0  0  0  0  0  0  0  0  0  0  0
   37.5530   31.9060   29.3650 Cl  0  0  0  0  0  0  0  0  0  0  0  0
   38.0730   29.2400   29.8490 C   0  0  0  0  0  0  0  0  0  0  0  0
   38.9450   29.3500   29.2180 H   0  0  0  0  0  0  0  0  0  0  0  0
   39.5720   24.1550   36.0790 C   0  0  0  0  0  0  0  0  0  0  0  0
   39.4220   23.2040   37.0920 C   0  0  0  0  0  0  0  0  0  0  0  0
   40.4950   22.3240   37.2930 C   0  0  0  0  0  0  0  0  0  0  0  0
   41.6220   22.4350   36.5030 N   0  0  0  0  0  0  0  0  0  0  0  0
   41.7180   23.3790   35.5300 C   0  0  0  0  0  0  0  0  0  0  0  0
   40.7040   24.2060   35.3440 N   0  0  0  0  0  0  0  0  0  0  0  0
   38.7030   22.9110   37.8300 H   0  0  0  0  0  0  0  0  0  0  0  0
   40.6290   21.5210   37.9900 H   0  0  0  0  0  0  0  0  0  0  0  0
   42.6100   23.4510   34.9210 H   0  0  0  0  0  0  0  0  0  0  0  0
  1  6  1  0  0  0  0
  1 39  1  0  0  0  0
  1  7  1  1  0  0  0
  2  9  1  0  0  0  0
  2  1  1  0  0  0  0
  3 10  1  6  0  0  0
  3  4  1  0  0  0  0
  3  2  1  0  0  0  0
  4 12  1  0  0  0  0
  4  5  1  0  0  0  0
  5 14  1  0  0  0  0
  5  6  1  0  0  0  0
  5 13  1  0  0  0  0
  6 16  1  0  0  0  0
  8  2  1  0  0  0  0
 11  4  1  0  0  0  0
 15  6  1  0  0  0  0
 17 18  1  1  0  0  0
 17  3  1  0  0  0  0
 18 23  1  0  0  0  0
 18 22  1  0  0  0  0
 19 18  1  0  0  0  0
 20 19  1  0  0  0  0
 20 26  1  0  0  0  0
 20 21  1  0  0  0  0
 21 17  1  0  0  0  0
 21 28  1  1  0  0  0
 24 19  1  0  0  0  0
 25 19  1  0  0  0  0
 27 20  1  0  0  0  0
 29 30  1  0  0  0  0
 30 31  1  0  0  0  0
 31 32  2  0  0  0  0
 31 21  1  0  0  0  0
 32 33  1  0  0  0  0
 34 32  1  0  0  0  0
 35 34  2  0  0  0  0
 36 35  1  0  0  0  0
 37 35  1  0  0  0  0
 37 30  2  0  0  0  0
 38 37  1  0  0  0  0
 39 40  1  0  0  0  0
 40 41  2  0  0  0  0
 40 45  1  0  0  0  0
 41 46  1  0  0  0  0
 42 41  1  0  0  0  0
 43 42  2  0  0  0  0
 44 43  1  0  0  0  0
 44 39  2  0  0  0  0
 47 43  1  0  0  0  0
M  END
>  <minimizedAffinity>
-5.75622368

$$$$

 OpenBabel03272507023D

 47 50  0  0  1  0  0  0  0  0999 V2000
   37.2880   23.8710   31.1260 C   0  0  2  0  0  0  0  0  0  0  0  0
   37.9980   24.5820   32.2260 C   0  0  0  0  0  0  0  0  0  0  0  0
   37.0570   25.4160   33.0770 C   0  0  2  0  0  0  0  0  0  0  0  0
   36.3180   26.4230   32.2470 C   0  0  0  0  0  0  0  0  0  0  0  0
   35.7520   25.8460   30.9940 C   0  0  0  0  0  0  0  0  0  0  0  0
   35.8710   24.3450   30.9160 C   0  0  0  0  0  0  0  0  0  0  0  0
   37.7740   24.0010   30.1140 H   0  0  0  0  0  0  0  0  0  0  0  0
   38.5890   24.0200   32.9260 H   0  0  0  0  0  0  0  0  0  0  0  0
   38.6390   25.3620   31.6990 H   0  0  0  0  0  0  0  0  0  0  0  0
   36.3130   24.7140   33.5010 H   0  0  0  0  0  0  0  0  0  0  0  0
   35.4990   26.8370   32.8660 H   0  0  0  0  0  0  0  0  0  0  0  0
   36.9370   27.2700   31.9100 H   0  0  0  0  0  0  0  0  0  0  0  0
   36.2570   26.2300   30.0740 H   0  0  0  0  0  0  0  0  0  0  0  0
   34.6840   26.1360   30.8890 H   0  0  0  0  0  0  0  0  0  0  0  0
   35.2180   23.9490   31.7370 H   0  0  0  0  0  0  0  0  0  0  0  0
   35.5230   24.0050   29.9340 H   0  0  0  0  0  0  0  0  0  0  0  0
   37.7270   26.0790   34.1320 N   0  0  1  0  0  0  0  0  0  0  0  0
   37.0840   27.3310   34.5030 C   0  0  0  0  0  0  0  0  0  0  0  0
   38.0530   27.8210   35.5840 C   0  0  0  0  0  0  0  0  0  0  0  0
   38.3290   26.5330   36.3230 C   0  0  0  0  0  0  0  0  0  0  0  0
   37.9570   25.4160   35.3190 C   0  0  2  0  0  0  0  0  0  0  0  0
   36.1140   27.1330   35.0150 H   0  0  0  0  0  0  0  0  0  0  0  0
   36.9910   28.0300   33.6630 H   0  0  0  0  0  0  0  0  0  0  0  0
   38.9180   28.2810   35.1110 H   0  0  0  0  0  0  0  0  0  0  0  0
   37.5540   28.5600   36.2450 H   0  0  0  0  0  0  0  0  0  0  0  0
   37.7070   26.4920   37.2290 H   0  0  0  0  0  0  0  0  0  0  0  0
   39.3800   26.5180   36.5990 H   0  0  0  0  0  0  0  0  0  0  0  0
   37.0280   24.9800   35.7070 H   0  0  0  0  0  0  0  0  0  0  0  0
   40.7280   26.1030   34.1990 Cl  0  0  0  0  0  0  0  0  0  0  0  0
   40.3620   24.5960   35.0160 C   0  0  0  0  0  0  0  0  0  0  0  0
   39.0450   24.4420   35.4680 C   0  0  0  0  0  0  0  0  0  0  0  0
   38.8230   23.2270   36.1060 C   0  0  0  0  0  0  0  0  0  0  0  0
   37.8020   23.0630   36.4770 H   0  0  0  0  0  0  0  0  0  0  0  0
   39.7500   22.2260   36.3140 C   0  0  0  0  0  3  0  0  0  0  0  0
   41.0260   22.4460   35.8430 C   0  0  0  0  0  0  0  0  0  0  0  0
   42.1900   21.1710   36.1120 Cl  0  0  0  0  0  0  0  0  0  0  0  0
   41.3290   23.6270   35.1980 C   0  0  0  0  0  0  0  0  0  0  0  0
   42.3350   23.7860   34.8330 H   0  0  0  0  0  0  0  0  0  0  0  0
   37.2250   22.4050   31.3450 C   0  0  0  0  0  0  0  0  0  0  0  0
   38.3540   21.8520   31.9540 C   0  0  0  0  0  0  0  0  0  0  0  0
   38.3260   20.4700   32.1930 C   0  0  0  0  0  0  0  0  0  0  0  0
   37.2140   19.7390   31.8270 N   0  0  0  0  0  0  0  0  0  0  0  0
   36.1400   20.3270   31.2360 C   0  0  0  0  0  0  0  0  0  0  0  0
   36.1700   21.6290   31.0130 N   0  0  0  0  0  0  0  0  0  0  0  0
   39.3130   22.1590   32.3160 H   0  0  0  0  0  0  0  0  0  0  0  0
   39.0500   19.8160   32.6380 H   0  0  0  0  0  0  0  0  0  0  0  0
   35.2770   19.7370   30.9550 H   0  0  0  0  0  0  0  0  0  0  0  0
  1  7  1  6  0  0  0
  1 39  1  0  0  0  0
  1  2  1  0  0  0  0
  2  8  1  0  0  0  0
  2  3  1  0  0  0  0
  3 10  1  1  0  0  0
  3 17  1  0  0  0  0
  4 11  1  0  0  0  0
  4  3  1  0  0  0  0
  5  4  1  0  0  0  0
  6  5  1  0  0  0  0
  6  1  1  0  0  0  0
  6 15  1  0  0  0  0
  9  2  1  0  0  0  0
 12  4  1  0  0  0  0
 13  5  1  0  0  0  0
 14  5  1  0  0  0  0
 16  6  1  0  0  0  0
 17 18  1  1  0  0  0
 17 21  1  0  0  0  0
 18 22  1  0  0  0  0
 18 19  1  0  0  0  0
 19 25  1  0  0  0  0
 19 20  1  0  0  0  0
 20 27  1  0  0  0  0
 20 26  1  0  0  0  0
 21 31  1  0  0  0  0
 21 28  1  1  0  0  0
 21 20  1  0  0  0  0
 23 18  1  0  0  0  0
 24 19  1  0  0  0  0
 29 30  1  0  0  0  0
 30 37  2  0  0  0  0
 30 31  1  0  0  0  0
 31 32  2  0  0  0  0
 32 34  1  0  0  0  0
 32 33  1  0  0  0  0
 35 36  1  0  0  0  0
 35 34  2  0  0  0  0
 37 35  1  0  0  0  0
 38 37  1  0  0  0  0
 39 40  1  0  0  0  0
 40 41  2  0  0  0  0
 40 45  1  0  0  0  0
 41 46  1  0  0  0  0
 42 41  1  0  0  0  0
 43 42  2  0  0  0  0
 44 43  1  0  0  0  0
 44 39  2  0  0  0  0
 47 43  1  0  0  0  0
M  END
>  <minimizedAffinity>
-5.74014139

$$$$

 OpenBabel03272507023D

 47 50  0  0  1  0  0  0  0  0999 V2000
   38.5040   22.5010   33.5900 C   0  0  2  0  0  0  0  0  0  0  0  0
   38.5970   23.8050   32.8780 C   0  0  0  0  0  0  0  0  0  0  0  0
   37.2360   24.4380   32.6520 C   0  0  2  0  0  0  0  0  0  0  0  0
   36.3310   23.5270   31.8770 C   0  0  0  0  0  0  0  0  0  0  0  0
   36.3400   22.1250   32.3840 C   0  0  0  0  0  0  0  0  0  0  0  0
   37.0980   21.9580   33.6770 C   0  0  0  0  0  0  0  0  0  0  0  0
   39.0890   21.6700   33.0950 H   0  0  0  0  0  0  0  0  0  0  0  0
   39.2100   24.5890   33.2840 H   0  0  0  0  0  0  0  0  0  0  0  0
   38.9400   23.5360   31.8250 H   0  0  0  0  0  0  0  0  0  0  0  0
   36.7900   24.5880   33.6540 H   0  0  0  0  0  0  0  0  0  0  0  0
   35.3050   23.9360   31.9380 H   0  0  0  0  0  0  0  0  0  0  0  0
   36.5880   23.4400   30.8090 H   0  0  0  0  0  0  0  0  0  0  0  0
   36.8150   21.4090   31.6690 H   0  0  0  0  0  0  0  0  0  0  0  0
   35.2980   21.7620   32.5200 H   0  0  0  0  0  0  0  0  0  0  0  0
   36.5190   22.5380   34.4420 H   0  0  0  0  0  0  0  0  0  0  0  0
   37.1420   20.8940   33.9350 H   0  0  0  0  0  0  0  0  0  0  0  0
   37.3240   25.6860   31.9900 N   0  0  1  0  0  0  0  0  0  0  0  0
   36.0400   26.1330   31.4680 C   0  0  0  0  0  0  0  0  0  0  0  0
   36.4680   27.4300   30.7740 C   0  0  0  0  0  0  0  0  0  0  0  0
   37.4320   27.9920   31.7920 C   0  0  0  0  0  0  0  0  0  0  0  0
   37.8540   26.7740   32.6490 C   0  0  2  0  0  0  0  0  0  0  0  0
   35.3640   26.4310   32.3020 H   0  0  0  0  0  0  0  0  0  0  0  0
   35.5810   25.4120   30.7810 H   0  0  0  0  0  0  0  0  0  0  0  0
   36.9020   27.1940   29.8040 H   0  0  0  0  0  0  0  0  0  0  0  0
   35.5970   28.1030   30.6380 H   0  0  0  0  0  0  0  0  0  0  0  0
   36.9210   28.7580   32.3940 H   0  0  0  0  0  0  0  0  0  0  0  0
   38.2670   28.4400   31.2600 H   0  0  0  0  0  0  0  0  0  0  0  0
   37.3590   26.9210   33.6180 H   0  0  0  0  0  0  0  0  0  0  0  0
   39.0280   26.8100   35.4820 Cl  0  0  0  0  0  0  0  0  0  0  0  0
   39.9960   26.9950   34.0320 C   0  0  0  0  0  0  0  0  0  0  0  0
   39.3010   26.9540   32.8160 C   0  0  0  0  0  0  0  0  0  0  0  0
   40.1260   27.1070   31.7080 C   0  0  0  0  0  0  0  0  0  0  0  0
   39.6230   27.0810   30.7320 H   0  0  0  0  0  0  0  0  0  0  0  0
   41.4950   27.2840   31.7200 C   0  0  0  0  0  3  0  0  0  0  0  0
   42.1120   27.3150   32.9520 C   0  0  0  0  0  0  0  0  0  0  0  0
   43.8440   27.5390   32.9540 Cl  0  0  0  0  0  0  0  0  0  0  0  0
   41.3630   27.1700   34.1020 C   0  0  0  0  0  0  0  0  0  0  0  0
   41.8620   27.1950   35.0620 H   0  0  0  0  0  0  0  0  0  0  0  0
   39.0240   22.5730   34.9770 C   0  0  0  0  0  0  0  0  0  0  0  0
   38.1470   23.1380   35.9060 C   0  0  0  0  0  0  0  0  0  0  0  0
   38.5960   23.2090   37.2330 C   0  0  0  0  0  0  0  0  0  0  0  0
   39.8520   22.7310   37.5520 N   0  0  0  0  0  0  0  0  0  0  0  0
   40.6670   22.1910   36.6090 C   0  0  0  0  0  0  0  0  0  0  0  0
   40.2410   22.1250   35.3600 N   0  0  0  0  0  0  0  0  0  0  0  0
   37.1720   23.5770   35.9380 H   0  0  0  0  0  0  0  0  0  0  0  0
   38.1260   23.5890   38.1190 H   0  0  0  0  0  0  0  0  0  0  0  0
   41.6490   21.8220   36.8780 H   0  0  0  0  0  0  0  0  0  0  0  0
  1  7  1  6  0  0  0
  1  6  1  0  0  0  0
  1 39  1  0  0  0  0
  2  8  1  0  0  0  0
  2  1  1  0  0  0  0
  3  2  1  0  0  0  0
  3 10  1  1  0  0  0
  4 11  1  0  0  0  0
  4  5  1  0  0  0  0
  4  3  1  0  0  0  0
  5 14  1  0  0  0  0
  5  6  1  0  0  0  0
  6 16  1  0  0  0  0
  6 15  1  0  0  0  0
  9  2  1  0  0  0  0
 12  4  1  0  0  0  0
 13  5  1  0  0  0  0
 17 18  1  1  0  0  0
 17 21  1  0  0  0  0
 17  3  1  0  0  0  0
 18 22  1  0  0  0  0
 19 18  1  0  0  0  0
 19 20  1  0  0  0  0
 20 26  1  0  0  0  0
 20 21  1  0  0  0  0
 21 31  1  0  0  0  0
 21 28  1  1  0  0  0
 23 18  1  0  0  0  0
 24 19  1  0  0  0  0
 25 19  1  0  0  0  0
 27 20  1  0  0  0  0
 30 37  1  0  0  0  0
 30 29  1  0  0  0  0
 31 30  2  0  0  0  0
 32 34  2  0  0  0  0
 32 31  1  0  0  0  0
 33 32  1  0  0  0  0
 34 35  1  0  0  0  0
 35 36  1  0  0  0  0
 35 37  2  0  0  0  0
 37 38  1  0  0  0  0
 39 44  2  0  0  0  0
 39 40  1  0  0  0  0
 40 45  1  0  0  0  0
 40 41  2  0  0  0  0
 41 42  1  0  0  0  0
 41 46  1  0  0  0  0
 43 47  1  0  0  0  0
 43 42  2  0  0  0  0
 44 43  1  0  0  0  0
M  END
>  <minimizedAffinity>
-5.71021843

$$$$

 OpenBabel03272507023D

 47 50  0  0  1  0  0  0  0  0999 V2000
   38.7190   22.5140   34.4130 C   0  0  2  0  0  0  0  0  0  0  0  0
   39.1540   23.7070   33.6350 C   0  0  0  0  0  0  0  0  0  0  0  0
   38.0030   24.3670   32.8980 C   0  0  2  0  0  0  0  0  0  0  0  0
   37.3230   23.4050   31.9710 C   0  0  0  0  0  0  0  0  0  0  0  0
   37.0420   22.0840   32.6010 C   0  0  0  0  0  0  0  0  0  0  0  0
   37.3200   22.0550   34.0830 C   0  0  0  0  0  0  0  0  0  0  0  0
   39.3580   21.5990   34.2360 H   0  0  0  0  0  0  0  0  0  0  0  0
   39.6680   24.5080   34.1340 H   0  0  0  0  0  0  0  0  0  0  0  0
   39.7970   23.2840   32.7940 H   0  0  0  0  0  0  0  0  0  0  0  0
   37.2690   24.6700   33.6710 H   0  0  0  0  0  0  0  0  0  0  0  0
   36.3730   23.8660   31.6400 H   0  0  0  0  0  0  0  0  0  0  0  0
   37.9050   23.1650   31.0660 H   0  0  0  0  0  0  0  0  0  0  0  0
   37.6590   21.2580   32.1690 H   0  0  0  0  0  0  0  0  0  0  0  0
   35.9850   21.7920   32.4200 H   0  0  0  0  0  0  0  0  0  0  0  0
   36.5770   22.7570   34.5420 H   0  0  0  0  0  0  0  0  0  0  0  0
   37.1830   21.0330   34.4570 H   0  0  0  0  0  0  0  0  0  0  0  0
   38.4110   25.5110   32.1720 N   0  0  1  0  0  0  0  0  0  0  0  0
   39.3340   25.1870   31.0930 C   0  0  0  0  0  0  0  0  0  0  0  0
   39.6320   26.5930   30.5610 C   0  0  0  0  0  0  0  0  0  0  0  0
   38.2530   27.2090   30.6030 C   0  0  0  0  0  0  0  0  0  0  0  0
   37.4630   26.3390   31.6100 C   0  0  2  0  0  0  0  0  0  0  0  0
   38.8030   24.6470   30.2760 H   0  0  0  0  0  0  0  0  0  0  0  0
   40.2320   24.6620   31.4410 H   0  0  0  0  0  0  0  0  0  0  0  0
   40.3740   27.0700   31.1990 H   0  0  0  0  0  0  0  0  0  0  0  0
   40.0130   26.5410   29.5210 H   0  0  0  0  0  0  0  0  0  0  0  0
   37.8090   27.1770   29.5980 H   0  0  0  0  0  0  0  0  0  0  0  0
   38.3520   28.2420   30.9280 H   0  0  0  0  0  0  0  0  0  0  0  0
   36.7570   25.7630   30.9980 H   0  0  0  0  0  0  0  0  0  0  0  0
   38.6080   27.2360   34.3090 Cl  0  0  0  0  0  0  0  0  0  0  0  0
   37.0970   27.8360   33.6530 C   0  0  0  0  0  0  0  0  0  0  0  0
   36.7180   27.3220   32.4060 C   0  0  0  0  0  0  0  0  0  0  0  0
   35.5130   27.8380   31.9450 C   0  0  0  0  0  0  0  0  0  0  0  0
   35.1770   27.4620   30.9690 H   0  0  0  0  0  0  0  0  0  0  0  0
   34.7140   28.7620   32.5860 C   0  0  0  0  0  3  0  0  0  0  0  0
   35.1490   29.2240   33.8100 C   0  0  0  0  0  0  0  0  0  0  0  0
   34.1290   30.3920   34.6130 Cl  0  0  0  0  0  0  0  0  0  0  0  0
   36.3360   28.7610   34.3390 C   0  0  0  0  0  0  0  0  0  0  0  0
   36.6660   29.1330   35.3000 H   0  0  0  0  0  0  0  0  0  0  0  0
   38.7630   22.7450   35.8780 C   0  0  0  0  0  0  0  0  0  0  0  0
   40.0020   22.4970   36.4750 C   0  0  0  0  0  0  0  0  0  0  0  0
   40.0880   22.7200   37.8570 C   0  0  0  0  0  0  0  0  0  0  0  0
   38.9770   23.1610   38.5460 N   0  0  0  0  0  0  0  0  0  0  0  0
   37.7940   23.3870   37.9160 C   0  0  0  0  0  0  0  0  0  0  0  0
   37.7160   23.1760   36.6140 N   0  0  0  0  0  0  0  0  0  0  0  0
   40.9800   22.1560   36.2050 H   0  0  0  0  0  0  0  0  0  0  0  0
   40.9080   22.6070   38.5410 H   0  0  0  0  0  0  0  0  0  0  0  0
   36.9320   23.7320   38.4730 H   0  0  0  0  0  0  0  0  0  0  0  0
  1  7  1  6  0  0  0
  1 39  1  0  0  0  0
  2  8  1  0  0  0  0
  2  1  1  0  0  0  0
  3  2  1  0  0  0  0
  3 10  1  1  0  0  0
  4  5  1  0  0  0  0
  4  3  1  0  0  0  0
  5  6  1  0  0  0  0
  6  1  1  0  0  0  0
  6 16  1  0  0  0  0
  6 15  1  0  0  0  0
  9  2  1  0  0  0  0
 11  4  1  0  0  0  0
 12  4  1  0  0  0  0
 13  5  1  0  0  0  0
 14  5  1  0  0  0  0
 17 18  1  6  0  0  0
 17  3  1  0  0  0  0
 18 23  1  0  0  0  0
 19 20  1  0  0  0  0
 19 18  1  0  0  0  0
 19 24  1  0  0  0  0
 20 27  1  0  0  0  0
 20 21  1  0  0  0  0
 21 28  1  6  0  0  0
 21 17  1  0  0  0  0
 21 31  1  0  0  0  0
 22 18  1  0  0  0  0
 25 19  1  0  0  0  0
 26 20  1  0  0  0  0
 30 29  1  0  0  0  0
 30 37  1  0  0  0  0
 31 30  2  0  0  0  0
 32 31  1  0  0  0  0
 32 34  2  0  0  0  0
 33 32  1  0  0  0  0
 34 35  1  0  0  0  0
 35 37  2  0  0  0  0
 35 36  1  0  0  0  0
 37 38  1  0  0  0  0
 39 40  2  0  0  0  0
 39 44  1  0  0  0  0
 40 41  1  0  0  0  0
 41 46  1  0  0  0  0
 41 42  2  0  0  0  0
 43 47  1  0  0  0  0
 43 42  1  0  0  0  0
 44 43  2  0  0  0  0
 45 40  1  0  0  0  0
M  END
>  <minimizedAffinity>
-5.66821289

$$$$
