
 OpenBabel03272503373D

 20 21  0  0  0  0  0  0  0  0999 V2000
   37.2460   29.8150   51.2560 C   0  0  0  0  0  0  0  0  0  0  0  0
   38.0770   30.3330   50.2590 C   0  0  0  0  0  0  0  0  0  0  0  0
   37.4910   30.6890   49.0570 C   0  0  0  0  0  0  0  0  0  0  0  0
   36.1400   30.5110   48.9280 N   0  0  0  0  0  0  0  0  0  0  0  0
   35.3530   30.0090   49.9030 C   0  0  0  0  0  0  0  0  0  0  0  0
   35.9310   29.6720   51.0500 N   0  0  0  0  0  0  0  0  0  0  0  0
   39.1430   30.4630   50.3900 H   0  0  0  0  0  0  0  0  0  0  0  0
   34.2890   29.8900   49.7430 H   0  0  0  0  0  0  0  0  0  0  0  0
   38.5500   33.4680   49.4530 Cl  0  0  0  0  0  0  0  0  0  0  0  0
   38.7630   32.4940   48.0010 C   0  0  0  0  0  0  0  0  0  0  0  0
   38.2300   31.2360   47.9410 C   0  0  0  0  0  0  0  0  0  0  0  0
   38.4540   30.5740   46.7780 C   0  0  0  0  0  0  0  0  0  0  0  0
   38.0800   29.5780   46.6220 H   0  0  0  0  0  0  0  0  0  0  0  0
   39.1690   31.0980   45.6960 C   0  0  0  0  0  0  0  0  0  0  0  0
   39.6730   32.3690   45.8310 C   0  0  0  0  0  0  0  0  0  0  0  0
   40.5770   33.0680   44.5000 Cl  0  0  0  0  0  0  0  0  0  0  0  0
   39.4800   33.0910   46.9870 C   0  0  0  0  0  0  0  0  0  0  0  0
   39.8950   34.0680   47.0300 H   0  0  0  0  0  0  0  0  0  0  0  0
   37.9250   29.4910   52.4160 O   0  0  0  0  0  0  0  0  0  0  0  0
   38.4970   30.2190   52.8310 H   0  0  0  0  0  0  0  0  0  0  0  0
  1 19  1  0  0  0  0
  2  7  1  0  0  0  0
  2  1  2  0  0  0  0
  3  2  1  0  0  0  0
  4  3  2  0  0  0  0
  4  5  1  0  0  0  0
  5  6  2  0  0  0  0
  6  1  1  0  0  0  0
  8  5  1  0  0  0  0
 10  9  1  0  0  0  0
 11 10  1  0  0  0  0
 11  3  1  0  0  0  0
 12 11  2  0  0  0  0
 13 12  1  0  0  0  0
 14 15  2  0  0  0  0
 14 12  1  0  0  0  0
 15 17  1  0  0  0  0
 16 15  1  0  0  0  0
 17 18  1  0  0  0  0
 17 10  2  0  0  0  0
 19 20  1  0  0  0  0
M  END
>  <minimizedAffinity>
-5.98883629

>  <minimizedRMSD>
1.4726429

$$$$
