REMARK  Name = 
REMARK  3 active torsions:
REMARK  status: ('A' for Active; 'I' for Inactive)
REMARK    1  A    between atoms: C_1  and  C_8
REMARK    2  A    between atoms: C_6  and  C_13
REMARK    3  A    between atoms: C_18  and  C_38
REMARK                            x       y       z     vdW  Elec       q    Type
REMARK                         _______ _______ _______ _____ _____    ______ ____
ROOT
ATOM      1  C   UNL     1      37.037  31.178  48.531  0.00  0.00    +0.000 C 
ATOM      2  C   UNL     1      37.601  29.732  48.822  0.00  0.00    +0.000 C 
ATOM      3  C   UNL     1      36.713  28.970  49.772  0.00  0.00    +0.000 C 
ATOM      4  C   UNL     1      36.225  29.875  50.900  0.00  0.00    +0.000 C 
ATOM      5  C   UNL     1      37.192  30.991  50.993  0.00  0.00    +0.000 C 
ATOM      6  C   UNL     1      37.011  31.924  49.836  0.00  0.00    +0.000 C 
ATOM      7  H   UNL     1      36.057  30.862  48.427  0.00  0.00    +0.000 HD
ATOM      8  H   UNL     1      38.656  29.734  49.004  0.00  0.00    +0.000 HD
ATOM      9  H   UNL     1      37.473  29.247  47.831  0.00  0.00    +0.000 HD
ATOM     10  H   UNL     1      35.878  28.456  49.257  0.00  0.00    +0.000 HD
ATOM     11  H   UNL     1      37.346  28.155  50.191  0.00  0.00    +0.000 HD
ATOM     12  H   UNL     1      36.197  29.283  51.816  0.00  0.00    +0.000 HD
ATOM     13  H   UNL     1      35.192  30.155  50.531  0.00  0.00    +0.000 HD
ATOM     14  H   UNL     1      37.407  31.445  51.944  0.00  0.00    +0.000 HD
ATOM     15  H   UNL     1      38.216  30.538  50.779  0.00  0.00    +0.000 HD
ATOM     16  H   UNL     1      37.851  32.639  49.956  0.00  0.00    +0.000 HD
ENDROOT
BRANCH   1  22
ATOM     17  C   UNL     1      37.686  31.488  46.168  0.00  0.00    +0.000 A 
ATOM     18  C   UNL     1      38.528  32.109  45.268  0.00  0.00    +0.000 A 
ATOM     19  C   UNL     1      39.569  32.934  45.596  0.00  0.00    +0.000 A 
ATOM     20  C   UNL     1      39.823  33.184  46.947  0.00  0.00    +0.000 A 
ATOM     21  C   UNL     1      38.980  32.560  47.859  0.00  0.00    +0.000 A 
ATOM     22  C   UNL     1      37.920  31.723  47.524  0.00  0.00    +0.000 A 
ATOM     23  H   UNL     1      38.397  31.970  44.178  0.00  0.00    +0.000 HD
ATOM     24  H   UNL     1      40.178  33.383  44.823  0.00  0.00    +0.000 HD
ATOM     25  H   UNL     1      40.636  33.828  47.160  0.00  0.00    +0.000 HD
ATOM     26  H   UNL     1      39.314  32.836  48.850  0.00  0.00    +0.000 HD
BRANCH  17  28
ATOM     27  C   UNL     1      37.019  29.968  44.385  0.00  0.00    +0.000 A 
ATOM     28  C   UNL     1      36.685  30.646  45.614  0.00  0.00    +0.000 A 
ATOM     29  C   UNL     1      35.437  30.400  46.154  0.00  0.00    +0.000 A 
ATOM     30  N   UNL     1      34.586  29.547  45.537  0.00  0.00    +0.000 NA
ATOM     31  C   UNL     1      34.921  28.909  44.370  0.00  0.00    +0.000 A 
ATOM     32  N   UNL     1      36.140  29.128  43.803  0.00  0.00    +0.000 NA
ATOM     33  H   UNL     1      37.944  30.053  43.845  0.00  0.00    +0.000 HD
ATOM     34  H   UNL     1      34.944  30.819  46.975  0.00  0.00    +0.000 HD
ATOM     35  H   UNL     1      34.253  28.222  43.859  0.00  0.00    +0.000 HD
ENDBRANCH  17  28
ENDBRANCH   1  22
BRANCH   6  38
ATOM     36 CL   UNL     1      34.031  30.994  50.410  0.00  0.00    +0.000 Cl
ATOM     37  C   UNL     1      34.494  32.636  50.046  0.00  0.00    +0.000 A 
ATOM     38  C   UNL     1      35.837  32.828  49.869  0.00  0.00    +0.000 A 
ATOM     39  C   UNL     1      36.219  34.157  49.622  0.00  0.00    +0.000 A 
ATOM     40  H   UNL     1      37.184  34.636  49.445  0.00  0.00    +0.000 HD
ATOM     41  C   UNL     1      35.267  35.153  49.571  0.00  0.00    +0.000 A 
ATOM     42  C   UNL     1      33.912  34.900  49.756  0.00  0.00    +0.000 A 
ATOM     43 CL   UNL     1      32.653  36.115  49.703  0.00  0.00    +0.000 Cl
ATOM     44  C   UNL     1      33.532  33.608  49.998  0.00  0.00    +0.000 A 
ATOM     45  H   UNL     1      32.508  33.306  50.156  0.00  0.00    +0.000 HD
ENDBRANCH   6  38
TORSDOF 3
