
 OpenBabel03272506123D

 45 48  0  0  1  0  0  0  0  0999 V2000
   37.3550   30.6000   48.6090 C   0  0  1  0  0  0  0  0  0  0  0  0
   37.5390   29.0920   49.0380 C   0  0  0  0  0  0  0  0  0  0  0  0
   36.9800   28.8340   50.4140 C   0  0  0  0  0  0  0  0  0  0  0  0
   37.3270   29.9790   51.3620 C   0  0  0  0  0  0  0  0  0  0  0  0
   38.5160   30.6520   50.7930 C   0  0  0  0  0  0  0  0  0  0  0  0
   38.1250   31.4450   49.5840 C   0  0  2  0  0  0  0  0  0  0  0  0
   36.3850   30.6660   48.9630 H   0  0  0  0  0  0  0  0  0  0  0  0
   38.5150   28.7180   48.8080 H   0  0  0  0  0  0  0  0  0  0  0  0
   36.8520   28.5810   48.3310 H   0  0  0  0  0  0  0  0  0  0  0  0
   35.8940   28.6160   50.4010 H   0  0  0  0  0  0  0  0  0  0  0  0
   37.4640   27.8940   50.7660 H   0  0  0  0  0  0  0  0  0  0  0  0
   37.5340   29.5500   52.3440 H   0  0  0  0  0  0  0  0  0  0  0  0
   36.3700   30.5820   51.3430 H   0  0  0  0  0  0  0  0  0  0  0  0
   39.2490   31.0970   51.4410 H   0  0  0  0  0  0  0  0  0  0  0  0
   39.1580   29.8260   50.3410 H   0  0  0  0  0  0  0  0  0  0  0  0
   39.1000   31.8010   49.1920 H   0  0  0  0  0  0  0  0  0  0  0  0
   36.9320   30.4810   46.1780 C   0  0  0  0  0  0  0  0  0  0  0  0
   37.4410   30.6260   44.9030 C   0  0  0  0  0  0  0  0  0  0  0  0
   38.7410   30.9250   44.5980 C   0  0  0  0  0  0  0  0  0  0  0  0
   39.6490   31.1020   45.6460 C   0  0  0  0  0  0  0  0  0  0  0  0
   39.1440   30.9560   46.9320 C   0  0  0  0  0  0  0  0  0  0  0  0
   37.8210   30.6540   47.2410 C   0  0  0  0  0  0  0  0  0  0  0  0
   36.7920   30.5070   44.0150 H   0  0  0  0  0  0  0  0  0  0  0  0
   39.0540   31.0240   43.5680 H   0  0  0  0  0  0  0  0  0  0  0  0
   40.6450   31.3340   45.3690 H   0  0  0  0  0  0  0  0  0  0  0  0
   39.9640   31.1040   47.6210 H   0  0  0  0  0  0  0  0  0  0  0  0
   34.9520   29.5700   45.0900 C   0  0  0  0  0  0  0  0  0  0  0  0
   35.5570   30.1390   46.2700 C   0  0  0  0  0  0  0  0  0  0  0  0
   34.7560   30.2780   47.3870 C   0  0  0  0  0  0  0  0  0  0  0  0
   33.4620   29.8810   47.3490 N   0  0  0  0  0  0  0  0  0  0  0  0
   32.9040   29.3400   46.2190 C   0  0  0  0  0  0  0  0  0  0  0  0
   33.6590   29.1900   45.0950 N   0  0  0  0  0  0  0  0  0  0  0  0
   35.4400   29.3970   44.1480 H   0  0  0  0  0  0  0  0  0  0  0  0
   34.9350   30.7220   48.3160 H   0  0  0  0  0  0  0  0  0  0  0  0
   31.8690   29.0160   46.1670 H   0  0  0  0  0  0  0  0  0  0  0  0
   39.3820   34.3270   49.1420 Cl  0  0  0  0  0  0  0  0  0  0  0  0
   37.7640   34.0400   49.7310 C   0  0  0  0  0  0  0  0  0  0  0  0
   37.4080   32.7220   49.8120 C   0  0  0  0  0  0  0  0  0  0  0  0
   36.0910   32.4880   50.2420 C   0  0  0  0  0  0  0  0  0  0  0  0
   35.5090   31.5790   50.4070 H   0  0  0  0  0  0  0  0  0  0  0  0
   35.2640   33.5480   50.5480 C   0  0  0  0  0  3  0  0  0  0  0  0
   35.6810   34.8720   50.4490 C   0  0  0  0  0  0  0  0  0  0  0  0
   34.6840   36.2620   50.8220 Cl  0  0  0  0  0  0  0  0  0  0  0  0
   36.9610   35.1080   50.0300 C   0  0  0  0  0  0  0  0  0  0  0  0
   37.3820   36.0960   49.9200 H   0  0  0  0  0  0  0  0  0  0  0  0
  1  7  1  1  0  0  0
  1  2  1  0  0  0  0
  1  6  1  0  0  0  0
  2  3  1  0  0  0  0
  3 11  1  0  0  0  0
  3  4  1  0  0  0  0
  4 12  1  0  0  0  0
  5  4  1  0  0  0  0
  5 14  1  0  0  0  0
  6 16  1  6  0  0  0
  6 38  1  0  0  0  0
  6  5  1  0  0  0  0
  8  2  1  0  0  0  0
  9  2  1  0  0  0  0
 10  3  1  0  0  0  0
 13  4  1  0  0  0  0
 15  5  1  0  0  0  0
 17 28  1  0  0  0  0
 17 22  1  0  0  0  0
 18 17  2  0  0  0  0
 19 18  1  0  0  0  0
 19 20  2  0  0  0  0
 20 21  1  0  0  0  0
 21 22  2  0  0  0  0
 21 26  1  0  0  0  0
 22  1  1  0  0  0  0
 23 18  1  0  0  0  0
 24 19  1  0  0  0  0
 25 20  1  0  0  0  0
 27 32  2  0  0  0  0
 27 28  1  0  0  0  0
 28 29  2  0  0  0  0
 29 34  1  0  0  0  0
 30 29  1  0  0  0  0
 31 30  2  0  0  0  0
 32 31  1  0  0  0  0
 33 27  1  0  0  0  0
 35 31  1  0  0  0  0
 36 37  1  0  0  0  0
 37 38  2  0  0  0  0
 37 44  1  0  0  0  0
 38 39  1  0  0  0  0
 39 40  1  0  0  0  0
 39 41  2  0  0  0  0
 42 41  1  0  0  0  0
 42 43  1  0  0  0  0
 44 42  2  0  0  0  0
 45 44  1  0  0  0  0
M  END
>  <minimizedAffinity>
1.69686699

>  <minimizedRMSD>
1.93759644

$$$$
