
 OpenBabel03272506473D

 43 46  0  0  1  0  0  0  0  0999 V2000
   32.0120   28.3800   47.4850 C   0  0  2  0  0  0  0  0  0  0  0  0
   33.2660   28.1790   48.2830 C   0  0  1  0  0  0  0  0  0  0  0  0
   33.6270   26.8680   48.1770 O   0  0  0  0  0  0  0  0  0  0  0  0
   32.8880   26.2700   47.1610 C   0  0  0  0  0  0  0  0  0  0  0  0
   32.2960   27.3750   46.3240 C   0  0  1  0  0  0  0  0  0  0  0  0
   31.0900   28.0520   47.9510 H   0  0  0  0  0  0  0  0  0  0  0  0
   33.1510   28.4800   49.3410 H   0  0  0  0  0  0  0  0  0  0  0  0
   32.1930   25.5940   47.6330 H   0  0  0  0  0  0  0  0  0  0  0  0
   33.5480   25.6890   46.4670 H   0  0  0  0  0  0  0  0  0  0  0  0
   33.0300   27.8470   45.6690 H   0  0  0  0  0  0  0  0  0  0  0  0
   31.9630   29.6870   46.9560 O   0  0  0  0  0  0  0  0  0  0  0  0
   32.6580   30.2720   47.3530 H   0  0  0  0  0  0  0  0  0  0  0  0
   34.5860   29.1950   47.5040 S   0  0  0  0  0  0  0  0  0  0  0  0
   37.0120   29.2410   50.6360 C   0  0  0  0  0  0  0  0  0  0  0  0
   37.4170   30.5670   50.7680 C   0  0  0  0  0  0  0  0  0  0  0  0
   36.9140   31.4940   49.8410 C   0  0  0  0  0  0  0  0  0  0  0  0
   36.0650   31.0530   48.8700 N   0  0  0  0  0  0  0  0  0  0  0  0
   35.7030   29.7530   48.7860 C   0  0  0  0  0  0  0  0  0  0  0  0
   36.1700   28.8310   49.6660 N   0  0  0  0  0  0  0  0  0  0  0  0
   37.3390   28.4500   51.2960 H   0  0  0  0  0  0  0  0  0  0  0  0
   38.1000   30.8240   51.5770 H   0  0  0  0  0  0  0  0  0  0  0  0
   37.2160   32.5140   49.9290 H   0  0  0  0  0  0  0  0  0  0  0  0
   31.1270   26.9310   45.7590 O   0  0  0  0  0  0  0  0  0  0  0  0
   29.9400   29.1700   44.2590 Cl  0  0  0  0  0  0  0  0  0  0  0  0
   29.2420   28.2390   45.5650 C   0  0  0  0  0  0  0  0  0  0  0  0
   29.8940   27.1990   46.1850 C   0  0  0  0  0  0  0  0  0  0  0  0
   29.2220   26.5130   47.1990 C   0  0  0  0  0  0  0  0  0  0  0  0
   27.9410   26.8740   47.5610 C   0  0  0  0  0  0  0  0  0  0  0  0
   27.2750   27.9200   46.9430 C   0  0  0  0  0  0  0  0  0  0  0  0
   27.9370   28.6020   45.9390 C   0  0  0  0  0  0  0  0  0  0  0  0
   29.6520   25.6860   47.7340 H   0  0  0  0  0  0  0  0  0  0  0  0
   27.3620   26.3910   48.3330 H   0  0  0  0  0  0  0  0  0  0  0  0
   26.2660   28.2380   47.1960 H   0  0  0  0  0  0  0  0  0  0  0  0
   26.5560   28.1410   43.2560 Cl  0  0  0  0  0  0  0  0  0  0  0  0
   26.5870   29.6800   44.0850 C   0  0  0  0  0  0  0  0  0  0  0  0
   27.2510   29.7060   45.2760 C   0  0  0  0  0  0  0  0  0  0  0  0
   27.3390   30.8850   46.0250 C   0  0  0  0  0  0  0  0  0  0  0  0
   27.8430   31.0120   46.9830 H   0  0  0  0  0  0  0  0  0  0  0  0
   26.7380   32.0510   45.5430 C   0  0  0  0  0  3  0  0  0  0  0  0
   26.0710   32.0040   44.3360 C   0  0  0  0  0  0  0  0  0  0  0  0
   25.3080   33.4690   43.7190 Cl  0  0  0  0  0  0  0  0  0  0  0  0
   25.9850   30.8410   43.6000 C   0  0  0  0  0  0  0  0  0  0  0  0
   25.4660   30.7710   42.6430 H   0  0  0  0  0  0  0  0  0  0  0  0
  1  6  1  1  0  0  0
  1  2  1  0  0  0  0
  2  7  1  1  0  0  0
  3  2  1  0  0  0  0
  4  8  1  0  0  0  0
  4  3  1  0  0  0  0
  5 10  1  6  0  0  0
  5  4  1  0  0  0  0
  5  1  1  0  0  0  0
  9  4  1  0  0  0  0
 11 12  1  0  0  0  0
 11  1  1  0  0  0  0
 13  2  1  0  0  0  0
 13 18  1  0  0  0  0
 14 15  1  0  0  0  0
 14 20  1  0  0  0  0
 15 21  1  0  0  0  0
 16 22  1  0  0  0  0
 16 15  2  0  0  0  0
 17 16  1  0  0  0  0
 18 17  2  0  0  0  0
 18 19  1  0  0  0  0
 19 14  2  0  0  0  0
 23 26  1  0  0  0  0
 23  5  1  0  0  0  0
 24 25  1  0  0  0  0
 25 30  2  0  0  0  0
 25 26  1  0  0  0  0
 26 27  2  0  0  0  0
 27 28  1  0  0  0  0
 27 31  1  0  0  0  0
 28 32  1  0  0  0  0
 29 33  1  0  0  0  0
 29 28  2  0  0  0  0
 30 29  1  0  0  0  0
 34 35  1  0  0  0  0
 35 36  1  0  0  0  0
 36 30  1  0  0  0  0
 36 37  2  0  0  0  0
 37 38  1  0  0  0  0
 39 37  1  0  0  0  0
 40 39  2  0  0  0  0
 41 40  1  0  0  0  0
 42 35  2  0  0  0  0
 42 40  1  0  0  0  0
 43 42  1  0  0  0  0
M  END
>  <minimizedAffinity>
-5.79745865

>  <minimizedRMSD>
0.687371016

$$$$
