
 OpenBabel03272508373D

 45 48  0  0  1  0  0  0  0  0999 V2000
   39.8390   32.1020   42.9770 N   0  0  0  0  0  0  0  0  0  0  0  0
   39.0140   33.2150   42.6970 C   0  0  0  0  0  0  0  0  0  0  0  0
   37.6230   32.9300   42.2810 C   0  0  0  0  0  0  0  0  0  0  0  0
   37.5310   31.8150   41.4510 O   0  0  0  0  0  0  0  0  0  0  0  0
   38.0740   30.7170   42.0250 C   0  0  0  0  0  0  0  0  0  0  0  0
   39.5380   30.9240   42.3000 C   0  0  1  0  0  0  0  0  0  0  0  0
   39.5190   33.5820   41.7660 H   0  0  0  0  0  0  0  0  0  0  0  0
   39.1240   34.1240   43.2960 H   0  0  0  0  0  0  0  0  0  0  0  0
   37.3700   33.7360   41.4840 H   0  0  0  0  0  0  0  0  0  0  0  0
   36.7950   33.1560   42.9270 H   0  0  0  0  0  0  0  0  0  0  0  0
   37.4980   30.1910   42.7780 H   0  0  0  0  0  0  0  0  0  0  0  0
   38.0320   29.9760   41.1870 H   0  0  0  0  0  0  0  0  0  0  0  0
   39.6690   30.1370   43.1580 H   0  0  0  0  0  0  0  0  0  0  0  0
   39.7260   32.2020   39.4600 Cl  0  0  0  0  0  0  0  0  0  0  0  0
   40.5920   30.8170   40.0070 C   0  0  0  0  0  0  0  0  0  0  0  0
   40.3980   30.3340   41.2860 C   0  0  0  0  0  0  0  0  0  0  0  0
   41.1900   29.1830   41.4850 C   0  0  0  0  0  0  0  0  0  0  0  0
   41.1280   28.6950   42.4740 H   0  0  0  0  0  0  0  0  0  0  0  0
   42.0460   28.5760   40.5950 C   0  0  0  0  0  3  0  0  0  0  0  0
   42.1600   29.1480   39.3470 C   0  0  0  0  0  0  0  0  0  0  0  0
   43.2400   28.3880   38.2140 Cl  0  0  0  0  0  0  0  0  0  0  0  0
   41.4300   30.2640   39.0630 C   0  0  0  0  0  0  0  0  0  0  0  0
   41.5720   30.6550   38.0640 H   0  0  0  0  0  0  0  0  0  0  0  0
   40.2970   32.0040   44.3190 C   0  0  0  0  0  0  0  0  0  0  0  0
   41.4150   32.0900   44.4140 H   0  0  0  0  0  0  0  0  0  0  0  0
   40.1540   30.9080   44.5740 H   0  0  0  0  0  0  0  0  0  0  0  0
   39.6640   32.8000   45.3540 C   0  0  0  0  0  0  0  0  0  0  0  0
   40.4400   33.1430   46.1170 H   0  0  0  0  0  0  0  0  0  0  0  0
   39.1140   33.7110   45.1690 H   0  0  0  0  0  0  0  0  0  0  0  0
   37.7280   31.0120   47.7860 C   0  0  0  0  0  0  0  0  0  0  0  0
   37.0030   30.7490   46.6390 C   0  0  0  0  0  0  0  0  0  0  0  0
   37.6610   31.3950   45.5840 C   0  0  0  0  0  0  0  0  0  0  0  0
   38.7160   31.9980   46.1230 N   0  0  0  0  0  0  0  0  0  0  0  0
   38.7530   31.7660   47.4350 N   0  0  0  0  0  0  0  0  0  0  0  0
   36.0780   30.1420   46.5820 H   0  0  0  0  0  0  0  0  0  0  0  0
   37.2350   31.2890   44.6590 H   0  0  0  0  0  0  0  0  0  0  0  0
   37.5140   30.2440   51.4610 C   0  0  0  0  0  0  0  0  0  0  0  0
   37.9910   30.7950   50.2650 C   0  0  0  0  0  0  0  0  0  0  0  0
   37.3420   30.5030   49.0790 C   0  0  0  0  0  0  0  0  0  0  0  0
   36.2650   29.6780   49.1880 N   0  0  0  0  0  0  0  0  0  0  0  0
   35.8210   29.1560   50.3470 C   0  0  0  0  0  0  0  0  0  0  0  0
   36.4560   29.4490   51.4770 N   0  0  0  0  0  0  0  0  0  0  0  0
   38.1380   30.5750   52.3020 H   0  0  0  0  0  0  0  0  0  0  0  0
   38.8450   31.4520   50.1640 H   0  0  0  0  0  0  0  0  0  0  0  0
   34.9550   28.5100   50.3300 H   0  0  0  0  0  0  0  0  0  0  0  0
  1 24  1  0  0  0  0
  2  1  1  0  0  0  0
  2  8  1  0  0  0  0
  3  2  1  0  0  0  0
  3 10  1  0  0  0  0
  4  5  1  0  0  0  0
  4  3  1  0  0  0  0
  5  6  1  0  0  0  0
  5 11  1  0  0  0  0
  6  1  1  0  0  0  0
  6 13  1  1  0  0  0
  7  2  1  0  0  0  0
  9  3  1  0  0  0  0
 12  5  1  0  0  0  0
 14 15  1  0  0  0  0
 15 16  1  0  0  0  0
 16 17  2  0  0  0  0
 16  6  1  0  0  0  0
 17 18  1  0  0  0  0
 19 17  1  0  0  0  0
 20 19  2  0  0  0  0
 21 20  1  0  0  0  0
 22 20  1  0  0  0  0
 22 15  2  0  0  0  0
 23 22  1  0  0  0  0
 24 25  1  0  0  0  0
 24 26  1  0  0  0  0
 24 27  1  0  0  0  0
 27 28  1  0  0  0  0
 27 33  1  0  0  0  0
 29 27  1  0  0  0  0
 30 39  1  0  0  0  0
 31 30  1  0  0  0  0
 32 33  1  0  0  0  0
 32 31  2  0  0  0  0
 33 34  1  0  0  0  0
 34 30  2  0  0  0  0
 35 31  1  0  0  0  0
 36 32  1  0  0  0  0
 37 42  1  0  0  0  0
 37 43  1  0  0  0  0
 38 37  2  0  0  0  0
 39 40  2  0  0  0  0
 39 38  1  0  0  0  0
 40 41  1  0  0  0  0
 41 42  2  0  0  0  0
 44 38  1  0  0  0  0
 45 41  1  0  0  0  0
M  END
>  <minimizedAffinity>
-5.71260643

>  <minimizedRMSD>
1.23966229

$$$$
