REMARK  Name = 
REMARK  4 active torsions:
REMARK  status: ('A' for Active; 'I' for Inactive)
REMARK    1  A    between atoms: C_1  and  C_2
REMARK    2  A    between atoms: C_1  and  C_13
REMARK    3  A    between atoms: C_13  and  C_18
REMARK    4  A    between atoms: C_16  and  C_38
REMARK                            x       y       z     vdW  Elec       q    Type
REMARK                         _______ _______ _______ _____ _____    ______ ____
ROOT
ATOM      1  C   UNL     1      34.818  28.374  49.443  0.00  0.00    +0.000 C 
ATOM      2  H   UNL     1      34.710  27.544  50.215  0.00  0.00    +0.000 HD
ATOM      3  H   UNL     1      35.734  28.103  48.905  0.00  0.00    +0.000 HD
ENDROOT
BRANCH   1   4
ATOM      4  C   UNL     1      33.595  28.312  48.569  0.00  0.00    +0.000 A 
ATOM      5  C   UNL     1      33.679  28.688  47.185  0.00  0.00    +0.000 A 
ATOM      6  S   UNL     1      32.014  28.440  46.647  0.00  0.00    +0.000 S 
ATOM      7  C   UNL     1      31.399  27.869  48.317  0.00  0.00    +0.000 A 
ATOM      8  N   UNL     1      32.408  27.943  48.939  0.00  0.00    +0.000 NA
ATOM      9  N   UNL     1      30.082  27.449  48.767  0.00  0.00    +0.000 N 
ATOM     10  C   UNL     1      29.248  26.836  47.789  0.00  0.00    +0.000 C 
ATOM     11  C   UNL     1      27.801  26.797  48.171  0.00  0.00    +0.000 C 
ATOM     12  N   UNL     1      27.485  27.557  49.372  0.00  0.00    +0.000 NA
ATOM     13  C   UNL     1      28.375  27.047  50.401  0.00  0.00    +0.000 C 
ATOM     14  C   UNL     1      29.715  27.677  50.151  0.00  0.00    +0.000 C 
ATOM     15  H   UNL     1      34.499  29.039  46.564  0.00  0.00    +0.000 HD
ATOM     16  H   UNL     1      29.298  27.414  46.829  0.00  0.00    +0.000 HD
ATOM     17  H   UNL     1      29.660  25.837  47.538  0.00  0.00    +0.000 HD
ATOM     18  H   UNL     1      27.567  25.726  48.417  0.00  0.00    +0.000 HD
ATOM     19  H   UNL     1      27.118  27.059  47.334  0.00  0.00    +0.000 HD
ATOM     20  H   UNL     1      26.495  27.320  49.609  0.00  0.00    +0.000 HD
ATOM     21  H   UNL     1      28.386  25.954  50.397  0.00  0.00    +0.000 HD
ATOM     22  H   UNL     1      28.003  27.428  51.367  0.00  0.00    +0.000 HD
ATOM     23  H   UNL     1      30.492  27.360  50.863  0.00  0.00    +0.000 HD
ATOM     24  H   UNL     1      29.584  28.781  50.262  0.00  0.00    +0.000 HD
ENDBRANCH   1   4
BRANCH   1  25
ATOM     25  C   UNL     1      34.959  29.672  50.106  0.00  0.00    +0.000 C 
ATOM     26  H   UNL     1      35.202  29.513  51.197  0.00  0.00    +0.000 HD
ATOM     27  H   UNL     1      34.072  30.327  50.115  0.00  0.00    +0.000 HD
BRANCH  25  32
ATOM     28  C   UNL     1      37.517  32.295  49.574  0.00  0.00    +0.000 A 
ATOM     29  C   UNL     1      38.276  31.765  48.539  0.00  0.00    +0.000 A 
ATOM     30  C   UNL     1      37.914  30.499  48.017  0.00  0.00    +0.000 A 
ATOM     31  N   UNL     1      36.854  29.860  48.541  0.00  0.00    +0.000 NA
ATOM     32  C   UNL     1      36.144  30.433  49.560  0.00  0.00    +0.000 A 
ATOM     33  N   UNL     1      36.458  31.624  50.075  0.00  0.00    +0.000 NA
ATOM     34  H   UNL     1      37.648  33.245  50.091  0.00  0.00    +0.000 HD
ATOM     35  H   UNL     1      39.034  32.465  48.324  0.00  0.00    +0.000 HD
BRANCH  30  38
ATOM     36 CL   UNL     1      36.644  29.527  45.360  0.00  0.00    +0.000 Cl
ATOM     37  C   UNL     1      38.349  29.627  45.713  0.00  0.00    +0.000 A 
ATOM     38  C   UNL     1      38.783  30.077  46.938  0.00  0.00    +0.000 A 
ATOM     39  C   UNL     1      40.149  30.090  47.019  0.00  0.00    +0.000 A 
ATOM     40  H   UNL     1      40.669  30.407  47.898  0.00  0.00    +0.000 HD
ATOM     41  C   UNL     1      41.003  29.707  46.016  0.00  0.00    +0.000 A 
ATOM     42  C   UNL     1      40.507  29.265  44.811  0.00  0.00    +0.000 A 
ATOM     43 CL   UNL     1      41.589  28.774  43.526  0.00  0.00    +0.000 Cl
ATOM     44  C   UNL     1      39.138  29.225  44.659  0.00  0.00    +0.000 A 
ATOM     45  H   UNL     1      38.772  28.875  43.706  0.00  0.00    +0.000 HD
ENDBRANCH  30  38
ENDBRANCH  25  32
ENDBRANCH   1  25
TORSDOF 4
