
     RDKit          3D

 41 44  0  0  0  0  0  0  0  0999 V2000
   36.3846   30.9104   45.6935 Cl  0  0  0  0  0  0  0  0  0  0  0  0
   36.6747   30.7602   47.4063 C   0  0  0  0  0  0  0  0  0  0  0  0
   37.9360   31.0779   47.8686 C   0  0  0  0  0  0  0  0  0  0  0  0
   38.1776   30.9622   49.2277 C   0  0  0  0  0  0  0  0  0  0  0  0
   37.1842   30.5457   50.0595 C   0  0  0  0  0  0  0  0  0  0  0  0
   35.9273   30.2378   49.5358 C   0  0  0  0  0  0  0  0  0  0  0  0
   35.6203   30.3302   48.2024 C   0  0  0  0  0  0  0  0  0  0  0  0
   40.2043   33.3135   46.0844 C   0  0  0  0  0  0  0  0  0  0  0  0
   40.9154   32.4581   45.2139 C   0  0  0  0  0  0  0  0  0  0  0  0
   40.5958   31.0973   45.2562 C   0  0  0  0  0  0  0  0  0  0  0  0
   39.6294   30.6713   46.1217 N   0  0  0  0  0  0  0  0  0  0  0  0
   38.9851   31.5266   46.9265 C   0  0  0  0  0  0  0  0  0  0  0  0
   39.2728   32.8249   46.9030 N   0  0  0  0  0  0  0  0  0  0  0  0
   34.0363   29.9465   47.5119 S   0  0  0  0  0  0  0  0  0  0  0  0
   33.7538   29.1831   44.4674 Cl  0  0  0  0  0  0  0  0  0  0  0  0
   33.7833   27.9531   45.7244 C   0  0  0  0  0  0  0  0  0  0  0  0
   33.9044   28.1965   47.0893 C   0  0  0  0  0  0  0  0  0  0  0  0
   33.9156   27.1593   47.9755 C   0  0  0  0  0  0  0  0  0  0  0  0
   33.8074   25.8640   47.5286 C   0  0  0  0  0  0  0  0  0  0  0  0
   33.6840   25.5579   46.1795 C   0  0  0  0  0  0  0  0  0  0  0  0
   33.6759   26.6195   45.3156 C   0  0  0  0  0  0  0  0  0  0  0  0
   39.1747   31.2164   49.5712 H   0  0  0  0  0  0  0  0  0  0  0  0
   37.3936   30.4623   51.1159 H   0  0  0  0  0  0  0  0  0  0  0  0
   35.1576   29.9087   50.2269 H   0  0  0  0  0  0  0  0  0  0  0  0
   40.4293   34.3772   46.0757 H   0  0  0  0  0  0  0  0  0  0  0  0
   41.6748   32.8176   44.5388 H   0  0  0  0  0  0  0  0  0  0  0  0
   41.1019   30.3723   44.6136 H   0  0  0  0  0  0  0  0  0  0  0  0
   34.0138   27.4379   49.0248 H   0  0  0  0  0  0  0  0  0  0  0  0
   33.8180   25.0582   48.2421 H   0  0  0  0  0  0  0  0  0  0  0  0
   33.6000   24.5311   45.8487 H   0  0  0  0  0  0  0  0  0  0  0  0
   35.4507   24.3975   44.5924 Cl  0  0  0  0  0  0  0  0  0  0  0  0
   34.3869   25.2564   43.5290 C   0  0  0  0  0  0  0  0  0  0  0  0
   33.5461   26.3134   43.8852 C   0  0  0  0  0  0  0  0  0  0  0  0
   32.7315   26.9369   42.9629 C   0  0  0  0  0  0  0  0  0  0  0  0
   32.1308   27.7401   43.3692 H   0  0  0  0  0  0  0  0  0  0  0  0
   32.7418   26.5109   41.6509 C   0  0  0  0  0  0  0  0  0  0  0  0
   33.5655   25.4658   41.2718 C   0  0  0  0  0  0  0  0  0  0  0  0
   33.5816   24.9198   39.6007 Cl  0  0  0  0  0  0  0  0  0  0  0  0
   34.3894   24.8327   42.1969 C   0  0  0  0  0  0  0  0  0  0  0  0
   35.0105   24.0244   41.8466 H   0  0  0  0  0  0  0  0  0  0  0  0
   32.0905   27.0227   40.9555 H   0  0  0  0  0  0  0  0  0  0  0  0
  1  2  1  0
  2  3  2  0
  2  7  1  0
  3  4  1  0
  4  5  2  0
  6  5  1  0
  7  6  2  0
  8 13  2  0
  9 10  2  0
  9  8  1  0
 10 11  1  0
 11 12  2  0
 12  3  1  0
 13 12  1  0
 14  7  1  0
 15 16  1  0
 16 17  2  0
 17 14  1  0
 17 18  1  0
 19 18  2  0
 20 19  1  0
 21 16  1  0
 21 20  2  0
  4 22  1  0
  5 23  1  0
  6 24  1  0
  8 25  1  0
  9 26  1  0
 10 27  1  0
 18 28  1  0
 19 29  1  0
 20 30  1  0
 31 32  1  0
 32 33  2  0
 33 34  1  0
 34 35  1  0
 34 36  2  0
 36 37  1  0
 37 38  1  0
 37 39  2  0
 39 40  1  0
 39 32  1  0
 36 41  1  0
 21 33  1  0
M  ISO  8  22  14  23  14  24  14  25  14  26  14  27  14  28  14  29  14
M  ISO  3  30  14  35  16  40  15
M  END
>  <DihAtoms>  (1) 
15,20,32,31

>  <DihDeg>  (1) 
90.00046839546467

$$$$
