
 OpenBabel03272506483D

 43 46  0  0  1  0  0  0  0  0999 V2000
   32.1650   27.1280   48.4670 C   0  0  2  0  0  0  0  0  0  0  0  0
   33.5690   27.3100   47.9700 C   0  0  1  0  0  0  0  0  0  0  0  0
   33.6760   26.6740   46.7690 O   0  0  0  0  0  0  0  0  0  0  0  0
   32.4050   26.3420   46.3110 C   0  0  0  0  0  0  0  0  0  0  0  0
   31.4140   27.1610   47.0990 C   0  0  1  0  0  0  0  0  0  0  0  0
   31.9360   26.1680   48.9160 H   0  0  0  0  0  0  0  0  0  0  0  0
   34.3250   26.9440   48.6880 H   0  0  0  0  0  0  0  0  0  0  0  0
   32.3130   25.2700   46.3840 H   0  0  0  0  0  0  0  0  0  0  0  0
   32.2650   26.6490   45.2420 H   0  0  0  0  0  0  0  0  0  0  0  0
   31.3820   28.2040   46.7800 H   0  0  0  0  0  0  0  0  0  0  0  0
   31.7610   28.2400   49.2370 O   0  0  0  0  0  0  0  0  0  0  0  0
   32.5240   28.8350   49.4540 H   0  0  0  0  0  0  0  0  0  0  0  0
   33.8250   29.1080   47.6830 S   0  0  0  0  0  0  0  0  0  0  0  0
   36.9330   29.2020   50.1390 C   0  0  0  0  0  0  0  0  0  0  0  0
   37.6710   30.3180   49.7550 C   0  0  0  0  0  0  0  0  0  0  0  0
   37.1830   31.0820   48.6830 C   0  0  0  0  0  0  0  0  0  0  0  0
   36.0240   30.6940   48.0780 N   0  0  0  0  0  0  0  0  0  0  0  0
   35.3460   29.6000   48.4900 C   0  0  0  0  0  0  0  0  0  0  0  0
   35.7880   28.8400   49.5250 N   0  0  0  0  0  0  0  0  0  0  0  0
   37.2200   28.5480   50.9520 H   0  0  0  0  0  0  0  0  0  0  0  0
   38.5870   30.5480   50.3000 H   0  0  0  0  0  0  0  0  0  0  0  0
   37.7380   31.9400   48.3770 H   0  0  0  0  0  0  0  0  0  0  0  0
   30.2260   26.4780   47.1720 O   0  0  0  0  0  0  0  0  0  0  0  0
   29.2700   27.7220   44.6800 Cl  0  0  0  0  0  0  0  0  0  0  0  0
   28.4710   27.6360   46.2340 C   0  0  0  0  0  0  0  0  0  0  0  0
   29.0170   27.0130   47.3310 C   0  0  0  0  0  0  0  0  0  0  0  0
   28.2720   26.9870   48.5110 C   0  0  0  0  0  0  0  0  0  0  0  0
   27.0250   27.5730   48.5670 C   0  0  0  0  0  0  0  0  0  0  0  0
   26.4650   28.2040   47.4680 C   0  0  0  0  0  0  0  0  0  0  0  0
   27.2000   28.2320   46.2980 C   0  0  0  0  0  0  0  0  0  0  0  0
   28.6180   26.5180   49.4150 H   0  0  0  0  0  0  0  0  0  0  0  0
   26.3940   27.5920   49.4420 H   0  0  0  0  0  0  0  0  0  0  0  0
   25.4860   28.6780   47.4670 H   0  0  0  0  0  0  0  0  0  0  0  0
   27.8640   31.1560   45.7270 Cl  0  0  0  0  0  0  0  0  0  0  0  0
   26.8140   30.1810   44.7250 C   0  0  0  0  0  0  0  0  0  0  0  0
   26.6270   28.8920   45.1290 C   0  0  0  0  0  0  0  0  0  0  0  0
   25.8060   28.0210   44.4030 C   0  0  0  0  0  0  0  0  0  0  0  0
   25.5900   26.9800   44.6380 H   0  0  0  0  0  0  0  0  0  0  0  0
   25.1690   28.4830   43.2470 C   0  0  0  0  0  3  0  0  0  0  0  0
   25.3710   29.7920   42.8550 C   0  0  0  0  0  0  0  0  0  0  0  0
   24.5730   30.3850   41.3990 Cl  0  0  0  0  0  0  0  0  0  0  0  0
   26.1810   30.6470   43.5730 C   0  0  0  0  0  0  0  0  0  0  0  0
   26.3610   31.6850   43.2890 H   0  0  0  0  0  0  0  0  0  0  0  0
  1  6  1  1  0  0  0
  1 11  1  0  0  0  0
  2  1  1  0  0  0  0
  2  7  1  1  0  0  0
  3  2  1  0  0  0  0
  4  8  1  0  0  0  0
  4  3  1  0  0  0  0
  4  5  1  0  0  0  0
  5 10  1  6  0  0  0
  5 23  1  0  0  0  0
  5  1  1  0  0  0  0
  9  4  1  0  0  0  0
 11 12  1  0  0  0  0
 13  2  1  0  0  0  0
 13 18  1  0  0  0  0
 14 20  1  0  0  0  0
 15 14  1  0  0  0  0
 15 21  1  0  0  0  0
 16 15  2  0  0  0  0
 17 18  2  0  0  0  0
 17 16  1  0  0  0  0
 18 19  1  0  0  0  0
 19 14  2  0  0  0  0
 22 16  1  0  0  0  0
 23 26  1  0  0  0  0
 24 25  1  0  0  0  0
 25 30  2  0  0  0  0
 25 26  1  0  0  0  0
 26 27  2  0  0  0  0
 27 28  1  0  0  0  0
 27 31  1  0  0  0  0
 28 32  1  0  0  0  0
 29 28  2  0  0  0  0
 30 29  1  0  0  0  0
 33 29  1  0  0  0  0
 35 36  1  0  0  0  0
 35 34  1  0  0  0  0
 36 30  1  0  0  0  0
 37 38  1  0  0  0  0
 37 36  2  0  0  0  0
 39 37  1  0  0  0  0
 40 39  2  0  0  0  0
 40 42  1  0  0  0  0
 41 40  1  0  0  0  0
 42 35  2  0  0  0  0
 43 42  1  0  0  0  0
M  END
>  <minimizedAffinity>
-5.98193932

>  <minimizedRMSD>
1.42288482

$$$$
