
 OpenBabel03272508113D

 35 37  0  0  0  0  0  0  0  0999 V2000
   36.7060   29.5180   44.1750 Cl  0  0  0  0  0  0  0  0  0  0  0  0
   38.3620   29.8630   43.6180 C   0  0  0  0  0  0  0  0  0  0  0  0
   39.3680   30.3480   44.4340 C   0  0  0  0  0  0  0  0  0  0  0  0
   40.6020   30.5660   43.8570 C   0  0  0  0  0  0  0  0  0  0  0  0
   40.8240   30.3130   42.5260 C   0  0  0  0  0  0  0  0  0  0  0  0
   39.8390   29.8320   41.7040 C   0  0  0  0  0  0  0  0  0  0  0  0
   38.6110   29.6090   42.2570 C   0  0  0  0  0  0  0  0  0  0  0  0
   41.3490   30.9490   44.5560 H   0  0  0  0  0  0  0  0  0  0  0  0
   41.8450   30.5310   42.2100 H   0  0  0  0  0  0  0  0  0  0  0  0
   40.0760   29.6520   40.6660 H   0  0  0  0  0  0  0  0  0  0  0  0
   36.6630   31.5300   40.9020 Cl  0  0  0  0  0  0  0  0  0  0  0  0
   36.5810   29.7960   40.7010 C   0  0  0  0  0  0  0  0  0  0  0  0
   37.5460   29.0950   41.3910 C   0  0  0  0  0  0  0  0  0  0  0  0
   37.6010   27.7110   41.3240 C   0  0  0  0  0  0  0  0  0  0  0  0
   38.3040   27.0540   41.8170 H   0  0  0  0  0  0  0  0  0  0  0  0
   36.6820   27.0000   40.5560 C   0  0  0  0  0  3  0  0  0  0  0  0
   35.7080   27.7220   39.8590 C   0  0  0  0  0  0  0  0  0  0  0  0
   34.5230   26.8930   38.8760 Cl  0  0  0  0  0  0  0  0  0  0  0  0
   35.6680   29.0990   39.9380 C   0  0  0  0  0  0  0  0  0  0  0  0
   34.9330   29.7180   39.4190 H   0  0  0  0  0  0  0  0  0  0  0  0
   38.9630   30.5400   45.7220 O   0  0  0  0  0  0  0  0  0  0  0  0
   39.4990   32.6180   47.1510 O   0  0  0  0  0  0  0  0  0  0  0  0
   38.3730   31.9290   46.4650 P   0  0  1  0  0  0  0  0  0  0  0  0
   37.8020   32.9040   45.1860 O   0  0  0  0  0  0  0  0  0  0  0  0
   37.2180   32.3960   44.5860 H   0  0  0  0  0  0  0  0  0  0  0  0
   37.0930   31.5300   47.4890 O   0  0  0  0  0  0  0  0  0  0  0  0
   37.6240   30.5010   51.0030 C   0  0  0  0  0  0  0  0  0  0  0  0
   37.7380   31.3260   49.8690 C   0  0  0  0  0  0  0  0  0  0  0  0
   37.1200   30.9110   48.6860 C   0  0  0  0  0  0  0  0  0  0  0  0
   36.4410   29.7280   48.7000 N   0  0  0  0  0  0  0  0  0  0  0  0
   36.3550   28.9620   49.8110 C   0  0  0  0  0  0  0  0  0  0  0  0
   36.9540   29.3620   50.9580 N   0  0  0  0  0  0  0  0  0  0  0  0
   38.1320   30.8990   51.8700 H   0  0  0  0  0  0  0  0  0  0  0  0
   38.2490   32.2620   49.7800 H   0  0  0  0  0  0  0  0  0  0  0  0
   35.8080   28.0220   49.7980 H   0  0  0  0  0  0  0  0  0  0  0  0
  2  1  1  0  0  0  0
  2  3  1  0  0  0  0
  3 21  1  0  0  0  0
  4  3  2  0  0  0  0
  4  8  1  0  0  0  0
  5  4  1  0  0  0  0
  6  7  1  0  0  0  0
  6  5  2  0  0  0  0
  7  2  2  0  0  0  0
  9  5  1  0  0  0  0
 10  6  1  0  0  0  0
 12 11  1  0  0  0  0
 12 13  1  0  0  0  0
 13  7  1  0  0  0  0
 14 13  2  0  0  0  0
 14 15  1  0  0  0  0
 16 14  1  0  0  0  0
 17 19  1  0  0  0  0
 17 16  2  0  0  0  0
 18 17  1  0  0  0  0
 19 12  2  0  0  0  0
 20 19  1  0  0  0  0
 21 23  1  0  0  0  0
 23 22  2  1  0  0  0
 23 26  1  0  0  0  0
 24 23  1  0  0  0  0
 25 24  1  0  0  0  0
 26 29  1  0  0  0  0
 27 33  1  0  0  0  0
 28 27  2  0  0  0  0
 29 30  2  0  0  0  0
 29 28  1  0  0  0  0
 30 31  1  0  0  0  0
 31 32  2  0  0  0  0
 32 27  1  0  0  0  0
 34 28  1  0  0  0  0
 35 31  1  0  0  0  0
M  END
>  <minimizedAffinity>
-4.86813879

>  <minimizedRMSD>
0.912755132

$$$$
