
 OpenBabel03272506483D

 43 46  0  0  1  0  0  0  0  0999 V2000
   31.1700   27.8670   47.8490 C   0  0  2  0  0  0  0  0  0  0  0  0
   32.5930   27.7520   48.3100 C   0  0  1  0  0  0  0  0  0  0  0  0
   32.9830   26.4550   48.1530 O   0  0  0  0  0  0  0  0  0  0  0  0
   32.0460   25.7860   47.3720 C   0  0  0  0  0  0  0  0  0  0  0  0
   31.2070   26.8300   46.6820 C   0  0  1  0  0  0  0  0  0  0  0  0
   30.4120   27.5180   48.5410 H   0  0  0  0  0  0  0  0  0  0  0  0
   32.7300   28.0900   49.3540 H   0  0  0  0  0  0  0  0  0  0  0  0
   31.5270   25.1000   48.0230 H   0  0  0  0  0  0  0  0  0  0  0  0
   32.5400   25.2070   46.5500 H   0  0  0  0  0  0  0  0  0  0  0  0
   31.7270   27.3070   45.8500 H   0  0  0  0  0  0  0  0  0  0  0  0
   30.9220   29.1490   47.3140 O   0  0  0  0  0  0  0  0  0  0  0  0
   31.6630   29.7790   47.5060 H   0  0  0  0  0  0  0  0  0  0  0  0
   33.6210   28.7930   47.1960 S   0  0  0  0  0  0  0  0  0  0  0  0
   36.5010   29.1110   49.8980 C   0  0  0  0  0  0  0  0  0  0  0  0
   37.1890   30.2750   49.5670 C   0  0  0  0  0  0  0  0  0  0  0  0
   36.7390   30.9990   48.4510 C   0  0  0  0  0  0  0  0  0  0  0  0
   35.6640   30.5300   47.7570 N   0  0  0  0  0  0  0  0  0  0  0  0
   35.0320   29.3920   48.1210 C   0  0  0  0  0  0  0  0  0  0  0  0
   35.4390   28.6680   49.1950 N   0  0  0  0  0  0  0  0  0  0  0  0
   36.7640   28.4810   50.7380 H   0  0  0  0  0  0  0  0  0  0  0  0
   38.0380   30.5700   50.1830 H   0  0  0  0  0  0  0  0  0  0  0  0
   37.2570   31.8930   48.1850 H   0  0  0  0  0  0  0  0  0  0  0  0
   29.9570   26.3140   46.4420 O   0  0  0  0  0  0  0  0  0  0  0  0
   29.0370   27.8760   44.1230 Cl  0  0  0  0  0  0  0  0  0  0  0  0
   28.2710   27.6850   45.6830 C   0  0  0  0  0  0  0  0  0  0  0  0
   28.7950   26.9130   46.6930 C   0  0  0  0  0  0  0  0  0  0  0  0
   28.0770   26.8160   47.8870 C   0  0  0  0  0  0  0  0  0  0  0  0
   26.8780   27.4790   48.0410 C   0  0  0  0  0  0  0  0  0  0  0  0
   26.3410   28.2600   47.0310 C   0  0  0  0  0  0  0  0  0  0  0  0
   27.0480   28.3580   45.8470 C   0  0  0  0  0  0  0  0  0  0  0  0
   28.4090   26.2320   48.7270 H   0  0  0  0  0  0  0  0  0  0  0  0
   26.2710   27.4510   48.9330 H   0  0  0  0  0  0  0  0  0  0  0  0
   25.4000   28.7990   47.1080 H   0  0  0  0  0  0  0  0  0  0  0  0
   27.7670   31.3190   45.6690 Cl  0  0  0  0  0  0  0  0  0  0  0  0
   26.7110   30.5030   44.5400 C   0  0  0  0  0  0  0  0  0  0  0  0
   26.4980   29.1750   44.7710 C   0  0  0  0  0  0  0  0  0  0  0  0
   25.6690   28.4220   43.9310 C   0  0  0  0  0  0  0  0  0  0  0  0
   25.4350   27.3640   44.0250 H   0  0  0  0  0  0  0  0  0  0  0  0
   25.0520   29.0430   42.8410 C   0  0  0  0  0  3  0  0  0  0  0  0
   25.2800   30.3870   42.6240 C   0  0  0  0  0  0  0  0  0  0  0  0
   24.5080   31.1800   41.2520 Cl  0  0  0  0  0  0  0  0  0  0  0  0
   26.0970   31.1260   43.4530 C   0  0  0  0  0  0  0  0  0  0  0  0
   26.2970   32.1890   43.3100 H   0  0  0  0  0  0  0  0  0  0  0  0
  1  2  1  0  0  0  0
  1  6  1  1  0  0  0
  2  7  1  1  0  0  0
  3  2  1  0  0  0  0
  4  8  1  0  0  0  0
  4  3  1  0  0  0  0
  5 10  1  6  0  0  0
  5  4  1  0  0  0  0
  5  1  1  0  0  0  0
  9  4  1  0  0  0  0
 11 12  1  0  0  0  0
 11  1  1  0  0  0  0
 13 18  1  0  0  0  0
 13  2  1  0  0  0  0
 14 20  1  0  0  0  0
 15 14  1  0  0  0  0
 15 21  1  0  0  0  0
 16 15  2  0  0  0  0
 17 18  2  0  0  0  0
 17 16  1  0  0  0  0
 18 19  1  0  0  0  0
 19 14  2  0  0  0  0
 22 16  1  0  0  0  0
 23  5  1  0  0  0  0
 23 26  1  0  0  0  0
 24 25  1  0  0  0  0
 25 30  2  0  0  0  0
 25 26  1  0  0  0  0
 26 27  2  0  0  0  0
 27 28  1  0  0  0  0
 27 31  1  0  0  0  0
 28 32  1  0  0  0  0
 29 33  1  0  0  0  0
 29 28  2  0  0  0  0
 30 29  1  0  0  0  0
 35 36  1  0  0  0  0
 35 34  1  0  0  0  0
 36 30  1  0  0  0  0
 37 38  1  0  0  0  0
 37 36  2  0  0  0  0
 39 37  1  0  0  0  0
 40 39  2  0  0  0  0
 40 42  1  0  0  0  0
 41 40  1  0  0  0  0
 42 35  2  0  0  0  0
 43 42  1  0  0  0  0
M  END
>  <minimizedAffinity>
-5.79815006

>  <minimizedRMSD>
1.36815822

$$$$
