
 OpenBabel03272500563D

 36 38  0  0  0  0  0  0  0  0999 V2000
   38.1030   31.9230   47.4460 C   0  0  0  0  0  0  0  0  0  0  0  0
   38.5500   32.8610   48.3330 C   0  0  0  0  0  0  0  0  0  0  0  0
   38.0530   32.9560   49.6380 C   0  0  0  0  0  0  0  0  0  0  0  0
   37.0290   32.0070   50.0260 C   0  0  0  0  0  0  0  0  0  0  0  0
   36.6310   31.1040   49.1010 C   0  0  0  0  0  0  0  0  0  0  0  0
   37.1130   31.0230   47.8460 C   0  0  0  0  0  0  0  0  0  0  0  0
   39.3290   33.5930   48.0610 H   0  0  0  0  0  0  0  0  0  0  0  0
   38.4570   33.7310   50.2900 H   0  0  0  0  0  0  0  0  0  0  0  0
   36.7520   32.2000   51.0360 H   0  0  0  0  0  0  0  0  0  0  0  0
   35.8990   30.4970   49.6120 H   0  0  0  0  0  0  0  0  0  0  0  0
   39.9910   31.3000   46.0210 C   0  0  0  0  0  0  0  0  0  0  0  0
   38.7330   31.9360   46.1420 C   0  0  0  0  0  0  0  0  0  0  0  0
   38.2560   32.4880   44.9790 C   0  0  0  0  0  0  0  0  0  0  0  0
   38.9630   32.4070   43.8390 N   0  0  0  0  0  0  0  0  0  0  0  0
   40.1310   31.8130   43.7450 C   0  0  0  0  0  0  0  0  0  0  0  0
   40.6360   31.2630   44.8380 N   0  0  0  0  0  0  0  0  0  0  0  0
   40.4510   30.8370   46.8750 H   0  0  0  0  0  0  0  0  0  0  0  0
   37.2930   32.9750   45.0710 H   0  0  0  0  0  0  0  0  0  0  0  0
   40.6020   31.8130   42.7780 H   0  0  0  0  0  0  0  0  0  0  0  0
   35.1950   29.9710   46.9800 C   0  0  0  0  0  0  0  0  0  0  0  0
   34.5340   30.6800   47.8400 O   0  0  0  0  0  0  0  0  0  0  0  0
   36.6390   30.0950   46.9520 N   0  0  0  0  0  0  0  0  0  0  0  0
   37.2310   29.5410   46.3290 H   0  0  0  0  0  0  0  0  0  0  0  0
   34.5060   29.1380   46.1410 O   0  0  0  0  0  0  0  0  0  0  0  0
   33.4240   29.5190   45.3560 C   0  0  0  0  0  0  0  0  0  0  0  0
   33.5510   30.3600   44.3520 O   0  0  0  0  0  0  0  0  0  0  0  0
   33.0190   26.6550   44.6780 Cl  0  0  0  0  0  0  0  0  0  0  0  0
   31.7240   27.6680   45.3250 C   0  0  0  0  0  0  0  0  0  0  0  0
   32.0640   28.9800   45.5920 C   0  0  0  0  0  0  0  0  0  0  0  0
   31.0700   29.7750   46.0940 C   0  0  0  0  0  0  0  0  0  0  0  0
   31.2740   30.8100   46.3220 H   0  0  0  0  0  0  0  0  0  0  0  0
   29.7880   29.3260   46.3340 C   0  0  0  0  0  3  0  0  0  0  0  0
   29.4730   28.0110   46.0580 C   0  0  0  0  0  0  0  0  0  0  0  0
   27.8770   27.3420   46.3260 Cl  0  0  0  0  0  0  0  0  0  0  0  0
   30.4530   27.1830   45.5510 C   0  0  0  0  0  0  0  0  0  0  0  0
   30.2620   26.1400   45.3170 H   0  0  0  0  0  0  0  0  0  0  0  0
  1  6  2  0  0  0  0
  1  2  1  0  0  0  0
  2  3  2  0  0  0  0
  3  4  1  0  0  0  0
  3  8  1  0  0  0  0
  4  9  1  0  0  0  0
  5 10  1  0  0  0  0
  5  4  2  0  0  0  0
  6  5  1  0  0  0  0
  7  2  1  0  0  0  0
 11 12  1  0  0  0  0
 11 17  1  0  0  0  0
 12  1  1  0  0  0  0
 13 18  1  0  0  0  0
 13 12  2  0  0  0  0
 14 13  1  0  0  0  0
 15 14  2  0  0  0  0
 15 16  1  0  0  0  0
 16 11  2  0  0  0  0
 19 15  1  0  0  0  0
 20 21  2  0  0  0  0
 22 20  1  0  0  0  0
 22  6  1  0  0  0  0
 23 22  1  0  0  0  0
 24 20  1  0  0  0  0
 25 29  1  0  0  0  0
 25 24  1  0  0  0  0
 26 25  2  0  0  0  0
 27 28  1  0  0  0  0
 28 35  2  0  0  0  0
 28 29  1  0  0  0  0
 29 30  2  0  0  0  0
 30 31  1  0  0  0  0
 30 32  1  0  0  0  0
 33 34  1  0  0  0  0
 33 32  2  0  0  0  0
 35 33  1  0  0  0  0
 36 35  1  0  0  0  0
M  END
>  <minimizedAffinity>
-5.63764715

>  <minimizedRMSD>
0.68465668

$$$$
