
 OpenBabel03272500573D

 36 38  0  0  0  0  0  0  0  0999 V2000
   38.0810   31.8740   47.4280 C   0  0  0  0  0  0  0  0  0  0  0  0
   38.5520   32.7640   48.3520 C   0  0  0  0  0  0  0  0  0  0  0  0
   38.0450   32.8300   49.6550 C   0  0  0  0  0  0  0  0  0  0  0  0
   36.9840   31.9060   50.0000 C   0  0  0  0  0  0  0  0  0  0  0  0
   36.5640   31.0500   49.0390 C   0  0  0  0  0  0  0  0  0  0  0  0
   37.0570   30.9960   47.7870 C   0  0  0  0  0  0  0  0  0  0  0  0
   39.3590   33.4760   48.1130 H   0  0  0  0  0  0  0  0  0  0  0  0
   38.4690   33.5680   50.3380 H   0  0  0  0  0  0  0  0  0  0  0  0
   36.7030   32.0730   51.0140 H   0  0  0  0  0  0  0  0  0  0  0  0
   35.8060   30.4520   49.5220 H   0  0  0  0  0  0  0  0  0  0  0  0
   39.9800   31.2670   46.0100 C   0  0  0  0  0  0  0  0  0  0  0  0
   38.7250   31.9100   46.1320 C   0  0  0  0  0  0  0  0  0  0  0  0
   38.2650   32.4900   44.9760 C   0  0  0  0  0  0  0  0  0  0  0  0
   38.9830   32.4290   43.8420 N   0  0  0  0  0  0  0  0  0  0  0  0
   40.1470   31.8280   43.7480 C   0  0  0  0  0  0  0  0  0  0  0  0
   40.6360   31.2510   44.8330 N   0  0  0  0  0  0  0  0  0  0  0  0
   40.4270   30.7820   46.8590 H   0  0  0  0  0  0  0  0  0  0  0  0
   37.3050   32.9830   45.0690 H   0  0  0  0  0  0  0  0  0  0  0  0
   40.6280   31.8450   42.7850 H   0  0  0  0  0  0  0  0  0  0  0  0
   35.1180   29.9760   46.9280 C   0  0  0  0  0  0  0  0  0  0  0  0
   34.4820   30.6250   47.8510 O   0  0  0  0  0  0  0  0  0  0  0  0
   36.5590   30.1180   46.8570 N   0  0  0  0  0  0  0  0  0  0  0  0
   37.1340   29.6080   46.1810 H   0  0  0  0  0  0  0  0  0  0  0  0
   34.4080   29.1870   46.0650 O   0  0  0  0  0  0  0  0  0  0  0  0
   33.1330   29.4750   45.5910 C   0  0  0  0  0  0  0  0  0  0  0  0
   32.8680   30.5810   44.9280 O   0  0  0  0  0  0  0  0  0  0  0  0
   32.9210   27.2560   43.6270 Cl  0  0  0  0  0  0  0  0  0  0  0  0
   31.7720   27.4600   44.9530 C   0  0  0  0  0  0  0  0  0  0  0  0
   32.0010   28.5400   45.7840 C   0  0  0  0  0  0  0  0  0  0  0  0
   31.1180   28.7100   46.8150 C   0  0  0  0  0  0  0  0  0  0  0  0
   31.2430   29.5350   47.4990 H   0  0  0  0  0  0  0  0  0  0  0  0
   30.0470   27.8700   47.0430 C   0  0  0  0  0  3  0  0  0  0  0  0
   29.8400   26.8000   46.1980 C   0  0  0  0  0  0  0  0  0  0  0  0
   28.5120   25.6760   46.4000 Cl  0  0  0  0  0  0  0  0  0  0  0  0
   30.7130   26.6000   45.1490 C   0  0  0  0  0  0  0  0  0  0  0  0
   30.5980   25.7740   44.4530 H   0  0  0  0  0  0  0  0  0  0  0  0
  1  6  2  0  0  0  0
  1  2  1  0  0  0  0
  2  3  2  0  0  0  0
  3  4  1  0  0  0  0
  3  8  1  0  0  0  0
  4  9  1  0  0  0  0
  5 10  1  0  0  0  0
  5  4  2  0  0  0  0
  6  5  1  0  0  0  0
  7  2  1  0  0  0  0
 11 12  1  0  0  0  0
 11 17  1  0  0  0  0
 12  1  1  0  0  0  0
 13 18  1  0  0  0  0
 13 12  2  0  0  0  0
 14 13  1  0  0  0  0
 15 14  2  0  0  0  0
 15 16  1  0  0  0  0
 16 11  2  0  0  0  0
 19 15  1  0  0  0  0
 20 21  2  0  0  0  0
 22 20  1  0  0  0  0
 22  6  1  0  0  0  0
 23 22  1  0  0  0  0
 24 20  1  0  0  0  0
 25 29  1  0  0  0  0
 25 24  1  0  0  0  0
 26 25  2  0  0  0  0
 27 28  1  0  0  0  0
 28 35  2  0  0  0  0
 28 29  1  0  0  0  0
 29 30  2  0  0  0  0
 30 32  1  0  0  0  0
 30 31  1  0  0  0  0
 33 34  1  0  0  0  0
 33 32  2  0  0  0  0
 35 33  1  0  0  0  0
 36 35  1  0  0  0  0
M  END
>  <minimizedAffinity>
-5.63983727

>  <minimizedRMSD>
0.629463255

$$$$
