
 OpenBabel03272500563D

 36 38  0  0  0  0  0  0  0  0999 V2000
   38.1430   31.8140   47.3910 C   0  0  0  0  0  0  0  0  0  0  0  0
   38.8130   32.4800   48.3790 C   0  0  0  0  0  0  0  0  0  0  0  0
   38.3760   32.4850   49.7080 C   0  0  0  0  0  0  0  0  0  0  0  0
   37.1670   31.7460   50.0110 C   0  0  0  0  0  0  0  0  0  0  0  0
   36.5520   31.1080   48.9870 C   0  0  0  0  0  0  0  0  0  0  0  0
   36.9790   31.1110   47.7100 C   0  0  0  0  0  0  0  0  0  0  0  0
   39.7350   33.0480   48.1730 H   0  0  0  0  0  0  0  0  0  0  0  0
   38.9620   33.0400   50.4430 H   0  0  0  0  0  0  0  0  0  0  0  0
   36.9610   31.8400   51.0510 H   0  0  0  0  0  0  0  0  0  0  0  0
   35.7090   30.6130   49.4440 H   0  0  0  0  0  0  0  0  0  0  0  0
   39.9650   31.2120   45.8740 C   0  0  0  0  0  0  0  0  0  0  0  0
   38.7340   31.8820   46.0710 C   0  0  0  0  0  0  0  0  0  0  0  0
   38.2430   32.5160   44.9570 C   0  0  0  0  0  0  0  0  0  0  0  0
   38.9130   32.4790   43.7920 N   0  0  0  0  0  0  0  0  0  0  0  0
   40.0550   31.8520   43.6280 C   0  0  0  0  0  0  0  0  0  0  0  0
   40.5730   31.2230   44.6710 N   0  0  0  0  0  0  0  0  0  0  0  0
   40.4340   30.6850   46.6850 H   0  0  0  0  0  0  0  0  0  0  0  0
   37.3010   33.0290   45.1070 H   0  0  0  0  0  0  0  0  0  0  0  0
   40.4970   31.8920   42.6480 H   0  0  0  0  0  0  0  0  0  0  0  0
   34.9240   30.1410   47.1000 C   0  0  0  0  0  0  0  0  0  0  0  0
   34.5350   30.4410   48.2990 O   0  0  0  0  0  0  0  0  0  0  0  0
   36.2850   30.4630   46.7190 N   0  0  0  0  0  0  0  0  0  0  0  0
   36.6770   30.2230   45.8050 H   0  0  0  0  0  0  0  0  0  0  0  0
   34.0400   29.5350   46.2500 O   0  0  0  0  0  0  0  0  0  0  0  0
   32.6850   29.8350   46.1660 C   0  0  0  0  0  0  0  0  0  0  0  0
   32.2510   31.0670   46.0120 O   0  0  0  0  0  0  0  0  0  0  0  0
   31.5500   28.9800   43.5570 Cl  0  0  0  0  0  0  0  0  0  0  0  0
   31.0300   28.2770   45.0930 C   0  0  0  0  0  0  0  0  0  0  0  0
   31.6500   28.7770   46.2220 C   0  0  0  0  0  0  0  0  0  0  0  0
   31.2560   28.2410   47.4190 C   0  0  0  0  0  0  0  0  0  0  0  0
   31.7030   28.5910   48.3360 H   0  0  0  0  0  0  0  0  0  0  0  0
   30.2970   27.2560   47.5290 C   0  0  0  0  0  3  0  0  0  0  0  0
   29.6930   26.7730   46.3860 C   0  0  0  0  0  0  0  0  0  0  0  0
   28.4650   25.5250   46.4180 Cl  0  0  0  0  0  0  0  0  0  0  0  0
   30.0680   27.2930   45.1640 C   0  0  0  0  0  0  0  0  0  0  0  0
   29.6250   26.9500   44.2330 H   0  0  0  0  0  0  0  0  0  0  0  0
  1  6  2  0  0  0  0
  1  2  1  0  0  0  0
  2  3  2  0  0  0  0
  3  4  1  0  0  0  0
  3  8  1  0  0  0  0
  4  9  1  0  0  0  0
  5 10  1  0  0  0  0
  5  4  2  0  0  0  0
  6  5  1  0  0  0  0
  7  2  1  0  0  0  0
 11 12  1  0  0  0  0
 11 17  1  0  0  0  0
 12  1  1  0  0  0  0
 13 18  1  0  0  0  0
 13 12  2  0  0  0  0
 14 13  1  0  0  0  0
 15 14  2  0  0  0  0
 15 16  1  0  0  0  0
 16 11  2  0  0  0  0
 19 15  1  0  0  0  0
 20 21  2  0  0  0  0
 22 20  1  0  0  0  0
 22  6  1  0  0  0  0
 23 22  1  0  0  0  0
 24 20  1  0  0  0  0
 25 29  1  0  0  0  0
 25 24  1  0  0  0  0
 26 25  2  0  0  0  0
 27 28  1  0  0  0  0
 28 35  2  0  0  0  0
 28 29  1  0  0  0  0
 29 30  2  0  0  0  0
 30 32  1  0  0  0  0
 30 31  1  0  0  0  0
 33 34  1  0  0  0  0
 33 32  2  0  0  0  0
 35 33  1  0  0  0  0
 36 35  1  0  0  0  0
M  END
>  <minimizedAffinity>
-6.07551336

>  <minimizedRMSD>
0.911601424

$$$$
