
 OpenBabel03272500563D

 36 38  0  0  0  0  0  0  0  0999 V2000
   38.1010   31.9340   47.4500 C   0  0  0  0  0  0  0  0  0  0  0  0
   38.5280   32.8890   48.3300 C   0  0  0  0  0  0  0  0  0  0  0  0
   38.0220   32.9880   49.6310 C   0  0  0  0  0  0  0  0  0  0  0  0
   37.0110   32.0270   50.0240 C   0  0  0  0  0  0  0  0  0  0  0  0
   36.6330   31.1070   49.1050 C   0  0  0  0  0  0  0  0  0  0  0  0
   37.1240   31.0220   47.8540 C   0  0  0  0  0  0  0  0  0  0  0  0
   39.2960   33.6300   48.0550 H   0  0  0  0  0  0  0  0  0  0  0  0
   38.4100   33.7770   50.2780 H   0  0  0  0  0  0  0  0  0  0  0  0
   36.7260   32.2250   51.0300 H   0  0  0  0  0  0  0  0  0  0  0  0
   35.9090   30.4940   49.6180 H   0  0  0  0  0  0  0  0  0  0  0  0
   39.9990   31.3130   46.0370 C   0  0  0  0  0  0  0  0  0  0  0  0
   38.7380   31.9450   46.1490 C   0  0  0  0  0  0  0  0  0  0  0  0
   38.2660   32.4910   44.9820 C   0  0  0  0  0  0  0  0  0  0  0  0
   38.9790   32.4090   43.8460 N   0  0  0  0  0  0  0  0  0  0  0  0
   40.1490   31.8180   43.7610 C   0  0  0  0  0  0  0  0  0  0  0  0
   40.6500   31.2740   44.8580 N   0  0  0  0  0  0  0  0  0  0  0  0
   40.4560   30.8550   46.8960 H   0  0  0  0  0  0  0  0  0  0  0  0
   37.3010   32.9760   45.0670 H   0  0  0  0  0  0  0  0  0  0  0  0
   40.6250   31.8160   42.7960 H   0  0  0  0  0  0  0  0  0  0  0  0
   35.2260   29.9520   46.9660 C   0  0  0  0  0  0  0  0  0  0  0  0
   34.5460   30.6760   47.7990 O   0  0  0  0  0  0  0  0  0  0  0  0
   36.6700   30.0780   46.9670 N   0  0  0  0  0  0  0  0  0  0  0  0
   37.2760   29.5130   46.3670 H   0  0  0  0  0  0  0  0  0  0  0  0
   34.5570   29.1030   46.1270 O   0  0  0  0  0  0  0  0  0  0  0  0
   33.3560   29.3980   45.4920 C   0  0  0  0  0  0  0  0  0  0  0  0
   33.2970   30.1890   44.4430 O   0  0  0  0  0  0  0  0  0  0  0  0
   33.3100   26.4480   45.8430 Cl  0  0  0  0  0  0  0  0  0  0  0  0
   31.8970   27.4610   46.1550 C   0  0  0  0  0  0  0  0  0  0  0  0
   32.0720   28.8150   45.9470 C   0  0  0  0  0  0  0  0  0  0  0  0
   30.9850   29.6120   46.1870 C   0  0  0  0  0  0  0  0  0  0  0  0
   31.0590   30.6780   46.0420 H   0  0  0  0  0  0  0  0  0  0  0  0
   29.7670   29.1240   46.6110 C   0  0  0  0  0  3  0  0  0  0  0  0
   29.6190   27.7670   46.8120 C   0  0  0  0  0  0  0  0  0  0  0  0
   28.1150   27.0470   47.3500 Cl  0  0  0  0  0  0  0  0  0  0  0  0
   30.6950   26.9370   46.5790 C   0  0  0  0  0  0  0  0  0  0  0  0
   30.6350   25.8610   46.7210 H   0  0  0  0  0  0  0  0  0  0  0  0
  1  6  2  0  0  0  0
  1  2  1  0  0  0  0
  2  3  2  0  0  0  0
  3  4  1  0  0  0  0
  3  8  1  0  0  0  0
  4  9  1  0  0  0  0
  5 10  1  0  0  0  0
  5  4  2  0  0  0  0
  6  5  1  0  0  0  0
  7  2  1  0  0  0  0
 11 12  1  0  0  0  0
 11 17  1  0  0  0  0
 12  1  1  0  0  0  0
 13 18  1  0  0  0  0
 13 12  2  0  0  0  0
 14 13  1  0  0  0  0
 15 14  2  0  0  0  0
 15 16  1  0  0  0  0
 16 11  2  0  0  0  0
 19 15  1  0  0  0  0
 20 22  1  0  0  0  0
 20 21  2  0  0  0  0
 22  6  1  0  0  0  0
 23 22  1  0  0  0  0
 24 20  1  0  0  0  0
 25 29  1  0  0  0  0
 25 24  1  0  0  0  0
 26 25  2  0  0  0  0
 27 28  1  0  0  0  0
 28 35  1  0  0  0  0
 29 28  2  0  0  0  0
 29 30  1  0  0  0  0
 30 32  2  0  0  0  0
 31 30  1  0  0  0  0
 32 33  1  0  0  0  0
 33 34  1  0  0  0  0
 35 36  1  0  0  0  0
 35 33  2  0  0  0  0
M  END
>  <minimizedAffinity>
-5.75142145

>  <minimizedRMSD>
0.912064135

$$$$
