
 OpenBabel03272500573D

 36 38  0  0  0  0  0  0  0  0999 V2000
   38.1570   31.8340   47.4300 C   0  0  0  0  0  0  0  0  0  0  0  0
   38.7900   32.6220   48.3500 C   0  0  0  0  0  0  0  0  0  0  0  0
   38.3880   32.6830   49.6890 C   0  0  0  0  0  0  0  0  0  0  0  0
   37.2560   31.8650   50.0780 C   0  0  0  0  0  0  0  0  0  0  0  0
   36.6740   31.1070   49.1190 C   0  0  0  0  0  0  0  0  0  0  0  0
   37.0670   31.0580   47.8320 C   0  0  0  0  0  0  0  0  0  0  0  0
   39.6530   33.2520   48.0790 H   0  0  0  0  0  0  0  0  0  0  0  0
   38.9400   33.3350   50.3660 H   0  0  0  0  0  0  0  0  0  0  0  0
   37.0680   32.0140   51.1150 H   0  0  0  0  0  0  0  0  0  0  0  0
   35.8890   30.5750   49.6340 H   0  0  0  0  0  0  0  0  0  0  0  0
   39.9160   31.1590   45.8700 C   0  0  0  0  0  0  0  0  0  0  0  0
   38.7070   31.8600   46.0910 C   0  0  0  0  0  0  0  0  0  0  0  0
   38.1950   32.4820   44.9800 C   0  0  0  0  0  0  0  0  0  0  0  0
   38.8250   32.4040   43.7960 N   0  0  0  0  0  0  0  0  0  0  0  0
   39.9480   31.7490   43.6090 C   0  0  0  0  0  0  0  0  0  0  0  0
   40.4850   31.1300   44.6490 N   0  0  0  0  0  0  0  0  0  0  0  0
   40.3990   30.6390   46.6780 H   0  0  0  0  0  0  0  0  0  0  0  0
   37.2690   33.0190   45.1480 H   0  0  0  0  0  0  0  0  0  0  0  0
   40.3590   31.7580   42.6150 H   0  0  0  0  0  0  0  0  0  0  0  0
   35.0100   30.0870   47.2330 C   0  0  0  0  0  0  0  0  0  0  0  0
   34.5570   30.5950   48.3350 O   0  0  0  0  0  0  0  0  0  0  0  0
   36.4090   30.2860   46.9080 N   0  0  0  0  0  0  0  0  0  0  0  0
   36.8470   29.8830   46.0770 H   0  0  0  0  0  0  0  0  0  0  0  0
   34.1540   29.3860   46.4270 O   0  0  0  0  0  0  0  0  0  0  0  0
   32.8120   29.6950   46.2340 C   0  0  0  0  0  0  0  0  0  0  0  0
   32.4040   30.9250   46.0080 O   0  0  0  0  0  0  0  0  0  0  0  0
   31.9950   28.6270   43.5850 Cl  0  0  0  0  0  0  0  0  0  0  0  0
   31.2810   28.0580   45.0970 C   0  0  0  0  0  0  0  0  0  0  0  0
   31.7640   28.6480   46.2490 C   0  0  0  0  0  0  0  0  0  0  0  0
   31.2190   28.2170   47.4280 C   0  0  0  0  0  0  0  0  0  0  0  0
   31.5550   28.6400   48.3610 H   0  0  0  0  0  0  0  0  0  0  0  0
   30.2400   27.2470   47.5000 C   0  0  0  0  0  3  0  0  0  0  0  0
   29.7760   26.6730   46.3360 C   0  0  0  0  0  0  0  0  0  0  0  0
   28.5370   25.4340   46.3180 Cl  0  0  0  0  0  0  0  0  0  0  0  0
   30.3040   27.0850   45.1300 C   0  0  0  0  0  0  0  0  0  0  0  0
   29.9750   26.6670   44.1830 H   0  0  0  0  0  0  0  0  0  0  0  0
  1  6  2  0  0  0  0
  1  2  1  0  0  0  0
  2  3  2  0  0  0  0
  3  4  1  0  0  0  0
  3  8  1  0  0  0  0
  4  9  1  0  0  0  0
  5 10  1  0  0  0  0
  5  4  2  0  0  0  0
  6  5  1  0  0  0  0
  7  2  1  0  0  0  0
 11 12  1  0  0  0  0
 11 17  1  0  0  0  0
 12  1  1  0  0  0  0
 13 18  1  0  0  0  0
 13 12  2  0  0  0  0
 14 13  1  0  0  0  0
 15 14  2  0  0  0  0
 15 16  1  0  0  0  0
 16 11  2  0  0  0  0
 19 15  1  0  0  0  0
 20 21  2  0  0  0  0
 22 20  1  0  0  0  0
 22  6  1  0  0  0  0
 23 22  1  0  0  0  0
 24 20  1  0  0  0  0
 25 29  1  0  0  0  0
 25 24  1  0  0  0  0
 26 25  2  0  0  0  0
 27 28  1  0  0  0  0
 28 35  2  0  0  0  0
 28 29  1  0  0  0  0
 29 30  2  0  0  0  0
 30 32  1  0  0  0  0
 30 31  1  0  0  0  0
 33 32  2  0  0  0  0
 34 33  1  0  0  0  0
 35 33  1  0  0  0  0
 36 35  1  0  0  0  0
M  END
>  <minimizedAffinity>
-5.92212582

>  <minimizedRMSD>
0.966589034

$$$$
