REMARK  Name = 
REMARK  5 active torsions:
REMARK  status: ('A' for Active; 'I' for Inactive)
REMARK    1  A    between atoms: C_1  and  C_8
REMARK    2  A    between atoms: C_6  and  N_15
REMARK    3  A    between atoms: C_13  and  O_16
REMARK    4  A    between atoms: O_16  and  C_17
REMARK    5  A    between atoms: C_17  and  C_29
REMARK                            x       y       z     vdW  Elec       q    Type
REMARK                         _______ _______ _______ _____ _____    ______ ____
ROOT
ATOM      1  C   UNL     1      38.112  31.886  47.414  0.00  0.00    +0.000 A 
ATOM      2  C   UNL     1      38.580  32.790  48.326  0.00  0.00    +0.000 A 
ATOM      3  C   UNL     1      38.079  32.867  49.630  0.00  0.00    +0.000 A 
ATOM      4  C   UNL     1      37.027  31.938  49.991  0.00  0.00    +0.000 A 
ATOM      5  C   UNL     1      36.609  31.068  49.042  0.00  0.00    +0.000 A 
ATOM      6  C   UNL     1      37.096  31.004  47.788  0.00  0.00    +0.000 A 
ATOM      7  H   UNL     1      39.380  33.506  48.075  0.00  0.00    +0.000 HD
ATOM      8  H   UNL     1      38.501  33.615  50.303  0.00  0.00    +0.000 HD
ATOM      9  H   UNL     1      36.750  32.114  51.004  0.00  0.00    +0.000 HD
ATOM     10  H   UNL     1      35.858  30.470  49.535  0.00  0.00    +0.000 HD
ENDROOT
BRANCH   1  12
ATOM     11  C   UNL     1      40.001  31.265  45.989  0.00  0.00    +0.000 A 
ATOM     12  C   UNL     1      38.749  31.913  46.114  0.00  0.00    +0.000 A 
ATOM     13  C   UNL     1      38.285  32.489  44.958  0.00  0.00    +0.000 A 
ATOM     14  N   UNL     1      38.997  32.419  43.820  0.00  0.00    +0.000 NA
ATOM     15  C   UNL     1      40.158  31.813  43.723  0.00  0.00    +0.000 A 
ATOM     16  N   UNL     1      40.651  31.240  44.809  0.00  0.00    +0.000 NA
ATOM     17  H   UNL     1      40.451  30.783  46.838  0.00  0.00    +0.000 HD
ATOM     18  H   UNL     1      37.327  32.986  45.053  0.00  0.00    +0.000 HD
ATOM     19  H   UNL     1      40.634  31.823  42.758  0.00  0.00    +0.000 HD
ENDBRANCH   1  12
BRANCH   6  22
ATOM     20  C   UNL     1      35.160  29.968  46.942  0.00  0.00    +0.000 C 
ATOM     21  O   UNL     1      34.522  30.629  47.856  0.00  0.00    +0.000 OA
ATOM     22  N   UNL     1      36.601  30.112  46.870  0.00  0.00    +0.000 N 
ATOM     23  H   UNL     1      37.177  29.594  46.202  0.00  0.00    +0.000 HD
BRANCH  20  24
ATOM     24  O   UNL     1      34.452  29.165  46.090  0.00  0.00    +0.000 OA
BRANCH  24  25
ATOM     25  C   UNL     1      33.366  29.579  45.327  0.00  0.00    +0.000 C 
ATOM     26  O   UNL     1      33.364  30.724  44.679  0.00  0.00    +0.000 OA
BRANCH  25  29
ATOM     27 CL   UNL     1      33.380  26.995  46.794  0.00  0.00    +0.000 Cl
ATOM     28  C   UNL     1      32.014  27.514  45.801  0.00  0.00    +0.000 A 
ATOM     29  C   UNL     1      32.154  28.740  45.180  0.00  0.00    +0.000 A 
ATOM     30  C   UNL     1      31.102  29.154  44.409  0.00  0.00    +0.000 A 
ATOM     31  H   UNL     1      31.152  30.103  43.898  0.00  0.00    +0.000 HD
ATOM     32  C   UNL     1      29.950  28.415  44.237  0.00  0.00    +0.000 A 
ATOM     33  C   UNL     1      29.835  27.193  44.868  0.00  0.00    +0.000 A 
ATOM     34 CL   UNL     1      28.416  26.177  44.716  0.00  0.00    +0.000 Cl
ATOM     35  C   UNL     1      30.878  26.747  45.654  0.00  0.00    +0.000 A 
ATOM     36  H   UNL     1      30.841  25.793  46.173  0.00  0.00    +0.000 HD
ENDBRANCH  25  29
ENDBRANCH  24  25
ENDBRANCH  20  24
ENDBRANCH   6  22
TORSDOF 5
