
 OpenBabel03272508563D

 41 44  0  0  1  0  0  0  0  0999 V2000
   39.1710   31.4480   43.3120 C   0  0  0  0  0  0  0  0  0  0  0  0
   40.1950   30.5560   43.4710 C   0  0  0  0  0  0  0  0  0  0  0  0
   40.9080   30.1820   42.3510 C   0  0  0  0  0  0  0  0  0  0  0  0
   40.5400   30.7340   41.1370 C   0  0  0  0  0  0  0  0  0  0  0  0
   39.5050   31.6350   40.9740 C   0  0  0  0  0  0  0  0  0  0  0  0
   38.8530   31.9560   42.1020 N   0  0  0  0  0  0  0  0  0  0  0  0
   40.4610   30.1400   44.4370 H   0  0  0  0  0  0  0  0  0  0  0  0
   41.7220   29.4790   42.4510 H   0  0  0  0  0  0  0  0  0  0  0  0
   41.1340   30.4030   40.3000 H   0  0  0  0  0  0  0  0  0  0  0  0
   38.3990   31.8590   44.5040 C   0  0  0  0  0  0  0  0  0  0  0  0
   37.3010   32.4540   44.3940 O   0  0  0  0  0  0  0  0  0  0  0  0
   38.9590   31.5480   45.8110 N   0  0  0  0  0  0  0  0  0  0  0  0
   39.9220   31.2400   45.9560 H   0  0  0  0  0  0  0  0  0  0  0  0
   38.4370   31.0730   48.1850 C   0  0  2  0  0  0  0  0  0  0  0  0
   38.6790   32.5350   48.0880 C   0  0  0  0  0  0  0  0  0  0  0  0
   38.0820   31.6920   46.9510 C   0  0  1  0  0  0  0  0  0  0  0  0
   39.3480   30.4490   48.2810 H   0  0  0  0  0  0  0  0  0  0  0  0
   39.7160   32.8690   47.9890 H   0  0  0  0  0  0  0  0  0  0  0  0
   38.0340   33.2550   48.6190 H   0  0  0  0  0  0  0  0  0  0  0  0
   37.0250   31.9680   46.7440 H   0  0  0  0  0  0  0  0  0  0  0  0
   35.0610   30.2410   49.5080 C   0  0  0  0  0  0  0  0  0  0  0  0
   35.3920   29.5560   50.7270 C   0  0  0  0  0  0  0  0  0  0  0  0
   36.7880   29.4070   51.0720 C   0  0  0  0  0  0  0  0  0  0  0  0
   37.7380   29.9180   50.2280 N   0  0  0  0  0  0  0  0  0  0  0  0
   37.3470   30.5490   49.0950 C   0  0  0  0  0  0  0  0  0  0  0  0
   36.0250   30.7300   48.7030 N   0  0  0  0  0  0  0  0  0  0  0  0
   34.0070   30.3310   49.2900 H   0  0  0  0  0  0  0  0  0  0  0  0
   34.6180   29.1780   51.3500 H   0  0  0  0  0  0  0  0  0  0  0  0
   37.0260   28.8990   51.9770 H   0  0  0  0  0  0  0  0  0  0  0  0
   39.1660   32.1770   39.6630 C   0  0  0  0  0  0  0  0  0  0  0  0
   38.9750   33.4100   39.5430 O   0  0  0  0  0  0  0  0  0  0  0  0
   41.5200   31.9130   37.7370 Cl  0  0  0  0  0  0  0  0  0  0  0  0
   39.9820   31.1310   37.4890 C   0  0  0  0  0  0  0  0  0  0  0  0
   39.0310   31.3610   38.4620 C   0  0  0  0  0  0  0  0  0  0  0  0
   37.7880   30.7430   38.2850 C   0  0  0  0  0  0  0  0  0  0  0  0
   36.9880   30.8890   39.0270 H   0  0  0  0  0  0  0  0  0  0  0  0
   37.4510   29.9260   37.2110 C   0  0  0  0  0  3  0  0  0  0  0  0
   38.4500   29.7420   36.2810 C   0  0  0  0  0  0  0  0  0  0  0  0
   38.0560   28.7150   34.9140 Cl  0  0  0  0  0  0  0  0  0  0  0  0
   39.6940   30.3260   36.4050 C   0  0  0  0  0  0  0  0  0  0  0  0
   40.4670   30.1660   35.6570 H   0  0  0  0  0  0  0  0  0  0  0  0
  1  2  1  0  0  0  0
  1 10  1  0  0  0  0
  2  7  1  0  0  0  0
  3  8  1  0  0  0  0
  3  2  2  0  0  0  0
  4  3  1  0  0  0  0
  5  4  2  0  0  0  0
  5  6  1  0  0  0  0
  6  1  2  0  0  0  0
  9  4  1  0  0  0  0
 10 12  1  0  0  0  0
 11 10  2  0  0  0  0
 12 13  1  0  0  0  0
 12 16  1  0  0  0  0
 14 17  1  6  0  0  0
 14 25  1  0  0  0  0
 15 14  1  0  0  0  0
 15 19  1  0  0  0  0
 16 20  1  6  0  0  0
 16 15  1  0  0  0  0
 16 14  1  0  0  0  0
 18 15  1  0  0  0  0
 21 22  1  0  0  0  0
 22 23  2  0  0  0  0
 22 28  1  0  0  0  0
 23 29  1  0  0  0  0
 24 23  1  0  0  0  0
 25 24  2  0  0  0  0
 26 25  1  0  0  0  0
 26 21  2  0  0  0  0
 27 21  1  0  0  0  0
 30  5  1  0  0  0  0
 31 30  2  0  0  0  0
 33 32  1  0  0  0  0
 33 34  1  0  0  0  0
 34 30  1  0  0  0  0
 35 34  2  0  0  0  0
 35 36  1  0  0  0  0
 37 35  1  0  0  0  0
 38 40  1  0  0  0  0
 38 37  2  0  0  0  0
 39 38  1  0  0  0  0
 40 33  2  0  0  0  0
 41 40  1  0  0  0  0
M  END
>  <minimizedAffinity>
-4.95435143

>  <minimizedRMSD>
0.660011053

$$$$
