REMARK  Name = 
REMARK  5 active torsions:
REMARK  status: ('A' for Active; 'I' for Inactive)
REMARK    1  A    between atoms: C_1  and  C_8
REMARK    2  A    between atoms: C_3  and  N_12
REMARK    3  A    between atoms: C_10  and  C_13
REMARK    4  A    between atoms: C_17  and  C_19
REMARK    5  A    between atoms: C_19  and  C_34
REMARK                            x       y       z     vdW  Elec       q    Type
REMARK                         _______ _______ _______ _____ _____    ______ ____
ROOT
ATOM      1  C   UNL     1      39.132  31.500  43.292  0.00  0.00    +0.000 A 
ATOM      2  C   UNL     1      40.123  30.569  43.433  0.00  0.00    +0.000 A 
ATOM      3  C   UNL     1      40.840  30.210  42.310  0.00  0.00    +0.000 A 
ATOM      4  C   UNL     1      40.508  30.816  41.111  0.00  0.00    +0.000 A 
ATOM      5  C   UNL     1      39.506  31.756  40.966  0.00  0.00    +0.000 A 
ATOM      6  N   UNL     1      38.849  32.060  42.096  0.00  0.00    +0.000 NA
ATOM      7  H   UNL     1      40.361  30.112  44.387  0.00  0.00    +0.000 HD
ATOM      8  H   UNL     1      41.628  29.477  42.397  0.00  0.00    +0.000 HD
ATOM      9  H   UNL     1      41.103  30.494  40.271  0.00  0.00    +0.000 HD
ENDROOT
BRANCH   1  10
ATOM     10  C   UNL     1      38.357  31.896  44.487  0.00  0.00    +0.000 C 
ATOM     11  O   UNL     1      37.231  32.437  44.382  0.00  0.00    +0.000 OA
ATOM     12  N   UNL     1      38.948  31.636  45.791  0.00  0.00    +0.000 N 
ATOM     13  H   UNL     1      39.926  31.376  45.928  0.00  0.00    +0.000 HD
BRANCH  12  16
ATOM     14  C   UNL     1      38.446  31.120  48.161  0.00  0.00    +0.000 C 
ATOM     15  C   UNL     1      38.685  32.584  48.086  0.00  0.00    +0.000 C 
ATOM     16  C   UNL     1      38.080  31.759  46.940  0.00  0.00    +0.000 C 
ATOM     17  H   UNL     1      39.359  30.497  48.239  0.00  0.00    +0.000 HD
ATOM     18  H   UNL     1      39.720  32.922  47.984  0.00  0.00    +0.000 HD
ATOM     19  H   UNL     1      38.043  33.294  48.634  0.00  0.00    +0.000 HD
ATOM     20  H   UNL     1      37.021  32.036  46.747  0.00  0.00    +0.000 HD
BRANCH  14  25
ATOM     21  C   UNL     1      35.083  30.250  49.493  0.00  0.00    +0.000 A 
ATOM     22  C   UNL     1      35.426  29.555  50.703  0.00  0.00    +0.000 A 
ATOM     23  C   UNL     1      36.825  29.411  51.038  0.00  0.00    +0.000 A 
ATOM     24  N   UNL     1      37.766  29.938  50.195  0.00  0.00    +0.000 NA
ATOM     25  C   UNL     1      37.365  30.579  49.071  0.00  0.00    +0.000 A 
ATOM     26  N   UNL     1      36.040  30.755  48.688  0.00  0.00    +0.000 NA
ATOM     27  H   UNL     1      34.028  30.335  49.281  0.00  0.00    +0.000 HD
ATOM     28  H   UNL     1      34.658  29.164  51.325  0.00  0.00    +0.000 HD
ATOM     29  H   UNL     1      37.071  28.895  51.937  0.00  0.00    +0.000 HD
ENDBRANCH  14  25
ENDBRANCH  12  16
ENDBRANCH   1  10
BRANCH   5  30
ATOM     30  C   UNL     1      39.204  32.354  39.670  0.00  0.00    +0.000 C 
ATOM     31  O   UNL     1      38.836  33.551  39.622  0.00  0.00    +0.000 OA
BRANCH  30  34
ATOM     32 CL   UNL     1      38.722  29.341  39.596  0.00  0.00    +0.000 Cl
ATOM     33  C   UNL     1      39.121  30.285  38.187  0.00  0.00    +0.000 A 
ATOM     34  C   UNL     1      39.304  31.635  38.406  0.00  0.00    +0.000 A 
ATOM     35  C   UNL     1      39.626  32.416  37.289  0.00  0.00    +0.000 A 
ATOM     36  H   UNL     1      39.784  33.500  37.399  0.00  0.00    +0.000 HD
ATOM     37  C   UNL     1      39.770  31.930  35.993  0.00  0.00    +0.000 A 
ATOM     38  C   UNL     1      39.572  30.574  35.853  0.00  0.00    +0.000 A 
ATOM     39 CL   UNL     1      39.747  29.931  34.230  0.00  0.00    +0.000 Cl
ATOM     40  C   UNL     1      39.254  29.758  36.919  0.00  0.00    +0.000 A 
ATOM     41  H   UNL     1      39.102  28.689  36.782  0.00  0.00    +0.000 HD
ENDBRANCH  30  34
ENDBRANCH   5  30
TORSDOF 5
