
 OpenBabel03272508563D

 41 44  0  0  1  0  0  0  0  0999 V2000
   39.2100   31.4000   43.3790 C   0  0  0  0  0  0  0  0  0  0  0  0
   40.2130   30.4880   43.5540 C   0  0  0  0  0  0  0  0  0  0  0  0
   40.9390   30.1010   42.4460 C   0  0  0  0  0  0  0  0  0  0  0  0
   40.6030   30.6620   41.2270 C   0  0  0  0  0  0  0  0  0  0  0  0
   39.5890   31.5820   41.0470 C   0  0  0  0  0  0  0  0  0  0  0  0
   38.9230   31.9150   42.1640 N   0  0  0  0  0  0  0  0  0  0  0  0
   40.4540   30.0670   44.5240 H   0  0  0  0  0  0  0  0  0  0  0  0
   41.7360   29.3830   42.5610 H   0  0  0  0  0  0  0  0  0  0  0  0
   41.2050   30.3200   40.4000 H   0  0  0  0  0  0  0  0  0  0  0  0
   38.4250   31.8260   44.5570 C   0  0  0  0  0  0  0  0  0  0  0  0
   37.3370   32.4350   44.4290 O   0  0  0  0  0  0  0  0  0  0  0  0
   38.9610   31.5130   45.8730 N   0  0  0  0  0  0  0  0  0  0  0  0
   39.9180   31.1930   46.0340 H   0  0  0  0  0  0  0  0  0  0  0  0
   38.4150   31.0850   48.2510 C   0  0  2  0  0  0  0  0  0  0  0  0
   38.6430   32.5470   48.1240 C   0  0  0  0  0  0  0  0  0  0  0  0
   38.0690   31.6730   46.9990 C   0  0  1  0  0  0  0  0  0  0  0  0
   39.3320   30.4740   48.3720 H   0  0  0  0  0  0  0  0  0  0  0  0
   39.6770   32.8900   48.0300 H   0  0  0  0  0  0  0  0  0  0  0  0
   37.9840   33.2720   48.6310 H   0  0  0  0  0  0  0  0  0  0  0  0
   37.0120   31.9320   46.7740 H   0  0  0  0  0  0  0  0  0  0  0  0
   35.0340   30.2220   49.5410 C   0  0  0  0  0  0  0  0  0  0  0  0
   35.3580   29.5910   50.7910 C   0  0  0  0  0  0  0  0  0  0  0  0
   36.7500   29.4870   51.1670 C   0  0  0  0  0  0  0  0  0  0  0  0
   37.7030   29.9890   50.3220 N   0  0  0  0  0  0  0  0  0  0  0  0
   37.3210   30.5690   49.1590 C   0  0  0  0  0  0  0  0  0  0  0  0
   36.0030   30.7050   48.7370 N   0  0  0  0  0  0  0  0  0  0  0  0
   33.9840   30.2790   49.3000 H   0  0  0  0  0  0  0  0  0  0  0  0
   34.5810   29.2180   51.4130 H   0  0  0  0  0  0  0  0  0  0  0  0
   36.9820   29.0190   52.0950 H   0  0  0  0  0  0  0  0  0  0  0  0
   39.2830   32.1320   39.7300 C   0  0  0  0  0  0  0  0  0  0  0  0
   38.6150   33.1890   39.6510 O   0  0  0  0  0  0  0  0  0  0  0  0
   37.7620   29.7300   38.6190 Cl  0  0  0  0  0  0  0  0  0  0  0  0
   39.1490   30.4360   37.8340 C   0  0  0  0  0  0  0  0  0  0  0  0
   39.7120   31.5180   38.4800 C   0  0  0  0  0  0  0  0  0  0  0  0
   40.8280   32.1040   37.8690 C   0  0  0  0  0  0  0  0  0  0  0  0
   41.3220   32.9700   38.3350 H   0  0  0  0  0  0  0  0  0  0  0  0
   41.3980   31.6740   36.6740 C   0  0  0  0  0  3  0  0  0  0  0  0
   40.7810   30.5900   36.0890 C   0  0  0  0  0  0  0  0  0  0  0  0
   41.4780   30.0260   34.5810 Cl  0  0  0  0  0  0  0  0  0  0  0  0
   39.6790   29.9750   36.6470 C   0  0  0  0  0  0  0  0  0  0  0  0
   39.2110   29.1200   36.1650 H   0  0  0  0  0  0  0  0  0  0  0  0
  1  2  1  0  0  0  0
  1 10  1  0  0  0  0
  2  7  1  0  0  0  0
  3  8  1  0  0  0  0
  3  2  2  0  0  0  0
  4  3  1  0  0  0  0
  5  4  2  0  0  0  0
  5  6  1  0  0  0  0
  6  1  2  0  0  0  0
  9  4  1  0  0  0  0
 10 12  1  0  0  0  0
 11 10  2  0  0  0  0
 12 13  1  0  0  0  0
 12 16  1  0  0  0  0
 14 17  1  6  0  0  0
 14 25  1  0  0  0  0
 15 14  1  0  0  0  0
 15 19  1  0  0  0  0
 16 20  1  6  0  0  0
 16 15  1  0  0  0  0
 16 14  1  0  0  0  0
 18 15  1  0  0  0  0
 21 22  1  0  0  0  0
 22 23  2  0  0  0  0
 22 28  1  0  0  0  0
 23 29  1  0  0  0  0
 24 23  1  0  0  0  0
 25 24  2  0  0  0  0
 26 25  1  0  0  0  0
 26 21  2  0  0  0  0
 27 21  1  0  0  0  0
 30  5  1  0  0  0  0
 31 30  2  0  0  0  0
 33 34  1  0  0  0  0
 33 32  1  0  0  0  0
 34 30  1  0  0  0  0
 35 36  1  0  0  0  0
 35 34  2  0  0  0  0
 37 35  1  0  0  0  0
 38 40  1  0  0  0  0
 38 37  2  0  0  0  0
 39 38  1  0  0  0  0
 40 33  2  0  0  0  0
 41 40  1  0  0  0  0
M  END
>  <minimizedAffinity>
-4.97373104

>  <minimizedRMSD>
0.788055778

$$$$
