
 OpenBabel03272508563D

 41 44  0  0  1  0  0  0  0  0999 V2000
   39.1160   31.4920   43.3560 C   0  0  0  0  0  0  0  0  0  0  0  0
   40.1110   30.5670   43.5030 C   0  0  0  0  0  0  0  0  0  0  0  0
   40.8390   30.2140   42.3860 C   0  0  0  0  0  0  0  0  0  0  0  0
   40.5130   30.8200   41.1850 C   0  0  0  0  0  0  0  0  0  0  0  0
   39.5070   31.7540   41.0330 C   0  0  0  0  0  0  0  0  0  0  0  0
   38.8390   32.0520   42.1590 N   0  0  0  0  0  0  0  0  0  0  0  0
   40.3440   30.1100   44.4590 H   0  0  0  0  0  0  0  0  0  0  0  0
   41.6300   29.4850   42.4780 H   0  0  0  0  0  0  0  0  0  0  0  0
   41.1160   30.5020   40.3490 H   0  0  0  0  0  0  0  0  0  0  0  0
   38.3290   31.8820   44.5450 C   0  0  0  0  0  0  0  0  0  0  0  0
   37.1660   32.3380   44.4350 O   0  0  0  0  0  0  0  0  0  0  0  0
   38.9530   31.7180   45.8500 N   0  0  0  0  0  0  0  0  0  0  0  0
   39.9480   31.5340   45.9830 H   0  0  0  0  0  0  0  0  0  0  0  0
   38.4530   31.1530   48.2090 C   0  0  2  0  0  0  0  0  0  0  0  0
   38.7160   32.6150   48.1680 C   0  0  0  0  0  0  0  0  0  0  0  0
   38.0920   31.8280   47.0060 C   0  0  1  0  0  0  0  0  0  0  0  0
   39.3560   30.5140   48.2680 H   0  0  0  0  0  0  0  0  0  0  0  0
   39.7560   32.9380   48.0690 H   0  0  0  0  0  0  0  0  0  0  0  0
   38.0880   33.3210   48.7370 H   0  0  0  0  0  0  0  0  0  0  0  0
   37.0370   32.1260   46.8250 H   0  0  0  0  0  0  0  0  0  0  0  0
   35.0850   30.2520   49.5070 C   0  0  0  0  0  0  0  0  0  0  0  0
   35.4210   29.5760   50.7290 C   0  0  0  0  0  0  0  0  0  0  0  0
   36.8180   29.4560   51.0850 C   0  0  0  0  0  0  0  0  0  0  0  0
   37.7620   29.9860   50.2480 N   0  0  0  0  0  0  0  0  0  0  0  0
   37.3680   30.6080   49.1110 C   0  0  0  0  0  0  0  0  0  0  0  0
   36.0460   30.7610   48.7090 N   0  0  0  0  0  0  0  0  0  0  0  0
   34.0320   30.3200   49.2800 H   0  0  0  0  0  0  0  0  0  0  0  0
   34.6510   29.1820   51.3460 H   0  0  0  0  0  0  0  0  0  0  0  0
   37.0590   28.9530   51.9930 H   0  0  0  0  0  0  0  0  0  0  0  0
   39.2110   32.3520   39.7360 C   0  0  0  0  0  0  0  0  0  0  0  0
   38.6960   33.4940   39.6940 O   0  0  0  0  0  0  0  0  0  0  0  0
   37.3410   30.1570   38.7350 Cl  0  0  0  0  0  0  0  0  0  0  0  0
   38.7510   30.6920   37.8610 C   0  0  0  0  0  0  0  0  0  0  0  0
   39.4810   31.6950   38.4630 C   0  0  0  0  0  0  0  0  0  0  0  0
   40.6180   32.1420   37.7810 C   0  0  0  0  0  0  0  0  0  0  0  0
   41.2440   32.9410   38.2100 H   0  0  0  0  0  0  0  0  0  0  0  0
   41.0550   31.6500   36.5530 C   0  0  0  0  0  3  0  0  0  0  0  0
   40.2740   30.6510   36.0140 C   0  0  0  0  0  0  0  0  0  0  0  0
   40.8000   30.0100   34.4670 Cl  0  0  0  0  0  0  0  0  0  0  0  0
   39.1440   30.1730   36.6440 C   0  0  0  0  0  0  0  0  0  0  0  0
   38.5440   29.3830   36.1970 H   0  0  0  0  0  0  0  0  0  0  0  0
  1  2  1  0  0  0  0
  1 10  1  0  0  0  0
  2  7  1  0  0  0  0
  3  8  1  0  0  0  0
  3  2  2  0  0  0  0
  4  3  1  0  0  0  0
  5  4  2  0  0  0  0
  5  6  1  0  0  0  0
  6  1  2  0  0  0  0
  9  4  1  0  0  0  0
 10 12  1  0  0  0  0
 11 10  2  0  0  0  0
 12 13  1  0  0  0  0
 12 16  1  0  0  0  0
 14 17  1  6  0  0  0
 14 25  1  0  0  0  0
 15 14  1  0  0  0  0
 15 19  1  0  0  0  0
 16 20  1  6  0  0  0
 16 15  1  0  0  0  0
 16 14  1  0  0  0  0
 18 15  1  0  0  0  0
 21 22  1  0  0  0  0
 22 23  2  0  0  0  0
 22 28  1  0  0  0  0
 23 29  1  0  0  0  0
 24 23  1  0  0  0  0
 25 24  2  0  0  0  0
 26 25  1  0  0  0  0
 26 21  2  0  0  0  0
 27 21  1  0  0  0  0
 30  5  1  0  0  0  0
 31 30  2  0  0  0  0
 33 34  1  0  0  0  0
 33 32  1  0  0  0  0
 34 30  1  0  0  0  0
 35 36  1  0  0  0  0
 35 34  2  0  0  0  0
 37 35  1  0  0  0  0
 38 37  2  0  0  0  0
 38 40  1  0  0  0  0
 39 38  1  0  0  0  0
 40 33  2  0  0  0  0
 41 40  1  0  0  0  0
M  END
>  <minimizedAffinity>
-4.97484303

>  <minimizedRMSD>
0.455811769

$$$$
