REMARK  Name = 
REMARK  2 active torsions:
REMARK  status: ('A' for Active; 'I' for Inactive)
REMARK    1  A    between atoms: C_5  and  C_7
REMARK    2  A    between atoms: C_7  and  C_14
REMARK                            x       y       z     vdW  Elec       q    Type
REMARK                         _______ _______ _______ _____ _____    ______ ____
ROOT
ATOM      1  C   UNL     1      34.824  28.309  49.478  0.00  0.00    +0.000 C 
ATOM      2  O   UNL     1      33.627  28.718  49.564  0.00  0.00    +0.000 OA
ENDROOT
BRANCH   1   5
ATOM      3 CL   UNL     1      34.229  27.995  46.621  0.00  0.00    +0.000 Cl
ATOM      4  C   UNL     1      34.572  26.632  47.695  0.00  0.00    +0.000 A 
ATOM      5  C   UNL     1      34.841  26.911  49.037  0.00  0.00    +0.000 A 
ATOM      6  C   UNL     1      35.105  25.824  49.844  0.00  0.00    +0.000 A 
ATOM      7  H   UNL     1      35.315  26.023  50.886  0.00  0.00    +0.000 HD
ATOM      8  C   UNL     1      35.098  24.541  49.337  0.00  0.00    +0.000 A 
ATOM      9  C   UNL     1      34.827  24.319  48.006  0.00  0.00    +0.000 A 
ATOM     10 CL   UNL     1      34.795  22.714  47.264  0.00  0.00    +0.000 Cl
ATOM     11  C   UNL     1      34.553  25.352  47.132  0.00  0.00    +0.000 A 
ATOM     12  H   UNL     1      34.333  25.254  46.080  0.00  0.00    +0.000 HD
ENDBRANCH   1   5
BRANCH   1  17
ATOM     13  C   UNL     1      37.264  30.183  51.420  0.00  0.00    +0.000 A 
ATOM     14  C   UNL     1      38.096  30.760  50.451  0.00  0.00    +0.000 A 
ATOM     15  C   UNL     1      37.803  30.493  49.112  0.00  0.00    +0.000 A 
ATOM     16  N   UNL     1      36.739  29.698  48.845  0.00  0.00    +0.000 NA
ATOM     17  C   UNL     1      35.960  29.159  49.787  0.00  0.00    +0.000 A 
ATOM     18  N   UNL     1      36.237  29.412  51.062  0.00  0.00    +0.000 NA
ATOM     19  H   UNL     1      37.534  30.422  52.430  0.00  0.00    +0.000 HD
ATOM     20  H   UNL     1      38.954  31.400  50.609  0.00  0.00    +0.000 HD
ATOM     21  H   UNL     1      38.307  30.832  48.241  0.00  0.00    +0.000 HD
ENDBRANCH   1  17
TORSDOF 2
