
 OpenBabel03272508433D

 21 22  0  0  0  0  0  0  0  0999 V2000
   39.1450   24.2960   34.5180 C   0  0  0  0  0  0  0  0  0  0  0  0
   40.2680   24.4940   33.9630 O   0  0  0  0  0  0  0  0  0  0  0  0
   38.2270   27.0620   34.1760 Cl  0  0  0  0  0  0  0  0  0  0  0  0
   37.5490   25.6980   33.2770 C   0  0  0  0  0  0  0  0  0  0  0  0
   38.0720   24.4270   33.5290 C   0  0  0  0  0  0  0  0  0  0  0  0
   37.5200   23.3890   32.8100 C   0  0  0  0  0  0  0  0  0  0  0  0
   37.9130   22.3980   32.9920 H   0  0  0  0  0  0  0  0  0  0  0  0
   36.5090   23.6110   31.8970 C   0  0  0  0  0  3  0  0  0  0  0  0
   36.0290   24.8830   31.6850 C   0  0  0  0  0  0  0  0  0  0  0  0
   34.7380   25.2670   30.5390 Cl  0  0  0  0  0  0  0  0  0  0  0  0
   36.5280   25.9770   32.3640 C   0  0  0  0  0  0  0  0  0  0  0  0
   36.2010   27.0000   32.2510 H   0  0  0  0  0  0  0  0  0  0  0  0
   39.8370   22.8170   37.7700 C   0  0  0  0  0  0  0  0  0  0  0  0
   38.8490   23.3570   38.6040 C   0  0  0  0  0  0  0  0  0  0  0  0
   37.9360   24.2430   38.0270 C   0  0  0  0  0  0  0  0  0  0  0  0
   38.0690   24.5160   36.7070 N   0  0  0  0  0  0  0  0  0  0  0  0
   39.0210   23.9880   35.9320 C   0  0  0  0  0  0  0  0  0  0  0  0
   39.8910   23.1450   36.4790 N   0  0  0  0  0  0  0  0  0  0  0  0
   40.5100   22.1440   38.2640 H   0  0  0  0  0  0  0  0  0  0  0  0
   38.6980   23.1730   39.6590 H   0  0  0  0  0  0  0  0  0  0  0  0
   37.1240   24.7520   38.4850 H   0  0  0  0  0  0  0  0  0  0  0  0
  1 17  1  0  0  0  0
  2  1  2  0  0  0  0
  4  5  1  0  0  0  0
  4  3  1  0  0  0  0
  5  1  1  0  0  0  0
  6  7  1  0  0  0  0
  6  5  2  0  0  0  0
  8  6  1  0  0  0  0
  9  8  2  0  0  0  0
  9 11  1  0  0  0  0
 10  9  1  0  0  0  0
 11  4  2  0  0  0  0
 12 11  1  0  0  0  0
 13 19  1  0  0  0  0
 13 14  1  0  0  0  0
 14 20  1  0  0  0  0
 15 21  1  0  0  0  0
 15 14  2  0  0  0  0
 16 15  1  0  0  0  0
 17 18  1  0  0  0  0
 17 16  2  0  0  0  0
 18 13  2  0  0  0  0
M  END
>  <minimizedAffinity>
-4.58894396

$$$$

 OpenBabel03272508433D

 21 22  0  0  0  0  0  0  0  0999 V2000
   38.3020   25.1290   33.2320 C   0  0  0  0  0  0  0  0  0  0  0  0
   39.4300   25.5760   32.8620 O   0  0  0  0  0  0  0  0  0  0  0  0
   37.6510   27.0800   35.3250 Cl  0  0  0  0  0  0  0  0  0  0  0  0
   38.1210   25.4100   35.6700 C   0  0  0  0  0  0  0  0  0  0  0  0
   38.4070   24.5770   34.5860 C   0  0  0  0  0  0  0  0  0  0  0  0
   38.7700   23.2820   34.8920 C   0  0  0  0  0  0  0  0  0  0  0  0
   38.9940   22.6240   34.0640 H   0  0  0  0  0  0  0  0  0  0  0  0
   38.8410   22.8520   36.2010 C   0  0  0  0  0  3  0  0  0  0  0  0
   38.5480   23.7140   37.2340 C   0  0  0  0  0  0  0  0  0  0  0  0
   38.6110   23.2560   38.9410 Cl  0  0  0  0  0  0  0  0  0  0  0  0
   38.1770   25.0250   37.0120 C   0  0  0  0  0  0  0  0  0  0  0  0
   37.9350   25.7550   37.7700 H   0  0  0  0  0  0  0  0  0  0  0  0
   35.4870   24.0320   31.2050 C   0  0  0  0  0  0  0  0  0  0  0  0
   34.8930   25.2270   30.7770 C   0  0  0  0  0  0  0  0  0  0  0  0
   35.4800   26.4230   31.1970 C   0  0  0  0  0  0  0  0  0  0  0  0
   36.5770   26.3430   31.9880 N   0  0  0  0  0  0  0  0  0  0  0  0
   37.1250   25.1910   32.3840 C   0  0  0  0  0  0  0  0  0  0  0  0
   36.5690   24.0520   31.9840 N   0  0  0  0  0  0  0  0  0  0  0  0
   34.9970   23.1460   30.8520 H   0  0  0  0  0  0  0  0  0  0  0  0
   34.0210   25.3460   30.1470 H   0  0  0  0  0  0  0  0  0  0  0  0
   35.1840   27.4200   30.9830 H   0  0  0  0  0  0  0  0  0  0  0  0
  1  5  1  0  0  0  0
  2  1  2  0  0  0  0
  3  4  1  0  0  0  0
  4 11  1  0  0  0  0
  5  6  1  0  0  0  0
  5  4  2  0  0  0  0
  6  8  2  0  0  0  0
  7  6  1  0  0  0  0
  8  9  1  0  0  0  0
  9 10  1  0  0  0  0
 11  9  2  0  0  0  0
 11 12  1  0  0  0  0
 13 18  1  0  0  0  0
 14 15  1  0  0  0  0
 14 13  2  0  0  0  0
 15 16  2  0  0  0  0
 16 17  1  0  0  0  0
 17  1  1  0  0  0  0
 18 17  2  0  0  0  0
 19 13  1  0  0  0  0
 20 14  1  0  0  0  0
 21 15  1  0  0  0  0
M  END
>  <minimizedAffinity>
-4.55121136

$$$$

 OpenBabel03272508433D

 21 22  0  0  0  0  0  0  0  0999 V2000
   38.5510   24.0510   36.4500 C   0  0  0  0  0  0  0  0  0  0  0  0
   37.5610   23.6830   37.1520 O   0  0  0  0  0  0  0  0  0  0  0  0
   37.7830   23.2490   33.7330 Cl  0  0  0  0  0  0  0  0  0  0  0  0
   37.7790   24.9300   34.2850 C   0  0  0  0  0  0  0  0  0  0  0  0
   38.1660   25.1840   35.6030 C   0  0  0  0  0  0  0  0  0  0  0  0
   38.1510   26.5040   35.9980 C   0  0  0  0  0  0  0  0  0  0  0  0
   38.4470   26.7190   37.0150 H   0  0  0  0  0  0  0  0  0  0  0  0
   37.7720   27.5050   35.1270 C   0  0  0  0  0  3  0  0  0  0  0  0
   37.3990   27.2020   33.8370 C   0  0  0  0  0  0  0  0  0  0  0  0
   36.8990   28.4130   32.6490 Cl  0  0  0  0  0  0  0  0  0  0  0  0
   37.3870   25.9050   33.3630 C   0  0  0  0  0  0  0  0  0  0  0  0
   37.1080   25.5930   32.3680 H   0  0  0  0  0  0  0  0  0  0  0  0
   41.1730   21.7800   37.5460 C   0  0  0  0  0  0  0  0  0  0  0  0
   42.2680   22.1120   36.7370 C   0  0  0  0  0  0  0  0  0  0  0  0
   42.0900   23.1360   35.8040 C   0  0  0  0  0  0  0  0  0  0  0  0
   40.8750   23.7320   35.7460 N   0  0  0  0  0  0  0  0  0  0  0  0
   39.8450   23.3970   36.5290 C   0  0  0  0  0  0  0  0  0  0  0  0
   40.0130   22.4240   37.4180 N   0  0  0  0  0  0  0  0  0  0  0  0
   41.3670   20.9890   38.2440 H   0  0  0  0  0  0  0  0  0  0  0  0
   43.2560   21.6700   36.7420 H   0  0  0  0  0  0  0  0  0  0  0  0
   42.7880   23.5300   35.1080 H   0  0  0  0  0  0  0  0  0  0  0  0
  1 17  1  0  0  0  0
  1  2  2  0  0  0  0
  3  4  1  0  0  0  0
  4  5  1  0  0  0  0
  5  6  2  0  0  0  0
  5  1  1  0  0  0  0
  6  7  1  0  0  0  0
  8  6  1  0  0  0  0
  9  8  2  0  0  0  0
 10  9  1  0  0  0  0
 11  9  1  0  0  0  0
 11  4  2  0  0  0  0
 12 11  1  0  0  0  0
 13 19  1  0  0  0  0
 14 20  1  0  0  0  0
 14 13  2  0  0  0  0
 15 14  1  0  0  0  0
 16 15  2  0  0  0  0
 16 17  1  0  0  0  0
 17 18  2  0  0  0  0
 18 13  1  0  0  0  0
 21 15  1  0  0  0  0
M  END
>  <minimizedAffinity>
-4.45128775

$$$$

 OpenBabel03272508433D

 21 22  0  0  0  0  0  0  0  0999 V2000
   37.7810   26.3970   34.9240 C   0  0  0  0  0  0  0  0  0  0  0  0
   37.8580   27.4470   35.6310 O   0  0  0  0  0  0  0  0  0  0  0  0
   40.5270   25.8990   34.0180 Cl  0  0  0  0  0  0  0  0  0  0  0  0
   39.7340   24.9440   35.2780 C   0  0  0  0  0  0  0  0  0  0  0  0
   38.4230   25.2800   35.6220 C   0  0  0  0  0  0  0  0  0  0  0  0
   37.8370   24.5140   36.6080 C   0  0  0  0  0  0  0  0  0  0  0  0
   36.8220   24.7610   36.8860 H   0  0  0  0  0  0  0  0  0  0  0  0
   38.5220   23.4790   37.2090 C   0  0  0  0  0  3  0  0  0  0  0  0
   39.8150   23.1890   36.8350 C   0  0  0  0  0  0  0  0  0  0  0  0
   40.7740   21.8840   37.5460 Cl  0  0  0  0  0  0  0  0  0  0  0  0
   40.4730   23.9070   35.8560 C   0  0  0  0  0  0  0  0  0  0  0  0
   41.4820   23.7370   35.5110 H   0  0  0  0  0  0  0  0  0  0  0  0
   36.0430   27.5810   31.9540 C   0  0  0  0  0  0  0  0  0  0  0  0
   35.8990   26.4320   31.1660 C   0  0  0  0  0  0  0  0  0  0  0  0
   36.4110   25.2360   31.6750 C   0  0  0  0  0  0  0  0  0  0  0  0
   37.0100   25.2720   32.8900 N   0  0  0  0  0  0  0  0  0  0  0  0
   37.1350   26.3820   33.6230 C   0  0  0  0  0  0  0  0  0  0  0  0
   36.6480   27.5200   33.1410 N   0  0  0  0  0  0  0  0  0  0  0  0
   35.6310   28.4690   31.5160 H   0  0  0  0  0  0  0  0  0  0  0  0
   35.4310   26.3480   30.1940 H   0  0  0  0  0  0  0  0  0  0  0  0
   36.4020   24.2690   31.2360 H   0  0  0  0  0  0  0  0  0  0  0  0
  1  5  1  0  0  0  0
  1  2  2  0  0  0  0
  3  4  1  0  0  0  0
  4  5  2  0  0  0  0
  4 11  1  0  0  0  0
  5  6  1  0  0  0  0
  6  7  1  0  0  0  0
  6  8  2  0  0  0  0
  9  8  1  0  0  0  0
  9 10  1  0  0  0  0
 11  9  2  0  0  0  0
 12 11  1  0  0  0  0
 13 18  1  0  0  0  0
 14 15  1  0  0  0  0
 14 13  2  0  0  0  0
 15 16  2  0  0  0  0
 16 17  1  0  0  0  0
 17  1  1  0  0  0  0
 18 17  2  0  0  0  0
 19 13  1  0  0  0  0
 20 14  1  0  0  0  0
 21 15  1  0  0  0  0
M  END
>  <minimizedAffinity>
-4.40495396

$$$$

 OpenBabel03272508433D

 21 22  0  0  0  0  0  0  0  0999 V2000
   38.5710   26.3000   34.9090 C   0  0  0  0  0  0  0  0  0  0  0  0
   39.5820   26.9190   35.3600 O   0  0  0  0  0  0  0  0  0  0  0  0
   39.5560   26.4060   32.1460 Cl  0  0  0  0  0  0  0  0  0  0  0  0
   38.1560   27.3270   32.7110 C   0  0  0  0  0  0  0  0  0  0  0  0
   37.7850   27.1920   34.0510 C   0  0  0  0  0  0  0  0  0  0  0  0
   36.6890   27.9250   34.4560 C   0  0  0  0  0  0  0  0  0  0  0  0
   36.3880   27.8320   35.4900 H   0  0  0  0  0  0  0  0  0  0  0  0
   36.0110   28.7400   33.5740 C   0  0  0  0  0  3  0  0  0  0  0  0
   36.4170   28.8380   32.2620 C   0  0  0  0  0  0  0  0  0  0  0  0
   35.6130   29.8540   31.0580 Cl  0  0  0  0  0  0  0  0  0  0  0  0
   37.5040   28.1370   31.7780 C   0  0  0  0  0  0  0  0  0  0  0  0
   37.8790   28.1650   30.7650 H   0  0  0  0  0  0  0  0  0  0  0  0
   37.6510   23.3630   36.8480 C   0  0  0  0  0  0  0  0  0  0  0  0
   37.7640   22.3060   35.9340 C   0  0  0  0  0  0  0  0  0  0  0  0
   38.1650   22.6210   34.6340 C   0  0  0  0  0  0  0  0  0  0  0  0
   38.4140   23.9220   34.3490 N   0  0  0  0  0  0  0  0  0  0  0  0
   38.2990   24.9120   35.2370 C   0  0  0  0  0  0  0  0  0  0  0  0
   37.9180   24.6150   36.4750 N   0  0  0  0  0  0  0  0  0  0  0  0
   37.3410   23.0640   37.8300 H   0  0  0  0  0  0  0  0  0  0  0  0
   37.5790   21.2540   36.1100 H   0  0  0  0  0  0  0  0  0  0  0  0
   38.3080   21.9710   33.8070 H   0  0  0  0  0  0  0  0  0  0  0  0
  1 17  1  0  0  0  0
  1  2  2  0  0  0  0
  3  4  1  0  0  0  0
  4  5  1  0  0  0  0
  5  6  2  0  0  0  0
  5  1  1  0  0  0  0
  6  7  1  0  0  0  0
  8  6  1  0  0  0  0
  9  8  2  0  0  0  0
 10  9  1  0  0  0  0
 11  9  1  0  0  0  0
 11  4  2  0  0  0  0
 12 11  1  0  0  0  0
 13 19  1  0  0  0  0
 14 20  1  0  0  0  0
 14 13  2  0  0  0  0
 15 14  1  0  0  0  0
 16 15  2  0  0  0  0
 16 17  1  0  0  0  0
 17 18  2  0  0  0  0
 18 13  1  0  0  0  0
 21 15  1  0  0  0  0
M  END
>  <minimizedAffinity>
-4.37593269

$$$$

 OpenBabel03272508433D

 21 22  0  0  0  0  0  0  0  0999 V2000
   38.6420   23.0830   36.1940 C   0  0  0  0  0  0  0  0  0  0  0  0
   38.7720   23.0640   37.4550 O   0  0  0  0  0  0  0  0  0  0  0  0
   37.5150   25.7600   35.7740 Cl  0  0  0  0  0  0  0  0  0  0  0  0
   39.1820   25.3360   35.3620 C   0  0  0  0  0  0  0  0  0  0  0  0
   39.6010   24.0260   35.6100 C   0  0  0  0  0  0  0  0  0  0  0  0
   40.9060   23.7310   35.2770 C   0  0  0  0  0  0  0  0  0  0  0  0
   41.2470   22.7220   35.4630 H   0  0  0  0  0  0  0  0  0  0  0  0
   41.7360   24.6880   34.7300 C   0  0  0  0  0  3  0  0  0  0  0  0
   41.2740   25.9660   34.5050 C   0  0  0  0  0  0  0  0  0  0  0  0
   42.2610   27.2580   33.8100 Cl  0  0  0  0  0  0  0  0  0  0  0  0
   39.9810   26.3410   34.8110 C   0  0  0  0  0  0  0  0  0  0  0  0
   39.5510   27.3200   34.6620 H   0  0  0  0  0  0  0  0  0  0  0  0
   35.7780   20.9090   35.6430 C   0  0  0  0  0  0  0  0  0  0  0  0
   35.7780   20.6940   34.2580 C   0  0  0  0  0  0  0  0  0  0  0  0
   36.7840   21.3130   33.5130 C   0  0  0  0  0  0  0  0  0  0  0  0
   37.6860   22.0730   34.1780 N   0  0  0  0  0  0  0  0  0  0  0  0
   37.6650   22.2630   35.5010 C   0  0  0  0  0  0  0  0  0  0  0  0
   36.7080   21.6750   36.2120 N   0  0  0  0  0  0  0  0  0  0  0  0
   34.9850   20.4100   36.1650 H   0  0  0  0  0  0  0  0  0  0  0  0
   35.0850   20.0980   33.6790 H   0  0  0  0  0  0  0  0  0  0  0  0
   36.9540   21.2740   32.4650 H   0  0  0  0  0  0  0  0  0  0  0  0
  1  2  2  0  0  0  0
  4  5  1  0  0  0  0
  4  3  1  0  0  0  0
  5  1  1  0  0  0  0
  6  7  1  0  0  0  0
  6  5  2  0  0  0  0
  8  6  1  0  0  0  0
  9  8  2  0  0  0  0
  9 11  1  0  0  0  0
 10  9  1  0  0  0  0
 11  4  2  0  0  0  0
 12 11  1  0  0  0  0
 13 19  1  0  0  0  0
 13 18  1  0  0  0  0
 14 13  2  0  0  0  0
 15 16  2  0  0  0  0
 15 14  1  0  0  0  0
 16 17  1  0  0  0  0
 17  1  1  0  0  0  0
 17 18  2  0  0  0  0
 20 14  1  0  0  0  0
 21 15  1  0  0  0  0
M  END
>  <minimizedAffinity>
-4.34658289

$$$$

 OpenBabel03272508433D

 21 22  0  0  0  0  0  0  0  0999 V2000
   38.1940   24.5930   32.5610 C   0  0  0  0  0  0  0  0  0  0  0  0
   38.9300   24.6810   31.5330 O   0  0  0  0  0  0  0  0  0  0  0  0
   35.7680   24.8500   30.9300 Cl  0  0  0  0  0  0  0  0  0  0  0  0
   36.2250   23.3550   31.7560 C   0  0  0  0  0  0  0  0  0  0  0  0
   37.4050   23.3590   32.5040 C   0  0  0  0  0  0  0  0  0  0  0  0
   37.7300   22.1760   33.1340 C   0  0  0  0  0  0  0  0  0  0  0  0
   38.6410   22.1610   33.7170 H   0  0  0  0  0  0  0  0  0  0  0  0
   36.9230   21.0630   33.0220 C   0  0  0  0  0  3  0  0  0  0  0  0
   35.7700   21.1110   32.2720 C   0  0  0  0  0  0  0  0  0  0  0  0
   34.6730   19.7390   32.0680 Cl  0  0  0  0  0  0  0  0  0  0  0  0
   35.3740   22.2560   31.6100 C   0  0  0  0  0  0  0  0  0  0  0  0
   34.4850   22.3670   31.0070 H   0  0  0  0  0  0  0  0  0  0  0  0
   39.3730   26.7360   35.2540 C   0  0  0  0  0  0  0  0  0  0  0  0
   38.2520   27.5090   35.5870 C   0  0  0  0  0  0  0  0  0  0  0  0
   37.0780   27.2800   34.8670 C   0  0  0  0  0  0  0  0  0  0  0  0
   37.1050   26.3300   33.9010 N   0  0  0  0  0  0  0  0  0  0  0  0
   38.1870   25.6060   33.6020 C   0  0  0  0  0  0  0  0  0  0  0  0
   39.3060   25.8220   34.2860 N   0  0  0  0  0  0  0  0  0  0  0  0
   40.2460   26.9530   35.8390 H   0  0  0  0  0  0  0  0  0  0  0  0
   38.1770   28.2760   36.3460 H   0  0  0  0  0  0  0  0  0  0  0  0
   36.1340   27.7550   34.9670 H   0  0  0  0  0  0  0  0  0  0  0  0
  1 17  1  0  0  0  0
  2  1  2  0  0  0  0
  3  4  1  0  0  0  0
  4  5  1  0  0  0  0
  5  1  1  0  0  0  0
  5  6  2  0  0  0  0
  6  7  1  0  0  0  0
  8  6  1  0  0  0  0
  9  8  2  0  0  0  0
 10  9  1  0  0  0  0
 11  4  2  0  0  0  0
 11  9  1  0  0  0  0
 12 11  1  0  0  0  0
 13 14  1  0  0  0  0
 13 19  1  0  0  0  0
 14 20  1  0  0  0  0
 15 21  1  0  0  0  0
 15 14  2  0  0  0  0
 16 15  1  0  0  0  0
 17 16  2  0  0  0  0
 17 18  1  0  0  0  0
 18 13  2  0  0  0  0
M  END
>  <minimizedAffinity>
-4.30610418

$$$$

 OpenBabel03272508433D

 21 22  0  0  0  0  0  0  0  0999 V2000
   38.5440   24.0150   33.2730 C   0  0  0  0  0  0  0  0  0  0  0  0
   39.6900   23.6560   32.8660 O   0  0  0  0  0  0  0  0  0  0  0  0
   37.9640   22.0540   35.3780 Cl  0  0  0  0  0  0  0  0  0  0  0  0
   37.1800   22.0330   33.7920 C   0  0  0  0  0  0  0  0  0  0  0  0
   37.5420   23.0220   32.8740 C   0  0  0  0  0  0  0  0  0  0  0  0
   36.9110   22.9750   31.6490 C   0  0  0  0  0  0  0  0  0  0  0  0
   37.1790   23.7330   30.9260 H   0  0  0  0  0  0  0  0  0  0  0  0
   35.9790   21.9990   31.3640 C   0  0  0  0  0  3  0  0  0  0  0  0
   35.6560   21.0460   32.3040 C   0  0  0  0  0  0  0  0  0  0  0  0
   34.4760   19.7580   32.0330 Cl  0  0  0  0  0  0  0  0  0  0  0  0
   36.2430   21.0240   33.5540 C   0  0  0  0  0  0  0  0  0  0  0  0
   36.0410   20.3100   34.3390 H   0  0  0  0  0  0  0  0  0  0  0  0
   36.9810   27.0940   34.4200 C   0  0  0  0  0  0  0  0  0  0  0  0
   37.8640   27.5780   35.3950 C   0  0  0  0  0  0  0  0  0  0  0  0
   39.0110   26.8250   35.6530 C   0  0  0  0  0  0  0  0  0  0  0  0
   39.1890   25.6830   34.9450 N   0  0  0  0  0  0  0  0  0  0  0  0
   38.3330   25.2420   34.0200 C   0  0  0  0  0  0  0  0  0  0  0  0
   37.2400   25.9570   33.7720 N   0  0  0  0  0  0  0  0  0  0  0  0
   36.1190   27.7110   34.2610 H   0  0  0  0  0  0  0  0  0  0  0  0
   37.7700   28.4800   35.9850 H   0  0  0  0  0  0  0  0  0  0  0  0
   39.7920   27.0200   36.3450 H   0  0  0  0  0  0  0  0  0  0  0  0
  1 17  1  0  0  0  0
  2  1  2  0  0  0  0
  4  3  1  0  0  0  0
  5  1  1  0  0  0  0
  5  4  2  0  0  0  0
  6  5  1  0  0  0  0
  7  6  1  0  0  0  0
  8  6  2  0  0  0  0
  8  9  1  0  0  0  0
  9 11  2  0  0  0  0
 10  9  1  0  0  0  0
 11  4  1  0  0  0  0
 11 12  1  0  0  0  0
 13 14  1  0  0  0  0
 14 15  2  0  0  0  0
 14 20  1  0  0  0  0
 15 21  1  0  0  0  0
 16 15  1  0  0  0  0
 17 16  2  0  0  0  0
 18 17  1  0  0  0  0
 18 13  2  0  0  0  0
 19 13  1  0  0  0  0
M  END
>  <minimizedAffinity>
-4.28775549

$$$$

 OpenBabel03272508433D

 21 22  0  0  0  0  0  0  0  0999 V2000
   38.4690   24.3460   35.7740 C   0  0  0  0  0  0  0  0  0  0  0  0
   37.4850   24.4550   36.5660 O   0  0  0  0  0  0  0  0  0  0  0  0
   38.9100   27.2460   35.8740 Cl  0  0  0  0  0  0  0  0  0  0  0  0
   38.3350   26.4030   34.4290 C   0  0  0  0  0  0  0  0  0  0  0  0
   38.1640   25.0180   34.5080 C   0  0  0  0  0  0  0  0  0  0  0  0
   37.7150   24.3950   33.3630 C   0  0  0  0  0  0  0  0  0  0  0  0
   37.5770   23.3230   33.4060 H   0  0  0  0  0  0  0  0  0  0  0  0
   37.4540   25.1140   32.2150 C   0  0  0  0  0  3  0  0  0  0  0  0
   37.6390   26.4780   32.1890 C   0  0  0  0  0  0  0  0  0  0  0  0
   37.3320   27.4840   30.7680 Cl  0  0  0  0  0  0  0  0  0  0  0  0
   38.0860   27.1770   33.2930 C   0  0  0  0  0  0  0  0  0  0  0  0
   38.2530   28.2430   33.3460 H   0  0  0  0  0  0  0  0  0  0  0  0
   41.9700   23.3590   35.7970 C   0  0  0  0  0  0  0  0  0  0  0  0
   42.0330   22.3570   36.7750 C   0  0  0  0  0  0  0  0  0  0  0  0
   40.8450   22.0250   37.4300 C   0  0  0  0  0  0  0  0  0  0  0  0
   39.7200   22.6920   37.0750 N   0  0  0  0  0  0  0  0  0  0  0  0
   39.6860   23.6440   36.1390 C   0  0  0  0  0  0  0  0  0  0  0  0
   40.8150   23.9610   35.5140 N   0  0  0  0  0  0  0  0  0  0  0  0
   42.9100   23.5730   35.3260 H   0  0  0  0  0  0  0  0  0  0  0  0
   42.9000   21.7950   37.0960 H   0  0  0  0  0  0  0  0  0  0  0  0
   40.6860   21.3020   38.1920 H   0  0  0  0  0  0  0  0  0  0  0  0
  1 17  1  0  0  0  0
  1  2  2  0  0  0  0
  4  5  1  0  0  0  0
  4  3  1  0  0  0  0
  5  1  1  0  0  0  0
  6  7  1  0  0  0  0
  6  5  2  0  0  0  0
  8  6  1  0  0  0  0
  9  8  2  0  0  0  0
  9 11  1  0  0  0  0
 10  9  1  0  0  0  0
 11 12  1  0  0  0  0
 11  4  2  0  0  0  0
 13 14  1  0  0  0  0
 14 20  1  0  0  0  0
 14 15  2  0  0  0  0
 15 21  1  0  0  0  0
 16 15  1  0  0  0  0
 17 16  2  0  0  0  0
 18 13  2  0  0  0  0
 18 17  1  0  0  0  0
 19 13  1  0  0  0  0
M  END
>  <minimizedAffinity>
-4.25624704

$$$$
