REMARK  Name = 
REMARK  2 active torsions:
REMARK  status: ('A' for Active; 'I' for Inactive)
REMARK    1  A    between atoms: C_2  and  C_12
REMARK    2  A    between atoms: C_6  and  C_23
REMARK                            x       y       z     vdW  Elec       q    Type
REMARK                         _______ _______ _______ _____ _____    ______ ____
ROOT
ATOM      1  C   UNL     1      37.059  30.696  46.763  0.00  0.00    +0.000 A 
ATOM      2  C   UNL     1      37.698  31.137  47.914  0.00  0.00    +0.000 A 
ATOM      3  C   UNL     1      38.701  32.063  47.831  0.00  0.00    +0.000 A 
ATOM      4  C   UNL     1      39.056  32.542  46.582  0.00  0.00    +0.000 A 
ATOM      5  N   UNL     1      40.012  33.454  46.271  0.00  0.00    +0.000 N 
ATOM      6  C   UNL     1      39.990  33.600  44.927  0.00  0.00    +0.000 A 
ATOM      7  N   UNL     1      39.050  32.809  44.390  0.00  0.00    +0.000 NA
ATOM      8  C   UNL     1      38.442  32.129  45.393  0.00  0.00    +0.000 A 
ATOM      9  C   UNL     1      37.432  31.192  45.513  0.00  0.00    +0.000 A 
ATOM     10  H   UNL     1      36.260  29.964  46.779  0.00  0.00    +0.000 HD
ATOM     11  H   UNL     1      39.205  32.412  48.724  0.00  0.00    +0.000 HD
ATOM     12  H   UNL     1      40.670  33.978  46.889  0.00  0.00    +0.000 HD
ATOM     13  H   UNL     1      36.950  30.865  44.602  0.00  0.00    +0.000 HD
ENDROOT
BRANCH   2  16
ATOM     14  C   UNL     1      37.408  30.153  51.539  0.00  0.00    +0.000 A 
ATOM     15  C   UNL     1      37.918  30.736  50.383  0.00  0.00    +0.000 A 
ATOM     16  C   UNL     1      37.246  30.567  49.178  0.00  0.00    +0.000 A 
ATOM     17  N   UNL     1      36.101  29.828  49.170  0.00  0.00    +0.000 NA
ATOM     18  C   UNL     1      35.623  29.270  50.310  0.00  0.00    +0.000 A 
ATOM     19  N   UNL     1      36.275  29.435  51.474  0.00  0.00    +0.000 NA
ATOM     20  H   UNL     1      37.970  30.317  52.445  0.00  0.00    +0.000 HD
ATOM     21  H   UNL     1      38.812  31.311  50.399  0.00  0.00    +0.000 HD
ATOM     22  H   UNL     1      34.723  28.682  50.334  0.00  0.00    +0.000 HD
ENDBRANCH   2  16
BRANCH   6  23
ATOM     23  C   UNL     1      40.786  34.441  44.015  0.00  0.00    +0.000 C 
ATOM     24  H   UNL     1      41.331  33.834  43.255  0.00  0.00    +0.000 HD
ENDBRANCH   6  23
TORSDOF 2
