
 OpenBabel03272505193D

 26 27  0  0  0  0  0  0  0  0999 V2000
   38.5260   25.8780   34.2140 C   0  0  0  0  0  0  0  0  0  0  0  0
   38.2870   24.5590   34.4610 C   0  0  0  0  0  0  0  0  0  0  0  0
   37.7560   23.8150   33.4290 C   0  0  0  0  0  0  0  0  0  0  0  0
   37.4780   24.3430   32.2220 C   0  0  0  0  0  0  0  0  0  0  0  0
   37.7100   25.6810   31.9420 C   0  0  0  0  0  0  0  0  0  0  0  0
   38.2390   26.4270   32.9660 C   0  0  0  0  0  0  0  0  0  0  0  0
   37.5670   22.7650   33.6290 H   0  0  0  0  0  0  0  0  0  0  0  0
   37.0630   23.6820   31.4690 H   0  0  0  0  0  0  0  0  0  0  0  0
   37.4710   26.0640   30.9600 H   0  0  0  0  0  0  0  0  0  0  0  0
   38.3930   27.4600   32.6770 H   0  0  0  0  0  0  0  0  0  0  0  0
   37.9170   23.8050   38.0920 C   0  0  0  0  0  0  0  0  0  0  0  0
   37.7050   24.2960   36.7870 C   0  0  0  0  0  0  0  0  0  0  0  0
   38.5850   24.0150   35.7620 C   0  0  0  0  0  0  0  0  0  0  0  0
   39.6290   23.2450   36.1450 N   0  0  0  0  0  0  0  0  0  0  0  0
   39.8510   22.7690   37.3670 C   0  0  0  0  0  0  0  0  0  0  0  0
   38.9840   23.0540   38.3530 N   0  0  0  0  0  0  0  0  0  0  0  0
   37.2300   24.0270   38.8870 H   0  0  0  0  0  0  0  0  0  0  0  0
   36.8000   24.9030   36.6790 H   0  0  0  0  0  0  0  0  0  0  0  0
   41.0690   21.9480   37.5300 C   0  0  0  0  0  2  0  0  0  0  0  0
   41.2880   21.4160   36.5750 H   0  0  0  0  0  0  0  0  0  0  0  0
   40.3560   27.1530   35.0880 N   0  0  0  0  0  0  0  0  0  0  0  0
   39.0760   26.8480   35.1150 C   0  0  0  0  0  0  0  0  0  0  0  0
   38.7500   27.7290   36.1660 N   0  0  0  0  0  0  0  0  0  0  0  0
   40.7510   27.8340   35.7700 H   0  0  0  0  0  0  0  0  0  0  0  0
   38.7590   27.2990   37.1370 H   0  0  0  0  0  0  0  0  0  0  0  0
   38.5110   28.7520   36.0090 H   0  0  0  0  0  0  0  0  0  0  0  0
  1  2  1  0  0  0  0
  1 22  1  0  0  0  0
  2 13  1  0  0  0  0
  3  7  1  0  0  0  0
  3  2  2  0  0  0  0
  4  3  1  0  0  0  0
  5  4  2  0  0  0  0
  5  6  1  0  0  0  0
  6  1  2  0  0  0  0
  8  4  1  0  0  0  0
  9  5  1  0  0  0  0
 10  6  1  0  0  0  0
 11 16  1  0  0  0  0
 11 17  1  0  0  0  0
 12 11  2  0  0  0  0
 13 14  2  0  0  0  0
 13 12  1  0  0  0  0
 14 15  1  0  0  0  0
 15 19  1  0  0  0  0
 15 16  2  0  0  0  0
 18 12  1  0  0  0  0
 20 19  1  0  0  0  0
 21 22  2  0  0  0  0
 21 24  1  0  0  0  0
 22 23  1  0  0  0  0
 23 25  1  0  0  0  0
 26 23  1  0  0  0  0
M  END
>  <minimizedAffinity>
-5.04950285

$$$$

 OpenBabel03272505193D

 26 27  0  0  0  0  0  0  0  0999 V2000
   40.1120   22.7370   36.8550 C   0  0  0  0  0  0  0  0  0  0  0  0
   40.4340   23.4130   35.7170 C   0  0  0  0  0  0  0  0  0  0  0  0
   41.6940   23.2040   35.1990 C   0  0  0  0  0  0  0  0  0  0  0  0
   42.5860   22.3740   35.7730 C   0  0  0  0  0  0  0  0  0  0  0  0
   42.2870   21.6740   36.9310 C   0  0  0  0  0  0  0  0  0  0  0  0
   41.0330   21.8780   37.4520 C   0  0  0  0  0  0  0  0  0  0  0  0
   41.9470   23.7440   34.2920 H   0  0  0  0  0  0  0  0  0  0  0  0
   43.5540   22.2710   35.2950 H   0  0  0  0  0  0  0  0  0  0  0  0
   43.0330   21.0190   37.3600 H   0  0  0  0  0  0  0  0  0  0  0  0
   40.8700   21.3010   38.3550 H   0  0  0  0  0  0  0  0  0  0  0  0
   37.8440   24.6640   33.3470 C   0  0  0  0  0  0  0  0  0  0  0  0
   38.8060   23.8610   33.9940 C   0  0  0  0  0  0  0  0  0  0  0  0
   39.4680   24.3020   35.1230 C   0  0  0  0  0  0  0  0  0  0  0  0
   39.0960   25.5430   35.5140 N   0  0  0  0  0  0  0  0  0  0  0  0
   38.1920   26.3180   34.9210 C   0  0  0  0  0  0  0  0  0  0  0  0
   37.5590   25.8730   33.8230 N   0  0  0  0  0  0  0  0  0  0  0  0
   37.3310   24.3170   32.4690 H   0  0  0  0  0  0  0  0  0  0  0  0
   38.9660   22.8870   33.5230 H   0  0  0  0  0  0  0  0  0  0  0  0
   37.9650   27.6380   35.5460 C   0  0  0  0  0  2  0  0  0  0  0  0
   38.1380   27.5640   36.6450 H   0  0  0  0  0  0  0  0  0  0  0  0
   38.8480   22.9580   38.8790 N   0  0  0  0  0  0  0  0  0  0  0  0
   38.8730   22.7800   37.5750 C   0  0  0  0  0  0  0  0  0  0  0  0
   37.4740   22.6950   37.4250 N   0  0  0  0  0  0  0  0  0  0  0  0
   37.9440   22.9520   39.3950 H   0  0  0  0  0  0  0  0  0  0  0  0
   37.0750   21.7100   37.4400 H   0  0  0  0  0  0  0  0  0  0  0  0
   36.8520   23.5480   37.3040 H   0  0  0  0  0  0  0  0  0  0  0  0
  1  6  1  0  0  0  0
  1 22  1  0  0  0  0
  2  1  2  0  0  0  0
  3  2  1  0  0  0  0
  3  4  2  0  0  0  0
  4  5  1  0  0  0  0
  5  9  1  0  0  0  0
  5  6  2  0  0  0  0
  6 10  1  0  0  0  0
  7  3  1  0  0  0  0
  8  4  1  0  0  0  0
 11 16  2  0  0  0  0
 11 12  1  0  0  0  0
 12 13  2  0  0  0  0
 13 14  1  0  0  0  0
 13  2  1  0  0  0  0
 15 14  2  0  0  0  0
 15 19  1  0  0  0  0
 16 15  1  0  0  0  0
 17 11  1  0  0  0  0
 18 12  1  0  0  0  0
 19 20  1  0  0  0  0
 21 24  1  0  0  0  0
 22 21  2  0  0  0  0
 23 25  1  0  0  0  0
 23 22  1  0  0  0  0
 26 23  1  0  0  0  0
M  END
>  <minimizedAffinity>
-4.92916679

$$$$

 OpenBabel03272505193D

 26 27  0  0  0  0  0  0  0  0999 V2000
   39.7140   26.0330   34.2410 C   0  0  0  0  0  0  0  0  0  0  0  0
   38.6200   25.5630   34.9040 C   0  0  0  0  0  0  0  0  0  0  0  0
   37.3860   25.9600   34.4350 C   0  0  0  0  0  0  0  0  0  0  0  0
   37.2410   26.7740   33.3730 C   0  0  0  0  0  0  0  0  0  0  0  0
   38.3350   27.2670   32.6790 C   0  0  0  0  0  0  0  0  0  0  0  0
   39.5670   26.8750   33.1410 C   0  0  0  0  0  0  0  0  0  0  0  0
   36.5170   25.5840   34.9660 H   0  0  0  0  0  0  0  0  0  0  0  0
   36.2310   27.0340   33.0740 H   0  0  0  0  0  0  0  0  0  0  0  0
   38.1740   27.9190   31.8320 H   0  0  0  0  0  0  0  0  0  0  0  0
   40.3740   27.2980   32.5540 H   0  0  0  0  0  0  0  0  0  0  0  0
   38.0720   24.1000   38.2880 C   0  0  0  0  0  0  0  0  0  0  0  0
   37.9700   24.8990   37.1300 C   0  0  0  0  0  0  0  0  0  0  0  0
   38.7970   24.6990   36.0430 C   0  0  0  0  0  0  0  0  0  0  0  0
   39.6790   23.6870   36.2180 N   0  0  0  0  0  0  0  0  0  0  0  0
   39.7940   22.9200   37.2980 C   0  0  0  0  0  0  0  0  0  0  0  0
   38.9810   23.1300   38.3460 N   0  0  0  0  0  0  0  0  0  0  0  0
   37.4270   24.2590   39.1310 H   0  0  0  0  0  0  0  0  0  0  0  0
   37.1930   25.6680   37.1840 H   0  0  0  0  0  0  0  0  0  0  0  0
   40.8400   21.8770   37.2410 C   0  0  0  0  0  2  0  0  0  0  0  0
   40.9710   21.5390   36.1860 H   0  0  0  0  0  0  0  0  0  0  0  0
   41.9350   26.7300   34.8090 N   0  0  0  0  0  0  0  0  0  0  0  0
   41.0920   25.7590   34.5290 C   0  0  0  0  0  0  0  0  0  0  0  0
   42.0390   24.7220   34.6460 N   0  0  0  0  0  0  0  0  0  0  0  0
   42.9410   26.5220   34.9820 H   0  0  0  0  0  0  0  0  0  0  0  0
   42.5060   24.4290   33.7380 H   0  0  0  0  0  0  0  0  0  0  0  0
   42.2770   24.2580   35.5720 H   0  0  0  0  0  0  0  0  0  0  0  0
  1 22  1  0  0  0  0
  1  2  1  0  0  0  0
  2 13  1  0  0  0  0
  3  2  2  0  0  0  0
  3  7  1  0  0  0  0
  4  3  1  0  0  0  0
  5  6  1  0  0  0  0
  5  4  2  0  0  0  0
  6  1  2  0  0  0  0
  8  4  1  0  0  0  0
  9  5  1  0  0  0  0
 10  6  1  0  0  0  0
 11 16  1  0  0  0  0
 11 17  1  0  0  0  0
 12 18  1  0  0  0  0
 12 11  2  0  0  0  0
 13 14  2  0  0  0  0
 13 12  1  0  0  0  0
 14 15  1  0  0  0  0
 15 16  2  0  0  0  0
 19 15  1  0  0  0  0
 20 19  1  0  0  0  0
 21 24  1  0  0  0  0
 22 23  1  0  0  0  0
 22 21  2  0  0  0  0
 23 26  1  0  0  0  0
 25 23  1  0  0  0  0
M  END
>  <minimizedAffinity>
-4.76290226

$$$$

 OpenBabel03272505193D

 26 27  0  0  0  0  0  0  0  0999 V2000
   38.8970   24.4760   36.4510 C   0  0  0  0  0  0  0  0  0  0  0  0
   39.9110   24.4750   35.5410 C   0  0  0  0  0  0  0  0  0  0  0  0
   40.1180   25.6410   34.8350 C   0  0  0  0  0  0  0  0  0  0  0  0
   39.3680   26.7430   35.0160 C   0  0  0  0  0  0  0  0  0  0  0  0
   38.3290   26.7730   35.9340 C   0  0  0  0  0  0  0  0  0  0  0  0
   38.1180   25.6150   36.6410 C   0  0  0  0  0  0  0  0  0  0  0  0
   40.9270   25.6370   34.1110 H   0  0  0  0  0  0  0  0  0  0  0  0
   39.6030   27.6150   34.4160 H   0  0  0  0  0  0  0  0  0  0  0  0
   37.7500   27.6790   36.0480 H   0  0  0  0  0  0  0  0  0  0  0  0
   37.2920   25.7110   37.3380 H   0  0  0  0  0  0  0  0  0  0  0  0
   41.6630   21.6920   33.7880 C   0  0  0  0  0  0  0  0  0  0  0  0
   40.9040   22.8490   34.0620 C   0  0  0  0  0  0  0  0  0  0  0  0
   40.6980   23.2830   35.3570 C   0  0  0  0  0  0  0  0  0  0  0  0
   41.2870   22.4960   36.2880 N   0  0  0  0  0  0  0  0  0  0  0  0
   42.0070   21.4030   36.0540 C   0  0  0  0  0  0  0  0  0  0  0  0
   42.1960   20.9950   34.7880 N   0  0  0  0  0  0  0  0  0  0  0  0
   41.8200   21.3580   32.7800 H   0  0  0  0  0  0  0  0  0  0  0  0
   40.5110   23.3480   33.1720 H   0  0  0  0  0  0  0  0  0  0  0  0
   42.5450   20.7170   37.2470 C   0  0  0  0  0  2  0  0  0  0  0  0
   42.7430   21.4670   38.0490 H   0  0  0  0  0  0  0  0  0  0  0  0
   37.4200   22.6830   37.0400 N   0  0  0  0  0  0  0  0  0  0  0  0
   38.4920   23.3990   37.3060 C   0  0  0  0  0  0  0  0  0  0  0  0
   38.8280   22.7020   38.4850 N   0  0  0  0  0  0  0  0  0  0  0  0
   37.1160   21.9260   37.6880 H   0  0  0  0  0  0  0  0  0  0  0  0
   38.4570   23.1270   39.3850 H   0  0  0  0  0  0  0  0  0  0  0  0
   39.4120   21.8140   38.4850 H   0  0  0  0  0  0  0  0  0  0  0  0
  1  6  1  0  0  0  0
  1 22  1  0  0  0  0
  2  1  2  0  0  0  0
  3  4  2  0  0  0  0
  3  2  1  0  0  0  0
  4  5  1  0  0  0  0
  5  9  1  0  0  0  0
  5  6  2  0  0  0  0
  6 10  1  0  0  0  0
  7  3  1  0  0  0  0
  8  4  1  0  0  0  0
 11 12  2  0  0  0  0
 11 16  1  0  0  0  0
 12 13  1  0  0  0  0
 13  2  1  0  0  0  0
 13 14  2  0  0  0  0
 15 14  1  0  0  0  0
 15 19  1  0  0  0  0
 16 15  2  0  0  0  0
 17 11  1  0  0  0  0
 18 12  1  0  0  0  0
 19 20  1  0  0  0  0
 21 22  2  0  0  0  0
 21 24  1  0  0  0  0
 22 23  1  0  0  0  0
 23 26  1  0  0  0  0
 23 25  1  0  0  0  0
M  END
>  <minimizedAffinity>
-4.73486471

$$$$

 OpenBabel03272505193D

 26 27  0  0  0  0  0  0  0  0999 V2000
   39.5470   23.3180   36.6190 C   0  0  0  0  0  0  0  0  0  0  0  0
   39.9370   24.1920   35.6500 C   0  0  0  0  0  0  0  0  0  0  0  0
   41.2690   24.1790   35.2950 C   0  0  0  0  0  0  0  0  0  0  0  0
   42.1640   23.3510   35.8650 C   0  0  0  0  0  0  0  0  0  0  0  0
   41.7960   22.4510   36.8530 C   0  0  0  0  0  0  0  0  0  0  0  0
   40.4710   22.4590   37.2110 C   0  0  0  0  0  0  0  0  0  0  0  0
   41.5770   24.8780   34.5220 H   0  0  0  0  0  0  0  0  0  0  0  0
   43.1920   23.4100   35.5220 H   0  0  0  0  0  0  0  0  0  0  0  0
   42.5470   21.8040   37.2850 H   0  0  0  0  0  0  0  0  0  0  0  0
   40.2560   21.7330   37.9870 H   0  0  0  0  0  0  0  0  0  0  0  0
   37.8190   27.2190   35.1640 C   0  0  0  0  0  0  0  0  0  0  0  0
   38.7510   26.2920   35.6740 C   0  0  0  0  0  0  0  0  0  0  0  0
   38.9650   25.0760   35.0580 C   0  0  0  0  0  0  0  0  0  0  0  0
   38.2050   24.8910   33.9530 N   0  0  0  0  0  0  0  0  0  0  0  0
   37.3210   25.7490   33.4520 C   0  0  0  0  0  0  0  0  0  0  0  0
   37.1250   26.9280   34.0670 N   0  0  0  0  0  0  0  0  0  0  0  0
   37.6550   28.1640   35.6470 H   0  0  0  0  0  0  0  0  0  0  0  0
   39.2670   26.6280   36.5790 H   0  0  0  0  0  0  0  0  0  0  0  0
   36.6160   25.3100   32.2310 C   0  0  0  0  0  2  0  0  0  0  0  0
   37.2820   24.6420   31.6360 H   0  0  0  0  0  0  0  0  0  0  0  0
   37.8240   23.8000   38.2130 N   0  0  0  0  0  0  0  0  0  0  0  0
   38.2280   23.1360   37.1500 C   0  0  0  0  0  0  0  0  0  0  0  0
   37.0200   22.4330   36.9650 N   0  0  0  0  0  0  0  0  0  0  0  0
   36.8750   23.6340   38.6100 H   0  0  0  0  0  0  0  0  0  0  0  0
   36.9830   21.4710   37.4140 H   0  0  0  0  0  0  0  0  0  0  0  0
   36.2000   22.8270   36.4170 H   0  0  0  0  0  0  0  0  0  0  0  0
  1 22  1  0  0  0  0
  1  6  1  0  0  0  0
  2  1  2  0  0  0  0
  3  2  1  0  0  0  0
  3  4  2  0  0  0  0
  4  5  1  0  0  0  0
  5  6  2  0  0  0  0
  5  9  1  0  0  0  0
  6 10  1  0  0  0  0
  7  3  1  0  0  0  0
  8  4  1  0  0  0  0
 11 17  1  0  0  0  0
 11 12  1  0  0  0  0
 12 18  1  0  0  0  0
 13  2  1  0  0  0  0
 13 12  2  0  0  0  0
 14 13  1  0  0  0  0
 15 14  2  0  0  0  0
 15 16  1  0  0  0  0
 16 11  2  0  0  0  0
 19 15  1  0  0  0  0
 20 19  1  0  0  0  0
 21 24  1  0  0  0  0
 22 21  2  0  0  0  0
 23 22  1  0  0  0  0
 23 25  1  0  0  0  0
 26 23  1  0  0  0  0
M  END
>  <minimizedAffinity>
-4.7324748

$$$$

 OpenBabel03272505193D

 26 27  0  0  0  0  0  0  0  0999 V2000
   38.3160   26.1900   34.0840 C   0  0  0  0  0  0  0  0  0  0  0  0
   38.2140   24.8330   34.0190 C   0  0  0  0  0  0  0  0  0  0  0  0
   37.5560   24.3060   32.9290 C   0  0  0  0  0  0  0  0  0  0  0  0
   37.0290   25.0740   31.9580 C   0  0  0  0  0  0  0  0  0  0  0  0
   37.1170   26.4570   31.9970 C   0  0  0  0  0  0  0  0  0  0  0  0
   37.7710   26.9880   33.0800 C   0  0  0  0  0  0  0  0  0  0  0  0
   37.4770   23.2240   32.8820 H   0  0  0  0  0  0  0  0  0  0  0  0
   36.5290   24.5720   31.1370 H   0  0  0  0  0  0  0  0  0  0  0  0
   36.6790   27.0370   31.1960 H   0  0  0  0  0  0  0  0  0  0  0  0
   37.8010   28.0710   33.0440 H   0  0  0  0  0  0  0  0  0  0  0  0
   40.4190   22.3450   35.7050 C   0  0  0  0  0  0  0  0  0  0  0  0
   39.8070   23.1700   34.7380 C   0  0  0  0  0  0  0  0  0  0  0  0
   38.7790   24.0280   35.0730 C   0  0  0  0  0  0  0  0  0  0  0  0
   38.4470   23.9840   36.3840 N   0  0  0  0  0  0  0  0  0  0  0  0
   39.0090   23.2170   37.3140 C   0  0  0  0  0  0  0  0  0  0  0  0
   40.0070   22.3870   36.9690 N   0  0  0  0  0  0  0  0  0  0  0  0
   41.2180   21.6790   35.4400 H   0  0  0  0  0  0  0  0  0  0  0  0
   40.2180   23.0590   33.7300 H   0  0  0  0  0  0  0  0  0  0  0  0
   38.4630   23.3550   38.6800 C   0  0  0  0  0  2  0  0  0  0  0  0
   38.0970   24.3970   38.8320 H   0  0  0  0  0  0  0  0  0  0  0  0
   40.2500   27.2020   35.0710 N   0  0  0  0  0  0  0  0  0  0  0  0
   38.9550   26.9700   35.1030 C   0  0  0  0  0  0  0  0  0  0  0  0
   38.7190   27.6870   36.2940 N   0  0  0  0  0  0  0  0  0  0  0  0
   40.7080   27.7410   35.8360 H   0  0  0  0  0  0  0  0  0  0  0  0
   38.7330   27.1060   37.1830 H   0  0  0  0  0  0  0  0  0  0  0  0
   38.5390   28.7340   36.3120 H   0  0  0  0  0  0  0  0  0  0  0  0
  1 22  1  0  0  0  0
  2  1  1  0  0  0  0
  2 13  1  0  0  0  0
  3  2  2  0  0  0  0
  4  5  2  0  0  0  0
  4  3  1  0  0  0  0
  5  6  1  0  0  0  0
  6  1  2  0  0  0  0
  7  3  1  0  0  0  0
  8  4  1  0  0  0  0
  9  5  1  0  0  0  0
 10  6  1  0  0  0  0
 11 16  1  0  0  0  0
 12 13  1  0  0  0  0
 12 11  2  0  0  0  0
 13 14  2  0  0  0  0
 14 15  1  0  0  0  0
 15 19  1  0  0  0  0
 16 15  2  0  0  0  0
 17 11  1  0  0  0  0
 18 12  1  0  0  0  0
 19 20  1  0  0  0  0
 21 22  2  0  0  0  0
 21 24  1  0  0  0  0
 22 23  1  0  0  0  0
 23 26  1  0  0  0  0
 23 25  1  0  0  0  0
M  END
>  <minimizedAffinity>
-4.69987965

$$$$

 OpenBabel03272505193D

 26 27  0  0  0  0  0  0  0  0999 V2000
   36.1990   29.0850   32.0100 C   0  0  0  0  0  0  0  0  0  0  0  0
   36.4020   28.1900   33.0160 C   0  0  0  0  0  0  0  0  0  0  0  0
   36.1340   28.6170   34.2990 C   0  0  0  0  0  0  0  0  0  0  0  0
   35.6910   29.8580   34.5720 C   0  0  0  0  0  0  0  0  0  0  0  0
   35.4750   30.7910   33.5700 C   0  0  0  0  0  0  0  0  0  0  0  0
   35.7400   30.3710   32.2900 C   0  0  0  0  0  0  0  0  0  0  0  0
   36.2980   27.9000   35.0980 H   0  0  0  0  0  0  0  0  0  0  0  0
   35.5060   30.1070   35.6110 H   0  0  0  0  0  0  0  0  0  0  0  0
   35.1190   31.7770   33.8330 H   0  0  0  0  0  0  0  0  0  0  0  0
   35.5500   31.1500   31.5600 H   0  0  0  0  0  0  0  0  0  0  0  0
   38.7560   25.3130   32.7340 C   0  0  0  0  0  0  0  0  0  0  0  0
   38.2000   26.5810   33.0060 C   0  0  0  0  0  0  0  0  0  0  0  0
   36.8840   26.8680   32.7020 C   0  0  0  0  0  0  0  0  0  0  0  0
   36.2240   25.8300   32.1380 N   0  0  0  0  0  0  0  0  0  0  0  0
   36.7250   24.6270   31.8730 C   0  0  0  0  0  0  0  0  0  0  0  0
   38.0080   24.3660   32.1750 N   0  0  0  0  0  0  0  0  0  0  0  0
   39.7800   25.0940   32.9720 H   0  0  0  0  0  0  0  0  0  0  0  0
   38.8980   27.2870   33.4650 H   0  0  0  0  0  0  0  0  0  0  0  0
   35.7940   23.6620   31.2520 C   0  0  0  0  0  2  0  0  0  0  0  0
   34.7550   23.8720   31.5980 H   0  0  0  0  0  0  0  0  0  0  0  0
   36.3590   29.8850   29.7570 N   0  0  0  0  0  0  0  0  0  0  0  0
   36.3950   28.8790   30.6050 C   0  0  0  0  0  0  0  0  0  0  0  0
   36.6460   27.8920   29.6300 N   0  0  0  0  0  0  0  0  0  0  0  0
   36.4690   29.7180   28.7350 H   0  0  0  0  0  0  0  0  0  0  0  0
   35.7850   27.3980   29.2530 H   0  0  0  0  0  0  0  0  0  0  0  0
   37.6230   27.6510   29.2900 H   0  0  0  0  0  0  0  0  0  0  0  0
  1  6  2  0  0  0  0
  1  2  1  0  0  0  0
  2  3  2  0  0  0  0
  3  4  1  0  0  0  0
  3  7  1  0  0  0  0
  4  8  1  0  0  0  0
  5  9  1  0  0  0  0
  5  4  2  0  0  0  0
  6  5  1  0  0  0  0
 10  6  1  0  0  0  0
 11 17  1  0  0  0  0
 11 12  1  0  0  0  0
 12 18  1  0  0  0  0
 13 12  2  0  0  0  0
 13  2  1  0  0  0  0
 14 13  1  0  0  0  0
 15 14  2  0  0  0  0
 15 16  1  0  0  0  0
 16 11  2  0  0  0  0
 19 20  1  0  0  0  0
 19 15  1  0  0  0  0
 21 22  2  0  0  0  0
 22  1  1  0  0  0  0
 23 22  1  0  0  0  0
 24 21  1  0  0  0  0
 25 23  1  0  0  0  0
 26 23  1  0  0  0  0
M  END
>  <minimizedAffinity>
-4.69051838

$$$$

 OpenBabel03272505193D

 26 27  0  0  0  0  0  0  0  0999 V2000
   36.7350   27.4970   32.3080 C   0  0  0  0  0  0  0  0  0  0  0  0
   36.1610   28.3460   33.2060 C   0  0  0  0  0  0  0  0  0  0  0  0
   36.6360   28.3030   34.5000 C   0  0  0  0  0  0  0  0  0  0  0  0
   37.6210   27.4700   34.8840 C   0  0  0  0  0  0  0  0  0  0  0  0
   38.2230   26.5950   33.9930 C   0  0  0  0  0  0  0  0  0  0  0  0
   37.7540   26.6340   32.7030 C   0  0  0  0  0  0  0  0  0  0  0  0
   36.1760   28.9810   35.2130 H   0  0  0  0  0  0  0  0  0  0  0  0
   37.9310   27.5050   35.9230 H   0  0  0  0  0  0  0  0  0  0  0  0
   39.0100   25.9420   34.3430 H   0  0  0  0  0  0  0  0  0  0  0  0
   38.2690   25.9250   32.0640 H   0  0  0  0  0  0  0  0  0  0  0  0
   34.4860   31.2330   31.5480 C   0  0  0  0  0  0  0  0  0  0  0  0
   35.4550   30.3200   32.0130 C   0  0  0  0  0  0  0  0  0  0  0  0
   35.1030   29.2250   32.7760 C   0  0  0  0  0  0  0  0  0  0  0  0
   33.7740   29.1400   33.0130 N   0  0  0  0  0  0  0  0  0  0  0  0
   32.8410   29.9860   32.5860 C   0  0  0  0  0  0  0  0  0  0  0  0
   33.2030   31.0470   31.8450 N   0  0  0  0  0  0  0  0  0  0  0  0
   34.7640   32.0830   30.9540 H   0  0  0  0  0  0  0  0  0  0  0  0
   36.4790   30.5640   31.7140 H   0  0  0  0  0  0  0  0  0  0  0  0
   31.4530   29.6700   32.9820 C   0  0  0  0  0  2  0  0  0  0  0  0
   31.3350   28.5650   33.0740 H   0  0  0  0  0  0  0  0  0  0  0  0
   35.6300   26.4030   30.4860 N   0  0  0  0  0  0  0  0  0  0  0  0
   36.4240   27.3610   30.9160 C   0  0  0  0  0  0  0  0  0  0  0  0
   36.6620   27.9180   29.6420 N   0  0  0  0  0  0  0  0  0  0  0  0
   35.4390   26.2930   29.4670 H   0  0  0  0  0  0  0  0  0  0  0  0
   37.5350   27.5680   29.1500 H   0  0  0  0  0  0  0  0  0  0  0  0
   36.0210   28.6400   29.1980 H   0  0  0  0  0  0  0  0  0  0  0  0
  1  6  2  0  0  0  0
  1  2  1  0  0  0  0
  2  3  2  0  0  0  0
  3  4  1  0  0  0  0
  3  7  1  0  0  0  0
  4  8  1  0  0  0  0
  5  9  1  0  0  0  0
  5  4  2  0  0  0  0
  6  5  1  0  0  0  0
 10  6  1  0  0  0  0
 11 16  2  0  0  0  0
 11 12  1  0  0  0  0
 12 13  2  0  0  0  0
 13 14  1  0  0  0  0
 13  2  1  0  0  0  0
 15 19  1  0  0  0  0
 15 14  2  0  0  0  0
 16 15  1  0  0  0  0
 17 11  1  0  0  0  0
 18 12  1  0  0  0  0
 19 20  1  0  0  0  0
 21 22  2  0  0  0  0
 22  1  1  0  0  0  0
 23 22  1  0  0  0  0
 24 21  1  0  0  0  0
 25 23  1  0  0  0  0
 26 23  1  0  0  0  0
M  END
>  <minimizedAffinity>
-4.62930822

$$$$

 OpenBabel03272505193D

 26 27  0  0  0  0  0  0  0  0999 V2000
   36.5090   26.7560   32.4020 C   0  0  0  0  0  0  0  0  0  0  0  0
   37.1630   25.7950   33.1130 C   0  0  0  0  0  0  0  0  0  0  0  0
   37.5340   26.1130   34.4020 C   0  0  0  0  0  0  0  0  0  0  0  0
   37.2750   27.3110   34.9570 C   0  0  0  0  0  0  0  0  0  0  0  0
   36.6120   28.3080   34.2580 C   0  0  0  0  0  0  0  0  0  0  0  0
   36.2390   27.9970   32.9740 C   0  0  0  0  0  0  0  0  0  0  0  0
   38.0550   25.3440   34.9650 H   0  0  0  0  0  0  0  0  0  0  0  0
   37.6040   27.4730   35.9780 H   0  0  0  0  0  0  0  0  0  0  0  0
   36.4250   29.2570   34.7420 H   0  0  0  0  0  0  0  0  0  0  0  0
   35.7280   28.8210   32.4900 H   0  0  0  0  0  0  0  0  0  0  0  0
   39.1200   22.9670   31.6760 C   0  0  0  0  0  0  0  0  0  0  0  0
   38.7590   24.1930   32.2720 C   0  0  0  0  0  0  0  0  0  0  0  0
   37.4370   24.5200   32.4980 C   0  0  0  0  0  0  0  0  0  0  0  0
   36.5700   23.5630   32.0950 N   0  0  0  0  0  0  0  0  0  0  0  0
   36.8860   22.4000   31.5320 C   0  0  0  0  0  0  0  0  0  0  0  0
   38.1780   22.1000   31.3190 N   0  0  0  0  0  0  0  0  0  0  0  0
   40.1500   22.7170   31.5020 H   0  0  0  0  0  0  0  0  0  0  0  0
   39.6090   24.8350   32.5270 H   0  0  0  0  0  0  0  0  0  0  0  0
   35.7490   21.5230   31.1820 C   0  0  0  0  0  2  0  0  0  0  0  0
   34.9140   21.6920   31.9010 H   0  0  0  0  0  0  0  0  0  0  0  0
   36.3770   27.5380   30.1420 N   0  0  0  0  0  0  0  0  0  0  0  0
   36.0180   26.6640   31.0590 C   0  0  0  0  0  0  0  0  0  0  0  0
   35.1860   25.9090   30.2070 N   0  0  0  0  0  0  0  0  0  0  0  0
   35.9860   27.4810   29.1780 H   0  0  0  0  0  0  0  0  0  0  0  0
   34.1590   26.1780   30.2200 H   0  0  0  0  0  0  0  0  0  0  0  0
   35.5510   25.1240   29.5910 H   0  0  0  0  0  0  0  0  0  0  0  0
  1  6  2  0  0  0  0
  1  2  1  0  0  0  0
  2  3  2  0  0  0  0
  3  4  1  0  0  0  0
  3  7  1  0  0  0  0
  4  8  1  0  0  0  0
  5  9  1  0  0  0  0
  5  4  2  0  0  0  0
  6  5  1  0  0  0  0
 10  6  1  0  0  0  0
 11 12  1  0  0  0  0
 12 13  2  0  0  0  0
 12 18  1  0  0  0  0
 13  2  1  0  0  0  0
 14 13  1  0  0  0  0
 15 14  2  0  0  0  0
 16 15  1  0  0  0  0
 16 11  2  0  0  0  0
 17 11  1  0  0  0  0
 19 15  1  0  0  0  0
 19 20  1  0  0  0  0
 21 22  2  0  0  0  0
 22  1  1  0  0  0  0
 23 25  1  0  0  0  0
 23 22  1  0  0  0  0
 24 21  1  0  0  0  0
 26 23  1  0  0  0  0
M  END
>  <minimizedAffinity>
-4.51181126

$$$$
