
     RDKit          3D

 26 28  0  0  0  0  0  0  0  0999 V2000
   37.0586   30.6956   46.7629 C   0  0  0  0  0  0  0  0  0  0  0  0
   37.6982   31.1366   47.9143 C   0  0  0  0  0  0  0  0  0  0  0  0
   38.7009   32.0626   47.8308 C   0  0  0  0  0  0  0  0  0  0  0  0
   39.0560   32.5420   46.5817 C   0  0  0  0  0  0  0  0  0  0  0  0
   40.0122   33.4539   46.2706 N   0  0  0  0  0  0  0  0  0  0  0  0
   39.9897   33.6003   44.9266 C   0  0  0  0  0  0  0  0  0  0  0  0
   39.0501   32.8090   44.3896 N   0  0  0  0  0  0  0  0  0  0  0  0
   38.4422   32.1293   45.3926 C   0  0  0  0  0  0  0  0  0  0  0  0
   37.4321   31.1920   45.5128 C   0  0  0  0  0  0  0  0  0  0  0  0
   37.4084   30.1532   51.5388 C   0  0  0  0  0  0  0  0  0  0  0  0
   37.9177   30.7362   50.3828 C   0  0  0  0  0  0  0  0  0  0  0  0
   37.2463   30.5670   49.1776 C   0  0  0  0  0  0  0  0  0  0  0  0
   36.1008   29.8282   49.1705 N   0  0  0  0  0  0  0  0  0  0  0  0
   35.6234   29.2695   50.3096 C   0  0  0  0  0  0  0  0  0  0  0  0
   36.2746   29.4346   51.4738 N   0  0  0  0  0  0  0  0  0  0  0  0
   36.2597   29.9641   46.7789 H   0  0  0  0  0  0  0  0  0  0  0  0
   39.2050   32.4120   48.7236 H   0  0  0  0  0  0  0  0  0  0  0  0
   40.6705   33.9783   46.8886 H   0  0  0  0  0  0  0  0  0  0  0  0
   36.9500   30.8650   44.6018 H   0  0  0  0  0  0  0  0  0  0  0  0
   37.9697   30.3169   52.4451 H   0  0  0  0  0  0  0  0  0  0  0  0
   38.8122   31.3107   50.3993 H   0  0  0  0  0  0  0  0  0  0  0  0
   34.7228   28.6821   50.3340 H   0  0  0  0  0  0  0  0  0  0  0  0
   40.7858   34.4406   44.0146 C   0  0  0  0  0  0  0  0  0  0  0  0
   41.5298   33.8441   43.4374 H   0  0  0  0  0  0  0  0  0  0  0  0
   40.0838   34.9491   43.3217 H   0  0  0  0  0  0  0  0  0  0  0  0
   41.2950   35.2377   44.5838 H   0  0  0  0  0  0  0  0  0  0  0  0
  1  2  2  0
  2 12  1  0
  3  2  1  0
  4  3  2  0
  5  4  1  0
  6  5  1  0
  7  6  2  0
  7  8  1  0
  8  9  2  0
  8  4  1  0
  9  1  1  0
 11 10  2  0
 12 11  1  0
 13 12  2  0
 13 14  1  0
 14 15  2  0
 15 10  1  0
  1 16  1  0
  3 17  1  0
  5 18  1  0
  9 19  1  0
 10 20  1  0
 11 21  1  0
 14 22  1  0
 23 24  1  0
 23 25  1  0
 23 26  1  0
  6 23  1  0
M  ISO  8  16  14  17  14  18   9  19  14  20  14  21  14  22  14  24   8
M  END
>  <DihAtoms>  (1) 
4,5,22,23

>  <DihDeg>  (1) 
-118.61129470281966

$$$$
