
 OpenBabel03262522263D

 38 40  0  0  0  0  0  0  0  0999 V2000
   36.9810   25.3060   32.8610 C   0  0  0  0  0  0  0  0  0  0  0  0
   37.9280   25.3710   33.8850 C   0  0  0  0  0  0  0  0  0  0  0  0
   38.2280   26.6090   34.3870 C   0  0  0  0  0  0  0  0  0  0  0  0
   37.5890   27.6920   33.8580 N   0  0  0  0  0  0  0  0  0  0  0  0
   36.7090   27.5880   32.8980 C   0  0  0  0  0  0  0  0  0  0  0  0
   36.3640   26.3680   32.3530 N   0  0  0  0  0  0  0  0  0  0  0  0
   36.6890   24.3450   32.4090 H   0  0  0  0  0  0  0  0  0  0  0  0
   38.9490   26.7210   35.1870 H   0  0  0  0  0  0  0  0  0  0  0  0
   38.4820   24.2080   34.3100 O   0  0  0  0  0  0  0  0  0  0  0  0
   38.5570   23.9480   35.6740 C   0  0  0  0  0  0  0  0  0  0  0  0
   37.7020   24.4020   36.6700 C   0  0  0  0  0  0  0  0  0  0  0  0
   37.9350   24.0420   37.9470 C   0  0  0  0  0  0  0  0  0  0  0  0
   39.0130   23.2380   38.2250 C   0  0  0  0  0  0  0  0  0  0  0  0
   39.8700   22.7850   37.2160 C   0  0  0  0  0  0  0  0  0  0  0  0
   39.6080   23.1640   35.9370 N   0  0  0  0  0  0  0  0  0  0  0  0
   36.8910   25.0340   36.3360 H   0  0  0  0  0  0  0  0  0  0  0  0
   37.2770   24.3870   38.7330 H   0  0  0  0  0  0  0  0  0  0  0  0
   39.2530   22.9140   39.2310 H   0  0  0  0  0  0  0  0  0  0  0  0
   41.0410   21.9070   37.5530 C   0  0  0  0  0  0  0  0  0  0  0  0
   40.9560   21.6180   38.5970 H   0  0  0  0  0  0  0  0  0  0  0  0
   40.8390   20.9650   36.9620 H   0  0  0  0  0  0  0  0  0  0  0  0
   42.0020   22.3670   37.2600 H   0  0  0  0  0  0  0  0  0  0  0  0
   36.0360   29.1940   32.4040 S   0  0  0  0  0  0  0  0  0  0  0  0
   34.4420   29.3000   33.3030 C   0  0  0  0  0  0  0  0  0  0  0  0
   34.1190   28.3420   33.7110 H   0  0  0  0  0  0  0  0  0  0  0  0
   33.6560   29.6910   32.6320 H   0  0  0  0  0  0  0  0  0  0  0  0
   32.3180   29.9030   34.9560 F   0  0  0  0  0  0  0  0  0  0  0  0
   33.5390   30.4480   35.2320 C   0  0  0  0  0  0  0  0  0  0  0  0
   34.6790   30.2110   34.4650 C   0  0  0  0  0  0  0  0  0  0  0  0
   35.8740   30.7840   34.7890 C   0  0  0  0  0  0  0  0  0  0  0  0
   35.9870   31.6280   35.9060 C   0  0  0  0  0  0  0  0  0  0  0  0
   34.8640   31.8710   36.6740 C   0  0  0  0  0  0  0  0  0  0  0  0
   33.6560   31.2810   36.3320 C   0  0  0  0  0  0  0  0  0  0  0  0
   36.7000   30.5420   34.1380 H   0  0  0  0  0  0  0  0  0  0  0  0
   36.9470   32.0630   36.1310 H   0  0  0  0  0  0  0  0  0  0  0  0
   34.9140   32.5160   37.5420 H   0  0  0  0  0  0  0  0  0  0  0  0
   32.4470   31.5400   37.1550 C   0  0  0  0  0  2  0  0  0  0  0  0
   32.0830   30.5640   37.5900 H   0  0  0  0  0  0  0  0  0  0  0  0
  1  2  1  0  0  0  0
  2  9  1  0  0  0  0
  2  3  2  0  0  0  0
  3  8  1  0  0  0  0
  4  3  1  0  0  0  0
  5  4  2  0  0  0  0
  6  1  2  0  0  0  0
  6  5  1  0  0  0  0
  7  1  1  0  0  0  0
  9 10  1  0  0  0  0
 10 15  2  0  0  0  0
 10 11  1  0  0  0  0
 11 12  2  0  0  0  0
 12 13  1  0  0  0  0
 12 17  1  0  0  0  0
 13 18  1  0  0  0  0
 14 19  1  0  0  0  0
 14 13  2  0  0  0  0
 15 14  1  0  0  0  0
 16 11  1  0  0  0  0
 19 20  1  0  0  0  0
 21 19  1  0  0  0  0
 22 19  1  0  0  0  0
 23  5  1  0  0  0  0
 23 24  1  0  0  0  0
 24 25  1  0  0  0  0
 24 29  1  0  0  0  0
 26 24  1  0  0  0  0
 27 28  1  0  0  0  0
 28 33  1  0  0  0  0
 29 30  1  0  0  0  0
 29 28  2  0  0  0  0
 30 31  2  0  0  0  0
 31 35  1  0  0  0  0
 31 32  1  0  0  0  0
 32 36  1  0  0  0  0
 33 32  2  0  0  0  0
 33 37  1  0  0  0  0
 34 30  1  0  0  0  0
 37 38  1  0  0  0  0
M  END
>  <minimizedAffinity>
-6.16193199

$$$$

 OpenBabel03262522263D

 38 40  0  0  0  0  0  0  0  0999 V2000
   35.9020   28.0740   32.2590 C   0  0  0  0  0  0  0  0  0  0  0  0
   35.8830   28.8270   33.4350 C   0  0  0  0  0  0  0  0  0  0  0  0
   36.4720   28.2780   34.5430 C   0  0  0  0  0  0  0  0  0  0  0  0
   37.0320   27.0400   34.4300 N   0  0  0  0  0  0  0  0  0  0  0  0
   37.0270   26.3670   33.3100 C   0  0  0  0  0  0  0  0  0  0  0  0
   36.4510   26.8670   32.1600 N   0  0  0  0  0  0  0  0  0  0  0  0
   35.4490   28.4510   31.3290 H   0  0  0  0  0  0  0  0  0  0  0  0
   36.4950   28.8190   35.4810 H   0  0  0  0  0  0  0  0  0  0  0  0
   35.2870   30.0450   33.3970 O   0  0  0  0  0  0  0  0  0  0  0  0
   34.9910   30.6940   34.5910 C   0  0  0  0  0  0  0  0  0  0  0  0
   35.8070   31.5590   35.3090 C   0  0  0  0  0  0  0  0  0  0  0  0
   35.3430   32.0980   36.4540 C   0  0  0  0  0  0  0  0  0  0  0  0
   34.0770   31.7750   36.8760 C   0  0  0  0  0  0  0  0  0  0  0  0
   33.2610   30.9020   36.1470 C   0  0  0  0  0  0  0  0  0  0  0  0
   33.7560   30.3750   34.9960 N   0  0  0  0  0  0  0  0  0  0  0  0
   36.7860   31.7350   34.8860 H   0  0  0  0  0  0  0  0  0  0  0  0
   35.9670   32.7730   37.0230 H   0  0  0  0  0  0  0  0  0  0  0  0
   33.6470   32.1740   37.7870 H   0  0  0  0  0  0  0  0  0  0  0  0
   31.8810   30.5680   36.6360 C   0  0  0  0  0  0  0  0  0  0  0  0
   31.6550   31.2180   37.4770 H   0  0  0  0  0  0  0  0  0  0  0  0
   31.2140   30.9210   35.7950 H   0  0  0  0  0  0  0  0  0  0  0  0
   31.7570   29.4850   36.8190 H   0  0  0  0  0  0  0  0  0  0  0  0
   37.8420   24.7590   33.4690 S   0  0  0  0  0  0  0  0  0  0  0  0
   39.3600   25.1260   34.4300 C   0  0  0  0  0  0  0  0  0  0  0  0
   39.4970   26.1910   34.6170 H   0  0  0  0  0  0  0  0  0  0  0  0
   40.2460   24.7340   33.8990 H   0  0  0  0  0  0  0  0  0  0  0  0
   41.1240   23.1390   35.1650 F   0  0  0  0  0  0  0  0  0  0  0  0
   40.1240   23.4800   36.0310 C   0  0  0  0  0  0  0  0  0  0  0  0
   39.1780   24.4690   35.7610 C   0  0  0  0  0  0  0  0  0  0  0  0
   38.2000   24.7690   36.6640 C   0  0  0  0  0  0  0  0  0  0  0  0
   38.1210   24.0870   37.8900 C   0  0  0  0  0  0  0  0  0  0  0  0
   39.0520   23.1040   38.1670 C   0  0  0  0  0  0  0  0  0  0  0  0
   40.0410   22.8120   37.2400 C   0  0  0  0  0  0  0  0  0  0  0  0
   37.5150   25.5470   36.3690 H   0  0  0  0  0  0  0  0  0  0  0  0
   37.3340   24.3500   38.5780 H   0  0  0  0  0  0  0  0  0  0  0  0
   39.0220   22.5590   39.1020 H   0  0  0  0  0  0  0  0  0  0  0  0
   41.0440   21.7570   37.5350 C   0  0  0  0  0  2  0  0  0  0  0  0
   42.0720   22.2210   37.5510 H   0  0  0  0  0  0  0  0  0  0  0  0
  1  2  1  0  0  0  0
  2  3  2  0  0  0  0
  3  8  1  0  0  0  0
  4  3  1  0  0  0  0
  5 23  1  0  0  0  0
  5  4  2  0  0  0  0
  6  1  2  0  0  0  0
  6  5  1  0  0  0  0
  7  1  1  0  0  0  0
  9  2  1  0  0  0  0
  9 10  1  0  0  0  0
 10 15  2  0  0  0  0
 10 11  1  0  0  0  0
 11 12  2  0  0  0  0
 12 13  1  0  0  0  0
 12 17  1  0  0  0  0
 13 18  1  0  0  0  0
 14 19  1  0  0  0  0
 14 13  2  0  0  0  0
 15 14  1  0  0  0  0
 16 11  1  0  0  0  0
 19 22  1  0  0  0  0
 19 20  1  0  0  0  0
 21 19  1  0  0  0  0
 23 24  1  0  0  0  0
 24 25  1  0  0  0  0
 24 29  1  0  0  0  0
 26 24  1  0  0  0  0
 27 28  1  0  0  0  0
 28 33  1  0  0  0  0
 29 28  2  0  0  0  0
 29 30  1  0  0  0  0
 30 31  2  0  0  0  0
 31 32  1  0  0  0  0
 31 35  1  0  0  0  0
 32 36  1  0  0  0  0
 33 37  1  0  0  0  0
 33 32  2  0  0  0  0
 34 30  1  0  0  0  0
 37 38  1  0  0  0  0
M  END
>  <minimizedAffinity>
-6.15720749

$$$$

 OpenBabel03262522263D

 38 40  0  0  0  0  0  0  0  0999 V2000
   36.5360   28.4900   32.5240 C   0  0  0  0  0  0  0  0  0  0  0  0
   35.9580   28.9040   33.7250 C   0  0  0  0  0  0  0  0  0  0  0  0
   36.3950   28.3000   34.8750 C   0  0  0  0  0  0  0  0  0  0  0  0
   37.3570   27.3400   34.7730 N   0  0  0  0  0  0  0  0  0  0  0  0
   37.8720   26.9800   33.6270 C   0  0  0  0  0  0  0  0  0  0  0  0
   37.4740   27.5520   32.4360 N   0  0  0  0  0  0  0  0  0  0  0  0
   36.2350   28.9310   31.5600 H   0  0  0  0  0  0  0  0  0  0  0  0
   35.9890   28.5860   35.8360 H   0  0  0  0  0  0  0  0  0  0  0  0
   35.0090   29.8720   33.6720 O   0  0  0  0  0  0  0  0  0  0  0  0
   34.9520   30.8260   34.6810 C   0  0  0  0  0  0  0  0  0  0  0  0
   34.0230   30.9170   35.7090 C   0  0  0  0  0  0  0  0  0  0  0  0
   34.1310   31.9200   36.6030 C   0  0  0  0  0  0  0  0  0  0  0  0
   35.1580   32.8220   36.4690 C   0  0  0  0  0  0  0  0  0  0  0  0
   36.0890   32.7240   35.4290 C   0  0  0  0  0  0  0  0  0  0  0  0
   35.9550   31.7020   34.5440 N   0  0  0  0  0  0  0  0  0  0  0  0
   33.2550   30.1570   35.7120 H   0  0  0  0  0  0  0  0  0  0  0  0
   33.4160   32.0030   37.4090 H   0  0  0  0  0  0  0  0  0  0  0  0
   35.2990   33.6500   37.1540 H   0  0  0  0  0  0  0  0  0  0  0  0
   37.2010   33.7280   35.3100 C   0  0  0  0  0  0  0  0  0  0  0  0
   37.1940   34.3460   36.2030 H   0  0  0  0  0  0  0  0  0  0  0  0
   38.1330   33.0950   35.3890 H   0  0  0  0  0  0  0  0  0  0  0  0
   37.1650   34.2730   34.3490 H   0  0  0  0  0  0  0  0  0  0  0  0
   39.1220   25.6840   33.8100 S   0  0  0  0  0  0  0  0  0  0  0  0
   38.1510   24.1910   34.2430 C   0  0  0  0  0  0  0  0  0  0  0  0
   38.4680   23.3040   33.6960 H   0  0  0  0  0  0  0  0  0  0  0  0
   37.0770   24.3710   34.0510 H   0  0  0  0  0  0  0  0  0  0  0  0
   40.2620   22.5500   34.9170 F   0  0  0  0  0  0  0  0  0  0  0  0
   39.5050   23.0870   35.9180 C   0  0  0  0  0  0  0  0  0  0  0  0
   38.4160   23.9290   35.6910 C   0  0  0  0  0  0  0  0  0  0  0  0
   37.6940   24.4370   36.7320 C   0  0  0  0  0  0  0  0  0  0  0  0
   38.0300   24.1250   38.0600 C   0  0  0  0  0  0  0  0  0  0  0  0
   39.1070   23.2920   38.2960 C   0  0  0  0  0  0  0  0  0  0  0  0
   39.8310   22.7840   37.2280 C   0  0  0  0  0  0  0  0  0  0  0  0
   36.8700   25.0780   36.4590 H   0  0  0  0  0  0  0  0  0  0  0  0
   37.4360   24.5450   38.8550 H   0  0  0  0  0  0  0  0  0  0  0  0
   39.3950   23.0310   39.3070 H   0  0  0  0  0  0  0  0  0  0  0  0
   40.9900   21.8880   37.4800 C   0  0  0  0  0  2  0  0  0  0  0  0
   41.9230   22.3720   37.0710 H   0  0  0  0  0  0  0  0  0  0  0  0
  1  2  1  0  0  0  0
  2  3  2  0  0  0  0
  3  8  1  0  0  0  0
  4  3  1  0  0  0  0
  5 23  1  0  0  0  0
  5  4  2  0  0  0  0
  6  1  2  0  0  0  0
  6  5  1  0  0  0  0
  7  1  1  0  0  0  0
  9  2  1  0  0  0  0
  9 10  1  0  0  0  0
 10 11  1  0  0  0  0
 11 16  1  0  0  0  0
 11 12  2  0  0  0  0
 12 17  1  0  0  0  0
 13 12  1  0  0  0  0
 13 18  1  0  0  0  0
 14 13  2  0  0  0  0
 15 10  2  0  0  0  0
 15 14  1  0  0  0  0
 19 21  1  0  0  0  0
 19 14  1  0  0  0  0
 19 20  1  0  0  0  0
 22 19  1  0  0  0  0
 23 24  1  0  0  0  0
 24 29  1  0  0  0  0
 25 24  1  0  0  0  0
 26 24  1  0  0  0  0
 27 28  1  0  0  0  0
 28 33  1  0  0  0  0
 29 28  2  0  0  0  0
 29 30  1  0  0  0  0
 30 31  2  0  0  0  0
 31 32  1  0  0  0  0
 31 35  1  0  0  0  0
 32 36  1  0  0  0  0
 33 37  1  0  0  0  0
 33 32  2  0  0  0  0
 34 30  1  0  0  0  0
 38 37  1  0  0  0  0
M  END
>  <minimizedAffinity>
-5.74994993

$$$$

 OpenBabel03262522263D

 38 40  0  0  0  0  0  0  0  0999 V2000
   35.8290   24.4790   31.0740 C   0  0  0  0  0  0  0  0  0  0  0  0
   37.0630   24.1280   31.6270 C   0  0  0  0  0  0  0  0  0  0  0  0
   37.7640   25.1100   32.2740 C   0  0  0  0  0  0  0  0  0  0  0  0
   37.2190   26.3580   32.3360 N   0  0  0  0  0  0  0  0  0  0  0  0
   36.0610   26.6460   31.8030 C   0  0  0  0  0  0  0  0  0  0  0  0
   35.3080   25.7000   31.1400 N   0  0  0  0  0  0  0  0  0  0  0  0
   35.2090   23.7420   30.5390 H   0  0  0  0  0  0  0  0  0  0  0  0
   38.7220   24.8940   32.7290 H   0  0  0  0  0  0  0  0  0  0  0  0
   37.4780   22.8440   31.4850 O   0  0  0  0  0  0  0  0  0  0  0  0
   36.6580   21.8120   31.9280 C   0  0  0  0  0  0  0  0  0  0  0  0
   35.9550   20.8980   31.1540 C   0  0  0  0  0  0  0  0  0  0  0  0
   35.2070   19.9590   31.7660 C   0  0  0  0  0  0  0  0  0  0  0  0
   35.1640   19.9340   33.1380 C   0  0  0  0  0  0  0  0  0  0  0  0
   35.8750   20.8590   33.9110 C   0  0  0  0  0  0  0  0  0  0  0  0
   36.6210   21.7930   33.2650 N   0  0  0  0  0  0  0  0  0  0  0  0
   36.0580   21.0160   30.0840 H   0  0  0  0  0  0  0  0  0  0  0  0
   34.6550   19.2410   31.1760 H   0  0  0  0  0  0  0  0  0  0  0  0
   34.5820   19.2050   33.6890 H   0  0  0  0  0  0  0  0  0  0  0  0
   35.8060   20.8050   35.4110 C   0  0  0  0  0  0  0  0  0  0  0  0
   35.2830   19.8960   35.6920 H   0  0  0  0  0  0  0  0  0  0  0  0
   36.8810   20.6410   35.7150 H   0  0  0  0  0  0  0  0  0  0  0  0
   35.4040   21.7420   35.8410 H   0  0  0  0  0  0  0  0  0  0  0  0
   35.6040   28.3810   32.0450 S   0  0  0  0  0  0  0  0  0  0  0  0
   35.9800   28.6940   33.8120 C   0  0  0  0  0  0  0  0  0  0  0  0
   36.9280   29.2110   33.9590 H   0  0  0  0  0  0  0  0  0  0  0  0
   35.9970   27.7400   34.3680 H   0  0  0  0  0  0  0  0  0  0  0  0
   36.6080   30.5110   35.7890 F   0  0  0  0  0  0  0  0  0  0  0  0
   35.3300   30.4820   35.3080 C   0  0  0  0  0  0  0  0  0  0  0  0
   34.9040   29.6050   34.3110 C   0  0  0  0  0  0  0  0  0  0  0  0
   33.6130   29.6200   33.8680 C   0  0  0  0  0  0  0  0  0  0  0  0
   32.6800   30.5210   34.4080 C   0  0  0  0  0  0  0  0  0  0  0  0
   33.0910   31.3940   35.3970 C   0  0  0  0  0  0  0  0  0  0  0  0
   34.4070   31.3670   35.8360 C   0  0  0  0  0  0  0  0  0  0  0  0
   33.3760   28.9070   33.0950 H   0  0  0  0  0  0  0  0  0  0  0  0
   31.6690   30.5040   34.0340 H   0  0  0  0  0  0  0  0  0  0  0  0
   32.3990   32.1010   35.8350 H   0  0  0  0  0  0  0  0  0  0  0  0
   34.8510   32.3040   36.8990 C   0  0  0  0  0  2  0  0  0  0  0  0
   35.6620   32.9710   36.4860 H   0  0  0  0  0  0  0  0  0  0  0  0
  1  6  2  0  0  0  0
  1  2  1  0  0  0  0
  2  3  2  0  0  0  0
  3  4  1  0  0  0  0
  3  8  1  0  0  0  0
  5 23  1  0  0  0  0
  5  4  2  0  0  0  0
  6  5  1  0  0  0  0
  7  1  1  0  0  0  0
  9  2  1  0  0  0  0
  9 10  1  0  0  0  0
 10 15  1  0  0  0  0
 11 12  1  0  0  0  0
 11 10  2  0  0  0  0
 12 13  2  0  0  0  0
 13 18  1  0  0  0  0
 13 14  1  0  0  0  0
 14 19  1  0  0  0  0
 15 14  2  0  0  0  0
 16 11  1  0  0  0  0
 17 12  1  0  0  0  0
 19 20  1  0  0  0  0
 19 21  1  0  0  0  0
 19 22  1  0  0  0  0
 23 24  1  0  0  0  0
 24 25  1  0  0  0  0
 24 29  1  0  0  0  0
 24 26  1  0  0  0  0
 28 27  1  0  0  0  0
 28 33  1  0  0  0  0
 29 28  2  0  0  0  0
 30 29  1  0  0  0  0
 30 31  2  0  0  0  0
 31 32  1  0  0  0  0
 32 36  1  0  0  0  0
 32 33  2  0  0  0  0
 33 37  1  0  0  0  0
 34 30  1  0  0  0  0
 35 31  1  0  0  0  0
 38 37  1  0  0  0  0
M  END
>  <minimizedAffinity>
-5.74418068

$$$$

 OpenBabel03262522263D

 38 40  0  0  0  0  0  0  0  0999 V2000
   36.5660   28.4300   32.2440 C   0  0  0  0  0  0  0  0  0  0  0  0
   35.8960   28.9300   33.3620 C   0  0  0  0  0  0  0  0  0  0  0  0
   36.2650   28.4410   34.5870 C   0  0  0  0  0  0  0  0  0  0  0  0
   37.2550   27.5040   34.6360 N   0  0  0  0  0  0  0  0  0  0  0  0
   37.8570   27.0610   33.5640 C   0  0  0  0  0  0  0  0  0  0  0  0
   37.5300   27.5160   32.3030 N   0  0  0  0  0  0  0  0  0  0  0  0
   36.3230   28.7770   31.2270 H   0  0  0  0  0  0  0  0  0  0  0  0
   35.7870   28.7970   35.4900 H   0  0  0  0  0  0  0  0  0  0  0  0
   34.9310   29.8610   33.1590 O   0  0  0  0  0  0  0  0  0  0  0  0
   33.6450   29.6210   33.6310 C   0  0  0  0  0  0  0  0  0  0  0  0
   32.6030   28.9870   32.9660 C   0  0  0  0  0  0  0  0  0  0  0  0
   31.4180   28.8440   33.5910 C   0  0  0  0  0  0  0  0  0  0  0  0
   31.2760   29.3320   34.8660 C   0  0  0  0  0  0  0  0  0  0  0  0
   32.3300   29.9720   35.5290 C   0  0  0  0  0  0  0  0  0  0  0  0
   33.5130   30.0990   34.8740 N   0  0  0  0  0  0  0  0  0  0  0  0
   32.8270   28.6490   31.9640 H   0  0  0  0  0  0  0  0  0  0  0  0
   30.5990   28.3520   33.0860 H   0  0  0  0  0  0  0  0  0  0  0  0
   30.3490   29.2490   35.4220 H   0  0  0  0  0  0  0  0  0  0  0  0
   32.1410   30.4950   36.9240 C   0  0  0  0  0  0  0  0  0  0  0  0
   31.1800   30.1450   37.2890 H   0  0  0  0  0  0  0  0  0  0  0  0
   32.9150   29.9290   37.5220 H   0  0  0  0  0  0  0  0  0  0  0  0
   32.3080   31.5870   36.9840 H   0  0  0  0  0  0  0  0  0  0  0  0
   39.1210   25.8240   33.9460 S   0  0  0  0  0  0  0  0  0  0  0  0
   38.1590   24.3080   34.3160 C   0  0  0  0  0  0  0  0  0  0  0  0
   38.4850   23.4450   33.7360 H   0  0  0  0  0  0  0  0  0  0  0  0
   37.0850   24.4880   34.1250 H   0  0  0  0  0  0  0  0  0  0  0  0
   40.2750   22.6530   34.9370 F   0  0  0  0  0  0  0  0  0  0  0  0
   39.5100   23.1480   35.9540 C   0  0  0  0  0  0  0  0  0  0  0  0
   38.4180   23.9920   35.7540 C   0  0  0  0  0  0  0  0  0  0  0  0
   37.6880   24.4560   36.8090 C   0  0  0  0  0  0  0  0  0  0  0  0
   38.0190   24.0940   38.1260 C   0  0  0  0  0  0  0  0  0  0  0  0
   39.1000   23.2590   38.3360 C   0  0  0  0  0  0  0  0  0  0  0  0
   39.8320   22.7960   37.2530 C   0  0  0  0  0  0  0  0  0  0  0  0
   36.8620   25.1020   36.5580 H   0  0  0  0  0  0  0  0  0  0  0  0
   37.4200   24.4810   38.9340 H   0  0  0  0  0  0  0  0  0  0  0  0
   39.3840   22.9600   39.3370 H   0  0  0  0  0  0  0  0  0  0  0  0
   40.9940   21.8970   37.4750 C   0  0  0  0  0  2  0  0  0  0  0  0
   41.9270   22.4010   37.0910 H   0  0  0  0  0  0  0  0  0  0  0  0
  1  6  2  0  0  0  0
  1  2  1  0  0  0  0
  2  3  2  0  0  0  0
  3  4  1  0  0  0  0
  3  8  1  0  0  0  0
  5 23  1  0  0  0  0
  5  4  2  0  0  0  0
  6  5  1  0  0  0  0
  7  1  1  0  0  0  0
  9  2  1  0  0  0  0
  9 10  1  0  0  0  0
 10 15  1  0  0  0  0
 11 12  1  0  0  0  0
 11 10  2  0  0  0  0
 12 13  2  0  0  0  0
 13 18  1  0  0  0  0
 13 14  1  0  0  0  0
 14 19  1  0  0  0  0
 15 14  2  0  0  0  0
 16 11  1  0  0  0  0
 17 12  1  0  0  0  0
 19 22  1  0  0  0  0
 19 20  1  0  0  0  0
 19 21  1  0  0  0  0
 23 24  1  0  0  0  0
 24 29  1  0  0  0  0
 25 24  1  0  0  0  0
 26 24  1  0  0  0  0
 27 28  1  0  0  0  0
 28 33  1  0  0  0  0
 29 28  2  0  0  0  0
 29 30  1  0  0  0  0
 30 31  2  0  0  0  0
 31 32  1  0  0  0  0
 31 35  1  0  0  0  0
 32 36  1  0  0  0  0
 33 37  1  0  0  0  0
 33 32  2  0  0  0  0
 34 30  1  0  0  0  0
 38 37  1  0  0  0  0
M  END
>  <minimizedAffinity>
-5.74071503

$$$$

 OpenBabel03262522263D

 38 40  0  0  0  0  0  0  0  0999 V2000
   37.8820   26.2160   31.2480 C   0  0  0  0  0  0  0  0  0  0  0  0
   36.8170   25.3360   31.0460 C   0  0  0  0  0  0  0  0  0  0  0  0
   35.5510   25.8310   31.2140 C   0  0  0  0  0  0  0  0  0  0  0  0
   35.4120   27.1410   31.5670 N   0  0  0  0  0  0  0  0  0  0  0  0
   36.4360   27.9320   31.7480 C   0  0  0  0  0  0  0  0  0  0  0  0
   37.7350   27.4920   31.5910 N   0  0  0  0  0  0  0  0  0  0  0  0
   38.9270   25.8890   31.1300 H   0  0  0  0  0  0  0  0  0  0  0  0
   34.6870   25.1970   31.0640 H   0  0  0  0  0  0  0  0  0  0  0  0
   37.1090   24.0570   30.6990 O   0  0  0  0  0  0  0  0  0  0  0  0
   36.6820   23.0160   31.5160 C   0  0  0  0  0  0  0  0  0  0  0  0
   35.6500   22.1180   31.2730 C   0  0  0  0  0  0  0  0  0  0  0  0
   35.3810   21.1670   32.1890 C   0  0  0  0  0  0  0  0  0  0  0  0
   36.1340   21.1150   33.3350 C   0  0  0  0  0  0  0  0  0  0  0  0
   37.1720   22.0240   33.5730 C   0  0  0  0  0  0  0  0  0  0  0  0
   37.4200   22.9710   32.6310 N   0  0  0  0  0  0  0  0  0  0  0  0
   35.1200   22.2580   30.3420 H   0  0  0  0  0  0  0  0  0  0  0  0
   34.5810   20.4620   32.0130 H   0  0  0  0  0  0  0  0  0  0  0  0
   35.9670   20.3750   34.1090 H   0  0  0  0  0  0  0  0  0  0  0  0
   37.9770   21.9410   34.8380 C   0  0  0  0  0  0  0  0  0  0  0  0
   37.7010   21.0260   35.3540 H   0  0  0  0  0  0  0  0  0  0  0  0
   39.0300   21.7710   34.4650 H   0  0  0  0  0  0  0  0  0  0  0  0
   37.9080   22.8690   35.4360 H   0  0  0  0  0  0  0  0  0  0  0  0
   35.9380   29.6090   32.2100 S   0  0  0  0  0  0  0  0  0  0  0  0
   34.4720   29.3550   33.2810 C   0  0  0  0  0  0  0  0  0  0  0  0
   34.3920   28.3350   33.6580 H   0  0  0  0  0  0  0  0  0  0  0  0
   33.5510   29.6090   32.7250 H   0  0  0  0  0  0  0  0  0  0  0  0
   32.2970   29.8830   34.8930 F   0  0  0  0  0  0  0  0  0  0  0  0
   33.5010   30.4450   35.2110 C   0  0  0  0  0  0  0  0  0  0  0  0
   34.6630   30.2450   34.4670 C   0  0  0  0  0  0  0  0  0  0  0  0
   35.8400   30.8320   34.8330 C   0  0  0  0  0  0  0  0  0  0  0  0
   35.9090   31.6540   35.9700 C   0  0  0  0  0  0  0  0  0  0  0  0
   34.7630   31.8590   36.7150 C   0  0  0  0  0  0  0  0  0  0  0  0
   33.5750   31.2550   36.3310 C   0  0  0  0  0  0  0  0  0  0  0  0
   36.6850   30.6200   34.1970 H   0  0  0  0  0  0  0  0  0  0  0  0
   36.8550   32.1010   36.2280 H   0  0  0  0  0  0  0  0  0  0  0  0
   34.7790   32.4860   37.5970 H   0  0  0  0  0  0  0  0  0  0  0  0
   32.3420   31.4730   37.1290 C   0  0  0  0  0  2  0  0  0  0  0  0
   31.9860   30.4830   37.5330 H   0  0  0  0  0  0  0  0  0  0  0  0
  1  6  1  0  0  0  0
  2  3  1  0  0  0  0
  2  1  2  0  0  0  0
  3  4  2  0  0  0  0
  4  5  1  0  0  0  0
  5 23  1  0  0  0  0
  6  5  2  0  0  0  0
  7  1  1  0  0  0  0
  8  3  1  0  0  0  0
  9  2  1  0  0  0  0
  9 10  1  0  0  0  0
 10 15  1  0  0  0  0
 11 10  2  0  0  0  0
 11 12  1  0  0  0  0
 12 13  2  0  0  0  0
 13 14  1  0  0  0  0
 13 18  1  0  0  0  0
 14 19  1  0  0  0  0
 15 14  2  0  0  0  0
 16 11  1  0  0  0  0
 17 12  1  0  0  0  0
 19 20  1  0  0  0  0
 19 22  1  0  0  0  0
 21 19  1  0  0  0  0
 23 24  1  0  0  0  0
 24 25  1  0  0  0  0
 24 29  1  0  0  0  0
 26 24  1  0  0  0  0
 27 28  1  0  0  0  0
 28 33  1  0  0  0  0
 29 30  1  0  0  0  0
 29 28  2  0  0  0  0
 30 31  2  0  0  0  0
 31 35  1  0  0  0  0
 31 32  1  0  0  0  0
 32 36  1  0  0  0  0
 33 32  2  0  0  0  0
 33 37  1  0  0  0  0
 34 30  1  0  0  0  0
 37 38  1  0  0  0  0
M  END
>  <minimizedAffinity>
-5.72560692

$$$$

 OpenBabel03262522263D

 38 40  0  0  0  0  0  0  0  0999 V2000
   35.0550   28.8220   32.2220 C   0  0  0  0  0  0  0  0  0  0  0  0
   35.1790   29.4420   33.4670 C   0  0  0  0  0  0  0  0  0  0  0  0
   36.0440   28.8780   34.3680 C   0  0  0  0  0  0  0  0  0  0  0  0
   36.7210   27.7540   33.9950 N   0  0  0  0  0  0  0  0  0  0  0  0
   36.5740   27.2030   32.8190 C   0  0  0  0  0  0  0  0  0  0  0  0
   35.7190   27.7260   31.8700 N   0  0  0  0  0  0  0  0  0  0  0  0
   34.3800   29.2190   31.4480 H   0  0  0  0  0  0  0  0  0  0  0  0
   36.1880   29.3190   35.3450 H   0  0  0  0  0  0  0  0  0  0  0  0
   34.4400   30.5560   33.6970 O   0  0  0  0  0  0  0  0  0  0  0  0
   33.7480   30.6780   34.8970 C   0  0  0  0  0  0  0  0  0  0  0  0
   32.7570   29.8390   35.3910 C   0  0  0  0  0  0  0  0  0  0  0  0
   32.1970   30.1200   36.5850 C   0  0  0  0  0  0  0  0  0  0  0  0
   32.6240   31.2270   37.2750 C   0  0  0  0  0  0  0  0  0  0  0  0
   33.6220   32.0680   36.7700 C   0  0  0  0  0  0  0  0  0  0  0  0
   34.1680   31.7580   35.5640 N   0  0  0  0  0  0  0  0  0  0  0  0
   32.4970   29.0020   34.7600 H   0  0  0  0  0  0  0  0  0  0  0  0
   31.4260   29.4760   36.9820 H   0  0  0  0  0  0  0  0  0  0  0  0
   32.2130   31.5060   38.2390 H   0  0  0  0  0  0  0  0  0  0  0  0
   34.0660   33.2720   37.5500 C   0  0  0  0  0  0  0  0  0  0  0  0
   33.6060   33.2260   38.5330 H   0  0  0  0  0  0  0  0  0  0  0  0
   35.1660   33.0800   37.7230 H   0  0  0  0  0  0  0  0  0  0  0  0
   33.9060   34.2110   36.9890 H   0  0  0  0  0  0  0  0  0  0  0  0
   37.5990   25.7260   32.6180 S   0  0  0  0  0  0  0  0  0  0  0  0
   38.8190   25.8460   33.9820 C   0  0  0  0  0  0  0  0  0  0  0  0
   38.7560   26.7880   34.5260 H   0  0  0  0  0  0  0  0  0  0  0  0
   39.8430   25.7240   33.5830 H   0  0  0  0  0  0  0  0  0  0  0  0
   38.4640   26.5090   36.6350 F   0  0  0  0  0  0  0  0  0  0  0  0
   38.3140   25.2050   36.2600 C   0  0  0  0  0  0  0  0  0  0  0  0
   38.4710   24.7590   34.9480 C   0  0  0  0  0  0  0  0  0  0  0  0
   38.3090   23.4410   34.6310 C   0  0  0  0  0  0  0  0  0  0  0  0
   37.9810   22.5000   35.6210 C   0  0  0  0  0  0  0  0  0  0  0  0
   37.8240   22.9300   36.9240 C   0  0  0  0  0  0  0  0  0  0  0  0
   37.9900   24.2730   37.2310 C   0  0  0  0  0  0  0  0  0  0  0  0
   38.4490   23.1910   33.5920 H   0  0  0  0  0  0  0  0  0  0  0  0
   37.8610   21.4680   35.3330 H   0  0  0  0  0  0  0  0  0  0  0  0
   37.5710   22.2330   37.7120 H   0  0  0  0  0  0  0  0  0  0  0  0
   37.8230   24.7390   38.6310 C   0  0  0  0  0  2  0  0  0  0  0  0
   36.9740   25.4800   38.6720 H   0  0  0  0  0  0  0  0  0  0  0  0
  1  2  1  0  0  0  0
  2  9  1  0  0  0  0
  2  3  2  0  0  0  0
  3  8  1  0  0  0  0
  4  3  1  0  0  0  0
  5  4  2  0  0  0  0
  6  1  2  0  0  0  0
  6  5  1  0  0  0  0
  7  1  1  0  0  0  0
  9 10  1  0  0  0  0
 10 11  2  0  0  0  0
 10 15  1  0  0  0  0
 11 12  1  0  0  0  0
 12 17  1  0  0  0  0
 12 13  2  0  0  0  0
 13 18  1  0  0  0  0
 14 13  1  0  0  0  0
 14 19  1  0  0  0  0
 15 14  2  0  0  0  0
 16 11  1  0  0  0  0
 19 21  1  0  0  0  0
 19 20  1  0  0  0  0
 22 19  1  0  0  0  0
 23  5  1  0  0  0  0
 23 24  1  0  0  0  0
 24 25  1  0  0  0  0
 24 29  1  0  0  0  0
 26 24  1  0  0  0  0
 28 27  1  0  0  0  0
 28 33  1  0  0  0  0
 29 28  2  0  0  0  0
 30 29  1  0  0  0  0
 30 31  2  0  0  0  0
 31 32  1  0  0  0  0
 32 33  2  0  0  0  0
 32 36  1  0  0  0  0
 33 37  1  0  0  0  0
 34 30  1  0  0  0  0
 35 31  1  0  0  0  0
 37 38  1  0  0  0  0
M  END
>  <minimizedAffinity>
-5.61124897

$$$$

 OpenBabel03262522263D

 38 40  0  0  0  0  0  0  0  0999 V2000
   36.1240   25.6750   31.2210 C   0  0  0  0  0  0  0  0  0  0  0  0
   36.8960   24.5830   31.6240 C   0  0  0  0  0  0  0  0  0  0  0  0
   37.5290   24.6730   32.8350 C   0  0  0  0  0  0  0  0  0  0  0  0
   37.3680   25.8150   33.5640 N   0  0  0  0  0  0  0  0  0  0  0  0
   36.6380   26.8160   33.1490 C   0  0  0  0  0  0  0  0  0  0  0  0
   35.9750   26.7830   31.9390 N   0  0  0  0  0  0  0  0  0  0  0  0
   35.5860   25.6740   30.2600 H   0  0  0  0  0  0  0  0  0  0  0  0
   38.1340   23.8550   33.2040 H   0  0  0  0  0  0  0  0  0  0  0  0
   36.9640   23.5140   30.7920 O   0  0  0  0  0  0  0  0  0  0  0  0
   36.4160   22.3020   31.1960 C   0  0  0  0  0  0  0  0  0  0  0  0
   35.2560   22.1010   31.9340 C   0  0  0  0  0  0  0  0  0  0  0  0
   34.8790   20.8420   32.2320 C   0  0  0  0  0  0  0  0  0  0  0  0
   35.6540   19.7950   31.7970 C   0  0  0  0  0  0  0  0  0  0  0  0
   36.8220   20.0060   31.0550 C   0  0  0  0  0  0  0  0  0  0  0  0
   37.1760   21.2860   30.7700 N   0  0  0  0  0  0  0  0  0  0  0  0
   34.7290   22.9980   32.2280 H   0  0  0  0  0  0  0  0  0  0  0  0
   33.9780   20.6710   32.8040 H   0  0  0  0  0  0  0  0  0  0  0  0
   35.4050   18.7610   32.0040 H   0  0  0  0  0  0  0  0  0  0  0  0
   37.6480   18.8390   30.5950 C   0  0  0  0  0  0  0  0  0  0  0  0
   37.0930   17.9290   30.8050 H   0  0  0  0  0  0  0  0  0  0  0  0
   37.6410   18.9430   29.4700 H   0  0  0  0  0  0  0  0  0  0  0  0
   38.6780   18.8760   30.9960 H   0  0  0  0  0  0  0  0  0  0  0  0
   36.6170   28.1880   34.3280 S   0  0  0  0  0  0  0  0  0  0  0  0
   35.3420   29.3250   33.6610 C   0  0  0  0  0  0  0  0  0  0  0  0
   34.4290   28.8110   33.3640 H   0  0  0  0  0  0  0  0  0  0  0  0
   35.7470   29.8770   32.7930 H   0  0  0  0  0  0  0  0  0  0  0  0
   32.7410   29.3240   34.5750 F   0  0  0  0  0  0  0  0  0  0  0  0
   33.6420   30.1650   35.1640 C   0  0  0  0  0  0  0  0  0  0  0  0
   34.9810   30.2470   34.7810 C   0  0  0  0  0  0  0  0  0  0  0  0
   35.8370   31.1070   35.4050 C   0  0  0  0  0  0  0  0  0  0  0  0
   35.3900   31.9330   36.4500 C   0  0  0  0  0  0  0  0  0  0  0  0
   34.0660   31.8600   36.8380 C   0  0  0  0  0  0  0  0  0  0  0  0
   33.2080   30.9810   36.1940 C   0  0  0  0  0  0  0  0  0  0  0  0
   36.8520   31.1010   35.0420 H   0  0  0  0  0  0  0  0  0  0  0  0
   36.0960   32.6000   36.9190 H   0  0  0  0  0  0  0  0  0  0  0  0
   33.6870   32.4820   37.6390 H   0  0  0  0  0  0  0  0  0  0  0  0
   31.7830   30.9010   36.6080 C   0  0  0  0  0  2  0  0  0  0  0  0
   31.5670   29.8570   36.9770 H   0  0  0  0  0  0  0  0  0  0  0  0
  1  2  2  0  0  0  0
  1  6  1  0  0  0  0
  2  3  1  0  0  0  0
  3  8  1  0  0  0  0
  3  4  2  0  0  0  0
  5  4  1  0  0  0  0
  5 23  1  0  0  0  0
  6  5  2  0  0  0  0
  7  1  1  0  0  0  0
  9 10  1  0  0  0  0
  9  2  1  0  0  0  0
 10 11  1  0  0  0  0
 11 16  1  0  0  0  0
 11 12  2  0  0  0  0
 12 17  1  0  0  0  0
 13 18  1  0  0  0  0
 13 12  1  0  0  0  0
 14 13  2  0  0  0  0
 15 14  1  0  0  0  0
 15 10  2  0  0  0  0
 19 20  1  0  0  0  0
 19 22  1  0  0  0  0
 19 14  1  0  0  0  0
 21 19  1  0  0  0  0
 24 23  1  0  0  0  0
 24 29  1  0  0  0  0
 25 24  1  0  0  0  0
 26 24  1  0  0  0  0
 27 28  1  0  0  0  0
 28 33  1  0  0  0  0
 29 28  2  0  0  0  0
 29 30  1  0  0  0  0
 30 31  2  0  0  0  0
 31 32  1  0  0  0  0
 31 35  1  0  0  0  0
 32 36  1  0  0  0  0
 33 37  1  0  0  0  0
 33 32  2  0  0  0  0
 34 30  1  0  0  0  0
 37 38  1  0  0  0  0
M  END
>  <minimizedAffinity>
-5.59794855

$$$$

 OpenBabel03262522263D

 38 40  0  0  0  0  0  0  0  0999 V2000
   36.3520   25.0810   31.7230 C   0  0  0  0  0  0  0  0  0  0  0  0
   36.6490   23.8520   31.1300 C   0  0  0  0  0  0  0  0  0  0  0  0
   37.9570   23.6120   30.8010 C   0  0  0  0  0  0  0  0  0  0  0  0
   38.8780   24.5820   31.0690 N   0  0  0  0  0  0  0  0  0  0  0  0
   38.5570   25.7210   31.6240 C   0  0  0  0  0  0  0  0  0  0  0  0
   37.2580   26.0190   31.9790 N   0  0  0  0  0  0  0  0  0  0  0  0
   35.3230   25.3430   32.0150 H   0  0  0  0  0  0  0  0  0  0  0  0
   38.2480   22.6740   30.3460 H   0  0  0  0  0  0  0  0  0  0  0  0
   35.6270   22.9850   30.9230 O   0  0  0  0  0  0  0  0  0  0  0  0
   35.6950   21.7100   31.4740 C   0  0  0  0  0  0  0  0  0  0  0  0
   35.8070   20.5010   30.7990 C   0  0  0  0  0  0  0  0  0  0  0  0
   35.8600   19.3570   31.5090 C   0  0  0  0  0  0  0  0  0  0  0  0
   35.8020   19.4210   32.8790 C   0  0  0  0  0  0  0  0  0  0  0  0
   35.6880   20.6430   33.5520 C   0  0  0  0  0  0  0  0  0  0  0  0
   35.6380   21.7800   32.8090 N   0  0  0  0  0  0  0  0  0  0  0  0
   35.8370   20.5700   29.7210 H   0  0  0  0  0  0  0  0  0  0  0  0
   35.9480   18.4090   30.9970 H   0  0  0  0  0  0  0  0  0  0  0  0
   35.8400   18.5380   33.5060 H   0  0  0  0  0  0  0  0  0  0  0  0
   35.6260   20.6790   35.0520 C   0  0  0  0  0  0  0  0  0  0  0  0
   35.8370   19.6800   35.4230 H   0  0  0  0  0  0  0  0  0  0  0  0
   36.5250   21.3020   35.3350 H   0  0  0  0  0  0  0  0  0  0  0  0
   34.6890   21.1380   35.4170 H   0  0  0  0  0  0  0  0  0  0  0  0
   39.9900   26.8030   31.8510 S   0  0  0  0  0  0  0  0  0  0  0  0
   40.8920   26.0520   33.2590 C   0  0  0  0  0  0  0  0  0  0  0  0
   41.7460   26.6470   33.5820 H   0  0  0  0  0  0  0  0  0  0  0  0
   41.2380   25.0380   32.9870 H   0  0  0  0  0  0  0  0  0  0  0  0
   40.1250   23.5980   34.2570 F   0  0  0  0  0  0  0  0  0  0  0  0
   39.6080   24.7270   34.8250 C   0  0  0  0  0  0  0  0  0  0  0  0
   39.9270   26.0170   34.4000 C   0  0  0  0  0  0  0  0  0  0  0  0
   39.3790   27.1100   35.0060 C   0  0  0  0  0  0  0  0  0  0  0  0
   38.4780   26.9630   36.0750 C   0  0  0  0  0  0  0  0  0  0  0  0
   38.1550   25.6900   36.5040 C   0  0  0  0  0  0  0  0  0  0  0  0
   38.7210   24.5890   35.8780 C   0  0  0  0  0  0  0  0  0  0  0  0
   39.6840   28.0660   34.6100 H   0  0  0  0  0  0  0  0  0  0  0  0
   38.0660   27.8500   36.5280 H   0  0  0  0  0  0  0  0  0  0  0  0
   37.4650   25.5400   37.3240 H   0  0  0  0  0  0  0  0  0  0  0  0
   38.3750   23.2190   36.3370 C   0  0  0  0  0  2  0  0  0  0  0  0
   39.3120   22.7070   36.7010 H   0  0  0  0  0  0  0  0  0  0  0  0
  1  6  1  0  0  0  0
  1  7  1  0  0  0  0
  2  1  2  0  0  0  0
  3  4  2  0  0  0  0
  3  2  1  0  0  0  0
  4  5  1  0  0  0  0
  5 23  1  0  0  0  0
  5  6  2  0  0  0  0
  8  3  1  0  0  0  0
  9  2  1  0  0  0  0
  9 10  1  0  0  0  0
 10 15  1  0  0  0  0
 11 10  2  0  0  0  0
 11 12  1  0  0  0  0
 12 13  2  0  0  0  0
 13 18  1  0  0  0  0
 13 14  1  0  0  0  0
 14 19  1  0  0  0  0
 15 14  2  0  0  0  0
 16 11  1  0  0  0  0
 17 12  1  0  0  0  0
 19 21  1  0  0  0  0
 19 22  1  0  0  0  0
 19 20  1  0  0  0  0
 23 24  1  0  0  0  0
 24 25  1  0  0  0  0
 24 29  1  0  0  0  0
 26 24  1  0  0  0  0
 27 28  1  0  0  0  0
 28 33  1  0  0  0  0
 29 28  2  0  0  0  0
 29 30  1  0  0  0  0
 30 31  2  0  0  0  0
 31 32  1  0  0  0  0
 31 35  1  0  0  0  0
 32 36  1  0  0  0  0
 33 37  1  0  0  0  0
 33 32  2  0  0  0  0
 34 30  1  0  0  0  0
 37 38  1  0  0  0  0
M  END
>  <minimizedAffinity>
-5.58321762

$$$$
