
 OpenBabel03272508413D

 35 37  0  0  1  0  0  0  0  0999 V2000
   36.3530   28.0860   32.2980 N   0  0  0  0  0  0  0  0  0  0  0  0
   35.8280   28.7060   33.5150 C   0  0  0  0  0  0  0  0  0  0  0  0
   34.9650   29.8640   33.2800 C   0  0  2  0  0  0  0  0  0  0  0  0
   35.4510   30.7290   32.2150 N   0  0  0  0  0  0  0  0  0  0  0  0
   35.7670   29.9780   31.0360 C   0  0  0  0  0  0  0  0  0  0  0  0
   36.9140   29.0760   31.4420 C   0  0  0  0  0  0  0  0  0  0  0  0
   35.3880   27.9250   34.1330 H   0  0  0  0  0  0  0  0  0  0  0  0
   36.8050   29.1150   33.9480 H   0  0  0  0  0  0  0  0  0  0  0  0
   33.9620   29.6250   32.8730 H   0  0  0  0  0  0  0  0  0  0  0  0
   35.1150   31.6540   32.1600 H   0  0  0  0  0  0  0  0  0  0  0  0
   34.9240   29.4200   30.6070 H   0  0  0  0  0  0  0  0  0  0  0  0
   36.1650   30.6830   30.2820 H   0  0  0  0  0  0  0  0  0  0  0  0
   37.6750   29.7160   31.9390 H   0  0  0  0  0  0  0  0  0  0  0  0
   37.3500   28.5850   30.5510 H   0  0  0  0  0  0  0  0  0  0  0  0
   32.3340   29.5200   34.6170 Cl  0  0  0  0  0  0  0  0  0  0  0  0
   33.6370   30.5280   35.2520 C   0  0  0  0  0  0  0  0  0  0  0  0
   34.7860   30.6160   34.5120 C   0  0  0  0  0  0  0  0  0  0  0  0
   35.9090   31.3750   34.8790 C   0  0  0  0  0  0  0  0  0  0  0  0
   35.7850   32.0730   36.0900 C   0  0  0  0  0  0  0  0  0  0  0  0
   34.6140   31.9920   36.8520 C   0  0  0  0  0  0  0  0  0  0  0  0
   33.5640   31.2240   36.4230 C   0  0  0  0  0  0  0  0  0  0  0  0
   36.8820   31.6100   34.5280 H   0  0  0  0  0  0  0  0  0  0  0  0
   36.4940   32.7170   36.5830 H   0  0  0  0  0  0  0  0  0  0  0  0
   34.4360   32.4950   37.7910 H   0  0  0  0  0  0  0  0  0  0  0  0
   32.2990   31.0980   37.1860 C   0  0  0  0  0  2  0  0  0  0  0  0
   31.7570   30.1550   36.8840 H   0  0  0  0  0  0  0  0  0  0  0  0
   36.2960   26.6920   32.0670 C   0  0  0  0  0  0  0  0  0  0  0  0
   37.1850   25.8010   32.6740 C   0  0  0  0  0  0  0  0  0  0  0  0
   37.0640   24.4460   32.3960 C   0  0  0  0  0  0  0  0  0  0  0  0
   36.0610   24.0480   31.5270 N   0  0  0  0  0  0  0  0  0  0  0  0
   35.2270   24.9490   30.9660 C   0  0  0  0  0  0  0  0  0  0  0  0
   35.3310   26.2420   31.2210 N   0  0  0  0  0  0  0  0  0  0  0  0
   37.9350   26.2070   33.3390 H   0  0  0  0  0  0  0  0  0  0  0  0
   37.7460   23.7580   32.8620 H   0  0  0  0  0  0  0  0  0  0  0  0
   34.5160   24.4790   30.3260 H   0  0  0  0  0  0  0  0  0  0  0  0
  1  2  1  0  0  0  0
  2  8  1  0  0  0  0
  2  7  1  0  0  0  0
  3  9  1  6  0  0  0
  3  2  1  0  0  0  0
  3 17  1  0  0  0  0
  4  3  1  0  0  0  0
  5  6  1  0  0  0  0
  5  4  1  0  0  0  0
  6 13  1  0  0  0  0
  6  1  1  0  0  0  0
 10  4  1  0  0  0  0
 11  5  1  0  0  0  0
 12  5  1  0  0  0  0
 14  6  1  0  0  0  0
 15 16  1  0  0  0  0
 16 21  1  0  0  0  0
 17 18  1  0  0  0  0
 17 16  2  0  0  0  0
 18 19  2  0  0  0  0
 19 23  1  0  0  0  0
 19 20  1  0  0  0  0
 20 24  1  0  0  0  0
 21 20  2  0  0  0  0
 21 25  1  0  0  0  0
 22 18  1  0  0  0  0
 26 25  1  0  0  0  0
 27  1  1  0  0  0  0
 27 28  1  0  0  0  0
 28 33  1  0  0  0  0
 29 28  2  0  0  0  0
 29 34  1  0  0  0  0
 30 29  1  0  0  0  0
 31 32  1  0  0  0  0
 31 30  2  0  0  0  0
 32 27  2  0  0  0  0
 35 31  1  0  0  0  0
M  END
>  <minimizedAffinity>
-5.48565292

$$$$

 OpenBabel03272508413D

 35 37  0  0  1  0  0  0  0  0999 V2000
   36.3900   28.0440   32.3200 N   0  0  0  0  0  0  0  0  0  0  0  0
   35.8660   28.6700   33.5340 C   0  0  0  0  0  0  0  0  0  0  0  0
   34.9730   29.8030   33.2940 C   0  0  2  0  0  0  0  0  0  0  0  0
   35.4240   30.6630   32.2100 N   0  0  0  0  0  0  0  0  0  0  0  0
   35.7420   29.9020   31.0370 C   0  0  0  0  0  0  0  0  0  0  0  0
   36.9160   29.0340   31.4420 C   0  0  0  0  0  0  0  0  0  0  0  0
   35.4530   27.8880   34.1700 H   0  0  0  0  0  0  0  0  0  0  0  0
   36.8390   29.1080   33.9480 H   0  0  0  0  0  0  0  0  0  0  0  0
   33.9710   29.5350   32.9040 H   0  0  0  0  0  0  0  0  0  0  0  0
   35.0650   31.5790   32.1450 H   0  0  0  0  0  0  0  0  0  0  0  0
   34.9070   29.3180   30.6290 H   0  0  0  0  0  0  0  0  0  0  0  0
   36.1130   30.6040   30.2680 H   0  0  0  0  0  0  0  0  0  0  0  0
   37.6680   29.6990   31.9190 H   0  0  0  0  0  0  0  0  0  0  0  0
   37.3510   28.5400   30.5520 H   0  0  0  0  0  0  0  0  0  0  0  0
   32.3250   29.5070   34.6090 Cl  0  0  0  0  0  0  0  0  0  0  0  0
   33.6350   30.5040   35.2460 C   0  0  0  0  0  0  0  0  0  0  0  0
   34.7920   30.5700   34.5170 C   0  0  0  0  0  0  0  0  0  0  0  0
   35.9210   31.3180   34.8870 C   0  0  0  0  0  0  0  0  0  0  0  0
   35.7950   32.0290   36.0900 C   0  0  0  0  0  0  0  0  0  0  0  0
   34.6160   31.9710   36.8410 C   0  0  0  0  0  0  0  0  0  0  0  0
   33.5600   31.2120   36.4100 C   0  0  0  0  0  0  0  0  0  0  0  0
   36.9000   31.5360   34.5440 H   0  0  0  0  0  0  0  0  0  0  0  0
   36.5080   32.6680   36.5830 H   0  0  0  0  0  0  0  0  0  0  0  0
   34.4350   32.4850   37.7740 H   0  0  0  0  0  0  0  0  0  0  0  0
   32.2870   31.1100   37.1620 C   0  0  0  0  0  2  0  0  0  0  0  0
   31.7350   30.1710   36.8640 H   0  0  0  0  0  0  0  0  0  0  0  0
   36.3630   26.6460   32.1100 C   0  0  0  0  0  0  0  0  0  0  0  0
   35.4840   26.0460   31.2050 C   0  0  0  0  0  0  0  0  0  0  0  0
   35.5190   24.6670   31.0550 C   0  0  0  0  0  0  0  0  0  0  0  0
   36.4310   23.9530   31.8160 N   0  0  0  0  0  0  0  0  0  0  0  0
   37.2610   24.5800   32.6770 C   0  0  0  0  0  0  0  0  0  0  0  0
   37.2390   25.8930   32.8300 N   0  0  0  0  0  0  0  0  0  0  0  0
   34.8070   26.6880   30.6560 H   0  0  0  0  0  0  0  0  0  0  0  0
   34.8430   24.2030   30.3590 H   0  0  0  0  0  0  0  0  0  0  0  0
   37.8970   23.8890   33.1800 H   0  0  0  0  0  0  0  0  0  0  0  0
  1  2  1  0  0  0  0
  2  8  1  0  0  0  0
  2  7  1  0  0  0  0
  3  9  1  6  0  0  0
  3  2  1  0  0  0  0
  3 17  1  0  0  0  0
  4  3  1  0  0  0  0
  5  6  1  0  0  0  0
  5  4  1  0  0  0  0
  6 13  1  0  0  0  0
  6  1  1  0  0  0  0
 10  4  1  0  0  0  0
 11  5  1  0  0  0  0
 12  5  1  0  0  0  0
 14  6  1  0  0  0  0
 15 16  1  0  0  0  0
 16 21  1  0  0  0  0
 17 18  1  0  0  0  0
 17 16  2  0  0  0  0
 18 19  2  0  0  0  0
 19 23  1  0  0  0  0
 19 20  1  0  0  0  0
 20 24  1  0  0  0  0
 21 20  2  0  0  0  0
 21 25  1  0  0  0  0
 22 18  1  0  0  0  0
 26 25  1  0  0  0  0
 27  1  1  0  0  0  0
 27 32  1  0  0  0  0
 28 27  2  0  0  0  0
 29 28  1  0  0  0  0
 29 30  2  0  0  0  0
 30 31  1  0  0  0  0
 31 32  2  0  0  0  0
 31 35  1  0  0  0  0
 33 28  1  0  0  0  0
 34 29  1  0  0  0  0
M  END
>  <minimizedAffinity>
-5.4817872

$$$$

 OpenBabel03272508413D

 35 37  0  0  1  0  0  0  0  0999 V2000
   36.9700   25.9220   32.8440 N   0  0  0  0  0  0  0  0  0  0  0  0
   37.5000   25.6140   34.1720 C   0  0  0  0  0  0  0  0  0  0  0  0
   38.4740   24.5220   34.1970 C   0  0  2  0  0  0  0  0  0  0  0  0
   38.1110   23.4170   33.3220 N   0  0  0  0  0  0  0  0  0  0  0  0
   37.7760   23.8800   32.0070 C   0  0  0  0  0  0  0  0  0  0  0  0
   36.5350   24.7290   32.1970 C   0  0  0  0  0  0  0  0  0  0  0  0
   37.8420   26.5430   34.6260 H   0  0  0  0  0  0  0  0  0  0  0  0
   36.5480   25.2080   34.6590 H   0  0  0  0  0  0  0  0  0  0  0  0
   39.4660   24.7700   33.7700 H   0  0  0  0  0  0  0  0  0  0  0  0
   38.5320   22.5370   33.4640 H   0  0  0  0  0  0  0  0  0  0  0  0
   38.5810   24.4190   31.4910 H   0  0  0  0  0  0  0  0  0  0  0  0
   37.4740   23.0020   31.4060 H   0  0  0  0  0  0  0  0  0  0  0  0
   35.8170   24.1330   32.7980 H   0  0  0  0  0  0  0  0  0  0  0  0
   36.0930   24.9860   31.2160 H   0  0  0  0  0  0  0  0  0  0  0  0
   40.7530   22.6570   34.5910 Cl  0  0  0  0  0  0  0  0  0  0  0  0
   39.7020   23.2180   35.8940 C   0  0  0  0  0  0  0  0  0  0  0  0
   38.6710   24.0550   35.5600 C   0  0  0  0  0  0  0  0  0  0  0  0
   37.7510   24.5840   36.4780 C   0  0  0  0  0  0  0  0  0  0  0  0
   37.9460   24.1910   37.8110 C   0  0  0  0  0  0  0  0  0  0  0  0
   38.9950   23.3350   38.1620 C   0  0  0  0  0  0  0  0  0  0  0  0
   39.8530   22.8650   37.2040 C   0  0  0  0  0  0  0  0  0  0  0  0
   36.9060   25.2260   36.5050 H   0  0  0  0  0  0  0  0  0  0  0  0
   37.3830   24.4550   38.6900 H   0  0  0  0  0  0  0  0  0  0  0  0
   39.2150   22.9830   39.1600 H   0  0  0  0  0  0  0  0  0  0  0  0
   40.9820   21.9560   37.5140 C   0  0  0  0  0  2  0  0  0  0  0  0
   41.7610   22.0130   36.6990 H   0  0  0  0  0  0  0  0  0  0  0  0
   36.9090   27.2390   32.3330 C   0  0  0  0  0  0  0  0  0  0  0  0
   37.6050   27.6240   31.1840 C   0  0  0  0  0  0  0  0  0  0  0  0
   37.4940   28.9360   30.7450 C   0  0  0  0  0  0  0  0  0  0  0  0
   36.6920   29.8000   31.4750 N   0  0  0  0  0  0  0  0  0  0  0  0
   36.0380   29.3780   32.5780 C   0  0  0  0  0  0  0  0  0  0  0  0
   36.1350   28.1320   33.0080 N   0  0  0  0  0  0  0  0  0  0  0  0
   38.2070   26.8780   30.6820 H   0  0  0  0  0  0  0  0  0  0  0  0
   38.0290   29.2350   29.8620 H   0  0  0  0  0  0  0  0  0  0  0  0
   35.4680   30.1630   33.0190 H   0  0  0  0  0  0  0  0  0  0  0  0
  1  2  1  0  0  0  0
  2  3  1  0  0  0  0
  2  7  1  0  0  0  0
  2  8  1  0  0  0  0
  3  9  1  6  0  0  0
  3 17  1  0  0  0  0
  4 10  1  0  0  0  0
  4  3  1  0  0  0  0
  5  6  1  0  0  0  0
  5  4  1  0  0  0  0
  6 13  1  0  0  0  0
  6  1  1  0  0  0  0
 11  5  1  0  0  0  0
 12  5  1  0  0  0  0
 14  6  1  0  0  0  0
 15 16  1  0  0  0  0
 16 21  1  0  0  0  0
 17 16  2  0  0  0  0
 17 18  1  0  0  0  0
 18 22  1  0  0  0  0
 18 19  2  0  0  0  0
 19 20  1  0  0  0  0
 19 23  1  0  0  0  0
 20 24  1  0  0  0  0
 21 25  1  0  0  0  0
 21 20  2  0  0  0  0
 26 25  1  0  0  0  0
 27  1  1  0  0  0  0
 27 32  1  0  0  0  0
 28 27  2  0  0  0  0
 29 28  1  0  0  0  0
 29 30  2  0  0  0  0
 30 31  1  0  0  0  0
 31 32  2  0  0  0  0
 31 35  1  0  0  0  0
 33 28  1  0  0  0  0
 34 29  1  0  0  0  0
M  END
>  <minimizedAffinity>
-5.29612398

$$$$

 OpenBabel03272508413D

 35 37  0  0  1  0  0  0  0  0999 V2000
   35.8600   29.5130   31.6900 N   0  0  0  0  0  0  0  0  0  0  0  0
   35.3790   30.4030   32.7460 C   0  0  0  0  0  0  0  0  0  0  0  0
   35.8380   30.0500   34.0900 C   0  0  2  0  0  0  0  0  0  0  0  0
   35.8330   28.6160   34.3350 N   0  0  0  0  0  0  0  0  0  0  0  0
   36.4900   27.9030   33.2790 C   0  0  0  0  0  0  0  0  0  0  0  0
   35.6400   28.1530   32.0500 C   0  0  0  0  0  0  0  0  0  0  0  0
   35.5830   31.4300   32.4480 H   0  0  0  0  0  0  0  0  0  0  0  0
   34.2650   30.1450   32.7090 H   0  0  0  0  0  0  0  0  0  0  0  0
   36.9080   30.2610   34.2890 H   0  0  0  0  0  0  0  0  0  0  0  0
   35.8540   28.2890   35.2650 H   0  0  0  0  0  0  0  0  0  0  0  0
   37.5430   28.1770   33.1270 H   0  0  0  0  0  0  0  0  0  0  0  0
   36.4190   26.8220   33.5030 H   0  0  0  0  0  0  0  0  0  0  0  0
   34.5880   27.9300   32.3270 H   0  0  0  0  0  0  0  0  0  0  0  0
   35.9650   27.4980   31.2200 H   0  0  0  0  0  0  0  0  0  0  0  0
   32.9530   29.3430   34.1510 Cl  0  0  0  0  0  0  0  0  0  0  0  0
   33.7080   30.4950   35.2560 C   0  0  0  0  0  0  0  0  0  0  0  0
   35.0450   30.7460   35.0920 C   0  0  0  0  0  0  0  0  0  0  0  0
   35.7880   31.6330   35.8860 C   0  0  0  0  0  0  0  0  0  0  0  0
   35.0600   32.2820   36.8940 C   0  0  0  0  0  0  0  0  0  0  0  0
   33.6940   32.0350   37.0680 C   0  0  0  0  0  0  0  0  0  0  0  0
   33.0430   31.1490   36.2510 C   0  0  0  0  0  0  0  0  0  0  0  0
   36.7790   31.9980   35.9880 H   0  0  0  0  0  0  0  0  0  0  0  0
   35.3940   32.9990   37.6250 H   0  0  0  0  0  0  0  0  0  0  0  0
   33.0600   32.4900   37.8160 H   0  0  0  0  0  0  0  0  0  0  0  0
   31.5990   30.8440   36.3870 C   0  0  0  0  0  2  0  0  0  0  0  0
   31.3660   29.8470   35.9120 H   0  0  0  0  0  0  0  0  0  0  0  0
   36.4410   29.9950   30.4930 C   0  0  0  0  0  0  0  0  0  0  0  0
   37.1690   29.1670   29.6350 C   0  0  0  0  0  0  0  0  0  0  0  0
   37.7080   29.7150   28.4780 C   0  0  0  0  0  0  0  0  0  0  0  0
   37.4920   31.0620   28.2350 N   0  0  0  0  0  0  0  0  0  0  0  0
   36.7790   31.8190   29.0970 C   0  0  0  0  0  0  0  0  0  0  0  0
   36.2610   31.3120   30.2010 N   0  0  0  0  0  0  0  0  0  0  0  0
   37.2850   28.1270   29.9100 H   0  0  0  0  0  0  0  0  0  0  0  0
   38.2690   29.0810   27.8160 H   0  0  0  0  0  0  0  0  0  0  0  0
   36.7060   32.8290   28.7620 H   0  0  0  0  0  0  0  0  0  0  0  0
  1  6  1  0  0  0  0
  1  2  1  0  0  0  0
  2  3  1  0  0  0  0
  3  9  1  1  0  0  0
  3  4  1  0  0  0  0
  3 17  1  0  0  0  0
  4 10  1  0  0  0  0
  5 12  1  0  0  0  0
  5  4  1  0  0  0  0
  6 13  1  0  0  0  0
  6  5  1  0  0  0  0
  7  2  1  0  0  0  0
  8  2  1  0  0  0  0
 11  5  1  0  0  0  0
 14  6  1  0  0  0  0
 15 16  1  0  0  0  0
 16 21  1  0  0  0  0
 17 16  2  0  0  0  0
 17 18  1  0  0  0  0
 18 22  1  0  0  0  0
 18 19  2  0  0  0  0
 19 20  1  0  0  0  0
 19 23  1  0  0  0  0
 20 24  1  0  0  0  0
 21 25  1  0  0  0  0
 21 20  2  0  0  0  0
 26 25  1  0  0  0  0
 27  1  1  0  0  0  0
 28 33  1  0  0  0  0
 28 27  2  0  0  0  0
 29 28  1  0  0  0  0
 30 29  2  0  0  0  0
 30 31  1  0  0  0  0
 31 32  2  0  0  0  0
 32 27  1  0  0  0  0
 34 29  1  0  0  0  0
 35 31  1  0  0  0  0
M  END
>  <minimizedAffinity>
-5.13220549

$$$$

 OpenBabel03272508413D

 35 37  0  0  1  0  0  0  0  0999 V2000
   37.4060   25.6470   32.4380 N   0  0  0  0  0  0  0  0  0  0  0  0
   37.5160   27.0490   32.0350 C   0  0  0  0  0  0  0  0  0  0  0  0
   36.3420   27.5720   31.3380 C   0  0  2  0  0  0  0  0  0  0  0  0
   35.7700   26.6230   30.3950 N   0  0  0  0  0  0  0  0  0  0  0  0
   35.5740   25.3380   31.0010 C   0  0  0  0  0  0  0  0  0  0  0  0
   36.9670   24.8510   31.3420 C   0  0  0  0  0  0  0  0  0  0  0  0
   37.8310   27.6290   32.9010 H   0  0  0  0  0  0  0  0  0  0  0  0
   38.3400   26.9480   31.2480 H   0  0  0  0  0  0  0  0  0  0  0  0
   35.4540   27.7430   31.9790 H   0  0  0  0  0  0  0  0  0  0  0  0
   35.1670   26.9540   29.6880 H   0  0  0  0  0  0  0  0  0  0  0  0
   34.9030   25.3380   31.8690 H   0  0  0  0  0  0  0  0  0  0  0  0
   35.1760   24.6550   30.2270 H   0  0  0  0  0  0  0  0  0  0  0  0
   37.5900   24.9680   30.4290 H   0  0  0  0  0  0  0  0  0  0  0  0
   36.9360   23.7880   31.6500 H   0  0  0  0  0  0  0  0  0  0  0  0
   35.7740   30.0360   32.9000 Cl  0  0  0  0  0  0  0  0  0  0  0  0
   36.4900   30.0360   31.2860 C   0  0  0  0  0  0  0  0  0  0  0  0
   36.6680   28.8240   30.6720 C   0  0  0  0  0  0  0  0  0  0  0  0
   37.2220   28.6570   29.3940 C   0  0  0  0  0  0  0  0  0  0  0  0
   37.5940   29.8450   28.7460 C   0  0  0  0  0  0  0  0  0  0  0  0
   37.4140   31.0880   29.3630 C   0  0  0  0  0  0  0  0  0  0  0  0
   36.8680   31.1630   30.6170 C   0  0  0  0  0  0  0  0  0  0  0  0
   37.4730   27.8850   28.7100 H   0  0  0  0  0  0  0  0  0  0  0  0
   38.0330   29.9840   27.7730 H   0  0  0  0  0  0  0  0  0  0  0  0
   37.6700   32.0470   28.9370 H   0  0  0  0  0  0  0  0  0  0  0  0
   36.6540   32.4490   31.3230 C   0  0  0  0  0  2  0  0  0  0  0  0
   36.5790   32.2740   32.4350 H   0  0  0  0  0  0  0  0  0  0  0  0
   37.7180   25.2020   33.7440 C   0  0  0  0  0  0  0  0  0  0  0  0
   37.7640   26.0730   34.8350 C   0  0  0  0  0  0  0  0  0  0  0  0
   38.0780   25.5590   36.0860 C   0  0  0  0  0  0  0  0  0  0  0  0
   38.3290   24.2000   36.1860 N   0  0  0  0  0  0  0  0  0  0  0  0
   38.2710   23.3990   35.1000 C   0  0  0  0  0  0  0  0  0  0  0  0
   37.9740   23.8750   33.9030 N   0  0  0  0  0  0  0  0  0  0  0  0
   37.5530   27.1190   34.6580 H   0  0  0  0  0  0  0  0  0  0  0  0
   38.1140   26.2270   36.9280 H   0  0  0  0  0  0  0  0  0  0  0  0
   38.4890   22.3860   35.3490 H   0  0  0  0  0  0  0  0  0  0  0  0
  1 27  1  0  0  0  0
  2  1  1  0  0  0  0
  2  7  1  0  0  0  0
  3  9  1  1  0  0  0
  3  2  1  0  0  0  0
  4  5  1  0  0  0  0
  4  3  1  0  0  0  0
  5  6  1  0  0  0  0
  5 11  1  0  0  0  0
  6 14  1  0  0  0  0
  6  1  1  0  0  0  0
  8  2  1  0  0  0  0
 10  4  1  0  0  0  0
 12  5  1  0  0  0  0
 13  6  1  0  0  0  0
 16 15  1  0  0  0  0
 17 16  1  0  0  0  0
 17  3  1  0  0  0  0
 18 17  2  0  0  0  0
 19 20  2  0  0  0  0
 19 18  1  0  0  0  0
 20 21  1  0  0  0  0
 21 16  2  0  0  0  0
 21 25  1  0  0  0  0
 22 18  1  0  0  0  0
 23 19  1  0  0  0  0
 24 20  1  0  0  0  0
 25 26  1  0  0  0  0
 27 32  2  0  0  0  0
 27 28  1  0  0  0  0
 28 29  2  0  0  0  0
 29 30  1  0  0  0  0
 29 34  1  0  0  0  0
 31 35  1  0  0  0  0
 31 30  2  0  0  0  0
 32 31  1  0  0  0  0
 33 28  1  0  0  0  0
M  END
>  <minimizedAffinity>
-5.13127327

$$$$

 OpenBabel03272508413D

 35 37  0  0  1  0  0  0  0  0999 V2000
   36.0770   28.9280   31.7220 N   0  0  0  0  0  0  0  0  0  0  0  0
   35.2390   29.7270   32.6160 C   0  0  0  0  0  0  0  0  0  0  0  0
   35.6300   29.6700   34.0240 C   0  0  2  0  0  0  0  0  0  0  0  0
   36.0240   28.3360   34.4520 N   0  0  0  0  0  0  0  0  0  0  0  0
   36.9770   27.7590   33.5500 C   0  0  0  0  0  0  0  0  0  0  0  0
   36.2330   27.6100   32.2390 C   0  0  0  0  0  0  0  0  0  0  0  0
   35.1600   30.7310   32.2020 H   0  0  0  0  0  0  0  0  0  0  0  0
   34.2640   29.1360   32.5280 H   0  0  0  0  0  0  0  0  0  0  0  0
   36.5600   30.2200   34.2740 H   0  0  0  0  0  0  0  0  0  0  0  0
   36.0380   28.1270   35.4160 H   0  0  0  0  0  0  0  0  0  0  0  0
   37.9100   28.3270   33.4430 H   0  0  0  0  0  0  0  0  0  0  0  0
   37.2050   26.7370   33.9070 H   0  0  0  0  0  0  0  0  0  0  0  0
   35.2710   27.1020   32.4620 H   0  0  0  0  0  0  0  0  0  0  0  0
   36.8290   27.0060   31.5280 H   0  0  0  0  0  0  0  0  0  0  0  0
   36.3640   31.9600   35.7710 Cl  0  0  0  0  0  0  0  0  0  0  0  0
   34.7460   31.2580   35.6950 C   0  0  0  0  0  0  0  0  0  0  0  0
   34.5600   30.1840   34.8650 C   0  0  0  0  0  0  0  0  0  0  0  0
   33.3370   29.5160   34.6950 C   0  0  0  0  0  0  0  0  0  0  0  0
   32.2720   30.0220   35.4560 C   0  0  0  0  0  0  0  0  0  0  0  0
   32.4520   31.1160   36.3090 C   0  0  0  0  0  0  0  0  0  0  0  0
   33.6790   31.7140   36.4140 C   0  0  0  0  0  0  0  0  0  0  0  0
   32.9210   28.7090   34.1470 H   0  0  0  0  0  0  0  0  0  0  0  0
   31.2490   29.6890   35.5040 H   0  0  0  0  0  0  0  0  0  0  0  0
   31.6900   31.5660   36.9280 H   0  0  0  0  0  0  0  0  0  0  0  0
   33.9320   32.8770   37.2980 C   0  0  0  0  0  2  0  0  0  0  0  0
   34.8480   33.4380   36.9500 H   0  0  0  0  0  0  0  0  0  0  0  0
   36.6180   29.4420   30.5210 C   0  0  0  0  0  0  0  0  0  0  0  0
   36.5650   30.8010   30.2040 C   0  0  0  0  0  0  0  0  0  0  0  0
   37.1180   31.2290   29.0040 C   0  0  0  0  0  0  0  0  0  0  0  0
   37.6980   30.2770   28.1810 N   0  0  0  0  0  0  0  0  0  0  0  0
   37.7250   28.9740   28.5330 C   0  0  0  0  0  0  0  0  0  0  0  0
   37.2010   28.5530   29.6720 N   0  0  0  0  0  0  0  0  0  0  0  0
   36.0900   31.4690   30.9110 H   0  0  0  0  0  0  0  0  0  0  0  0
   37.0790   32.2740   28.7580 H   0  0  0  0  0  0  0  0  0  0  0  0
   38.2050   28.3780   27.7920 H   0  0  0  0  0  0  0  0  0  0  0  0
  1  6  1  0  0  0  0
  1  2  1  0  0  0  0
  2  3  1  0  0  0  0
  3  9  1  1  0  0  0
  3  4  1  0  0  0  0
  3 17  1  0  0  0  0
  4 10  1  0  0  0  0
  5 12  1  0  0  0  0
  5  4  1  0  0  0  0
  6 13  1  0  0  0  0
  6  5  1  0  0  0  0
  7  2  1  0  0  0  0
  8  2  1  0  0  0  0
 11  5  1  0  0  0  0
 14  6  1  0  0  0  0
 16 15  1  0  0  0  0
 16 21  1  0  0  0  0
 17 16  2  0  0  0  0
 18 17  1  0  0  0  0
 18 19  2  0  0  0  0
 19 23  1  0  0  0  0
 19 20  1  0  0  0  0
 20 21  2  0  0  0  0
 20 24  1  0  0  0  0
 21 25  1  0  0  0  0
 22 18  1  0  0  0  0
 26 25  1  0  0  0  0
 27  1  1  0  0  0  0
 28 27  1  0  0  0  0
 28 33  1  0  0  0  0
 29 28  2  0  0  0  0
 30 31  2  0  0  0  0
 30 29  1  0  0  0  0
 31 32  1  0  0  0  0
 32 27  2  0  0  0  0
 34 29  1  0  0  0  0
 35 31  1  0  0  0  0
M  END
>  <minimizedAffinity>
-5.10717106

$$$$

 OpenBabel03272508413D

 35 37  0  0  1  0  0  0  0  0999 V2000
   36.1790   28.7620   32.6250 N   0  0  0  0  0  0  0  0  0  0  0  0
   35.4640   29.0290   33.8740 C   0  0  0  0  0  0  0  0  0  0  0  0
   34.1850   29.7180   33.7040 C   0  0  2  0  0  0  0  0  0  0  0  0
   34.2340   30.7660   32.6950 N   0  0  0  0  0  0  0  0  0  0  0  0
   34.8160   30.2900   31.4740 C   0  0  0  0  0  0  0  0  0  0  0  0
   36.2470   29.9440   31.8330 C   0  0  0  0  0  0  0  0  0  0  0  0
   35.4120   28.1010   34.4420 H   0  0  0  0  0  0  0  0  0  0  0  0
   36.1820   29.7900   34.3360 H   0  0  0  0  0  0  0  0  0  0  0  0
   33.3720   29.0980   33.2770 H   0  0  0  0  0  0  0  0  0  0  0  0
   33.5340   31.4610   32.6930 H   0  0  0  0  0  0  0  0  0  0  0  0
   34.2830   29.4510   31.0090 H   0  0  0  0  0  0  0  0  0  0  0  0
   34.8600   31.1390   30.7660 H   0  0  0  0  0  0  0  0  0  0  0  0
   36.6720   30.8170   32.3710 H   0  0  0  0  0  0  0  0  0  0  0  0
   36.8310   29.7370   30.9170 H   0  0  0  0  0  0  0  0  0  0  0  0
   35.7720   31.9870   34.7830 Cl  0  0  0  0  0  0  0  0  0  0  0  0
   34.3440   31.3190   35.5760 C   0  0  0  0  0  0  0  0  0  0  0  0
   33.7280   30.2510   34.9780 C   0  0  0  0  0  0  0  0  0  0  0  0
   32.5870   29.6090   35.4830 C   0  0  0  0  0  0  0  0  0  0  0  0
   32.0920   30.1340   36.6860 C   0  0  0  0  0  0  0  0  0  0  0  0
   32.7150   31.2220   37.3070 C   0  0  0  0  0  0  0  0  0  0  0  0
   33.8240   31.7950   36.7450 C   0  0  0  0  0  0  0  0  0  0  0  0
   31.9290   28.8120   35.2430 H   0  0  0  0  0  0  0  0  0  0  0  0
   31.2410   29.8220   37.2690 H   0  0  0  0  0  0  0  0  0  0  0  0
   32.4010   31.6860   38.2310 H   0  0  0  0  0  0  0  0  0  0  0  0
   34.5270   32.9490   37.3540 C   0  0  0  0  0  2  0  0  0  0  0  0
   35.1330   33.4920   36.5710 H   0  0  0  0  0  0  0  0  0  0  0  0
   36.7170   27.4930   32.3110 C   0  0  0  0  0  0  0  0  0  0  0  0
   38.0180   27.1280   32.6670 C   0  0  0  0  0  0  0  0  0  0  0  0
   38.4740   25.8630   32.3230 C   0  0  0  0  0  0  0  0  0  0  0  0
   37.6080   25.0230   31.6400 N   0  0  0  0  0  0  0  0  0  0  0  0
   36.3590   25.4240   31.3190 C   0  0  0  0  0  0  0  0  0  0  0  0
   35.9120   26.6250   31.6410 N   0  0  0  0  0  0  0  0  0  0  0  0
   38.6200   27.8520   33.2000 H   0  0  0  0  0  0  0  0  0  0  0  0
   39.4740   25.5790   32.5960 H   0  0  0  0  0  0  0  0  0  0  0  0
   35.8260   24.6620   30.7980 H   0  0  0  0  0  0  0  0  0  0  0  0
  1  2  1  0  0  0  0
  2  8  1  0  0  0  0
  2  7  1  0  0  0  0
  3  9  1  6  0  0  0
  3  2  1  0  0  0  0
  3 17  1  0  0  0  0
  4  3  1  0  0  0  0
  5  6  1  0  0  0  0
  5  4  1  0  0  0  0
  6 13  1  0  0  0  0
  6  1  1  0  0  0  0
 10  4  1  0  0  0  0
 11  5  1  0  0  0  0
 12  5  1  0  0  0  0
 14  6  1  0  0  0  0
 15 16  1  0  0  0  0
 16 21  1  0  0  0  0
 17 18  1  0  0  0  0
 17 16  2  0  0  0  0
 18 19  2  0  0  0  0
 19 23  1  0  0  0  0
 19 20  1  0  0  0  0
 20 24  1  0  0  0  0
 21 20  2  0  0  0  0
 21 25  1  0  0  0  0
 22 18  1  0  0  0  0
 26 25  1  0  0  0  0
 27  1  1  0  0  0  0
 27 28  1  0  0  0  0
 28 33  1  0  0  0  0
 29 34  1  0  0  0  0
 29 28  2  0  0  0  0
 30 29  1  0  0  0  0
 31 30  2  0  0  0  0
 31 32  1  0  0  0  0
 32 27  2  0  0  0  0
 35 31  1  0  0  0  0
M  END
>  <minimizedAffinity>
-5.04243994

$$$$

 OpenBabel03272508413D

 35 37  0  0  1  0  0  0  0  0999 V2000
   35.5760   30.1180   32.5530 N   0  0  0  0  0  0  0  0  0  0  0  0
   35.7920   28.6800   32.7110 C   0  0  0  0  0  0  0  0  0  0  0  0
   36.6330   28.0780   31.6760 C   0  0  2  0  0  0  0  0  0  0  0  0
   36.3560   28.5960   30.3450 N   0  0  0  0  0  0  0  0  0  0  0  0
   36.3420   30.0300   30.3350 C   0  0  0  0  0  0  0  0  0  0  0  0
   35.1740   30.4150   31.2200 C   0  0  0  0  0  0  0  0  0  0  0  0
   36.1190   28.4930   33.7320 H   0  0  0  0  0  0  0  0  0  0  0  0
   34.7260   28.3130   32.5140 H   0  0  0  0  0  0  0  0  0  0  0  0
   37.7100   28.3280   31.7440 H   0  0  0  0  0  0  0  0  0  0  0  0
   36.6540   28.0810   29.5590 H   0  0  0  0  0  0  0  0  0  0  0  0
   37.2820   30.5000   30.6490 H   0  0  0  0  0  0  0  0  0  0  0  0
   36.0890   30.3590   29.3100 H   0  0  0  0  0  0  0  0  0  0  0  0
   34.2950   29.8280   30.8790 H   0  0  0  0  0  0  0  0  0  0  0  0
   34.9680   31.4990   31.1320 H   0  0  0  0  0  0  0  0  0  0  0  0
   38.7210   26.6320   33.2190 Cl  0  0  0  0  0  0  0  0  0  0  0  0
   37.3730   25.8370   32.4010 C   0  0  0  0  0  0  0  0  0  0  0  0
   36.5020   26.6290   31.7010 C   0  0  0  0  0  0  0  0  0  0  0  0
   35.3850   26.1500   30.9980 C   0  0  0  0  0  0  0  0  0  0  0  0
   35.2030   24.7600   31.0460 C   0  0  0  0  0  0  0  0  0  0  0  0
   36.0890   23.9420   31.7560 C   0  0  0  0  0  0  0  0  0  0  0  0
   37.1540   24.4900   32.4190 C   0  0  0  0  0  0  0  0  0  0  0  0
   34.5790   26.5100   30.4100 H   0  0  0  0  0  0  0  0  0  0  0  0
   34.4340   24.1560   30.5950 H   0  0  0  0  0  0  0  0  0  0  0  0
   36.0240   22.8670   31.8430 H   0  0  0  0  0  0  0  0  0  0  0  0
   38.1260   23.6770   33.1880 C   0  0  0  0  0  2  0  0  0  0  0  0
   38.6570   24.3220   33.9480 H   0  0  0  0  0  0  0  0  0  0  0  0
   35.7450   31.0360   33.6170 C   0  0  0  0  0  0  0  0  0  0  0  0
   35.9560   32.3990   33.3960 C   0  0  0  0  0  0  0  0  0  0  0  0
   36.1120   33.2360   34.4930 C   0  0  0  0  0  0  0  0  0  0  0  0
   36.0490   32.6700   35.7560 N   0  0  0  0  0  0  0  0  0  0  0  0
   35.8410   31.3450   35.9160 C   0  0  0  0  0  0  0  0  0  0  0  0
   35.6910   30.5370   34.8810 N   0  0  0  0  0  0  0  0  0  0  0  0
   35.9910   32.7480   32.3720 H   0  0  0  0  0  0  0  0  0  0  0  0
   36.2750   34.2850   34.3260 H   0  0  0  0  0  0  0  0  0  0  0  0
   35.8190   31.0750   36.9470 H   0  0  0  0  0  0  0  0  0  0  0  0
  1  2  1  0  0  0  0
  1 27  1  0  0  0  0
  2  7  1  0  0  0  0
  3 17  1  0  0  0  0
  3  9  1  1  0  0  0
  3  2  1  0  0  0  0
  4  3  1  0  0  0  0
  5  4  1  0  0  0  0
  5 11  1  0  0  0  0
  5  6  1  0  0  0  0
  6  1  1  0  0  0  0
  8  2  1  0  0  0  0
 10  4  1  0  0  0  0
 12  5  1  0  0  0  0
 13  6  1  0  0  0  0
 14  6  1  0  0  0  0
 16 21  1  0  0  0  0
 16 15  1  0  0  0  0
 17 16  2  0  0  0  0
 18 19  2  0  0  0  0
 18 17  1  0  0  0  0
 19 20  1  0  0  0  0
 20 24  1  0  0  0  0
 20 21  2  0  0  0  0
 21 25  1  0  0  0  0
 22 18  1  0  0  0  0
 23 19  1  0  0  0  0
 25 26  1  0  0  0  0
 27 32  1  0  0  0  0
 28 27  2  0  0  0  0
 28 29  1  0  0  0  0
 29 30  2  0  0  0  0
 30 31  1  0  0  0  0
 31 35  1  0  0  0  0
 32 31  2  0  0  0  0
 33 28  1  0  0  0  0
 34 29  1  0  0  0  0
M  END
>  <minimizedAffinity>
-4.99303341

$$$$

 OpenBabel03272508413D

 35 37  0  0  1  0  0  0  0  0999 V2000
   37.2630   25.3730   32.3780 N   0  0  0  0  0  0  0  0  0  0  0  0
   37.8600   25.1690   33.6980 C   0  0  0  0  0  0  0  0  0  0  0  0
   38.4200   23.8330   33.9080 C   0  0  2  0  0  0  0  0  0  0  0  0
   37.5910   22.7750   33.3500 N   0  0  0  0  0  0  0  0  0  0  0  0
   37.2280   23.0570   31.9920 C   0  0  0  0  0  0  0  0  0  0  0  0
   36.3740   24.3060   32.0670 C   0  0  0  0  0  0  0  0  0  0  0  0
   38.5490   25.9890   33.8920 H   0  0  0  0  0  0  0  0  0  0  0  0
   36.9140   25.2260   34.3370 H   0  0  0  0  0  0  0  0  0  0  0  0
   39.3620   23.6290   33.3610 H   0  0  0  0  0  0  0  0  0  0  0  0
   37.7210   21.8500   33.6650 H   0  0  0  0  0  0  0  0  0  0  0  0
   38.0760   23.1670   31.3040 H   0  0  0  0  0  0  0  0  0  0  0  0
   36.5710   22.2400   31.6400 H   0  0  0  0  0  0  0  0  0  0  0  0
   35.6010   24.1290   32.8450 H   0  0  0  0  0  0  0  0  0  0  0  0
   35.8950   24.5010   31.0890 H   0  0  0  0  0  0  0  0  0  0  0  0
   40.6880   22.0220   34.5460 Cl  0  0  0  0  0  0  0  0  0  0  0  0
   39.6910   22.8200   35.7650 C   0  0  0  0  0  0  0  0  0  0  0  0
   38.6590   23.6060   35.3250 C   0  0  0  0  0  0  0  0  0  0  0  0
   37.7790   24.3030   36.1660 C   0  0  0  0  0  0  0  0  0  0  0  0
   38.0170   24.1430   37.5400 C   0  0  0  0  0  0  0  0  0  0  0  0
   39.0660   23.3410   38.0010 C   0  0  0  0  0  0  0  0  0  0  0  0
   39.8830   22.6960   37.1110 C   0  0  0  0  0  0  0  0  0  0  0  0
   36.9440   24.9560   36.1090 H   0  0  0  0  0  0  0  0  0  0  0  0
   37.4890   24.5660   38.3780 H   0  0  0  0  0  0  0  0  0  0  0  0
   39.3170   23.1630   39.0360 H   0  0  0  0  0  0  0  0  0  0  0  0
   41.0110   21.8340   37.5370 C   0  0  0  0  0  2  0  0  0  0  0  0
   41.7610   21.7330   36.6990 H   0  0  0  0  0  0  0  0  0  0  0  0
   37.5560   26.5010   31.5750 C   0  0  0  0  0  0  0  0  0  0  0  0
   38.8670   26.8840   31.2810 C   0  0  0  0  0  0  0  0  0  0  0  0
   39.0720   28.0030   30.4850 C   0  0  0  0  0  0  0  0  0  0  0  0
   37.9570   28.6830   30.0210 N   0  0  0  0  0  0  0  0  0  0  0  0
   36.7100   28.2710   30.3330 C   0  0  0  0  0  0  0  0  0  0  0  0
   36.5000   27.2080   31.0900 N   0  0  0  0  0  0  0  0  0  0  0  0
   39.6730   26.2890   31.6900 H   0  0  0  0  0  0  0  0  0  0  0  0
   40.0790   28.3000   30.2570 H   0  0  0  0  0  0  0  0  0  0  0  0
   35.9690   28.9020   29.8970 H   0  0  0  0  0  0  0  0  0  0  0  0
  1  2  1  0  0  0  0
  2  7  1  0  0  0  0
  2  3  1  0  0  0  0
  2  8  1  0  0  0  0
  3  9  1  6  0  0  0
  3 17  1  0  0  0  0
  4 10  1  0  0  0  0
  4  3  1  0  0  0  0
  5  6  1  0  0  0  0
  5  4  1  0  0  0  0
  6  1  1  0  0  0  0
  6 13  1  0  0  0  0
 11  5  1  0  0  0  0
 12  5  1  0  0  0  0
 14  6  1  0  0  0  0
 15 16  1  0  0  0  0
 16 21  1  0  0  0  0
 17 16  2  0  0  0  0
 17 18  1  0  0  0  0
 18 19  2  0  0  0  0
 19 20  1  0  0  0  0
 19 23  1  0  0  0  0
 20 24  1  0  0  0  0
 21 25  1  0  0  0  0
 21 20  2  0  0  0  0
 22 18  1  0  0  0  0
 26 25  1  0  0  0  0
 27  1  1  0  0  0  0
 28 27  1  0  0  0  0
 28 33  1  0  0  0  0
 29 28  2  0  0  0  0
 30 31  2  0  0  0  0
 30 29  1  0  0  0  0
 31 32  1  0  0  0  0
 32 27  2  0  0  0  0
 34 29  1  0  0  0  0
 35 31  1  0  0  0  0
M  END
>  <minimizedAffinity>
-4.98956347

$$$$
