REMARK  Name = 
REMARK  5 active torsions:
REMARK  status: ('A' for Active; 'I' for Inactive)
REMARK    1  A    between atoms: C_1  and  C_2
REMARK    2  A    between atoms: C_1  and  O_9
REMARK    3  A    between atoms: C_2  and  C_3
REMARK    4  A    between atoms: O_9  and  C_14
REMARK    5  A    between atoms: C_12  and  C_25
REMARK                            x       y       z     vdW  Elec       q    Type
REMARK                         _______ _______ _______ _____ _____    ______ ____
ROOT
ATOM      1  C   UNL     1      33.725  28.615  48.700  0.00  0.00    +0.000 C 
ATOM      2  H   UNL     1      33.062  29.417  49.129  0.00  0.00    +0.000 HD
ATOM      3  H   UNL     1      34.255  29.048  47.829  0.00  0.00    +0.000 HD
ENDROOT
BRANCH   1   4
ATOM      4  C   UNL     1      32.815  27.466  48.332  0.00  0.00    +0.000 C 
ATOM      5  H   UNL     1      32.976  26.573  48.945  0.00  0.00    +0.000 HD
ATOM      6  H   UNL     1      33.073  27.177  47.276  0.00  0.00    +0.000 HD
BRANCH   4   7
ATOM      7  C   UNL     1      31.386  27.863  48.344  0.00  0.00    +0.000 A 
ATOM      8  C   UNL     1      30.699  27.720  49.543  0.00  0.00    +0.000 A 
ATOM      9  C   UNL     1      29.370  28.063  49.643  0.00  0.00    +0.000 A 
ATOM     10  N   UNL     1      28.710  28.541  48.593  0.00  0.00    +0.000 NA
ATOM     11  C   UNL     1      29.398  28.676  47.422  0.00  0.00    +0.000 A 
ATOM     12  N   UNL     1      30.687  28.351  47.296  0.00  0.00    +0.000 NA
ATOM     13  H   UNL     1      31.125  27.342  50.466  0.00  0.00    +0.000 HD
ATOM     14  H   UNL     1      28.801  27.965  50.562  0.00  0.00    +0.000 HD
ATOM     15  H   UNL     1      28.998  29.050  46.481  0.00  0.00    +0.000 HD
ENDBRANCH   4   7
ENDBRANCH   1   4
BRANCH   1  16
ATOM     16  O   UNL     1      34.618  28.211  49.727  0.00  0.00    +0.000 OA
BRANCH  16  21
ATOM     17  C   UNL     1      37.219  30.198  51.275  0.00  0.00    +0.000 A 
ATOM     18  C   UNL     1      37.914  30.632  50.131  0.00  0.00    +0.000 A 
ATOM     19  C   UNL     1      37.435  30.208  48.907  0.00  0.00    +0.000 A 
ATOM     20  N   UNL     1      36.330  29.405  48.906  0.00  0.00    +0.000 NA
ATOM     21  C   UNL     1      35.694  29.010  50.004  0.00  0.00    +0.000 A 
ATOM     22  N   UNL     1      36.150  29.416  51.221  0.00  0.00    +0.000 NA
ATOM     23  H   UNL     1      37.609  30.540  52.233  0.00  0.00    +0.000 HD
ATOM     24  H   UNL     1      38.787  31.270  50.174  0.00  0.00    +0.000 HD
BRANCH  19  25
ATOM     25  C   UNL     1      38.143  30.648  47.690  0.00  0.00    +0.000 C 
ATOM     26  H   UNL     1      38.128  29.884  46.887  0.00  0.00    +0.000 HD
ENDBRANCH  19  25
ENDBRANCH  16  21
ENDBRANCH   1  16
TORSDOF 5
