
 OpenBabel03272501013D

 21 22  0  0  0  0  0  0  0  0999 V2000
   40.6430   23.3390   35.1760 F   0  0  0  0  0  0  0  0  0  0  0  0
   39.7570   23.6400   36.1730 C   0  0  0  0  0  0  0  0  0  0  0  0
   38.7750   24.6270   36.0520 C   0  0  0  0  0  0  0  0  0  0  0  0
   37.9340   24.8470   37.1200 C   0  0  0  0  0  0  0  0  0  0  0  0
   38.0110   24.1440   38.2970 C   0  0  0  0  0  0  0  0  0  0  0  0
   39.0010   23.1600   38.3980 C   0  0  0  0  0  0  0  0  0  0  0  0
   39.8560   22.9170   37.3480 C   0  0  0  0  0  0  0  0  0  0  0  0
   37.1680   25.6060   37.0460 H   0  0  0  0  0  0  0  0  0  0  0  0
   37.3730   24.2970   39.1330 H   0  0  0  0  0  0  0  0  0  0  0  0
   39.1240   22.5620   39.2990 H   0  0  0  0  0  0  0  0  0  0  0  0
   39.5720   27.0820   33.4740 C   0  0  0  0  0  0  0  0  0  0  0  0
   38.6070   26.8480   32.4690 C   0  0  0  0  0  0  0  0  0  0  0  0
   37.6840   25.8340   32.6980 C   0  0  0  0  0  0  0  0  0  0  0  0
   37.7540   25.1290   33.8570 N   0  0  0  0  0  0  0  0  0  0  0  0
   38.6900   25.3770   34.8020 C   0  0  0  0  0  0  0  0  0  0  0  0
   39.5890   26.3520   34.5990 N   0  0  0  0  0  0  0  0  0  0  0  0
   40.2600   27.8720   33.2540 H   0  0  0  0  0  0  0  0  0  0  0  0
   38.5100   27.3680   31.5490 H   0  0  0  0  0  0  0  0  0  0  0  0
   36.8840   25.5120   32.0540 H   0  0  0  0  0  0  0  0  0  0  0  0
   40.9160   21.8560   37.4700 C   0  0  0  0  0  2  0  0  0  0  0  0
   41.6720   22.1280   38.2350 H   0  0  0  0  0  0  0  0  0  0  0  0
  1  2  1  0  0  0  0
  2  7  1  0  0  0  0
  3  2  2  0  0  0  0
  3  4  1  0  0  0  0
  4  5  2  0  0  0  0
  5  6  1  0  0  0  0
  5  9  1  0  0  0  0
  6 10  1  0  0  0  0
  7 20  1  0  0  0  0
  7  6  2  0  0  0  0
  8  4  1  0  0  0  0
 11 16  1  0  0  0  0
 12 13  1  0  0  0  0
 12 11  2  0  0  0  0
 13 14  2  0  0  0  0
 14 15  1  0  0  0  0
 15  3  1  0  0  0  0
 16 15  2  0  0  0  0
 17 11  1  0  0  0  0
 18 12  1  0  0  0  0
 19 13  1  0  0  0  0
 20 21  1  0  0  0  0
M  END
>  <minimizedAffinity>
-4.49883366

$$$$

 OpenBabel03272501013D

 21 22  0  0  0  0  0  0  0  0999 V2000
   38.0030   23.9480   33.5250 F   0  0  0  0  0  0  0  0  0  0  0  0
   37.8920   25.1740   34.1210 C   0  0  0  0  0  0  0  0  0  0  0  0
   38.4470   25.4720   35.3690 C   0  0  0  0  0  0  0  0  0  0  0  0
   38.2750   26.7400   35.8760 C   0  0  0  0  0  0  0  0  0  0  0  0
   37.5850   27.7280   35.2170 C   0  0  0  0  0  0  0  0  0  0  0  0
   37.0370   27.4100   33.9690 C   0  0  0  0  0  0  0  0  0  0  0  0
   37.1920   26.1510   33.4350 C   0  0  0  0  0  0  0  0  0  0  0  0
   38.6970   26.9900   36.8400 H   0  0  0  0  0  0  0  0  0  0  0  0
   37.4400   28.7120   35.5880 H   0  0  0  0  0  0  0  0  0  0  0  0
   36.4770   28.1390   33.3860 H   0  0  0  0  0  0  0  0  0  0  0  0
   39.2610   22.9780   37.9040 C   0  0  0  0  0  0  0  0  0  0  0  0
   40.4950   22.4430   37.4740 C   0  0  0  0  0  0  0  0  0  0  0  0
   41.0360   22.9570   36.3010 C   0  0  0  0  0  0  0  0  0  0  0  0
   40.3620   23.9300   35.6360 N   0  0  0  0  0  0  0  0  0  0  0  0
   39.1810   24.4240   36.0740 C   0  0  0  0  0  0  0  0  0  0  0  0
   38.6440   23.9420   37.2050 N   0  0  0  0  0  0  0  0  0  0  0  0
   38.8850   22.5530   38.8120 H   0  0  0  0  0  0  0  0  0  0  0  0
   41.0610   21.6830   37.9540 H   0  0  0  0  0  0  0  0  0  0  0  0
   41.9580   22.6750   35.8200 H   0  0  0  0  0  0  0  0  0  0  0  0
   36.5990   25.8220   32.0930 C   0  0  0  0  0  2  0  0  0  0  0  0
   35.4890   25.8480   32.1260 H   0  0  0  0  0  0  0  0  0  0  0  0
  1  2  1  0  0  0  0
  2  3  1  0  0  0  0
  3  4  2  0  0  0  0
  3 15  1  0  0  0  0
  4  8  1  0  0  0  0
  5  9  1  0  0  0  0
  5  4  1  0  0  0  0
  6  5  2  0  0  0  0
  7  6  1  0  0  0  0
  7  2  2  0  0  0  0
 10  6  1  0  0  0  0
 11 17  1  0  0  0  0
 12 11  1  0  0  0  0
 12 18  1  0  0  0  0
 13 12  2  0  0  0  0
 14 15  2  0  0  0  0
 14 13  1  0  0  0  0
 15 16  1  0  0  0  0
 16 11  2  0  0  0  0
 19 13  1  0  0  0  0
 20 21  1  0  0  0  0
 20  7  1  0  0  0  0
M  END
>  <minimizedAffinity>
-4.36365461

$$$$

 OpenBabel03272501013D

 21 22  0  0  0  0  0  0  0  0999 V2000
   32.8130   29.5170   34.6660 F   0  0  0  0  0  0  0  0  0  0  0  0
   33.5740   30.4040   35.3750 C   0  0  0  0  0  0  0  0  0  0  0  0
   34.9340   30.6160   35.1280 C   0  0  0  0  0  0  0  0  0  0  0  0
   35.6040   31.5350   35.9050 C   0  0  0  0  0  0  0  0  0  0  0  0
   35.0040   32.2540   36.9090 C   0  0  0  0  0  0  0  0  0  0  0  0
   33.6430   32.0280   37.1400 C   0  0  0  0  0  0  0  0  0  0  0  0
   32.9450   31.1170   36.3810 C   0  0  0  0  0  0  0  0  0  0  0  0
   36.6560   31.7130   35.7290 H   0  0  0  0  0  0  0  0  0  0  0  0
   35.5020   32.9670   37.5190 H   0  0  0  0  0  0  0  0  0  0  0  0
   33.0980   32.5590   37.9180 H   0  0  0  0  0  0  0  0  0  0  0  0
   36.1980   29.7660   31.8140 C   0  0  0  0  0  0  0  0  0  0  0  0
   36.7690   28.4850   31.9840 C   0  0  0  0  0  0  0  0  0  0  0  0
   36.7090   27.9270   33.2550 C   0  0  0  0  0  0  0  0  0  0  0  0
   36.1150   28.6280   34.2550 N   0  0  0  0  0  0  0  0  0  0  0  0
   35.5760   29.8530   34.0610 C   0  0  0  0  0  0  0  0  0  0  0  0
   35.6230   30.4090   32.8410 N   0  0  0  0  0  0  0  0  0  0  0  0
   36.2680   30.1550   30.8190 H   0  0  0  0  0  0  0  0  0  0  0  0
   37.2440   27.8970   31.2380 H   0  0  0  0  0  0  0  0  0  0  0  0
   37.0870   26.9700   33.5740 H   0  0  0  0  0  0  0  0  0  0  0  0
   31.4810   30.8830   36.6400 C   0  0  0  0  0  2  0  0  0  0  0  0
   31.3170   30.4230   37.6370 H   0  0  0  0  0  0  0  0  0  0  0  0
  1  2  1  0  0  0  0
  2  7  1  0  0  0  0
  3  2  2  0  0  0  0
  3  4  1  0  0  0  0
  4  5  2  0  0  0  0
  5  6  1  0  0  0  0
  5  9  1  0  0  0  0
  6 10  1  0  0  0  0
  7 20  1  0  0  0  0
  7  6  2  0  0  0  0
  8  4  1  0  0  0  0
 11 12  2  0  0  0  0
 11 16  1  0  0  0  0
 12 13  1  0  0  0  0
 13 19  1  0  0  0  0
 13 14  2  0  0  0  0
 15 14  1  0  0  0  0
 15  3  1  0  0  0  0
 16 15  2  0  0  0  0
 17 11  1  0  0  0  0
 18 12  1  0  0  0  0
 20 21  1  0  0  0  0
M  END
>  <minimizedAffinity>
-4.32462835

$$$$

 OpenBabel03272501013D

 21 22  0  0  0  0  0  0  0  0999 V2000
   38.1140   26.7120   36.4320 F   0  0  0  0  0  0  0  0  0  0  0  0
   37.8750   26.1430   35.2120 C   0  0  0  0  0  0  0  0  0  0  0  0
   38.3040   24.8570   34.8680 C   0  0  0  0  0  0  0  0  0  0  0  0
   38.0080   24.3830   33.6100 C   0  0  0  0  0  0  0  0  0  0  0  0
   37.3110   25.1100   32.6760 C   0  0  0  0  0  0  0  0  0  0  0  0
   36.8900   26.3940   33.0390 C   0  0  0  0  0  0  0  0  0  0  0  0
   37.1710   26.8960   34.2890 C   0  0  0  0  0  0  0  0  0  0  0  0
   38.3300   23.3920   33.3250 H   0  0  0  0  0  0  0  0  0  0  0  0
   37.0710   24.7640   31.7000 H   0  0  0  0  0  0  0  0  0  0  0  0
   36.3330   27.0300   32.3530 H   0  0  0  0  0  0  0  0  0  0  0  0
   41.0370   22.9950   36.4080 C   0  0  0  0  0  0  0  0  0  0  0  0
   40.5250   22.6150   37.6670 C   0  0  0  0  0  0  0  0  0  0  0  0
   39.2270   23.0110   37.9710 C   0  0  0  0  0  0  0  0  0  0  0  0
   38.5280   23.7330   37.0580 N   0  0  0  0  0  0  0  0  0  0  0  0
   39.0460   24.0820   35.8590 C   0  0  0  0  0  0  0  0  0  0  0  0
   40.2960   23.7080   35.5460 N   0  0  0  0  0  0  0  0  0  0  0  0
   42.0380   22.6670   36.2180 H   0  0  0  0  0  0  0  0  0  0  0  0
   41.0280   22.0530   38.4150 H   0  0  0  0  0  0  0  0  0  0  0  0
   38.6730   22.8180   38.8740 H   0  0  0  0  0  0  0  0  0  0  0  0
   36.7120   28.2780   34.6670 C   0  0  0  0  0  2  0  0  0  0  0  0
   37.2280   29.0530   34.0620 H   0  0  0  0  0  0  0  0  0  0  0  0
  2  1  1  0  0  0  0
  3  2  1  0  0  0  0
  3 15  1  0  0  0  0
  4  3  2  0  0  0  0
  5  6  2  0  0  0  0
  5  4  1  0  0  0  0
  6  7  1  0  0  0  0
  7 20  1  0  0  0  0
  7  2  2  0  0  0  0
  8  4  1  0  0  0  0
  9  5  1  0  0  0  0
 10  6  1  0  0  0  0
 11 12  1  0  0  0  0
 12 13  2  0  0  0  0
 12 18  1  0  0  0  0
 13 19  1  0  0  0  0
 14 13  1  0  0  0  0
 15 14  2  0  0  0  0
 16 15  1  0  0  0  0
 16 11  2  0  0  0  0
 17 11  1  0  0  0  0
 21 20  1  0  0  0  0
M  END
>  <minimizedAffinity>
-4.24759293

$$$$

 OpenBabel03272501013D

 21 22  0  0  0  0  0  0  0  0999 V2000
   41.2980   26.0170   35.2210 F   0  0  0  0  0  0  0  0  0  0  0  0
   40.1580   26.1860   34.4860 C   0  0  0  0  0  0  0  0  0  0  0  0
   38.9300   25.6170   34.8350 C   0  0  0  0  0  0  0  0  0  0  0  0
   37.8440   25.8530   34.0210 C   0  0  0  0  0  0  0  0  0  0  0  0
   37.9080   26.6200   32.8850 C   0  0  0  0  0  0  0  0  0  0  0  0
   39.1450   27.1820   32.5520 C   0  0  0  0  0  0  0  0  0  0  0  0
   40.2490   26.9650   33.3450 C   0  0  0  0  0  0  0  0  0  0  0  0
   36.8860   25.4210   34.2750 H   0  0  0  0  0  0  0  0  0  0  0  0
   37.0840   26.8160   32.2430 H   0  0  0  0  0  0  0  0  0  0  0  0
   39.2740   27.8020   31.6670 H   0  0  0  0  0  0  0  0  0  0  0  0
   39.6190   22.9060   37.1770 C   0  0  0  0  0  0  0  0  0  0  0  0
   38.7920   23.1940   38.2860 C   0  0  0  0  0  0  0  0  0  0  0  0
   37.9990   24.3330   38.2080 C   0  0  0  0  0  0  0  0  0  0  0  0
   38.0570   25.1010   37.0900 N   0  0  0  0  0  0  0  0  0  0  0  0
   38.8590   24.7990   36.0430 C   0  0  0  0  0  0  0  0  0  0  0  0
   39.6310   23.7040   36.0990 N   0  0  0  0  0  0  0  0  0  0  0  0
   40.2100   22.0200   37.2820 H   0  0  0  0  0  0  0  0  0  0  0  0
   38.7100   22.6280   39.1800 H   0  0  0  0  0  0  0  0  0  0  0  0
   37.3130   24.7110   38.9470 H   0  0  0  0  0  0  0  0  0  0  0  0
   41.5740   27.5740   32.9770 C   0  0  0  0  0  2  0  0  0  0  0  0
   41.9660   27.1440   32.0320 H   0  0  0  0  0  0  0  0  0  0  0  0
  2  3  1  0  0  0  0
  2  1  1  0  0  0  0
  3 15  1  0  0  0  0
  4  8  1  0  0  0  0
  4  3  2  0  0  0  0
  5  4  1  0  0  0  0
  6  5  2  0  0  0  0
  6  7  1  0  0  0  0
  7  2  2  0  0  0  0
  9  5  1  0  0  0  0
 10  6  1  0  0  0  0
 11 17  1  0  0  0  0
 11 12  1  0  0  0  0
 12 18  1  0  0  0  0
 13 12  2  0  0  0  0
 13 19  1  0  0  0  0
 14 13  1  0  0  0  0
 15 16  1  0  0  0  0
 15 14  2  0  0  0  0
 16 11  2  0  0  0  0
 20  7  1  0  0  0  0
 21 20  1  0  0  0  0
M  END
>  <minimizedAffinity>
-4.19378901

$$$$

 OpenBabel03272501013D

 21 22  0  0  0  0  0  0  0  0999 V2000
   34.7610   29.9810   34.9640 F   0  0  0  0  0  0  0  0  0  0  0  0
   34.1950   30.9140   35.7890 C   0  0  0  0  0  0  0  0  0  0  0  0
   32.8930   30.8080   36.2860 C   0  0  0  0  0  0  0  0  0  0  0  0
   32.4240   31.8060   37.1110 C   0  0  0  0  0  0  0  0  0  0  0  0
   33.1730   32.9000   37.4690 C   0  0  0  0  0  0  0  0  0  0  0  0
   34.4730   32.9880   36.9620 C   0  0  0  0  0  0  0  0  0  0  0  0
   34.9710   32.0060   36.1350 C   0  0  0  0  0  0  0  0  0  0  0  0
   31.4200   31.7420   37.5060 H   0  0  0  0  0  0  0  0  0  0  0  0
   32.8310   33.6810   38.1040 H   0  0  0  0  0  0  0  0  0  0  0  0
   35.1270   33.8250   37.2010 H   0  0  0  0  0  0  0  0  0  0  0  0
   30.8870   28.5590   34.2300 C   0  0  0  0  0  0  0  0  0  0  0  0
   30.5750   27.4890   35.0970 C   0  0  0  0  0  0  0  0  0  0  0  0
   31.0680   27.5600   36.3950 C   0  0  0  0  0  0  0  0  0  0  0  0
   31.8130   28.6350   36.7600 N   0  0  0  0  0  0  0  0  0  0  0  0
   32.0940   29.6450   35.9060 C   0  0  0  0  0  0  0  0  0  0  0  0
   31.6270   29.5960   34.6490 N   0  0  0  0  0  0  0  0  0  0  0  0
   30.4860   28.4620   33.2420 H   0  0  0  0  0  0  0  0  0  0  0  0
   30.0000   26.6280   34.8630 H   0  0  0  0  0  0  0  0  0  0  0  0
   30.9370   26.8450   37.1900 H   0  0  0  0  0  0  0  0  0  0  0  0
   36.3710   32.1120   35.5960 C   0  0  0  0  0  2  0  0  0  0  0  0
   36.4710   32.9740   34.9030 H   0  0  0  0  0  0  0  0  0  0  0  0
  1  2  1  0  0  0  0
  2  7  2  0  0  0  0
  2  3  1  0  0  0  0
  3  4  2  0  0  0  0
  4  5  1  0  0  0  0
  4  8  1  0  0  0  0
  5  9  1  0  0  0  0
  6 10  1  0  0  0  0
  6  5  2  0  0  0  0
  7  6  1  0  0  0  0
 11 16  2  0  0  0  0
 11 12  1  0  0  0  0
 12 13  2  0  0  0  0
 13 14  1  0  0  0  0
 13 19  1  0  0  0  0
 15  3  1  0  0  0  0
 15 14  2  0  0  0  0
 16 15  1  0  0  0  0
 17 11  1  0  0  0  0
 18 12  1  0  0  0  0
 20  7  1  0  0  0  0
 21 20  1  0  0  0  0
M  END
>  <minimizedAffinity>
-4.18483257

$$$$

 OpenBabel03272501013D

 21 22  0  0  0  0  0  0  0  0999 V2000
   37.9760   22.0150   30.2200 F   0  0  0  0  0  0  0  0  0  0  0  0
   36.9310   21.4100   30.8620 C   0  0  0  0  0  0  0  0  0  0  0  0
   35.9740   22.1140   31.5980 C   0  0  0  0  0  0  0  0  0  0  0  0
   34.9620   21.4030   32.2050 C   0  0  0  0  0  0  0  0  0  0  0  0
   34.8460   20.0380   32.1200 C   0  0  0  0  0  0  0  0  0  0  0  0
   35.8130   19.3510   31.3780 C   0  0  0  0  0  0  0  0  0  0  0  0
   36.8370   20.0330   30.7610 C   0  0  0  0  0  0  0  0  0  0  0  0
   34.2120   21.9300   32.7790 H   0  0  0  0  0  0  0  0  0  0  0  0
   34.0740   19.4700   32.5790 H   0  0  0  0  0  0  0  0  0  0  0  0
   35.7880   18.2690   31.2660 H   0  0  0  0  0  0  0  0  0  0  0  0
   37.2170   25.3850   32.6290 C   0  0  0  0  0  0  0  0  0  0  0  0
   36.3990   26.2980   31.9280 C   0  0  0  0  0  0  0  0  0  0  0  0
   35.4170   25.7660   31.1010 C   0  0  0  0  0  0  0  0  0  0  0  0
   35.2960   24.4170   31.0060 N   0  0  0  0  0  0  0  0  0  0  0  0
   36.0950   23.5670   31.6910 C   0  0  0  0  0  0  0  0  0  0  0  0
   37.0480   24.0610   32.4960 N   0  0  0  0  0  0  0  0  0  0  0  0
   37.9570   25.8410   33.2540 H   0  0  0  0  0  0  0  0  0  0  0  0
   36.4520   27.3580   31.9670 H   0  0  0  0  0  0  0  0  0  0  0  0
   34.7060   26.2990   30.4920 H   0  0  0  0  0  0  0  0  0  0  0  0
   37.8700   19.2840   29.9660 C   0  0  0  0  0  2  0  0  0  0  0  0
   38.4830   18.6280   30.6190 H   0  0  0  0  0  0  0  0  0  0  0  0
  1  2  1  0  0  0  0
  2  3  1  0  0  0  0
  3 15  1  0  0  0  0
  3  4  2  0  0  0  0
  4  8  1  0  0  0  0
  5  4  1  0  0  0  0
  5  9  1  0  0  0  0
  6  5  2  0  0  0  0
  7  2  2  0  0  0  0
  7  6  1  0  0  0  0
 10  6  1  0  0  0  0
 11 17  1  0  0  0  0
 12 18  1  0  0  0  0
 12 11  2  0  0  0  0
 13 12  1  0  0  0  0
 14 13  2  0  0  0  0
 14 15  1  0  0  0  0
 15 16  2  0  0  0  0
 16 11  1  0  0  0  0
 19 13  1  0  0  0  0
 20 21  1  0  0  0  0
 20  7  1  0  0  0  0
M  END
>  <minimizedAffinity>
-4.18328142

$$$$

 OpenBabel03272501013D

 21 22  0  0  0  0  0  0  0  0999 V2000
   39.5650   26.0780   31.9620 F   0  0  0  0  0  0  0  0  0  0  0  0
   39.0700   26.3260   33.2120 C   0  0  0  0  0  0  0  0  0  0  0  0
   37.7560   26.0300   33.5890 C   0  0  0  0  0  0  0  0  0  0  0  0
   37.3630   26.3220   34.8760 C   0  0  0  0  0  0  0  0  0  0  0  0
   38.1980   26.8880   35.8080 C   0  0  0  0  0  0  0  0  0  0  0  0
   39.5080   27.1760   35.4130 C   0  0  0  0  0  0  0  0  0  0  0  0
   39.9310   26.8970   34.1330 C   0  0  0  0  0  0  0  0  0  0  0  0
   36.3520   26.1000   35.1870 H   0  0  0  0  0  0  0  0  0  0  0  0
   37.9160   27.1210   36.8060 H   0  0  0  0  0  0  0  0  0  0  0  0
   40.2270   27.6260   36.0950 H   0  0  0  0  0  0  0  0  0  0  0  0
   36.1400   23.4760   31.5460 C   0  0  0  0  0  0  0  0  0  0  0  0
   35.2220   24.2020   30.7550 C   0  0  0  0  0  0  0  0  0  0  0  0
   35.1740   25.5790   30.9400 C   0  0  0  0  0  0  0  0  0  0  0  0
   35.9970   26.1490   31.8570 N   0  0  0  0  0  0  0  0  0  0  0  0
   36.8660   25.4280   32.6000 C   0  0  0  0  0  0  0  0  0  0  0  0
   36.9280   24.0980   32.4360 N   0  0  0  0  0  0  0  0  0  0  0  0
   36.1420   22.4210   31.3690 H   0  0  0  0  0  0  0  0  0  0  0  0
   34.5590   23.8050   30.0270 H   0  0  0  0  0  0  0  0  0  0  0  0
   34.5440   26.2910   30.4340 H   0  0  0  0  0  0  0  0  0  0  0  0
   41.3430   27.2120   33.7200 C   0  0  0  0  0  2  0  0  0  0  0  0
   41.5260   28.3060   33.7150 H   0  0  0  0  0  0  0  0  0  0  0  0
  1  2  1  0  0  0  0
  2  3  2  0  0  0  0
  2  7  1  0  0  0  0
  3  4  1  0  0  0  0
  4  8  1  0  0  0  0
  4  5  2  0  0  0  0
  5  9  1  0  0  0  0
  6  5  1  0  0  0  0
  6 10  1  0  0  0  0
  7  6  2  0  0  0  0
 11 16  1  0  0  0  0
 12 13  1  0  0  0  0
 12 11  2  0  0  0  0
 13 14  2  0  0  0  0
 14 15  1  0  0  0  0
 15  3  1  0  0  0  0
 16 15  2  0  0  0  0
 17 11  1  0  0  0  0
 18 12  1  0  0  0  0
 19 13  1  0  0  0  0
 20  7  1  0  0  0  0
 21 20  1  0  0  0  0
M  END
>  <minimizedAffinity>
-4.17176485

$$$$

 OpenBabel03272501013D

 21 22  0  0  0  0  0  0  0  0999 V2000
   37.1710   24.2760   36.5990 F   0  0  0  0  0  0  0  0  0  0  0  0
   38.3110   23.5320   36.4790 C   0  0  0  0  0  0  0  0  0  0  0  0
   38.7640   23.0150   35.2610 C   0  0  0  0  0  0  0  0  0  0  0  0
   39.9270   22.2780   35.2550 C   0  0  0  0  0  0  0  0  0  0  0  0
   40.6650   22.0260   36.3860 C   0  0  0  0  0  0  0  0  0  0  0  0
   40.1960   22.5530   37.5940 C   0  0  0  0  0  0  0  0  0  0  0  0
   39.0370   23.2930   37.6330 C   0  0  0  0  0  0  0  0  0  0  0  0
   40.2940   21.8700   34.3240 H   0  0  0  0  0  0  0  0  0  0  0  0
   41.5650   21.4610   36.4040 H   0  0  0  0  0  0  0  0  0  0  0  0
   40.7260   22.3960   38.5320 H   0  0  0  0  0  0  0  0  0  0  0  0
   36.6130   22.4110   32.3770 C   0  0  0  0  0  0  0  0  0  0  0  0
   36.4790   23.6840   31.7790 C   0  0  0  0  0  0  0  0  0  0  0  0
   37.1400   24.7450   32.3860 C   0  0  0  0  0  0  0  0  0  0  0  0
   37.8710   24.5100   33.5070 N   0  0  0  0  0  0  0  0  0  0  0  0
   37.9810   23.2800   34.0570 C   0  0  0  0  0  0  0  0  0  0  0  0
   37.3500   22.2430   33.4850 N   0  0  0  0  0  0  0  0  0  0  0  0
   36.0870   21.6270   31.8740 H   0  0  0  0  0  0  0  0  0  0  0  0
   35.9220   23.9200   30.9060 H   0  0  0  0  0  0  0  0  0  0  0  0
   37.1540   25.7770   32.0790 H   0  0  0  0  0  0  0  0  0  0  0  0
   38.5430   23.8540   38.9380 C   0  0  0  0  0  2  0  0  0  0  0  0
   38.2410   23.0440   39.6350 H   0  0  0  0  0  0  0  0  0  0  0  0
  2  1  1  0  0  0  0
  2  7  1  0  0  0  0
  3  2  2  0  0  0  0
  4  3  1  0  0  0  0
  4  5  2  0  0  0  0
  5  9  1  0  0  0  0
  5  6  1  0  0  0  0
  6  7  2  0  0  0  0
  6 10  1  0  0  0  0
  7 20  1  0  0  0  0
  8  4  1  0  0  0  0
 11 16  1  0  0  0  0
 12 11  2  0  0  0  0
 12 13  1  0  0  0  0
 13 14  2  0  0  0  0
 14 15  1  0  0  0  0
 15  3  1  0  0  0  0
 16 15  2  0  0  0  0
 17 11  1  0  0  0  0
 18 12  1  0  0  0  0
 19 13  1  0  0  0  0
 20 21  1  0  0  0  0
M  END
>  <minimizedAffinity>
-4.16303539

$$$$
