
 OpenBabel03272509493D

 26 27  0  0  0  0  0  0  0  0999 V2000
   33.7080   28.6050   48.7070 C   0  0  0  0  0  0  0  0  0  0  0  0
   33.0490   29.4110   49.1340 H   0  0  0  0  0  0  0  0  0  0  0  0
   34.2330   29.0300   47.8290 H   0  0  0  0  0  0  0  0  0  0  0  0
   32.7950   27.4530   48.3540 C   0  0  0  0  0  0  0  0  0  0  0  0
   32.9510   26.5700   48.9820 H   0  0  0  0  0  0  0  0  0  0  0  0
   33.0560   27.1460   47.3040 H   0  0  0  0  0  0  0  0  0  0  0  0
   31.3680   27.8560   48.3550 C   0  0  0  0  0  0  0  0  0  0  0  0
   30.6740   27.7290   49.5520 C   0  0  0  0  0  0  0  0  0  0  0  0
   29.3460   28.0780   49.6410 C   0  0  0  0  0  0  0  0  0  0  0  0
   28.6930   28.5470   48.5820 N   0  0  0  0  0  0  0  0  0  0  0  0
   29.3880   28.6660   47.4130 C   0  0  0  0  0  0  0  0  0  0  0  0
   30.6760   28.3350   47.2980 N   0  0  0  0  0  0  0  0  0  0  0  0
   31.0940   27.3600   50.4810 H   0  0  0  0  0  0  0  0  0  0  0  0
   28.7720   27.9930   50.5580 H   0  0  0  0  0  0  0  0  0  0  0  0
   28.9940   29.0310   46.4660 H   0  0  0  0  0  0  0  0  0  0  0  0
   34.6080   28.2090   49.7320 O   0  0  0  0  0  0  0  0  0  0  0  0
   37.2340   30.1890   51.2460 C   0  0  0  0  0  0  0  0  0  0  0  0
   37.9020   30.6380   50.0930 C   0  0  0  0  0  0  0  0  0  0  0  0
   37.3990   30.2260   48.8740 C   0  0  0  0  0  0  0  0  0  0  0  0
   36.2970   29.4180   48.8880 N   0  0  0  0  0  0  0  0  0  0  0  0
   35.6860   29.0090   49.9950 C   0  0  0  0  0  0  0  0  0  0  0  0
   36.1670   29.4030   51.2060 N   0  0  0  0  0  0  0  0  0  0  0  0
   37.6430   30.5210   52.1990 H   0  0  0  0  0  0  0  0  0  0  0  0
   38.7740   31.2790   50.1240 H   0  0  0  0  0  0  0  0  0  0  0  0
   38.0790   30.6820   47.6480 C   0  0  0  0  0  2  0  0  0  0  0  0
   38.0500   29.9270   46.8370 H   0  0  0  0  0  0  0  0  0  0  0  0
  1  2  1  0  0  0  0
  1 16  1  0  0  0  0
  3  1  1  0  0  0  0
  4  7  1  0  0  0  0
  4  1  1  0  0  0  0
  4  5  1  0  0  0  0
  6  4  1  0  0  0  0
  7  8  1  0  0  0  0
  8  9  2  0  0  0  0
  8 13  1  0  0  0  0
  9 14  1  0  0  0  0
 10  9  1  0  0  0  0
 11 10  2  0  0  0  0
 12 11  1  0  0  0  0
 12  7  2  0  0  0  0
 15 11  1  0  0  0  0
 16 21  1  0  0  0  0
 17 23  1  0  0  0  0
 18 24  1  0  0  0  0
 18 17  2  0  0  0  0
 19 20  2  0  0  0  0
 19 18  1  0  0  0  0
 20 21  1  0  0  0  0
 21 22  2  0  0  0  0
 22 17  1  0  0  0  0
 25 19  1  0  0  0  0
 26 25  1  0  0  0  0
M  END
>  <minimizedAffinity>
-4.77578306

>  <minimizedRMSD>
0.0350632444

$$$$
