
     RDKit          3D

 37 39  0  0  0  0  0  0  0  0999 V2000
   32.1659   28.5254   47.4249 C   0  0  2  0  0  0  0  0  0  0  0  0
   33.4059   28.3653   48.2539 C   0  0  1  0  0  0  0  0  0  0  0  0
   33.8022   27.0638   48.1706 O   0  0  0  0  0  0  0  0  0  0  0  0
   33.1135   26.4422   47.1339 C   0  0  0  0  0  0  0  0  0  0  0  0
   32.5074   27.5224   46.2779 C   0  0  1  0  0  0  0  0  0  0  0  0
   32.0938   29.8264   46.8844 O   0  0  0  0  0  0  0  0  0  0  0  0
   34.7136   29.4130   47.5028 S   0  0  0  0  0  0  0  0  0  0  0  0
   37.1352   29.2880   50.6312 C   0  0  0  0  0  0  0  0  0  0  0  0
   37.6420   30.5851   50.7586 C   0  0  0  0  0  0  0  0  0  0  0  0
   37.2068   31.5407   49.8248 C   0  0  0  0  0  0  0  0  0  0  0  0
   36.3283   31.1619   48.8593 N   0  0  0  0  0  0  0  0  0  0  0  0
   35.8681   29.8944   48.7793 C   0  0  0  0  0  0  0  0  0  0  0  0
   36.2638   28.9396   49.6625 N   0  0  0  0  0  0  0  0  0  0  0  0
   31.3657   27.0396   45.6873 O   0  0  0  0  0  0  0  0  0  0  0  0
   29.8849   29.1123   44.2108 Cl  0  0  0  0  0  0  0  0  0  0  0  0
   29.3374   28.1225   45.5435 C   0  0  0  0  0  0  0  0  0  0  0  0
   30.1250   27.1713   46.1501 C   0  0  0  0  0  0  0  0  0  0  0  0
   29.5671   26.4234   47.1906 C   0  0  0  0  0  0  0  0  0  0  0  0
   28.2661   26.6401   47.5904 C   0  0  0  0  0  0  0  0  0  0  0  0
   27.4655   27.5947   46.9870 C   0  0  0  0  0  0  0  0  0  0  0  0
   28.0138   28.3360   45.9575 C   0  0  0  0  0  0  0  0  0  0  0  0
   31.2490   28.1899   47.8981 H   0  0  0  0  0  0  0  0  0  0  0  0
   33.2183   28.6907   49.3056 H   0  0  0  0  0  0  0  0  0  0  0  0
   33.9195   25.9805   46.4865 H   0  0  0  0  0  0  0  0  0  0  0  0
   32.4401   25.7068   47.5410 H   0  0  0  0  0  0  0  0  0  0  0  0
   33.2212   28.0241   45.6274 H   0  0  0  0  0  0  0  0  0  0  0  0
   32.6024   29.8674   46.0388 H   0  0  0  0  0  0  0  0  0  0  0  0
   37.4238   28.5123   51.3069 H   0  0  0  0  0  0  0  0  0  0  0  0
   38.3385   30.7920   51.5612 H   0  0  0  0  0  0  0  0  0  0  0  0
   37.5839   32.5321   49.9091 H   0  0  0  0  0  0  0  0  0  0  0  0
   30.1150   25.6579   47.7136 H   0  0  0  0  0  0  0  0  0  0  0  0
   27.8184   26.0730   48.3914 H   0  0  0  0  0  0  0  0  0  0  0  0
   26.4438   27.7727   47.2928 H   0  0  0  0  0  0  0  0  0  0  0  0
   27.1681   29.3463   45.3187 C   0  0  0  0  0  0  0  0  0  0  0  0
   26.2493   29.5206   45.9237 H   0  0  0  0  0  0  0  0  0  0  0  0
   26.8256   28.9331   44.3426 H   0  0  0  0  0  0  0  0  0  0  0  0
   27.7054   30.2849   45.1440 H   0  0  0  0  0  0  0  0  0  0  0  0
  1  2  1  0
  3  2  1  0
  4  3  1  0
  5  4  1  0
  5  1  1  0
  6  1  1  0
  7  2  1  0
  7 12  1  0
  8  9  2  0
 10  9  1  0
 11 10  2  0
 12 11  1  0
 12 13  2  0
 13  8  1  0
 14 17  1  0
 14  5  1  0
 15 16  1  0
 16 21  2  0
 16 17  1  0
 17 18  2  0
 18 19  1  0
 20 19  2  0
 21 20  1  0
  1 22  1  1
  2 23  1  1
  4 24  1  0
  4 25  1  0
  5 26  1  6
  6 27  1  0
  8 28  1  0
  9 29  1  0
 10 30  1  0
 18 31  1  0
 19 32  1  0
 20 33  1  0
 34 35  1  0
 34 36  1  0
 34 37  1  0
 21 34  1  0
M  ISO  8  22  13  23  13  24  13  25  13  26  13  27   3  28  14  29  14
M  ISO  5  30  14  31  14  32  14  33  14  35   8
M  END
>  <DihAtoms>  (1) 
15,20,33,34

>  <DihDeg>  (1) 
132.5672349637555

$$$$
