
 OpenBabel03272510033D

 27 28  0  0  0  0  0  0  0  0999 V2000
   38.1570   31.2340   44.9220 C   0  0  0  0  0  0  0  0  0  0  0  0
   37.3370   30.9210   45.9700 C   0  0  0  0  0  0  0  0  0  0  0  0
   36.1170   30.3300   45.7220 C   0  0  0  0  0  0  0  0  0  0  0  0
   35.6630   30.0360   44.4530 C   0  0  0  0  0  0  0  0  0  0  0  0
   36.4590   30.3470   43.3760 C   0  0  0  0  0  0  0  0  0  0  0  0
   37.6650   30.9290   43.6520 C   0  0  0  0  0  0  0  0  0  0  0  0
   35.4900   30.0890   46.5980 H   0  0  0  0  0  0  0  0  0  0  0  0
   34.6910   29.5730   44.3950 H   0  0  0  0  0  0  0  0  0  0  0  0
   36.1150   30.1270   42.3860 H   0  0  0  0  0  0  0  0  0  0  0  0
   38.3140   31.1830   42.7990 H   0  0  0  0  0  0  0  0  0  0  0  0
   38.7030   32.7640   48.8650 C   0  0  0  0  0  0  0  0  0  0  0  0
   38.3120   32.4580   47.5620 C   0  0  0  0  0  0  0  0  0  0  0  0
   37.7010   31.2700   47.3140 C   0  0  0  0  0  0  0  0  0  0  0  0
   37.4850   30.4340   48.3780 N   0  0  0  0  0  0  0  0  0  0  0  0
   37.8550   30.7420   49.6280 C   0  0  0  0  0  0  0  0  0  0  0  0
   38.4660   31.9030   49.8580 N   0  0  0  0  0  0  0  0  0  0  0  0
   39.2060   33.6420   49.2680 H   0  0  0  0  0  0  0  0  0  0  0  0
   38.5160   33.3480   47.0210 H   0  0  0  0  0  0  0  0  0  0  0  0
   37.4350   29.8050   50.6960 C   0  0  0  0  0  0  0  0  0  0  0  0
   37.7150   30.2940   51.9560 F   0  0  0  0  0  0  0  0  0  0  0  0
   36.0100   29.6510   50.7000 F   0  0  0  0  0  0  0  0  0  0  0  0
   37.8940   28.5590   50.5760 F   0  0  0  0  0  0  0  0  0  0  0  0
   39.7220   31.9600   45.1110 S   0  0  0  0  0  0  0  0  0  0  0  0
   39.6540   33.4310   44.8930 O   0  0  0  0  0  0  0  0  0  0  0  0
   40.3040   31.5600   43.7570 O   0  0  0  0  0  0  0  0  0  0  0  0
   41.1420   31.2300   45.7200 C   0  0  0  0  0  0  0  0  0  0  0  0
   41.3850   30.2970   45.2220 H   0  0  0  0  0  0  0  0  0  0  0  0
  1 23  1  0  0  0  0
  1  2  1  0  0  0  0
  2 13  1  0  0  0  0
  3  2  2  0  0  0  0
  3  7  1  0  0  0  0
  4  3  1  0  0  0  0
  5  6  1  0  0  0  0
  5  4  2  0  0  0  0
  6  1  2  0  0  0  0
  8  4  1  0  0  0  0
  9  5  1  0  0  0  0
 10  6  1  0  0  0  0
 11 17  1  0  0  0  0
 11 16  1  0  0  0  0
 12 11  2  0  0  0  0
 13 12  1  0  0  0  0
 13 14  2  0  0  0  0
 14 15  1  0  0  0  0
 15 16  2  0  0  0  0
 15 19  1  0  0  0  0
 18 12  1  0  0  0  0
 19 21  1  0  0  0  0
 19 20  1  0  0  0  0
 22 19  1  0  0  0  0
 23 26  1  0  0  0  0
 24 23  2  0  0  0  0
 25 23  2  0  0  0  0
 27 26  1  0  0  0  0
M  END
>  <minimizedAffinity>
-5.83780813

>  <minimizedRMSD>
1.64569056

$$$$
