
 OpenBabel03262521543D

 32 33  0  0  1  0  0  0  0  0999 V2000
   33.0380   27.0870   48.1540 C   0  0  1  0  0  0  0  0  0  0  0  0
   33.5320   28.4680   48.5240 C   0  0  2  0  0  0  0  0  0  0  0  0
   33.5200   29.3020   47.2960 C   0  0  0  0  0  0  0  0  0  0  0  0
   33.0960   28.6150   46.1660 O   0  0  0  0  0  0  0  0  0  0  0  0
   31.7990   28.1060   46.3260 C   0  0  0  0  0  0  0  0  0  0  0  0
   31.6500   27.2760   47.5540 C   0  0  2  0  0  0  0  0  0  0  0  0
   32.9310   26.4660   49.0580 H   0  0  0  0  0  0  0  0  0  0  0  0
   32.8280   28.8790   49.2650 H   0  0  0  0  0  0  0  0  0  0  0  0
   32.8530   30.1900   47.3860 H   0  0  0  0  0  0  0  0  0  0  0  0
   34.5610   29.6350   47.0680 H   0  0  0  0  0  0  0  0  0  0  0  0
   31.6400   27.4360   45.4390 H   0  0  0  0  0  0  0  0  0  0  0  0
   31.1250   28.9710   46.2480 H   0  0  0  0  0  0  0  0  0  0  0  0
   31.1500   26.3010   47.3850 H   0  0  0  0  0  0  0  0  0  0  0  0
   33.8340   26.5130   47.1680 O   0  0  0  0  0  0  0  0  0  0  0  0
   34.2560   25.7160   47.6100 H   0  0  0  0  0  0  0  0  0  0  0  0
   35.1840   28.4070   49.2750 S   0  0  0  0  0  0  0  0  0  0  0  0
   35.4290   29.8520   50.3370 C   0  0  0  0  0  0  0  0  0  0  0  0
   34.8700   30.7400   49.9220 H   0  0  0  0  0  0  0  0  0  0  0  0
   34.9100   29.6330   51.2960 H   0  0  0  0  0  0  0  0  0  0  0  0
   37.1390   30.2080   50.6960 S   0  0  0  0  0  0  0  0  0  0  0  0
   37.8690   31.0330   49.3000 C   0  0  0  0  0  0  0  0  0  0  0  0
   38.2940   32.3180   49.5490 C   0  0  0  0  0  0  0  0  0  0  0  0
   38.8840   33.0480   48.5020 C   0  0  0  0  0  0  0  0  0  0  0  0
   39.0020   32.4330   47.2880 N   0  0  0  0  0  0  0  0  0  0  0  0
   38.5670   31.1700   47.1040 C   0  0  0  0  0  0  0  0  0  0  0  0
   38.0140   30.4900   48.0860 N   0  0  0  0  0  0  0  0  0  0  0  0
   38.2060   32.8150   50.5050 H   0  0  0  0  0  0  0  0  0  0  0  0
   39.2240   34.0530   48.6650 H   0  0  0  0  0  0  0  0  0  0  0  0
   38.6860   30.7270   46.1120 H   0  0  0  0  0  0  0  0  0  0  0  0
   30.9210   27.9410   48.5360 O   0  0  0  0  0  0  0  0  0  0  0  0
   30.0780   27.1170   49.2630 C   0  0  0  0  0  0  0  0  0  0  0  0
   29.9990   26.1660   48.6870 H   0  0  0  0  0  0  0  0  0  0  0  0
  1  2  1  0  0  0  0
  1  7  1  1  0  0  0
  2  8  1  1  0  0  0
  2 16  1  0  0  0  0
  3  9  1  0  0  0  0
  3  2  1  0  0  0  0
  4  5  1  0  0  0  0
  4  3  1  0  0  0  0
  5  6  1  0  0  0  0
  6 13  1  6  0  0  0
  6  1  1  0  0  0  0
  6 30  1  0  0  0  0
 10  3  1  0  0  0  0
 11  5  1  0  0  0  0
 12  5  1  0  0  0  0
 14 15  1  0  0  0  0
 14  1  1  0  0  0  0
 16 17  1  0  0  0  0
 17 20  1  0  0  0  0
 17 19  1  0  0  0  0
 18 17  1  0  0  0  0
 21 22  1  0  0  0  0
 21 20  1  0  0  0  0
 22 27  1  0  0  0  0
 23 28  1  0  0  0  0
 23 22  2  0  0  0  0
 24 23  1  0  0  0  0
 25 24  2  0  0  0  0
 25 26  1  0  0  0  0
 26 21  2  0  0  0  0
 29 25  1  0  0  0  0
 30 31  1  0  0  0  0
 32 31  1  0  0  0  0
M  END
>  <minimizedAffinity>
-4.15286589

>  <minimizedRMSD>
0.36991334

$$$$
