REMARK  Name = 
REMARK  4 active torsions:
REMARK  status: ('A' for Active; 'I' for Inactive)
REMARK    1  A    between atoms: C_1  and  C_8
REMARK    2  A    between atoms: C_4  and  O_13
REMARK    3  A    between atoms: O_13  and  C_14
REMARK    4  A    between atoms: N_17  and  C_27
REMARK                            x       y       z     vdW  Elec       q    Type
REMARK                         _______ _______ _______ _____ _____    ______ ____
ROOT
ATOM      1  C   UNL     1      33.840  28.782  48.279  0.00  0.00    +0.000 A 
ATOM      2  C   UNL     1      34.436  28.419  49.433  0.00  0.00    +0.000 A 
ATOM      3  C   UNL     1      35.711  28.791  49.809  0.00  0.00    +0.000 A 
ATOM      4  C   UNL     1      36.459  29.579  48.986  0.00  0.00    +0.000 A 
ATOM      5  C   UNL     1      35.849  29.958  47.790  0.00  0.00    +0.000 A 
ATOM      6  N   UNL     1      34.606  29.567  47.477  0.00  0.00    +0.000 NA
ATOM      7  H   UNL     1      33.914  27.793  50.146  0.00  0.00    +0.000 HD
ATOM      8  H   UNL     1      36.183  28.492  50.744  0.00  0.00    +0.000 HD
ATOM      9  H   UNL     1      36.408  30.589  47.099  0.00  0.00    +0.000 HD
ENDROOT
BRANCH   1  11
ATOM     10  C   UNL     1      31.633  27.657  48.700  0.00  0.00    +0.000 A 
ATOM     11  C   UNL     1      32.517  28.400  47.882  0.00  0.00    +0.000 A 
ATOM     12  C   UNL     1      32.034  28.760  46.631  0.00  0.00    +0.000 A 
ATOM     13  N   UNL     1      30.777  28.393  46.263  0.00  0.00    +0.000 NA
ATOM     14  C   UNL     1      29.977  27.676  47.102  0.00  0.00    +0.000 A 
ATOM     15  N   UNL     1      30.403  27.304  48.328  0.00  0.00    +0.000 NA
ATOM     16  H   UNL     1      31.976  27.362  49.676  0.00  0.00    +0.000 HD
ATOM     17  H   UNL     1      32.692  29.323  45.999  0.00  0.00    +0.000 HD
ATOM     18  H   UNL     1      29.033  27.511  46.581  0.00  0.00    +0.000 HD
ENDBRANCH   1  11
BRANCH   4  19
ATOM     19  O   UNL     1      37.757  30.041  49.214  0.00  0.00    +0.000 OA
BRANCH  19  20
ATOM     20  C   UNL     1      38.161  31.303  48.783  0.00  0.00    +0.000 A 
ATOM     21  C   UNL     1      37.876  32.332  49.675  0.00  0.00    +0.000 A 
ATOM     22  C   UNL     1      38.335  33.519  49.109  0.00  0.00    +0.000 A 
ATOM     23  N   UNL     1      38.867  33.180  47.926  0.00  0.00    +0.000 N 
ATOM     24  N   UNL     1      38.766  31.888  47.735  0.00  0.00    +0.000 NA
ATOM     25  H   UNL     1      37.401  32.407  50.660  0.00  0.00    +0.000 HD
ATOM     26  H   UNL     1      38.345  34.554  49.406  0.00  0.00    +0.000 HD
BRANCH  23  27
ATOM     27  C   UNL     1      39.507  33.929  46.861  0.00  0.00    +0.000 C 
ATOM     28  H   UNL     1      40.000  34.859  47.263  0.00  0.00    +0.000 HD
ENDBRANCH  23  27
ENDBRANCH  19  20
ENDBRANCH   4  19
TORSDOF 4
