
     RDKit          3D

 23 24  0  0  0  0  0  0  0  0999 V2000
   37.5572   31.6731   48.9419 C   0  0  0  0  0  0  0  0  0  0  0  0
   38.1900   32.7407   49.4941 C   0  0  0  0  0  0  0  0  0  0  0  0
   39.0687   33.5651   48.8263 C   0  0  0  0  0  0  0  0  0  0  0  0
   39.3517   33.3277   47.5151 C   0  0  0  0  0  0  0  0  0  0  0  0
   38.6995   32.2299   46.9513 C   0  0  0  0  0  0  0  0  0  0  0  0
   37.8443   31.4419   47.6323 N   0  0  0  0  0  0  0  0  0  0  0  0
   36.9560   30.1693   50.8745 C   0  0  0  0  0  0  0  0  0  0  0  0
   36.6325   30.8019   49.6506 C   0  0  0  0  0  0  0  0  0  0  0  0
   35.3871   30.5726   49.1101 C   0  0  0  0  0  0  0  0  0  0  0  0
   34.5223   29.7475   49.7764 N   0  0  0  0  0  0  0  0  0  0  0  0
   34.8660   29.1663   50.9341 C   0  0  0  0  0  0  0  0  0  0  0  0
   36.0856   29.3653   51.5040 N   0  0  0  0  0  0  0  0  0  0  0  0
   40.2060   34.0536   46.7003 O   0  0  0  0  0  0  0  0  0  0  0  0
   37.9993   32.9738   50.5371 H   0  0  0  0  0  0  0  0  0  0  0  0
   39.5597   34.4076   49.2858 H   0  0  0  0  0  0  0  0  0  0  0  0
   38.8045   31.8939   45.9234 H   0  0  0  0  0  0  0  0  0  0  0  0
   37.9431   30.4016   51.2243 H   0  0  0  0  0  0  0  0  0  0  0  0
   35.0357   31.0054   48.1795 H   0  0  0  0  0  0  0  0  0  0  0  0
   34.1365   28.5150   51.4258 H   0  0  0  0  0  0  0  0  0  0  0  0
   40.4798   33.7890   45.3568 C   0  0  0  0  0  0  0  0  0  0  0  0
   41.4997   33.3347   45.2146 H   0  0  0  0  0  0  0  0  0  0  0  0
   39.7995   33.0086   44.9066 H   0  0  0  0  0  0  0  0  0  0  0  0
   40.4659   34.7377   44.7898 H   0  0  0  0  0  0  0  0  0  0  0  0
  1  2  2  0
  1  8  1  0
  3  2  1  0
  4  3  2  0
  5  4  1  0
  5  6  2  0
  6  1  1  0
  7 12  2  0
  8  7  1  0
  9  8  2  0
  9 10  1  0
 10 11  2  0
 11 12  1  0
 13  4  1  0
  2 14  1  0
  3 15  1  0
  5 16  1  0
  7 17  1  0
  9 18  1  0
 11 19  1  0
 20 21  1  0
 20 22  1  0
 20 23  1  0
 13 20  1  0
M  ISO  7  14  14  15  14  16  14  17  14  18  14  19  14  21   8
M  END
>  <DihAtoms>  (1) 
3,12,19,20

>  <DihDeg>  (1) 
-150.52684828264546

$$$$
