
 OpenBabel03272510113D

 21 22  0  0  0  0  0  0  0  0999 V2000
   38.3590   25.3920   35.3900 C   0  0  0  0  0  0  0  0  0  0  0  0
   38.1530   26.6590   35.8340 C   0  0  0  0  0  0  0  0  0  0  0  0
   37.4910   27.6410   35.1310 C   0  0  0  0  0  0  0  0  0  0  0  0
   36.9890   27.3630   33.8950 C   0  0  0  0  0  0  0  0  0  0  0  0
   37.2020   26.0600   33.4420 C   0  0  0  0  0  0  0  0  0  0  0  0
   37.8550   25.1210   34.1550 N   0  0  0  0  0  0  0  0  0  0  0  0
   38.5330   26.9330   36.8140 H   0  0  0  0  0  0  0  0  0  0  0  0
   37.3400   28.6410   35.5040 H   0  0  0  0  0  0  0  0  0  0  0  0
   36.8730   25.6630   32.4850 H   0  0  0  0  0  0  0  0  0  0  0  0
   40.2340   23.7280   35.6540 C   0  0  0  0  0  0  0  0  0  0  0  0
   39.0630   24.3590   36.1330 C   0  0  0  0  0  0  0  0  0  0  0  0
   38.5680   23.9670   37.3580 C   0  0  0  0  0  0  0  0  0  0  0  0
   39.2290   22.9900   38.0520 N   0  0  0  0  0  0  0  0  0  0  0  0
   40.3370   22.4160   37.5630 C   0  0  0  0  0  0  0  0  0  0  0  0
   40.8600   22.7720   36.3580 N   0  0  0  0  0  0  0  0  0  0  0  0
   40.5500   24.0920   34.6960 H   0  0  0  0  0  0  0  0  0  0  0  0
   37.6790   24.3830   37.8200 H   0  0  0  0  0  0  0  0  0  0  0  0
   40.8270   21.6390   38.1600 H   0  0  0  0  0  0  0  0  0  0  0  0
   36.3010   28.2280   33.0590 O   0  0  0  0  0  0  0  0  0  0  0  0
   35.7500   27.9040   31.8180 C   0  0  0  0  0  2  0  0  0  0  0  0
   35.7270   28.7870   31.1210 H   0  0  0  0  0  0  0  0  0  0  0  0
  1  2  1  0  0  0  0
  1 11  1  0  0  0  0
  2  7  1  0  0  0  0
  3  8  1  0  0  0  0
  3  2  2  0  0  0  0
  4  3  1  0  0  0  0
  5  4  2  0  0  0  0
  5  6  1  0  0  0  0
  6  1  2  0  0  0  0
  9  5  1  0  0  0  0
 10 11  2  0  0  0  0
 10 15  1  0  0  0  0
 11 12  1  0  0  0  0
 12 17  1  0  0  0  0
 12 13  2  0  0  0  0
 14 13  1  0  0  0  0
 14 18  1  0  0  0  0
 15 14  2  0  0  0  0
 16 10  1  0  0  0  0
 19  4  1  0  0  0  0
 20 19  1  0  0  0  0
 21 20  1  0  0  0  0
M  END
>  <minimizedAffinity>
-4.02581835

$$$$

 OpenBabel03272510113D

 21 22  0  0  0  0  0  0  0  0999 V2000
   38.1090   25.4000   35.1870 C   0  0  0  0  0  0  0  0  0  0  0  0
   37.7380   26.6630   35.5230 C   0  0  0  0  0  0  0  0  0  0  0  0
   37.1420   27.5620   34.6650 C   0  0  0  0  0  0  0  0  0  0  0  0
   36.8880   27.1980   33.3780 C   0  0  0  0  0  0  0  0  0  0  0  0
   37.2700   25.9000   33.0360 C   0  0  0  0  0  0  0  0  0  0  0  0
   37.8510   25.0430   33.9000 N   0  0  0  0  0  0  0  0  0  0  0  0
   37.9180   27.0030   36.5380 H   0  0  0  0  0  0  0  0  0  0  0  0
   36.8570   28.5610   34.9550 H   0  0  0  0  0  0  0  0  0  0  0  0
   37.1440   25.4410   32.0590 H   0  0  0  0  0  0  0  0  0  0  0  0
   38.2190   24.1460   37.3720 C   0  0  0  0  0  0  0  0  0  0  0  0
   38.7410   24.4550   36.0940 C   0  0  0  0  0  0  0  0  0  0  0  0
   39.9060   23.8340   35.7000 C   0  0  0  0  0  0  0  0  0  0  0  0
   40.5030   22.9500   36.5590 N   0  0  0  0  0  0  0  0  0  0  0  0
   39.9760   22.6840   37.7620 C   0  0  0  0  0  0  0  0  0  0  0  0
   38.8270   23.2740   38.1910 N   0  0  0  0  0  0  0  0  0  0  0  0
   37.3120   24.6720   37.5970 H   0  0  0  0  0  0  0  0  0  0  0  0
   40.3930   23.9970   34.7450 H   0  0  0  0  0  0  0  0  0  0  0  0
   40.4940   21.9680   38.4090 H   0  0  0  0  0  0  0  0  0  0  0  0
   36.2990   27.9730   32.3910 O   0  0  0  0  0  0  0  0  0  0  0  0
   36.1440   27.6150   31.0510 C   0  0  0  0  0  2  0  0  0  0  0  0
   36.1490   28.5110   30.3700 H   0  0  0  0  0  0  0  0  0  0  0  0
  1  2  1  0  0  0  0
  1 11  1  0  0  0  0
  2  7  1  0  0  0  0
  3  8  1  0  0  0  0
  3  2  2  0  0  0  0
  4  3  1  0  0  0  0
  5  4  2  0  0  0  0
  5  6  1  0  0  0  0
  6  1  2  0  0  0  0
  9  5  1  0  0  0  0
 10 16  1  0  0  0  0
 10 15  1  0  0  0  0
 11 10  2  0  0  0  0
 12 11  1  0  0  0  0
 12 13  2  0  0  0  0
 13 14  1  0  0  0  0
 14 15  2  0  0  0  0
 14 18  1  0  0  0  0
 17 12  1  0  0  0  0
 19  4  1  0  0  0  0
 20 19  1  0  0  0  0
 21 20  1  0  0  0  0
M  END
>  <minimizedAffinity>
-4.0241251

$$$$

 OpenBabel03272510113D

 21 22  0  0  0  0  0  0  0  0999 V2000
   35.0980   30.1700   34.8580 C   0  0  0  0  0  0  0  0  0  0  0  0
   35.8820   31.0580   35.5240 C   0  0  0  0  0  0  0  0  0  0  0  0
   35.4180   32.0040   36.4110 C   0  0  0  0  0  0  0  0  0  0  0  0
   34.0830   32.0910   36.6680 C   0  0  0  0  0  0  0  0  0  0  0  0
   33.2810   31.1770   35.9820 C   0  0  0  0  0  0  0  0  0  0  0  0
   33.7660   30.2610   35.1200 N   0  0  0  0  0  0  0  0  0  0  0  0
   36.9540   31.0310   35.3540 H   0  0  0  0  0  0  0  0  0  0  0  0
   36.0600   32.7000   36.9280 H   0  0  0  0  0  0  0  0  0  0  0  0
   32.2000   31.1000   36.0650 H   0  0  0  0  0  0  0  0  0  0  0  0
   35.1980   29.1370   32.5600 C   0  0  0  0  0  0  0  0  0  0  0  0
   35.5900   29.1740   33.9190 C   0  0  0  0  0  0  0  0  0  0  0  0
   36.4740   28.2170   34.3670 C   0  0  0  0  0  0  0  0  0  0  0  0
   36.9290   27.2770   33.4820 N   0  0  0  0  0  0  0  0  0  0  0  0
   36.5340   27.2760   32.2010 C   0  0  0  0  0  0  0  0  0  0  0  0
   35.6640   28.2030   31.7170 N   0  0  0  0  0  0  0  0  0  0  0  0
   34.5110   29.9170   32.2960 H   0  0  0  0  0  0  0  0  0  0  0  0
   36.8390   28.1510   35.3860 H   0  0  0  0  0  0  0  0  0  0  0  0
   36.9300   26.5020   31.5360 H   0  0  0  0  0  0  0  0  0  0  0  0
   33.4530   32.9780   37.5270 O   0  0  0  0  0  0  0  0  0  0  0  0
   33.9540   34.2130   37.9410 C   0  0  0  0  0  2  0  0  0  0  0  0
   33.5880   34.4970   38.9660 H   0  0  0  0  0  0  0  0  0  0  0  0
  1  6  2  0  0  0  0
  1  2  1  0  0  0  0
  2  3  2  0  0  0  0
  3  4  1  0  0  0  0
  3  8  1  0  0  0  0
  4 19  1  0  0  0  0
  5  9  1  0  0  0  0
  5  4  2  0  0  0  0
  6  5  1  0  0  0  0
  7  2  1  0  0  0  0
 10 11  1  0  0  0  0
 11 12  2  0  0  0  0
 11  1  1  0  0  0  0
 12 17  1  0  0  0  0
 13 12  1  0  0  0  0
 14 13  2  0  0  0  0
 15 14  1  0  0  0  0
 15 10  2  0  0  0  0
 16 10  1  0  0  0  0
 18 14  1  0  0  0  0
 19 20  1  0  0  0  0
 20 21  1  0  0  0  0
M  END
>  <minimizedAffinity>
-3.90721083

$$$$

 OpenBabel03272510113D

 21 22  0  0  0  0  0  0  0  0999 V2000
   37.6700   26.8820   33.9250 C   0  0  0  0  0  0  0  0  0  0  0  0
   37.9340   27.3680   35.1660 C   0  0  0  0  0  0  0  0  0  0  0  0
   38.2380   26.5940   36.2640 C   0  0  0  0  0  0  0  0  0  0  0  0
   38.2890   25.2390   36.1410 C   0  0  0  0  0  0  0  0  0  0  0  0
   38.0170   24.7430   34.8650 C   0  0  0  0  0  0  0  0  0  0  0  0
   37.7230   25.5270   33.8090 N   0  0  0  0  0  0  0  0  0  0  0  0
   37.9070   28.4430   35.3180 H   0  0  0  0  0  0  0  0  0  0  0  0
   38.4440   27.0040   37.2410 H   0  0  0  0  0  0  0  0  0  0  0  0
   38.0130   23.6940   34.5830 H   0  0  0  0  0  0  0  0  0  0  0  0
   36.1980   28.5260   32.7060 C   0  0  0  0  0  0  0  0  0  0  0  0
   37.3450   27.7010   32.7680 C   0  0  0  0  0  0  0  0  0  0  0  0
   38.1850   27.6730   31.6760 C   0  0  0  0  0  0  0  0  0  0  0  0
   37.8720   28.4390   30.5850 N   0  0  0  0  0  0  0  0  0  0  0  0
   36.7750   29.2090   30.5660 C   0  0  0  0  0  0  0  0  0  0  0  0
   35.9190   29.2670   31.6230 N   0  0  0  0  0  0  0  0  0  0  0  0
   35.6010   28.4890   33.5970 H   0  0  0  0  0  0  0  0  0  0  0  0
   39.0890   27.0770   31.6150 H   0  0  0  0  0  0  0  0  0  0  0  0
   36.5720   29.8030   29.6690 H   0  0  0  0  0  0  0  0  0  0  0  0
   38.5780   24.3200   37.1380 O   0  0  0  0  0  0  0  0  0  0  0  0
   38.0210   24.2960   38.4170 C   0  0  0  0  0  2  0  0  0  0  0  0
   38.7260   23.8600   39.1780 H   0  0  0  0  0  0  0  0  0  0  0  0
  1  2  1  0  0  0  0
  2  7  1  0  0  0  0
  2  3  2  0  0  0  0
  3  8  1  0  0  0  0
  4  3  1  0  0  0  0
  4 19  1  0  0  0  0
  5  4  2  0  0  0  0
  6  1  2  0  0  0  0
  6  5  1  0  0  0  0
  9  5  1  0  0  0  0
 10 11  1  0  0  0  0
 10 16  1  0  0  0  0
 11  1  1  0  0  0  0
 12 11  2  0  0  0  0
 13 12  1  0  0  0  0
 14 13  2  0  0  0  0
 14 15  1  0  0  0  0
 15 10  2  0  0  0  0
 17 12  1  0  0  0  0
 18 14  1  0  0  0  0
 19 20  1  0  0  0  0
 20 21  1  0  0  0  0
M  END
>  <minimizedAffinity>
-3.8458941

$$$$

 OpenBabel03272510113D

 21 22  0  0  0  0  0  0  0  0999 V2000
   37.2340   27.2430   34.0050 C   0  0  0  0  0  0  0  0  0  0  0  0
   37.7070   27.5460   35.2410 C   0  0  0  0  0  0  0  0  0  0  0  0
   38.3060   26.6470   36.0960 C   0  0  0  0  0  0  0  0  0  0  0  0
   38.4550   25.3490   35.7130 C   0  0  0  0  0  0  0  0  0  0  0  0
   37.9680   25.0400   34.4420 C   0  0  0  0  0  0  0  0  0  0  0  0
   37.3860   25.9440   33.6280 N   0  0  0  0  0  0  0  0  0  0  0  0
   37.6130   28.5680   35.5950 H   0  0  0  0  0  0  0  0  0  0  0  0
   38.6740   26.9120   37.0750 H   0  0  0  0  0  0  0  0  0  0  0  0
   38.0030   24.0600   33.9740 H   0  0  0  0  0  0  0  0  0  0  0  0
   36.8180   28.1980   31.7090 C   0  0  0  0  0  0  0  0  0  0  0  0
   36.5970   28.1930   33.1060 C   0  0  0  0  0  0  0  0  0  0  0  0
   35.7440   29.1380   33.6330 C   0  0  0  0  0  0  0  0  0  0  0  0
   35.1520   30.0350   32.7850 N   0  0  0  0  0  0  0  0  0  0  0  0
   35.3870   30.0070   31.4660 C   0  0  0  0  0  0  0  0  0  0  0  0
   36.2220   29.0910   30.9040 N   0  0  0  0  0  0  0  0  0  0  0  0
   37.4930   27.4310   31.3840 H   0  0  0  0  0  0  0  0  0  0  0  0
   35.5050   29.2250   34.6870 H   0  0  0  0  0  0  0  0  0  0  0  0
   34.8870   30.7470   30.8330 H   0  0  0  0  0  0  0  0  0  0  0  0
   39.0320   24.3230   36.4450 O   0  0  0  0  0  0  0  0  0  0  0  0
   38.3600   23.4460   37.2980 C   0  0  0  0  0  2  0  0  0  0  0  0
   39.0160   23.0860   38.1380 H   0  0  0  0  0  0  0  0  0  0  0  0
  1  2  1  0  0  0  0
  2  7  1  0  0  0  0
  2  3  2  0  0  0  0
  3  8  1  0  0  0  0
  4  3  1  0  0  0  0
  4 19  1  0  0  0  0
  5  4  2  0  0  0  0
  6  1  2  0  0  0  0
  6  5  1  0  0  0  0
  9  5  1  0  0  0  0
 10 11  1  0  0  0  0
 11 12  2  0  0  0  0
 11  1  1  0  0  0  0
 12 17  1  0  0  0  0
 13 12  1  0  0  0  0
 14 13  2  0  0  0  0
 15 14  1  0  0  0  0
 15 10  2  0  0  0  0
 16 10  1  0  0  0  0
 18 14  1  0  0  0  0
 19 20  1  0  0  0  0
 20 21  1  0  0  0  0
M  END
>  <minimizedAffinity>
-3.83207774

$$$$

 OpenBabel03272510113D

 21 22  0  0  0  0  0  0  0  0999 V2000
   38.3870   25.0730   35.2550 C   0  0  0  0  0  0  0  0  0  0  0  0
   39.6460   24.6530   34.9640 C   0  0  0  0  0  0  0  0  0  0  0  0
   40.3540   23.7250   35.6960 C   0  0  0  0  0  0  0  0  0  0  0  0
   39.7880   23.1610   36.7990 C   0  0  0  0  0  0  0  0  0  0  0  0
   38.4940   23.5950   37.0950 C   0  0  0  0  0  0  0  0  0  0  0  0
   37.8270   24.5050   36.3580 N   0  0  0  0  0  0  0  0  0  0  0  0
   40.1440   25.0710   34.0940 H   0  0  0  0  0  0  0  0  0  0  0  0
   41.3540   23.4070   35.4450 H   0  0  0  0  0  0  0  0  0  0  0  0
   37.8910   23.2540   37.9320 H   0  0  0  0  0  0  0  0  0  0  0  0
   37.2450   25.8420   33.1430 C   0  0  0  0  0  0  0  0  0  0  0  0
   37.6440   26.0560   34.4830 C   0  0  0  0  0  0  0  0  0  0  0  0
   37.3170   27.2560   35.0750 C   0  0  0  0  0  0  0  0  0  0  0  0
   36.6230   28.1830   34.3440 N   0  0  0  0  0  0  0  0  0  0  0  0
   36.2620   27.9410   33.0760 C   0  0  0  0  0  0  0  0  0  0  0  0
   36.5650   26.7690   32.4530 N   0  0  0  0  0  0  0  0  0  0  0  0
   37.5390   24.8830   32.7620 H   0  0  0  0  0  0  0  0  0  0  0  0
   37.5730   27.5260   36.0940 H   0  0  0  0  0  0  0  0  0  0  0  0
   35.7080   28.7160   32.5360 H   0  0  0  0  0  0  0  0  0  0  0  0
   40.3560   22.2180   37.6400 O   0  0  0  0  0  0  0  0  0  0  0  0
   41.4950   21.4580   37.3700 C   0  0  0  0  0  2  0  0  0  0  0  0
   41.4690   20.4580   37.8850 H   0  0  0  0  0  0  0  0  0  0  0  0
  1  6  1  0  0  0  0
  2  1  2  0  0  0  0
  2  3  1  0  0  0  0
  3  4  2  0  0  0  0
  4  5  1  0  0  0  0
  4 19  1  0  0  0  0
  5  9  1  0  0  0  0
  6  5  2  0  0  0  0
  7  2  1  0  0  0  0
  8  3  1  0  0  0  0
 10 11  1  0  0  0  0
 11 12  2  0  0  0  0
 11  1  1  0  0  0  0
 12 17  1  0  0  0  0
 13 12  1  0  0  0  0
 14 13  2  0  0  0  0
 15 14  1  0  0  0  0
 15 10  2  0  0  0  0
 16 10  1  0  0  0  0
 18 14  1  0  0  0  0
 20 19  1  0  0  0  0
 20 21  1  0  0  0  0
M  END
>  <minimizedAffinity>
-3.81771898

$$$$

 OpenBabel03272510113D

 21 22  0  0  0  0  0  0  0  0999 V2000
   37.9580   25.5240   35.0620 C   0  0  0  0  0  0  0  0  0  0  0  0
   37.7640   25.2550   33.7450 C   0  0  0  0  0  0  0  0  0  0  0  0
   37.2030   26.1290   32.8390 C   0  0  0  0  0  0  0  0  0  0  0  0
   36.7990   27.3620   33.2530 C   0  0  0  0  0  0  0  0  0  0  0  0
   37.0000   27.6350   34.6070 C   0  0  0  0  0  0  0  0  0  0  0  0
   37.5530   26.7580   35.4690 N   0  0  0  0  0  0  0  0  0  0  0  0
   38.0690   24.2860   33.3630 H   0  0  0  0  0  0  0  0  0  0  0  0
   37.0590   25.8930   31.7970 H   0  0  0  0  0  0  0  0  0  0  0  0
   36.7410   28.5630   35.1090 H   0  0  0  0  0  0  0  0  0  0  0  0
   37.9820   24.3390   37.2880 C   0  0  0  0  0  0  0  0  0  0  0  0
   38.5470   24.5980   36.0170 C   0  0  0  0  0  0  0  0  0  0  0  0
   39.7120   23.9450   35.6780 C   0  0  0  0  0  0  0  0  0  0  0  0
   40.2680   23.0800   36.5820 N   0  0  0  0  0  0  0  0  0  0  0  0
   39.7010   22.8610   37.7770 C   0  0  0  0  0  0  0  0  0  0  0  0
   38.5500   23.4840   38.1520 N   0  0  0  0  0  0  0  0  0  0  0  0
   37.0780   24.8870   37.4690 H   0  0  0  0  0  0  0  0  0  0  0  0
   40.2300   24.0700   34.7340 H   0  0  0  0  0  0  0  0  0  0  0  0
   40.1860   22.1580   38.4610 H   0  0  0  0  0  0  0  0  0  0  0  0
   36.2200   28.3550   32.4790 O   0  0  0  0  0  0  0  0  0  0  0  0
   34.9960   28.9780   32.7260 C   0  0  0  0  0  2  0  0  0  0  0  0
   34.4950   29.3190   31.7780 H   0  0  0  0  0  0  0  0  0  0  0  0
  1  6  1  0  0  0  0
  1 11  1  0  0  0  0
  2  1  2  0  0  0  0
  3  4  2  0  0  0  0
  3  2  1  0  0  0  0
  4  5  1  0  0  0  0
  5  9  1  0  0  0  0
  5  6  2  0  0  0  0
  7  2  1  0  0  0  0
  8  3  1  0  0  0  0
 10 16  1  0  0  0  0
 10 15  1  0  0  0  0
 11 10  2  0  0  0  0
 12 11  1  0  0  0  0
 12 13  2  0  0  0  0
 13 14  1  0  0  0  0
 14 15  2  0  0  0  0
 14 18  1  0  0  0  0
 17 12  1  0  0  0  0
 19 20  1  0  0  0  0
 19  4  1  0  0  0  0
 21 20  1  0  0  0  0
M  END
>  <minimizedAffinity>
-3.8051641

$$$$

 OpenBabel03272510113D

 21 22  0  0  0  0  0  0  0  0999 V2000
   35.1000   30.1100   34.8540 C   0  0  0  0  0  0  0  0  0  0  0  0
   35.8730   31.0020   35.5270 C   0  0  0  0  0  0  0  0  0  0  0  0
   35.3980   31.9400   36.4170 C   0  0  0  0  0  0  0  0  0  0  0  0
   34.0610   32.0120   36.6710 C   0  0  0  0  0  0  0  0  0  0  0  0
   33.2700   31.0940   35.9780 C   0  0  0  0  0  0  0  0  0  0  0  0
   33.7660   30.1880   35.1120 N   0  0  0  0  0  0  0  0  0  0  0  0
   36.9460   30.9870   35.3600 H   0  0  0  0  0  0  0  0  0  0  0  0
   36.0320   32.6390   36.9400 H   0  0  0  0  0  0  0  0  0  0  0  0
   32.1900   31.0070   36.0560 H   0  0  0  0  0  0  0  0  0  0  0  0
   36.5340   28.1210   34.2700 C   0  0  0  0  0  0  0  0  0  0  0  0
   35.6040   29.1250   33.9110 C   0  0  0  0  0  0  0  0  0  0  0  0
   35.1670   29.1680   32.6060 C   0  0  0  0  0  0  0  0  0  0  0  0
   35.6490   28.2430   31.7190 N   0  0  0  0  0  0  0  0  0  0  0  0
   36.5290   27.3070   32.0990 C   0  0  0  0  0  0  0  0  0  0  0  0
   36.9880   27.2270   33.3780 N   0  0  0  0  0  0  0  0  0  0  0  0
   36.8210   28.1590   35.3030 H   0  0  0  0  0  0  0  0  0  0  0  0
   34.4570   29.8940   32.2220 H   0  0  0  0  0  0  0  0  0  0  0  0
   36.8820   26.5900   31.3490 H   0  0  0  0  0  0  0  0  0  0  0  0
   33.4210   32.8890   37.5320 O   0  0  0  0  0  0  0  0  0  0  0  0
   32.7570   34.0610   37.1650 C   0  0  0  0  0  2  0  0  0  0  0  0
   32.7870   34.8370   37.9790 H   0  0  0  0  0  0  0  0  0  0  0  0
  1  6  2  0  0  0  0
  1  2  1  0  0  0  0
  2  3  2  0  0  0  0
  3  4  1  0  0  0  0
  3  8  1  0  0  0  0
  4 19  1  0  0  0  0
  5  9  1  0  0  0  0
  5  4  2  0  0  0  0
  6  5  1  0  0  0  0
  7  2  1  0  0  0  0
 10 16  1  0  0  0  0
 11 10  1  0  0  0  0
 11  1  1  0  0  0  0
 12 11  2  0  0  0  0
 13 14  2  0  0  0  0
 13 12  1  0  0  0  0
 14 15  1  0  0  0  0
 15 10  2  0  0  0  0
 17 12  1  0  0  0  0
 18 14  1  0  0  0  0
 20 19  1  0  0  0  0
 20 21  1  0  0  0  0
M  END
>  <minimizedAffinity>
-3.77094984

$$$$

 OpenBabel03272510113D

 21 22  0  0  0  0  0  0  0  0999 V2000
   35.6080   29.2090   34.0390 C   0  0  0  0  0  0  0  0  0  0  0  0
   36.4960   28.2460   34.3960 C   0  0  0  0  0  0  0  0  0  0  0  0
   36.9670   27.2610   33.5560 C   0  0  0  0  0  0  0  0  0  0  0  0
   36.5370   27.2130   32.2650 C   0  0  0  0  0  0  0  0  0  0  0  0
   35.6240   28.2040   31.9010 C   0  0  0  0  0  0  0  0  0  0  0  0
   35.1820   29.1560   32.7480 N   0  0  0  0  0  0  0  0  0  0  0  0
   36.8710   28.2390   35.4150 H   0  0  0  0  0  0  0  0  0  0  0  0
   37.6740   26.5050   33.8630 H   0  0  0  0  0  0  0  0  0  0  0  0
   35.1770   28.3210   30.9180 H   0  0  0  0  0  0  0  0  0  0  0  0
   35.9590   31.1060   35.6620 C   0  0  0  0  0  0  0  0  0  0  0  0
   35.1090   30.2450   34.9300 C   0  0  0  0  0  0  0  0  0  0  0  0
   33.7470   30.3970   35.0760 C   0  0  0  0  0  0  0  0  0  0  0  0
   33.2810   31.3690   35.9210 N   0  0  0  0  0  0  0  0  0  0  0  0
   34.1200   32.1650   36.5970 C   0  0  0  0  0  0  0  0  0  0  0  0
   35.4710   32.0500   36.4820 N   0  0  0  0  0  0  0  0  0  0  0  0
   37.0010   30.9210   35.4890 H   0  0  0  0  0  0  0  0  0  0  0  0
   33.0060   29.7930   34.5650 H   0  0  0  0  0  0  0  0  0  0  0  0
   33.6940   32.9270   37.2590 H   0  0  0  0  0  0  0  0  0  0  0  0
   36.9080   26.2960   31.2940 O   0  0  0  0  0  0  0  0  0  0  0  0
   36.4040   25.0020   31.1530 C   0  0  0  0  0  2  0  0  0  0  0  0
   37.1580   24.3010   30.7000 H   0  0  0  0  0  0  0  0  0  0  0  0
  1  2  1  0  0  0  0
  1 11  1  0  0  0  0
  2  7  1  0  0  0  0
  3  8  1  0  0  0  0
  3  2  2  0  0  0  0
  4  3  1  0  0  0  0
  5  4  2  0  0  0  0
  5  6  1  0  0  0  0
  6  1  2  0  0  0  0
  9  5  1  0  0  0  0
 10 15  1  0  0  0  0
 11 12  1  0  0  0  0
 11 10  2  0  0  0  0
 12 13  2  0  0  0  0
 13 14  1  0  0  0  0
 14 18  1  0  0  0  0
 15 14  2  0  0  0  0
 16 10  1  0  0  0  0
 17 12  1  0  0  0  0
 19  4  1  0  0  0  0
 20 19  1  0  0  0  0
 21 20  1  0  0  0  0
M  END
>  <minimizedAffinity>
-3.70997477

$$$$
