
 OpenBabel03272510103D

 21 22  0  0  0  0  0  0  0  0999 V2000
   37.5360   31.4020   48.7190 C   0  0  0  0  0  0  0  0  0  0  0  0
   38.1820   32.5260   49.1270 C   0  0  0  0  0  0  0  0  0  0  0  0
   39.0680   33.2470   48.3560 C   0  0  0  0  0  0  0  0  0  0  0  0
   39.3440   32.8390   47.0860 C   0  0  0  0  0  0  0  0  0  0  0  0
   38.6780   31.6840   46.6700 C   0  0  0  0  0  0  0  0  0  0  0  0
   37.8160   31.0000   47.4490 N   0  0  0  0  0  0  0  0  0  0  0  0
   37.9970   32.8940   50.1310 H   0  0  0  0  0  0  0  0  0  0  0  0
   39.5690   34.1370   48.7020 H   0  0  0  0  0  0  0  0  0  0  0  0
   38.7760   31.2170   45.6940 H   0  0  0  0  0  0  0  0  0  0  0  0
   36.9610   30.0710   50.7810 C   0  0  0  0  0  0  0  0  0  0  0  0
   36.6050   30.6400   49.5360 C   0  0  0  0  0  0  0  0  0  0  0  0
   35.3180   30.4550   49.0820 C   0  0  0  0  0  0  0  0  0  0  0  0
   34.4460   29.7320   49.8500 N   0  0  0  0  0  0  0  0  0  0  0  0
   34.8220   29.2080   51.0250 C   0  0  0  0  0  0  0  0  0  0  0  0
   36.0840   29.3670   51.5120 N   0  0  0  0  0  0  0  0  0  0  0  0
   37.9790   30.2630   51.0590 H   0  0  0  0  0  0  0  0  0  0  0  0
   34.9390   30.8460   48.1430 H   0  0  0  0  0  0  0  0  0  0  0  0
   34.0850   28.6390   51.6000 H   0  0  0  0  0  0  0  0  0  0  0  0
   40.2030   33.4440   46.1830 O   0  0  0  0  0  0  0  0  0  0  0  0
   40.0330   33.4940   44.7980 C   0  0  0  0  0  2  0  0  0  0  0  0
   40.2290   34.5230   44.3850 H   0  0  0  0  0  0  0  0  0  0  0  0
  1  2  1  0  0  0  0
  1 11  1  0  0  0  0
  2  7  1  0  0  0  0
  3  8  1  0  0  0  0
  3  2  2  0  0  0  0
  4  3  1  0  0  0  0
  5  4  2  0  0  0  0
  5  6  1  0  0  0  0
  6  1  2  0  0  0  0
  9  5  1  0  0  0  0
 10 16  1  0  0  0  0
 10 15  1  0  0  0  0
 11 10  2  0  0  0  0
 12 11  1  0  0  0  0
 12 13  2  0  0  0  0
 13 14  1  0  0  0  0
 14 15  2  0  0  0  0
 14 18  1  0  0  0  0
 17 12  1  0  0  0  0
 19  4  1  0  0  0  0
 20 19  1  0  0  0  0
 21 20  1  0  0  0  0
M  END
>  <minimizedAffinity>
-4.73592091

>  <minimizedRMSD>
0.462699592

$$$$
