REMARK  Name = 
REMARK  3 active torsions:
REMARK  status: ('A' for Active; 'I' for Inactive)
REMARK    1  A    between atoms: C_1  and  C_8
REMARK    2  A    between atoms: C_4  and  O_13
REMARK    3  A    between atoms: O_13  and  C_20
REMARK                            x       y       z     vdW  Elec       q    Type
REMARK                         _______ _______ _______ _____ _____    ______ ____
ROOT
ATOM      1  C   UNL     1      37.557  31.673  48.942  0.00  0.00    +0.000 A 
ATOM      2  C   UNL     1      38.190  32.741  49.494  0.00  0.00    +0.000 A 
ATOM      3  C   UNL     1      39.069  33.565  48.826  0.00  0.00    +0.000 A 
ATOM      4  C   UNL     1      39.352  33.328  47.515  0.00  0.00    +0.000 A 
ATOM      5  C   UNL     1      38.700  32.230  46.951  0.00  0.00    +0.000 A 
ATOM      6  N   UNL     1      37.844  31.442  47.632  0.00  0.00    +0.000 NA
ATOM      7  H   UNL     1      37.999  32.974  50.537  0.00  0.00    +0.000 HD
ATOM      8  H   UNL     1      39.560  34.408  49.286  0.00  0.00    +0.000 HD
ATOM      9  H   UNL     1      38.804  31.894  45.923  0.00  0.00    +0.000 HD
ENDROOT
BRANCH   1  11
ATOM     10  C   UNL     1      36.956  30.169  50.874  0.00  0.00    +0.000 A 
ATOM     11  C   UNL     1      36.633  30.802  49.651  0.00  0.00    +0.000 A 
ATOM     12  C   UNL     1      35.387  30.573  49.110  0.00  0.00    +0.000 A 
ATOM     13  N   UNL     1      34.522  29.747  49.776  0.00  0.00    +0.000 NA
ATOM     14  C   UNL     1      34.866  29.166  50.934  0.00  0.00    +0.000 A 
ATOM     15  N   UNL     1      36.086  29.365  51.504  0.00  0.00    +0.000 NA
ATOM     16  H   UNL     1      37.943  30.402  51.224  0.00  0.00    +0.000 HD
ATOM     17  H   UNL     1      35.036  31.005  48.179  0.00  0.00    +0.000 HD
ATOM     18  H   UNL     1      34.136  28.515  51.426  0.00  0.00    +0.000 HD
ENDBRANCH   1  11
BRANCH   4  19
ATOM     19  O   UNL     1      40.206  34.054  46.700  0.00  0.00    +0.000 OA
BRANCH  19  20
ATOM     20  C   UNL     1      40.480  33.789  45.357  0.00  0.00    +0.000 C 
ATOM     21  H   UNL     1      40.190  34.648  44.689  0.00  0.00    +0.000 HD
ENDBRANCH  19  20
ENDBRANCH   4  19
TORSDOF 3
