
 OpenBabel03272510233D

 25 27  0  0  0  0  0  0  0  0999 V2000
   36.6150   30.4290   47.0170 C   0  0  0  0  0  0  0  0  0  0  0  0
   37.3150   30.9070   48.1200 C   0  0  0  0  0  0  0  0  0  0  0  0
   38.3230   31.8320   47.9690 C   0  0  0  0  0  0  0  0  0  0  0  0
   38.5960   32.2530   46.6730 C   0  0  0  0  0  0  0  0  0  0  0  0
   39.5370   33.1530   46.2570 N   0  0  0  0  0  0  0  0  0  0  0  0
   39.4300   33.2390   44.9180 C   0  0  0  0  0  0  0  0  0  0  0  0
   38.4700   32.4390   44.4790 N   0  0  0  0  0  0  0  0  0  0  0  0
   37.9240   31.8050   45.5400 C   0  0  0  0  0  0  0  0  0  0  0  0
   36.9190   30.8760   45.7380 C   0  0  0  0  0  0  0  0  0  0  0  0
   35.8080   29.6920   47.1220 H   0  0  0  0  0  0  0  0  0  0  0  0
   38.8670   32.2060   48.8080 H   0  0  0  0  0  0  0  0  0  0  0  0
   40.2050   33.6640   46.9070 H   0  0  0  0  0  0  0  0  0  0  0  0
   36.3850   30.5150   44.8690 H   0  0  0  0  0  0  0  0  0  0  0  0
   37.2460   29.9440   51.7610 C   0  0  0  0  0  0  0  0  0  0  0  0
   37.7170   30.4820   50.5660 C   0  0  0  0  0  0  0  0  0  0  0  0
   36.9300   30.3850   49.4230 C   0  0  0  0  0  0  0  0  0  0  0  0
   35.7200   29.7590   49.5350 N   0  0  0  0  0  0  0  0  0  0  0  0
   35.2900   29.2460   50.7140 C   0  0  0  0  0  0  0  0  0  0  0  0
   36.0330   29.3350   51.8020 N   0  0  0  0  0  0  0  0  0  0  0  0
   37.8640   30.0250   52.6370 H   0  0  0  0  0  0  0  0  0  0  0  0
   38.6850   30.9830   50.4710 H   0  0  0  0  0  0  0  0  0  0  0  0
   34.3340   28.7500   50.8120 H   0  0  0  0  0  0  0  0  0  0  0  0
   40.2710   34.0910   44.2030 O   0  0  0  0  0  0  0  0  0  0  0  0
   39.8870   34.5580   42.9220 C   0  0  0  0  0  2  0  0  0  0  0  0
   39.1930   35.4170   42.9660 H   0  0  0  0  0  0  0  0  0  0  0  0
  1 10  1  0  0  0  0
  1  2  1  0  0  0  0
  2 16  1  0  0  0  0
  3  2  2  0  0  0  0
  3 11  1  0  0  0  0
  4  3  1  0  0  0  0
  5  4  1  0  0  0  0
  5 12  1  0  0  0  0
  6  5  1  0  0  0  0
  7  6  2  0  0  0  0
  7  8  1  0  0  0  0
  8  9  1  0  0  0  0
  8  4  2  0  0  0  0
  9  1  2  0  0  0  0
 13  9  1  0  0  0  0
 14 19  1  0  0  0  0
 14 20  1  0  0  0  0
 15 14  2  0  0  0  0
 16 17  2  0  0  0  0
 16 15  1  0  0  0  0
 17 18  1  0  0  0  0
 18 22  1  0  0  0  0
 18 19  2  0  0  0  0
 21 15  1  0  0  0  0
 23  6  1  0  0  0  0
 24 25  1  0  0  0  0
 24 23  1  0  0  0  0
M  END
>  <minimizedAffinity>
-4.7772274

>  <minimizedRMSD>
0.295405328

$$$$
