
 OpenBabel03262522203D

 12 12  0  0  0  0  0  0  0  0999 V2000
   37.2610   30.1930   51.2000 C   0  0  0  0  0  0  0  0  0  0  0  0
   37.3610   31.0250   50.0470 C   0  0  0  0  0  0  0  0  0  0  0  0
   36.3090   31.0100   49.1480 C   0  0  0  0  0  0  0  0  0  0  0  0
   35.2470   30.2210   49.3920 N   0  0  0  0  0  0  0  0  0  0  0  0
   35.1820   29.4410   50.4980 C   0  0  0  0  0  0  0  0  0  0  0  0
   36.1830   29.4210   51.4060 N   0  0  0  0  0  0  0  0  0  0  0  0
   38.0550   30.1640   51.9410 H   0  0  0  0  0  0  0  0  0  0  0  0
   36.4450   31.6450   48.3170 H   0  0  0  0  0  0  0  0  0  0  0  0
   34.3050   28.8040   50.6800 H   0  0  0  0  0  0  0  0  0  0  0  0
   38.5260   31.7540   49.9810 O   0  0  0  0  0  0  0  0  0  0  0  0
   38.5770   32.9830   49.3190 C   0  0  0  0  0  0  0  0  0  0  0  0
   39.2650   32.9290   48.4480 H   0  0  0  0  0  0  0  0  0  0  0  0
  1  6  1  0  0  0  0
  1  7  1  0  0  0  0
  2  1  2  0  0  0  0
  3  4  2  0  0  0  0
  3  2  1  0  0  0  0
  4  5  1  0  0  0  0
  5  9  1  0  0  0  0
  5  6  2  0  0  0  0
  8  3  1  0  0  0  0
 10  2  1  0  0  0  0
 11 10  1  0  0  0  0
 12 11  1  0  0  0  0
M  END
>  <minimizedAffinity>
-3.1094079

>  <minimizedRMSD>
1.11650836

$$$$
