
 OpenBabel03272509443D

 12 12  0  0  0  0  0  0  0  0999 V2000
   38.2560   32.9190   49.3640 C   0  0  0  0  0  0  0  0  0  0  0  0
   38.8570   32.7380   48.1140 C   0  0  0  0  0  0  0  0  0  0  0  0
   38.3490   31.7740   47.2310 C   0  0  0  0  0  0  0  0  0  0  0  0
   37.2680   31.0540   47.6630 N   0  0  0  0  0  0  0  0  0  0  0  0
   36.7020   31.2420   48.8710 C   0  0  0  0  0  0  0  0  0  0  0  0
   37.1970   32.1790   49.7280 N   0  0  0  0  0  0  0  0  0  0  0  0
   38.5990   33.6470   50.0920 H   0  0  0  0  0  0  0  0  0  0  0  0
   39.7240   33.3670   47.8570 H   0  0  0  0  0  0  0  0  0  0  0  0
   38.8070   31.6330   46.2740 H   0  0  0  0  0  0  0  0  0  0  0  0
   35.6300   30.4080   49.0930 O   0  0  0  0  0  0  0  0  0  0  0  0
   34.6950   30.2100   48.0450 C   0  0  0  0  0  0  0  0  0  0  0  0
   35.0290   30.7060   47.1140 H   0  0  0  0  0  0  0  0  0  0  0  0
  1  6  1  0  0  0  0
  1  7  1  0  0  0  0
  2  1  2  0  0  0  0
  3  4  2  0  0  0  0
  3  2  1  0  0  0  0
  4  5  1  0  0  0  0
  5 10  1  0  0  0  0
  5  6  2  0  0  0  0
  8  2  1  0  0  0  0
  9  3  1  0  0  0  0
 11 10  1  0  0  0  0
 12 11  1  0  0  0  0
M  END
>  <minimizedAffinity>
-2.93713689

>  <minimizedRMSD>
2.90441275

$$$$
