
 OpenBabel03272504183D

 19 19  0  0  0  0  0  0  0  0999 V2000
   38.4560   25.5220   35.0670 C   0  0  0  0  0  0  0  0  0  0  0  0
   38.1310   26.8680   35.1840 C   0  0  0  0  0  0  0  0  0  0  0  0
   37.3360   27.4430   34.1960 C   0  0  0  0  0  0  0  0  0  0  0  0
   36.9110   26.6630   33.1600 N   0  0  0  0  0  0  0  0  0  0  0  0
   37.2520   25.3470   33.0820 C   0  0  0  0  0  0  0  0  0  0  0  0
   38.0220   24.7860   34.0370 N   0  0  0  0  0  0  0  0  0  0  0  0
   37.1080   28.4690   34.3150 H   0  0  0  0  0  0  0  0  0  0  0  0
   36.8680   24.8200   32.2280 H   0  0  0  0  0  0  0  0  0  0  0  0
   38.6580   27.5100   36.3170 N   0  0  0  0  0  0  0  0  0  0  0  0
   39.1410   28.4390   36.1450 H   0  0  0  0  0  0  0  0  0  0  0  0
   38.6070   27.1400   37.2840 H   0  0  0  0  0  0  0  0  0  0  0  0
   39.2340   24.7860   35.9540 O   0  0  0  0  0  0  0  0  0  0  0  0
   37.4840   24.0800   37.8440 O   0  0  0  0  0  0  0  0  0  0  0  0
   38.5690   23.5410   36.9410 P   0  0  1  0  0  0  0  0  0  0  0  0
   37.9940   22.3430   35.9070 O   0  0  0  0  0  0  0  0  0  0  0  0
   38.7600   21.9520   35.4380 H   0  0  0  0  0  0  0  0  0  0  0  0
   39.7670   22.9560   37.9810 O   0  0  0  0  0  0  0  0  0  0  0  0
   40.6770   22.1240   37.3330 C   0  0  0  0  0  2  0  0  0  0  0  0
   41.6480   22.6130   37.1350 H   0  0  0  0  0  0  0  0  0  0  0  0
  1  2  1  0  0  0  0
  1 12  1  0  0  0  0
  2  9  1  0  0  0  0
  3  7  1  0  0  0  0
  3  2  2  0  0  0  0
  4  3  1  0  0  0  0
  5  4  2  0  0  0  0
  5  6  1  0  0  0  0
  6  1  2  0  0  0  0
  8  5  1  0  0  0  0
  9 11  1  0  0  0  0
 10  9  1  0  0  0  0
 12 14  1  0  0  0  0
 14 13  2  1  0  0  0
 14 17  1  0  0  0  0
 15 14  1  0  0  0  0
 16 15  1  0  0  0  0
 18 17  1  0  0  0  0
 19 18  1  0  0  0  0
M  END
>  <minimizedAffinity>
-3.87312365

$$$$

 OpenBabel03272504183D

 19 19  0  0  0  0  0  0  0  0999 V2000
   38.3040   24.5420   36.1630 C   0  0  0  0  0  0  0  0  0  0  0  0
   39.3100   23.5990   35.9870 C   0  0  0  0  0  0  0  0  0  0  0  0
   39.7480   22.8860   37.1000 C   0  0  0  0  0  0  0  0  0  0  0  0
   39.1730   23.1430   38.3110 N   0  0  0  0  0  0  0  0  0  0  0  0
   38.1900   24.0750   38.4410 C   0  0  0  0  0  0  0  0  0  0  0  0
   37.7620   24.7680   37.3660 N   0  0  0  0  0  0  0  0  0  0  0  0
   40.5150   22.1770   36.9310 H   0  0  0  0  0  0  0  0  0  0  0  0
   37.8030   24.2030   39.4350 H   0  0  0  0  0  0  0  0  0  0  0  0
   39.7800   23.4720   34.6690 N   0  0  0  0  0  0  0  0  0  0  0  0
   40.8350   23.4790   34.5480 H   0  0  0  0  0  0  0  0  0  0  0  0
   39.1770   23.3750   33.8320 H   0  0  0  0  0  0  0  0  0  0  0  0
   37.7470   25.3410   35.1710 O   0  0  0  0  0  0  0  0  0  0  0  0
   36.9980   27.8070   34.4680 O   0  0  0  0  0  0  0  0  0  0  0  0
   38.1670   27.0010   34.9880 P   0  0  1  0  0  0  0  0  0  0  0  0
   38.6910   27.5490   36.4910 O   0  0  0  0  0  0  0  0  0  0  0  0
   39.5170   27.0720   36.7170 H   0  0  0  0  0  0  0  0  0  0  0  0
   39.3690   27.1450   33.8080 O   0  0  0  0  0  0  0  0  0  0  0  0
   40.6480   26.9440   34.3220 C   0  0  0  0  0  2  0  0  0  0  0  0
   41.0710   25.9560   34.0640 H   0  0  0  0  0  0  0  0  0  0  0  0
  1  6  1  0  0  0  0
  2  1  2  0  0  0  0
  2  3  1  0  0  0  0
  3  4  2  0  0  0  0
  4  5  1  0  0  0  0
  5  8  1  0  0  0  0
  6  5  2  0  0  0  0
  7  3  1  0  0  0  0
  9  2  1  0  0  0  0
 10  9  1  0  0  0  0
 11  9  1  0  0  0  0
 12  1  1  0  0  0  0
 14 13  2  6  0  0  0
 14 12  1  0  0  0  0
 14 15  1  0  0  0  0
 15 16  1  0  0  0  0
 17 18  1  0  0  0  0
 17 14  1  0  0  0  0
 19 18  1  0  0  0  0
M  END
>  <minimizedAffinity>
-3.85487652

$$$$

 OpenBabel03272504183D

 19 19  0  0  0  0  0  0  0  0999 V2000
   38.2960   26.0090   34.5540 C   0  0  0  0  0  0  0  0  0  0  0  0
   37.9200   27.2130   35.1390 C   0  0  0  0  0  0  0  0  0  0  0  0
   36.9810   28.0030   34.4800 C   0  0  0  0  0  0  0  0  0  0  0  0
   36.4720   27.5620   33.2920 N   0  0  0  0  0  0  0  0  0  0  0  0
   36.8660   26.3770   32.7520 C   0  0  0  0  0  0  0  0  0  0  0  0
   37.7750   25.6080   33.3870 N   0  0  0  0  0  0  0  0  0  0  0  0
   36.7180   28.9120   34.9530 H   0  0  0  0  0  0  0  0  0  0  0  0
   36.4070   26.1210   31.8160 H   0  0  0  0  0  0  0  0  0  0  0  0
   38.5490   27.5000   36.3620 N   0  0  0  0  0  0  0  0  0  0  0  0
   38.9600   28.4740   36.4570 H   0  0  0  0  0  0  0  0  0  0  0  0
   38.6360   26.8360   37.1530 H   0  0  0  0  0  0  0  0  0  0  0  0
   39.2130   25.1000   35.0660 O   0  0  0  0  0  0  0  0  0  0  0  0
   37.9240   22.7810   35.3770 O   0  0  0  0  0  0  0  0  0  0  0  0
   38.7420   23.8160   36.1140 P   0  0  1  0  0  0  0  0  0  0  0  0
   40.1520   23.1610   36.7610 O   0  0  0  0  0  0  0  0  0  0  0  0
   40.5730   23.8440   37.3230 H   0  0  0  0  0  0  0  0  0  0  0  0
   37.7180   24.4240   37.3150 O   0  0  0  0  0  0  0  0  0  0  0  0
   38.1200   24.0530   38.5960 C   0  0  0  0  0  2  0  0  0  0  0  0
   38.6060   24.8750   39.1540 H   0  0  0  0  0  0  0  0  0  0  0  0
  1 12  1  0  0  0  0
  1  2  1  0  0  0  0
  2  9  1  0  0  0  0
  3  7  1  0  0  0  0
  3  2  2  0  0  0  0
  4  3  1  0  0  0  0
  5  4  2  0  0  0  0
  5  6  1  0  0  0  0
  6  1  2  0  0  0  0
  8  5  1  0  0  0  0
  9 10  1  0  0  0  0
  9 11  1  0  0  0  0
 12 14  1  0  0  0  0
 14 13  2  6  0  0  0
 14 15  1  0  0  0  0
 14 17  1  0  0  0  0
 15 16  1  0  0  0  0
 17 18  1  0  0  0  0
 18 19  1  0  0  0  0
M  END
>  <minimizedAffinity>
-3.58413434

$$$$

 OpenBabel03272504183D

 19 19  0  0  0  0  0  0  0  0999 V2000
   38.4300   25.1160   35.0920 C   0  0  0  0  0  0  0  0  0  0  0  0
   38.0570   24.6460   33.8370 C   0  0  0  0  0  0  0  0  0  0  0  0
   37.2460   25.4530   33.0440 C   0  0  0  0  0  0  0  0  0  0  0  0
   36.8520   26.6660   33.5300 N   0  0  0  0  0  0  0  0  0  0  0  0
   37.2380   27.0900   34.7640 C   0  0  0  0  0  0  0  0  0  0  0  0
   38.0250   26.3120   35.5370 N   0  0  0  0  0  0  0  0  0  0  0  0
   36.9810   25.0640   32.0960 H   0  0  0  0  0  0  0  0  0  0  0  0
   36.8760   28.0590   35.0540 H   0  0  0  0  0  0  0  0  0  0  0  0
   38.5580   23.3750   33.5080 N   0  0  0  0  0  0  0  0  0  0  0  0
   37.8540   22.6830   33.1190 H   0  0  0  0  0  0  0  0  0  0  0  0
   39.5460   23.0810   33.6190 H   0  0  0  0  0  0  0  0  0  0  0  0
   39.2310   24.4500   36.0120 O   0  0  0  0  0  0  0  0  0  0  0  0
   37.6690   24.1450   38.1570 O   0  0  0  0  0  0  0  0  0  0  0  0
   38.5730   23.3960   37.2060 P   0  0  1  0  0  0  0  0  0  0  0  0
   37.7550   22.1720   36.3890 O   0  0  0  0  0  0  0  0  0  0  0  0
   38.4140   21.6500   35.8850 H   0  0  0  0  0  0  0  0  0  0  0  0
   39.8270   22.7890   38.1640 O   0  0  0  0  0  0  0  0  0  0  0  0
   40.7860   22.1070   37.4190 C   0  0  0  0  0  2  0  0  0  0  0  0
   41.7150   22.6870   37.2710 H   0  0  0  0  0  0  0  0  0  0  0  0
  1  6  1  0  0  0  0
  1 12  1  0  0  0  0
  2  1  2  0  0  0  0
  3  4  2  0  0  0  0
  3  2  1  0  0  0  0
  4  5  1  0  0  0  0
  5  8  1  0  0  0  0
  5  6  2  0  0  0  0
  7  3  1  0  0  0  0
  9 11  1  0  0  0  0
  9  2  1  0  0  0  0
 10  9  1  0  0  0  0
 12 14  1  0  0  0  0
 14 13  2  1  0  0  0
 14 17  1  0  0  0  0
 15 14  1  0  0  0  0
 16 15  1  0  0  0  0
 18 17  1  0  0  0  0
 19 18  1  0  0  0  0
M  END
>  <minimizedAffinity>
-3.56454206

$$$$

 OpenBabel03272504183D

 19 19  0  0  0  0  0  0  0  0999 V2000
   38.1780   24.4790   35.7700 C   0  0  0  0  0  0  0  0  0  0  0  0
   38.5490   24.0800   37.0490 C   0  0  0  0  0  0  0  0  0  0  0  0
   39.4070   22.9910   37.1780 C   0  0  0  0  0  0  0  0  0  0  0  0
   39.8470   22.3650   36.0470 N   0  0  0  0  0  0  0  0  0  0  0  0
   39.4610   22.7870   34.8130 C   0  0  0  0  0  0  0  0  0  0  0  0
   38.6290   23.8410   34.6820 N   0  0  0  0  0  0  0  0  0  0  0  0
   39.6680   22.7140   38.1650 H   0  0  0  0  0  0  0  0  0  0  0  0
   39.8610   22.2280   33.9870 H   0  0  0  0  0  0  0  0  0  0  0  0
   37.9980   24.8440   38.0910 N   0  0  0  0  0  0  0  0  0  0  0  0
   37.5590   24.2970   38.8880 H   0  0  0  0  0  0  0  0  0  0  0  0
   37.9930   25.8790   38.1270 H   0  0  0  0  0  0  0  0  0  0  0  0
   37.3350   25.5380   35.4530 O   0  0  0  0  0  0  0  0  0  0  0  0
   36.8200   28.0530   34.7170 O   0  0  0  0  0  0  0  0  0  0  0  0
   37.9330   27.1230   35.1410 P   0  0  1  0  0  0  0  0  0  0  0  0
   38.6960   27.6510   36.5460 O   0  0  0  0  0  0  0  0  0  0  0  0
   39.4780   27.0800   36.7000 H   0  0  0  0  0  0  0  0  0  0  0  0
   38.9960   27.0690   33.8270 O   0  0  0  0  0  0  0  0  0  0  0  0
   38.3390   26.8470   32.6180 C   0  0  0  0  0  2  0  0  0  0  0  0
   38.2500   27.7580   31.9980 H   0  0  0  0  0  0  0  0  0  0  0  0
  1  2  1  0  0  0  0
  2  3  2  0  0  0  0
  2  9  1  0  0  0  0
  3  7  1  0  0  0  0
  4  3  1  0  0  0  0
  5  4  2  0  0  0  0
  6  5  1  0  0  0  0
  6  1  2  0  0  0  0
  8  5  1  0  0  0  0
  9 11  1  0  0  0  0
  9 10  1  0  0  0  0
 12  1  1  0  0  0  0
 14 13  2  6  0  0  0
 14 12  1  0  0  0  0
 14 15  1  0  0  0  0
 15 16  1  0  0  0  0
 17 14  1  0  0  0  0
 18 17  1  0  0  0  0
 19 18  1  0  0  0  0
M  END
>  <minimizedAffinity>
-3.53157282

$$$$

 OpenBabel03272504183D

 19 19  0  0  0  0  0  0  0  0999 V2000
   36.9960   27.2210   33.6300 C   0  0  0  0  0  0  0  0  0  0  0  0
   37.5060   27.2830   32.3380 C   0  0  0  0  0  0  0  0  0  0  0  0
   37.1740   28.3810   31.5480 C   0  0  0  0  0  0  0  0  0  0  0  0
   36.3650   29.3460   32.0750 N   0  0  0  0  0  0  0  0  0  0  0  0
   35.8850   29.2480   33.3440 C   0  0  0  0  0  0  0  0  0  0  0  0
   36.2050   28.1870   34.1140 N   0  0  0  0  0  0  0  0  0  0  0  0
   37.5790   28.3950   30.5710 H   0  0  0  0  0  0  0  0  0  0  0  0
   35.2570   30.0590   33.6640 H   0  0  0  0  0  0  0  0  0  0  0  0
   38.3210   26.1990   31.9700 N   0  0  0  0  0  0  0  0  0  0  0  0
   38.1060   25.7520   31.0320 H   0  0  0  0  0  0  0  0  0  0  0  0
   39.0960   25.8200   32.5440 H   0  0  0  0  0  0  0  0  0  0  0  0
   37.2210   26.2070   34.5530 O   0  0  0  0  0  0  0  0  0  0  0  0
   39.8030   25.8320   35.1260 O   0  0  0  0  0  0  0  0  0  0  0  0
   38.4900   26.2920   35.7160 P   0  0  1  0  0  0  0  0  0  0  0  0
   38.5630   27.8860   36.2540 O   0  0  0  0  0  0  0  0  0  0  0  0
   37.7300   28.0840   36.7300 H   0  0  0  0  0  0  0  0  0  0  0  0
   38.1620   25.2140   36.9760 O   0  0  0  0  0  0  0  0  0  0  0  0
   37.9050   23.9220   36.5200 C   0  0  0  0  0  2  0  0  0  0  0  0
   38.7510   23.2290   36.6790 H   0  0  0  0  0  0  0  0  0  0  0  0
  1  6  1  0  0  0  0
  1 12  1  0  0  0  0
  2  1  2  0  0  0  0
  3  4  2  0  0  0  0
  3  2  1  0  0  0  0
  4  5  1  0  0  0  0
  5  8  1  0  0  0  0
  5  6  2  0  0  0  0
  7  3  1  0  0  0  0
  9  2  1  0  0  0  0
  9 11  1  0  0  0  0
 10  9  1  0  0  0  0
 12 14  1  0  0  0  0
 14 13  2  6  0  0  0
 14 15  1  0  0  0  0
 14 17  1  0  0  0  0
 15 16  1  0  0  0  0
 18 19  1  0  0  0  0
 18 17  1  0  0  0  0
M  END
>  <minimizedAffinity>
-3.47561979

$$$$

 OpenBabel03272504183D

 19 19  0  0  0  0  0  0  0  0999 V2000
   37.0090   26.9920   33.4310 C   0  0  0  0  0  0  0  0  0  0  0  0
   36.4980   28.2740   33.2690 C   0  0  0  0  0  0  0  0  0  0  0  0
   36.5480   28.8490   32.0010 C   0  0  0  0  0  0  0  0  0  0  0  0
   37.0950   28.1320   30.9770 N   0  0  0  0  0  0  0  0  0  0  0  0
   37.5850   26.8780   31.1780 C   0  0  0  0  0  0  0  0  0  0  0  0
   37.5390   26.3170   32.4040 N   0  0  0  0  0  0  0  0  0  0  0  0
   36.1500   29.8260   31.9130 H   0  0  0  0  0  0  0  0  0  0  0  0
   37.9950   26.3980   30.3080 H   0  0  0  0  0  0  0  0  0  0  0  0
   35.9750   28.8560   34.4350 N   0  0  0  0  0  0  0  0  0  0  0  0
   36.2920   29.8480   34.6440 H   0  0  0  0  0  0  0  0  0  0  0  0
   35.3180   28.3890   35.0870 H   0  0  0  0  0  0  0  0  0  0  0  0
   37.0420   26.2670   34.6160 O   0  0  0  0  0  0  0  0  0  0  0  0
   39.6560   25.8610   34.9900 O   0  0  0  0  0  0  0  0  0  0  0  0
   38.3930   26.3170   35.6840 P   0  0  1  0  0  0  0  0  0  0  0  0
   38.5190   27.8980   36.2490 O   0  0  0  0  0  0  0  0  0  0  0  0
   37.7250   28.0920   36.7900 H   0  0  0  0  0  0  0  0  0  0  0  0
   38.1500   25.2140   36.9420 O   0  0  0  0  0  0  0  0  0  0  0  0
   38.6660   23.9530   36.6530 C   0  0  0  0  0  2  0  0  0  0  0  0
   39.6130   23.7390   37.1810 H   0  0  0  0  0  0  0  0  0  0  0  0
  1 12  1  0  0  0  0
  2  1  1  0  0  0  0
  2  9  1  0  0  0  0
  3  2  2  0  0  0  0
  4  5  2  0  0  0  0
  4  3  1  0  0  0  0
  5  6  1  0  0  0  0
  6  1  2  0  0  0  0
  7  3  1  0  0  0  0
  8  5  1  0  0  0  0
  9 10  1  0  0  0  0
  9 11  1  0  0  0  0
 12 14  1  0  0  0  0
 14 13  2  6  0  0  0
 14 15  1  0  0  0  0
 14 17  1  0  0  0  0
 15 16  1  0  0  0  0
 18 17  1  0  0  0  0
 18 19  1  0  0  0  0
M  END
>  <minimizedAffinity>
-3.45662165

$$$$

 OpenBabel03272504183D

 19 19  0  0  0  0  0  0  0  0999 V2000
   39.1500   24.6370   34.7250 C   0  0  0  0  0  0  0  0  0  0  0  0
   38.7690   25.9470   34.9890 C   0  0  0  0  0  0  0  0  0  0  0  0
   39.7560   26.9290   35.0110 C   0  0  0  0  0  0  0  0  0  0  0  0
   41.0490   26.5650   34.7740 N   0  0  0  0  0  0  0  0  0  0  0  0
   41.3810   25.2700   34.5190 C   0  0  0  0  0  0  0  0  0  0  0  0
   40.4290   24.3140   34.4960 N   0  0  0  0  0  0  0  0  0  0  0  0
   39.4310   27.9150   35.2160 H   0  0  0  0  0  0  0  0  0  0  0  0
   42.4260   25.0860   34.3450 H   0  0  0  0  0  0  0  0  0  0  0  0
   37.3940   26.1320   35.2080 N   0  0  0  0  0  0  0  0  0  0  0  0
   37.1310   26.7040   36.0630 H   0  0  0  0  0  0  0  0  0  0  0  0
   36.6420   25.7540   34.6030 H   0  0  0  0  0  0  0  0  0  0  0  0
   38.3060   23.5340   34.6630 O   0  0  0  0  0  0  0  0  0  0  0  0
   36.8950   21.5350   35.7350 O   0  0  0  0  0  0  0  0  0  0  0  0
   37.9390   22.5820   36.0510 P   0  0  1  0  0  0  0  0  0  0  0  0
   39.3830   21.8940   36.5750 O   0  0  0  0  0  0  0  0  0  0  0  0
   39.9720   22.6170   36.8770 H   0  0  0  0  0  0  0  0  0  0  0  0
   37.2410   23.5680   37.2340 O   0  0  0  0  0  0  0  0  0  0  0  0
   38.1140   23.8380   38.2860 C   0  0  0  0  0  2  0  0  0  0  0  0
   38.5340   24.8600   38.2490 H   0  0  0  0  0  0  0  0  0  0  0  0
  1  2  1  0  0  0  0
  2  3  2  0  0  0  0
  2  9  1  0  0  0  0
  3  7  1  0  0  0  0
  4  3  1  0  0  0  0
  5  4  2  0  0  0  0
  6  5  1  0  0  0  0
  6  1  2  0  0  0  0
  8  5  1  0  0  0  0
  9 10  1  0  0  0  0
 11  9  1  0  0  0  0
 12  1  1  0  0  0  0
 12 14  1  0  0  0  0
 14 13  2  6  0  0  0
 14 15  1  0  0  0  0
 14 17  1  0  0  0  0
 15 16  1  0  0  0  0
 17 18  1  0  0  0  0
 19 18  1  0  0  0  0
M  END
>  <minimizedAffinity>
-3.42784739

$$$$

 OpenBabel03272504183D

 19 19  0  0  0  0  0  0  0  0999 V2000
   39.8270   22.7460   36.0830 C   0  0  0  0  0  0  0  0  0  0  0  0
   40.3190   22.3180   37.3110 C   0  0  0  0  0  0  0  0  0  0  0  0
   41.4980   21.5770   37.3280 C   0  0  0  0  0  0  0  0  0  0  0  0
   42.1180   21.3040   36.1440 N   0  0  0  0  0  0  0  0  0  0  0  0
   41.6040   21.7420   34.9620 C   0  0  0  0  0  0  0  0  0  0  0  0
   40.4630   22.4600   34.9400 N   0  0  0  0  0  0  0  0  0  0  0  0
   41.8430   21.2680   38.2790 H   0  0  0  0  0  0  0  0  0  0  0  0
   42.1670   21.4740   34.0870 H   0  0  0  0  0  0  0  0  0  0  0  0
   39.5460   22.6950   38.4220 N   0  0  0  0  0  0  0  0  0  0  0  0
   39.3240   21.9240   39.1180 H   0  0  0  0  0  0  0  0  0  0  0  0
   39.1890   23.6510   38.5990 H   0  0  0  0  0  0  0  0  0  0  0  0
   38.6730   23.4910   35.8770 O   0  0  0  0  0  0  0  0  0  0  0  0
   38.2230   26.0380   36.5470 O   0  0  0  0  0  0  0  0  0  0  0  0
   38.7230   25.1540   35.4280 P   0  0  1  0  0  0  0  0  0  0  0  0
   40.3150   25.5060   35.0080 O   0  0  0  0  0  0  0  0  0  0  0  0
   40.5390   24.9910   34.2060 H   0  0  0  0  0  0  0  0  0  0  0  0
   37.6570   25.4150   34.1410 O   0  0  0  0  0  0  0  0  0  0  0  0
   37.7720   24.4450   33.1470 C   0  0  0  0  0  2  0  0  0  0  0  0
   36.9460   23.7110   33.1600 H   0  0  0  0  0  0  0  0  0  0  0  0
  1  2  1  0  0  0  0
  2  3  2  0  0  0  0
  2  9  1  0  0  0  0
  3  7  1  0  0  0  0
  4  3  1  0  0  0  0
  5  4  2  0  0  0  0
  6  5  1  0  0  0  0
  6  1  2  0  0  0  0
  8  5  1  0  0  0  0
  9 11  1  0  0  0  0
  9 10  1  0  0  0  0
 12  1  1  0  0  0  0
 14 12  1  0  0  0  0
 14 13  2  1  0  0  0
 15 14  1  0  0  0  0
 16 15  1  0  0  0  0
 17 14  1  0  0  0  0
 18 19  1  0  0  0  0
 18 17  1  0  0  0  0
M  END
>  <minimizedAffinity>
-3.40502

$$$$
