
 OpenBabel03262521103D

 17 17  0  0  0  0  0  0  0  0999 V2000
   38.3630   24.4080   36.1400 C   0  0  0  0  0  0  0  0  0  0  0  0
   39.4990   23.6020   35.9540 C   0  0  0  0  0  0  0  0  0  0  0  0
   39.9700   22.9070   37.0550 C   0  0  0  0  0  0  0  0  0  0  0  0
   39.3320   23.0280   38.2520 N   0  0  0  0  0  0  0  0  0  0  0  0
   38.2370   23.8170   38.3920 C   0  0  0  0  0  0  0  0  0  0  0  0
   37.7470   24.5110   37.3360 N   0  0  0  0  0  0  0  0  0  0  0  0
   39.9130   23.5920   34.9540 H   0  0  0  0  0  0  0  0  0  0  0  0
   40.8450   22.2900   36.9010 H   0  0  0  0  0  0  0  0  0  0  0  0
   37.7460   23.8950   39.3610 H   0  0  0  0  0  0  0  0  0  0  0  0
   37.7530   25.1750   35.1470 O   0  0  0  0  0  0  0  0  0  0  0  0
   36.7610   27.6120   34.5740 O   0  0  0  0  0  0  0  0  0  0  0  0
   38.0030   26.8700   35.0370 P   0  0  1  0  0  0  0  0  0  0  0  0
   38.4530   27.3900   36.5970 O   0  0  0  0  0  0  0  0  0  0  0  0
   39.4410   27.4110   36.6140 H   0  0  0  0  0  0  0  0  0  0  0  0
   39.2160   27.2010   33.9090 O   0  0  0  0  0  0  0  0  0  0  0  0
   40.4820   26.9080   34.3890 C   0  0  0  0  0  2  0  0  0  0  0  0
   40.8270   27.7820   34.9770 H   0  0  0  0  0  0  0  0  0  0  0  0
  1  6  1  0  0  0  0
  2  1  2  0  0  0  0
  2  3  1  0  0  0  0
  3  4  2  0  0  0  0
  4  5  1  0  0  0  0
  5  9  1  0  0  0  0
  6  5  2  0  0  0  0
  7  2  1  0  0  0  0
  8  3  1  0  0  0  0
 10  1  1  0  0  0  0
 12 11  2  6  0  0  0
 12 10  1  0  0  0  0
 12 13  1  0  0  0  0
 13 14  1  0  0  0  0
 15 16  1  0  0  0  0
 15 12  1  0  0  0  0
 16 17  1  0  0  0  0
M  END
>  <minimizedAffinity>
-3.65646052

$$$$

 OpenBabel03262521103D

 17 17  0  0  0  0  0  0  0  0999 V2000
   38.0930   24.6800   36.1870 C   0  0  0  0  0  0  0  0  0  0  0  0
   37.7320   24.2490   37.4750 C   0  0  0  0  0  0  0  0  0  0  0  0
   38.6020   23.3850   38.1200 C   0  0  0  0  0  0  0  0  0  0  0  0
   39.7470   22.9910   37.4980 N   0  0  0  0  0  0  0  0  0  0  0  0
   40.0600   23.4290   36.2520 C   0  0  0  0  0  0  0  0  0  0  0  0
   39.2340   24.2760   35.5900 N   0  0  0  0  0  0  0  0  0  0  0  0
   36.7970   24.6340   37.8580 H   0  0  0  0  0  0  0  0  0  0  0  0
   38.3140   23.0600   39.1110 H   0  0  0  0  0  0  0  0  0  0  0  0
   40.9830   23.0990   35.7780 H   0  0  0  0  0  0  0  0  0  0  0  0
   37.3420   25.5470   35.3930 O   0  0  0  0  0  0  0  0  0  0  0  0
   36.7720   28.1150   34.8120 O   0  0  0  0  0  0  0  0  0  0  0  0
   37.9060   27.1190   34.9920 P   0  0  1  0  0  0  0  0  0  0  0  0
   38.9190   27.6050   36.2750 O   0  0  0  0  0  0  0  0  0  0  0  0
   39.8440   27.3830   36.0050 H   0  0  0  0  0  0  0  0  0  0  0  0
   38.7500   27.0720   33.5310 O   0  0  0  0  0  0  0  0  0  0  0  0
   38.2270   26.1430   32.6460 C   0  0  0  0  0  2  0  0  0  0  0  0
   38.6660   25.1580   32.8990 H   0  0  0  0  0  0  0  0  0  0  0  0
  1  2  1  0  0  0  0
  2  7  1  0  0  0  0
  2  3  2  0  0  0  0
  3  8  1  0  0  0  0
  4  3  1  0  0  0  0
  5  4  2  0  0  0  0
  6  1  2  0  0  0  0
  6  5  1  0  0  0  0
  9  5  1  0  0  0  0
 10  1  1  0  0  0  0
 12 11  2  6  0  0  0
 12 10  1  0  0  0  0
 12 13  1  0  0  0  0
 14 13  1  0  0  0  0
 15 12  1  0  0  0  0
 16 17  1  0  0  0  0
 16 15  1  0  0  0  0
M  END
>  <minimizedAffinity>
-3.64708185

$$$$

 OpenBabel03262521103D

 17 17  0  0  0  0  0  0  0  0999 V2000
   38.6360   25.4060   35.3740 C   0  0  0  0  0  0  0  0  0  0  0  0
   38.3800   26.7120   35.8240 C   0  0  0  0  0  0  0  0  0  0  0  0
   37.5490   27.4990   35.0440 C   0  0  0  0  0  0  0  0  0  0  0  0
   37.0230   26.9920   33.8950 N   0  0  0  0  0  0  0  0  0  0  0  0
   37.2940   25.7240   33.4930 C   0  0  0  0  0  0  0  0  0  0  0  0
   38.1020   24.9240   34.2320 N   0  0  0  0  0  0  0  0  0  0  0  0
   38.8580   26.9950   36.7520 H   0  0  0  0  0  0  0  0  0  0  0  0
   37.3590   28.5030   35.4000 H   0  0  0  0  0  0  0  0  0  0  0  0
   36.8600   25.3430   32.5710 H   0  0  0  0  0  0  0  0  0  0  0  0
   39.4450   24.4770   36.0290 O   0  0  0  0  0  0  0  0  0  0  0  0
   37.7390   23.8900   38.0290 O   0  0  0  0  0  0  0  0  0  0  0  0
   38.7880   23.3050   37.0980 P   0  0  1  0  0  0  0  0  0  0  0  0
   38.0950   22.0950   36.1160 O   0  0  0  0  0  0  0  0  0  0  0  0
   38.7760   21.3850   36.0190 H   0  0  0  0  0  0  0  0  0  0  0  0
   40.0080   22.6710   38.0790 O   0  0  0  0  0  0  0  0  0  0  0  0
   40.9300   21.9250   37.3630 C   0  0  0  0  0  2  0  0  0  0  0  0
   40.5210   20.9010   37.2570 H   0  0  0  0  0  0  0  0  0  0  0  0
  1  2  1  0  0  0  0
  1 10  1  0  0  0  0
  2  7  1  0  0  0  0
  3  8  1  0  0  0  0
  3  2  2  0  0  0  0
  4  3  1  0  0  0  0
  5  4  2  0  0  0  0
  5  6  1  0  0  0  0
  6  1  2  0  0  0  0
  9  5  1  0  0  0  0
 10 12  1  0  0  0  0
 12 11  2  1  0  0  0
 12 15  1  0  0  0  0
 13 12  1  0  0  0  0
 14 13  1  0  0  0  0
 16 15  1  0  0  0  0
 17 16  1  0  0  0  0
M  END
>  <minimizedAffinity>
-3.56160164

$$$$

 OpenBabel03262521103D

 17 17  0  0  0  0  0  0  0  0999 V2000
   38.5450   25.3750   35.1130 C   0  0  0  0  0  0  0  0  0  0  0  0
   38.5480   26.5520   35.8810 C   0  0  0  0  0  0  0  0  0  0  0  0
   37.8000   27.6170   35.4100 C   0  0  0  0  0  0  0  0  0  0  0  0
   37.1040   27.4920   34.2460 N   0  0  0  0  0  0  0  0  0  0  0  0
   37.1260   26.3380   33.5320 C   0  0  0  0  0  0  0  0  0  0  0  0
   37.8460   25.2730   33.9620 N   0  0  0  0  0  0  0  0  0  0  0  0
   39.1410   26.5240   36.7860 H   0  0  0  0  0  0  0  0  0  0  0  0
   37.8090   28.5180   36.0100 H   0  0  0  0  0  0  0  0  0  0  0  0
   36.5610   26.2640   32.6050 H   0  0  0  0  0  0  0  0  0  0  0  0
   39.2380   24.2070   35.4320 O   0  0  0  0  0  0  0  0  0  0  0  0
   37.6580   22.0530   35.0820 O   0  0  0  0  0  0  0  0  0  0  0  0
   38.4440   22.8460   36.1140 P   0  0  1  0  0  0  0  0  0  0  0  0
   39.6640   21.8730   36.8000 O   0  0  0  0  0  0  0  0  0  0  0  0
   39.7160   22.1160   37.7570 H   0  0  0  0  0  0  0  0  0  0  0  0
   37.3360   23.3520   37.2840 O   0  0  0  0  0  0  0  0  0  0  0  0
   37.9540   23.8170   38.4330 C   0  0  0  0  0  2  0  0  0  0  0  0
   38.1820   22.9390   39.0690 H   0  0  0  0  0  0  0  0  0  0  0  0
  1 10  1  0  0  0  0
  1  2  1  0  0  0  0
  2  7  1  0  0  0  0
  3  2  2  0  0  0  0
  3  8  1  0  0  0  0
  4  3  1  0  0  0  0
  5  6  1  0  0  0  0
  5  4  2  0  0  0  0
  6  1  2  0  0  0  0
  9  5  1  0  0  0  0
 10 12  1  0  0  0  0
 12 11  2  6  0  0  0
 12 13  1  0  0  0  0
 12 15  1  0  0  0  0
 13 14  1  0  0  0  0
 15 16  1  0  0  0  0
 16 17  1  0  0  0  0
M  END
>  <minimizedAffinity>
-3.5456841

$$$$

 OpenBabel03262521103D

 17 17  0  0  0  0  0  0  0  0999 V2000
   37.4200   27.0360   33.5490 C   0  0  0  0  0  0  0  0  0  0  0  0
   37.1790   27.2180   34.9220 C   0  0  0  0  0  0  0  0  0  0  0  0
   38.2810   27.2450   35.7600 C   0  0  0  0  0  0  0  0  0  0  0  0
   39.5300   27.0970   35.2370 N   0  0  0  0  0  0  0  0  0  0  0  0
   39.7220   26.9240   33.9050 C   0  0  0  0  0  0  0  0  0  0  0  0
   38.6680   26.8930   33.0540 N   0  0  0  0  0  0  0  0  0  0  0  0
   36.1420   27.3230   35.2100 H   0  0  0  0  0  0  0  0  0  0  0  0
   38.0840   27.3850   36.8140 H   0  0  0  0  0  0  0  0  0  0  0  0
   40.7310   26.8080   33.5130 H   0  0  0  0  0  0  0  0  0  0  0  0
   36.4350   26.9840   32.5630 O   0  0  0  0  0  0  0  0  0  0  0  0
   35.0200   25.6220   30.7180 O   0  0  0  0  0  0  0  0  0  0  0  0
   36.3600   25.6940   31.4310 P   0  0  1  0  0  0  0  0  0  0  0  0
   37.6120   25.9700   30.3070 O   0  0  0  0  0  0  0  0  0  0  0  0
   38.3890   25.4400   30.6120 H   0  0  0  0  0  0  0  0  0  0  0  0
   36.5670   24.2190   32.2260 O   0  0  0  0  0  0  0  0  0  0  0  0
   36.0490   23.1520   31.5100 C   0  0  0  0  0  2  0  0  0  0  0  0
   34.9660   23.0920   31.7370 H   0  0  0  0  0  0  0  0  0  0  0  0
  1  2  1  0  0  0  0
  2  7  1  0  0  0  0
  2  3  2  0  0  0  0
  3  8  1  0  0  0  0
  4  3  1  0  0  0  0
  5  4  2  0  0  0  0
  6  1  2  0  0  0  0
  6  5  1  0  0  0  0
  9  5  1  0  0  0  0
 10  1  1  0  0  0  0
 12 11  2  6  0  0  0
 12 15  1  0  0  0  0
 12 10  1  0  0  0  0
 13 14  1  0  0  0  0
 13 12  1  0  0  0  0
 16 17  1  0  0  0  0
 16 15  1  0  0  0  0
M  END
>  <minimizedAffinity>
-3.32941437

$$$$

 OpenBabel03262521103D

 17 17  0  0  0  0  0  0  0  0999 V2000
   38.7010   25.6950   35.3370 C   0  0  0  0  0  0  0  0  0  0  0  0
   38.6420   26.9740   35.9160 C   0  0  0  0  0  0  0  0  0  0  0  0
   37.7830   27.8920   35.3350 C   0  0  0  0  0  0  0  0  0  0  0  0
   37.0450   27.5330   34.2480 N   0  0  0  0  0  0  0  0  0  0  0  0
   37.1310   26.2870   33.7180 C   0  0  0  0  0  0  0  0  0  0  0  0
   37.9600   25.3610   34.2600 N   0  0  0  0  0  0  0  0  0  0  0  0
   39.2780   27.1340   36.7760 H   0  0  0  0  0  0  0  0  0  0  0  0
   37.7450   28.8740   35.7890 H   0  0  0  0  0  0  0  0  0  0  0  0
   36.5290   26.0250   32.8490 H   0  0  0  0  0  0  0  0  0  0  0  0
   39.5070   24.6480   35.7870 O   0  0  0  0  0  0  0  0  0  0  0  0
   39.6870   22.9490   37.8700 O   0  0  0  0  0  0  0  0  0  0  0  0
   38.8530   23.3170   36.6530 P   0  0  1  0  0  0  0  0  0  0  0  0
   37.2840   23.7810   37.1320 O   0  0  0  0  0  0  0  0  0  0  0  0
   36.6640   23.4290   36.4480 H   0  0  0  0  0  0  0  0  0  0  0  0
   38.8110   21.9510   35.6620 O   0  0  0  0  0  0  0  0  0  0  0  0
   37.6660   21.8950   34.8840 C   0  0  0  0  0  2  0  0  0  0  0  0
   36.8650   21.4400   35.5000 H   0  0  0  0  0  0  0  0  0  0  0  0
  1 10  1  0  0  0  0
  1  2  1  0  0  0  0
  2  7  1  0  0  0  0
  3  8  1  0  0  0  0
  3  2  2  0  0  0  0
  4  3  1  0  0  0  0
  5  4  2  0  0  0  0
  5  6  1  0  0  0  0
  6  1  2  0  0  0  0
  9  5  1  0  0  0  0
 10 12  1  0  0  0  0
 12 13  1  0  0  0  0
 12 11  2  1  0  0  0
 14 13  1  0  0  0  0
 15 12  1  0  0  0  0
 16 17  1  0  0  0  0
 16 15  1  0  0  0  0
M  END
>  <minimizedAffinity>
-3.30844951

$$$$

 OpenBabel03262521103D

 17 17  0  0  0  0  0  0  0  0999 V2000
   37.7830   22.4440   34.4920 C   0  0  0  0  0  0  0  0  0  0  0  0
   38.1450   23.7480   34.1150 C   0  0  0  0  0  0  0  0  0  0  0  0
   38.3030   24.6790   35.1280 C   0  0  0  0  0  0  0  0  0  0  0  0
   38.1040   24.3080   36.4230 N   0  0  0  0  0  0  0  0  0  0  0  0
   37.7550   23.0380   36.7470 C   0  0  0  0  0  0  0  0  0  0  0  0
   37.5920   22.0980   35.7830 N   0  0  0  0  0  0  0  0  0  0  0  0
   38.2730   23.9150   33.0540 H   0  0  0  0  0  0  0  0  0  0  0  0
   38.5820   25.6800   34.8260 H   0  0  0  0  0  0  0  0  0  0  0  0
   37.6020   22.7670   37.7910 H   0  0  0  0  0  0  0  0  0  0  0  0
   37.5820   21.3810   33.6110 O   0  0  0  0  0  0  0  0  0  0  0  0
   36.0830   19.3940   32.5810 O   0  0  0  0  0  0  0  0  0  0  0  0
   36.0270   20.6920   33.3700 P   0  0  1  0  0  0  0  0  0  0  0  0
   35.3820   20.4110   34.9230 O   0  0  0  0  0  0  0  0  0  0  0  0
   34.8200   21.1940   35.1420 H   0  0  0  0  0  0  0  0  0  0  0  0
   35.0570   21.7560   32.4880 O   0  0  0  0  0  0  0  0  0  0  0  0
   35.6970   22.2500   31.3640 C   0  0  0  0  0  2  0  0  0  0  0  0
   36.3100   23.1170   31.6820 H   0  0  0  0  0  0  0  0  0  0  0  0
  1  6  1  0  0  0  0
  2  1  2  0  0  0  0
  2  3  1  0  0  0  0
  3  4  2  0  0  0  0
  4  5  1  0  0  0  0
  5  9  1  0  0  0  0
  6  5  2  0  0  0  0
  7  2  1  0  0  0  0
  8  3  1  0  0  0  0
 10  1  1  0  0  0  0
 12 11  2  6  0  0  0
 12 10  1  0  0  0  0
 12 13  1  0  0  0  0
 13 14  1  0  0  0  0
 15 12  1  0  0  0  0
 16 17  1  0  0  0  0
 16 15  1  0  0  0  0
M  END
>  <minimizedAffinity>
-3.26971364

$$$$

 OpenBabel03262521103D

 17 17  0  0  0  0  0  0  0  0999 V2000
   40.5530   22.5380   36.1230 C   0  0  0  0  0  0  0  0  0  0  0  0
   41.5210   23.4160   35.6070 C   0  0  0  0  0  0  0  0  0  0  0  0
   42.8470   23.1280   35.8820 C   0  0  0  0  0  0  0  0  0  0  0  0
   43.1600   22.0310   36.6260 N   0  0  0  0  0  0  0  0  0  0  0  0
   42.1960   21.2070   37.1070 C   0  0  0  0  0  0  0  0  0  0  0  0
   40.8860   21.4560   36.8580 N   0  0  0  0  0  0  0  0  0  0  0  0
   41.1430   24.2510   35.0320 H   0  0  0  0  0  0  0  0  0  0  0  0
   43.5840   23.8110   35.4800 H   0  0  0  0  0  0  0  0  0  0  0  0
   42.4730   20.3360   37.6990 H   0  0  0  0  0  0  0  0  0  0  0  0
   39.1750   22.6700   35.9470 O   0  0  0  0  0  0  0  0  0  0  0  0
   36.7480   22.6900   37.1170 O   0  0  0  0  0  0  0  0  0  0  0  0
   38.1580   23.2520   37.2030 P   0  0  1  0  0  0  0  0  0  0  0  0
   38.8910   22.7820   38.6690 O   0  0  0  0  0  0  0  0  0  0  0  0
   39.4310   23.5510   38.9740 H   0  0  0  0  0  0  0  0  0  0  0  0
   38.0190   24.9310   37.1000 O   0  0  0  0  0  0  0  0  0  0  0  0
   37.8320   25.3690   35.7990 C   0  0  0  0  0  2  0  0  0  0  0  0
   38.8310   25.4500   35.3270 H   0  0  0  0  0  0  0  0  0  0  0  0
  1  6  1  0  0  0  0
  2  3  1  0  0  0  0
  2  1  2  0  0  0  0
  3  4  2  0  0  0  0
  4  5  1  0  0  0  0
  5  9  1  0  0  0  0
  6  5  2  0  0  0  0
  7  2  1  0  0  0  0
  8  3  1  0  0  0  0
 10  1  1  0  0  0  0
 10 12  1  0  0  0  0
 12 11  2  6  0  0  0
 12 13  1  0  0  0  0
 13 14  1  0  0  0  0
 15 12  1  0  0  0  0
 16 15  1  0  0  0  0
 17 16  1  0  0  0  0
M  END
>  <minimizedAffinity>
-3.25708389

$$$$

 OpenBabel03262521103D

 17 17  0  0  0  0  0  0  0  0999 V2000
   37.1940   27.4150   33.4790 C   0  0  0  0  0  0  0  0  0  0  0  0
   37.2310   28.0160   32.2100 C   0  0  0  0  0  0  0  0  0  0  0  0
   36.4720   29.1600   32.0290 C   0  0  0  0  0  0  0  0  0  0  0  0
   35.7330   29.6500   33.0620 N   0  0  0  0  0  0  0  0  0  0  0  0
   35.7240   29.0410   34.2740 C   0  0  0  0  0  0  0  0  0  0  0  0
   36.4540   27.9190   34.4890 N   0  0  0  0  0  0  0  0  0  0  0  0
   37.8570   27.5290   31.4740 H   0  0  0  0  0  0  0  0  0  0  0  0
   36.5080   29.6150   31.0480 H   0  0  0  0  0  0  0  0  0  0  0  0
   35.1240   29.4530   35.0840 H   0  0  0  0  0  0  0  0  0  0  0  0
   37.8930   26.2620   33.8410 O   0  0  0  0  0  0  0  0  0  0  0  0
   40.0450   25.4710   35.2540 O   0  0  0  0  0  0  0  0  0  0  0  0
   38.6760   26.1240   35.3630 P   0  0  1  0  0  0  0  0  0  0  0  0
   38.8260   27.7100   35.9700 O   0  0  0  0  0  0  0  0  0  0  0  0
   38.0520   27.8580   36.5670 H   0  0  0  0  0  0  0  0  0  0  0  0
   37.7570   25.1570   36.3970 O   0  0  0  0  0  0  0  0  0  0  0  0
   38.3800   23.9550   36.6930 C   0  0  0  0  0  2  0  0  0  0  0  0
   38.1490   23.2480   35.8720 H   0  0  0  0  0  0  0  0  0  0  0  0
  1 10  1  0  0  0  0
  1  6  1  0  0  0  0
  2  1  2  0  0  0  0
  3  2  1  0  0  0  0
  3  4  2  0  0  0  0
  4  5  1  0  0  0  0
  5  6  2  0  0  0  0
  5  9  1  0  0  0  0
  7  2  1  0  0  0  0
  8  3  1  0  0  0  0
 10 12  1  0  0  0  0
 12 11  2  6  0  0  0
 12 13  1  0  0  0  0
 12 15  1  0  0  0  0
 13 14  1  0  0  0  0
 15 16  1  0  0  0  0
 17 16  1  0  0  0  0
M  END
>  <minimizedAffinity>
-3.22045708

$$$$
