
     RDKit          3D

 27 29  0  0  0  0  0  0  0  0999 V2000
   36.8491   30.5594   46.9091 C   0  0  0  0  0  0  0  0  0  0  0  0
   37.5199   31.0428   48.0267 C   0  0  0  0  0  0  0  0  0  0  0  0
   38.5108   31.9890   47.9004 C   0  0  0  0  0  0  0  0  0  0  0  0
   38.7971   32.4259   46.6134 C   0  0  0  0  0  0  0  0  0  0  0  0
   39.7264   33.3494   46.2200 N   0  0  0  0  0  0  0  0  0  0  0  0
   39.6398   33.4432   44.8802 C   0  0  0  0  0  0  0  0  0  0  0  0
   38.7051   32.6266   44.4181 N   0  0  0  0  0  0  0  0  0  0  0  0
   38.1543   31.9729   45.4651 C   0  0  0  0  0  0  0  0  0  0  0  0
   37.1650   31.0220   45.6378 C   0  0  0  0  0  0  0  0  0  0  0  0
   37.3859   30.0913   51.6694 C   0  0  0  0  0  0  0  0  0  0  0  0
   37.8630   30.6526   50.4877 C   0  0  0  0  0  0  0  0  0  0  0  0
   37.1239   30.5022   49.3193 C   0  0  0  0  0  0  0  0  0  0  0  0
   35.9530   29.8023   49.3932 N   0  0  0  0  0  0  0  0  0  0  0  0
   35.5146   29.2672   50.5598 C   0  0  0  0  0  0  0  0  0  0  0  0
   36.2129   29.4074   51.6718 N   0  0  0  0  0  0  0  0  0  0  0  0
   40.4750   34.3177   44.1859 O   0  0  0  0  0  0  0  0  0  0  0  0
   36.0560   29.8042   46.9937 H   0  0  0  0  0  0  0  0  0  0  0  0
   39.0331   32.3677   48.7522 H   0  0  0  0  0  0  0  0  0  0  0  0
   40.3718   33.8681   46.8846 H   0  0  0  0  0  0  0  0  0  0  0  0
   36.6539   30.6575   44.7575 H   0  0  0  0  0  0  0  0  0  0  0  0
   37.9669   30.2149   52.5657 H   0  0  0  0  0  0  0  0  0  0  0  0
   38.8004   31.2142   50.4231 H   0  0  0  0  0  0  0  0  0  0  0  0
   34.5901   28.7123   50.6279 H   0  0  0  0  0  0  0  0  0  0  0  0
   40.3851   34.4177   42.7757 C   0  0  0  0  0  0  0  0  0  0  0  0
   41.3672   34.5713   42.2903 H   0  0  0  0  0  0  0  0  0  0  0  0
   39.9507   33.4964   42.3287 H   0  0  0  0  0  0  0  0  0  0  0  0
   39.7469   35.2971   42.5470 H   0  0  0  0  0  0  0  0  0  0  0  0
  1  2  2  0
  2 12  1  0
  3  2  1  0
  4  3  2  0
  5  4  1  0
  6  5  1  0
  7  6  2  0
  7  8  1  0
  8  9  2  0
  8  4  1  0
  9  1  1  0
 10 15  2  0
 11 10  1  0
 12 13  1  0
 12 11  2  0
 13 14  2  0
 14 15  1  0
 16  6  1  0
  1 17  1  0
  3 18  1  0
  5 19  1  0
  9 20  1  0
 10 21  1  0
 11 22  1  0
 14 23  1  0
 24 25  1  0
 24 26  1  0
 24 27  1  0
 16 24  1  0
M  ISO  8  17  14  18  14  19   9  20  14  21  14  22  14  23  14  25   8
M  END
>  <DihAtoms>  (1) 
5,15,23,24

>  <DihDeg>  (1) 
-143.65635385550806

$$$$
