
 OpenBabel03272508223D

 39 41  0  0  0  0  0  0  0  0999 V2000
   38.0400   27.4050   35.5940 C   0  0  0  0  0  0  0  0  0  0  0  0
   38.4330   28.4420   35.3460 H   0  0  0  0  0  0  0  0  0  0  0  0
   37.7110   27.5250   36.6450 H   0  0  0  0  0  0  0  0  0  0  0  0
   37.7010   24.7460   36.3640 F   0  0  0  0  0  0  0  0  0  0  0  0
   38.8630   25.1860   35.7910 C   0  0  0  0  0  0  0  0  0  0  0  0
   39.1090   26.4980   35.3680 C   0  0  0  0  0  0  0  0  0  0  0  0
   40.3160   26.7200   34.8320 C   0  0  0  0  0  0  0  0  0  0  0  0
   41.2740   25.7750   34.6810 C   0  0  0  0  0  0  0  0  0  0  0  0
   41.0390   24.4600   35.1020 C   0  0  0  0  0  0  0  0  0  0  0  0
   39.8120   24.2130   35.6540 C   0  0  0  0  0  0  0  0  0  0  0  0
   40.5010   27.7520   34.5030 H   0  0  0  0  0  0  0  0  0  0  0  0
   42.2100   26.0830   34.2310 H   0  0  0  0  0  0  0  0  0  0  0  0
   42.0950   23.4430   34.9290 C   0  0  0  0  0  2  0  0  0  0  0  0
   42.7940   23.7690   34.1290 H   0  0  0  0  0  0  0  0  0  0  0  0
   39.6170   22.8690   36.0760 O   0  0  0  0  0  0  0  0  0  0  0  0
   39.8020   22.6680   37.4320 C   0  0  0  0  0  0  0  0  0  0  0  0
   40.8930   22.0300   37.6550 O   0  0  0  0  0  0  0  0  0  0  0  0
   39.0680   23.0040   38.5800 N   0  0  0  0  0  0  0  0  0  0  0  0
   39.5310   23.1350   39.5100 H   0  0  0  0  0  0  0  0  0  0  0  0
   38.5920   23.2520   39.4710 H   0  0  0  0  0  0  0  0  0  0  0  0
   36.8190   27.2570   34.7650 C   0  0  0  0  0  0  0  0  0  0  0  0
   36.6910   26.1590   34.5590 H   0  0  0  0  0  0  0  0  0  0  0  0
   35.9350   27.5140   35.4210 H   0  0  0  0  0  0  0  0  0  0  0  0
   36.1140   29.1590   33.3990 C   0  0  0  0  0  0  0  0  0  0  0  0
   36.7810   27.9730   33.5300 C   0  0  0  0  0  0  0  0  0  0  0  0
   37.3520   27.5370   32.3940 C   0  0  0  0  0  0  0  0  0  0  0  0
   37.2720   28.1980   31.2350 N   0  0  0  0  0  0  0  0  0  0  0  0
   36.6220   29.3520   31.0960 C   0  0  0  0  0  0  0  0  0  0  0  0
   36.0340   29.8470   32.1810 N   0  0  0  0  0  0  0  0  0  0  0  0
   37.9220   26.6110   32.3300 H   0  0  0  0  0  0  0  0  0  0  0  0
   36.4860   29.9750   30.2240 H   0  0  0  0  0  0  0  0  0  0  0  0
   35.4200   29.8210   34.5730 C   0  0  0  0  0  0  0  0  0  0  0  0
   34.5730   30.9290   34.3980 C   0  0  0  0  0  0  0  0  0  0  0  0
   33.9000   29.5580   34.5030 C   0  0  0  0  0  0  0  0  0  0  0  0
   35.9670   29.6940   35.5090 H   0  0  0  0  0  0  0  0  0  0  0  0
   34.4800   31.4250   33.4040 H   0  0  0  0  0  0  0  0  0  0  0  0
   34.4300   31.6560   35.2320 H   0  0  0  0  0  0  0  0  0  0  0  0
   33.4560   29.1590   33.6020 H   0  0  0  0  0  0  0  0  0  0  0  0
   33.4280   29.3960   35.4980 H   0  0  0  0  0  0  0  0  0  0  0  0
  1  3  1  0  0  0  0
  2  1  1  0  0  0  0
  5  4  1  0  0  0  0
  6  1  1  0  0  0  0
  6  5  2  0  0  0  0
  7  6  1  0  0  0  0
  8  7  2  0  0  0  0
  8  9  1  0  0  0  0
  9 10  2  0  0  0  0
 10  5  1  0  0  0  0
 10 15  1  0  0  0  0
 11  7  1  0  0  0  0
 12  8  1  0  0  0  0
 13  9  1  0  0  0  0
 14 13  1  0  0  0  0
 15 16  1  0  0  0  0
 16 17  2  0  0  0  0
 16 18  1  0  0  0  0
 18 20  1  0  0  0  0
 18 19  1  0  0  0  0
 21 23  1  0  0  0  0
 21  1  1  0  0  0  0
 22 21  1  0  0  0  0
 24 25  1  0  0  0  0
 24 32  1  0  0  0  0
 25 21  1  0  0  0  0
 26 25  2  0  0  0  0
 27 26  1  0  0  0  0
 28 27  2  0  0  0  0
 28 29  1  0  0  0  0
 29 24  2  0  0  0  0
 30 26  1  0  0  0  0
 31 28  1  0  0  0  0
 32 35  1  0  0  0  0
 33 34  1  0  0  0  0
 33 32  1  0  0  0  0
 33 37  1  0  0  0  0
 34 32  1  0  0  0  0
 34 39  1  0  0  0  0
 36 33  1  0  0  0  0
 38 34  1  0  0  0  0
M  END
>  <minimizedAffinity>
-5.73197842

$$$$

 OpenBabel03272508223D

 39 41  0  0  0  0  0  0  0  0999 V2000
   37.9650   27.4800   35.4890 C   0  0  0  0  0  0  0  0  0  0  0  0
   38.3100   28.4930   35.1090 H   0  0  0  0  0  0  0  0  0  0  0  0
   37.7120   27.7010   36.5460 H   0  0  0  0  0  0  0  0  0  0  0  0
   37.6510   24.8390   36.3290 F   0  0  0  0  0  0  0  0  0  0  0  0
   38.8040   25.2720   35.7320 C   0  0  0  0  0  0  0  0  0  0  0  0
   39.0370   26.5740   35.2740 C   0  0  0  0  0  0  0  0  0  0  0  0
   40.2360   26.7910   34.7200 C   0  0  0  0  0  0  0  0  0  0  0  0
   41.1990   25.8490   34.5830 C   0  0  0  0  0  0  0  0  0  0  0  0
   40.9780   24.5430   35.0380 C   0  0  0  0  0  0  0  0  0  0  0  0
   39.7580   24.3020   35.6090 C   0  0  0  0  0  0  0  0  0  0  0  0
   40.4110   27.8150   34.3640 H   0  0  0  0  0  0  0  0  0  0  0  0
   42.1290   26.1510   34.1150 H   0  0  0  0  0  0  0  0  0  0  0  0
   42.0390   23.5290   34.8790 C   0  0  0  0  0  2  0  0  0  0  0  0
   42.7270   23.8400   34.0630 H   0  0  0  0  0  0  0  0  0  0  0  0
   39.5770   22.9680   36.0660 O   0  0  0  0  0  0  0  0  0  0  0  0
   39.7230   22.8120   37.4330 C   0  0  0  0  0  0  0  0  0  0  0  0
   40.9090   22.4220   37.7260 O   0  0  0  0  0  0  0  0  0  0  0  0
   38.8690   22.9840   38.5330 N   0  0  0  0  0  0  0  0  0  0  0  0
   39.2390   23.2120   39.4860 H   0  0  0  0  0  0  0  0  0  0  0  0
   38.3000   23.1260   39.3930 H   0  0  0  0  0  0  0  0  0  0  0  0
   36.6890   27.2250   34.7770 C   0  0  0  0  0  0  0  0  0  0  0  0
   36.5310   26.1110   34.7700 H   0  0  0  0  0  0  0  0  0  0  0  0
   35.8550   27.6120   35.4330 H   0  0  0  0  0  0  0  0  0  0  0  0
   36.6990   26.9050   32.3520 C   0  0  0  0  0  0  0  0  0  0  0  0
   36.5800   27.7210   33.4420 C   0  0  0  0  0  0  0  0  0  0  0  0
   36.3940   29.0170   33.1380 C   0  0  0  0  0  0  0  0  0  0  0  0
   36.3370   29.4730   31.8830 N   0  0  0  0  0  0  0  0  0  0  0  0
   36.4550   28.6870   30.8150 C   0  0  0  0  0  0  0  0  0  0  0  0
   36.6380   27.3890   31.0390 N   0  0  0  0  0  0  0  0  0  0  0  0
   36.2780   29.7960   33.8920 H   0  0  0  0  0  0  0  0  0  0  0  0
   36.4280   28.9310   29.7630 H   0  0  0  0  0  0  0  0  0  0  0  0
   36.8960   25.4080   32.4910 C   0  0  0  0  0  0  0  0  0  0  0  0
   37.0150   24.5740   31.3660 C   0  0  0  0  0  0  0  0  0  0  0  0
   38.3190   25.0190   32.0330 C   0  0  0  0  0  0  0  0  0  0  0  0
   36.4810   25.0150   33.4210 H   0  0  0  0  0  0  0  0  0  0  0  0
   36.8510   24.9740   30.3380 H   0  0  0  0  0  0  0  0  0  0  0  0
   36.7210   23.5000   31.4370 H   0  0  0  0  0  0  0  0  0  0  0  0
   38.9310   25.7260   31.4920 H   0  0  0  0  0  0  0  0  0  0  0  0
   38.7780   24.2080   32.6420 H   0  0  0  0  0  0  0  0  0  0  0  0
  1  3  1  0  0  0  0
  2  1  1  0  0  0  0
  5  4  1  0  0  0  0
  6  1  1  0  0  0  0
  6  5  2  0  0  0  0
  7  6  1  0  0  0  0
  8  7  2  0  0  0  0
  8  9  1  0  0  0  0
  9 10  2  0  0  0  0
 10  5  1  0  0  0  0
 10 15  1  0  0  0  0
 11  7  1  0  0  0  0
 12  8  1  0  0  0  0
 13  9  1  0  0  0  0
 14 13  1  0  0  0  0
 15 16  1  0  0  0  0
 16 17  2  0  0  0  0
 16 18  1  0  0  0  0
 18 20  1  0  0  0  0
 18 19  1  0  0  0  0
 21 23  1  0  0  0  0
 21  1  1  0  0  0  0
 22 21  1  0  0  0  0
 24 32  1  0  0  0  0
 24 25  1  0  0  0  0
 25 21  1  0  0  0  0
 26 25  2  0  0  0  0
 26 30  1  0  0  0  0
 27 26  1  0  0  0  0
 28 29  1  0  0  0  0
 28 27  2  0  0  0  0
 29 24  2  0  0  0  0
 31 28  1  0  0  0  0
 32 35  1  0  0  0  0
 33 37  1  0  0  0  0
 33 34  1  0  0  0  0
 33 32  1  0  0  0  0
 34 32  1  0  0  0  0
 34 39  1  0  0  0  0
 36 33  1  0  0  0  0
 38 34  1  0  0  0  0
M  END
>  <minimizedAffinity>
-5.46526814

$$$$

 OpenBabel03272508223D

 39 41  0  0  0  0  0  0  0  0999 V2000
   35.1830   28.9340   33.2170 C   0  0  0  0  0  0  0  0  0  0  0  0
   34.7980   29.4380   32.2750 H   0  0  0  0  0  0  0  0  0  0  0  0
   34.5540   28.0220   33.2670 H   0  0  0  0  0  0  0  0  0  0  0  0
   32.5960   29.5600   34.0500 F   0  0  0  0  0  0  0  0  0  0  0  0
   33.6960   30.1330   34.6270 C   0  0  0  0  0  0  0  0  0  0  0  0
   35.0250   29.8670   34.2750 C   0  0  0  0  0  0  0  0  0  0  0  0
   35.9560   30.5380   34.9650 C   0  0  0  0  0  0  0  0  0  0  0  0
   35.6880   31.4270   35.9510 C   0  0  0  0  0  0  0  0  0  0  0  0
   34.3630   31.7010   36.3110 C   0  0  0  0  0  0  0  0  0  0  0  0
   33.3960   31.0270   35.6160 C   0  0  0  0  0  0  0  0  0  0  0  0
   36.9950   30.3230   34.6830 H   0  0  0  0  0  0  0  0  0  0  0  0
   36.5320   31.9040   36.4350 H   0  0  0  0  0  0  0  0  0  0  0  0
   34.0890   32.6730   37.3890 C   0  0  0  0  0  2  0  0  0  0  0  0
   34.9860   32.7640   38.0390 H   0  0  0  0  0  0  0  0  0  0  0  0
   32.0650   31.3410   36.0050 O   0  0  0  0  0  0  0  0  0  0  0  0
   31.4400   30.3520   36.7420 C   0  0  0  0  0  0  0  0  0  0  0  0
   30.2660   30.1140   36.2850 O   0  0  0  0  0  0  0  0  0  0  0  0
   31.8110   29.5770   37.8520 N   0  0  0  0  0  0  0  0  0  0  0  0
   31.4010   28.6280   38.0220 H   0  0  0  0  0  0  0  0  0  0  0  0
   32.0360   28.9480   38.6490 H   0  0  0  0  0  0  0  0  0  0  0  0
   36.5600   28.5000   32.8760 C   0  0  0  0  0  0  0  0  0  0  0  0
   36.8250   28.9820   31.8940 H   0  0  0  0  0  0  0  0  0  0  0  0
   37.2590   28.9910   33.6150 H   0  0  0  0  0  0  0  0  0  0  0  0
   37.3140   26.3770   33.8260 C   0  0  0  0  0  0  0  0  0  0  0  0
   36.7940   27.0940   32.7850 C   0  0  0  0  0  0  0  0  0  0  0  0
   36.5690   26.3670   31.6780 C   0  0  0  0  0  0  0  0  0  0  0  0
   36.8330   25.0600   31.5950 N   0  0  0  0  0  0  0  0  0  0  0  0
   37.3420   24.3530   32.6020 C   0  0  0  0  0  0  0  0  0  0  0  0
   37.5880   25.0070   33.7330 N   0  0  0  0  0  0  0  0  0  0  0  0
   36.1550   26.7880   30.7620 H   0  0  0  0  0  0  0  0  0  0  0  0
   37.5980   23.3040   32.6590 H   0  0  0  0  0  0  0  0  0  0  0  0
   37.6200   27.0170   35.1660 C   0  0  0  0  0  0  0  0  0  0  0  0
   38.2620   26.3050   36.1940 C   0  0  0  0  0  0  0  0  0  0  0  0
   39.1440   27.2050   35.3250 C   0  0  0  0  0  0  0  0  0  0  0  0
   36.9280   27.8260   35.4120 H   0  0  0  0  0  0  0  0  0  0  0  0
   38.4590   25.2120   36.0930 H   0  0  0  0  0  0  0  0  0  0  0  0
   38.0940   26.5930   37.2580 H   0  0  0  0  0  0  0  0  0  0  0  0
   39.8280   26.7150   34.6470 H   0  0  0  0  0  0  0  0  0  0  0  0
   39.4270   28.1470   35.8470 H   0  0  0  0  0  0  0  0  0  0  0  0
  1  3  1  0  0  0  0
  1  6  1  0  0  0  0
  2  1  1  0  0  0  0
  4  5  1  0  0  0  0
  5 10  1  0  0  0  0
  6  5  2  0  0  0  0
  6  7  1  0  0  0  0
  7  8  2  0  0  0  0
  8  9  1  0  0  0  0
  8 12  1  0  0  0  0
  9 13  1  0  0  0  0
 10 15  1  0  0  0  0
 10  9  2  0  0  0  0
 11  7  1  0  0  0  0
 13 14  1  0  0  0  0
 15 16  1  0  0  0  0
 16 18  1  0  0  0  0
 17 16  2  0  0  0  0
 18 19  1  0  0  0  0
 18 20  1  0  0  0  0
 21  1  1  0  0  0  0
 21 23  1  0  0  0  0
 22 21  1  0  0  0  0
 24 32  1  0  0  0  0
 25 21  1  0  0  0  0
 25 24  2  0  0  0  0
 26 25  1  0  0  0  0
 27 26  2  0  0  0  0
 27 28  1  0  0  0  0
 28 31  1  0  0  0  0
 28 29  2  0  0  0  0
 29 24  1  0  0  0  0
 30 26  1  0  0  0  0
 32 34  1  0  0  0  0
 32 35  1  0  0  0  0
 32 33  1  0  0  0  0
 33 37  1  0  0  0  0
 34 39  1  0  0  0  0
 34 33  1  0  0  0  0
 36 33  1  0  0  0  0
 38 34  1  0  0  0  0
M  END
>  <minimizedAffinity>
-5.41120338

$$$$

 OpenBabel03272508223D

 39 41  0  0  0  0  0  0  0  0999 V2000
   36.8630   27.0680   34.8430 C   0  0  0  0  0  0  0  0  0  0  0  0
   36.8300   25.9810   34.5150 H   0  0  0  0  0  0  0  0  0  0  0  0
   35.9880   27.1340   35.5200 H   0  0  0  0  0  0  0  0  0  0  0  0
   35.0270   29.1650   34.7400 F   0  0  0  0  0  0  0  0  0  0  0  0
   35.8520   28.8790   33.6870 C   0  0  0  0  0  0  0  0  0  0  0  0
   36.8050   27.8540   33.6620 C   0  0  0  0  0  0  0  0  0  0  0  0
   37.5110   27.7420   32.5290 C   0  0  0  0  0  0  0  0  0  0  0  0
   37.3580   28.5430   31.4480 C   0  0  0  0  0  0  0  0  0  0  0  0
   36.4070   29.5710   31.4620 C   0  0  0  0  0  0  0  0  0  0  0  0
   35.6740   29.7000   32.6090 C   0  0  0  0  0  0  0  0  0  0  0  0
   38.2560   26.9350   32.5180 H   0  0  0  0  0  0  0  0  0  0  0  0
   37.9920   28.3490   30.5910 H   0  0  0  0  0  0  0  0  0  0  0  0
   36.2540   30.4340   30.2730 C   0  0  0  0  0  2  0  0  0  0  0  0
   37.1880   30.4010   29.6710 H   0  0  0  0  0  0  0  0  0  0  0  0
   34.7140   30.7490   32.5790 O   0  0  0  0  0  0  0  0  0  0  0  0
   33.4450   30.3450   32.2060 C   0  0  0  0  0  0  0  0  0  0  0  0
   32.9810   31.0960   31.2740 O   0  0  0  0  0  0  0  0  0  0  0  0
   32.5830   29.3180   32.6220 N   0  0  0  0  0  0  0  0  0  0  0  0
   31.8590   28.9150   31.9820 H   0  0  0  0  0  0  0  0  0  0  0  0
   31.9120   28.5600   32.8580 H   0  0  0  0  0  0  0  0  0  0  0  0
   38.0800   27.1710   35.6850 C   0  0  0  0  0  0  0  0  0  0  0  0
   38.5090   28.1980   35.5210 H   0  0  0  0  0  0  0  0  0  0  0  0
   37.7420   27.1890   36.7620 H   0  0  0  0  0  0  0  0  0  0  0  0
   38.9990   24.9200   35.9500 C   0  0  0  0  0  0  0  0  0  0  0  0
   39.1020   26.1960   35.4710 C   0  0  0  0  0  0  0  0  0  0  0  0
   40.2550   26.4480   34.8270 C   0  0  0  0  0  0  0  0  0  0  0  0
   41.2200   25.5370   34.6720 N   0  0  0  0  0  0  0  0  0  0  0  0
   41.1310   24.2930   35.1380 C   0  0  0  0  0  0  0  0  0  0  0  0
   40.0140   23.9700   35.7840 N   0  0  0  0  0  0  0  0  0  0  0  0
   40.4910   27.4150   34.3840 H   0  0  0  0  0  0  0  0  0  0  0  0
   41.8340   23.4740   35.0790 H   0  0  0  0  0  0  0  0  0  0  0  0
   37.7650   24.4400   36.6890 C   0  0  0  0  0  0  0  0  0  0  0  0
   37.7290   23.1860   37.3230 C   0  0  0  0  0  0  0  0  0  0  0  0
   38.0450   24.3950   38.2080 C   0  0  0  0  0  0  0  0  0  0  0  0
   36.8450   24.8840   36.3030 H   0  0  0  0  0  0  0  0  0  0  0  0
   38.5660   22.4600   37.2010 H   0  0  0  0  0  0  0  0  0  0  0  0
   36.7530   22.6640   37.4650 H   0  0  0  0  0  0  0  0  0  0  0  0
   39.0560   24.4800   38.5790 H   0  0  0  0  0  0  0  0  0  0  0  0
   37.1740   24.6990   38.8310 H   0  0  0  0  0  0  0  0  0  0  0  0
  1  3  1  0  0  0  0
  1 21  1  0  0  0  0
  2  1  1  0  0  0  0
  5  4  1  0  0  0  0
  6  5  1  0  0  0  0
  6  1  1  0  0  0  0
  7  6  2  0  0  0  0
  8  9  2  0  0  0  0
  8  7  1  0  0  0  0
  9 10  1  0  0  0  0
 10  5  2  0  0  0  0
 11  7  1  0  0  0  0
 12  8  1  0  0  0  0
 13  9  1  0  0  0  0
 14 13  1  0  0  0  0
 15 10  1  0  0  0  0
 16 15  1  0  0  0  0
 16 18  1  0  0  0  0
 17 16  2  0  0  0  0
 18 20  1  0  0  0  0
 19 18  1  0  0  0  0
 21 23  1  0  0  0  0
 22 21  1  0  0  0  0
 24 32  1  0  0  0  0
 25 21  1  0  0  0  0
 25 24  2  0  0  0  0
 26 25  1  0  0  0  0
 27 26  2  0  0  0  0
 27 28  1  0  0  0  0
 28 29  2  0  0  0  0
 29 24  1  0  0  0  0
 30 26  1  0  0  0  0
 31 28  1  0  0  0  0
 32 33  1  0  0  0  0
 32 34  1  0  0  0  0
 33 37  1  0  0  0  0
 33 34  1  0  0  0  0
 34 38  1  0  0  0  0
 34 39  1  0  0  0  0
 35 32  1  0  0  0  0
 36 33  1  0  0  0  0
M  END
>  <minimizedAffinity>
-5.37060642

$$$$

 OpenBabel03272508223D

 39 41  0  0  0  0  0  0  0  0999 V2000
   37.3810   27.8340   34.6980 C   0  0  0  0  0  0  0  0  0  0  0  0
   37.9210   28.4270   33.8950 H   0  0  0  0  0  0  0  0  0  0  0  0
   37.8150   28.2520   35.6290 H   0  0  0  0  0  0  0  0  0  0  0  0
   38.6340   26.3350   36.6880 F   0  0  0  0  0  0  0  0  0  0  0  0
   38.2830   25.7830   35.4860 C   0  0  0  0  0  0  0  0  0  0  0  0
   37.6440   26.4620   34.4420 C   0  0  0  0  0  0  0  0  0  0  0  0
   37.3880   25.7370   33.3450 C   0  0  0  0  0  0  0  0  0  0  0  0
   37.7040   24.4280   33.2020 C   0  0  0  0  0  0  0  0  0  0  0  0
   38.3440   23.7390   34.2390 C   0  0  0  0  0  0  0  0  0  0  0  0
   38.6150   24.4630   35.3680 C   0  0  0  0  0  0  0  0  0  0  0  0
   36.8870   26.2770   32.5310 H   0  0  0  0  0  0  0  0  0  0  0  0
   37.4420   23.9530   32.2630 H   0  0  0  0  0  0  0  0  0  0  0  0
   38.6790   22.3110   34.0650 C   0  0  0  0  0  2  0  0  0  0  0  0
   38.0250   21.8720   33.2810 H   0  0  0  0  0  0  0  0  0  0  0  0
   39.2730   23.7300   36.3930 O   0  0  0  0  0  0  0  0  0  0  0  0
   38.4470   23.3380   37.4300 C   0  0  0  0  0  0  0  0  0  0  0  0
   37.2140   23.4140   37.0870 O   0  0  0  0  0  0  0  0  0  0  0  0
   38.6690   22.8880   38.7410 N   0  0  0  0  0  0  0  0  0  0  0  0
   37.9830   22.2690   39.2330 H   0  0  0  0  0  0  0  0  0  0  0  0
   38.7650   22.5170   39.7080 H   0  0  0  0  0  0  0  0  0  0  0  0
   35.9730   28.2950   34.6250 C   0  0  0  0  0  0  0  0  0  0  0  0
   35.3440   27.3970   34.3740 H   0  0  0  0  0  0  0  0  0  0  0  0
   35.6520   28.5640   35.6740 H   0  0  0  0  0  0  0  0  0  0  0  0
   35.6170   30.6540   34.0870 C   0  0  0  0  0  0  0  0  0  0  0  0
   35.6810   29.3450   33.7010 C   0  0  0  0  0  0  0  0  0  0  0  0
   35.4080   29.1430   32.4000 C   0  0  0  0  0  0  0  0  0  0  0  0
   35.0940   30.1310   31.5570 N   0  0  0  0  0  0  0  0  0  0  0  0
   35.0260   31.4100   31.9240 C   0  0  0  0  0  0  0  0  0  0  0  0
   35.2880   31.6850   33.1980 N   0  0  0  0  0  0  0  0  0  0  0  0
   35.4190   28.1580   31.9340 H   0  0  0  0  0  0  0  0  0  0  0  0
   34.7850   32.2890   31.3450 H   0  0  0  0  0  0  0  0  0  0  0  0
   35.9100   31.0840   35.5110 C   0  0  0  0  0  0  0  0  0  0  0  0
   35.8350   32.4310   35.9040 C   0  0  0  0  0  0  0  0  0  0  0  0
   34.6100   31.5600   36.1960 C   0  0  0  0  0  0  0  0  0  0  0  0
   36.5940   30.4030   36.0220 H   0  0  0  0  0  0  0  0  0  0  0  0
   35.6710   33.2370   35.1510 H   0  0  0  0  0  0  0  0  0  0  0  0
   36.4460   32.7940   36.7630 H   0  0  0  0  0  0  0  0  0  0  0  0
   33.7220   31.7490   35.6100 H   0  0  0  0  0  0  0  0  0  0  0  0
   34.5420   31.2780   37.2710 H   0  0  0  0  0  0  0  0  0  0  0  0
  1  3  1  0  0  0  0
  2  1  1  0  0  0  0
  5  4  1  0  0  0  0
  6  1  1  0  0  0  0
  6  5  2  0  0  0  0
  7  6  1  0  0  0  0
  8  7  2  0  0  0  0
  8  9  1  0  0  0  0
  9 10  2  0  0  0  0
 10  5  1  0  0  0  0
 10 15  1  0  0  0  0
 11  7  1  0  0  0  0
 12  8  1  0  0  0  0
 13  9  1  0  0  0  0
 14 13  1  0  0  0  0
 15 16  1  0  0  0  0
 16 18  1  0  0  0  0
 17 16  2  0  0  0  0
 18 19  1  0  0  0  0
 18 20  1  0  0  0  0
 21  1  1  0  0  0  0
 21 23  1  0  0  0  0
 22 21  1  0  0  0  0
 24 32  1  0  0  0  0
 25 24  1  0  0  0  0
 25 21  1  0  0  0  0
 26 25  2  0  0  0  0
 27 28  2  0  0  0  0
 27 26  1  0  0  0  0
 28 29  1  0  0  0  0
 29 24  2  0  0  0  0
 30 26  1  0  0  0  0
 31 28  1  0  0  0  0
 32 33  1  0  0  0  0
 32 35  1  0  0  0  0
 32 34  1  0  0  0  0
 33 34  1  0  0  0  0
 33 37  1  0  0  0  0
 34 39  1  0  0  0  0
 36 33  1  0  0  0  0
 38 34  1  0  0  0  0
M  END
>  <minimizedAffinity>
-5.35938406

$$$$

 OpenBabel03272508223D

 39 41  0  0  0  0  0  0  0  0999 V2000
   35.2370   30.1860   34.6910 C   0  0  0  0  0  0  0  0  0  0  0  0
   35.1960   29.1620   35.1800 H   0  0  0  0  0  0  0  0  0  0  0  0
   34.1930   30.5410   34.8040 H   0  0  0  0  0  0  0  0  0  0  0  0
   36.3060   27.6990   34.0190 F   0  0  0  0  0  0  0  0  0  0  0  0
   36.2240   28.7170   33.1080 C   0  0  0  0  0  0  0  0  0  0  0  0
   35.6940   29.9880   33.3610 C   0  0  0  0  0  0  0  0  0  0  0  0
   35.7090   30.8420   32.3300 C   0  0  0  0  0  0  0  0  0  0  0  0
   36.1910   30.5480   31.0990 C   0  0  0  0  0  0  0  0  0  0  0  0
   36.7240   29.2810   30.8340 C   0  0  0  0  0  0  0  0  0  0  0  0
   36.7200   28.3950   31.8760 C   0  0  0  0  0  0  0  0  0  0  0  0
   35.2920   31.8360   32.5370 H   0  0  0  0  0  0  0  0  0  0  0  0
   36.1450   31.3280   30.3480 H   0  0  0  0  0  0  0  0  0  0  0  0
   37.2450   28.9790   29.4860 C   0  0  0  0  0  2  0  0  0  0  0  0
   36.7850   29.6730   28.7490 H   0  0  0  0  0  0  0  0  0  0  0  0
   37.2780   27.1240   31.5690 O   0  0  0  0  0  0  0  0  0  0  0  0
   36.3410   26.1400   31.3110 C   0  0  0  0  0  0  0  0  0  0  0  0
   36.4420   25.1790   32.1540 O   0  0  0  0  0  0  0  0  0  0  0  0
   35.3350   25.9770   30.3460 N   0  0  0  0  0  0  0  0  0  0  0  0
   34.4830   25.3960   30.5330 H   0  0  0  0  0  0  0  0  0  0  0  0
   34.5510   25.8100   29.6840 H   0  0  0  0  0  0  0  0  0  0  0  0
   36.0790   31.0040   35.5980 C   0  0  0  0  0  0  0  0  0  0  0  0
   36.3630   30.3470   36.4660 H   0  0  0  0  0  0  0  0  0  0  0  0
   37.0590   31.1900   35.0690 H   0  0  0  0  0  0  0  0  0  0  0  0
   35.9280   33.4440   35.6600 C   0  0  0  0  0  0  0  0  0  0  0  0
   35.5110   32.2170   36.0940 C   0  0  0  0  0  0  0  0  0  0  0  0
   34.5620   32.2660   37.0450 C   0  0  0  0  0  0  0  0  0  0  0  0
   34.0710   33.4100   37.5300 N   0  0  0  0  0  0  0  0  0  0  0  0
   34.4720   34.6100   37.1150 C   0  0  0  0  0  0  0  0  0  0  0  0
   35.4090   34.6400   36.1720 N   0  0  0  0  0  0  0  0  0  0  0  0
   34.1220   31.3760   37.4940 H   0  0  0  0  0  0  0  0  0  0  0  0
   34.1580   35.5960   37.4250 H   0  0  0  0  0  0  0  0  0  0  0  0
   36.9800   33.5950   34.5780 C   0  0  0  0  0  0  0  0  0  0  0  0
   37.3390   34.8560   34.0710 C   0  0  0  0  0  0  0  0  0  0  0  0
   38.2410   34.2710   35.1610 C   0  0  0  0  0  0  0  0  0  0  0  0
   37.0620   32.7090   33.9460 H   0  0  0  0  0  0  0  0  0  0  0  0
   36.7750   35.7720   34.3680 H   0  0  0  0  0  0  0  0  0  0  0  0
   37.7440   34.9440   33.0360 H   0  0  0  0  0  0  0  0  0  0  0  0
   38.2080   34.7430   36.1320 H   0  0  0  0  0  0  0  0  0  0  0  0
   39.1940   33.8700   34.7470 H   0  0  0  0  0  0  0  0  0  0  0  0
  1  3  1  0  0  0  0
  1  2  1  0  0  0  0
  1 21  1  0  0  0  0
  5  6  1  0  0  0  0
  5  4  1  0  0  0  0
  6  1  1  0  0  0  0
  7 11  1  0  0  0  0
  7  6  2  0  0  0  0
  8  7  1  0  0  0  0
  9  8  2  0  0  0  0
  9 10  1  0  0  0  0
 10  5  2  0  0  0  0
 12  8  1  0  0  0  0
 13  9  1  0  0  0  0
 14 13  1  0  0  0  0
 15 10  1  0  0  0  0
 16 15  1  0  0  0  0
 16 17  2  0  0  0  0
 18 19  1  0  0  0  0
 18 16  1  0  0  0  0
 20 18  1  0  0  0  0
 21 25  1  0  0  0  0
 21 22  1  0  0  0  0
 23 21  1  0  0  0  0
 24 25  2  0  0  0  0
 24 29  1  0  0  0  0
 25 26  1  0  0  0  0
 26 30  1  0  0  0  0
 26 27  2  0  0  0  0
 28 31  1  0  0  0  0
 28 27  1  0  0  0  0
 29 28  2  0  0  0  0
 32 34  1  0  0  0  0
 32 24  1  0  0  0  0
 33 36  1  0  0  0  0
 33 32  1  0  0  0  0
 33 34  1  0  0  0  0
 34 38  1  0  0  0  0
 35 32  1  0  0  0  0
 37 33  1  0  0  0  0
 39 34  1  0  0  0  0
M  END
>  <minimizedAffinity>
-5.31369019

$$$$

 OpenBabel03272508223D

 39 41  0  0  0  0  0  0  0  0999 V2000
   35.2860   30.2590   34.7280 C   0  0  0  0  0  0  0  0  0  0  0  0
   34.4350   29.8220   35.3400 H   0  0  0  0  0  0  0  0  0  0  0  0
   34.7560   30.9780   34.0720 H   0  0  0  0  0  0  0  0  0  0  0  0
   35.0150   30.0230   31.9620 F   0  0  0  0  0  0  0  0  0  0  0  0
   35.7340   29.1180   32.6940 C   0  0  0  0  0  0  0  0  0  0  0  0
   35.9260   29.1700   34.0800 C   0  0  0  0  0  0  0  0  0  0  0  0
   36.6640   28.1820   34.6030 C   0  0  0  0  0  0  0  0  0  0  0  0
   37.2150   27.1740   33.8860 C   0  0  0  0  0  0  0  0  0  0  0  0
   37.0290   27.1120   32.5000 C   0  0  0  0  0  0  0  0  0  0  0  0
   36.2760   28.1110   31.9460 C   0  0  0  0  0  0  0  0  0  0  0  0
   36.8100   28.2300   35.6910 H   0  0  0  0  0  0  0  0  0  0  0  0
   37.7930   26.4350   34.4290 H   0  0  0  0  0  0  0  0  0  0  0  0
   37.6380   26.0060   31.7340 C   0  0  0  0  0  2  0  0  0  0  0  0
   38.4910   25.5860   32.3090 H   0  0  0  0  0  0  0  0  0  0  0  0
   36.1020   28.0050   30.5390 O   0  0  0  0  0  0  0  0  0  0  0  0
   37.1390   28.5440   29.7980 C   0  0  0  0  0  0  0  0  0  0  0  0
   37.4210   29.7290   30.1990 O   0  0  0  0  0  0  0  0  0  0  0  0
   37.9220   28.0790   28.7290 N   0  0  0  0  0  0  0  0  0  0  0  0
   38.8920   28.4350   28.5640 H   0  0  0  0  0  0  0  0  0  0  0  0
   38.5590   27.7840   27.9620 H   0  0  0  0  0  0  0  0  0  0  0  0
   36.0800   31.0520   35.6980 C   0  0  0  0  0  0  0  0  0  0  0  0
   36.3070   30.3770   36.5690 H   0  0  0  0  0  0  0  0  0  0  0  0
   37.0920   31.2380   35.2310 H   0  0  0  0  0  0  0  0  0  0  0  0
   35.9200   33.4910   35.7660 C   0  0  0  0  0  0  0  0  0  0  0  0
   35.4950   32.2610   36.1830 C   0  0  0  0  0  0  0  0  0  0  0  0
   34.5180   32.3030   37.1050 C   0  0  0  0  0  0  0  0  0  0  0  0
   34.0090   33.4440   37.5800 N   0  0  0  0  0  0  0  0  0  0  0  0
   34.4190   34.6470   37.1830 C   0  0  0  0  0  0  0  0  0  0  0  0
   35.3830   34.6830   36.2670 N   0  0  0  0  0  0  0  0  0  0  0  0
   34.0680   31.4100   37.5380 H   0  0  0  0  0  0  0  0  0  0  0  0
   34.0920   35.6310   37.4880 H   0  0  0  0  0  0  0  0  0  0  0  0
   37.0030   33.6500   34.7160 C   0  0  0  0  0  0  0  0  0  0  0  0
   37.3960   34.9170   34.2500 C   0  0  0  0  0  0  0  0  0  0  0  0
   38.2590   34.2890   35.3480 C   0  0  0  0  0  0  0  0  0  0  0  0
   37.0870   32.7780   34.0640 H   0  0  0  0  0  0  0  0  0  0  0  0
   36.8400   35.8340   34.5540 H   0  0  0  0  0  0  0  0  0  0  0  0
   37.8300   35.0220   33.2280 H   0  0  0  0  0  0  0  0  0  0  0  0
   38.2080   34.7390   36.3290 H   0  0  0  0  0  0  0  0  0  0  0  0
   39.2160   33.8820   34.9490 H   0  0  0  0  0  0  0  0  0  0  0  0
  1  2  1  0  0  0  0
  1 21  1  0  0  0  0
  3  1  1  0  0  0  0
  4  5  1  0  0  0  0
  5  6  1  0  0  0  0
  6  7  2  0  0  0  0
  6  1  1  0  0  0  0
  7 11  1  0  0  0  0
  8 12  1  0  0  0  0
  8  7  1  0  0  0  0
  9  8  2  0  0  0  0
 10  9  1  0  0  0  0
 10  5  2  0  0  0  0
 13 14  1  0  0  0  0
 13  9  1  0  0  0  0
 15 10  1  0  0  0  0
 16 17  2  0  0  0  0
 16 15  1  0  0  0  0
 18 16  1  0  0  0  0
 19 18  1  0  0  0  0
 20 18  1  0  0  0  0
 21 25  1  0  0  0  0
 21 22  1  0  0  0  0
 23 21  1  0  0  0  0
 24 25  2  0  0  0  0
 24 29  1  0  0  0  0
 25 26  1  0  0  0  0
 26 30  1  0  0  0  0
 26 27  2  0  0  0  0
 28 31  1  0  0  0  0
 28 27  1  0  0  0  0
 29 28  2  0  0  0  0
 32 34  1  0  0  0  0
 32 24  1  0  0  0  0
 33 36  1  0  0  0  0
 33 32  1  0  0  0  0
 33 34  1  0  0  0  0
 34 38  1  0  0  0  0
 35 32  1  0  0  0  0
 37 33  1  0  0  0  0
 39 34  1  0  0  0  0
M  END
>  <minimizedAffinity>
-5.2846303

$$$$

 OpenBabel03272508223D

 39 41  0  0  0  0  0  0  0  0999 V2000
   40.7030   25.8660   34.6980 C   0  0  0  0  0  0  0  0  0  0  0  0
   41.4110   26.4920   35.3270 H   0  0  0  0  0  0  0  0  0  0  0  0
   41.2640   25.7650   33.7470 H   0  0  0  0  0  0  0  0  0  0  0  0
   39.5570   26.2940   32.1920 F   0  0  0  0  0  0  0  0  0  0  0  0
   38.9720   26.7570   33.3390 C   0  0  0  0  0  0  0  0  0  0  0  0
   39.4760   26.5760   34.6330 C   0  0  0  0  0  0  0  0  0  0  0  0
   38.7480   27.1110   35.6220 C   0  0  0  0  0  0  0  0  0  0  0  0
   37.5910   27.7910   35.4410 C   0  0  0  0  0  0  0  0  0  0  0  0
   37.0780   27.9780   34.1510 C   0  0  0  0  0  0  0  0  0  0  0  0
   37.8080   27.4410   33.1270 C   0  0  0  0  0  0  0  0  0  0  0  0
   39.1510   26.9650   36.6330 H   0  0  0  0  0  0  0  0  0  0  0  0
   37.0960   28.1750   36.3250 H   0  0  0  0  0  0  0  0  0  0  0  0
   35.8150   28.7220   33.9730 C   0  0  0  0  0  2  0  0  0  0  0  0
   35.2350   28.6950   34.9210 H   0  0  0  0  0  0  0  0  0  0  0  0
   37.2580   27.6620   31.8340 O   0  0  0  0  0  0  0  0  0  0  0  0
   36.6550   26.5490   31.2770 C   0  0  0  0  0  0  0  0  0  0  0  0
   35.3860   26.5760   31.4600 O   0  0  0  0  0  0  0  0  0  0  0  0
   37.1270   25.4290   30.5740 N   0  0  0  0  0  0  0  0  0  0  0  0
   36.5210   24.9120   29.8950 H   0  0  0  0  0  0  0  0  0  0  0  0
   37.4050   24.5950   30.0200 H   0  0  0  0  0  0  0  0  0  0  0  0
   40.6990   24.5330   35.3490 C   0  0  0  0  0  0  0  0  0  0  0  0
   41.6850   24.0460   35.1120 H   0  0  0  0  0  0  0  0  0  0  0  0
   40.7440   24.7040   36.4650 H   0  0  0  0  0  0  0  0  0  0  0  0
   38.7790   23.1340   35.9290 C   0  0  0  0  0  0  0  0  0  0  0  0
   39.6390   23.6420   34.9970 C   0  0  0  0  0  0  0  0  0  0  0  0
   39.4190   23.1960   33.7480 C   0  0  0  0  0  0  0  0  0  0  0  0
   38.4500   22.3290   33.4410 N   0  0  0  0  0  0  0  0  0  0  0  0
   37.6080   21.8260   34.3430 C   0  0  0  0  0  0  0  0  0  0  0  0
   37.7640   22.2260   35.6020 N   0  0  0  0  0  0  0  0  0  0  0  0
   40.0160   23.5060   32.8910 H   0  0  0  0  0  0  0  0  0  0  0  0
   36.7940   21.1260   34.2220 H   0  0  0  0  0  0  0  0  0  0  0  0
   38.8560   23.5310   37.3910 C   0  0  0  0  0  0  0  0  0  0  0  0
   38.0220   24.5260   37.9290 C   0  0  0  0  0  0  0  0  0  0  0  0
   37.5790   23.0740   38.1290 C   0  0  0  0  0  0  0  0  0  0  0  0
   39.8440   23.3550   37.8210 H   0  0  0  0  0  0  0  0  0  0  0  0
   37.3600   25.1340   37.2690 H   0  0  0  0  0  0  0  0  0  0  0  0
   38.3550   25.1080   38.8200 H   0  0  0  0  0  0  0  0  0  0  0  0
   36.7150   22.7430   37.5720 H   0  0  0  0  0  0  0  0  0  0  0  0
   37.7670   22.7170   39.1670 H   0  0  0  0  0  0  0  0  0  0  0  0
  1  2  1  0  0  0  0
  1 21  1  0  0  0  0
  3  1  1  0  0  0  0
  4  5  1  0  0  0  0
  5  6  1  0  0  0  0
  6  1  1  0  0  0  0
  6  7  2  0  0  0  0
  7 11  1  0  0  0  0
  8  7  1  0  0  0  0
  8 12  1  0  0  0  0
  9  8  2  0  0  0  0
 10  5  2  0  0  0  0
 10  9  1  0  0  0  0
 13  9  1  0  0  0  0
 13 14  1  0  0  0  0
 15 10  1  0  0  0  0
 16 17  2  0  0  0  0
 16 15  1  0  0  0  0
 18 16  1  0  0  0  0
 19 18  1  0  0  0  0
 20 18  1  0  0  0  0
 21 23  1  0  0  0  0
 22 21  1  0  0  0  0
 24 32  1  0  0  0  0
 25 21  1  0  0  0  0
 25 24  2  0  0  0  0
 26 25  1  0  0  0  0
 27 26  2  0  0  0  0
 27 28  1  0  0  0  0
 28 29  2  0  0  0  0
 29 24  1  0  0  0  0
 30 26  1  0  0  0  0
 31 28  1  0  0  0  0
 32 35  1  0  0  0  0
 32 33  1  0  0  0  0
 32 34  1  0  0  0  0
 33 34  1  0  0  0  0
 33 37  1  0  0  0  0
 34 39  1  0  0  0  0
 36 33  1  0  0  0  0
 38 34  1  0  0  0  0
M  END
>  <minimizedAffinity>
-5.25640488

$$$$

 OpenBabel03272508223D

 39 41  0  0  0  0  0  0  0  0999 V2000
   39.4070   27.0450   34.0040 C   0  0  0  0  0  0  0  0  0  0  0  0
   39.9980   27.9820   34.2530 H   0  0  0  0  0  0  0  0  0  0  0  0
   38.4230   27.2600   34.4660 H   0  0  0  0  0  0  0  0  0  0  0  0
   37.9660   24.8770   35.0060 F   0  0  0  0  0  0  0  0  0  0  0  0
   39.3340   24.9070   35.0350 C   0  0  0  0  0  0  0  0  0  0  0  0
   40.1300   25.9490   34.5450 C   0  0  0  0  0  0  0  0  0  0  0  0
   41.4530   25.7800   34.6710 C   0  0  0  0  0  0  0  0  0  0  0  0
   42.0380   24.6920   35.2260 C   0  0  0  0  0  0  0  0  0  0  0  0
   41.2510   23.6440   35.7190 C   0  0  0  0  0  0  0  0  0  0  0  0
   39.8970   23.7980   35.6020 C   0  0  0  0  0  0  0  0  0  0  0  0
   42.0700   26.6030   34.2850 H   0  0  0  0  0  0  0  0  0  0  0  0
   43.1210   24.6760   35.2680 H   0  0  0  0  0  0  0  0  0  0  0  0
   41.9070   22.4650   36.3200 C   0  0  0  0  0  2  0  0  0  0  0  0
   42.9500   22.3920   35.9450 H   0  0  0  0  0  0  0  0  0  0  0  0
   39.1350   22.7170   36.1230 O   0  0  0  0  0  0  0  0  0  0  0  0
   38.6350   22.9370   37.3940 C   0  0  0  0  0  0  0  0  0  0  0  0
   37.3690   23.1400   37.3590 O   0  0  0  0  0  0  0  0  0  0  0  0
   39.2060   22.9840   38.6760 N   0  0  0  0  0  0  0  0  0  0  0  0
   38.6490   22.7610   39.5340 H   0  0  0  0  0  0  0  0  0  0  0  0
   39.5590   22.9970   39.6540 H   0  0  0  0  0  0  0  0  0  0  0  0
   39.2230   27.0950   32.5330 C   0  0  0  0  0  0  0  0  0  0  0  0
   39.2290   28.1800   32.2370 H   0  0  0  0  0  0  0  0  0  0  0  0
   40.1630   26.6810   32.0630 H   0  0  0  0  0  0  0  0  0  0  0  0
   36.8500   27.1160   31.9430 C   0  0  0  0  0  0  0  0  0  0  0  0
   38.0520   26.4700   32.0040 C   0  0  0  0  0  0  0  0  0  0  0  0
   38.0160   25.2010   31.5620 C   0  0  0  0  0  0  0  0  0  0  0  0
   36.9030   24.6170   31.1080 N   0  0  0  0  0  0  0  0  0  0  0  0
   35.7250   25.2370   31.0490 C   0  0  0  0  0  0  0  0  0  0  0  0
   35.6870   26.4980   31.4670 N   0  0  0  0  0  0  0  0  0  0  0  0
   38.8900   24.5520   31.5410 H   0  0  0  0  0  0  0  0  0  0  0  0
   34.7650   24.8780   30.7080 H   0  0  0  0  0  0  0  0  0  0  0  0
   36.6930   28.5600   32.3810 C   0  0  0  0  0  0  0  0  0  0  0  0
   35.4280   29.1590   32.5040 C   0  0  0  0  0  0  0  0  0  0  0  0
   36.0610   28.6190   33.7890 C   0  0  0  0  0  0  0  0  0  0  0  0
   37.5650   29.1700   32.1330 H   0  0  0  0  0  0  0  0  0  0  0  0
   34.5080   28.6240   32.1710 H   0  0  0  0  0  0  0  0  0  0  0  0
   35.3220   30.2630   32.3870 H   0  0  0  0  0  0  0  0  0  0  0  0
   35.6140   27.7370   34.2230 H   0  0  0  0  0  0  0  0  0  0  0  0
   36.4720   29.4320   34.4290 H   0  0  0  0  0  0  0  0  0  0  0  0
  1  2  1  0  0  0  0
  1  3  1  0  0  0  0
  1  6  1  0  0  0  0
  4  5  1  0  0  0  0
  5 10  1  0  0  0  0
  6  7  1  0  0  0  0
  6  5  2  0  0  0  0
  7  8  2  0  0  0  0
  8 12  1  0  0  0  0
  8  9  1  0  0  0  0
  9 13  1  0  0  0  0
 10  9  2  0  0  0  0
 10 15  1  0  0  0  0
 11  7  1  0  0  0  0
 14 13  1  0  0  0  0
 15 16  1  0  0  0  0
 16 18  1  0  0  0  0
 17 16  2  0  0  0  0
 18 19  1  0  0  0  0
 18 20  1  0  0  0  0
 21  1  1  0  0  0  0
 22 21  1  0  0  0  0
 23 21  1  0  0  0  0
 24 25  1  0  0  0  0
 24 32  1  0  0  0  0
 25 21  1  0  0  0  0
 26 25  2  0  0  0  0
 27 26  1  0  0  0  0
 28 27  2  0  0  0  0
 28 29  1  0  0  0  0
 29 24  2  0  0  0  0
 30 26  1  0  0  0  0
 31 28  1  0  0  0  0
 32 33  1  0  0  0  0
 32 34  1  0  0  0  0
 33 34  1  0  0  0  0
 34 38  1  0  0  0  0
 34 39  1  0  0  0  0
 35 32  1  0  0  0  0
 36 33  1  0  0  0  0
 37 33  1  0  0  0  0
M  END
>  <minimizedAffinity>
-5.22694254

$$$$
