
     RDKit          3D

 41 43  0  0  0  0  0  0  0  0999 V2000
   33.1695   28.2349   49.0947 C   0  0  0  0  0  0  0  0  0  0  0  0
   30.9485   27.3659   48.5545 C   0  0  0  0  0  0  0  0  0  0  0  0
   32.2710   27.5171   48.2471 C   0  0  0  0  0  0  0  0  0  0  0  0
   32.6443   26.9006   47.1124 C   0  0  0  0  0  0  0  0  0  0  0  0
   31.8012   26.1974   46.3507 N   0  0  0  0  0  0  0  0  0  0  0  0
   30.5112   26.0412   46.6434 C   0  0  0  0  0  0  0  0  0  0  0  0
   30.0686   26.6268   47.7525 N   0  0  0  0  0  0  0  0  0  0  0  0
   30.3341   28.0016   49.7856 C   0  0  0  0  0  0  0  0  0  0  0  0
   28.9878   28.4061   49.8129 C   0  0  0  0  0  0  0  0  0  0  0  0
   29.3077   27.0384   50.4206 C   0  0  0  0  0  0  0  0  0  0  0  0
   34.5724   28.3690   48.6323 C   0  0  0  0  0  0  0  0  0  0  0  0
   35.5225   30.7913   47.6283 F   0  0  0  0  0  0  0  0  0  0  0  0
   35.9044   30.3222   48.8565 C   0  0  0  0  0  0  0  0  0  0  0  0
   35.4664   29.1245   49.4349 C   0  0  0  0  0  0  0  0  0  0  0  0
   35.9615   28.8488   50.6479 C   0  0  0  0  0  0  0  0  0  0  0  0
   36.8322   29.6409   51.3187 C   0  0  0  0  0  0  0  0  0  0  0  0
   37.2767   30.8405   50.7486 C   0  0  0  0  0  0  0  0  0  0  0  0
   36.7830   31.1393   49.5092 C   0  0  0  0  0  0  0  0  0  0  0  0
   37.2674   32.3586   48.9621 O   0  0  0  0  0  0  0  0  0  0  0  0
   38.5036   32.2559   48.3523 C   0  0  0  0  0  0  0  0  0  0  0  0
   39.1890   33.3270   48.5216 O   0  0  0  0  0  0  0  0  0  0  0  0
   39.1470   31.2549   47.6070 N   0  0  0  0  0  0  0  0  0  0  0  0
   33.1999   27.7389   50.1041 H   0  0  0  0  0  0  0  0  0  0  0  0
   32.7880   29.2748   49.3167 H   0  0  0  0  0  0  0  0  0  0  0  0
   33.6632   26.9275   46.7275 H   0  0  0  0  0  0  0  0  0  0  0  0
   29.7368   25.5023   46.1164 H   0  0  0  0  0  0  0  0  0  0  0  0
   31.0722   28.5186   50.4033 H   0  0  0  0  0  0  0  0  0  0  0  0
   28.3647   28.3767   48.8893 H   0  0  0  0  0  0  0  0  0  0  0  0
   28.6690   29.2294   50.4946 H   0  0  0  0  0  0  0  0  0  0  0  0
   28.9679   26.1684   49.8778 H   0  0  0  0  0  0  0  0  0  0  0  0
   29.3031   27.0613   51.5337 H   0  0  0  0  0  0  0  0  0  0  0  0
   34.9709   27.3058   48.6087 H   0  0  0  0  0  0  0  0  0  0  0  0
   34.5393   28.6289   47.5548 H   0  0  0  0  0  0  0  0  0  0  0  0
   35.6135   27.9078   51.0952 H   0  0  0  0  0  0  0  0  0  0  0  0
   37.1586   29.3053   52.2960 H   0  0  0  0  0  0  0  0  0  0  0  0
   40.1913   31.1814   47.5715 H   0  0  0  0  0  0  0  0  0  0  0  0
   39.6923   30.5438   47.0792 H   0  0  0  0  0  0  0  0  0  0  0  0
   38.2250   31.6911   51.4958 C   0  0  0  0  0  0  0  0  0  0  0  0
   39.2039   31.7022   50.9700 H   0  0  0  0  0  0  0  0  0  0  0  0
   38.3895   31.1759   52.4873 H   0  0  0  0  0  0  0  0  0  0  0  0
   37.8194   32.6887   51.7019 H   0  0  0  0  0  0  0  0  0  0  0  0
  2  8  1  0
  3  2  1  0
  3  1  1  0
  4  3  2  0
  5  6  2  0
  5  4  1  0
  6  7  1  0
  7  2  2  0
  8  9  1  0
  8 10  1  0
  9 10  1  0
 11  1  1  0
 11 14  1  0
 12 13  1  0
 13 14  2  0
 13 18  1  0
 14 15  1  0
 15 16  2  0
 17 16  1  0
 18 17  2  0
 19 18  1  0
 20 21  2  0
 20 19  1  0
 22 20  1  0
  1 23  1  0
  1 24  1  0
  4 25  1  0
  6 26  1  0
  8 27  1  0
  9 28  1  0
  9 29  1  0
 10 30  1  0
 10 31  1  0
 11 32  1  0
 11 33  1  0
 15 34  1  0
 16 35  1  0
 22 36  1  0
 22 37  1  0
 38 39  1  0
 38 40  1  0
 38 41  1  0
 17 38  1  0
M  ISO  8  23   8  24   8  25  14  26  14  27  13  28  13  29  13  30  13
M  ISO  6  31  13  32   8  33   8  34  14  35  14  39   8
M  END
>  <DihAtoms>  (1) 
15,16,37,38

>  <DihDeg>  (1) 
-22.256010708703027

$$$$
