REMARK  Name = 
REMARK  5 active torsions:
REMARK  status: ('A' for Active; 'I' for Inactive)
REMARK    1  A    between atoms: C_1  and  C_6
REMARK    2  A    between atoms: C_4  and  C_14
REMARK    3  A    between atoms: C_6  and  C_8
REMARK    4  A    between atoms: C_14  and  C_16
REMARK    5  A    between atoms: C_18  and  C_28
REMARK                            x       y       z     vdW  Elec       q    Type
REMARK                         _______ _______ _______ _____ _____    ______ ____
ROOT
ATOM      1  C   UNL     1      35.826  29.134  49.803  0.00  0.00    +0.000 A 
ATOM      2  C   UNL     1      34.808  29.658  50.569  0.00  0.00    +0.000 A 
ATOM      3  C   UNL     1      33.600  29.122  50.090  0.00  0.00    +0.000 A 
ATOM      4  C   UNL     1      33.971  28.298  49.052  0.00  0.00    +0.000 A 
ATOM      5  O   UNL     1      35.280  28.337  48.922  0.00  0.00    +0.000 OA
ATOM      6  H   UNL     1      34.858  30.355  51.399  0.00  0.00    +0.000 HD
ATOM      7  H   UNL     1      32.576  29.301  50.443  0.00  0.00    +0.000 HD
ENDROOT
BRANCH   1   8
ATOM      8  C   UNL     1      37.219  29.481  50.032  0.00  0.00    +0.000 C 
ATOM      9  O   UNL     1      37.858  28.873  50.902  0.00  0.00    +0.000 OA
BRANCH   8  10
ATOM     10  C   UNL     1      37.770  30.530  49.214  0.00  0.00    +0.000 A 
ATOM     11  C   UNL     1      38.105  31.722  49.845  0.00  0.00    +0.000 A 
ATOM     12  C   UNL     1      38.638  32.764  49.075  0.00  0.00    +0.000 A 
ATOM     13  N   UNL     1      38.798  32.540  47.734  0.00  0.00    +0.000 NA
ATOM     14  C   UNL     1      38.469  31.390  47.154  0.00  0.00    +0.000 A 
ATOM     15  N   UNL     1      37.955  30.381  47.885  0.00  0.00    +0.000 NA
ATOM     16  H   UNL     1      37.957  31.838  50.903  0.00  0.00    +0.000 HD
ATOM     17  H   UNL     1      38.913  33.711  49.533  0.00  0.00    +0.000 HD
ATOM     18  H   UNL     1      38.612  31.251  46.081  0.00  0.00    +0.000 HD
ENDBRANCH   8  10
ENDBRANCH   1   8
BRANCH   4  19
ATOM     19  C   UNL     1      33.063  27.501  48.225  0.00  0.00    +0.000 C 
ATOM     20  O   UNL     1      31.842  27.411  48.585  0.00  0.00    +0.000 OA
BRANCH  19  21
ATOM     21  C   UNL     1      33.565  26.806  46.992  0.00  0.00    +0.000 C 
ATOM     22  C   UNL     1      33.788  25.275  47.293  0.00  0.00    +0.000 C 
ATOM     23  C   UNL     1      32.766  25.770  46.336  0.00  0.00    +0.000 C 
ATOM     24  H   UNL     1      34.544  27.203  46.645  0.00  0.00    +0.000 HD
ATOM     25  H   UNL     1      34.700  24.811  46.931  0.00  0.00    +0.000 HD
ATOM     26  H   UNL     1      33.369  24.887  48.234  0.00  0.00    +0.000 HD
ATOM     27  H   UNL     1      33.017  25.582  45.251  0.00  0.00    +0.000 HD
BRANCH  23  28
ATOM     28  C   UNL     1      31.296  25.656  46.598  0.00  0.00    +0.000 C 
ATOM     29  H   UNL     1      31.012  26.025  47.612  0.00  0.00    +0.000 HD
ENDBRANCH  23  28
ENDBRANCH  19  21
ENDBRANCH   4  19
TORSDOF 5
