
 OpenBabel03272502443D

 28 30  0  0  0  0  0  0  0  0999 V2000
   36.5490   28.7070   31.8950 C   0  0  0  0  0  0  0  0  0  0  0  0
   37.0720   27.5180   32.3950 C   0  0  0  0  0  0  0  0  0  0  0  0
   36.9530   27.3110   33.7850 C   0  0  0  0  0  0  0  0  0  0  0  0
   36.3470   28.2680   34.5380 N   0  0  0  0  0  0  0  0  0  0  0  0
   35.8570   29.4070   34.0050 C   0  0  0  0  0  0  0  0  0  0  0  0
   35.9670   29.6100   32.6780 N   0  0  0  0  0  0  0  0  0  0  0  0
   36.6610   28.8290   30.8220 H   0  0  0  0  0  0  0  0  0  0  0  0
   37.5580   26.7290   31.8420 H   0  0  0  0  0  0  0  0  0  0  0  0
   32.8930   29.3290   34.0080 Cl  0  0  0  0  0  0  0  0  0  0  0  0
   33.8370   30.4260   34.9440 C   0  0  0  0  0  0  0  0  0  0  0  0
   35.2260   30.3780   34.8690 C   0  0  0  0  0  0  0  0  0  0  0  0
   35.9980   31.2300   35.5950 C   0  0  0  0  0  0  0  0  0  0  0  0
   35.4220   32.1760   36.4350 C   0  0  0  0  0  0  0  0  0  0  0  0
   34.0530   32.2470   36.5300 C   0  0  0  0  0  0  0  0  0  0  0  0
   33.2050   33.3940   37.5540 Cl  0  0  0  0  0  0  0  0  0  0  0  0
   33.3090   31.3720   35.7850 C   0  0  0  0  0  0  0  0  0  0  0  0
   37.0820   31.2470   35.5830 H   0  0  0  0  0  0  0  0  0  0  0  0
   35.9820   32.8790   37.0360 H   0  0  0  0  0  0  0  0  0  0  0  0
   32.2080   31.3610   35.8020 H   0  0  0  0  0  0  0  0  0  0  0  0
   37.4600   26.1080   34.4130 C   0  0  0  0  0  0  0  0  0  0  0  0
   37.8880   24.9850   33.7100 C   0  0  0  0  0  0  0  0  0  0  0  0
   38.3080   24.0150   34.5600 N   0  0  0  0  0  0  0  0  0  0  0  0
   38.1460   24.5230   35.7950 C   0  0  0  0  0  0  0  0  0  0  0  0
   37.6470   25.7500   35.6840 N   0  0  0  0  0  0  0  0  0  0  0  0
   37.9090   24.8400   32.6340 H   0  0  0  0  0  0  0  0  0  0  0  0
   38.6760   23.0800   34.3030 H   0  0  0  0  0  0  0  0  0  0  0  0
   38.4620   23.8480   37.1030 C   0  0  0  0  0  2  0  0  0  0  0  0
   38.8650   24.5820   37.8540 H   0  0  0  0  0  0  0  0  0  0  0  0
  1  2  2  0  0  0  0
  1  6  1  0  0  0  0
  2  3  1  0  0  0  0
  3 20  1  0  0  0  0
  3  4  2  0  0  0  0
  5  4  1  0  0  0  0
  5 11  1  0  0  0  0
  6  5  2  0  0  0  0
  7  1  1  0  0  0  0
  8  2  1  0  0  0  0
  9 10  1  0  0  0  0
 10 16  1  0  0  0  0
 11 10  2  0  0  0  0
 11 12  1  0  0  0  0
 12 13  2  0  0  0  0
 13 14  1  0  0  0  0
 13 18  1  0  0  0  0
 14 15  1  0  0  0  0
 16 19  1  0  0  0  0
 16 14  2  0  0  0  0
 17 12  1  0  0  0  0
 20 24  1  0  0  0  0
 21 20  2  0  0  0  0
 21 22  1  0  0  0  0
 22 23  1  0  0  0  0
 23 27  1  0  0  0  0
 24 23  2  0  0  0  0
 25 21  1  0  0  0  0
 26 22  1  0  0  0  0
 27 28  1  0  0  0  0
M  END
>  <minimizedAffinity>
-5.46967983

$$$$

 OpenBabel03272502443D

 28 30  0  0  0  0  0  0  0  0999 V2000
   36.4510   29.4870   30.5850 C   0  0  0  0  0  0  0  0  0  0  0  0
   36.6240   28.1060   30.5800 C   0  0  0  0  0  0  0  0  0  0  0  0
   36.2440   27.4180   31.7510 C   0  0  0  0  0  0  0  0  0  0  0  0
   35.7410   28.1320   32.7930 N   0  0  0  0  0  0  0  0  0  0  0  0
   35.5930   29.4720   32.7490 C   0  0  0  0  0  0  0  0  0  0  0  0
   35.9550   30.1350   31.6330 N   0  0  0  0  0  0  0  0  0  0  0  0
   36.7560   29.9790   29.6660 H   0  0  0  0  0  0  0  0  0  0  0  0
   37.0160   27.4950   29.7810 H   0  0  0  0  0  0  0  0  0  0  0  0
   32.6320   29.5580   32.8650 Cl  0  0  0  0  0  0  0  0  0  0  0  0
   33.6720   30.2600   34.0470 C   0  0  0  0  0  0  0  0  0  0  0  0
   35.0520   30.1630   33.8970 C   0  0  0  0  0  0  0  0  0  0  0  0
   35.8980   30.7060   34.8120 C   0  0  0  0  0  0  0  0  0  0  0  0
   35.4080   31.3760   35.9270 C   0  0  0  0  0  0  0  0  0  0  0  0
   34.0500   31.4880   36.1030 C   0  0  0  0  0  0  0  0  0  0  0  0
   33.3070   32.3080   37.4660 Cl  0  0  0  0  0  0  0  0  0  0  0  0
   33.2300   30.9280   35.1600 C   0  0  0  0  0  0  0  0  0  0  0  0
   36.9800   30.6660   34.7560 H   0  0  0  0  0  0  0  0  0  0  0  0
   36.0290   31.8280   36.6890 H   0  0  0  0  0  0  0  0  0  0  0  0
   32.1310   30.9720   35.2240 H   0  0  0  0  0  0  0  0  0  0  0  0
   36.3790   25.9790   31.8550 C   0  0  0  0  0  0  0  0  0  0  0  0
   37.3220   25.3430   32.6570 C   0  0  0  0  0  0  0  0  0  0  0  0
   37.2140   23.9940   32.5520 N   0  0  0  0  0  0  0  0  0  0  0  0
   36.2070   23.7800   31.6870 C   0  0  0  0  0  0  0  0  0  0  0  0
   35.7330   24.9580   31.2920 N   0  0  0  0  0  0  0  0  0  0  0  0
   38.0690   25.8000   33.3000 H   0  0  0  0  0  0  0  0  0  0  0  0
   37.7920   23.2850   33.0410 H   0  0  0  0  0  0  0  0  0  0  0  0
   35.6760   22.4500   31.2220 C   0  0  0  0  0  2  0  0  0  0  0  0
   34.5610   22.4790   31.0880 H   0  0  0  0  0  0  0  0  0  0  0  0
  1  6  1  0  0  0  0
  2  1  2  0  0  0  0
  2  3  1  0  0  0  0
  3 20  1  0  0  0  0
  3  4  2  0  0  0  0
  5  4  1  0  0  0  0
  5 11  1  0  0  0  0
  6  5  2  0  0  0  0
  7  1  1  0  0  0  0
  8  2  1  0  0  0  0
  9 10  1  0  0  0  0
 10 16  1  0  0  0  0
 11 10  2  0  0  0  0
 11 12  1  0  0  0  0
 12 13  2  0  0  0  0
 13 14  1  0  0  0  0
 13 18  1  0  0  0  0
 14 15  1  0  0  0  0
 16 19  1  0  0  0  0
 16 14  2  0  0  0  0
 17 12  1  0  0  0  0
 20 21  2  0  0  0  0
 21 25  1  0  0  0  0
 22 21  1  0  0  0  0
 22 26  1  0  0  0  0
 23 22  1  0  0  0  0
 24 23  2  0  0  0  0
 24 20  1  0  0  0  0
 27 23  1  0  0  0  0
 28 27  1  0  0  0  0
M  END
>  <minimizedAffinity>
-5.21433783

$$$$

 OpenBabel03272502443D

 28 30  0  0  0  0  0  0  0  0999 V2000
   36.7960   22.1570   32.6890 C   0  0  0  0  0  0  0  0  0  0  0  0
   37.5740   21.7960   33.7850 C   0  0  0  0  0  0  0  0  0  0  0  0
   38.2370   22.8420   34.4600 C   0  0  0  0  0  0  0  0  0  0  0  0
   38.0790   24.1150   34.0080 N   0  0  0  0  0  0  0  0  0  0  0  0
   37.3130   24.4130   32.9380 C   0  0  0  0  0  0  0  0  0  0  0  0
   36.6770   23.4190   32.2890 N   0  0  0  0  0  0  0  0  0  0  0  0
   36.3030   21.3250   32.1960 H   0  0  0  0  0  0  0  0  0  0  0  0
   37.7300   20.8050   34.1830 H   0  0  0  0  0  0  0  0  0  0  0  0
   37.0760   26.3750   35.1490 Cl  0  0  0  0  0  0  0  0  0  0  0  0
   37.0760   26.7920   33.4760 C   0  0  0  0  0  0  0  0  0  0  0  0
   37.1930   25.7910   32.5160 C   0  0  0  0  0  0  0  0  0  0  0  0
   37.1960   26.0870   31.1890 C   0  0  0  0  0  0  0  0  0  0  0  0
   37.0830   27.4010   30.7520 C   0  0  0  0  0  0  0  0  0  0  0  0
   36.9660   28.4110   31.6760 C   0  0  0  0  0  0  0  0  0  0  0  0
   36.8160   30.1090   31.2520 Cl  0  0  0  0  0  0  0  0  0  0  0  0
   36.9670   28.0730   33.0030 C   0  0  0  0  0  0  0  0  0  0  0  0
   37.2840   25.3580   30.3920 H   0  0  0  0  0  0  0  0  0  0  0  0
   37.0790   27.7000   29.7120 H   0  0  0  0  0  0  0  0  0  0  0  0
   36.8770   28.8200   33.8080 H   0  0  0  0  0  0  0  0  0  0  0  0
   39.0720   22.5810   35.6150 C   0  0  0  0  0  0  0  0  0  0  0  0
   38.7620   22.9910   36.9080 C   0  0  0  0  0  0  0  0  0  0  0  0
   39.7270   22.6070   37.7810 N   0  0  0  0  0  0  0  0  0  0  0  0
   40.6440   21.9580   37.0420 C   0  0  0  0  0  0  0  0  0  0  0  0
   40.2390   21.9550   35.7750 N   0  0  0  0  0  0  0  0  0  0  0  0
   37.8870   23.5430   37.2420 H   0  0  0  0  0  0  0  0  0  0  0  0
   39.7450   22.7820   38.8030 H   0  0  0  0  0  0  0  0  0  0  0  0
   41.9220   21.3280   37.5280 C   0  0  0  0  0  2  0  0  0  0  0  0
   42.1460   20.3770   36.9710 H   0  0  0  0  0  0  0  0  0  0  0  0
  1  2  1  0  0  0  0
  2  8  1  0  0  0  0
  2  3  2  0  0  0  0
  3 20  1  0  0  0  0
  4  3  1  0  0  0  0
  5  4  2  0  0  0  0
  6  1  2  0  0  0  0
  6  5  1  0  0  0  0
  7  1  1  0  0  0  0
 10  9  1  0  0  0  0
 11  5  1  0  0  0  0
 11 10  2  0  0  0  0
 12 11  1  0  0  0  0
 13 12  2  0  0  0  0
 13 14  1  0  0  0  0
 14 16  2  0  0  0  0
 15 14  1  0  0  0  0
 16 10  1  0  0  0  0
 16 19  1  0  0  0  0
 17 12  1  0  0  0  0
 18 13  1  0  0  0  0
 20 24  1  0  0  0  0
 20 21  2  0  0  0  0
 21 25  1  0  0  0  0
 21 22  1  0  0  0  0
 22 26  1  0  0  0  0
 23 27  1  0  0  0  0
 23 22  1  0  0  0  0
 24 23  2  0  0  0  0
 28 27  1  0  0  0  0
M  END
>  <minimizedAffinity>
-5.18853521

$$$$

 OpenBabel03272502443D

 28 30  0  0  0  0  0  0  0  0999 V2000
   37.6150   22.4710   32.6140 C   0  0  0  0  0  0  0  0  0  0  0  0
   38.3890   21.9890   33.6650 C   0  0  0  0  0  0  0  0  0  0  0  0
   38.7570   22.9210   34.6580 C   0  0  0  0  0  0  0  0  0  0  0  0
   38.3400   24.2100   34.5300 N   0  0  0  0  0  0  0  0  0  0  0  0
   37.5900   24.6280   33.4890 C   0  0  0  0  0  0  0  0  0  0  0  0
   37.2360   23.7430   32.5380 N   0  0  0  0  0  0  0  0  0  0  0  0
   37.3530   21.7240   31.8710 H   0  0  0  0  0  0  0  0  0  0  0  0
   38.7430   20.9800   33.8130 H   0  0  0  0  0  0  0  0  0  0  0  0
   37.4020   25.7350   30.7450 Cl  0  0  0  0  0  0  0  0  0  0  0  0
   37.0670   26.6310   32.1790 C   0  0  0  0  0  0  0  0  0  0  0  0
   37.1860   26.0140   33.4210 C   0  0  0  0  0  0  0  0  0  0  0  0
   36.9290   26.6940   34.5700 C   0  0  0  0  0  0  0  0  0  0  0  0
   36.5390   28.0270   34.5380 C   0  0  0  0  0  0  0  0  0  0  0  0
   36.4120   28.6630   33.3270 C   0  0  0  0  0  0  0  0  0  0  0  0
   35.9270   30.3420   33.1520 Cl  0  0  0  0  0  0  0  0  0  0  0  0
   36.6800   27.9460   32.1920 C   0  0  0  0  0  0  0  0  0  0  0  0
   37.0020   26.2750   35.5670 H   0  0  0  0  0  0  0  0  0  0  0  0
   36.3200   28.6200   35.4160 H   0  0  0  0  0  0  0  0  0  0  0  0
   36.6030   28.3780   31.1810 H   0  0  0  0  0  0  0  0  0  0  0  0
   39.5600   22.5280   35.7970 C   0  0  0  0  0  0  0  0  0  0  0  0
   39.2900   22.9090   37.1080 C   0  0  0  0  0  0  0  0  0  0  0  0
   40.2110   22.3940   37.9610 N   0  0  0  0  0  0  0  0  0  0  0  0
   41.0600   21.6900   37.1910 C   0  0  0  0  0  0  0  0  0  0  0  0
   40.6590   21.7840   35.9270 N   0  0  0  0  0  0  0  0  0  0  0  0
   38.4740   23.5290   37.4680 H   0  0  0  0  0  0  0  0  0  0  0  0
   40.2450   22.5200   38.9890 H   0  0  0  0  0  0  0  0  0  0  0  0
   42.2690   20.9160   37.6450 C   0  0  0  0  0  2  0  0  0  0  0  0
   42.3990   19.9740   37.0470 H   0  0  0  0  0  0  0  0  0  0  0  0
  1  2  1  0  0  0  0
  2  8  1  0  0  0  0
  2  3  2  0  0  0  0
  3 20  1  0  0  0  0
  4  3  1  0  0  0  0
  5  4  2  0  0  0  0
  6  1  2  0  0  0  0
  6  5  1  0  0  0  0
  7  1  1  0  0  0  0
  9 10  1  0  0  0  0
 10 16  2  0  0  0  0
 10 11  1  0  0  0  0
 11  5  1  0  0  0  0
 11 12  2  0  0  0  0
 12 17  1  0  0  0  0
 13 12  1  0  0  0  0
 13 18  1  0  0  0  0
 14 13  2  0  0  0  0
 15 14  1  0  0  0  0
 16 14  1  0  0  0  0
 19 16  1  0  0  0  0
 20 24  1  0  0  0  0
 20 21  2  0  0  0  0
 21 25  1  0  0  0  0
 21 22  1  0  0  0  0
 22 26  1  0  0  0  0
 23 27  1  0  0  0  0
 23 22  1  0  0  0  0
 24 23  2  0  0  0  0
 28 27  1  0  0  0  0
M  END
>  <minimizedAffinity>
-5.11652136

$$$$

 OpenBabel03272502443D

 28 30  0  0  0  0  0  0  0  0999 V2000
   36.5600   29.5790   30.4440 C   0  0  0  0  0  0  0  0  0  0  0  0
   36.0570   30.2750   31.5400 C   0  0  0  0  0  0  0  0  0  0  0  0
   35.6580   29.5010   32.6500 C   0  0  0  0  0  0  0  0  0  0  0  0
   35.7850   28.1490   32.5820 N   0  0  0  0  0  0  0  0  0  0  0  0
   36.2780   27.5210   31.4940 C   0  0  0  0  0  0  0  0  0  0  0  0
   36.6610   28.2550   30.4320 N   0  0  0  0  0  0  0  0  0  0  0  0
   36.8560   30.2100   29.6110 H   0  0  0  0  0  0  0  0  0  0  0  0
   35.9380   31.3430   31.6430 H   0  0  0  0  0  0  0  0  0  0  0  0
   38.8810   26.4660   32.4440 Cl  0  0  0  0  0  0  0  0  0  0  0  0
   37.5650   25.4810   31.9240 C   0  0  0  0  0  0  0  0  0  0  0  0
   36.3830   26.0800   31.4970 C   0  0  0  0  0  0  0  0  0  0  0  0
   35.3270   25.3310   31.0810 C   0  0  0  0  0  0  0  0  0  0  0  0
   35.3970   23.9430   31.0720 C   0  0  0  0  0  0  0  0  0  0  0  0
   36.5510   23.3230   31.4890 C   0  0  0  0  0  0  0  0  0  0  0  0
   36.7640   21.5810   31.5240 Cl  0  0  0  0  0  0  0  0  0  0  0  0
   37.5920   24.1110   31.9000 C   0  0  0  0  0  0  0  0  0  0  0  0
   34.3810   25.7320   30.7360 H   0  0  0  0  0  0  0  0  0  0  0  0
   34.5930   23.2940   30.7530 H   0  0  0  0  0  0  0  0  0  0  0  0
   38.5510   23.6970   32.2490 H   0  0  0  0  0  0  0  0  0  0  0  0
   35.1210   30.1210   33.8440 C   0  0  0  0  0  0  0  0  0  0  0  0
   33.8470   29.8710   34.3450 C   0  0  0  0  0  0  0  0  0  0  0  0
   33.6210   30.5930   35.4720 N   0  0  0  0  0  0  0  0  0  0  0  0
   34.7490   31.2950   35.6820 C   0  0  0  0  0  0  0  0  0  0  0  0
   35.6140   31.0030   34.7150 N   0  0  0  0  0  0  0  0  0  0  0  0
   33.0900   29.2050   33.9410 H   0  0  0  0  0  0  0  0  0  0  0  0
   32.7570   30.5950   36.0450 H   0  0  0  0  0  0  0  0  0  0  0  0
   35.0230   32.2580   36.8060 C   0  0  0  0  0  2  0  0  0  0  0  0
   36.0930   32.1960   37.1450 H   0  0  0  0  0  0  0  0  0  0  0  0
  1  2  1  0  0  0  0
  2  8  1  0  0  0  0
  2  3  2  0  0  0  0
  3 20  1  0  0  0  0
  4  3  1  0  0  0  0
  5 11  1  0  0  0  0
  5  4  2  0  0  0  0
  6  1  2  0  0  0  0
  6  5  1  0  0  0  0
  7  1  1  0  0  0  0
 10  9  1  0  0  0  0
 11 10  2  0  0  0  0
 12 11  1  0  0  0  0
 13 12  2  0  0  0  0
 13 14  1  0  0  0  0
 14 15  1  0  0  0  0
 14 16  2  0  0  0  0
 16 10  1  0  0  0  0
 16 19  1  0  0  0  0
 17 12  1  0  0  0  0
 18 13  1  0  0  0  0
 20 21  2  0  0  0  0
 20 24  1  0  0  0  0
 21 22  1  0  0  0  0
 22 23  1  0  0  0  0
 22 26  1  0  0  0  0
 23 27  1  0  0  0  0
 24 23  2  0  0  0  0
 25 21  1  0  0  0  0
 27 28  1  0  0  0  0
M  END
>  <minimizedAffinity>
-5.04904079

$$$$

 OpenBabel03272502443D

 28 30  0  0  0  0  0  0  0  0999 V2000
   35.3850   29.5130   32.1810 C   0  0  0  0  0  0  0  0  0  0  0  0
   36.0060   29.6240   30.9400 C   0  0  0  0  0  0  0  0  0  0  0  0
   37.1350   28.8080   30.7230 C   0  0  0  0  0  0  0  0  0  0  0  0
   37.5410   27.9770   31.7210 N   0  0  0  0  0  0  0  0  0  0  0  0
   36.9050   27.9070   32.9090 C   0  0  0  0  0  0  0  0  0  0  0  0
   35.8260   28.6850   33.1220 N   0  0  0  0  0  0  0  0  0  0  0  0
   34.5210   30.1580   32.3090 H   0  0  0  0  0  0  0  0  0  0  0  0
   35.7220   30.2640   30.1180 H   0  0  0  0  0  0  0  0  0  0  0  0
   36.7640   25.0360   32.1810 Cl  0  0  0  0  0  0  0  0  0  0  0  0
   37.3740   25.6300   33.6800 C   0  0  0  0  0  0  0  0  0  0  0  0
   37.3960   27.0000   33.9220 C   0  0  0  0  0  0  0  0  0  0  0  0
   37.8710   27.4990   35.0940 C   0  0  0  0  0  0  0  0  0  0  0  0
   38.3500   26.6530   36.0870 C   0  0  0  0  0  0  0  0  0  0  0  0
   38.3420   25.2950   35.8770 C   0  0  0  0  0  0  0  0  0  0  0  0
   38.9190   24.1240   37.0510 Cl  0  0  0  0  0  0  0  0  0  0  0  0
   37.8560   24.8310   34.6840 C   0  0  0  0  0  0  0  0  0  0  0  0
   37.9170   28.5530   35.3450 H   0  0  0  0  0  0  0  0  0  0  0  0
   38.7410   26.9890   37.0380 H   0  0  0  0  0  0  0  0  0  0  0  0
   37.8130   23.7590   34.4350 H   0  0  0  0  0  0  0  0  0  0  0  0
   37.8570   28.8410   29.4680 C   0  0  0  0  0  0  0  0  0  0  0  0
   37.7310   29.8550   28.5240 C   0  0  0  0  0  0  0  0  0  0  0  0
   38.5260   29.6190   27.4510 N   0  0  0  0  0  0  0  0  0  0  0  0
   39.1520   28.4590   27.7160 C   0  0  0  0  0  0  0  0  0  0  0  0
   38.7450   28.0210   28.9030 N   0  0  0  0  0  0  0  0  0  0  0  0
   37.1030   30.7400   28.5760 H   0  0  0  0  0  0  0  0  0  0  0  0
   38.6240   30.2140   26.6070 H   0  0  0  0  0  0  0  0  0  0  0  0
   40.1510   27.7450   26.8430 C   0  0  0  0  0  2  0  0  0  0  0  0
   40.9550   27.2570   27.4580 H   0  0  0  0  0  0  0  0  0  0  0  0
  1  7  1  0  0  0  0
  1  6  1  0  0  0  0
  2  1  2  0  0  0  0
  3  2  1  0  0  0  0
  3  4  2  0  0  0  0
  4  5  1  0  0  0  0
  5  6  2  0  0  0  0
  5 11  1  0  0  0  0
  8  2  1  0  0  0  0
  9 10  1  0  0  0  0
 10 11  2  0  0  0  0
 10 16  1  0  0  0  0
 11 12  1  0  0  0  0
 12 17  1  0  0  0  0
 12 13  2  0  0  0  0
 13 18  1  0  0  0  0
 14 13  1  0  0  0  0
 14 15  1  0  0  0  0
 16 14  2  0  0  0  0
 19 16  1  0  0  0  0
 20  3  1  0  0  0  0
 21 25  1  0  0  0  0
 21 20  2  0  0  0  0
 22 23  1  0  0  0  0
 22 21  1  0  0  0  0
 23 24  2  0  0  0  0
 24 20  1  0  0  0  0
 26 22  1  0  0  0  0
 27 28  1  0  0  0  0
 27 23  1  0  0  0  0
M  END
>  <minimizedAffinity>
-5.03290844

$$$$

 OpenBabel03272502443D

 28 30  0  0  0  0  0  0  0  0999 V2000
   34.8340   30.1170   32.0440 C   0  0  0  0  0  0  0  0  0  0  0  0
   35.5280   28.9340   32.2820 C   0  0  0  0  0  0  0  0  0  0  0  0
   35.9580   28.7100   33.6060 C   0  0  0  0  0  0  0  0  0  0  0  0
   35.6740   29.6460   34.5520 N   0  0  0  0  0  0  0  0  0  0  0  0
   34.9980   30.7790   34.2690 C   0  0  0  0  0  0  0  0  0  0  0  0
   34.5850   30.9990   33.0060 N   0  0  0  0  0  0  0  0  0  0  0  0
   34.5210   30.2530   31.0130 H   0  0  0  0  0  0  0  0  0  0  0  0
   35.7760   28.1620   31.5690 H   0  0  0  0  0  0  0  0  0  0  0  0
   36.7180   33.1940   34.2300 Cl  0  0  0  0  0  0  0  0  0  0  0  0
   35.4880   32.8970   35.4000 C   0  0  0  0  0  0  0  0  0  0  0  0
   34.7350   31.7280   35.3280 C   0  0  0  0  0  0  0  0  0  0  0  0
   33.7580   31.4640   36.2360 C   0  0  0  0  0  0  0  0  0  0  0  0
   33.4810   32.3560   37.2640 C   0  0  0  0  0  0  0  0  0  0  0  0
   34.2070   33.5190   37.3620 C   0  0  0  0  0  0  0  0  0  0  0  0
   33.9540   34.7250   38.6130 Cl  0  0  0  0  0  0  0  0  0  0  0  0
   35.1820   33.7490   36.4290 C   0  0  0  0  0  0  0  0  0  0  0  0
   33.1370   30.5760   36.2370 H   0  0  0  0  0  0  0  0  0  0  0  0
   32.7180   32.2040   38.0150 H   0  0  0  0  0  0  0  0  0  0  0  0
   35.8100   34.6550   36.4340 H   0  0  0  0  0  0  0  0  0  0  0  0
   36.6860   27.5120   33.9680 C   0  0  0  0  0  0  0  0  0  0  0  0
   37.0520   26.5210   33.0620 C   0  0  0  0  0  0  0  0  0  0  0  0
   37.7230   25.5200   33.6860 N   0  0  0  0  0  0  0  0  0  0  0  0
   37.7800   25.8770   34.9810 C   0  0  0  0  0  0  0  0  0  0  0  0
   37.1670   27.0480   35.1230 N   0  0  0  0  0  0  0  0  0  0  0  0
   36.8600   26.4900   31.9930 H   0  0  0  0  0  0  0  0  0  0  0  0
   38.1080   24.6620   33.2470 H   0  0  0  0  0  0  0  0  0  0  0  0
   38.4210   25.1110   36.1070 C   0  0  0  0  0  2  0  0  0  0  0  0
   38.9080   25.8030   36.8470 H   0  0  0  0  0  0  0  0  0  0  0  0
  1  2  2  0  0  0  0
  1  6  1  0  0  0  0
  2  3  1  0  0  0  0
  3 20  1  0  0  0  0
  3  4  2  0  0  0  0
  5  4  1  0  0  0  0
  5 11  1  0  0  0  0
  6  5  2  0  0  0  0
  7  1  1  0  0  0  0
  8  2  1  0  0  0  0
  9 10  1  0  0  0  0
 10 16  1  0  0  0  0
 11 10  2  0  0  0  0
 11 12  1  0  0  0  0
 12 17  1  0  0  0  0
 12 13  2  0  0  0  0
 13 14  1  0  0  0  0
 13 18  1  0  0  0  0
 14 15  1  0  0  0  0
 16 19  1  0  0  0  0
 16 14  2  0  0  0  0
 20 24  1  0  0  0  0
 21 22  1  0  0  0  0
 21 20  2  0  0  0  0
 22 23  1  0  0  0  0
 23 24  2  0  0  0  0
 23 27  1  0  0  0  0
 25 21  1  0  0  0  0
 26 22  1  0  0  0  0
 27 28  1  0  0  0  0
M  END
>  <minimizedAffinity>
-5.01845646

$$$$

 OpenBabel03272502443D

 28 30  0  0  0  0  0  0  0  0999 V2000
   36.9220   27.2180   33.1040 C   0  0  0  0  0  0  0  0  0  0  0  0
   37.2290   27.6200   31.8080 C   0  0  0  0  0  0  0  0  0  0  0  0
   36.8590   28.9330   31.4490 C   0  0  0  0  0  0  0  0  0  0  0  0
   36.2350   29.7110   32.3750 N   0  0  0  0  0  0  0  0  0  0  0  0
   35.9580   29.2730   33.6200 C   0  0  0  0  0  0  0  0  0  0  0  0
   36.3100   28.0200   33.9680 N   0  0  0  0  0  0  0  0  0  0  0  0
   37.2230   26.2020   33.3410 H   0  0  0  0  0  0  0  0  0  0  0  0
   37.7230   27.0440   31.0390 H   0  0  0  0  0  0  0  0  0  0  0  0
   32.9990   29.2760   33.4290 Cl  0  0  0  0  0  0  0  0  0  0  0  0
   33.9020   30.2350   34.5420 C   0  0  0  0  0  0  0  0  0  0  0  0
   35.2920   30.1580   34.5490 C   0  0  0  0  0  0  0  0  0  0  0  0
   36.0320   30.9020   35.4140 C   0  0  0  0  0  0  0  0  0  0  0  0
   35.4210   31.7610   36.3180 C   0  0  0  0  0  0  0  0  0  0  0  0
   34.0500   31.8590   36.3360 C   0  0  0  0  0  0  0  0  0  0  0  0
   33.1600   32.9060   37.4280 Cl  0  0  0  0  0  0  0  0  0  0  0  0
   33.3400   31.0940   35.4500 C   0  0  0  0  0  0  0  0  0  0  0  0
   37.1140   30.8890   35.4720 H   0  0  0  0  0  0  0  0  0  0  0  0
   35.9540   32.3770   37.0300 H   0  0  0  0  0  0  0  0  0  0  0  0
   32.2390   31.1120   35.3960 H   0  0  0  0  0  0  0  0  0  0  0  0
   37.1310   29.4570   30.1270 C   0  0  0  0  0  0  0  0  0  0  0  0
   37.5690   28.6810   29.0580 C   0  0  0  0  0  0  0  0  0  0  0  0
   37.7410   29.4410   27.9470 N   0  0  0  0  0  0  0  0  0  0  0  0
   37.4120   30.6930   28.3130 C   0  0  0  0  0  0  0  0  0  0  0  0
   37.0580   30.6780   29.5950 N   0  0  0  0  0  0  0  0  0  0  0  0
   37.7650   27.6130   29.0450 H   0  0  0  0  0  0  0  0  0  0  0  0
   38.0580   29.1170   27.0150 H   0  0  0  0  0  0  0  0  0  0  0  0
   37.4290   31.9260   27.4500 C   0  0  0  0  0  2  0  0  0  0  0  0
   36.5770   32.6140   27.7030 H   0  0  0  0  0  0  0  0  0  0  0  0
  1  7  1  0  0  0  0
  1  6  1  0  0  0  0
  2  1  2  0  0  0  0
  3  2  1  0  0  0  0
  3  4  2  0  0  0  0
  4  5  1  0  0  0  0
  5  6  2  0  0  0  0
  5 11  1  0  0  0  0
  8  2  1  0  0  0  0
  9 10  1  0  0  0  0
 10 11  2  0  0  0  0
 10 16  1  0  0  0  0
 11 12  1  0  0  0  0
 12 17  1  0  0  0  0
 12 13  2  0  0  0  0
 13 14  1  0  0  0  0
 13 18  1  0  0  0  0
 14 15  1  0  0  0  0
 16 14  2  0  0  0  0
 19 16  1  0  0  0  0
 20  3  1  0  0  0  0
 21 20  2  0  0  0  0
 22 23  1  0  0  0  0
 22 21  1  0  0  0  0
 23 24  2  0  0  0  0
 24 20  1  0  0  0  0
 25 21  1  0  0  0  0
 26 22  1  0  0  0  0
 27 28  1  0  0  0  0
 27 23  1  0  0  0  0
M  END
>  <minimizedAffinity>
-5.01529694

$$$$

 OpenBabel03272502443D

 28 30  0  0  0  0  0  0  0  0999 V2000
   36.6500   28.8710   30.4220 C   0  0  0  0  0  0  0  0  0  0  0  0
   36.1160   29.6850   31.4160 C   0  0  0  0  0  0  0  0  0  0  0  0
   35.7630   29.0530   32.6270 C   0  0  0  0  0  0  0  0  0  0  0  0
   35.9620   27.7130   32.7460 N   0  0  0  0  0  0  0  0  0  0  0  0
   36.4840   26.9670   31.7500 C   0  0  0  0  0  0  0  0  0  0  0  0
   36.8230   27.5650   30.5910 N   0  0  0  0  0  0  0  0  0  0  0  0
   36.9090   29.3950   29.5060 H   0  0  0  0  0  0  0  0  0  0  0  0
   35.9400   30.7490   31.3720 H   0  0  0  0  0  0  0  0  0  0  0  0
   34.3990   25.2600   30.5120 Cl  0  0  0  0  0  0  0  0  0  0  0  0
   35.7420   24.6570   31.4110 C   0  0  0  0  0  0  0  0  0  0  0  0
   36.6650   25.5470   31.9510 C   0  0  0  0  0  0  0  0  0  0  0  0
   37.7340   25.1030   32.6640 C   0  0  0  0  0  0  0  0  0  0  0  0
   37.9360   23.7440   32.8740 C   0  0  0  0  0  0  0  0  0  0  0  0
   37.0410   22.8410   32.3530 C   0  0  0  0  0  0  0  0  0  0  0  0
   37.1850   21.1020   32.5480 Cl  0  0  0  0  0  0  0  0  0  0  0  0
   35.9780   23.3270   31.6410 C   0  0  0  0  0  0  0  0  0  0  0  0
   38.4890   25.7400   33.1110 H   0  0  0  0  0  0  0  0  0  0  0  0
   38.7650   23.3300   33.4320 H   0  0  0  0  0  0  0  0  0  0  0  0
   35.2140   22.6730   31.1890 H   0  0  0  0  0  0  0  0  0  0  0  0
   35.2000   29.8040   33.7300 C   0  0  0  0  0  0  0  0  0  0  0  0
   33.8520   29.7830   34.0780 C   0  0  0  0  0  0  0  0  0  0  0  0
   33.6170   30.5810   35.1490 N   0  0  0  0  0  0  0  0  0  0  0  0
   34.8120   31.1050   35.4770 C   0  0  0  0  0  0  0  0  0  0  0  0
   35.7240   30.6360   34.6310 N   0  0  0  0  0  0  0  0  0  0  0  0
   33.0490   29.2270   33.6020 H   0  0  0  0  0  0  0  0  0  0  0  0
   32.7040   30.7470   35.6120 H   0  0  0  0  0  0  0  0  0  0  0  0
   35.1060   32.0630   36.6010 C   0  0  0  0  0  2  0  0  0  0  0  0
   36.1050   31.8480   37.0690 H   0  0  0  0  0  0  0  0  0  0  0  0
  1  6  2  0  0  0  0
  1  2  1  0  0  0  0
  2  3  2  0  0  0  0
  3  4  1  0  0  0  0
  3 20  1  0  0  0  0
  5 11  1  0  0  0  0
  5  4  2  0  0  0  0
  6  5  1  0  0  0  0
  7  1  1  0  0  0  0
  8  2  1  0  0  0  0
  9 10  1  0  0  0  0
 10 16  2  0  0  0  0
 10 11  1  0  0  0  0
 11 12  2  0  0  0  0
 12 13  1  0  0  0  0
 12 17  1  0  0  0  0
 13 18  1  0  0  0  0
 14 15  1  0  0  0  0
 14 13  2  0  0  0  0
 16 14  1  0  0  0  0
 19 16  1  0  0  0  0
 20 21  2  0  0  0  0
 20 24  1  0  0  0  0
 21 22  1  0  0  0  0
 22 23  1  0  0  0  0
 22 26  1  0  0  0  0
 23 27  1  0  0  0  0
 24 23  2  0  0  0  0
 25 21  1  0  0  0  0
 27 28  1  0  0  0  0
M  END
>  <minimizedAffinity>
-4.99200249

$$$$
