
 OpenBabel03272508533D

 31 33  0  0  1  0  0  0  0  0999 V2000
   38.4350   31.1190   48.2090 C   0  0  2  0  0  0  0  0  0  0  0  0
   38.7030   32.5610   48.1000 C   0  0  0  0  0  0  0  0  0  0  0  0
   38.0660   31.7340   46.9560 C   0  0  1  0  0  0  0  0  0  0  0  0
   39.3560   30.5070   48.3000 H   0  0  0  0  0  0  0  0  0  0  0  0
   39.7280   32.9250   47.9390 H   0  0  0  0  0  0  0  0  0  0  0  0
   38.0610   33.2940   48.6020 H   0  0  0  0  0  0  0  0  0  0  0  0
   37.0100   32.0630   46.7360 H   0  0  0  0  0  0  0  0  0  0  0  0
   35.0850   30.2370   49.5130 C   0  0  0  0  0  0  0  0  0  0  0  0
   35.3990   29.5530   50.7320 C   0  0  0  0  0  0  0  0  0  0  0  0
   36.7980   29.4230   51.0730 C   0  0  0  0  0  0  0  0  0  0  0  0
   37.7450   29.9450   50.2400 N   0  0  0  0  0  0  0  0  0  0  0  0
   37.3520   30.5830   49.0960 C   0  0  0  0  0  0  0  0  0  0  0  0
   36.0390   30.7460   48.7050 N   0  0  0  0  0  0  0  0  0  0  0  0
   34.0600   30.3420   49.2440 H   0  0  0  0  0  0  0  0  0  0  0  0
   34.6340   29.1550   51.3620 H   0  0  0  0  0  0  0  0  0  0  0  0
   37.0400   28.9170   51.9760 H   0  0  0  0  0  0  0  0  0  0  0  0
   38.4120   31.8530   44.5220 C   0  0  0  0  0  0  0  0  0  0  0  0
   37.3010   32.4510   44.4020 O   0  0  0  0  0  0  0  0  0  0  0  0
   38.9470   31.5530   45.8130 N   0  0  0  0  0  0  0  0  0  0  0  0
   39.9200   31.2170   45.9830 H   0  0  0  0  0  0  0  0  0  0  0  0
   39.1750   31.4540   43.3280 C   0  0  0  0  0  0  0  0  0  0  0  0
   40.1840   30.5410   43.4820 C   0  0  0  0  0  0  0  0  0  0  0  0
   40.9050   30.1460   42.3740 C   0  0  0  0  0  0  0  0  0  0  0  0
   40.5690   30.6950   41.1580 C   0  0  0  0  0  0  0  0  0  0  0  0
   39.5520   31.6190   40.9910 C   0  0  0  0  0  0  0  0  0  0  0  0
   38.9070   31.9450   42.1130 N   0  0  0  0  0  0  0  0  0  0  0  0
   40.4900   30.0780   44.4110 H   0  0  0  0  0  0  0  0  0  0  0  0
   41.7240   29.4220   42.4130 H   0  0  0  0  0  0  0  0  0  0  0  0
   41.1370   30.3820   40.2920 H   0  0  0  0  0  0  0  0  0  0  0  0
   39.2160   32.1930   39.6600 C   0  0  0  0  0  0  0  0  0  0  0  0
   38.9230   33.2630   39.7910 H   0  0  0  0  0  0  0  0  0  0  0  0
  1  4  1  6  0  0  0
  1 12  1  0  0  0  0
  2  1  1  0  0  0  0
  2  6  1  0  0  0  0
  3  7  1  6  0  0  0
  3  2  1  0  0  0  0
  3  1  1  0  0  0  0
  5  2  1  0  0  0  0
  8  9  1  0  0  0  0
  9 10  2  0  0  0  0
  9 15  1  0  0  0  0
 10 16  1  0  0  0  0
 11 10  1  0  0  0  0
 12 11  2  0  0  0  0
 13 12  1  0  0  0  0
 13  8  2  0  0  0  0
 14  8  1  0  0  0  0
 17 19  1  0  0  0  0
 18 17  2  0  0  0  0
 19 20  1  0  0  0  0
 19  3  1  0  0  0  0
 21 22  1  0  0  0  0
 21 17  1  0  0  0  0
 22 27  1  0  0  0  0
 23 28  1  0  0  0  0
 23 22  2  0  0  0  0
 24 23  1  0  0  0  0
 25 24  2  0  0  0  0
 25 26  1  0  0  0  0
 26 21  2  0  0  0  0
 29 24  1  0  0  0  0
 30 31  1  0  0  0  0
 30 25  1  0  0  0  0
M  END
>  <minimizedAffinity>
-5.13197708

>  <minimizedRMSD>
0.0348371007

$$$$
