
 OpenBabel03272500073D

 39 42  0  0  1  0  0  0  0  0999 V2000
   32.4800   27.0850   48.1260 O   0  0  0  0  0  0  0  0  0  0  0  0
   31.1420   27.5030   48.2590 C   0  0  0  0  0  0  0  0  0  0  0  0
   30.8020   27.7640   49.5890 C   0  0  0  0  0  0  0  0  0  0  0  0
   29.5360   28.1850   49.9200 C   0  0  0  0  0  0  0  0  0  0  0  0
   28.6030   28.3470   48.9070 C   0  0  0  0  0  0  0  0  0  0  0  0
   28.9680   28.0830   47.6110 C   0  0  0  0  0  0  0  0  0  0  0  0
   30.2280   27.6570   47.2410 C   0  0  0  0  0  0  0  0  0  0  0  0
   31.4830   27.6570   50.4280 H   0  0  0  0  0  0  0  0  0  0  0  0
   29.2550   28.3920   50.9430 H   0  0  0  0  0  0  0  0  0  0  0  0
   27.6020   28.6810   49.1610 H   0  0  0  0  0  0  0  0  0  0  0  0
   28.2020   28.2260   46.8660 H   0  0  0  0  0  0  0  0  0  0  0  0
   30.7610   25.8700   45.5830 C   0  0  2  0  0  3  0  0  0  0  0  0
   30.6450   27.3520   45.8840 C   0  0  1  0  0  3  0  0  0  0  0  0
   29.5700   27.6680   44.8280 C   0  0  0  0  0  3  0  0  0  0  0  0
   28.6190   27.1480   45.0870 H   0  0  0  0  0  0  0  0  0  0  0  0
   30.0230   27.0270   43.6760 O   0  0  0  0  0  0  0  0  0  0  0  0
   30.8570   25.9880   44.0560 C   0  0  0  0  0  3  0  0  0  0  0  0
   30.6050   25.0310   43.5700 H   0  0  0  0  0  0  0  0  0  0  0  0
   29.5950   25.2130   45.8780 O   0  0  0  0  0  0  0  0  0  0  0  0
   29.6540   24.6860   46.7190 H   0  0  0  0  0  0  0  0  0  0  0  0
   35.4240   28.8660   49.1390 C   0  0  0  0  0  0  0  0  0  0  0  0
   35.3620   30.0560   48.4010 C   0  0  0  0  0  0  0  0  0  0  0  0
   34.2730   30.2230   47.5450 C   0  0  0  0  0  0  0  0  0  0  0  0
   33.3450   29.2300   47.4780 N   0  0  0  0  0  0  0  0  0  0  0  0
   33.4310   28.1080   48.1930 C   0  0  0  0  0  0  0  0  0  0  0  0
   34.4800   27.9130   49.0380 N   0  0  0  0  0  0  0  0  0  0  0  0
   36.2820   28.7410   49.8110 H   0  0  0  0  0  0  0  0  0  0  0  0
   34.2100   31.1270   46.9720 H   0  0  0  0  0  0  0  0  0  0  0  0
   36.3970   31.0100   48.5610 N   0  0  0  0  0  0  0  0  0  0  0  0
   36.5710   31.6910   49.6880 C   0  0  0  0  0  0  0  0  0  0  0  0
   37.6150   32.6130   49.7680 C   0  0  0  0  0  0  0  0  0  0  0  0
   38.3830   32.7400   48.6540 C   0  0  0  0  0  0  0  0  0  0  0  0
   39.3300   33.5710   48.7120 O   0  0  0  0  0  0  0  0  0  0  0  0
   38.2410   32.0810   47.5160 N   0  0  0  0  0  0  0  0  0  0  0  0
   37.2120   31.1840   47.4650 C   0  0  0  0  0  0  0  0  0  0  0  0
   37.0610   30.5440   46.3800 O   0  0  0  0  0  0  0  0  0  0  0  0
   35.9320   31.5500   50.5430 H   0  0  0  0  0  0  0  0  0  0  0  0
   37.7550   33.1660   50.6850 H   0  0  0  0  0  0  0  0  0  0  0  0
   38.8750   32.2350   46.7010 H   0  0  0  0  0  0  0  0  0  0  0  0
  1 25  1  0  0  0  0
  1  2  1  0  0  0  0
  2  3  1  0  0  0  0
  3  4  2  0  0  0  0
  3  8  1  0  0  0  0
  4  9  1  0  0  0  0
  5 10  1  0  0  0  0
  5  4  1  0  0  0  0
  6  5  2  0  0  0  0
  7  6  1  0  0  0  0
  7  2  2  0  0  0  0
 11  6  1  0  0  0  0
 12 19  1  6  0  0  0
 12 13  1  0  0  0  0
 13  7  1  1  0  0  0
 14 15  1  0  0  0  0
 14 13  1  0  0  0  0
 16 17  1  0  0  0  0
 16 14  1  0  0  0  0
 17 12  1  0  0  0  0
 18 17  1  0  0  0  0
 19 20  1  0  0  0  0
 21 27  1  0  0  0  0
 22 29  1  0  0  0  0
 22 21  2  0  0  0  0
 23 22  1  0  0  0  0
 24 23  2  0  0  0  0
 24 25  1  0  0  0  0
 25 26  2  0  0  0  0
 26 21  1  0  0  0  0
 28 23  1  0  0  0  0
 29 30  1  0  0  0  0
 30 31  2  0  0  0  0
 30 37  1  0  0  0  0
 31 38  1  0  0  0  0
 32 33  2  0  0  0  0
 32 31  1  0  0  0  0
 34 32  1  0  0  0  0
 35 34  1  0  0  0  0
 35 29  1  0  0  0  0
 36 35  2  0  0  0  0
 39 34  1  0  0  0  0
M  END
>  <minimizedAffinity>
-5.84296751

>  <minimizedRMSD>
0.266093224

$$$$
