
 OpenBabel03272500073D

 39 42  0  0  1  0  0  0  0  0999 V2000
   32.4400   27.0270   48.1610 O   0  0  0  0  0  0  0  0  0  0  0  0
   31.1030   27.4470   48.2840 C   0  0  0  0  0  0  0  0  0  0  0  0
   30.7680   27.7640   49.6040 C   0  0  0  0  0  0  0  0  0  0  0  0
   29.5030   28.1960   49.9230 C   0  0  0  0  0  0  0  0  0  0  0  0
   28.5640   28.3120   48.9090 C   0  0  0  0  0  0  0  0  0  0  0  0
   28.9230   27.9930   47.6240 C   0  0  0  0  0  0  0  0  0  0  0  0
   30.1830   27.5550   47.2650 C   0  0  0  0  0  0  0  0  0  0  0  0
   31.4540   27.6950   50.4420 H   0  0  0  0  0  0  0  0  0  0  0  0
   29.2270   28.4460   50.9370 H   0  0  0  0  0  0  0  0  0  0  0  0
   27.5640   28.6540   49.1540 H   0  0  0  0  0  0  0  0  0  0  0  0
   28.1530   28.1020   46.8770 H   0  0  0  0  0  0  0  0  0  0  0  0
   30.6100   25.7000   45.6530 C   0  0  2  0  0  0  0  0  0  0  0  0
   30.5940   27.1940   45.9200 C   0  0  1  0  0  0  0  0  0  0  0  0
   29.5540   27.5580   44.8440 C   0  0  0  0  0  0  0  0  0  0  0  0
   28.5670   27.1100   45.1030 H   0  0  0  0  0  0  0  0  0  0  0  0
   29.9760   26.8620   43.7110 O   0  0  0  0  0  0  0  0  0  0  0  0
   30.7320   25.7780   44.1240 C   0  0  0  0  0  0  0  0  0  0  0  0
   30.4190   24.8300   43.6560 H   0  0  0  0  0  0  0  0  0  0  0  0
   29.3990   25.1310   45.9460 O   0  0  0  0  0  0  0  0  0  0  0  0
   29.4120   24.6200   46.8000 H   0  0  0  0  0  0  0  0  0  0  0  0
   35.3900   28.8170   49.1420 C   0  0  0  0  0  0  0  0  0  0  0  0
   35.3220   30.0020   48.3950 C   0  0  0  0  0  0  0  0  0  0  0  0
   34.2280   30.1610   47.5440 C   0  0  0  0  0  0  0  0  0  0  0  0
   33.3010   29.1670   47.4910 N   0  0  0  0  0  0  0  0  0  0  0  0
   33.3910   28.0510   48.2150 C   0  0  0  0  0  0  0  0  0  0  0  0
   34.4460   27.8640   49.0550 N   0  0  0  0  0  0  0  0  0  0  0  0
   36.2520   28.6980   49.8100 H   0  0  0  0  0  0  0  0  0  0  0  0
   34.1610   31.0610   46.9650 H   0  0  0  0  0  0  0  0  0  0  0  0
   36.3580   30.9570   48.5410 N   0  0  0  0  0  0  0  0  0  0  0  0
   36.5570   31.6260   49.6710 C   0  0  0  0  0  0  0  0  0  0  0  0
   37.5990   32.5510   49.7370 C   0  0  0  0  0  0  0  0  0  0  0  0
   38.3410   32.6930   48.6060 C   0  0  0  0  0  0  0  0  0  0  0  0
   39.2860   33.5260   48.6500 O   0  0  0  0  0  0  0  0  0  0  0  0
   38.1730   32.0460   47.4640 N   0  0  0  0  0  0  0  0  0  0  0  0
   37.1470   31.1460   47.4270 C   0  0  0  0  0  0  0  0  0  0  0  0
   36.9720   30.5170   46.3400 O   0  0  0  0  0  0  0  0  0  0  0  0
   35.9380   31.4740   50.5390 H   0  0  0  0  0  0  0  0  0  0  0  0
   37.7590   33.0940   50.6560 H   0  0  0  0  0  0  0  0  0  0  0  0
   38.7880   32.2110   46.6360 H   0  0  0  0  0  0  0  0  0  0  0  0
  1 25  1  0  0  0  0
  1  2  1  0  0  0  0
  2  3  1  0  0  0  0
  3  4  2  0  0  0  0
  3  8  1  0  0  0  0
  4  9  1  0  0  0  0
  5 10  1  0  0  0  0
  5  4  1  0  0  0  0
  6  5  2  0  0  0  0
  7  6  1  0  0  0  0
  7  2  2  0  0  0  0
 11  6  1  0  0  0  0
 12 13  1  0  0  0  0
 12 19  1  6  0  0  0
 13  7  1  1  0  0  0
 14 15  1  0  0  0  0
 14 13  1  0  0  0  0
 16 17  1  0  0  0  0
 16 14  1  0  0  0  0
 17 12  1  0  0  0  0
 18 17  1  0  0  0  0
 19 20  1  0  0  0  0
 21 27  1  0  0  0  0
 22 29  1  0  0  0  0
 22 21  2  0  0  0  0
 23 22  1  0  0  0  0
 24 23  2  0  0  0  0
 24 25  1  0  0  0  0
 25 26  2  0  0  0  0
 26 21  1  0  0  0  0
 28 23  1  0  0  0  0
 29 30  1  0  0  0  0
 30 31  2  0  0  0  0
 30 37  1  0  0  0  0
 31 38  1  0  0  0  0
 32 33  2  0  0  0  0
 32 31  1  0  0  0  0
 34 32  1  0  0  0  0
 35 34  1  0  0  0  0
 35 29  1  0  0  0  0
 36 35  2  0  0  0  0
 39 34  1  0  0  0  0
M  END
>  <minimizedAffinity>
-5.85808945

>  <minimizedRMSD>
0.860797405

$$$$
