
 OpenBabel03272504023D

 41 44  0  0  1  0  0  0  0  0999 V2000
   34.3380   29.2710   49.2220 C   0  0  0  0  0  0  0  0  0  0  0  0
   33.6600   30.1730   49.1900 H   0  0  0  0  0  0  0  0  0  0  0  0
   34.0310   28.7010   50.0920 H   0  0  0  0  0  0  0  0  0  0  0  0
   35.7020   29.8130   49.3350 C   0  0  0  0  0  0  0  0  0  0  0  0
   36.6530   29.2580   50.2040 C   0  0  0  0  0  0  0  0  0  0  0  0
   37.8010   29.9870   50.0680 C   0  0  0  0  0  0  0  0  0  0  0  0
   37.5640   30.9430   49.1590 N   0  0  0  0  0  0  0  0  0  0  0  0
   36.3220   30.8080   48.7520 N   0  0  0  0  0  0  0  0  0  0  0  0
   36.5260   28.4100   50.8680 H   0  0  0  0  0  0  0  0  0  0  0  0
   38.7620   29.8840   50.5580 H   0  0  0  0  0  0  0  0  0  0  0  0
   38.3790   31.9720   48.6280 C   0  0  0  0  0  0  0  0  0  0  0  0
   38.6270   33.0380   49.4530 C   0  0  0  0  0  0  0  0  0  0  0  0
   39.4080   34.1410   49.0990 C   0  0  0  0  0  0  0  0  0  0  0  0
   39.9470   34.1110   47.8150 C   0  0  0  0  0  0  0  0  0  0  0  0
   39.7090   33.0530   46.9750 C   0  0  0  0  0  0  0  0  0  0  0  0
   38.9330   31.9760   47.3520 C   0  0  0  0  0  0  0  0  0  0  0  0
   38.2240   33.0930   50.4600 H   0  0  0  0  0  0  0  0  0  0  0  0
   39.5870   34.9670   49.7740 H   0  0  0  0  0  0  0  0  0  0  0  0
   40.5600   34.9150   47.4560 H   0  0  0  0  0  0  0  0  0  0  0  0
   40.0830   32.9440   45.9640 H   0  0  0  0  0  0  0  0  0  0  0  0
   38.7050   31.1210   46.7560 H   0  0  0  0  0  0  0  0  0  0  0  0
   34.1000   28.5080   47.9720 C   0  0  0  0  0  0  0  0  0  0  0  0
   34.9360   27.7660   47.8810 H   0  0  0  0  0  0  0  0  0  0  0  0
   33.1970   27.8660   48.1400 H   0  0  0  0  0  0  0  0  0  0  0  0
   33.8650   29.2560   46.7670 C   0  0  0  0  0  0  0  0  0  0  0  0
   32.6180   29.7150   46.4560 C   0  0  0  0  0  0  0  0  0  0  0  0
   32.3910   30.4500   45.2720 C   0  0  0  0  0  0  0  0  0  0  0  0
   33.4940   30.6640   44.4720 N   0  0  0  0  0  0  0  0  0  0  0  0
   34.7100   30.1920   44.8180 C   0  0  0  0  0  0  0  0  0  0  0  0
   34.8720   29.4960   45.9600 N   0  0  0  0  0  0  0  0  0  0  0  0
   31.7620   29.5320   47.1060 H   0  0  0  0  0  0  0  0  0  0  0  0
   31.4050   30.8150   45.0220 H   0  0  0  0  0  0  0  0  0  0  0  0
   36.1800   29.2880   43.0070 C   0  0  2  0  0  3  0  0  0  0  0  0
   35.8890   30.4420   43.9290 C   0  0  1  0  0  3  0  0  0  0  0  0
   35.5420   31.5540   42.9790 C   0  0  0  0  0  3  0  0  0  0  0  0
   34.4430   31.7790   43.0100 H   0  0  0  0  0  0  0  0  0  0  0  0
   35.8610   31.0890   41.6980 O   0  0  0  0  0  0  0  0  0  0  0  0
   35.5070   29.7310   41.7380 C   0  0  0  0  0  3  0  0  0  0  0  0
   34.4120   29.5990   41.7920 H   0  0  0  0  0  0  0  0  0  0  0  0
   35.7450   28.0660   43.4600 O   0  0  0  0  0  0  0  0  0  0  0  0
   36.4910   27.4120   43.6180 H   0  0  0  0  0  0  0  0  0  0  0  0
  1  4  1  0  0  0  0
  1  3  1  0  0  0  0
  2  1  1  0  0  0  0
  4  5  1  0  0  0  0
  5  9  1  0  0  0  0
  6  5  2  0  0  0  0
  6 10  1  0  0  0  0
  7  6  1  0  0  0  0
  8  7  1  0  0  0  0
  8  4  2  0  0  0  0
 11  7  1  0  0  0  0
 11 12  1  0  0  0  0
 12 17  1  0  0  0  0
 13 12  2  0  0  0  0
 13 18  1  0  0  0  0
 14 13  1  0  0  0  0
 15 16  1  0  0  0  0
 15 14  2  0  0  0  0
 16 11  2  0  0  0  0
 19 14  1  0  0  0  0
 20 15  1  0  0  0  0
 21 16  1  0  0  0  0
 22 24  1  0  0  0  0
 22  1  1  0  0  0  0
 23 22  1  0  0  0  0
 25 22  1  0  0  0  0
 26 25  1  0  0  0  0
 26 31  1  0  0  0  0
 27 26  2  0  0  0  0
 28 29  2  0  0  0  0
 28 27  1  0  0  0  0
 29 30  1  0  0  0  0
 30 25  2  0  0  0  0
 32 27  1  0  0  0  0
 33 40  1  1  0  0  0
 33 34  1  0  0  0  0
 34 29  1  1  0  0  0
 35 36  1  0  0  0  0
 35 34  1  0  0  0  0
 37 38  1  0  0  0  0
 37 35  1  0  0  0  0
 38 39  1  0  0  0  0
 38 33  1  0  0  0  0
 40 41  1  0  0  0  0
M  END
>  <minimizedAffinity>
-5.55128622

>  <minimizedRMSD>
0.549484372

$$$$
