REMARK  Name = 
REMARK  6 active torsions:
REMARK  status: ('A' for Active; 'I' for Inactive)
REMARK    1  A    between atoms: C_1  and  C_12
REMARK    2  A    between atoms: N_4  and  C_6
REMARK    3  A    between atoms: C_12  and  C_13
REMARK    4  A    between atoms: C_13  and  C_14
REMARK    5  A    between atoms: C_18  and  C_35
REMARK    6  A    between atoms: O_33  and  C_34
REMARK                            x       y       z     vdW  Elec       q    Type
REMARK                         _______ _______ _______ _____ _____    ______ ____
ROOT
ATOM      1  C   UNL     1      34.448  29.220  48.857  0.00  0.00    +0.000 C 
ATOM      2  H   UNL     1      33.733  30.094  48.869  0.00  0.00    +0.000 HD
ATOM      3  H   UNL     1      34.135  28.571  49.668  0.00  0.00    +0.000 HD
ENDROOT
BRANCH   1   4
ATOM      4  C   UNL     1      35.783  29.805  49.063  0.00  0.00    +0.000 A 
ATOM      5  C   UNL     1      36.678  29.298  50.015  0.00  0.00    +0.000 A 
ATOM      6  C   UNL     1      37.812  30.058  49.952  0.00  0.00    +0.000 A 
ATOM      7  N   UNL     1      37.619  30.988  49.006  0.00  0.00    +0.000 N 
ATOM      8  N   UNL     1      36.417  30.807  48.507  0.00  0.00    +0.000 NA
ATOM      9  H   UNL     1      36.524  28.460  50.687  0.00  0.00    +0.000 HD
ATOM     10  H   UNL     1      38.734  29.995  50.518  0.00  0.00    +0.000 HD
BRANCH   7  11
ATOM     11  C   UNL     1      38.443  32.030  48.517  0.00  0.00    +0.000 A 
ATOM     12  C   UNL     1      38.685  33.069  49.377  0.00  0.00    +0.000 A 
ATOM     13  C   UNL     1      39.473  34.180  49.066  0.00  0.00    +0.000 A 
ATOM     14  C   UNL     1      40.027  34.188  47.788  0.00  0.00    +0.000 A 
ATOM     15  C   UNL     1      39.796  33.157  46.913  0.00  0.00    +0.000 A 
ATOM     16  C   UNL     1      39.012  32.072  47.248  0.00  0.00    +0.000 A 
ATOM     17  H   UNL     1      38.270  33.095  50.380  0.00  0.00    +0.000 HD
ATOM     18  H   UNL     1      39.646  34.985  49.768  0.00  0.00    +0.000 HD
ATOM     19  H   UNL     1      40.646  35.001  47.462  0.00  0.00    +0.000 HD
ATOM     20  H   UNL     1      40.182  33.078  45.904  0.00  0.00    +0.000 HD
ATOM     21  H   UNL     1      38.789  31.236  46.623  0.00  0.00    +0.000 HD
ENDBRANCH   7  11
ENDBRANCH   1   4
BRANCH   1  22
ATOM     22  C   UNL     1      34.286  28.549  47.543  0.00  0.00    +0.000 C 
ATOM     23  H   UNL     1      35.204  27.924  47.383  0.00  0.00    +0.000 HD
ATOM     24  H   UNL     1      33.469  27.790  47.655  0.00  0.00    +0.000 HD
BRANCH  22  25
ATOM     25  C   UNL     1      33.947  29.368  46.412  0.00  0.00    +0.000 A 
ATOM     26  C   UNL     1      32.753  30.025  46.352  0.00  0.00    +0.000 A 
ATOM     27  C   UNL     1      32.423  30.830  45.239  0.00  0.00    +0.000 A 
ATOM     28  N   UNL     1      33.373  30.900  44.241  0.00  0.00    +0.000 NA
ATOM     29  C   UNL     1      34.542  30.233  44.341  0.00  0.00    +0.000 A 
ATOM     30  N   UNL     1      34.806  29.479  45.426  0.00  0.00    +0.000 NA
ATOM     31  H   UNL     1      32.019  29.953  47.155  0.00  0.00    +0.000 HD
ATOM     32  H   UNL     1      31.478  31.352  45.188  0.00  0.00    +0.000 HD
BRANCH  29  34
ATOM     33  C   UNL     1      35.103  29.659  41.972  0.00  0.00    +0.000 C 
ATOM     34  C   UNL     1      35.553  30.330  43.241  0.00  0.00    +0.000 C 
ATOM     35  C   UNL     1      35.679  31.771  42.835  0.00  0.00    +0.000 C 
ATOM     36  H   UNL     1      34.854  32.387  43.282  0.00  0.00    +0.000 HD
ATOM     37  O   UNL     1      35.545  31.799  41.442  0.00  0.00    +0.000 OA
ATOM     38  C   UNL     1      34.571  30.822  41.181  0.00  0.00    +0.000 C 
ATOM     39  H   UNL     1      33.576  31.135  41.539  0.00  0.00    +0.000 HD
BRANCH  33  40
ATOM     40  O   UNL     1      34.184  28.652  42.148  0.00  0.00    +0.000 OA
ATOM     41  H   UNL     1      34.520  27.752  41.854  0.00  0.00    +0.000 HD
ENDBRANCH  33  40
ENDBRANCH  29  34
ENDBRANCH  22  25
ENDBRANCH   1  22
TORSDOF 6
