
 OpenBabel03272504533D

 25 27  0  0  1  0  0  0  0  0999 V2000
   36.7800   31.2010   48.9160 C   0  0  0  0  0  0  0  0  0  0  0  0
   37.4210   31.9090   49.9480 C   0  0  0  0  0  0  0  0  0  0  0  0
   38.4790   32.7140   49.5610 C   0  0  0  0  0  0  0  0  0  0  0  0
   38.8490   32.7890   48.2440 N   0  0  0  0  0  0  0  0  0  0  0  0
   38.2000   32.0860   47.2770 C   0  0  0  0  0  0  0  0  0  0  0  0
   37.1590   31.2880   47.6240 N   0  0  0  0  0  0  0  0  0  0  0  0
   37.1160   31.8340   50.9620 H   0  0  0  0  0  0  0  0  0  0  0  0
   38.9980   33.2740   50.3270 H   0  0  0  0  0  0  0  0  0  0  0  0
   35.6080   30.3360   49.3030 C   0  0  0  0  0  0  0  0  0  0  0  0
   35.1930   29.2170   48.4660 C   0  0  0  0  0  0  0  0  0  0  0  0
   36.0240   28.9240   49.6860 C   0  0  0  0  0  0  0  0  0  0  0  0
   34.9190   30.8530   50.0180 H   0  0  0  0  0  0  0  0  0  0  0  0
   35.7260   29.1160   47.4740 H   0  0  0  0  0  0  0  0  0  0  0  0
   34.1390   28.9160   48.4000 H   0  0  0  0  0  0  0  0  0  0  0  0
   37.0710   28.6150   49.6080 H   0  0  0  0  0  0  0  0  0  0  0  0
   35.4330   28.5050   50.5240 H   0  0  0  0  0  0  0  0  0  0  0  0
   37.5970   31.7600   44.8840 C   0  0  2  0  0  3  0  0  0  0  0  0
   38.6520   32.2120   45.8660 C   0  0  2  0  0  3  0  0  0  0  0  0
   39.8310   31.3350   45.5470 C   0  0  0  0  0  3  0  0  0  0  0  0
   40.7590   31.9210   45.6660 H   0  0  0  0  0  0  0  0  0  0  0  0
   39.6630   30.8700   44.2600 O   0  0  0  0  0  0  0  0  0  0  0  0
   38.2850   30.7070   44.0730 C   0  0  0  0  0  3  0  0  0  0  0  0
   37.9420   29.7030   44.3850 H   0  0  0  0  0  0  0  0  0  0  0  0
   37.1940   32.7760   44.0150 O   0  0  0  0  0  0  0  0  0  0  0  0
   37.9310   33.4580   44.0140 H   0  0  0  0  0  0  0  0  0  0  0  0
  1  9  1  0  0  0  0
  1  2  1  0  0  0  0
  2  7  1  0  0  0  0
  3  2  2  0  0  0  0
  3  8  1  0  0  0  0
  4  3  1  0  0  0  0
  5  6  1  0  0  0  0
  5  4  2  0  0  0  0
  6  1  2  0  0  0  0
  9 11  1  0  0  0  0
  9 12  1  0  0  0  0
 10  9  1  0  0  0  0
 10 11  1  0  0  0  0
 11 16  1  0  0  0  0
 13 10  1  0  0  0  0
 14 10  1  0  0  0  0
 15 11  1  0  0  0  0
 17 24  1  6  0  0  0
 17 18  1  0  0  0  0
 18  5  1  1  0  0  0
 19 20  1  0  0  0  0
 19 18  1  0  0  0  0
 21 19  1  0  0  0  0
 22 21  1  0  0  0  0
 22 23  1  0  0  0  0
 22 17  1  0  0  0  0
 25 24  1  0  0  0  0
M  END
>  <minimizedAffinity>
-5.34209585

>  <minimizedRMSD>
1.69035506

$$$$
