
     RDKit          3D

 45 48  0  0  0  0  0  0  0  0999 V2000
   38.2663   32.2870   47.3930 C   0  0  0  0  0  0  0  0  0  0  0  0
   37.9123   32.7312   48.6526 C   0  0  0  0  0  0  0  0  0  0  0  0
   38.6696   33.6857   49.3065 C   0  0  0  0  0  0  0  0  0  0  0  0
   39.8034   34.2010   48.6792 C   0  0  0  0  0  0  0  0  0  0  0  0
   40.1573   33.7575   47.4212 C   0  0  0  0  0  0  0  0  0  0  0  0
   39.3725   32.8072   46.8118 C   0  0  0  0  0  0  0  0  0  0  0  0
   39.7633   32.3398   45.4617 C   0  0  0  0  0  0  0  0  0  0  0  0
   40.6146   31.3366   45.0959 C   0  0  0  0  0  0  0  0  0  0  0  0
   40.6462   31.2914   43.7028 C   0  0  0  0  0  0  0  0  0  0  0  0
   39.7937   32.2916   43.3094 C   0  0  0  0  0  0  0  0  0  0  0  0
   39.2854   32.8954   44.3614 O   0  0  0  0  0  0  0  0  0  0  0  0
   36.7484   30.5220   46.2965 N   0  0  0  0  0  0  0  0  0  0  0  0
   37.4296   31.2987   46.7871 C   0  0  0  0  0  0  0  0  0  0  0  0
   36.8111   32.3069   49.3955 O   0  0  0  0  0  0  0  0  0  0  0  0
   36.7848   31.1971   50.1699 C   0  0  0  0  0  0  0  0  0  0  0  0
   35.6398   30.4249   49.9479 C   0  0  0  0  0  0  0  0  0  0  0  0
   35.4362   29.2523   50.6473 C   0  0  0  0  0  0  0  0  0  0  0  0
   36.3888   28.8898   51.5494 N   0  0  0  0  0  0  0  0  0  0  0  0
   37.4962   29.6515   51.7535 C   0  0  0  0  0  0  0  0  0  0  0  0
   37.6734   30.7784   51.0689 N   0  0  0  0  0  0  0  0  0  0  0  0
   34.1486   29.7179   48.1564 C   0  0  0  0  0  0  0  0  0  0  0  0
   34.5473   28.5229   47.8745 O   0  0  0  0  0  0  0  0  0  0  0  0
   34.6145   30.7273   49.0396 N   0  0  0  0  0  0  0  0  0  0  0  0
   38.4588   34.0721   50.2708 H   0  0  0  0  0  0  0  0  0  0  0  0
   40.4087   34.9515   49.1802 H   0  0  0  0  0  0  0  0  0  0  0  0
   41.0467   34.1844   46.9691 H   0  0  0  0  0  0  0  0  0  0  0  0
   41.1187   30.7485   45.8738 H   0  0  0  0  0  0  0  0  0  0  0  0
   41.2631   30.5631   43.1926 H   0  0  0  0  0  0  0  0  0  0  0  0
   39.6159   32.4944   42.2479 H   0  0  0  0  0  0  0  0  0  0  0  0
   34.5818   28.6111   50.5280 H   0  0  0  0  0  0  0  0  0  0  0  0
   38.2592   29.3731   52.4675 H   0  0  0  0  0  0  0  0  0  0  0  0
   34.1524   31.6345   48.9465 H   0  0  0  0  0  0  0  0  0  0  0  0
   33.2464   32.7346   46.5060 O   0  0  0  0  0  0  0  0  0  0  0  0
   32.0980   31.9566   46.4921 C   0  0  2  0  0  0  0  0  0  0  0  0
   32.1011   31.0960   47.7408 C   0  0  2  0  0  0  0  0  0  0  0  0
   31.0764   30.8050   48.0221 H   0  0  0  0  0  0  0  0  0  0  0  0
   32.9444   29.9392   47.3001 C   0  0  1  0  0  0  0  0  0  0  0  0
   33.3275   30.1581   45.9970 O   0  0  0  0  0  0  0  0  0  0  0  0
   32.2524   30.8845   45.4331 C   0  0  2  0  0  0  0  0  0  0  0  0
   32.4820   31.2593   44.4379 H   0  0  0  0  0  0  0  0  0  0  0  0
   33.9758   32.3460   45.9529 H   0  0  0  0  0  0  0  0  0  0  0  0
   31.1726   32.5462   46.3600 H   0  0  0  0  0  0  0  0  0  0  0  0
   32.6074   31.6735   48.5405 H   0  0  0  0  0  0  0  0  0  0  0  0
   32.2899   29.0363   47.2833 H   0  0  0  0  0  0  0  0  0  0  0  0
   31.3953   30.1853   45.4791 H   0  0  0  0  0  0  0  0  0  0  0  0
  1  2  2  0
  2  3  1  0
  2 14  1  0
  4  3  2  0
  5  4  1  0
  6  1  1  0
  6  5  2  0
  7  6  1  0
  8  7  2  0
  9  8  1  0
 10  9  2  0
 10 11  1  0
 11  7  1  0
 12 13  3  0
 13  1  1  0
 14 15  1  0
 15 20  2  0
 16 15  1  0
 16 17  2  0
 17 18  1  0
 18 19  2  0
 20 19  1  0
 21 23  1  0
 22 21  2  0
 23 16  1  0
  3 24  1  0
  4 25  1  0
  5 26  1  0
  8 27  1  0
  9 28  1  0
 10 29  1  0
 17 30  1  0
 19 31  1  0
 23 32  1  0
 33 34  1  0
 34 35  1  0
 35 36  1  1
 35 37  1  0
 37 38  1  0
 38 39  1  0
 39 40  1  6
 39 34  1  0
 33 41  1  0
 34 42  1  6
 35 43  1  0
 37 44  1  6
 39 45  1  0
 21 37  1  0
M  ISO  8  24  14  25  14  26  14  27  14  28  14  29  14  30  14  31  14
M  ISO  2  36   8  40  16
M  END
>  <DihAtoms>  (1) 
22,20,36,34

>  <DihDeg>  (1) 
58.56812682535963

$$$$
