
 OpenBabel03272504333D

 40 43  0  0  1  0  0  0  0  0999 V2000
   34.9690   29.5750   47.5360 C   0  0  0  0  0  0  0  0  0  0  0  0
   35.1360   29.9650   46.2070 C   0  0  0  0  0  0  0  0  0  0  0  0
   34.0940   29.8020   45.3120 C   0  0  0  0  0  0  0  0  0  0  0  0
   32.9270   29.2560   45.7790 N   0  0  0  0  0  0  0  0  0  0  0  0
   32.7990   28.8900   47.0740 C   0  0  0  0  0  0  0  0  0  0  0  0
   33.8160   29.0480   47.9500 N   0  0  0  0  0  0  0  0  0  0  0  0
   36.0780   30.3870   45.9050 H   0  0  0  0  0  0  0  0  0  0  0  0
   34.2040   30.0940   44.2920 H   0  0  0  0  0  0  0  0  0  0  0  0
   36.0130   29.7200   48.5060 N   0  0  0  0  0  0  0  0  0  0  0  0
   36.0910   28.8660   49.6790 C   0  0  0  0  0  0  0  0  0  0  0  0
   36.4080   29.5800   50.9510 C   0  0  0  0  0  0  0  0  0  0  0  0
   37.1450   30.7810   50.8790 N   0  0  0  0  0  0  0  0  0  0  0  0
   36.8590   31.5700   49.6900 C   0  0  0  0  0  0  0  0  0  0  0  0
   37.0750   30.6500   48.5030 C   0  0  0  0  0  0  0  0  0  0  0  0
   35.1140   28.3270   49.7850 H   0  0  0  0  0  0  0  0  0  0  0  0
   36.8230   28.0640   49.4580 H   0  0  0  0  0  0  0  0  0  0  0  0
   35.4430   29.7420   51.5080 H   0  0  0  0  0  0  0  0  0  0  0  0
   36.9800   28.8510   51.5970 H   0  0  0  0  0  0  0  0  0  0  0  0
   36.8600   31.3910   51.7030 H   0  0  0  0  0  0  0  0  0  0  0  0
   37.6760   32.3390   49.6190 H   0  0  0  0  0  0  0  0  0  0  0  0
   35.8870   32.0600   49.6920 H   0  0  0  0  0  0  0  0  0  0  0  0
   37.1280   31.2300   47.5460 H   0  0  0  0  0  0  0  0  0  0  0  0
   38.0450   30.1520   48.6470 H   0  0  0  0  0  0  0  0  0  0  0  0
   31.5430   28.3140   47.5320 C   0  0  0  0  0  0  0  0  0  0  0  0
   31.5290   27.3320   48.5000 C   0  0  0  0  0  0  0  0  0  0  0  0
   30.3640   26.7470   48.9760 C   0  0  0  0  0  0  0  0  0  0  0  0
   29.2120   27.2100   48.4170 N   0  0  0  0  0  0  0  0  0  0  0  0
   29.2380   28.1590   47.4790 C   0  0  0  0  0  0  0  0  0  0  0  0
   30.3800   28.7360   47.0110 N   0  0  0  0  0  0  0  0  0  0  0  0
   32.4870   27.0330   48.8830 H   0  0  0  0  0  0  0  0  0  0  0  0
   30.4730   25.9870   49.7370 H   0  0  0  0  0  0  0  0  0  0  0  0
   27.5750   27.6620   45.7630 C   0  0  1  0  0  3  0  0  0  0  0  0
   27.8890   28.5400   46.9820 C   0  0  2  0  0  3  0  0  0  0  0  0
   27.8970   29.8970   46.3240 C   0  0  0  0  0  3  0  0  0  0  0  0
   28.5110   30.5890   46.9400 H   0  0  0  0  0  0  0  0  0  0  0  0
   28.4260   29.7140   45.0590 O   0  0  0  0  0  0  0  0  0  0  0  0
   28.2510   28.4110   44.6670 C   0  0  0  0  0  3  0  0  0  0  0  0
   29.2390   27.9500   44.4170 H   0  0  0  0  0  0  0  0  0  0  0  0
   28.0650   26.3780   45.9510 O   0  0  0  0  0  0  0  0  0  0  0  0
   27.4770   25.9150   46.5950 H   0  0  0  0  0  0  0  0  0  0  0  0
  1  6  1  0  0  0  0
  1  9  1  0  0  0  0
  2  1  2  0  0  0  0
  3  4  2  0  0  0  0
  3  2  1  0  0  0  0
  4  5  1  0  0  0  0
  5 24  1  0  0  0  0
  5  6  2  0  0  0  0
  7  2  1  0  0  0  0
  8  3  1  0  0  0  0
  9 10  1  0  0  0  0
 10 15  1  0  0  0  0
 10 11  1  0  0  0  0
 11 17  1  0  0  0  0
 11 18  1  0  0  0  0
 12 11  1  0  0  0  0
 12 19  1  0  0  0  0
 13 21  1  0  0  0  0
 13 12  1  0  0  0  0
 14  9  1  0  0  0  0
 14 23  1  0  0  0  0
 14 13  1  0  0  0  0
 16 10  1  0  0  0  0
 20 13  1  0  0  0  0
 22 14  1  0  0  0  0
 24 25  1  0  0  0  0
 25 30  1  0  0  0  0
 25 26  2  0  0  0  0
 26 31  1  0  0  0  0
 27 26  1  0  0  0  0
 28 27  2  0  0  0  0
 29 28  1  0  0  0  0
 29 24  2  0  0  0  0
 32 39  1  1  0  0  0
 32 33  1  0  0  0  0
 33 28  1  6  0  0  0
 34 35  1  0  0  0  0
 34 33  1  0  0  0  0
 36 34  1  0  0  0  0
 37 36  1  0  0  0  0
 37 32  1  0  0  0  0
 38 37  1  0  0  0  0
 39 40  1  0  0  0  0
M  END
>  <minimizedAffinity>
-5.07965231

>  <minimizedRMSD>
0.278049648

$$$$
