
 OpenBabel03272500493D

 39 43  0  0  1  0  0  0  0  0999 V2000
   38.9400   25.8020   34.7370 C   0  0  1  0  0  0  0  0  0  0  0  0
   38.2610   26.1800   36.0860 C   0  0  0  0  0  0  0  0  0  0  0  0
   38.3630   24.7720   35.6230 C   0  0  2  0  0  0  0  0  0  0  0  0
   40.0470   25.8760   34.7340 H   0  0  0  0  0  0  0  0  0  0  0  0
   37.3070   26.7400   36.0090 H   0  0  0  0  0  0  0  0  0  0  0  0
   38.9440   26.5710   36.8740 H   0  0  0  0  0  0  0  0  0  0  0  0
   37.4460   24.3000   35.2810 H   0  0  0  0  0  0  0  0  0  0  0  0
   37.6970   27.3300   31.7180 C   0  0  0  0  0  0  0  0  0  0  0  0
   36.8280   26.2560   31.8310 C   0  0  0  0  0  0  0  0  0  0  0  0
   37.1710   25.5280   32.9830 C   0  0  0  0  0  0  0  0  0  0  0  0
   38.2230   26.1710   33.5280 N   0  0  0  0  0  0  0  0  0  0  0  0
   38.5000   27.2110   32.7660 N   0  0  0  0  0  0  0  0  0  0  0  0
   35.9950   25.9380   31.2010 H   0  0  0  0  0  0  0  0  0  0  0  0
   36.7040   24.6350   33.3710 H   0  0  0  0  0  0  0  0  0  0  0  0
   38.3710   28.1410   29.4420 C   0  0  0  0  0  0  0  0  0  0  0  0
   37.6380   28.2920   30.6520 C   0  0  0  0  0  0  0  0  0  0  0  0
   36.8390   29.4240   30.7860 C   0  0  0  0  0  0  0  0  0  0  0  0
   36.8060   30.3200   29.7570 N   0  0  0  0  0  0  0  0  0  0  0  0
   37.5210   30.1330   28.6240 C   0  0  0  0  0  0  0  0  0  0  0  0
   38.3090   29.0360   28.4650 N   0  0  0  0  0  0  0  0  0  0  0  0
   38.9770   27.2570   29.3700 H   0  0  0  0  0  0  0  0  0  0  0  0
   36.2720   29.5620   31.6980 H   0  0  0  0  0  0  0  0  0  0  0  0
   37.4890   30.8450   27.8110 H   0  0  0  0  0  0  0  0  0  0  0  0
   39.2920   23.8470   36.3420 C   0  0  0  0  0  0  0  0  0  0  0  0
   38.9630   23.1540   37.5210 C   0  0  0  0  0  0  0  0  0  0  0  0
   40.0170   22.4140   37.9040 N   0  0  0  0  0  0  0  0  0  0  0  0
   41.0000   22.6270   36.9940 C   0  0  0  0  0  0  0  0  0  0  0  0
   40.5670   23.4860   36.0570 N   0  0  0  0  0  0  0  0  0  0  0  0
   38.0370   23.1650   38.0800 H   0  0  0  0  0  0  0  0  0  0  0  0
   40.1120   21.7840   38.7300 H   0  0  0  0  0  0  0  0  0  0  0  0
   42.3540   20.5460   36.9880 C   0  0  1  0  0  3  0  0  0  0  0  0
   42.3640   22.0770   36.9180 C   0  0  1  0  0  3  0  0  0  0  0  0
   43.0290   22.3020   35.6010 C   0  0  0  0  0  3  0  0  0  0  0  0
   42.2180   22.5120   34.8500 H   0  0  0  0  0  0  0  0  0  0  0  0
   43.6210   21.1170   35.1940 O   0  0  0  0  0  0  0  0  0  0  0  0
   43.6930   20.2870   36.3020 C   0  0  0  0  0  3  0  0  0  0  0  0
   43.7540   19.2330   36.0380 H   0  0  0  0  0  0  0  0  0  0  0  0
   42.3410   20.0890   38.2950 O   0  0  0  0  0  0  0  0  0  0  0  0
   42.2660   20.9030   38.8780 H   0  0  0  0  0  0  0  0  0  0  0  0
  1  4  1  6  0  0  0
  1  3  1  0  0  0  0
  1  2  1  0  0  0  0
  2  6  1  0  0  0  0
  3  7  1  6  0  0  0
  3  2  1  0  0  0  0
  3 24  1  0  0  0  0
  5  2  1  0  0  0  0
  8  9  1  0  0  0  0
  8 12  2  0  0  0  0
  9 10  2  0  0  0  0
 10 14  1  0  0  0  0
 10 11  1  0  0  0  0
 11  1  1  0  0  0  0
 12 11  1  0  0  0  0
 13  9  1  0  0  0  0
 15 16  1  0  0  0  0
 16 17  2  0  0  0  0
 16  8  1  0  0  0  0
 17 22  1  0  0  0  0
 18 17  1  0  0  0  0
 19 18  2  0  0  0  0
 20 19  1  0  0  0  0
 20 15  2  0  0  0  0
 21 15  1  0  0  0  0
 23 19  1  0  0  0  0
 24 25  2  0  0  0  0
 25 26  1  0  0  0  0
 25 29  1  0  0  0  0
 26 30  1  0  0  0  0
 27 26  1  0  0  0  0
 28 24  1  0  0  0  0
 28 27  2  0  0  0  0
 31 38  1  1  0  0  0
 32 31  1  0  0  0  0
 32 27  1  6  0  0  0
 33 32  1  0  0  0  0
 34 33  1  0  0  0  0
 35 33  1  0  0  0  0
 35 36  1  0  0  0  0
 36 31  1  0  0  0  0
 37 36  1  0  0  0  0
 38 39  1  0  0  0  0
M  END
>  <minimizedAffinity>
-5.8723402

$$$$

 OpenBabel03272500493D

 39 43  0  0  1  0  0  0  0  0999 V2000
   37.3350   26.8900   33.1730 C   0  0  1  0  0  0  0  0  0  0  0  0
   38.7490   27.1670   32.5840 C   0  0  0  0  0  0  0  0  0  0  0  0
   38.5460   26.8090   34.0120 C   0  0  2  0  0  0  0  0  0  0  0  0
   36.8850   25.9200   32.8730 H   0  0  0  0  0  0  0  0  0  0  0  0
   38.9520   28.2130   32.2790 H   0  0  0  0  0  0  0  0  0  0  0  0
   39.1210   26.4110   31.8560 H   0  0  0  0  0  0  0  0  0  0  0  0
   38.6830   27.6050   34.7400 H   0  0  0  0  0  0  0  0  0  0  0  0
   35.3690   29.6920   34.3060 C   0  0  0  0  0  0  0  0  0  0  0  0
   35.0700   29.7070   32.9530 C   0  0  0  0  0  0  0  0  0  0  0  0
   35.7670   28.6550   32.3330 C   0  0  0  0  0  0  0  0  0  0  0  0
   36.4580   28.0410   33.3130 N   0  0  0  0  0  0  0  0  0  0  0  0
   36.2040   28.6700   34.4440 N   0  0  0  0  0  0  0  0  0  0  0  0
   34.4260   30.3660   32.3680 H   0  0  0  0  0  0  0  0  0  0  0  0
   35.7640   28.3770   31.2890 H   0  0  0  0  0  0  0  0  0  0  0  0
   33.4380   30.7290   35.5250 C   0  0  0  0  0  0  0  0  0  0  0  0
   34.8300   30.6310   35.2510 C   0  0  0  0  0  0  0  0  0  0  0  0
   35.6860   31.4880   35.9370 C   0  0  0  0  0  0  0  0  0  0  0  0
   35.1430   32.3690   36.8280 N   0  0  0  0  0  0  0  0  0  0  0  0
   33.8110   32.4260   37.0560 C   0  0  0  0  0  0  0  0  0  0  0  0
   32.9510   31.6000   36.4000 N   0  0  0  0  0  0  0  0  0  0  0  0
   32.8050   30.0530   34.9790 H   0  0  0  0  0  0  0  0  0  0  0  0
   36.7490   31.4330   35.7460 H   0  0  0  0  0  0  0  0  0  0  0  0
   33.3870   33.1250   37.7630 H   0  0  0  0  0  0  0  0  0  0  0  0
   38.9990   25.4650   34.4850 C   0  0  0  0  0  0  0  0  0  0  0  0
   38.3290   24.2610   34.2070 C   0  0  0  0  0  0  0  0  0  0  0  0
   38.9960   23.2450   34.7780 N   0  0  0  0  0  0  0  0  0  0  0  0
   40.0700   23.7830   35.4090 C   0  0  0  0  0  0  0  0  0  0  0  0
   40.0730   25.1150   35.2340 N   0  0  0  0  0  0  0  0  0  0  0  0
   37.4240   24.1040   33.6350 H   0  0  0  0  0  0  0  0  0  0  0  0
   38.7750   22.2250   34.7680 H   0  0  0  0  0  0  0  0  0  0  0  0
   40.6110   21.9140   36.9510 C   0  0  1  0  0  3  0  0  0  0  0  0
   41.1370   23.1380   36.1930 C   0  0  1  0  0  3  0  0  0  0  0  0
   42.2070   22.5220   35.3540 C   0  0  0  0  0  3  0  0  0  0  0  0
   41.7780   22.3680   34.3270 H   0  0  0  0  0  0  0  0  0  0  0  0
   42.4790   21.2530   35.8430 O   0  0  0  0  0  0  0  0  0  0  0  0
   41.9360   21.1740   37.1170 C   0  0  0  0  0  3  0  0  0  0  0  0
   41.7310   20.1510   37.4260 H   0  0  0  0  0  0  0  0  0  0  0  0
   40.0530   22.2620   38.1690 O   0  0  0  0  0  0  0  0  0  0  0  0
   40.0710   23.2650   38.2120 H   0  0  0  0  0  0  0  0  0  0  0  0
  1  4  1  6  0  0  0
  1 11  1  0  0  0  0
  1  3  1  0  0  0  0
  2  1  1  0  0  0  0
  2  3  1  0  0  0  0
  3 24  1  0  0  0  0
  3  7  1  1  0  0  0
  5  2  1  0  0  0  0
  6  2  1  0  0  0  0
  8 12  2  0  0  0  0
  8 16  1  0  0  0  0
  9  8  1  0  0  0  0
 10  9  2  0  0  0  0
 10 11  1  0  0  0  0
 11 12  1  0  0  0  0
 13  9  1  0  0  0  0
 14 10  1  0  0  0  0
 15 20  1  0  0  0  0
 16 15  2  0  0  0  0
 16 17  1  0  0  0  0
 17 18  2  0  0  0  0
 18 19  1  0  0  0  0
 19 23  1  0  0  0  0
 20 19  2  0  0  0  0
 21 15  1  0  0  0  0
 22 17  1  0  0  0  0
 24 28  1  0  0  0  0
 25 24  2  0  0  0  0
 25 26  1  0  0  0  0
 26 27  1  0  0  0  0
 28 27  2  0  0  0  0
 29 25  1  0  0  0  0
 30 26  1  0  0  0  0
 31 36  1  0  0  0  0
 31 38  1  1  0  0  0
 32 27  1  6  0  0  0
 32 31  1  0  0  0  0
 33 35  1  0  0  0  0
 33 32  1  0  0  0  0
 34 33  1  0  0  0  0
 35 36  1  0  0  0  0
 36 37  1  0  0  0  0
 38 39  1  0  0  0  0
M  END
>  <minimizedAffinity>
-5.86305094

$$$$

 OpenBabel03272500493D

 39 43  0  0  1  0  0  0  0  0999 V2000
   37.2000   26.5400   32.5410 C   0  0  1  0  0  0  0  0  0  0  0  0
   38.7540   26.4880   32.4670 C   0  0  0  0  0  0  0  0  0  0  0  0
   38.0000   25.9170   33.6130 C   0  0  2  0  0  0  0  0  0  0  0  0
   36.6750   25.8410   31.8570 H   0  0  0  0  0  0  0  0  0  0  0  0
   39.2770   27.4610   32.5530 H   0  0  0  0  0  0  0  0  0  0  0  0
   39.1740   25.8260   31.6760 H   0  0  0  0  0  0  0  0  0  0  0  0
   38.0530   26.4600   34.5540 H   0  0  0  0  0  0  0  0  0  0  0  0
   35.6810   29.5200   33.8880 C   0  0  0  0  0  0  0  0  0  0  0  0
   35.8120   29.8850   32.5580 C   0  0  0  0  0  0  0  0  0  0  0  0
   36.4020   28.8160   31.8610 C   0  0  0  0  0  0  0  0  0  0  0  0
   36.6090   27.8480   32.7740 N   0  0  0  0  0  0  0  0  0  0  0  0
   36.1790   28.2910   33.9400 N   0  0  0  0  0  0  0  0  0  0  0  0
   35.5420   30.8050   32.0370 H   0  0  0  0  0  0  0  0  0  0  0  0
   36.6480   28.7600   30.8110 H   0  0  0  0  0  0  0  0  0  0  0  0
   35.9060   31.2260   35.7130 C   0  0  0  0  0  0  0  0  0  0  0  0
   35.1140   30.3730   34.8960 C   0  0  0  0  0  0  0  0  0  0  0  0
   33.7360   30.3810   35.0990 C   0  0  0  0  0  0  0  0  0  0  0  0
   33.2290   31.2020   36.0640 N   0  0  0  0  0  0  0  0  0  0  0  0
   34.0230   31.9970   36.8170 C   0  0  0  0  0  0  0  0  0  0  0  0
   35.3720   32.0100   36.6400 N   0  0  0  0  0  0  0  0  0  0  0  0
   36.9650   31.1960   35.5300 H   0  0  0  0  0  0  0  0  0  0  0  0
   33.1120   29.7400   34.4900 H   0  0  0  0  0  0  0  0  0  0  0  0
   33.6150   32.6460   37.5790 H   0  0  0  0  0  0  0  0  0  0  0  0
   37.9510   24.4310   33.7690 C   0  0  0  0  0  0  0  0  0  0  0  0
   38.6060   23.7200   34.7900 C   0  0  0  0  0  0  0  0  0  0  0  0
   38.3580   22.4090   34.6420 N   0  0  0  0  0  0  0  0  0  0  0  0
   37.5630   22.2790   33.5500 C   0  0  0  0  0  0  0  0  0  0  0  0
   37.3180   23.4900   33.0260 N   0  0  0  0  0  0  0  0  0  0  0  0
   39.2230   24.1000   35.5940 H   0  0  0  0  0  0  0  0  0  0  0  0
   38.6880   21.6070   35.2220 H   0  0  0  0  0  0  0  0  0  0  0  0
   35.5300   20.8660   33.3560 C   0  0  1  0  0  3  0  0  0  0  0  0
   36.9880   21.0740   32.9280 C   0  0  1  0  0  3  0  0  0  0  0  0
   36.8420   21.1770   31.4460 C   0  0  0  0  0  3  0  0  0  0  0  0
   36.8600   22.2700   31.1850 H   0  0  0  0  0  0  0  0  0  0  0  0
   35.5810   20.7250   31.0910 O   0  0  0  0  0  0  0  0  0  0  0  0
   35.0740   20.0180   32.1710 C   0  0  0  0  0  3  0  0  0  0  0  0
   33.9870   19.9700   32.1730 H   0  0  0  0  0  0  0  0  0  0  0  0
   35.4380   20.1790   34.5550 O   0  0  0  0  0  0  0  0  0  0  0  0
   36.3790   20.0540   34.8820 H   0  0  0  0  0  0  0  0  0  0  0  0
  1  4  1  6  0  0  0
  1 11  1  0  0  0  0
  1  3  1  0  0  0  0
  2  1  1  0  0  0  0
  2  5  1  0  0  0  0
  2  3  1  0  0  0  0
  3 24  1  0  0  0  0
  3  7  1  1  0  0  0
  6  2  1  0  0  0  0
  8 12  2  0  0  0  0
  8 16  1  0  0  0  0
  9  8  1  0  0  0  0
 10  9  2  0  0  0  0
 10 11  1  0  0  0  0
 11 12  1  0  0  0  0
 13  9  1  0  0  0  0
 14 10  1  0  0  0  0
 15 20  1  0  0  0  0
 16 17  1  0  0  0  0
 16 15  2  0  0  0  0
 17 18  2  0  0  0  0
 18 19  1  0  0  0  0
 19 23  1  0  0  0  0
 20 19  2  0  0  0  0
 21 15  1  0  0  0  0
 22 17  1  0  0  0  0
 24 25  2  0  0  0  0
 25 29  1  0  0  0  0
 26 25  1  0  0  0  0
 26 30  1  0  0  0  0
 27 26  1  0  0  0  0
 28 27  2  0  0  0  0
 28 24  1  0  0  0  0
 31 38  1  1  0  0  0
 32 31  1  0  0  0  0
 32 27  1  1  0  0  0
 33 32  1  0  0  0  0
 34 33  1  0  0  0  0
 35 33  1  0  0  0  0
 35 36  1  0  0  0  0
 36 37  1  0  0  0  0
 36 31  1  0  0  0  0
 38 39  1  0  0  0  0
M  END
>  <minimizedAffinity>
-5.76008701

$$$$

 OpenBabel03272500493D

 39 43  0  0  1  0  0  0  0  0999 V2000
   38.1530   26.5700   34.3960 C   0  0  1  0  0  0  0  0  0  0  0  0
   39.2320   27.1310   35.3670 C   0  0  0  0  0  0  0  0  0  0  0  0
   38.1220   26.2650   35.8390 C   0  0  2  0  0  0  0  0  0  0  0  0
   38.5010   25.7500   33.7330 H   0  0  0  0  0  0  0  0  0  0  0  0
   39.2140   28.2280   35.5320 H   0  0  0  0  0  0  0  0  0  0  0  0
   40.2580   26.7190   35.2340 H   0  0  0  0  0  0  0  0  0  0  0  0
   37.3360   26.7460   36.4170 H   0  0  0  0  0  0  0  0  0  0  0  0
   35.5450   28.9960   33.8370 C   0  0  0  0  0  0  0  0  0  0  0  0
   36.0460   28.8660   32.5510 C   0  0  0  0  0  0  0  0  0  0  0  0
   37.0990   27.9350   32.5780 C   0  0  0  0  0  0  0  0  0  0  0  0
   37.2050   27.5320   33.8590 N   0  0  0  0  0  0  0  0  0  0  0  0
   36.2880   28.1700   34.5620 N   0  0  0  0  0  0  0  0  0  0  0  0
   35.7540   29.3480   31.6160 H   0  0  0  0  0  0  0  0  0  0  0  0
   37.7100   27.5960   31.7540 H   0  0  0  0  0  0  0  0  0  0  0  0
   34.5840   30.9060   35.1480 C   0  0  0  0  0  0  0  0  0  0  0  0
   34.4570   29.8690   34.1830 C   0  0  0  0  0  0  0  0  0  0  0  0
   33.2210   29.7110   33.5630 C   0  0  0  0  0  0  0  0  0  0  0  0
   32.2070   30.5540   33.9140 N   0  0  0  0  0  0  0  0  0  0  0  0
   32.3750   31.5280   34.8380 C   0  0  0  0  0  0  0  0  0  0  0  0
   33.5720   31.7060   35.4600 N   0  0  0  0  0  0  0  0  0  0  0  0
   35.5500   31.0010   35.6080 H   0  0  0  0  0  0  0  0  0  0  0  0
   33.0990   28.9280   32.8260 H   0  0  0  0  0  0  0  0  0  0  0  0
   31.5690   32.1940   35.1110 H   0  0  0  0  0  0  0  0  0  0  0  0
   38.4380   24.8730   36.2820 C   0  0  0  0  0  0  0  0  0  0  0  0
   37.6690   24.1420   37.2040 C   0  0  0  0  0  0  0  0  0  0  0  0
   38.2260   22.9330   37.3810 N   0  0  0  0  0  0  0  0  0  0  0  0
   39.3290   22.8880   36.5930 C   0  0  0  0  0  0  0  0  0  0  0  0
   39.4570   24.0500   35.9330 N   0  0  0  0  0  0  0  0  0  0  0  0
   36.7670   24.4390   37.7230 H   0  0  0  0  0  0  0  0  0  0  0  0
   37.9140   22.1480   37.9930 H   0  0  0  0  0  0  0  0  0  0  0  0
   41.2520   22.1250   35.2200 C   0  0  1  0  0  3  0  0  0  0  0  0
   40.3140   21.8120   36.3910 C   0  0  1  0  0  3  0  0  0  0  0  0
   41.2880   21.6730   37.5140 C   0  0  0  0  0  3  0  0  0  0  0  0
   41.2820   22.6440   38.0810 H   0  0  0  0  0  0  0  0  0  0  0  0
   42.5630   21.5540   36.9840 O   0  0  0  0  0  0  0  0  0  0  0  0
   42.4260   21.2420   35.6390 C   0  0  0  0  0  3  0  0  0  0  0  0
   43.2990   21.5170   35.0500 H   0  0  0  0  0  0  0  0  0  0  0  0
   40.7120   21.7320   34.0070 O   0  0  0  0  0  0  0  0  0  0  0  0
   39.7860   21.4000   34.2050 H   0  0  0  0  0  0  0  0  0  0  0  0
  1  4  1  6  0  0  0
  1  2  1  0  0  0  0
  1  3  1  0  0  0  0
  2  5  1  0  0  0  0
  2  3  1  0  0  0  0
  3 24  1  0  0  0  0
  3  7  1  1  0  0  0
  6  2  1  0  0  0  0
  8 16  1  0  0  0  0
  8 12  2  0  0  0  0
  9 10  2  0  0  0  0
  9  8  1  0  0  0  0
 10 11  1  0  0  0  0
 11  1  1  0  0  0  0
 11 12  1  0  0  0  0
 13  9  1  0  0  0  0
 14 10  1  0  0  0  0
 15 20  1  0  0  0  0
 15 21  1  0  0  0  0
 16 15  2  0  0  0  0
 17 18  2  0  0  0  0
 17 16  1  0  0  0  0
 18 19  1  0  0  0  0
 19 23  1  0  0  0  0
 19 20  2  0  0  0  0
 22 17  1  0  0  0  0
 24 25  2  0  0  0  0
 25 26  1  0  0  0  0
 25 29  1  0  0  0  0
 26 30  1  0  0  0  0
 27 26  1  0  0  0  0
 28 24  1  0  0  0  0
 28 27  2  0  0  0  0
 31 38  1  6  0  0  0
 31 36  1  0  0  0  0
 31 32  1  0  0  0  0
 32 27  1  1  0  0  0
 32 33  1  0  0  0  0
 33 34  1  0  0  0  0
 35 33  1  0  0  0  0
 36 35  1  0  0  0  0
 37 36  1  0  0  0  0
 38 39  1  0  0  0  0
M  END
>  <minimizedAffinity>
-5.72676992

$$$$

 OpenBabel03272500493D

 39 43  0  0  1  0  0  0  0  0999 V2000
   37.7710   26.1390   35.6170 C   0  0  1  0  0  0  0  0  0  0  0  0
   38.5080   27.4820   35.8920 C   0  0  0  0  0  0  0  0  0  0  0  0
   38.4940   26.8520   34.5470 C   0  0  2  0  0  0  0  0  0  0  0  0
   36.6640   26.2100   35.5880 H   0  0  0  0  0  0  0  0  0  0  0  0
   39.4030   27.4210   36.5430 H   0  0  0  0  0  0  0  0  0  0  0  0
   37.8510   28.3520   36.1200 H   0  0  0  0  0  0  0  0  0  0  0  0
   39.4220   26.3990   34.2070 H   0  0  0  0  0  0  0  0  0  0  0  0
   39.7690   23.2480   36.4250 C   0  0  0  0  0  0  0  0  0  0  0  0
   38.8450   23.2100   37.4570 C   0  0  0  0  0  0  0  0  0  0  0  0
   37.9610   24.2920   37.3000 C   0  0  0  0  0  0  0  0  0  0  0  0
   38.3680   24.9460   36.1950 N   0  0  0  0  0  0  0  0  0  0  0  0
   39.4210   24.3120   35.7140 N   0  0  0  0  0  0  0  0  0  0  0  0
   38.7290   22.5150   38.2900 H   0  0  0  0  0  0  0  0  0  0  0  0
   37.1220   24.5620   37.9240 H   0  0  0  0  0  0  0  0  0  0  0  0
   41.3820   21.5740   37.3650 C   0  0  0  0  0  0  0  0  0  0  0  0
   40.8280   22.2890   36.2680 C   0  0  0  0  0  0  0  0  0  0  0  0
   41.3470   22.0340   35.0020 C   0  0  0  0  0  0  0  0  0  0  0  0
   42.3520   21.1180   34.8860 N   0  0  0  0  0  0  0  0  0  0  0  0
   42.8480   20.4610   35.9600 C   0  0  0  0  0  0  0  0  0  0  0  0
   42.3590   20.6900   37.2080 N   0  0  0  0  0  0  0  0  0  0  0  0
   40.9590   21.7930   38.3280 H   0  0  0  0  0  0  0  0  0  0  0  0
   40.9420   22.5660   34.1510 H   0  0  0  0  0  0  0  0  0  0  0  0
   43.6430   19.7360   35.8620 H   0  0  0  0  0  0  0  0  0  0  0  0
   37.7000   27.5020   33.4590 C   0  0  0  0  0  0  0  0  0  0  0  0
   36.4320   28.0810   33.6430 C   0  0  0  0  0  0  0  0  0  0  0  0
   35.9990   28.5720   32.4710 N   0  0  0  0  0  0  0  0  0  0  0  0
   36.9660   28.3160   31.5540 C   0  0  0  0  0  0  0  0  0  0  0  0
   37.9870   27.6740   32.1460 N   0  0  0  0  0  0  0  0  0  0  0  0
   35.8430   28.1540   34.5480 H   0  0  0  0  0  0  0  0  0  0  0  0
   35.1040   29.0630   32.2530 H   0  0  0  0  0  0  0  0  0  0  0  0
   37.1360   30.1400   29.8790 C   0  0  1  0  0  3  0  0  0  0  0  0
   37.0240   28.6300   30.1160 C   0  0  1  0  0  3  0  0  0  0  0  0
   38.2640   28.1390   29.4460 C   0  0  0  0  0  3  0  0  0  0  0  0
   39.0320   27.9670   30.2500 H   0  0  0  0  0  0  0  0  0  0  0  0
   38.7720   29.1550   28.6510 O   0  0  0  0  0  0  0  0  0  0  0  0
   37.7660   30.0960   28.4890 C   0  0  0  0  0  3  0  0  0  0  0  0
   38.1480   31.0860   28.2450 H   0  0  0  0  0  0  0  0  0  0  0  0
   35.8940   30.7530   29.8680 O   0  0  0  0  0  0  0  0  0  0  0  0
   35.2250   30.0410   30.0990 H   0  0  0  0  0  0  0  0  0  0  0  0
  1  4  1  6  0  0  0
  1  2  1  0  0  0  0
  1 11  1  0  0  0  0
  2  6  1  0  0  0  0
  2  5  1  0  0  0  0
  3  7  1  6  0  0  0
  3  1  1  0  0  0  0
  3  2  1  0  0  0  0
  8  9  1  0  0  0  0
  9 13  1  0  0  0  0
 10  9  2  0  0  0  0
 10 14  1  0  0  0  0
 11 10  1  0  0  0  0
 12 11  1  0  0  0  0
 12  8  2  0  0  0  0
 15 21  1  0  0  0  0
 16  8  1  0  0  0  0
 16 15  2  0  0  0  0
 17 16  1  0  0  0  0
 18 17  2  0  0  0  0
 18 19  1  0  0  0  0
 19 20  2  0  0  0  0
 20 15  1  0  0  0  0
 22 17  1  0  0  0  0
 23 19  1  0  0  0  0
 24 25  2  0  0  0  0
 24  3  1  0  0  0  0
 25 29  1  0  0  0  0
 26 25  1  0  0  0  0
 27 28  2  0  0  0  0
 27 26  1  0  0  0  0
 28 24  1  0  0  0  0
 30 26  1  0  0  0  0
 31 38  1  6  0  0  0
 31 32  1  0  0  0  0
 32 27  1  1  0  0  0
 33 32  1  0  0  0  0
 33 34  1  0  0  0  0
 35 33  1  0  0  0  0
 36 35  1  0  0  0  0
 36 31  1  0  0  0  0
 37 36  1  0  0  0  0
 38 39  1  0  0  0  0
M  END
>  <minimizedAffinity>
-5.65697241

$$$$

 OpenBabel03272500493D

 39 43  0  0  1  0  0  0  0  0999 V2000
   37.7260   26.0440   35.7650 C   0  0  1  0  0  0  0  0  0  0  0  0
   38.5430   27.3680   35.7740 C   0  0  0  0  0  0  0  0  0  0  0  0
   38.2750   26.6180   34.5210 C   0  0  2  0  0  0  0  0  0  0  0  0
   36.6340   26.1670   35.9170 H   0  0  0  0  0  0  0  0  0  0  0  0
   39.5350   27.3230   36.2670 H   0  0  0  0  0  0  0  0  0  0  0  0
   37.9650   28.2870   36.0220 H   0  0  0  0  0  0  0  0  0  0  0  0
   39.1150   26.0900   34.0750 H   0  0  0  0  0  0  0  0  0  0  0  0
   39.8020   23.2010   36.5470 C   0  0  0  0  0  0  0  0  0  0  0  0
   38.9610   23.2080   37.6490 C   0  0  0  0  0  0  0  0  0  0  0  0
   38.0600   24.2780   37.5120 C   0  0  0  0  0  0  0  0  0  0  0  0
   38.3750   24.8810   36.3490 N   0  0  0  0  0  0  0  0  0  0  0  0
   39.3910   24.2290   35.8160 N   0  0  0  0  0  0  0  0  0  0  0  0
   38.9160   22.5520   38.5200 H   0  0  0  0  0  0  0  0  0  0  0  0
   37.2710   24.5750   38.1860 H   0  0  0  0  0  0  0  0  0  0  0  0
   41.3600   21.9090   35.0660 C   0  0  0  0  0  0  0  0  0  0  0  0
   40.8520   22.2390   36.3530 C   0  0  0  0  0  0  0  0  0  0  0  0
   41.4090   21.5930   37.4530 C   0  0  0  0  0  0  0  0  0  0  0  0
   42.4030   20.6840   37.2350 N   0  0  0  0  0  0  0  0  0  0  0  0
   42.8550   20.4020   35.9920 C   0  0  0  0  0  0  0  0  0  0  0  0
   42.3300   21.0190   34.8990 N   0  0  0  0  0  0  0  0  0  0  0  0
   40.9090   22.4250   34.2390 H   0  0  0  0  0  0  0  0  0  0  0  0
   41.0390   21.8270   38.4420 H   0  0  0  0  0  0  0  0  0  0  0  0
   43.6440   19.6820   35.8250 H   0  0  0  0  0  0  0  0  0  0  0  0
   37.3260   27.2030   33.5250 C   0  0  0  0  0  0  0  0  0  0  0  0
   37.2540   26.8130   32.1760 C   0  0  0  0  0  0  0  0  0  0  0  0
   36.3020   27.5320   31.5600 N   0  0  0  0  0  0  0  0  0  0  0  0
   35.7740   28.3660   32.4910 C   0  0  0  0  0  0  0  0  0  0  0  0
   36.3860   28.1690   33.6700 N   0  0  0  0  0  0  0  0  0  0  0  0
   37.8370   26.0660   31.6530 H   0  0  0  0  0  0  0  0  0  0  0  0
   35.9910   27.4970   30.5650 H   0  0  0  0  0  0  0  0  0  0  0  0
   34.5510   30.1780   33.6680 C   0  0  1  0  0  3  0  0  0  0  0  0
   34.7030   29.3700   32.3740 C   0  0  1  0  0  3  0  0  0  0  0  0
   35.0010   30.4520   31.3900 C   0  0  0  0  0  3  0  0  0  0  0  0
   36.1150   30.4610   31.2330 H   0  0  0  0  0  0  0  0  0  0  0  0
   34.6920   31.6740   31.9660 O   0  0  0  0  0  0  0  0  0  0  0  0
   33.8950   31.4220   33.0720 C   0  0  0  0  0  3  0  0  0  0  0  0
   33.9270   32.2220   33.8090 H   0  0  0  0  0  0  0  0  0  0  0  0
   33.7270   29.5410   34.5800 O   0  0  0  0  0  0  0  0  0  0  0  0
   33.4920   28.6520   34.1760 H   0  0  0  0  0  0  0  0  0  0  0  0
  1  2  1  0  0  0  0
  1  4  1  1  0  0  0
  1 11  1  0  0  0  0
  2  6  1  0  0  0  0
  2  5  1  0  0  0  0
  3  7  1  6  0  0  0
  3  1  1  0  0  0  0
  3  2  1  0  0  0  0
  8  9  1  0  0  0  0
  9 13  1  0  0  0  0
 10  9  2  0  0  0  0
 10 14  1  0  0  0  0
 11 10  1  0  0  0  0
 12 11  1  0  0  0  0
 12  8  2  0  0  0  0
 15 16  1  0  0  0  0
 16  8  1  0  0  0  0
 16 17  2  0  0  0  0
 17 22  1  0  0  0  0
 18 17  1  0  0  0  0
 19 18  2  0  0  0  0
 20 15  2  0  0  0  0
 20 19  1  0  0  0  0
 21 15  1  0  0  0  0
 23 19  1  0  0  0  0
 24 28  1  0  0  0  0
 24  3  1  0  0  0  0
 25 24  2  0  0  0  0
 26 25  1  0  0  0  0
 26 27  1  0  0  0  0
 27 28  2  0  0  0  0
 29 25  1  0  0  0  0
 30 26  1  0  0  0  0
 31 38  1  1  0  0  0
 32 27  1  1  0  0  0
 32 31  1  0  0  0  0
 33 35  1  0  0  0  0
 33 32  1  0  0  0  0
 34 33  1  0  0  0  0
 35 36  1  0  0  0  0
 36 31  1  0  0  0  0
 36 37  1  0  0  0  0
 39 38  1  0  0  0  0
M  END
>  <minimizedAffinity>
-5.56866121

$$$$

 OpenBabel03272500493D

 39 43  0  0  1  0  0  0  0  0999 V2000
   38.3890   26.7870   34.7460 C   0  0  1  0  0  0  0  0  0  0  0  0
   38.6860   26.8010   33.2190 C   0  0  0  0  0  0  0  0  0  0  0  0
   37.2990   26.8070   33.7520 C   0  0  2  0  0  0  0  0  0  0  0  0
   38.5870   27.7450   35.2700 H   0  0  0  0  0  0  0  0  0  0  0  0
   39.1360   25.8770   32.8020 H   0  0  0  0  0  0  0  0  0  0  0  0
   39.1490   27.7360   32.8290 H   0  0  0  0  0  0  0  0  0  0  0  0
   36.7280   25.8880   33.6430 H   0  0  0  0  0  0  0  0  0  0  0  0
   39.8070   23.7500   36.0750 C   0  0  0  0  0  0  0  0  0  0  0  0
   38.5890   23.7660   36.7350 C   0  0  0  0  0  0  0  0  0  0  0  0
   37.8810   24.9120   36.3290 C   0  0  0  0  0  0  0  0  0  0  0  0
   38.6780   25.5470   35.4480 N   0  0  0  0  0  0  0  0  0  0  0  0
   39.7880   24.8450   35.3260 N   0  0  0  0  0  0  0  0  0  0  0  0
   38.1540   23.0720   37.4560 H   0  0  0  0  0  0  0  0  0  0  0  0
   36.9000   25.2350   36.6440 H   0  0  0  0  0  0  0  0  0  0  0  0
   40.9290   21.9850   37.4600 C   0  0  0  0  0  0  0  0  0  0  0  0
   40.7930   22.7180   36.2490 C   0  0  0  0  0  0  0  0  0  0  0  0
   41.6590   22.4070   35.2040 C   0  0  0  0  0  0  0  0  0  0  0  0
   42.5840   21.4230   35.4010 N   0  0  0  0  0  0  0  0  0  0  0  0
   42.6760   20.7520   36.5720 C   0  0  0  0  0  0  0  0  0  0  0  0
   41.8430   21.0350   37.6100 N   0  0  0  0  0  0  0  0  0  0  0  0
   40.2450   22.2500   38.2460 H   0  0  0  0  0  0  0  0  0  0  0  0
   41.5750   22.9510   34.2730 H   0  0  0  0  0  0  0  0  0  0  0  0
   43.4100   19.9730   36.7220 H   0  0  0  0  0  0  0  0  0  0  0  0
   36.4830   28.0510   33.6110 C   0  0  0  0  0  0  0  0  0  0  0  0
   35.8310   28.4410   32.4280 C   0  0  0  0  0  0  0  0  0  0  0  0
   35.1900   29.6020   32.6420 N   0  0  0  0  0  0  0  0  0  0  0  0
   35.4250   29.9510   33.9310 C   0  0  0  0  0  0  0  0  0  0  0  0
   36.2000   29.0220   34.5140 N   0  0  0  0  0  0  0  0  0  0  0  0
   35.8050   27.9400   31.4700 H   0  0  0  0  0  0  0  0  0  0  0  0
   34.6130   30.1650   31.9800 H   0  0  0  0  0  0  0  0  0  0  0  0
   33.6960   30.8110   35.4920 C   0  0  1  0  0  3  0  0  0  0  0  0
   34.9710   31.1230   34.7000 C   0  0  1  0  0  3  0  0  0  0  0  0
   35.9040   31.5180   35.7960 C   0  0  0  0  0  3  0  0  0  0  0  0
   36.5490   30.6260   36.0220 H   0  0  0  0  0  0  0  0  0  0  0  0
   35.1650   31.7510   36.9450 O   0  0  0  0  0  0  0  0  0  0  0  0
   33.8380   31.8870   36.5660 C   0  0  0  0  0  3  0  0  0  0  0  0
   33.1420   31.6710   37.3740 H   0  0  0  0  0  0  0  0  0  0  0  0
   32.5560   30.9870   34.7260 O   0  0  0  0  0  0  0  0  0  0  0  0
   32.8710   31.2100   33.7980 H   0  0  0  0  0  0  0  0  0  0  0  0
  1  4  1  1  0  0  0
  1 11  1  0  0  0  0
  2  3  1  0  0  0  0
  2  1  1  0  0  0  0
  3  7  1  6  0  0  0
  3  1  1  0  0  0  0
  5  2  1  0  0  0  0
  6  2  1  0  0  0  0
  8 16  1  0  0  0  0
  8  9  1  0  0  0  0
  9 13  1  0  0  0  0
 10 14  1  0  0  0  0
 10  9  2  0  0  0  0
 11 10  1  0  0  0  0
 12 11  1  0  0  0  0
 12  8  2  0  0  0  0
 15 20  1  0  0  0  0
 15 21  1  0  0  0  0
 16 15  2  0  0  0  0
 17 18  2  0  0  0  0
 17 16  1  0  0  0  0
 18 19  1  0  0  0  0
 19 23  1  0  0  0  0
 19 20  2  0  0  0  0
 22 17  1  0  0  0  0
 24  3  1  0  0  0  0
 24 28  1  0  0  0  0
 25 26  1  0  0  0  0
 25 24  2  0  0  0  0
 26 27  1  0  0  0  0
 27 28  2  0  0  0  0
 29 25  1  0  0  0  0
 30 26  1  0  0  0  0
 31 38  1  6  0  0  0
 31 36  1  0  0  0  0
 32 27  1  1  0  0  0
 32 31  1  0  0  0  0
 32 33  1  0  0  0  0
 33 34  1  0  0  0  0
 33 35  1  0  0  0  0
 36 35  1  0  0  0  0
 36 37  1  0  0  0  0
 39 38  1  0  0  0  0
M  END
>  <minimizedAffinity>
-5.5492363

$$$$

 OpenBabel03272500493D

 39 43  0  0  1  0  0  0  0  0999 V2000
   36.7820   27.2290   32.8170 C   0  0  1  0  0  0  0  0  0  0  0  0
   38.2660   27.3980   32.3810 C   0  0  0  0  0  0  0  0  0  0  0  0
   37.8930   26.8500   33.7110 C   0  0  2  0  0  0  0  0  0  0  0  0
   36.2430   26.3900   32.3290 H   0  0  0  0  0  0  0  0  0  0  0  0
   38.6240   28.4410   32.2710 H   0  0  0  0  0  0  0  0  0  0  0  0
   38.6050   26.7230   31.5630 H   0  0  0  0  0  0  0  0  0  0  0  0
   38.0620   27.4940   34.5710 H   0  0  0  0  0  0  0  0  0  0  0  0
   35.0790   30.0560   34.2700 C   0  0  0  0  0  0  0  0  0  0  0  0
   34.9200   30.3330   32.9220 C   0  0  0  0  0  0  0  0  0  0  0  0
   35.5370   29.3090   32.1820 C   0  0  0  0  0  0  0  0  0  0  0  0
   36.0460   28.4530   33.0900 N   0  0  0  0  0  0  0  0  0  0  0  0
   35.7620   28.9180   34.2910 N   0  0  0  0  0  0  0  0  0  0  0  0
   34.4240   31.1630   32.4140 H   0  0  0  0  0  0  0  0  0  0  0  0
   35.6030   29.2090   31.1090 H   0  0  0  0  0  0  0  0  0  0  0  0
   35.4070   31.7450   36.0950 C   0  0  0  0  0  0  0  0  0  0  0  0
   34.5710   30.8940   35.3210 C   0  0  0  0  0  0  0  0  0  0  0  0
   33.2090   30.8890   35.6100 C   0  0  0  0  0  0  0  0  0  0  0  0
   32.7580   31.6950   36.6150 N   0  0  0  0  0  0  0  0  0  0  0  0
   33.5920   32.4890   37.3240 C   0  0  0  0  0  0  0  0  0  0  0  0
   34.9270   32.5150   37.0630 N   0  0  0  0  0  0  0  0  0  0  0  0
   36.4530   31.7250   35.8450 H   0  0  0  0  0  0  0  0  0  0  0  0
   32.5520   30.2490   35.0360 H   0  0  0  0  0  0  0  0  0  0  0  0
   33.2290   33.1270   38.1180 H   0  0  0  0  0  0  0  0  0  0  0  0
   38.1310   25.3990   33.9800 C   0  0  0  0  0  0  0  0  0  0  0  0
   37.8430   24.3670   33.0700 C   0  0  0  0  0  0  0  0  0  0  0  0
   38.1730   23.1890   33.6220 N   0  0  0  0  0  0  0  0  0  0  0  0
   38.6610   23.4560   34.8590 C   0  0  0  0  0  0  0  0  0  0  0  0
   38.6370   24.7810   35.0760 N   0  0  0  0  0  0  0  0  0  0  0  0
   37.4250   24.4370   32.0740 H   0  0  0  0  0  0  0  0  0  0  0  0
   38.0900   22.2290   33.2220 H   0  0  0  0  0  0  0  0  0  0  0  0
   40.7020   22.5380   35.9340 C   0  0  1  0  0  3  0  0  0  0  0  0
   39.1700   22.5460   35.9010 C   0  0  1  0  0  3  0  0  0  0  0  0
   38.8520   22.9890   37.2900 C   0  0  0  0  0  3  0  0  0  0  0  0
   38.6200   24.0880   37.2450 H   0  0  0  0  0  0  0  0  0  0  0  0
   39.9950   22.8760   38.0650 O   0  0  0  0  0  0  0  0  0  0  0  0
   40.8860   22.0670   37.3750 C   0  0  0  0  0  3  0  0  0  0  0  0
   41.9210   22.2310   37.6680 H   0  0  0  0  0  0  0  0  0  0  0  0
   41.2330   21.6420   35.0220 O   0  0  0  0  0  0  0  0  0  0  0  0
   40.4570   21.2700   34.5060 H   0  0  0  0  0  0  0  0  0  0  0  0
  1  4  1  6  0  0  0
  1 11  1  0  0  0  0
  1  3  1  0  0  0  0
  2  1  1  0  0  0  0
  2  3  1  0  0  0  0
  3 24  1  0  0  0  0
  3  7  1  1  0  0  0
  5  2  1  0  0  0  0
  6  2  1  0  0  0  0
  8 12  2  0  0  0  0
  8 16  1  0  0  0  0
  9  8  1  0  0  0  0
 10  9  2  0  0  0  0
 10 11  1  0  0  0  0
 11 12  1  0  0  0  0
 13  9  1  0  0  0  0
 14 10  1  0  0  0  0
 15 20  1  0  0  0  0
 16 17  1  0  0  0  0
 16 15  2  0  0  0  0
 17 18  2  0  0  0  0
 18 19  1  0  0  0  0
 19 23  1  0  0  0  0
 20 19  2  0  0  0  0
 21 15  1  0  0  0  0
 22 17  1  0  0  0  0
 24 28  1  0  0  0  0
 25 26  1  0  0  0  0
 25 24  2  0  0  0  0
 26 27  1  0  0  0  0
 27 28  2  0  0  0  0
 29 25  1  0  0  0  0
 30 26  1  0  0  0  0
 31 38  1  6  0  0  0
 31 36  1  0  0  0  0
 32 27  1  6  0  0  0
 32 31  1  0  0  0  0
 32 33  1  0  0  0  0
 33 35  1  0  0  0  0
 34 33  1  0  0  0  0
 36 37  1  0  0  0  0
 36 35  1  0  0  0  0
 39 38  1  0  0  0  0
M  END
>  <minimizedAffinity>
-5.54179764

$$$$

 OpenBabel03272500493D

 39 43  0  0  1  0  0  0  0  0999 V2000
   36.5470   27.8040   31.7230 C   0  0  1  0  0  0  0  0  0  0  0  0
   37.9950   27.3220   32.0270 C   0  0  0  0  0  0  0  0  0  0  0  0
   36.8030   26.6370   32.5880 C   0  0  2  0  0  0  0  0  0  0  0  0
   36.1850   27.5800   30.6980 H   0  0  0  0  0  0  0  0  0  0  0  0
   38.6130   28.0000   32.6500 H   0  0  0  0  0  0  0  0  0  0  0  0
   38.5470   26.8870   31.1630 H   0  0  0  0  0  0  0  0  0  0  0  0
   36.6140   26.7720   33.6500 H   0  0  0  0  0  0  0  0  0  0  0  0
   35.3160   30.4350   33.8600 C   0  0  0  0  0  0  0  0  0  0  0  0
   35.7360   31.1760   32.7670 C   0  0  0  0  0  0  0  0  0  0  0  0
   36.2600   30.2920   31.8070 C   0  0  0  0  0  0  0  0  0  0  0  0
   36.1430   29.0590   32.3370 N   0  0  0  0  0  0  0  0  0  0  0  0
   35.5920   29.1800   33.5290 N   0  0  0  0  0  0  0  0  0  0  0  0
   35.7140   32.2510   32.5780 H   0  0  0  0  0  0  0  0  0  0  0  0
   36.6740   30.5300   30.8380 H   0  0  0  0  0  0  0  0  0  0  0  0
   35.4930   31.6810   36.0290 C   0  0  0  0  0  0  0  0  0  0  0  0
   34.7260   31.0140   35.0350 C   0  0  0  0  0  0  0  0  0  0  0  0
   33.3490   30.9320   35.2280 C   0  0  0  0  0  0  0  0  0  0  0  0
   32.8190   31.4910   36.3550 N   0  0  0  0  0  0  0  0  0  0  0  0
   33.5900   32.1160   37.2740 C   0  0  0  0  0  0  0  0  0  0  0  0
   34.9370   32.2120   37.1110 N   0  0  0  0  0  0  0  0  0  0  0  0
   36.5520   31.7270   35.8500 H   0  0  0  0  0  0  0  0  0  0  0  0
   32.7430   30.4290   34.4860 H   0  0  0  0  0  0  0  0  0  0  0  0
   33.1650   32.5580   38.1640 H   0  0  0  0  0  0  0  0  0  0  0  0
   36.4500   25.2770   32.0760 C   0  0  0  0  0  0  0  0  0  0  0  0
   35.4040   25.0190   31.1730 C   0  0  0  0  0  0  0  0  0  0  0  0
   35.3570   23.7010   30.9200 N   0  0  0  0  0  0  0  0  0  0  0  0
   36.3490   23.1250   31.6450 C   0  0  0  0  0  0  0  0  0  0  0  0
   37.0060   24.0690   32.3380 N   0  0  0  0  0  0  0  0  0  0  0  0
   34.7130   25.7150   30.7160 H   0  0  0  0  0  0  0  0  0  0  0  0
   34.7060   23.1730   30.2990 H   0  0  0  0  0  0  0  0  0  0  0  0
   35.6430   20.7740   31.2710 C   0  0  1  0  0  3  0  0  0  0  0  0
   36.7560   21.7130   31.7510 C   0  0  1  0  0  3  0  0  0  0  0  0
   37.8680   21.3390   30.8280 C   0  0  0  0  0  3  0  0  0  0  0  0
   37.8970   22.1110   30.0110 H   0  0  0  0  0  0  0  0  0  0  0  0
   37.5460   20.1430   30.2060 O   0  0  0  0  0  0  0  0  0  0  0  0
   36.5110   19.5660   30.9270 C   0  0  0  0  0  3  0  0  0  0  0  0
   35.9220   18.8670   30.3360 H   0  0  0  0  0  0  0  0  0  0  0  0
   34.7360   20.4920   32.2790 O   0  0  0  0  0  0  0  0  0  0  0  0
   35.0080   21.0510   33.0680 H   0  0  0  0  0  0  0  0  0  0  0  0
  1  4  1  6  0  0  0
  1  2  1  0  0  0  0
  1 11  1  0  0  0  0
  1  3  1  0  0  0  0
  2  3  1  0  0  0  0
  2  5  1  0  0  0  0
  3  7  1  1  0  0  0
  6  2  1  0  0  0  0
  8 16  1  0  0  0  0
  9  8  1  0  0  0  0
 10 11  1  0  0  0  0
 10  9  2  0  0  0  0
 11 12  1  0  0  0  0
 12  8  2  0  0  0  0
 13  9  1  0  0  0  0
 14 10  1  0  0  0  0
 15 20  1  0  0  0  0
 16 17  1  0  0  0  0
 16 15  2  0  0  0  0
 17 18  2  0  0  0  0
 18 19  1  0  0  0  0
 19 23  1  0  0  0  0
 20 19  2  0  0  0  0
 21 15  1  0  0  0  0
 22 17  1  0  0  0  0
 24 28  1  0  0  0  0
 24  3  1  0  0  0  0
 25 24  2  0  0  0  0
 26 25  1  0  0  0  0
 26 27  1  0  0  0  0
 27 28  2  0  0  0  0
 29 25  1  0  0  0  0
 30 26  1  0  0  0  0
 31 32  1  0  0  0  0
 31 38  1  1  0  0  0
 32 27  1  6  0  0  0
 33 32  1  0  0  0  0
 34 33  1  0  0  0  0
 35 33  1  0  0  0  0
 35 36  1  0  0  0  0
 36 31  1  0  0  0  0
 37 36  1  0  0  0  0
 38 39  1  0  0  0  0
M  END
>  <minimizedAffinity>
-5.54014587

$$$$
