
 OpenBabel03272505463D

 25 27  0  0  1  0  0  0  0  0999 V2000
   39.9480   23.9850   35.4690 C   0  0  0  0  0  0  0  0  0  0  0  0
   41.3790   24.1640   35.4010 C   0  0  0  0  0  0  0  0  0  0  0  0
   40.7130   23.4160   34.3000 C   0  0  0  0  0  0  0  0  0  0  0  0
   42.1220   23.6650   36.0420 H   0  0  0  0  0  0  0  0  0  0  0  0
   41.7240   25.2010   35.1320 H   0  0  0  0  0  0  0  0  0  0  0  0
   40.6050   23.8560   33.2980 H   0  0  0  0  0  0  0  0  0  0  0  0
   40.9160   22.3310   34.2820 H   0  0  0  0  0  0  0  0  0  0  0  0
   38.1250   27.1960   35.6640 C   0  0  0  0  0  0  0  0  0  0  0  0
   37.2220   27.1220   34.6040 C   0  0  0  0  0  0  0  0  0  0  0  0
   37.2410   25.9590   33.8240 C   0  0  0  0  0  0  0  0  0  0  0  0
   38.1270   24.9660   34.1300 N   0  0  0  0  0  0  0  0  0  0  0  0
   38.9940   25.0860   35.1820 C   0  0  0  0  0  0  0  0  0  0  0  0
   38.9890   26.2080   35.9480 N   0  0  0  0  0  0  0  0  0  0  0  0
   38.0690   28.1240   36.2410 H   0  0  0  0  0  0  0  0  0  0  0  0
   36.5150   27.8920   34.3460 H   0  0  0  0  0  0  0  0  0  0  0  0
   36.5870   25.7840   32.9750 H   0  0  0  0  0  0  0  0  0  0  0  0
   37.9060   23.3050   36.8000 C   0  0  2  0  0  3  0  0  0  0  0  0
   39.2360   22.9140   36.2800 C   0  0  2  0  0  3  0  0  0  0  0  0
   40.0220   22.5740   37.5320 C   0  0  0  0  0  3  0  0  0  0  0  0
   39.8840   21.4950   37.7140 H   0  0  0  0  0  0  0  0  0  0  0  0
   39.4680   23.3570   38.5220 O   0  0  0  0  0  0  0  0  0  0  0  0
   38.1180   23.5100   38.2640 C   0  0  0  0  0  3  0  0  0  0  0  0
   37.5650   22.7920   38.9140 H   0  0  0  0  0  0  0  0  0  0  0  0
   37.0300   22.2110   36.6630 O   0  0  0  0  0  0  0  0  0  0  0  0
   36.2200   22.4390   36.1430 H   0  0  0  0  0  0  0  0  0  0  0  0
  2  1  1  0  0  0  0
  2  4  1  0  0  0  0
  3  2  1  0  0  0  0
  3  1  1  0  0  0  0
  5  2  1  0  0  0  0
  6  3  1  0  0  0  0
  7  3  1  0  0  0  0
  8 13  1  0  0  0  0
  8 14  1  0  0  0  0
  9  8  2  0  0  0  0
 10 11  2  0  0  0  0
 10  9  1  0  0  0  0
 11 12  1  0  0  0  0
 12  1  1  0  0  0  0
 12 13  2  0  0  0  0
 15  9  1  0  0  0  0
 16 10  1  0  0  0  0
 17 24  1  1  0  0  0
 17 22  1  0  0  0  0
 18  1  1  1  0  0  0
 18 17  1  0  0  0  0
 18 19  1  0  0  0  0
 19 20  1  0  0  0  0
 19 21  1  0  0  0  0
 22 21  1  0  0  0  0
 22 23  1  0  0  0  0
 25 24  1  0  0  0  0
M  END
>  <minimizedAffinity>
-4.29617929

$$$$

 OpenBabel03272505463D

 25 27  0  0  1  0  0  0  0  0999 V2000
   39.9690   23.9820   35.4540 C   0  0  0  0  0  0  0  0  0  0  0  0
   41.4000   24.1640   35.4040 C   0  0  0  0  0  0  0  0  0  0  0  0
   40.7500   23.4130   34.2950 C   0  0  0  0  0  0  0  0  0  0  0  0
   42.1360   23.6680   36.0550 H   0  0  0  0  0  0  0  0  0  0  0  0
   41.7470   25.2020   35.1360 H   0  0  0  0  0  0  0  0  0  0  0  0
   40.6540   23.8500   33.2920 H   0  0  0  0  0  0  0  0  0  0  0  0
   40.9560   22.3280   34.2820 H   0  0  0  0  0  0  0  0  0  0  0  0
   37.2600   25.9550   33.8940 C   0  0  0  0  0  0  0  0  0  0  0  0
   37.2480   27.1360   34.6350 C   0  0  0  0  0  0  0  0  0  0  0  0
   38.1810   27.2510   35.6730 C   0  0  0  0  0  0  0  0  0  0  0  0
   39.0450   26.2210   35.9090 N   0  0  0  0  0  0  0  0  0  0  0  0
   39.0170   25.0810   35.1520 C   0  0  0  0  0  0  0  0  0  0  0  0
   38.1180   24.9530   34.1420 N   0  0  0  0  0  0  0  0  0  0  0  0
   36.5120   25.9160   33.0950 H   0  0  0  0  0  0  0  0  0  0  0  0
   36.5760   27.9600   34.4660 H   0  0  0  0  0  0  0  0  0  0  0  0
   38.2700   28.1200   36.3190 H   0  0  0  0  0  0  0  0  0  0  0  0
   37.9200   23.3070   36.7750 C   0  0  2  0  0  3  0  0  0  0  0  0
   39.2500   22.9110   36.2580 C   0  0  2  0  0  3  0  0  0  0  0  0
   40.0290   22.5630   37.5110 C   0  0  0  0  0  3  0  0  0  0  0  0
   39.8850   21.4840   37.6890 H   0  0  0  0  0  0  0  0  0  0  0  0
   39.4760   23.3440   38.5020 O   0  0  0  0  0  0  0  0  0  0  0  0
   38.1270   23.5040   38.2400 C   0  0  0  0  0  3  0  0  0  0  0  0
   37.5690   22.7870   38.8850 H   0  0  0  0  0  0  0  0  0  0  0  0
   37.0390   22.2170   36.6300 O   0  0  0  0  0  0  0  0  0  0  0  0
   36.2320   22.4510   36.1090 H   0  0  0  0  0  0  0  0  0  0  0  0
  2  1  1  0  0  0  0
  2  4  1  0  0  0  0
  3  2  1  0  0  0  0
  3  1  1  0  0  0  0
  5  2  1  0  0  0  0
  6  3  1  0  0  0  0
  7  3  1  0  0  0  0
  8 13  2  0  0  0  0
  8  9  1  0  0  0  0
  9 10  2  0  0  0  0
 10 11  1  0  0  0  0
 10 16  1  0  0  0  0
 12  1  1  0  0  0  0
 12 11  2  0  0  0  0
 13 12  1  0  0  0  0
 14  8  1  0  0  0  0
 15  9  1  0  0  0  0
 17 24  1  1  0  0  0
 17 22  1  0  0  0  0
 18  1  1  1  0  0  0
 18 17  1  0  0  0  0
 18 19  1  0  0  0  0
 19 20  1  0  0  0  0
 19 21  1  0  0  0  0
 22 21  1  0  0  0  0
 22 23  1  0  0  0  0
 25 24  1  0  0  0  0
M  END
>  <minimizedAffinity>
-4.29426146

$$$$

 OpenBabel03272505463D

 25 27  0  0  1  0  0  0  0  0999 V2000
   38.6960   23.8800   36.6280 C   0  0  0  0  0  0  0  0  0  0  0  0
   38.0970   24.1880   37.9050 C   0  0  0  0  0  0  0  0  0  0  0  0
   37.3810   23.2430   37.0050 C   0  0  0  0  0  0  0  0  0  0  0  0
   37.6350   25.1460   38.1860 H   0  0  0  0  0  0  0  0  0  0  0  0
   38.5920   23.7120   38.7980 H   0  0  0  0  0  0  0  0  0  0  0  0
   37.3290   22.1690   37.2330 H   0  0  0  0  0  0  0  0  0  0  0  0
   36.4550   23.6400   36.5520 H   0  0  0  0  0  0  0  0  0  0  0  0
   41.5720   21.7100   37.4600 C   0  0  0  0  0  0  0  0  0  0  0  0
   42.0350   21.2910   36.2130 C   0  0  0  0  0  0  0  0  0  0  0  0
   41.3540   21.7630   35.0840 C   0  0  0  0  0  0  0  0  0  0  0  0
   40.2860   22.5980   35.2500 N   0  0  0  0  0  0  0  0  0  0  0  0
   39.8700   22.9800   36.4970 C   0  0  0  0  0  0  0  0  0  0  0  0
   40.5190   22.5310   37.6020 N   0  0  0  0  0  0  0  0  0  0  0  0
   42.1380   21.3140   38.3090 H   0  0  0  0  0  0  0  0  0  0  0  0
   42.8740   20.6350   36.0600 H   0  0  0  0  0  0  0  0  0  0  0  0
   41.6190   21.5090   34.0620 H   0  0  0  0  0  0  0  0  0  0  0  0
   39.8460   25.4280   34.9900 C   0  0  2  0  0  3  0  0  0  0  0  0
   38.5920   24.7440   35.3810 C   0  0  2  0  0  3  0  0  0  0  0  0
   37.6160   25.8840   35.5950 C   0  0  0  0  0  3  0  0  0  0  0  0
   37.1080   26.0560   34.6320 H   0  0  0  0  0  0  0  0  0  0  0  0
   38.3970   26.9520   35.9830 O   0  0  0  0  0  0  0  0  0  0  0  0
   39.6220   26.8600   35.3460 C   0  0  0  0  0  3  0  0  0  0  0  0
   39.6030   27.5550   34.4740 H   0  0  0  0  0  0  0  0  0  0  0  0
   39.9720   25.3700   33.5890 O   0  0  0  0  0  0  0  0  0  0  0  0
   40.8230   24.9560   33.3030 H   0  0  0  0  0  0  0  0  0  0  0  0
  1  3  1  0  0  0  0
  1  2  1  0  0  0  0
  2  4  1  0  0  0  0
  2  5  1  0  0  0  0
  3  6  1  0  0  0  0
  3  2  1  0  0  0  0
  7  3  1  0  0  0  0
  8 13  1  0  0  0  0
  8 14  1  0  0  0  0
  9  8  2  0  0  0  0
 10 11  2  0  0  0  0
 10  9  1  0  0  0  0
 11 12  1  0  0  0  0
 12  1  1  0  0  0  0
 12 13  2  0  0  0  0
 15  9  1  0  0  0  0
 16 10  1  0  0  0  0
 17 24  1  6  0  0  0
 17 22  1  0  0  0  0
 17 18  1  0  0  0  0
 18 19  1  0  0  0  0
 18  1  1  1  0  0  0
 19 21  1  0  0  0  0
 20 19  1  0  0  0  0
 22 21  1  0  0  0  0
 23 22  1  0  0  0  0
 25 24  1  0  0  0  0
M  END
>  <minimizedAffinity>
-4.07075214

$$$$

 OpenBabel03272505463D

 25 27  0  0  1  0  0  0  0  0999 V2000
   38.6270   24.2870   34.2900 C   0  0  0  0  0  0  0  0  0  0  0  0
   37.7270   23.6170   33.3810 C   0  0  0  0  0  0  0  0  0  0  0  0
   39.1770   23.2950   33.2950 C   0  0  0  0  0  0  0  0  0  0  0  0
   37.2090   24.0810   32.5280 H   0  0  0  0  0  0  0  0  0  0  0  0
   37.0870   22.8120   33.8410 H   0  0  0  0  0  0  0  0  0  0  0  0
   39.5660   22.3250   33.6350 H   0  0  0  0  0  0  0  0  0  0  0  0
   39.6890   23.6800   32.3960 H   0  0  0  0  0  0  0  0  0  0  0  0
   37.7900   23.8460   37.8640 C   0  0  0  0  0  0  0  0  0  0  0  0
   38.9220   23.2230   38.3890 C   0  0  0  0  0  0  0  0  0  0  0  0
   39.9760   22.9590   37.5050 C   0  0  0  0  0  0  0  0  0  0  0  0
   39.8530   23.3170   36.1940 N   0  0  0  0  0  0  0  0  0  0  0  0
   38.7200   23.9270   35.7270 C   0  0  0  0  0  0  0  0  0  0  0  0
   37.6880   24.1890   36.5700 N   0  0  0  0  0  0  0  0  0  0  0  0
   36.9960   24.0290   38.5940 H   0  0  0  0  0  0  0  0  0  0  0  0
   39.0400   22.9330   39.4180 H   0  0  0  0  0  0  0  0  0  0  0  0
   40.9080   22.4800   37.7940 H   0  0  0  0  0  0  0  0  0  0  0  0
   39.6530   26.3520   35.3310 C   0  0  2  0  0  3  0  0  0  0  0  0
   39.1890   25.6860   34.0930 C   0  0  2  0  0  3  0  0  0  0  0  0
   38.1230   26.6250   33.5620 C   0  0  0  0  0  3  0  0  0  0  0  0
   38.6270   27.3290   32.8790 H   0  0  0  0  0  0  0  0  0  0  0  0
   37.6080   27.2460   34.6800 O   0  0  0  0  0  0  0  0  0  0  0  0
   38.6190   27.3910   35.6130 C   0  0  0  0  0  3  0  0  0  0  0  0
   38.9900   28.4400   35.5490 H   0  0  0  0  0  0  0  0  0  0  0  0
   40.8530   27.0350   35.0520 O   0  0  0  0  0  0  0  0  0  0  0  0
   41.5920   26.7580   35.6470 H   0  0  0  0  0  0  0  0  0  0  0  0
  1 12  1  0  0  0  0
  2  5  1  0  0  0  0
  2  1  1  0  0  0  0
  3  2  1  0  0  0  0
  3  6  1  0  0  0  0
  3  1  1  0  0  0  0
  4  2  1  0  0  0  0
  7  3  1  0  0  0  0
  8  9  1  0  0  0  0
  8 14  1  0  0  0  0
  9 15  1  0  0  0  0
 10 16  1  0  0  0  0
 10  9  2  0  0  0  0
 11 10  1  0  0  0  0
 12 11  2  0  0  0  0
 12 13  1  0  0  0  0
 13  8  2  0  0  0  0
 17 24  1  6  0  0  0
 17 22  1  0  0  0  0
 18  1  1  1  0  0  0
 18 17  1  0  0  0  0
 19 18  1  0  0  0  0
 19 21  1  0  0  0  0
 20 19  1  0  0  0  0
 21 22  1  0  0  0  0
 23 22  1  0  0  0  0
 24 25  1  0  0  0  0
M  END
>  <minimizedAffinity>
-4.06517744

$$$$

 OpenBabel03272505463D

 25 27  0  0  1  0  0  0  0  0999 V2000
   38.7800   23.9800   34.3520 C   0  0  0  0  0  0  0  0  0  0  0  0
   37.8210   23.3270   33.4920 C   0  0  0  0  0  0  0  0  0  0  0  0
   39.2320   22.8530   33.4560 C   0  0  0  0  0  0  0  0  0  0  0  0
   37.3580   23.7630   32.5940 H   0  0  0  0  0  0  0  0  0  0  0  0
   37.1000   22.6340   34.0110 H   0  0  0  0  0  0  0  0  0  0  0  0
   39.5180   21.8820   33.8840 H   0  0  0  0  0  0  0  0  0  0  0  0
   39.7850   23.1040   32.5340 H   0  0  0  0  0  0  0  0  0  0  0  0
   39.9290   22.9280   37.7050 C   0  0  0  0  0  0  0  0  0  0  0  0
   38.8910   23.3280   38.5460 C   0  0  0  0  0  0  0  0  0  0  0  0
   37.7910   23.9590   37.9510 C   0  0  0  0  0  0  0  0  0  0  0  0
   37.7830   24.1500   36.5990 N   0  0  0  0  0  0  0  0  0  0  0  0
   38.8280   23.7390   35.8160 C   0  0  0  0  0  0  0  0  0  0  0  0
   39.9030   23.1270   36.3770 N   0  0  0  0  0  0  0  0  0  0  0  0
   40.7640   22.4410   38.2190 H   0  0  0  0  0  0  0  0  0  0  0  0
   38.8770   23.1870   39.6120 H   0  0  0  0  0  0  0  0  0  0  0  0
   36.9230   24.3140   38.4990 H   0  0  0  0  0  0  0  0  0  0  0  0
   39.9200   26.0600   35.2300 C   0  0  2  0  0  3  0  0  0  0  0  0
   39.4820   25.2920   34.0430 C   0  0  2  0  0  3  0  0  0  0  0  0
   38.5480   26.2470   33.3260 C   0  0  0  0  0  3  0  0  0  0  0  0
   39.1620   26.8190   32.6090 H   0  0  0  0  0  0  0  0  0  0  0  0
   38.0170   27.0390   34.3210 O   0  0  0  0  0  0  0  0  0  0  0  0
   38.9700   27.2090   35.3090 C   0  0  0  0  0  3  0  0  0  0  0  0
   39.4420   28.2080   35.1560 H   0  0  0  0  0  0  0  0  0  0  0  0
   41.1940   26.6000   34.9720 O   0  0  0  0  0  0  0  0  0  0  0  0
   41.8620   26.3350   35.6520 H   0  0  0  0  0  0  0  0  0  0  0  0
  1 12  1  0  0  0  0
  2  5  1  0  0  0  0
  2  1  1  0  0  0  0
  3  2  1  0  0  0  0
  3  6  1  0  0  0  0
  3  1  1  0  0  0  0
  4  2  1  0  0  0  0
  7  3  1  0  0  0  0
  8 14  1  0  0  0  0
  8  9  1  0  0  0  0
  9 15  1  0  0  0  0
 10 16  1  0  0  0  0
 10  9  2  0  0  0  0
 11 10  1  0  0  0  0
 12 13  1  0  0  0  0
 12 11  2  0  0  0  0
 13  8  2  0  0  0  0
 17 24  1  6  0  0  0
 17 22  1  0  0  0  0
 18  1  1  1  0  0  0
 18 17  1  0  0  0  0
 19 18  1  0  0  0  0
 19 21  1  0  0  0  0
 20 19  1  0  0  0  0
 21 22  1  0  0  0  0
 23 22  1  0  0  0  0
 24 25  1  0  0  0  0
M  END
>  <minimizedAffinity>
-4.01123142

$$$$

 OpenBabel03272505463D

 25 27  0  0  1  0  0  0  0  0999 V2000
   38.4310   26.2150   35.2750 C   0  0  0  0  0  0  0  0  0  0  0  0
   38.1460   27.5910   35.6070 C   0  0  0  0  0  0  0  0  0  0  0  0
   37.2330   26.8950   34.6580 C   0  0  0  0  0  0  0  0  0  0  0  0
   38.7260   28.4660   35.2790 H   0  0  0  0  0  0  0  0  0  0  0  0
   37.7210   27.7620   36.6360 H   0  0  0  0  0  0  0  0  0  0  0  0
   36.2160   26.6070   34.9560 H   0  0  0  0  0  0  0  0  0  0  0  0
   37.3030   27.2340   33.6090 H   0  0  0  0  0  0  0  0  0  0  0  0
   37.6530   22.8580   36.6150 C   0  0  0  0  0  0  0  0  0  0  0  0
   37.6910   23.0420   37.9970 C   0  0  0  0  0  0  0  0  0  0  0  0
   37.9820   24.3290   38.4640 C   0  0  0  0  0  0  0  0  0  0  0  0
   38.2120   25.3290   37.5640 N   0  0  0  0  0  0  0  0  0  0  0  0
   38.1630   25.0980   36.2160 C   0  0  0  0  0  0  0  0  0  0  0  0
   37.8830   23.8550   35.7460 N   0  0  0  0  0  0  0  0  0  0  0  0
   37.4220   21.8350   36.3020 H   0  0  0  0  0  0  0  0  0  0  0  0
   37.5130   22.2680   38.7230 H   0  0  0  0  0  0  0  0  0  0  0  0
   38.0400   24.5970   39.5160 H   0  0  0  0  0  0  0  0  0  0  0  0
   40.5890   24.9920   34.7800 C   0  0  2  0  0  3  0  0  0  0  0  0
   39.4420   25.7560   34.2380 C   0  0  2  0  0  3  0  0  0  0  0  0
   40.0950   26.9430   33.5580 C   0  0  0  0  0  3  0  0  0  0  0  0
   40.2740   26.6540   32.5090 H   0  0  0  0  0  0  0  0  0  0  0  0
   41.2630   27.1560   34.2580 O   0  0  0  0  0  0  0  0  0  0  0  0
   41.7440   25.9360   34.7000 C   0  0  0  0  0  3  0  0  0  0  0  0
   42.5520   25.6170   34.0020 H   0  0  0  0  0  0  0  0  0  0  0  0
   40.8730   23.9250   33.9060 O   0  0  0  0  0  0  0  0  0  0  0  0
   40.8550   23.0480   34.3620 H   0  0  0  0  0  0  0  0  0  0  0  0
  1  2  1  0  0  0  0
  1 12  1  0  0  0  0
  2  5  1  0  0  0  0
  3  6  1  0  0  0  0
  3  1  1  0  0  0  0
  3  2  1  0  0  0  0
  4  2  1  0  0  0  0
  7  3  1  0  0  0  0
  8  9  1  0  0  0  0
  9 10  2  0  0  0  0
  9 15  1  0  0  0  0
 10 16  1  0  0  0  0
 11 10  1  0  0  0  0
 12 11  2  0  0  0  0
 13 12  1  0  0  0  0
 13  8  2  0  0  0  0
 14  8  1  0  0  0  0
 17 24  1  6  0  0  0
 18 17  1  0  0  0  0
 18  1  1  1  0  0  0
 19 18  1  0  0  0  0
 19 21  1  0  0  0  0
 20 19  1  0  0  0  0
 21 22  1  0  0  0  0
 22 17  1  0  0  0  0
 23 22  1  0  0  0  0
 24 25  1  0  0  0  0
M  END
>  <minimizedAffinity>
-3.98698354

$$$$

 OpenBabel03272505463D

 25 27  0  0  1  0  0  0  0  0999 V2000
   38.6880   26.0780   34.8670 C   0  0  0  0  0  0  0  0  0  0  0  0
   39.6490   27.1500   34.9670 C   0  0  0  0  0  0  0  0  0  0  0  0
   38.4960   27.1540   35.9070 C   0  0  0  0  0  0  0  0  0  0  0  0
   39.7800   27.9690   34.2430 H   0  0  0  0  0  0  0  0  0  0  0  0
   40.6380   26.8710   35.4290 H   0  0  0  0  0  0  0  0  0  0  0  0
   38.6300   26.9260   36.9740 H   0  0  0  0  0  0  0  0  0  0  0  0
   37.7420   27.9390   35.7190 H   0  0  0  0  0  0  0  0  0  0  0  0
   38.2570   22.7050   36.3190 C   0  0  0  0  0  0  0  0  0  0  0  0
   39.5350   22.1520   36.2420 C   0  0  0  0  0  0  0  0  0  0  0  0
   40.5470   22.9480   35.6910 C   0  0  0  0  0  0  0  0  0  0  0  0
   40.2440   24.2080   35.2610 N   0  0  0  0  0  0  0  0  0  0  0  0
   38.9730   24.7060   35.3580 C   0  0  0  0  0  0  0  0  0  0  0  0
   37.9800   23.9470   35.8900 N   0  0  0  0  0  0  0  0  0  0  0  0
   37.5040   22.0430   36.7570 H   0  0  0  0  0  0  0  0  0  0  0  0
   39.7960   21.1620   36.5750 H   0  0  0  0  0  0  0  0  0  0  0  0
   41.5790   22.6300   35.5780 H   0  0  0  0  0  0  0  0  0  0  0  0
   37.8120   25.2050   32.6600 C   0  0  2  0  0  3  0  0  0  0  0  0
   37.5440   26.0180   33.8680 C   0  0  2  0  0  3  0  0  0  0  0  0
   37.2420   27.3960   33.3100 C   0  0  0  0  0  3  0  0  0  0  0  0
   36.1520   27.4460   33.1520 H   0  0  0  0  0  0  0  0  0  0  0  0
   37.9550   27.4650   32.1320 O   0  0  0  0  0  0  0  0  0  0  0  0
   38.0010   26.2040   31.5660 C   0  0  0  0  0  3  0  0  0  0  0  0
   37.2260   26.1630   30.7660 H   0  0  0  0  0  0  0  0  0  0  0  0
   36.6530   24.4700   32.3460 O   0  0  0  0  0  0  0  0  0  0  0  0
   36.8240   23.4970   32.2970 H   0  0  0  0  0  0  0  0  0  0  0  0
  1  2  1  0  0  0  0
  1 12  1  0  0  0  0
  1  3  1  0  0  0  0
  2  5  1  0  0  0  0
  2  3  1  0  0  0  0
  3  6  1  0  0  0  0
  4  2  1  0  0  0  0
  7  3  1  0  0  0  0
  8 14  1  0  0  0  0
  9  8  1  0  0  0  0
  9 15  1  0  0  0  0
 10  9  2  0  0  0  0
 11 12  2  0  0  0  0
 11 10  1  0  0  0  0
 12 13  1  0  0  0  0
 13  8  2  0  0  0  0
 16 10  1  0  0  0  0
 17 24  1  6  0  0  0
 17 18  1  0  0  0  0
 18  1  1  1  0  0  0
 19 18  1  0  0  0  0
 20 19  1  0  0  0  0
 21 19  1  0  0  0  0
 22 21  1  0  0  0  0
 22 17  1  0  0  0  0
 23 22  1  0  0  0  0
 25 24  1  0  0  0  0
M  END
>  <minimizedAffinity>
-3.98216271

$$$$

 OpenBabel03272505463D

 25 27  0  0  1  0  0  0  0  0999 V2000
   40.9060   25.0060   34.6310 C   0  0  0  0  0  0  0  0  0  0  0  0
   41.9760   24.6010   33.7500 C   0  0  0  0  0  0  0  0  0  0  0  0
   42.2830   24.7610   35.1970 C   0  0  0  0  0  0  0  0  0  0  0  0
   42.4710   25.2380   33.0020 H   0  0  0  0  0  0  0  0  0  0  0  0
   41.9270   23.5340   33.3890 H   0  0  0  0  0  0  0  0  0  0  0  0
   42.4740   23.8890   35.8380 H   0  0  0  0  0  0  0  0  0  0  0  0
   42.9120   25.6340   35.4470 H   0  0  0  0  0  0  0  0  0  0  0  0
   38.6050   23.0140   36.7290 C   0  0  0  0  0  0  0  0  0  0  0  0
   37.7980   22.3600   35.7980 C   0  0  0  0  0  0  0  0  0  0  0  0
   38.0540   22.6060   34.4430 C   0  0  0  0  0  0  0  0  0  0  0  0
   39.0630   23.4590   34.0990 N   0  0  0  0  0  0  0  0  0  0  0  0
   39.8270   24.0770   35.0520 C   0  0  0  0  0  0  0  0  0  0  0  0
   39.5920   23.8500   36.3700 N   0  0  0  0  0  0  0  0  0  0  0  0
   38.3640   22.7870   37.7720 H   0  0  0  0  0  0  0  0  0  0  0  0
   36.9990   21.6840   36.0460 H   0  0  0  0  0  0  0  0  0  0  0  0
   37.4960   22.1570   33.6260 H   0  0  0  0  0  0  0  0  0  0  0  0
   39.0070   26.5770   35.1980 C   0  0  2  0  0  3  0  0  0  0  0  0
   40.4350   26.4370   34.8350 C   0  0  2  0  0  3  0  0  0  0  0  0
   40.5560   27.2330   33.5510 C   0  0  0  0  0  3  0  0  0  0  0  0
   40.8300   28.2630   33.8360 H   0  0  0  0  0  0  0  0  0  0  0  0
   39.3100   27.1560   32.9670 O   0  0  0  0  0  0  0  0  0  0  0  0
   38.3530   27.1100   33.9660 C   0  0  0  0  0  3  0  0  0  0  0  0
   37.9280   28.1340   34.0750 H   0  0  0  0  0  0  0  0  0  0  0  0
   38.8890   27.5750   36.1860 O   0  0  0  0  0  0  0  0  0  0  0  0
   38.4370   27.2470   37.0020 H   0  0  0  0  0  0  0  0  0  0  0  0
  1 12  1  0  0  0  0
  1  3  1  0  0  0  0
  2  1  1  0  0  0  0
  2  3  1  0  0  0  0
  3  7  1  0  0  0  0
  3  6  1  0  0  0  0
  4  2  1  0  0  0  0
  5  2  1  0  0  0  0
  8 14  1  0  0  0  0
  9 15  1  0  0  0  0
  9  8  2  0  0  0  0
 10  9  1  0  0  0  0
 11 10  2  0  0  0  0
 11 12  1  0  0  0  0
 12 13  2  0  0  0  0
 13  8  1  0  0  0  0
 16 10  1  0  0  0  0
 17 24  1  1  0  0  0
 18  1  1  6  0  0  0
 18 17  1  0  0  0  0
 19 20  1  0  0  0  0
 19 18  1  0  0  0  0
 21 19  1  0  0  0  0
 21 22  1  0  0  0  0
 22 23  1  0  0  0  0
 22 17  1  0  0  0  0
 24 25  1  0  0  0  0
M  END
>  <minimizedAffinity>
-3.96193051

$$$$

 OpenBabel03272505463D

 25 27  0  0  1  0  0  0  0  0999 V2000
   37.5690   26.5360   33.0830 C   0  0  0  0  0  0  0  0  0  0  0  0
   38.0580   25.8560   31.9070 C   0  0  0  0  0  0  0  0  0  0  0  0
   36.8090   25.3510   32.5390 C   0  0  0  0  0  0  0  0  0  0  0  0
   38.9540   25.2190   31.8560 H   0  0  0  0  0  0  0  0  0  0  0  0
   37.9100   26.4060   30.9340 H   0  0  0  0  0  0  0  0  0  0  0  0
   35.8310   25.4900   32.0580 H   0  0  0  0  0  0  0  0  0  0  0  0
   36.9080   24.3800   33.0570 H   0  0  0  0  0  0  0  0  0  0  0  0
   36.3160   29.7820   31.8330 C   0  0  0  0  0  0  0  0  0  0  0  0
   35.6150   30.3020   32.9210 C   0  0  0  0  0  0  0  0  0  0  0  0
   35.5800   29.5290   34.0880 C   0  0  0  0  0  0  0  0  0  0  0  0
   36.2210   28.3250   34.1110 N   0  0  0  0  0  0  0  0  0  0  0  0
   36.8960   27.8580   33.0150 C   0  0  0  0  0  0  0  0  0  0  0  0
   36.9400   28.5940   31.8740 N   0  0  0  0  0  0  0  0  0  0  0  0
   36.3140   30.4240   30.9460 H   0  0  0  0  0  0  0  0  0  0  0  0
   35.1040   31.2490   32.9250 H   0  0  0  0  0  0  0  0  0  0  0  0
   35.0680   29.8260   35.0000 H   0  0  0  0  0  0  0  0  0  0  0  0
   39.0470   27.3130   34.9820 C   0  0  2  0  0  3  0  0  0  0  0  0
   38.0730   26.3090   34.4990 C   0  0  2  0  0  3  0  0  0  0  0  0
   38.8320   25.0000   34.5970 C   0  0  0  0  0  3  0  0  0  0  0  0
   38.6220   24.5810   35.5950 H   0  0  0  0  0  0  0  0  0  0  0  0
   40.1570   25.3450   34.4330 O   0  0  0  0  0  0  0  0  0  0  0  0
   40.3590   26.6010   34.9780 C   0  0  0  0  0  3  0  0  0  0  0  0
   40.8130   26.4630   35.9870 H   0  0  0  0  0  0  0  0  0  0  0  0
   38.7520   27.6160   36.3260 O   0  0  0  0  0  0  0  0  0  0  0  0
   38.6030   28.5830   36.4710 H   0  0  0  0  0  0  0  0  0  0  0  0
  2  3  1  0  0  0  0
  2  1  1  0  0  0  0
  3  7  1  0  0  0  0
  3  1  1  0  0  0  0
  4  2  1  0  0  0  0
  5  2  1  0  0  0  0
  6  3  1  0  0  0  0
  8 13  2  0  0  0  0
  8  9  1  0  0  0  0
  9 15  1  0  0  0  0
  9 10  2  0  0  0  0
 10 11  1  0  0  0  0
 10 16  1  0  0  0  0
 12  1  1  0  0  0  0
 12 11  2  0  0  0  0
 13 12  1  0  0  0  0
 14  8  1  0  0  0  0
 17 24  1  1  0  0  0
 18  1  1  6  0  0  0
 18 19  1  0  0  0  0
 18 17  1  0  0  0  0
 19 20  1  0  0  0  0
 21 19  1  0  0  0  0
 21 22  1  0  0  0  0
 22 17  1  0  0  0  0
 22 23  1  0  0  0  0
 24 25  1  0  0  0  0
M  END
>  <minimizedAffinity>
-3.96135068

$$$$
