
 OpenBabel03272507503D

 28 30  0  0  1  0  0  0  0  0999 V2000
   35.5160   29.2090   49.1870 C   0  0  0  0  0  0  0  0  0  0  0  0
   35.8510   30.2280   48.2800 C   0  0  0  0  0  0  0  0  0  0  0  0
   35.2710   30.1660   47.0180 C   0  0  0  0  0  0  0  0  0  0  0  0
   34.4300   29.1540   46.7210 N   0  0  0  0  0  0  0  0  0  0  0  0
   34.1280   28.1850   47.6220 C   0  0  0  0  0  0  0  0  0  0  0  0
   34.6740   28.2050   48.8730 N   0  0  0  0  0  0  0  0  0  0  0  0
   35.5320   30.9550   46.3150 H   0  0  0  0  0  0  0  0  0  0  0  0
   33.4360   27.4280   47.2540 H   0  0  0  0  0  0  0  0  0  0  0  0
   36.7460   31.2370   48.7050 N   0  0  0  0  0  0  0  0  0  0  0  0
   36.4150   32.1660   49.6040 C   0  0  0  0  0  0  0  0  0  0  0  0
   37.3280   33.1440   50.0000 C   0  0  0  0  0  0  0  0  0  0  0  0
   38.5610   33.0370   49.3740 C   0  0  0  0  0  0  0  0  0  0  0  0
   39.3990   33.9250   49.7310 O   0  0  0  0  0  0  0  0  0  0  0  0
   38.9350   32.1270   48.4720 N   0  0  0  0  0  0  0  0  0  0  0  0
   37.9870   31.2210   48.1500 C   0  0  0  0  0  0  0  0  0  0  0  0
   38.3310   30.3490   47.2910 O   0  0  0  0  0  0  0  0  0  0  0  0
   35.4340   32.2040   50.0540 H   0  0  0  0  0  0  0  0  0  0  0  0
   37.1040   33.9020   50.7130 H   0  0  0  0  0  0  0  0  0  0  0  0
   39.8930   32.1350   48.0610 H   0  0  0  0  0  0  0  0  0  0  0  0
   37.4360   28.6440   50.6770 C   0  0  2  0  0  3  0  0  0  0  0  0
   36.0270   29.0910   50.5740 C   0  0  1  0  0  3  0  0  0  0  0  0
   35.9920   30.3850   51.3180 C   0  0  0  0  0  3  0  0  0  0  0  0
   35.0820   30.4440   51.9830 H   0  0  0  0  0  0  0  0  0  0  0  0
   37.0940   30.4510   52.1390 O   0  0  0  0  0  0  0  0  0  0  0  0
   38.0620   29.6040   51.6500 C   0  0  0  0  0  3  0  0  0  0  0  0
   38.8920   30.1610   51.1460 H   0  0  0  0  0  0  0  0  0  0  0  0
   38.0620   28.7300   49.4450 O   0  0  0  0  0  0  0  0  0  0  0  0
   38.9860   29.0690   49.5840 H   0  0  0  0  0  0  0  0  0  0  0  0
  2  9  1  0  0  0  0
  2  1  2  0  0  0  0
  3  2  1  0  0  0  0
  4  3  2  0  0  0  0
  4  5  1  0  0  0  0
  5  6  2  0  0  0  0
  6  1  1  0  0  0  0
  7  3  1  0  0  0  0
  8  5  1  0  0  0  0
  9 10  1  0  0  0  0
 10 11  2  0  0  0  0
 10 17  1  0  0  0  0
 11 18  1  0  0  0  0
 12 13  2  0  0  0  0
 12 11  1  0  0  0  0
 14 12  1  0  0  0  0
 15 14  1  0  0  0  0
 15  9  1  0  0  0  0
 16 15  2  0  0  0  0
 19 14  1  0  0  0  0
 20 27  1  6  0  0  0
 20 25  1  0  0  0  0
 21  1  1  6  0  0  0
 21 20  1  0  0  0  0
 21 22  1  0  0  0  0
 22 23  1  0  0  0  0
 22 24  1  0  0  0  0
 25 24  1  0  0  0  0
 26 25  1  0  0  0  0
 27 28  1  0  0  0  0
M  END
>  <minimizedAffinity>
-2.83395243

>  <minimizedRMSD>
1.13836682

$$$$
