REMARK  Name = 
REMARK  3 active torsions:
REMARK  status: ('A' for Active; 'I' for Inactive)
REMARK    1  A    between atoms: C_1  and  O_7
REMARK    2  A    between atoms: C_5  and  C_13
REMARK    3  A    between atoms: O_11  and  C_12
REMARK                            x       y       z     vdW  Elec       q    Type
REMARK                         _______ _______ _______ _____ _____    ______ ____
ROOT
ATOM      1  C   UNL     1      37.304  29.994  51.181  0.00  0.00    +0.000 A 
ATOM      2  C   UNL     1      37.949  30.913  50.357  0.00  0.00    +0.000 A 
ATOM      3  C   UNL     1      37.272  31.391  49.227  0.00  0.00    +0.000 A 
ATOM      4  N   UNL     1      36.018  30.933  48.991  0.00  0.00    +0.000 NA
ATOM      5  C   UNL     1      35.404  30.029  49.817  0.00  0.00    +0.000 A 
ATOM      6  N   UNL     1      36.060  29.577  50.898  0.00  0.00    +0.000 NA
ATOM      7  H   UNL     1      38.935  31.328  50.467  0.00  0.00    +0.000 HD
ATOM      8  H   UNL     1      37.719  32.106  48.548  0.00  0.00    +0.000 HD
ENDROOT
BRANCH   5  10
ATOM      9  C   UNL     1      33.914  28.066  49.910  0.00  0.00    +0.000 C 
ATOM     10  C   UNL     1      34.032  29.533  49.552  0.00  0.00    +0.000 C 
ATOM     11  C   UNL     1      33.766  29.437  48.043  0.00  0.00    +0.000 C 
ATOM     12  H   UNL     1      34.566  28.859  47.586  0.00  0.00    +0.000 HD
ATOM     13  O   UNL     1      32.610  28.665  48.054  0.00  0.00    +0.000 OA
ATOM     14  C   UNL     1      32.806  27.640  48.959  0.00  0.00    +0.000 C 
ATOM     15  H   UNL     1      31.893  27.514  49.610  0.00  0.00    +0.000 HD
BRANCH   9  16
ATOM     16  O   UNL     1      33.584  27.855  51.243  0.00  0.00    +0.000 OA
ATOM     17  H   UNL     1      33.770  26.874  51.395  0.00  0.00    +0.000 HD
ENDBRANCH   9  16
ENDBRANCH   5  10
BRANCH   1  18
ATOM     18  O   UNL     1      38.087  29.607  52.261  0.00  0.00    +0.000 OA
ATOM     19  H   UNL     1      38.205  30.171  53.088  0.00  0.00    +0.000 HD
ENDBRANCH   1  18
TORSDOF 3
