
 OpenBabel03272500073D

 39 42  0  0  1  0  0  0  0  0999 V2000
   32.3660   26.8000   47.9070 O   0  0  0  0  0  0  0  0  0  0  0  0
   31.0300   27.1410   48.1850 C   0  0  0  0  0  0  0  0  0  0  0  0
   30.8860   27.7230   49.4480 C   0  0  0  0  0  0  0  0  0  0  0  0
   29.6520   28.1250   49.9000 C   0  0  0  0  0  0  0  0  0  0  0  0
   28.5500   27.9410   49.0760 C   0  0  0  0  0  0  0  0  0  0  0  0
   28.7240   27.3670   47.8430 C   0  0  0  0  0  0  0  0  0  0  0  0
   29.9470   26.9500   47.3560 C   0  0  0  0  0  0  0  0  0  0  0  0
   31.7050   27.8950   50.1400 H   0  0  0  0  0  0  0  0  0  0  0  0
   29.5210   28.5770   50.8720 H   0  0  0  0  0  0  0  0  0  0  0  0
   27.5730   28.2580   49.4260 H   0  0  0  0  0  0  0  0  0  0  0  0
   27.8330   27.2490   47.2460 H   0  0  0  0  0  0  0  0  0  0  0  0
   30.4410   27.3000   44.9360 C   0  0  2  0  0  3  0  0  0  0  0  0
   30.1660   26.3240   46.0650 C   0  0  1  0  0  3  0  0  0  0  0  0
   31.5000   25.5610   45.9720 C   0  0  0  0  0  3  0  0  0  0  0  0
   32.3440   26.2360   46.2450 H   0  0  0  0  0  0  0  0  0  0  0  0
   31.6640   25.3210   44.6080 O   0  0  0  0  0  0  0  0  0  0  0  0
   30.9430   26.2750   43.9090 C   0  0  0  0  0  3  0  0  0  0  0  0
   31.5310   26.7660   43.1170 H   0  0  0  0  0  0  0  0  0  0  0  0
   31.4880   28.1300   45.2420 O   0  0  0  0  0  0  0  0  0  0  0  0
   31.1900   29.0460   45.4890 H   0  0  0  0  0  0  0  0  0  0  0  0
   35.2250   28.6180   49.0840 C   0  0  0  0  0  0  0  0  0  0  0  0
   35.1540   29.8340   48.3900 C   0  0  0  0  0  0  0  0  0  0  0  0
   34.0890   30.0050   47.5050 C   0  0  0  0  0  0  0  0  0  0  0  0
   33.1930   28.9910   47.3690 N   0  0  0  0  0  0  0  0  0  0  0  0
   33.2860   27.8450   48.0450 C   0  0  0  0  0  0  0  0  0  0  0  0
   34.3120   27.6460   48.9160 N   0  0  0  0  0  0  0  0  0  0  0  0
   36.0640   28.4910   49.7790 H   0  0  0  0  0  0  0  0  0  0  0  0
   34.0200   30.9280   46.9650 H   0  0  0  0  0  0  0  0  0  0  0  0
   36.1560   30.8090   48.6200 N   0  0  0  0  0  0  0  0  0  0  0  0
   36.2810   31.4430   49.7800 C   0  0  0  0  0  0  0  0  0  0  0  0
   37.2940   32.3900   49.9300 C   0  0  0  0  0  0  0  0  0  0  0  0
   38.0890   32.5870   48.8440 C   0  0  0  0  0  0  0  0  0  0  0  0
   39.0090   33.4400   48.9640 O   0  0  0  0  0  0  0  0  0  0  0  0
   37.9960   31.9750   47.6750 N   0  0  0  0  0  0  0  0  0  0  0  0
   36.9960   31.0520   47.5560 C   0  0  0  0  0  0  0  0  0  0  0  0
   36.8930   30.4570   46.4410 O   0  0  0  0  0  0  0  0  0  0  0  0
   35.6220   31.2480   50.6090 H   0  0  0  0  0  0  0  0  0  0  0  0
   37.3940   32.9050   50.8730 H   0  0  0  0  0  0  0  0  0  0  0  0
   38.6490   32.1820   46.8860 H   0  0  0  0  0  0  0  0  0  0  0  0
  1 25  1  0  0  0  0
  1  2  1  0  0  0  0
  2  3  1  0  0  0  0
  3  4  2  0  0  0  0
  3  8  1  0  0  0  0
  4  9  1  0  0  0  0
  5 10  1  0  0  0  0
  5  4  1  0  0  0  0
  6  5  2  0  0  0  0
  7  6  1  0  0  0  0
  7  2  2  0  0  0  0
 11  6  1  0  0  0  0
 12 19  1  1  0  0  0
 12 13  1  0  0  0  0
 13  7  1  1  0  0  0
 14 13  1  0  0  0  0
 14 15  1  0  0  0  0
 16 14  1  0  0  0  0
 17 16  1  0  0  0  0
 17 12  1  0  0  0  0
 18 17  1  0  0  0  0
 19 20  1  0  0  0  0
 21 27  1  0  0  0  0
 22 29  1  0  0  0  0
 22 21  2  0  0  0  0
 23 22  1  0  0  0  0
 24 23  2  0  0  0  0
 24 25  1  0  0  0  0
 25 26  2  0  0  0  0
 26 21  1  0  0  0  0
 28 23  1  0  0  0  0
 29 30  1  0  0  0  0
 30 31  2  0  0  0  0
 30 37  1  0  0  0  0
 31 38  1  0  0  0  0
 32 33  2  0  0  0  0
 32 31  1  0  0  0  0
 34 32  1  0  0  0  0
 35 34  1  0  0  0  0
 35 29  1  0  0  0  0
 36 35  2  0  0  0  0
 39 34  1  0  0  0  0
M  END
>  <minimizedAffinity>
-5.67439318

>  <minimizedRMSD>
1.0086726

$$$$
