
 OpenBabel03272506333D

 19 20  0  0  1  0  0  0  0  0999 V2000
   37.4050   30.3420   50.7890 C   0  0  0  0  0  0  0  0  0  0  0  0
   38.3600   31.1860   50.2280 C   0  0  0  0  0  0  0  0  0  0  0  0
   38.1350   31.6910   48.9400 C   0  0  0  0  0  0  0  0  0  0  0  0
   36.9940   31.3310   48.3020 N   0  0  0  0  0  0  0  0  0  0  0  0
   36.0690   30.5000   48.8750 C   0  0  0  0  0  0  0  0  0  0  0  0
   36.2930   30.0210   50.1100 N   0  0  0  0  0  0  0  0  0  0  0  0
   39.2870   31.5220   50.6580 H   0  0  0  0  0  0  0  0  0  0  0  0
   38.8390   32.3520   48.4500 H   0  0  0  0  0  0  0  0  0  0  0  0
   34.4550   28.6760   48.4860 C   0  0  2  0  0  3  0  0  0  0  0  0
   34.8240   30.1110   48.1710 C   0  0  2  0  0  3  0  0  0  0  0  0
   35.0680   29.9720   46.6610 C   0  0  0  0  0  3  0  0  0  0  0  0
   35.9170   29.3090   46.5070 H   0  0  0  0  0  0  0  0  0  0  0  0
   33.9070   29.3020   46.2930 O   0  0  0  0  0  0  0  0  0  0  0  0
   33.6930   28.3040   47.2230 C   0  0  0  0  0  3  0  0  0  0  0  0
   32.6070   28.2850   47.5310 H   0  0  0  0  0  0  0  0  0  0  0  0
   33.6810   28.5510   49.6330 O   0  0  0  0  0  0  0  0  0  0  0  0
   33.7130   27.5650   49.8510 H   0  0  0  0  0  0  0  0  0  0  0  0
   37.7540   29.9180   52.0640 O   0  0  0  0  0  0  0  0  0  0  0  0
   37.6410   30.4890   52.8870 H   0  0  0  0  0  0  0  0  0  0  0  0
  1 18  1  0  0  0  0
  2  7  1  0  0  0  0
  2  1  1  0  0  0  0
  3  2  2  0  0  0  0
  4  5  2  0  0  0  0
  4  3  1  0  0  0  0
  5  6  1  0  0  0  0
  6  1  2  0  0  0  0
  8  3  1  0  0  0  0
  9 16  1  1  0  0  0
 10  9  1  0  0  0  0
 10  5  1  1  0  0  0
 11 10  1  0  0  0  0
 12 11  1  0  0  0  0
 13 11  1  0  0  0  0
 13 14  1  0  0  0  0
 14 15  1  0  0  0  0
 14  9  1  0  0  0  0
 16 17  1  0  0  0  0
 18 19  1  0  0  0  0
M  END
>  <minimizedAffinity>
-4.62504911

>  <minimizedRMSD>
1.45939708

$$$$
