REMARK  Name = 
REMARK  6 active torsions:
REMARK  status: ('A' for Active; 'I' for Inactive)
REMARK    1  A    between atoms: C_1  and  C_5
REMARK    2  A    between atoms: C_2  and  C_9
REMARK    3  A    between atoms: C_9  and  S_10
REMARK    4  A    between atoms: C_9  and  C_25
REMARK    5  A    between atoms: S_10  and  C_11
REMARK    6  A    between atoms: O_21  and  C_22
REMARK                            x       y       z     vdW  Elec       q    Type
REMARK                         _______ _______ _______ _____ _____    ______ ____
ROOT
ATOM      1  C   UNL     1      37.348  32.474  49.831  0.00  0.00    +0.000 C 
ATOM      2  H   UNL     1      37.948  32.456  50.770  0.00  0.00    +0.000 HD
ENDROOT
BRANCH   1   6
ATOM      3  C   UNL     1      35.141  35.373  50.716  0.00  0.00    +0.000 C 
ATOM      4  C   UNL     1      35.660  33.953  51.029  0.00  0.00    +0.000 C 
ATOM      5  H   UNL     1      36.336  33.970  51.890  0.00  0.00    +0.000 HD
ATOM      6  C   UNL     1      36.398  33.627  49.785  0.00  0.00    +0.000 C 
ATOM      7  O   UNL     1      37.056  34.853  49.513  0.00  0.00    +0.000 OA
ATOM      8  C   UNL     1      35.970  35.745  49.487  0.00  0.00    +0.000 C 
ATOM      9  H   UNL     1      35.413  35.541  48.528  0.00  0.00    +0.000 HD
BRANCH   3  10
ATOM     10  O   UNL     1      35.471  36.226  51.779  0.00  0.00    +0.000 OA
ATOM     11  H   UNL     1      36.021  37.002  51.417  0.00  0.00    +0.000 HD
ENDBRANCH   3  10
ENDBRANCH   1   6
BRANCH   1  13
ATOM     12  C   UNL     1      38.197  31.600  47.776  0.00  0.00    +0.000 C 
ATOM     13  C   UNL     1      38.226  32.574  48.631  0.00  0.00    +0.000 C 
BRANCH  12  16
ATOM     14  C   UNL     1      40.601  32.728  45.151  0.00  0.00    +0.000 A 
ATOM     15  C   UNL     1      39.808  32.663  46.292  0.00  0.00    +0.000 A 
ATOM     16  C   UNL     1      39.001  31.584  46.577  0.00  0.00    +0.000 A 
ATOM     17  N   UNL     1      39.005  30.571  45.698  0.00  0.00    +0.000 NA
ATOM     18  C   UNL     1      39.779  30.646  44.594  0.00  0.00    +0.000 A 
ATOM     19  N   UNL     1      40.558  31.683  44.309  0.00  0.00    +0.000 NA
ATOM     20  H   UNL     1      41.242  33.577  44.914  0.00  0.00    +0.000 HD
ATOM     21  H   UNL     1      39.918  33.571  46.910  0.00  0.00    +0.000 HD
ATOM     22  H   UNL     1      39.803  29.843  43.866  0.00  0.00    +0.000 HD
ENDBRANCH  12  16
ENDBRANCH   1  13
BRANCH   1  23
ATOM     23  S   UNL     1      36.362  30.947  49.678  0.00  0.00    +0.000 S 
BRANCH  23  24
ATOM     24  C   UNL     1      36.741  29.810  51.019  0.00  0.00    +0.000 C 
ATOM     25  F   UNL     1      37.531  30.391  52.005  0.00  0.00    +0.000 F 
ATOM     26  F   UNL     1      35.600  29.239  51.544  0.00  0.00    +0.000 F 
ATOM     27  F   UNL     1      37.477  28.742  50.457  0.00  0.00    +0.000 F 
ENDBRANCH  23  24
ENDBRANCH   1  23
TORSDOF 6
