
 OpenBabel03272507453D

 33 35  0  0  1  0  0  0  0  0999 V2000
   37.2660   30.8380   48.6910 N   0  0  0  0  0  0  0  0  0  0  0  0
   37.6090   32.1830   49.0070 C   0  0  0  0  0  0  0  0  0  0  0  0
   38.2900   32.9880   47.9790 C   0  0  0  0  0  0  0  0  0  0  0  0
   39.1050   32.2830   46.9720 C   0  0  0  0  0  0  0  0  0  0  0  0
   38.7540   30.8430   46.7770 C   0  0  0  0  0  0  0  0  0  0  0  0
   38.4390   30.1960   48.1320 C   0  0  0  0  0  0  0  0  0  0  0  0
   38.2700   32.1370   49.9220 H   0  0  0  0  0  0  0  0  0  0  0  0
   36.6810   32.6870   49.3620 H   0  0  0  0  0  0  0  0  0  0  0  0
   38.9180   33.7590   48.4780 H   0  0  0  0  0  0  0  0  0  0  0  0
   37.4930   33.5990   47.4600 H   0  0  0  0  0  0  0  0  0  0  0  0
   40.2050   32.3580   47.1850 H   0  0  0  0  0  0  0  0  0  0  0  0
   37.9050   30.6860   46.1040 H   0  0  0  0  0  0  0  0  0  0  0  0
   39.6080   30.2490   46.3750 H   0  0  0  0  0  0  0  0  0  0  0  0
   38.2780   29.1350   47.9480 H   0  0  0  0  0  0  0  0  0  0  0  0
   39.3400   30.3040   48.7670 H   0  0  0  0  0  0  0  0  0  0  0  0
   36.0050   30.2040   48.8780 C   0  0  0  0  0  0  0  0  0  0  0  0
   35.0860   29.8940   47.8720 C   0  0  0  0  0  0  0  0  0  0  0  0
   33.8990   29.2710   48.2420 C   0  0  0  0  0  0  0  0  0  0  0  0
   33.6830   28.9930   49.5560 N   0  0  0  0  0  0  0  0  0  0  0  0
   34.5910   29.3070   50.4980 C   0  0  0  0  0  0  0  0  0  0  0  0
   35.7490   29.9100   50.1640 N   0  0  0  0  0  0  0  0  0  0  0  0
   35.3720   30.1620   46.8860 H   0  0  0  0  0  0  0  0  0  0  0  0
   33.1940   29.0340   47.4630 H   0  0  0  0  0  0  0  0  0  0  0  0
   34.3800   29.0650   51.5510 H   0  0  0  0  0  0  0  0  0  0  0  0
   38.1250   32.1370   44.6660 C   0  0  2  0  0  3  0  0  0  0  0  0
   38.9280   32.9670   45.6170 C   0  0  2  0  0  3  0  0  0  0  0  0
   40.2430   33.1640   44.9280 C   0  0  0  0  0  3  0  0  0  0  0  0
   40.9700   32.4420   45.3410 H   0  0  0  0  0  0  0  0  0  0  0  0
   39.9870   32.9780   43.5660 O   0  0  0  0  0  0  0  0  0  0  0  0
   39.0440   31.9860   43.4520 C   0  0  0  0  0  3  0  0  0  0  0  0
   39.5290   30.9690   43.4720 H   0  0  0  0  0  0  0  0  0  0  0  0
   36.9840   32.7920   44.2300 O   0  0  0  0  0  0  0  0  0  0  0  0
   36.5320   32.2590   43.5430 H   0  0  0  0  0  0  0  0  0  0  0  0
  1 16  1  0  0  0  0
  1  2  1  0  0  0  0
  2  8  1  0  0  0  0
  2  7  1  0  0  0  0
  3  9  1  0  0  0  0
  3  2  1  0  0  0  0
  4 11  1  0  0  0  0
  4  3  1  0  0  0  0
  5  4  1  0  0  0  0
  5  6  1  0  0  0  0
  6  1  1  0  0  0  0
  6 15  1  0  0  0  0
 10  3  1  0  0  0  0
 12  5  1  0  0  0  0
 13  5  1  0  0  0  0
 14  6  1  0  0  0  0
 16 21  1  0  0  0  0
 17 18  1  0  0  0  0
 17 16  2  0  0  0  0
 18 19  2  0  0  0  0
 19 20  1  0  0  0  0
 20 24  1  0  0  0  0
 21 20  2  0  0  0  0
 22 17  1  0  0  0  0
 23 18  1  0  0  0  0
 25 32  1  6  0  0  0
 25 26  1  0  0  0  0
 26  4  1  1  0  0  0
 27 28  1  0  0  0  0
 27 26  1  0  0  0  0
 29 27  1  0  0  0  0
 30 31  1  0  0  0  0
 30 29  1  0  0  0  0
 30 25  1  0  0  0  0
 33 32  1  0  0  0  0
M  END
>  <minimizedAffinity>
-4.43279123

>  <minimizedRMSD>
4.5244298

$$$$
