
     RDKit          3D

 45 48  0  0  0  0  0  0  0  0999 V2000
   38.2663   32.2870   47.3930 C   0  0  0  0  0  0  0  0  0  0  0  0
   37.9123   32.7312   48.6526 C   0  0  0  0  0  0  0  0  0  0  0  0
   38.6696   33.6857   49.3065 C   0  0  0  0  0  0  0  0  0  0  0  0
   39.8034   34.2010   48.6792 C   0  0  0  0  0  0  0  0  0  0  0  0
   40.1573   33.7575   47.4212 C   0  0  0  0  0  0  0  0  0  0  0  0
   39.3725   32.8072   46.8118 C   0  0  0  0  0  0  0  0  0  0  0  0
   39.7633   32.3398   45.4617 C   0  0  0  0  0  0  0  0  0  0  0  0
   40.6146   31.3366   45.0959 C   0  0  0  0  0  0  0  0  0  0  0  0
   40.6462   31.2914   43.7028 C   0  0  0  0  0  0  0  0  0  0  0  0
   39.7937   32.2916   43.3094 C   0  0  0  0  0  0  0  0  0  0  0  0
   39.2854   32.8954   44.3614 O   0  0  0  0  0  0  0  0  0  0  0  0
   36.7484   30.5220   46.2965 N   0  0  0  0  0  0  0  0  0  0  0  0
   37.4296   31.2987   46.7871 C   0  0  0  0  0  0  0  0  0  0  0  0
   36.8111   32.3069   49.3955 O   0  0  0  0  0  0  0  0  0  0  0  0
   36.7848   31.1971   50.1699 C   0  0  0  0  0  0  0  0  0  0  0  0
   35.6398   30.4249   49.9479 C   0  0  0  0  0  0  0  0  0  0  0  0
   35.4362   29.2523   50.6473 C   0  0  0  0  0  0  0  0  0  0  0  0
   36.3888   28.8898   51.5494 N   0  0  0  0  0  0  0  0  0  0  0  0
   37.4962   29.6515   51.7535 C   0  0  0  0  0  0  0  0  0  0  0  0
   37.6734   30.7784   51.0689 N   0  0  0  0  0  0  0  0  0  0  0  0
   34.1486   29.7179   48.1564 C   0  0  0  0  0  0  0  0  0  0  0  0
   34.5473   28.5229   47.8745 O   0  0  0  0  0  0  0  0  0  0  0  0
   34.6145   30.7273   49.0396 N   0  0  0  0  0  0  0  0  0  0  0  0
   38.4588   34.0721   50.2708 H   0  0  0  0  0  0  0  0  0  0  0  0
   40.4087   34.9515   49.1802 H   0  0  0  0  0  0  0  0  0  0  0  0
   41.0467   34.1844   46.9691 H   0  0  0  0  0  0  0  0  0  0  0  0
   41.1187   30.7485   45.8738 H   0  0  0  0  0  0  0  0  0  0  0  0
   41.2631   30.5631   43.1926 H   0  0  0  0  0  0  0  0  0  0  0  0
   39.6159   32.4944   42.2479 H   0  0  0  0  0  0  0  0  0  0  0  0
   34.5818   28.6111   50.5280 H   0  0  0  0  0  0  0  0  0  0  0  0
   38.2592   29.3731   52.4675 H   0  0  0  0  0  0  0  0  0  0  0  0
   34.1524   31.6345   48.9465 H   0  0  0  0  0  0  0  0  0  0  0  0
   32.4839   27.2847   46.1697 O   0  0  0  0  0  0  0  0  0  0  0  0
   32.0238   28.5081   45.7051 C   0  0  2  0  0  0  0  0  0  0  0  0
   33.1388   29.5220   45.8747 C   0  0  2  0  0  0  0  0  0  0  0  0
   33.0289   30.3529   45.1595 H   0  0  0  0  0  0  0  0  0  0  0  0
   32.9444   29.9392   47.3001 C   0  0  1  0  0  0  0  0  0  0  0  0
   31.8712   29.2447   47.8089 O   0  0  0  0  0  0  0  0  0  0  0  0
   31.0177   29.0551   46.6967 C   0  0  2  0  0  0  0  0  0  0  0  0
   30.1895   28.3855   46.9191 H   0  0  0  0  0  0  0  0  0  0  0  0
   32.1939   27.0986   47.1026 H   0  0  0  0  0  0  0  0  0  0  0  0
   31.6175   28.4607   44.6785 H   0  0  0  0  0  0  0  0  0  0  0  0
   34.0995   28.9832   45.7470 H   0  0  0  0  0  0  0  0  0  0  0  0
   32.6445   31.0134   47.2955 H   0  0  0  0  0  0  0  0  0  0  0  0
   30.7194   30.0798   46.4023 H   0  0  0  0  0  0  0  0  0  0  0  0
  1  2  2  0
  2  3  1  0
  2 14  1  0
  4  3  2  0
  5  4  1  0
  6  1  1  0
  6  5  2  0
  7  6  1  0
  8  7  2  0
  9  8  1  0
 10  9  2  0
 10 11  1  0
 11  7  1  0
 12 13  3  0
 13  1  1  0
 14 15  1  0
 15 20  2  0
 16 15  1  0
 16 17  2  0
 17 18  1  0
 18 19  2  0
 20 19  1  0
 21 23  1  0
 22 21  2  0
 23 16  1  0
  3 24  1  0
  4 25  1  0
  5 26  1  0
  8 27  1  0
  9 28  1  0
 10 29  1  0
 17 30  1  0
 19 31  1  0
 23 32  1  0
 33 34  1  0
 34 35  1  0
 35 36  1  6
 35 37  1  0
 37 38  1  0
 38 39  1  0
 39 40  1  1
 39 34  1  0
 33 41  1  0
 34 42  1  6
 35 43  1  0
 37 44  1  6
 39 45  1  0
 21 37  1  0
M  ISO  8  24  14  25  14  26  14  27  14  28  14  29  14  30  14  31  14
M  ISO  2  36   8  40  16
M  END
>  <DihAtoms>  (1) 
22,20,36,34

>  <DihDeg>  (1) 
58.56812682535963

$$$$
