REMARK  Name = 
REMARK  4 active torsions:
REMARK  status: ('A' for Active; 'I' for Inactive)
REMARK    1  A    between atoms: C_3  and  N_7
REMARK    2  A    between atoms: C_9  and  C_25
REMARK    3  A    between atoms: N_12  and  C_15
REMARK    4  A    between atoms: O_23  and  C_24
REMARK                            x       y       z     vdW  Elec       q    Type
REMARK                         _______ _______ _______ _____ _____    ______ ____
ROOT
ATOM      1  N   UNL     1      37.435  31.140  47.053  0.00  0.00    +0.000 N 
ATOM      2  C   UNL     1      36.802  30.814  45.893  0.00  0.00    +0.000 A 
ATOM      3  C   UNL     1      37.237  31.269  44.659  0.00  0.00    +0.000 A 
ATOM      4  C   UNL     1      38.374  32.093  44.642  0.00  0.00    +0.000 A 
ATOM      5  O   UNL     1      38.796  32.522  43.548  0.00  0.00    +0.000 OA
ATOM      6  N   UNL     1      39.009  32.422  45.802  0.00  0.00    +0.000 N 
ATOM      7  C   UNL     1      38.492  31.920  46.932  0.00  0.00    +0.000 A 
ATOM      8  O   UNL     1      39.105  32.248  47.973  0.00  0.00    +0.000 OA
ATOM      9  H   UNL     1      35.924  30.173  45.941  0.00  0.00    +0.000 HD
ENDROOT
BRANCH   1  12
ATOM     10  C   UNL     1      37.424  29.924  50.561  0.00  0.00    +0.000 A 
ATOM     11  C   UNL     1      37.870  30.392  49.318  0.00  0.00    +0.000 A 
ATOM     12  C   UNL     1      36.986  30.670  48.289  0.00  0.00    +0.000 A 
ATOM     13  N   UNL     1      35.653  30.476  48.511  0.00  0.00    +0.000 NA
ATOM     14  C   UNL     1      35.211  30.019  49.723  0.00  0.00    +0.000 A 
ATOM     15  N   UNL     1      36.080  29.746  50.736  0.00  0.00    +0.000 NA
ATOM     16  H   UNL     1      38.040  29.689  51.399  0.00  0.00    +0.000 HD
ATOM     17  H   UNL     1      38.941  30.473  49.320  0.00  0.00    +0.000 HD
ATOM     18  H   UNL     1      34.150  29.910  49.767  0.00  0.00    +0.000 HD
ENDBRANCH   1  12
BRANCH   3  20
ATOM     19  C   UNL     1      35.164  30.317  43.866  0.00  0.00    +0.000 C 
ATOM     20  C   UNL     1      36.509  30.878  43.468  0.00  0.00    +0.000 C 
ATOM     21  C   UNL     1      37.102  29.764  42.672  0.00  0.00    +0.000 C 
ATOM     22  H   UNL     1      38.193  29.724  42.648  0.00  0.00    +0.000 HD
ATOM     23  O   UNL     1      36.508  28.583  43.093  0.00  0.00    +0.000 OA
ATOM     24  C   UNL     1      35.205  28.903  43.373  0.00  0.00    +0.000 C 
ATOM     25  H   UNL     1      34.536  28.783  42.472  0.00  0.00    +0.000 HD
BRANCH  19  26
ATOM     26  O   UNL     1      34.144  31.056  43.233  0.00  0.00    +0.000 OA
ATOM     27  H   UNL     1      34.192  31.982  43.561  0.00  0.00    +0.000 HD
ENDBRANCH  19  26
ENDBRANCH   3  20
BRANCH   6  28
ATOM     28  C   UNL     1      40.178  33.271  45.779  0.00  0.00    +0.000 C 
ATOM     29  F   UNL     1      40.031  34.224  44.797  0.00  0.00    +0.000 F 
ATOM     30  F   UNL     1      41.342  32.595  45.521  0.00  0.00    +0.000 F 
ATOM     31  F   UNL     1      40.256  33.950  46.995  0.00  0.00    +0.000 F 
ENDBRANCH   6  28
TORSDOF 4
