
 OpenBabel03272507503D

 28 30  0  0  1  0  0  0  0  0999 V2000
   36.0510   30.2350   47.1310 C   0  0  0  0  0  0  0  0  0  0  0  0
   36.9320   31.0220   46.3700 C   0  0  0  0  0  0  0  0  0  0  0  0
   36.9010   30.8510   44.9900 C   0  0  0  0  0  0  0  0  0  0  0  0
   36.0460   29.9590   44.4490 N   0  0  0  0  0  0  0  0  0  0  0  0
   35.2080   29.2150   45.2140 C   0  0  0  0  0  0  0  0  0  0  0  0
   35.2040   29.3480   46.5720 N   0  0  0  0  0  0  0  0  0  0  0  0
   37.5830   31.4610   44.4020 H   0  0  0  0  0  0  0  0  0  0  0  0
   34.5700   28.5330   44.6510 H   0  0  0  0  0  0  0  0  0  0  0  0
   37.7840   31.9230   47.0500 N   0  0  0  0  0  0  0  0  0  0  0  0
   37.6980   32.1490   48.3630 C   0  0  0  0  0  0  0  0  0  0  0  0
   38.5590   33.0460   48.9970 C   0  0  0  0  0  0  0  0  0  0  0  0
   39.4690   33.6430   48.1380 C   0  0  0  0  0  0  0  0  0  0  0  0
   40.2560   34.4610   48.7110 O   0  0  0  0  0  0  0  0  0  0  0  0
   39.5900   33.4480   46.8220 N   0  0  0  0  0  0  0  0  0  0  0  0
   38.7150   32.5640   46.2960 C   0  0  0  0  0  0  0  0  0  0  0  0
   38.8200   32.3710   45.0430 O   0  0  0  0  0  0  0  0  0  0  0  0
   36.9620   31.6570   48.9820 H   0  0  0  0  0  0  0  0  0  0  0  0
   38.5240   33.2540   50.0400 H   0  0  0  0  0  0  0  0  0  0  0  0
   40.3120   33.9520   46.2660 H   0  0  0  0  0  0  0  0  0  0  0  0
   34.6030   30.6770   49.1130 C   0  0  2  0  0  0  0  0  0  0  0  0
   35.9320   30.2620   48.6080 C   0  0  1  0  0  0  0  0  0  0  0  0
   36.1680   28.9290   49.2360 C   0  0  0  0  0  0  0  0  0  0  0  0
   37.2240   28.8450   49.6280 H   0  0  0  0  0  0  0  0  0  0  0  0
   35.3280   28.7950   50.3180 O   0  0  0  0  0  0  0  0  0  0  0  0
   34.2630   29.6520   50.1580 C   0  0  0  0  0  0  0  0  0  0  0  0
   33.3290   29.1110   49.8620 H   0  0  0  0  0  0  0  0  0  0  0  0
   33.6680   30.6520   48.0910 O   0  0  0  0  0  0  0  0  0  0  0  0
   32.8160   30.2890   48.4530 H   0  0  0  0  0  0  0  0  0  0  0  0
  2  9  1  0  0  0  0
  2  1  2  0  0  0  0
  3  2  1  0  0  0  0
  4  3  2  0  0  0  0
  4  5  1  0  0  0  0
  5  6  2  0  0  0  0
  6  1  1  0  0  0  0
  7  3  1  0  0  0  0
  8  5  1  0  0  0  0
  9 10  1  0  0  0  0
 10 17  1  0  0  0  0
 10 11  2  0  0  0  0
 11 18  1  0  0  0  0
 12 13  2  0  0  0  0
 12 11  1  0  0  0  0
 14 12  1  0  0  0  0
 15 14  1  0  0  0  0
 15  9  1  0  0  0  0
 16 15  2  0  0  0  0
 19 14  1  0  0  0  0
 20 27  1  6  0  0  0
 20 25  1  0  0  0  0
 21  1  1  6  0  0  0
 21 20  1  0  0  0  0
 21 22  1  0  0  0  0
 22 23  1  0  0  0  0
 22 24  1  0  0  0  0
 25 24  1  0  0  0  0
 26 25  1  0  0  0  0
 27 28  1  0  0  0  0
M  END
>  <minimizedAffinity>
-4.91035891

>  <minimizedRMSD>
3.04773021

$$$$
