
 OpenBabel03272505263D

 31 33  0  0  1  0  0  0  0  0999 V2000
   37.4040   31.0970   47.1340 N   0  0  0  0  0  0  0  0  0  0  0  0
   36.7970   30.7700   45.9600 C   0  0  0  0  0  0  0  0  0  0  0  0
   37.2490   31.2400   44.7370 C   0  0  0  0  0  0  0  0  0  0  0  0
   38.3740   32.0800   44.7470 C   0  0  0  0  0  0  0  0  0  0  0  0
   38.8110   32.5220   43.6640 O   0  0  0  0  0  0  0  0  0  0  0  0
   38.9830   32.4090   45.9210 N   0  0  0  0  0  0  0  0  0  0  0  0
   38.4520   31.8920   47.0380 C   0  0  0  0  0  0  0  0  0  0  0  0
   39.0410   32.2210   48.0920 O   0  0  0  0  0  0  0  0  0  0  0  0
   35.9280   30.1170   45.9870 H   0  0  0  0  0  0  0  0  0  0  0  0
   37.3380   29.5580   50.5120 C   0  0  0  0  0  0  0  0  0  0  0  0
   37.8000   30.0430   49.2810 C   0  0  0  0  0  0  0  0  0  0  0  0
   36.9390   30.6120   48.3580 C   0  0  0  0  0  0  0  0  0  0  0  0
   35.6130   30.6930   48.6730 N   0  0  0  0  0  0  0  0  0  0  0  0
   35.1560   30.2210   49.8740 C   0  0  0  0  0  0  0  0  0  0  0  0
   36.0020   29.6620   50.7830 N   0  0  0  0  0  0  0  0  0  0  0  0
   37.9360   29.1090   51.2720 H   0  0  0  0  0  0  0  0  0  0  0  0
   38.8590   29.8870   49.2000 H   0  0  0  0  0  0  0  0  0  0  0  0
   34.1030   30.3430   49.9970 H   0  0  0  0  0  0  0  0  0  0  0  0
   35.1240   30.4840   43.8750 C   0  0  2  0  0  3  0  0  0  0  0  0
   36.5480   30.8480   43.5300 C   0  0  2  0  0  3  0  0  0  0  0  0
   37.0440   29.6130   42.8550 C   0  0  0  0  0  3  0  0  0  0  0  0
   38.1200   29.4410   42.9080 H   0  0  0  0  0  0  0  0  0  0  0  0
   36.2850   28.5480   43.3170 O   0  0  0  0  0  0  0  0  0  0  0  0
   35.0180   29.0400   43.4860 C   0  0  0  0  0  3  0  0  0  0  0  0
   34.3920   28.9320   42.5520 H   0  0  0  0  0  0  0  0  0  0  0  0
   34.2420   31.2870   43.1260 O   0  0  0  0  0  0  0  0  0  0  0  0
   34.3840   32.2230   43.3910 H   0  0  0  0  0  0  0  0  0  0  0  0
   40.1410   33.2740   45.9260 C   0  0  0  0  0  0  0  0  0  0  0  0
   39.9830   34.2530   44.9710 F   0  0  0  0  0  0  0  0  0  0  0  0
   41.3140   32.6210   45.6520 F   0  0  0  0  0  0  0  0  0  0  0  0
   40.2060   33.9190   47.1610 F   0  0  0  0  0  0  0  0  0  0  0  0
  1 12  1  0  0  0  0
  2  9  1  0  0  0  0
  2  1  1  0  0  0  0
  3  4  1  0  0  0  0
  3  2  2  0  0  0  0
  4  6  1  0  0  0  0
  5  4  2  0  0  0  0
  6 28  1  0  0  0  0
  6  7  1  0  0  0  0
  7  1  1  0  0  0  0
  7  8  2  0  0  0  0
 10 15  1  0  0  0  0
 10 16  1  0  0  0  0
 11 10  2  0  0  0  0
 12 13  2  0  0  0  0
 12 11  1  0  0  0  0
 13 14  1  0  0  0  0
 14 18  1  0  0  0  0
 14 15  2  0  0  0  0
 17 11  1  0  0  0  0
 19 26  1  6  0  0  0
 20 19  1  0  0  0  0
 20  3  1  1  0  0  0
 21 22  1  0  0  0  0
 21 23  1  0  0  0  0
 21 20  1  0  0  0  0
 23 24  1  0  0  0  0
 24 19  1  0  0  0  0
 25 24  1  0  0  0  0
 26 27  1  0  0  0  0
 28 31  1  0  0  0  0
 29 28  1  0  0  0  0
 30 28  1  0  0  0  0
M  END
>  <minimizedAffinity>
-6.21748972

>  <minimizedRMSD>
0.552389741

$$$$
