REMARK  Name = 
REMARK  4 active torsions:
REMARK  status: ('A' for Active; 'I' for Inactive)
REMARK    1  A    between atoms: C_1  and  N_7
REMARK    2  A    between atoms: C_5  and  C_13
REMARK    3  A    between atoms: C_17  and  C_34
REMARK    4  A    between atoms: O_32  and  C_33
REMARK                            x       y       z     vdW  Elec       q    Type
REMARK                         _______ _______ _______ _____ _____    ______ ____
ROOT
ATOM      1  C   UNL     1      35.105  29.628  47.561  0.00  0.00    +0.000 A 
ATOM      2  C   UNL     1      35.295  30.046  46.244  0.00  0.00    +0.000 A 
ATOM      3  C   UNL     1      34.272  29.893  45.325  0.00  0.00    +0.000 A 
ATOM      4  N   UNL     1      33.101  29.328  45.758  0.00  0.00    +0.000 NA
ATOM      5  C   UNL     1      32.951  28.934  47.042  0.00  0.00    +0.000 A 
ATOM      6  N   UNL     1      33.949  29.083  47.941  0.00  0.00    +0.000 NA
ATOM      7  H   UNL     1      36.239  30.482  45.969  0.00  0.00    +0.000 HD
ATOM      8  H   UNL     1      34.400  30.207  44.314  0.00  0.00    +0.000 HD
ENDROOT
BRANCH   1   9
ATOM      9  N   UNL     1      36.129  29.762  48.554  0.00  0.00    +0.000 N 
ATOM     10  C   UNL     1      36.182  28.894  49.719  0.00  0.00    +0.000 C 
ATOM     11  C   UNL     1      36.473  29.594  51.005  0.00  0.00    +0.000 C 
ATOM     12  N   UNL     1      37.211  30.795  50.962  0.00  0.00    +0.000 NA
ATOM     13  C   UNL     1      36.950  31.598  49.776  0.00  0.00    +0.000 C 
ATOM     14  C   UNL     1      37.191  30.691  48.584  0.00  0.00    +0.000 C 
ATOM     15  H   UNL     1      35.203  28.354  49.798  0.00  0.00    +0.000 HD
ATOM     16  H   UNL     1      36.919  28.095  49.504  0.00  0.00    +0.000 HD
ATOM     17  H   UNL     1      35.496  29.750  51.543  0.00  0.00    +0.000 HD
ATOM     18  H   UNL     1      37.031  28.857  51.655  0.00  0.00    +0.000 HD
ATOM     19  H   UNL     1      36.909  31.396  51.787  0.00  0.00    +0.000 HD
ATOM     20  H   UNL     1      37.768  32.368  49.731  0.00  0.00    +0.000 HD
ATOM     21  H   UNL     1      35.978  32.088  49.764  0.00  0.00    +0.000 HD
ATOM     22  H   UNL     1      37.264  31.282  47.635  0.00  0.00    +0.000 HD
ATOM     23  H   UNL     1      38.157  30.192  48.742  0.00  0.00    +0.000 HD
ENDBRANCH   1   9
BRANCH   5  24
ATOM     24  C   UNL     1      31.691  28.339  47.463  0.00  0.00    +0.000 A 
ATOM     25  C   UNL     1      31.653  27.427  48.497  0.00  0.00    +0.000 A 
ATOM     26  C   UNL     1      30.484  26.827  48.942  0.00  0.00    +0.000 A 
ATOM     27  N   UNL     1      29.353  27.200  48.282  0.00  0.00    +0.000 NA
ATOM     28  C   UNL     1      29.402  28.082  47.282  0.00  0.00    +0.000 A 
ATOM     29  N   UNL     1      30.549  28.673  46.844  0.00  0.00    +0.000 NA
ATOM     30  H   UNL     1      32.596  27.196  48.958  0.00  0.00    +0.000 HD
ATOM     31  H   UNL     1      30.573  26.127  49.761  0.00  0.00    +0.000 HD
BRANCH  28  33
ATOM     32  C   UNL     1      27.012  28.159  47.765  0.00  0.00    +0.000 C 
ATOM     33  C   UNL     1      28.074  28.370  46.678  0.00  0.00    +0.000 C 
ATOM     34  C   UNL     1      27.658  27.298  45.702  0.00  0.00    +0.000 C 
ATOM     35  H   UNL     1      28.536  27.020  45.081  0.00  0.00    +0.000 HD
ATOM     36  O   UNL     1      27.198  26.237  46.462  0.00  0.00    +0.000 OA
ATOM     37  C   UNL     1      26.788  26.689  47.690  0.00  0.00    +0.000 C 
ATOM     38  H   UNL     1      27.346  26.158  48.501  0.00  0.00    +0.000 HD
BRANCH  32  39
ATOM     39  O   UNL     1      27.481  28.595  48.995  0.00  0.00    +0.000 OA
ATOM     40  H   UNL     1      27.471  29.581  48.998  0.00  0.00    +0.000 HD
ENDBRANCH  32  39
ENDBRANCH  28  33
ENDBRANCH   5  24
TORSDOF 4
