
 OpenBabel03272505263D

 31 33  0  0  1  0  0  0  0  0999 V2000
   37.4110   31.1230   46.9990 N   0  0  0  0  0  0  0  0  0  0  0  0
   36.8190   30.7870   45.8200 C   0  0  0  0  0  0  0  0  0  0  0  0
   37.2880   31.2440   44.6000 C   0  0  0  0  0  0  0  0  0  0  0  0
   38.4150   32.0810   44.6170 C   0  0  0  0  0  0  0  0  0  0  0  0
   38.8670   32.5120   43.5360 O   0  0  0  0  0  0  0  0  0  0  0  0
   39.0090   32.4200   45.7960 N   0  0  0  0  0  0  0  0  0  0  0  0
   38.4620   31.9150   46.9100 C   0  0  0  0  0  0  0  0  0  0  0  0
   39.0370   32.2520   47.9690 O   0  0  0  0  0  0  0  0  0  0  0  0
   35.9470   30.1360   45.8420 H   0  0  0  0  0  0  0  0  0  0  0  0
   37.2930   29.6050   50.3850 C   0  0  0  0  0  0  0  0  0  0  0  0
   37.7730   30.0760   49.1560 C   0  0  0  0  0  0  0  0  0  0  0  0
   36.9280   30.6510   48.2220 C   0  0  0  0  0  0  0  0  0  0  0  0
   35.6000   30.7500   48.5240 N   0  0  0  0  0  0  0  0  0  0  0  0
   35.1260   30.2910   49.7230 C   0  0  0  0  0  0  0  0  0  0  0  0
   35.9570   29.7260   50.6430 N   0  0  0  0  0  0  0  0  0  0  0  0
   37.8790   29.1520   51.1530 H   0  0  0  0  0  0  0  0  0  0  0  0
   38.8310   29.9070   49.0860 H   0  0  0  0  0  0  0  0  0  0  0  0
   34.0730   30.4260   49.8360 H   0  0  0  0  0  0  0  0  0  0  0  0
   35.5750   31.8870   43.0230 C   0  0  2  0  0  3  0  0  0  0  0  0
   36.6030   30.8420   43.3870 C   0  0  2  0  0  3  0  0  0  0  0  0
   35.7820   29.5990   43.4780 C   0  0  0  0  0  3  0  0  0  0  0  0
   36.1710   28.8190   44.1360 H   0  0  0  0  0  0  0  0  0  0  0  0
   34.4790   29.9750   43.7660 O   0  0  0  0  0  0  0  0  0  0  0  0
   34.2730   31.1470   43.0880 C   0  0  0  0  0  3  0  0  0  0  0  0
   33.8700   30.9730   42.0490 H   0  0  0  0  0  0  0  0  0  0  0  0
   35.8340   32.3650   41.7240 O   0  0  0  0  0  0  0  0  0  0  0  0
   36.7160   32.8000   41.7310 H   0  0  0  0  0  0  0  0  0  0  0  0
   40.1680   33.2830   45.8080 C   0  0  0  0  0  0  0  0  0  0  0  0
   40.0200   34.2610   44.8510 F   0  0  0  0  0  0  0  0  0  0  0  0
   41.3420   32.6270   45.5430 F   0  0  0  0  0  0  0  0  0  0  0  0
   40.2270   33.9280   47.0430 F   0  0  0  0  0  0  0  0  0  0  0  0
  1 12  1  0  0  0  0
  2  9  1  0  0  0  0
  2  1  1  0  0  0  0
  3  4  1  0  0  0  0
  3  2  2  0  0  0  0
  4  6  1  0  0  0  0
  5  4  2  0  0  0  0
  6 28  1  0  0  0  0
  6  7  1  0  0  0  0
  7  1  1  0  0  0  0
  7  8  2  0  0  0  0
 10 15  1  0  0  0  0
 10 16  1  0  0  0  0
 11 10  2  0  0  0  0
 12 13  2  0  0  0  0
 12 11  1  0  0  0  0
 13 14  1  0  0  0  0
 14 18  1  0  0  0  0
 14 15  2  0  0  0  0
 17 11  1  0  0  0  0
 19 26  1  6  0  0  0
 19 24  1  0  0  0  0
 19 20  1  0  0  0  0
 20 21  1  0  0  0  0
 20  3  1  1  0  0  0
 21 23  1  0  0  0  0
 21 22  1  0  0  0  0
 24 23  1  0  0  0  0
 25 24  1  0  0  0  0
 26 27  1  0  0  0  0
 28 31  1  0  0  0  0
 29 28  1  0  0  0  0
 30 28  1  0  0  0  0
M  END
>  <minimizedAffinity>
-6.17724752

>  <minimizedRMSD>
0.178243488

$$$$
