
 OpenBabel03272504533D

 25 27  0  0  1  0  0  0  0  0999 V2000
   36.7800   31.2470   48.9380 C   0  0  0  0  0  0  0  0  0  0  0  0
   37.3260   32.0710   49.9380 C   0  0  0  0  0  0  0  0  0  0  0  0
   38.3820   32.8760   49.5480 C   0  0  0  0  0  0  0  0  0  0  0  0
   38.8390   32.8440   48.2570 N   0  0  0  0  0  0  0  0  0  0  0  0
   38.2800   32.0310   47.3200 C   0  0  0  0  0  0  0  0  0  0  0  0
   37.2440   31.2290   47.6710 N   0  0  0  0  0  0  0  0  0  0  0  0
   36.9530   32.0780   50.9330 H   0  0  0  0  0  0  0  0  0  0  0  0
   38.8280   33.5240   50.2900 H   0  0  0  0  0  0  0  0  0  0  0  0
   35.6120   30.3770   49.3270 C   0  0  0  0  0  0  0  0  0  0  0  0
   35.2810   29.1800   48.5630 C   0  0  0  0  0  0  0  0  0  0  0  0
   36.0450   29.0160   49.8500 C   0  0  0  0  0  0  0  0  0  0  0  0
   34.8650   30.9270   49.9540 H   0  0  0  0  0  0  0  0  0  0  0  0
   35.8770   29.0160   47.6170 H   0  0  0  0  0  0  0  0  0  0  0  0
   34.2430   28.8380   48.4620 H   0  0  0  0  0  0  0  0  0  0  0  0
   37.1030   28.7380   49.8600 H   0  0  0  0  0  0  0  0  0  0  0  0
   35.4160   28.6470   50.6840 H   0  0  0  0  0  0  0  0  0  0  0  0
   37.7600   31.7740   44.8980 C   0  0  2  0  0  3  0  0  0  0  0  0
   38.8240   32.0440   45.9360 C   0  0  2  0  0  3  0  0  0  0  0  0
   39.8380   30.9610   45.6940 C   0  0  0  0  0  3  0  0  0  0  0  0
   40.8500   31.3690   45.8600 H   0  0  0  0  0  0  0  0  0  0  0  0
   39.6590   30.5090   44.4040 O   0  0  0  0  0  0  0  0  0  0  0  0
   38.2860   30.5960   44.1400 C   0  0  0  0  0  3  0  0  0  0  0  0
   37.7480   29.6780   44.4420 H   0  0  0  0  0  0  0  0  0  0  0  0
   37.5970   32.8270   43.9990 O   0  0  0  0  0  0  0  0  0  0  0  0
   38.4470   33.3640   44.0340 H   0  0  0  0  0  0  0  0  0  0  0  0
  1  9  1  0  0  0  0
  1  2  1  0  0  0  0
  2  7  1  0  0  0  0
  3  2  2  0  0  0  0
  3  8  1  0  0  0  0
  4  3  1  0  0  0  0
  5  6  1  0  0  0  0
  5  4  2  0  0  0  0
  6  1  2  0  0  0  0
  9 11  1  0  0  0  0
  9 12  1  0  0  0  0
 10  9  1  0  0  0  0
 10 11  1  0  0  0  0
 11 15  1  0  0  0  0
 11 16  1  0  0  0  0
 13 10  1  0  0  0  0
 14 10  1  0  0  0  0
 17 24  1  6  0  0  0
 17 18  1  0  0  0  0
 18  5  1  1  0  0  0
 19 20  1  0  0  0  0
 19 18  1  0  0  0  0
 21 19  1  0  0  0  0
 22 21  1  0  0  0  0
 22 23  1  0  0  0  0
 22 17  1  0  0  0  0
 24 25  1  0  0  0  0
M  END
>  <minimizedAffinity>
-5.31183147

>  <minimizedRMSD>
1.33166265

$$$$
