
 OpenBabel03272505043D

 45 48  0  0  1  0  0  0  0  0999 V2000
   38.7760   32.5010   43.4190 C   0  0  2  0  0  0  0  0  0  0  0  0
   37.5870   32.9540   42.5100 C   0  0  0  0  0  0  0  0  0  0  0  0
   37.0740   31.7330   41.8050 C   0  0  0  0  0  0  0  0  0  0  0  0
   38.0450   31.3720   40.7110 C   0  0  0  0  0  0  0  0  0  0  0  0
   39.3940   31.8860   41.0870 C   0  0  0  0  0  0  0  0  0  0  0  0
   39.6650   31.6900   42.5650 C   0  0  2  0  0  0  0  0  0  0  0  0
   39.1530   33.4880   43.7690 H   0  0  0  0  0  0  0  0  0  0  0  0
   36.8160   33.3350   43.2320 H   0  0  0  0  0  0  0  0  0  0  0  0
   37.8760   33.7620   41.8470 H   0  0  0  0  0  0  0  0  0  0  0  0
   36.0400   31.8690   41.4230 H   0  0  0  0  0  0  0  0  0  0  0  0
   37.1540   30.8090   42.4070 H   0  0  0  0  0  0  0  0  0  0  0  0
   38.0090   30.3270   40.3840 H   0  0  0  0  0  0  0  0  0  0  0  0
   37.7370   31.9650   39.7990 H   0  0  0  0  0  0  0  0  0  0  0  0
   39.4590   32.9950   40.8350 H   0  0  0  0  0  0  0  0  0  0  0  0
   40.2260   31.4500   40.5130 H   0  0  0  0  0  0  0  0  0  0  0  0
   40.6680   32.2600   42.6530 H   0  0  0  0  0  0  0  0  0  0  0  0
   38.7710   29.5880   43.4470 C   0  0  2  0  0  3  0  0  0  0  0  0
   39.9640   30.2980   42.8240 C   0  0  1  0  0  3  0  0  0  0  0  0
   40.1000   29.3340   41.6960 C   0  0  0  0  0  3  0  0  0  0  0  0
   39.4580   29.4300   40.8460 H   0  0  0  0  0  0  0  0  0  0  0  0
   40.2190   28.1280   42.3220 O   0  0  0  0  0  0  0  0  0  0  0  0
   39.2630   28.1340   43.3070 C   0  0  0  0  0  3  0  0  0  0  0  0
   39.6270   27.7490   44.2820 H   0  0  0  0  0  0  0  0  0  0  0  0
   37.6320   29.7940   42.7050 O   0  0  0  0  0  0  0  0  0  0  0  0
   37.2490   28.9490   42.3440 H   0  0  0  0  0  0  0  0  0  0  0  0
   38.2010   31.8070   44.4090 O   0  0  0  0  0  0  0  0  0  0  0  0
   36.2800   30.2190   45.9030 Cl  0  0  0  0  0  0  0  0  0  0  0  0
   37.4900   31.2490   46.6210 C   0  0  0  0  0  0  0  0  0  0  0  0
   37.5400   31.3160   47.9830 C   0  0  0  0  0  0  0  0  0  0  0  0
   38.5230   32.1490   48.5130 C   0  0  0  0  0  0  0  0  0  0  0  0
   39.3700   32.8420   47.6710 C   0  0  0  0  0  0  0  0  0  0  0  0
   39.2800   32.7440   46.3020 C   0  0  0  0  0  0  0  0  0  0  0  0
   38.3210   31.9300   45.7780 C   0  0  0  0  0  0  0  0  0  0  0  0
   38.6110   32.2420   49.5950 H   0  0  0  0  0  0  0  0  0  0  0  0
   40.1460   33.5010   48.0900 H   0  0  0  0  0  0  0  0  0  0  0  0
   39.9360   33.2810   45.6310 H   0  0  0  0  0  0  0  0  0  0  0  0
   37.1190   29.5950   49.7460 C   0  0  0  0  0  0  0  0  0  0  0  0
   36.6460   30.5890   48.8890 C   0  0  0  0  0  0  0  0  0  0  0  0
   35.2830   30.8760   48.9210 C   0  0  0  0  0  0  0  0  0  0  0  0
   34.4950   30.1790   49.7760 N   0  0  0  0  0  0  0  0  0  0  0  0
   34.9730   29.2390   50.5780 C   0  0  0  0  0  0  0  0  0  0  0  0
   36.2830   28.9370   50.5730 N   0  0  0  0  0  0  0  0  0  0  0  0
   38.1780   29.4230   49.6710 H   0  0  0  0  0  0  0  0  0  0  0  0
   34.8470   31.6380   48.2820 H   0  0  0  0  0  0  0  0  0  0  0  0
   34.4020   28.6470   51.2820 H   0  0  0  0  0  0  0  0  0  0  0  0
  1  7  1  1  0  0  0
  1 26  1  0  0  0  0
  2  8  1  0  0  0  0
  2  1  1  0  0  0  0
  3 11  1  0  0  0  0
  3  2  1  0  0  0  0
  4  5  1  0  0  0  0
  4  3  1  0  0  0  0
  5  6  1  0  0  0  0
  6 16  1  1  0  0  0
  6 18  1  0  0  0  0
  6  1  1  0  0  0  0
  9  2  1  0  0  0  0
 10  3  1  0  0  0  0
 12  4  1  0  0  0  0
 13  4  1  0  0  0  0
 14  5  1  0  0  0  0
 15  5  1  0  0  0  0
 17 24  1  6  0  0  0
 18 19  1  6  0  0  0
 18 17  1  0  0  0  0
 19 21  1  0  0  0  0
 20 19  1  0  0  0  0
 21 22  1  0  0  0  0
 22 17  1  0  0  0  0
 22 23  1  0  0  0  0
 25 24  1  0  0  0  0
 26 33  1  0  0  0  0
 27 28  1  0  0  0  0
 28 29  1  0  0  0  0
 29 30  2  0  0  0  0
 29 38  1  0  0  0  0
 30 34  1  0  0  0  0
 31 35  1  0  0  0  0
 31 30  1  0  0  0  0
 32 31  2  0  0  0  0
 33 32  1  0  0  0  0
 33 28  2  0  0  0  0
 36 32  1  0  0  0  0
 37 42  1  0  0  0  0
 38 39  1  0  0  0  0
 38 37  2  0  0  0  0
 39 40  2  0  0  0  0
 40 41  1  0  0  0  0
 41 45  1  0  0  0  0
 42 41  2  0  0  0  0
 43 37  1  0  0  0  0
 44 39  1  0  0  0  0
M  END
>  <minimizedAffinity>
-5.72754478

>  <minimizedRMSD>
1.90226042

$$$$
