REMARK  Name = 
REMARK  3 active torsions:
REMARK  status: ('A' for Active; 'I' for Inactive)
REMARK    1  A    between atoms: C_1  and  O_7
REMARK    2  A    between atoms: C_2  and  C_13
REMARK    3  A    between atoms: O_11  and  C_12
REMARK                            x       y       z     vdW  Elec       q    Type
REMARK                         _______ _______ _______ _____ _____    ______ ____
ROOT
ATOM      1  C   UNL     1      37.316  30.005  51.176  0.00  0.00    +0.000 A 
ATOM      2  C   UNL     1      37.963  30.927  50.348  0.00  0.00    +0.000 A 
ATOM      3  C   UNL     1      37.271  31.385  49.235  0.00  0.00    +0.000 A 
ATOM      4  N   UNL     1      36.015  30.924  49.002  0.00  0.00    +0.000 NA
ATOM      5  C   UNL     1      35.403  30.031  49.813  0.00  0.00    +0.000 A 
ATOM      6  N   UNL     1      36.057  29.573  50.901  0.00  0.00    +0.000 NA
ATOM      7  H   UNL     1      37.686  32.092  48.544  0.00  0.00    +0.000 HD
ATOM      8  H   UNL     1      34.399  29.704  49.571  0.00  0.00    +0.000 HD
ENDROOT
BRANCH   2  10
ATOM      9  C   UNL     1      39.410  32.648  51.464  0.00  0.00    +0.000 C 
ATOM     10  C   UNL     1      39.326  31.418  50.612  0.00  0.00    +0.000 C 
ATOM     11  C   UNL     1      40.200  30.456  51.333  0.00  0.00    +0.000 C 
ATOM     12  H   UNL     1      39.848  30.166  52.340  0.00  0.00    +0.000 HD
ATOM     13  O   UNL     1      41.315  31.289  51.590  0.00  0.00    +0.000 OA
ATOM     14  C   UNL     1      40.699  32.394  52.211  0.00  0.00    +0.000 C 
ATOM     15  H   UNL     1      41.332  33.285  52.240  0.00  0.00    +0.000 HD
BRANCH   9  16
ATOM     16  O   UNL     1      39.422  33.779  50.671  0.00  0.00    +0.000 OA
ATOM     17  H   UNL     1      39.510  34.613  51.158  0.00  0.00    +0.000 HD
ENDBRANCH   9  16
ENDBRANCH   2  10
BRANCH   1  18
ATOM     18  O   UNL     1      38.069  29.600  52.258  0.00  0.00    +0.000 OA
ATOM     19  H   UNL     1      38.118  30.103  53.124  0.00  0.00    +0.000 HD
ENDBRANCH   1  18
TORSDOF 3
