
 OpenBabel03262520533D

 25 27  0  0  1  0  0  0  0  0999 V2000
   38.7330   31.4580   48.4440 C   0  0  2  0  0  0  0  0  0  0  0  0
   38.5530   32.9190   48.2980 C   0  0  0  0  0  0  0  0  0  0  0  0
   38.1970   31.9780   47.1750 C   0  0  1  0  0  0  0  0  0  0  0  0
   39.7700   31.0640   48.4900 H   0  0  0  0  0  0  0  0  0  0  0  0
   37.7430   33.3370   48.9450 H   0  0  0  0  0  0  0  0  0  0  0  0
   39.4620   33.5120   48.3150 H   0  0  0  0  0  0  0  0  0  0  0  0
   37.0760   31.8790   47.0560 H   0  0  0  0  0  0  0  0  0  0  0  0
   36.0850   29.1230   49.6350 C   0  0  0  0  0  0  0  0  0  0  0  0
   36.2280   29.2220   51.0230 C   0  0  0  0  0  0  0  0  0  0  0  0
   37.2270   30.0920   51.5490 C   0  0  0  0  0  0  0  0  0  0  0  0
   37.9880   30.7820   50.6770 N   0  0  0  0  0  0  0  0  0  0  0  0
   37.8250   30.6650   49.3320 C   0  0  0  0  0  0  0  0  0  0  0  0
   36.8850   29.8460   48.8020 N   0  0  0  0  0  0  0  0  0  0  0  0
   35.3450   28.4790   49.1770 H   0  0  0  0  0  0  0  0  0  0  0  0
   35.6080   28.6610   51.6780 H   0  0  0  0  0  0  0  0  0  0  0  0
   37.3640   30.1930   52.6190 H   0  0  0  0  0  0  0  0  0  0  0  0
   39.9060   30.8560   45.6820 C   0  0  2  0  0  0  0  0  0  0  0  0
   38.9770   32.0110   45.9140 C   0  0  2  0  0  0  0  0  0  0  0  0
   40.0060   33.1440   45.9600 C   0  0  0  0  0  0  0  0  0  0  0  0
   40.5060   33.0820   46.9440 H   0  0  0  0  0  0  0  0  0  0  0  0
   40.8720   32.8410   44.9240 O   0  0  0  0  0  0  0  0  0  0  0  0
   40.9010   31.4810   44.7230 C   0  0  0  0  0  0  0  0  0  0  0  0
   41.9350   31.1190   44.9180 H   0  0  0  0  0  0  0  0  0  0  0  0
   39.2170   29.7910   45.1680 O   0  0  0  0  0  0  0  0  0  0  0  0
   39.5330   29.4620   44.2890 H   0  0  0  0  0  0  0  0  0  0  0  0
  1  4  1  6  0  0  0
  1 12  1  0  0  0  0
  2  6  1  0  0  0  0
  2  1  1  0  0  0  0
  2  5  1  0  0  0  0
  3  7  1  6  0  0  0
  3  2  1  0  0  0  0
  3  1  1  0  0  0  0
  8  9  1  0  0  0  0
  9 10  2  0  0  0  0
  9 15  1  0  0  0  0
 10 16  1  0  0  0  0
 11 10  1  0  0  0  0
 12 11  2  0  0  0  0
 13 12  1  0  0  0  0
 13  8  2  0  0  0  0
 14  8  1  0  0  0  0
 17 24  1  6  0  0  0
 17 18  1  0  0  0  0
 18 19  1  1  0  0  0
 18  3  1  0  0  0  0
 19 20  1  0  0  0  0
 21 19  1  0  0  0  0
 22 23  1  0  0  0  0
 22 21  1  0  0  0  0
 22 17  1  0  0  0  0
 25 24  1  0  0  0  0
M  END
>  <minimizedAffinity>
-5.55744743

>  <minimizedRMSD>
6.69201517

$$$$
