
 OpenBabel03272502313D

 27 28  0  0  1  0  0  0  0  0999 V2000
   37.8190   30.1660   46.9150 C   0  0  2  0  0  0  0  0  0  0  0  0
   37.9680   29.0940   47.1830 H   0  0  0  0  0  0  0  0  0  0  0  0
   38.1980   32.9310   49.4180 C   0  0  2  0  0  3  0  0  0  0  0  0
   37.7500   32.4560   48.0190 C   0  0  0  0  0  3  0  0  0  0  0  0
   36.6590   32.4180   47.9550 H   0  0  0  0  0  0  0  0  0  0  0  0
   38.3310   31.0930   47.9700 C   0  0  1  0  0  3  0  0  0  0  0  0
   38.0600   30.6190   49.2790 O   0  0  0  0  0  0  0  0  0  0  0  0
   38.6560   31.6210   50.0610 C   0  0  0  0  0  3  0  0  0  0  0  0
   39.7720   31.4770   49.9680 H   0  0  0  0  0  0  0  0  0  0  0  0
   37.0840   33.4270   50.1120 O   0  0  0  0  0  0  0  0  0  0  0  0
   36.9850   32.9110   50.9830 H   0  0  0  0  0  0  0  0  0  0  0  0
   37.8050   30.9530   44.6590 C   0  0  0  0  0  3  0  0  0  0  0  0
   38.5200   30.5070   45.6450 C   0  0  0  0  0  3  0  0  0  0  0  0
   40.1760   31.0590   41.7760 C   0  0  0  0  0  0  0  0  0  0  0  0
   39.5610   30.7490   42.9850 C   0  0  0  0  0  0  0  0  0  0  0  0
   38.3710   31.3170   43.3820 C   0  0  0  0  0  0  0  0  0  0  0  0
   37.8070   32.1980   42.5430 N   0  0  0  0  0  0  0  0  0  0  0  0
   38.4130   32.4910   41.3730 C   0  0  0  0  0  0  0  0  0  0  0  0
   39.5620   31.9510   40.9830 N   0  0  0  0  0  0  0  0  0  0  0  0
   41.1180   30.6180   41.4530 H   0  0  0  0  0  0  0  0  0  0  0  0
   40.1490   30.0100   43.5570 H   0  0  0  0  0  0  0  0  0  0  0  0
   37.9810   33.1990   40.6750 H   0  0  0  0  0  0  0  0  0  0  0  0
   36.0440   30.5220   46.6890 S   0  0  0  0  0  0  0  0  0  0  0  0
   35.0910   29.9100   48.0860 C   0  0  0  0  0  0  0  0  0  0  0  0
   35.0180   30.8290   49.1270 F   0  0  0  0  0  0  0  0  0  0  0  0
   33.8410   29.4700   47.7000 F   0  0  0  0  0  0  0  0  0  0  0  0
   35.7630   28.7660   48.5730 F   0  0  0  0  0  0  0  0  0  0  0  0
  1  2  1  1  0  0  0
  3  8  1  0  0  0  0
  3 10  1  1  0  0  0
  4  3  1  0  0  0  0
  5  4  1  0  0  0  0
  6  1  1  6  0  0  0
  6  4  1  0  0  0  0
  6  7  1  0  0  0  0
  7  8  1  0  0  0  0
  9  8  1  0  0  0  0
 10 11  1  0  0  0  0
 12 13  2  0  0  0  0
 13  1  1  0  0  0  0
 14 15  1  0  0  0  0
 15 16  2  0  0  0  0
 15 21  1  0  0  0  0
 16 12  1  0  0  0  0
 17 16  1  0  0  0  0
 18 17  2  0  0  0  0
 19 18  1  0  0  0  0
 19 14  2  0  0  0  0
 20 14  1  0  0  0  0
 22 18  1  0  0  0  0
 23  1  1  0  0  0  0
 23 24  1  0  0  0  0
 24 27  1  0  0  0  0
 24 25  1  0  0  0  0
 26 24  1  0  0  0  0
M  END
>  <minimizedAffinity>
-3.89580798

>  <minimizedRMSD>
3.74592948

$$$$
