
     RDKit          3D

 29 31  0  0  0  0  0  0  0  0999 V2000
   37.0480   31.1441   49.2821 C   0  0  0  0  0  0  0  0  0  0  0  0
   37.2978   32.4435   49.7314 C   0  0  0  0  0  0  0  0  0  0  0  0
   38.2697   33.1407   48.9829 C   0  0  0  0  0  0  0  0  0  0  0  0
   38.8839   32.5442   47.9149 N   0  0  0  0  0  0  0  0  0  0  0  0
   38.5947   31.2723   47.5278 C   0  0  0  0  0  0  0  0  0  0  0  0
   37.6752   30.5765   48.2171 N   0  0  0  0  0  0  0  0  0  0  0  0
   35.9337   30.4176   49.9942 C   0  0  0  0  0  0  0  0  0  0  0  0
   35.7354   29.0026   49.8235 C   0  0  0  0  0  0  0  0  0  0  0  0
   36.4965   29.4474   51.0461 C   0  0  0  0  0  0  0  0  0  0  0  0
   38.6280   34.1327   49.1229 H   0  0  0  0  0  0  0  0  0  0  0  0
   39.0921   30.8235   46.6818 H   0  0  0  0  0  0  0  0  0  0  0  0
   35.1869   31.0958   50.4603 H   0  0  0  0  0  0  0  0  0  0  0  0
   36.4021   28.4714   49.0827 H   0  0  0  0  0  0  0  0  0  0  0  0
   34.7699   28.5193   50.0427 H   0  0  0  0  0  0  0  0  0  0  0  0
   35.9714   29.4621   52.0160 H   0  0  0  0  0  0  0  0  0  0  0  0
   37.5819   29.3330   51.0969 H   0  0  0  0  0  0  0  0  0  0  0  0
   37.4799   35.2476   50.1591 O   0  0  0  0  0  0  0  0  0  0  0  0
   37.2447   34.4473   51.2507 C   0  0  2  0  0  0  0  0  0  0  0  0
   36.6583   33.1075   50.8497 C   0  0  1  0  0  0  0  0  0  0  0  0
   35.2780   33.6506   50.4274 C   0  0  1  0  0  0  0  0  0  0  0  0
   35.4648   34.3715   49.5991 H   0  0  0  0  0  0  0  0  0  0  0  0
   34.9029   34.4631   51.5055 O   0  0  0  0  0  0  0  0  0  0  0  0
   36.0672   34.9781   52.0502 C   0  0  2  0  0  0  0  0  0  0  0  0
   36.0922   36.0733   52.1477 H   0  0  0  0  0  0  0  0  0  0  0  0
   38.3445   35.7378   50.3158 H   0  0  0  0  0  0  0  0  0  0  0  0
   38.0871   34.3682   51.9550 H   0  0  0  0  0  0  0  0  0  0  0  0
   36.5365   32.4789   51.7525 H   0  0  0  0  0  0  0  0  0  0  0  0
   34.5493   32.8758   50.2364 H   0  0  0  0  0  0  0  0  0  0  0  0
   36.1357   34.5077   53.0753 H   0  0  0  0  0  0  0  0  0  0  0  0
  1  2  1  0
  1  7  1  0
  3  2  2  0
  4  3  1  0
  5  4  2  0
  5  6  1  0
  6  1  2  0
  7  9  1  0
  8  7  1  0
  8  9  1  0
  3 10  1  0
  5 11  1  0
  7 12  1  0
  8 13  1  0
  8 14  1  0
  9 15  1  0
  9 16  1  0
 17 18  1  0
 18 19  1  0
 19 20  1  0
 20 21  1  6
 20 22  1  0
 22 23  1  0
 23 24  1  1
 23 18  1  0
 17 25  1  0
 18 26  1  1
 19 27  1  1
 20 28  1  0
 23 29  1  0
  2 19  1  0
M  ISO  8  10  14  11  14  12  13  13  13  14  13  15  13  16  13  21  15
M  ISO  1  24  16
M  END
>  <DihAtoms>  (1) 
0,1,18,17

>  <DihDeg>  (1) 
81.76793554683596

$$$$
