REMARK  Name = 
REMARK  7 active torsions:
REMARK  status: ('A' for Active; 'I' for Inactive)
REMARK    1  A    between atoms: C_1  and  C_13
REMARK    2  A    between atoms: C_2  and  O_14
REMARK    3  A    between atoms: C_6  and  C_7
REMARK    4  A    between atoms: O_14  and  C_15
REMARK    5  A    between atoms: C_16  and  N_23
REMARK    6  A    between atoms: C_21  and  C_37
REMARK    7  A    between atoms: O_33  and  C_34
REMARK                            x       y       z     vdW  Elec       q    Type
REMARK                         _______ _______ _______ _____ _____    ______ ____
ROOT
ATOM      1  C   UNL     1      36.785  31.197  50.170  0.00  0.00    +0.000 A 
ATOM      2  C   UNL     1      35.640  30.425  49.948  0.00  0.00    +0.000 A 
ATOM      3  C   UNL     1      35.436  29.252  50.647  0.00  0.00    +0.000 A 
ATOM      4  N   UNL     1      36.389  28.890  51.549  0.00  0.00    +0.000 NA
ATOM      5  C   UNL     1      37.496  29.651  51.754  0.00  0.00    +0.000 A 
ATOM      6  N   UNL     1      37.673  30.778  51.069  0.00  0.00    +0.000 NA
ATOM      7  H   UNL     1      34.582  28.611  50.528  0.00  0.00    +0.000 HD
ATOM      8  H   UNL     1      38.259  29.373  52.468  0.00  0.00    +0.000 HD
ENDROOT
BRANCH   2  11
ATOM      9  C   UNL     1      34.149  29.718  48.156  0.00  0.00    +0.000 C 
ATOM     10  O   UNL     1      34.547  28.523  47.874  0.00  0.00    +0.000 OA
ATOM     11  N   UNL     1      34.614  30.727  49.040  0.00  0.00    +0.000 N 
ATOM     12  H   UNL     1      34.152  31.634  48.947  0.00  0.00    +0.000 HD
BRANCH   9  16
ATOM     13  C   UNL     1      32.098  31.957  46.492  0.00  0.00    +0.000 C 
ATOM     14  C   UNL     1      32.101  31.096  47.741  0.00  0.00    +0.000 C 
ATOM     15  H   UNL     1      31.076  30.805  48.022  0.00  0.00    +0.000 HD
ATOM     16  C   UNL     1      32.944  29.939  47.300  0.00  0.00    +0.000 C 
ATOM     17  O   UNL     1      33.328  30.158  45.997  0.00  0.00    +0.000 OA
ATOM     18  C   UNL     1      32.252  30.884  45.433  0.00  0.00    +0.000 C 
ATOM     19  H   UNL     1      32.482  31.259  44.438  0.00  0.00    +0.000 HD
BRANCH  13  20
ATOM     20  O   UNL     1      33.246  32.735  46.506  0.00  0.00    +0.000 OA
ATOM     21  H   UNL     1      33.976  32.346  45.953  0.00  0.00    +0.000 HD
ENDBRANCH  13  20
ENDBRANCH   9  16
ENDBRANCH   2  11
BRANCH   1  22
ATOM     22  O   UNL     1      36.811  32.307  49.395  0.00  0.00    +0.000 OA
BRANCH  22  24
ATOM     23  C   UNL     1      38.266  32.287  47.393  0.00  0.00    +0.000 A 
ATOM     24  C   UNL     1      37.912  32.731  48.653  0.00  0.00    +0.000 A 
ATOM     25  C   UNL     1      38.670  33.686  49.306  0.00  0.00    +0.000 A 
ATOM     26  C   UNL     1      39.803  34.201  48.679  0.00  0.00    +0.000 A 
ATOM     27  C   UNL     1      40.157  33.758  47.421  0.00  0.00    +0.000 A 
ATOM     28  C   UNL     1      39.373  32.807  46.812  0.00  0.00    +0.000 A 
ATOM     29  H   UNL     1      38.459  34.072  50.271  0.00  0.00    +0.000 HD
ATOM     30  H   UNL     1      40.409  34.952  49.180  0.00  0.00    +0.000 HD
ATOM     31  H   UNL     1      41.047  34.184  46.969  0.00  0.00    +0.000 HD
BRANCH  28  32
ATOM     32  C   UNL     1      39.763  32.340  45.462  0.00  0.00    +0.000 A 
ATOM     33  C   UNL     1      40.615  31.337  45.096  0.00  0.00    +0.000 A 
ATOM     34  C   UNL     1      40.646  31.291  43.703  0.00  0.00    +0.000 A 
ATOM     35  C   UNL     1      39.794  32.292  43.309  0.00  0.00    +0.000 A 
ATOM     36  O   UNL     1      39.285  32.895  44.361  0.00  0.00    +0.000 OA
ATOM     37  H   UNL     1      41.119  30.748  45.874  0.00  0.00    +0.000 HD
ATOM     38  H   UNL     1      41.263  30.563  43.193  0.00  0.00    +0.000 HD
ATOM     39  H   UNL     1      39.616  32.494  42.248  0.00  0.00    +0.000 HD
ENDBRANCH  28  32
BRANCH  23  41
ATOM     40  N   UNL     1      36.748  30.522  46.297  0.00  0.00    +0.000 NA
ATOM     41  C   UNL     1      37.430  31.299  46.787  0.00  0.00    +0.000 C 
ENDBRANCH  23  41
ENDBRANCH  22  24
ENDBRANCH   1  22
TORSDOF 7
