
 OpenBabel03272507513D

 28 30  0  0  1  0  0  0  0  0999 V2000
   39.4610   25.4990   34.6450 C   0  0  0  0  0  0  0  0  0  0  0  0
   39.7750   24.2200   35.1350 C   0  0  0  0  0  0  0  0  0  0  0  0
   41.1160   23.9510   35.3840 C   0  0  0  0  0  0  0  0  0  0  0  0
   42.0410   24.9050   35.1520 N   0  0  0  0  0  0  0  0  0  0  0  0
   41.7030   26.1310   34.6780 C   0  0  0  0  0  0  0  0  0  0  0  0
   40.3990   26.4390   34.4180 N   0  0  0  0  0  0  0  0  0  0  0  0
   41.3590   22.9600   35.7640 H   0  0  0  0  0  0  0  0  0  0  0  0
   42.5460   26.8070   34.5350 H   0  0  0  0  0  0  0  0  0  0  0  0
   38.7190   23.3020   35.3390 N   0  0  0  0  0  0  0  0  0  0  0  0
   38.2980   22.4610   34.3920 C   0  0  0  0  0  0  0  0  0  0  0  0
   37.2530   21.5680   34.6330 C   0  0  0  0  0  0  0  0  0  0  0  0
   36.7320   21.6590   35.9150 C   0  0  0  0  0  0  0  0  0  0  0  0
   35.7790   20.8470   36.1420 O   0  0  0  0  0  0  0  0  0  0  0  0
   37.1200   22.4820   36.8920 N   0  0  0  0  0  0  0  0  0  0  0  0
   38.1370   23.3090   36.5670 C   0  0  0  0  0  0  0  0  0  0  0  0
   38.5150   24.1000   37.4890 O   0  0  0  0  0  0  0  0  0  0  0  0
   38.7400   22.4400   33.4060 H   0  0  0  0  0  0  0  0  0  0  0  0
   36.8880   20.8820   33.9060 H   0  0  0  0  0  0  0  0  0  0  0  0
   36.6580   22.4690   37.8250 H   0  0  0  0  0  0  0  0  0  0  0  0
   37.4410   26.7610   35.3890 C   0  0  2  0  0  3  0  0  0  0  0  0
   38.0990   25.9810   34.3140 C   0  0  1  0  0  3  0  0  0  0  0  0
   38.0750   26.8890   33.1290 C   0  0  0  0  0  3  0  0  0  0  0  0
   37.7730   26.3310   32.1960 H   0  0  0  0  0  0  0  0  0  0  0  0
   37.1250   27.8630   33.3380 O   0  0  0  0  0  0  0  0  0  0  0  0
   36.8990   27.9770   34.6910 C   0  0  0  0  0  3  0  0  0  0  0  0
   37.3720   28.8960   35.1200 H   0  0  0  0  0  0  0  0  0  0  0  0
   38.3660   27.1300   36.3520 O   0  0  0  0  0  0  0  0  0  0  0  0
   38.1660   28.0610   36.6390 H   0  0  0  0  0  0  0  0  0  0  0  0
  1  2  1  0  0  0  0
  2  9  1  0  0  0  0
  2  3  2  0  0  0  0
  3  7  1  0  0  0  0
  4  3  1  0  0  0  0
  5  4  2  0  0  0  0
  6  1  2  0  0  0  0
  6  5  1  0  0  0  0
  8  5  1  0  0  0  0
  9 15  1  0  0  0  0
 10 11  2  0  0  0  0
 10  9  1  0  0  0  0
 11 12  1  0  0  0  0
 12 13  2  0  0  0  0
 12 14  1  0  0  0  0
 14 19  1  0  0  0  0
 15 14  1  0  0  0  0
 15 16  2  0  0  0  0
 17 10  1  0  0  0  0
 18 11  1  0  0  0  0
 20 27  1  1  0  0  0
 21  1  1  1  0  0  0
 21 20  1  0  0  0  0
 22 24  1  0  0  0  0
 22 21  1  0  0  0  0
 23 22  1  0  0  0  0
 24 25  1  0  0  0  0
 25 26  1  0  0  0  0
 25 20  1  0  0  0  0
 27 28  1  0  0  0  0
M  END
>  <minimizedAffinity>
-4.97529268

$$$$

 OpenBabel03272507513D

 28 30  0  0  1  0  0  0  0  0999 V2000
   37.1360   26.3560   32.5010 C   0  0  0  0  0  0  0  0  0  0  0  0
   36.0590   26.7500   31.6890 C   0  0  0  0  0  0  0  0  0  0  0  0
   35.3470   25.7410   31.0510 C   0  0  0  0  0  0  0  0  0  0  0  0
   35.7090   24.4540   31.2320 N   0  0  0  0  0  0  0  0  0  0  0  0
   36.7560   24.1080   32.0240 C   0  0  0  0  0  0  0  0  0  0  0  0
   37.4830   25.0650   32.6690 N   0  0  0  0  0  0  0  0  0  0  0  0
   34.5130   26.0460   30.4220 H   0  0  0  0  0  0  0  0  0  0  0  0
   36.9410   23.0360   32.0830 H   0  0  0  0  0  0  0  0  0  0  0  0
   35.7740   28.1310   31.5760 N   0  0  0  0  0  0  0  0  0  0  0  0
   34.9900   28.7810   32.4390 C   0  0  0  0  0  0  0  0  0  0  0  0
   34.7360   30.1460   32.2930 C   0  0  0  0  0  0  0  0  0  0  0  0
   35.3660   30.7130   31.1960 C   0  0  0  0  0  0  0  0  0  0  0  0
   35.1380   31.9570   31.0580 O   0  0  0  0  0  0  0  0  0  0  0  0
   36.1550   30.1020   30.3090 N   0  0  0  0  0  0  0  0  0  0  0  0
   36.3450   28.7840   30.5300 C   0  0  0  0  0  0  0  0  0  0  0  0
   37.0950   28.1910   29.6910 O   0  0  0  0  0  0  0  0  0  0  0  0
   34.5200   28.2830   33.2740 H   0  0  0  0  0  0  0  0  0  0  0  0
   34.1180   30.7010   32.9580 H   0  0  0  0  0  0  0  0  0  0  0  0
   36.5810   30.6250   29.5160 H   0  0  0  0  0  0  0  0  0  0  0  0
   37.7100   27.3700   34.7080 C   0  0  2  0  0  3  0  0  0  0  0  0
   38.0190   27.2730   33.2620 C   0  0  1  0  0  3  0  0  0  0  0  0
   39.4550   26.8700   33.2150 C   0  0  0  0  0  3  0  0  0  0  0  0
   40.0180   27.4640   32.4370 H   0  0  0  0  0  0  0  0  0  0  0  0
   40.0330   27.1530   34.4310 O   0  0  0  0  0  0  0  0  0  0  0  0
   39.0430   27.2220   35.3850 C   0  0  0  0  0  3  0  0  0  0  0  0
   39.0300   26.3160   36.0430 H   0  0  0  0  0  0  0  0  0  0  0  0
   36.8590   26.3460   35.0890 O   0  0  0  0  0  0  0  0  0  0  0  0
   37.1490   26.0110   35.9800 H   0  0  0  0  0  0  0  0  0  0  0  0
  1  6  1  0  0  0  0
  2  1  2  0  0  0  0
  3  4  2  0  0  0  0
  3  2  1  0  0  0  0
  4  5  1  0  0  0  0
  5  8  1  0  0  0  0
  5  6  2  0  0  0  0
  7  3  1  0  0  0  0
  9  2  1  0  0  0  0
  9 10  1  0  0  0  0
 10 17  1  0  0  0  0
 11 10  2  0  0  0  0
 11 18  1  0  0  0  0
 12 11  1  0  0  0  0
 13 12  2  0  0  0  0
 14 15  1  0  0  0  0
 14 12  1  0  0  0  0
 15  9  1  0  0  0  0
 16 15  2  0  0  0  0
 19 14  1  0  0  0  0
 20 27  1  1  0  0  0
 20 25  1  0  0  0  0
 21  1  1  1  0  0  0
 21 20  1  0  0  0  0
 22 21  1  0  0  0  0
 22 24  1  0  0  0  0
 23 22  1  0  0  0  0
 24 25  1  0  0  0  0
 25 26  1  0  0  0  0
 27 28  1  0  0  0  0
M  END
>  <minimizedAffinity>
-4.91211653

$$$$

 OpenBabel03272507513D

 28 30  0  0  1  0  0  0  0  0999 V2000
   36.3700   26.6270   31.7230 C   0  0  0  0  0  0  0  0  0  0  0  0
   37.3770   25.6920   32.0160 C   0  0  0  0  0  0  0  0  0  0  0  0
   37.0910   24.3550   31.7630 C   0  0  0  0  0  0  0  0  0  0  0  0
   35.8870   24.0160   31.2590 N   0  0  0  0  0  0  0  0  0  0  0  0
   34.9360   24.9450   30.9870 C   0  0  0  0  0  0  0  0  0  0  0  0
   35.1720   26.2690   31.2200 N   0  0  0  0  0  0  0  0  0  0  0  0
   37.8720   23.6310   31.9910 H   0  0  0  0  0  0  0  0  0  0  0  0
   34.0090   24.5360   30.5840 H   0  0  0  0  0  0  0  0  0  0  0  0
   38.6010   26.1670   32.5430 N   0  0  0  0  0  0  0  0  0  0  0  0
   38.8270   26.2850   33.8540 C   0  0  0  0  0  0  0  0  0  0  0  0
   40.0490   26.7570   34.3340 C   0  0  0  0  0  0  0  0  0  0  0  0
   40.9540   27.0720   33.3310 C   0  0  0  0  0  0  0  0  0  0  0  0
   42.0710   27.5020   33.7630 O   0  0  0  0  0  0  0  0  0  0  0  0
   40.7710   26.9710   32.0130 N   0  0  0  0  0  0  0  0  0  0  0  0
   39.5590   26.5050   31.6410 C   0  0  0  0  0  0  0  0  0  0  0  0
   39.3720   26.4050   30.3870 O   0  0  0  0  0  0  0  0  0  0  0  0
   38.0790   26.0290   34.5890 H   0  0  0  0  0  0  0  0  0  0  0  0
   40.2700   26.8660   35.3690 H   0  0  0  0  0  0  0  0  0  0  0  0
   41.5220   27.2360   31.3410 H   0  0  0  0  0  0  0  0  0  0  0  0
   36.8510   28.8550   30.7100 C   0  0  2  0  0  3  0  0  0  0  0  0
   36.4740   28.0920   31.9230 C   0  0  1  0  0  3  0  0  0  0  0  0
   35.1900   28.7120   32.3660 C   0  0  0  0  0  3  0  0  0  0  0  0
   35.1790   28.8680   33.4840 H   0  0  0  0  0  0  0  0  0  0  0  0
   35.0760   29.9540   31.7860 O   0  0  0  0  0  0  0  0  0  0  0  0
   35.8700   29.9930   30.6630 C   0  0  0  0  0  3  0  0  0  0  0  0
   35.2690   29.9300   29.7210 H   0  0  0  0  0  0  0  0  0  0  0  0
   36.7240   28.0620   29.5810 O   0  0  0  0  0  0  0  0  0  0  0  0
   36.3410   28.6150   28.8490 H   0  0  0  0  0  0  0  0  0  0  0  0
  1  2  1  0  0  0  0
  2  9  1  0  0  0  0
  3  7  1  0  0  0  0
  3  2  2  0  0  0  0
  4  3  1  0  0  0  0
  5  6  1  0  0  0  0
  5  4  2  0  0  0  0
  6  1  2  0  0  0  0
  8  5  1  0  0  0  0
  9 10  1  0  0  0  0
 10 11  2  0  0  0  0
 10 17  1  0  0  0  0
 11 18  1  0  0  0  0
 12 13  2  0  0  0  0
 12 11  1  0  0  0  0
 14 12  1  0  0  0  0
 15 14  1  0  0  0  0
 15  9  1  0  0  0  0
 16 15  2  0  0  0  0
 19 14  1  0  0  0  0
 20 27  1  6  0  0  0
 20 21  1  0  0  0  0
 21  1  1  6  0  0  0
 21 22  1  0  0  0  0
 22 23  1  0  0  0  0
 24 22  1  0  0  0  0
 25 20  1  0  0  0  0
 25 24  1  0  0  0  0
 26 25  1  0  0  0  0
 28 27  1  0  0  0  0
M  END
>  <minimizedAffinity>
-4.74597597

$$$$

 OpenBabel03272507513D

 28 30  0  0  1  0  0  0  0  0999 V2000
   39.3510   24.0780   34.8670 C   0  0  0  0  0  0  0  0  0  0  0  0
   39.3560   24.1540   33.4640 C   0  0  0  0  0  0  0  0  0  0  0  0
   40.5920   24.0860   32.8320 C   0  0  0  0  0  0  0  0  0  0  0  0
   41.7120   23.9520   33.5720 N   0  0  0  0  0  0  0  0  0  0  0  0
   41.6720   23.8810   34.9270 C   0  0  0  0  0  0  0  0  0  0  0  0
   40.4800   23.9440   35.5900 N   0  0  0  0  0  0  0  0  0  0  0  0
   40.5950   24.1450   31.7450 H   0  0  0  0  0  0  0  0  0  0  0  0
   42.6470   23.7730   35.4010 H   0  0  0  0  0  0  0  0  0  0  0  0
   38.1170   24.2950   32.7960 N   0  0  0  0  0  0  0  0  0  0  0  0
   37.3970   23.2510   32.3800 C   0  0  0  0  0  0  0  0  0  0  0  0
   36.1770   23.4320   31.7260 C   0  0  0  0  0  0  0  0  0  0  0  0
   35.8240   24.7640   31.5700 C   0  0  0  0  0  0  0  0  0  0  0  0
   34.7130   24.9360   30.9740 O   0  0  0  0  0  0  0  0  0  0  0  0
   36.5120   25.8370   31.9680 N   0  0  0  0  0  0  0  0  0  0  0  0
   37.6790   25.5650   32.5920 C   0  0  0  0  0  0  0  0  0  0  0  0
   38.3440   26.5790   32.9760 O   0  0  0  0  0  0  0  0  0  0  0  0
   37.7270   22.2330   32.5250 H   0  0  0  0  0  0  0  0  0  0  0  0
   35.5730   22.6280   31.3790 H   0  0  0  0  0  0  0  0  0  0  0  0
   36.1550   26.8000   31.8000 H   0  0  0  0  0  0  0  0  0  0  0  0
   37.6890   22.8210   36.2390 C   0  0  2  0  0  3  0  0  0  0  0  0
   38.1440   24.1350   35.7270 C   0  0  1  0  0  3  0  0  0  0  0  0
   38.3410   24.9630   36.9520 C   0  0  0  0  0  3  0  0  0  0  0  0
   37.9180   26.0000   36.8140 H   0  0  0  0  0  0  0  0  0  0  0  0
   37.6510   24.3840   37.9930 O   0  0  0  0  0  0  0  0  0  0  0  0
   37.4540   23.0530   37.7060 C   0  0  0  0  0  3  0  0  0  0  0  0
   38.1310   22.3900   38.3020 H   0  0  0  0  0  0  0  0  0  0  0  0
   38.6720   21.8630   36.0540 O   0  0  0  0  0  0  0  0  0  0  0  0
   38.6990   21.2800   36.8590 H   0  0  0  0  0  0  0  0  0  0  0  0
  1  6  1  0  0  0  0
  2  1  2  0  0  0  0
  3  2  1  0  0  0  0
  3  4  2  0  0  0  0
  4  5  1  0  0  0  0
  5  8  1  0  0  0  0
  5  6  2  0  0  0  0
  7  3  1  0  0  0  0
  9  2  1  0  0  0  0
 10 17  1  0  0  0  0
 10  9  1  0  0  0  0
 11 10  2  0  0  0  0
 12 11  1  0  0  0  0
 12 14  1  0  0  0  0
 13 12  2  0  0  0  0
 14 15  1  0  0  0  0
 15  9  1  0  0  0  0
 15 16  2  0  0  0  0
 18 11  1  0  0  0  0
 19 14  1  0  0  0  0
 20 27  1  1  0  0  0
 20 25  1  0  0  0  0
 21  1  1  1  0  0  0
 21 20  1  0  0  0  0
 21 22  1  0  0  0  0
 22 24  1  0  0  0  0
 23 22  1  0  0  0  0
 25 24  1  0  0  0  0
 25 26  1  0  0  0  0
 27 28  1  0  0  0  0
M  END
>  <minimizedAffinity>
-4.64492035

$$$$

 OpenBabel03272507513D

 28 30  0  0  1  0  0  0  0  0999 V2000
   37.4920   23.6470   32.9610 C   0  0  0  0  0  0  0  0  0  0  0  0
   37.7840   22.3600   33.4430 C   0  0  0  0  0  0  0  0  0  0  0  0
   37.0820   21.3000   32.8800 C   0  0  0  0  0  0  0  0  0  0  0  0
   36.1710   21.5430   31.9160 N   0  0  0  0  0  0  0  0  0  0  0  0
   35.9130   22.7990   31.4720 C   0  0  0  0  0  0  0  0  0  0  0  0
   36.5780   23.8700   31.9960 N   0  0  0  0  0  0  0  0  0  0  0  0
   37.3080   20.3040   33.2540 H   0  0  0  0  0  0  0  0  0  0  0  0
   35.1560   22.8550   30.6910 H   0  0  0  0  0  0  0  0  0  0  0  0
   38.7590   22.2300   34.4590 N   0  0  0  0  0  0  0  0  0  0  0  0
   40.0690   22.1780   34.2020 C   0  0  0  0  0  0  0  0  0  0  0  0
   41.0000   22.0510   35.2330 C   0  0  0  0  0  0  0  0  0  0  0  0
   40.4260   21.9890   36.4940 C   0  0  0  0  0  0  0  0  0  0  0  0
   41.2710   21.8740   37.4390 O   0  0  0  0  0  0  0  0  0  0  0  0
   39.1270   22.0360   36.7970 N   0  0  0  0  0  0  0  0  0  0  0  0
   38.3000   22.1600   35.7360 C   0  0  0  0  0  0  0  0  0  0  0  0
   37.0600   22.2050   36.0110 O   0  0  0  0  0  0  0  0  0  0  0  0
   40.4570   22.2250   33.1960 H   0  0  0  0  0  0  0  0  0  0  0  0
   42.0510   22.0060   35.0710 H   0  0  0  0  0  0  0  0  0  0  0  0
   38.8000   21.9810   37.7840 H   0  0  0  0  0  0  0  0  0  0  0  0
   39.2380   25.3880   32.5810 C   0  0  2  0  0  3  0  0  0  0  0  0
   38.1240   24.9040   33.4290 C   0  0  1  0  0  3  0  0  0  0  0  0
   37.1700   26.0510   33.4800 C   0  0  0  0  0  3  0  0  0  0  0  0
   36.7850   26.2130   34.5280 H   0  0  0  0  0  0  0  0  0  0  0  0
   37.8390   27.1980   33.1180 O   0  0  0  0  0  0  0  0  0  0  0  0
   38.9460   26.8490   32.3790 C   0  0  0  0  0  3  0  0  0  0  0  0
   38.8050   27.0540   31.2880 H   0  0  0  0  0  0  0  0  0  0  0  0
   39.2440   24.7250   31.3650 O   0  0  0  0  0  0  0  0  0  0  0  0
   39.4600   25.3810   30.6500 H   0  0  0  0  0  0  0  0  0  0  0  0
  1  2  1  0  0  0  0
  2  9  1  0  0  0  0
  3  7  1  0  0  0  0
  3  2  2  0  0  0  0
  4  3  1  0  0  0  0
  5  4  2  0  0  0  0
  5  6  1  0  0  0  0
  6  1  2  0  0  0  0
  8  5  1  0  0  0  0
  9 15  1  0  0  0  0
 10  9  1  0  0  0  0
 10 11  2  0  0  0  0
 11 12  1  0  0  0  0
 12 14  1  0  0  0  0
 12 13  2  0  0  0  0
 14 19  1  0  0  0  0
 15 16  2  0  0  0  0
 15 14  1  0  0  0  0
 17 10  1  0  0  0  0
 18 11  1  0  0  0  0
 20 27  1  6  0  0  0
 20 21  1  0  0  0  0
 21  1  1  6  0  0  0
 21 22  1  0  0  0  0
 22 23  1  0  0  0  0
 24 22  1  0  0  0  0
 25 20  1  0  0  0  0
 25 24  1  0  0  0  0
 26 25  1  0  0  0  0
 28 27  1  0  0  0  0
M  END
>  <minimizedAffinity>
-4.54659939

$$$$

 OpenBabel03272507513D

 28 30  0  0  1  0  0  0  0  0999 V2000
   39.4520   25.6190   33.0120 C   0  0  0  0  0  0  0  0  0  0  0  0
   39.9790   25.8030   34.3020 C   0  0  0  0  0  0  0  0  0  0  0  0
   41.0020   26.7330   34.4400 C   0  0  0  0  0  0  0  0  0  0  0  0
   41.4400   27.4070   33.3560 N   0  0  0  0  0  0  0  0  0  0  0  0
   40.9090   27.2060   32.1240 C   0  0  0  0  0  0  0  0  0  0  0  0
   39.9020   26.3020   31.9410 N   0  0  0  0  0  0  0  0  0  0  0  0
   41.4100   26.8750   35.4390 H   0  0  0  0  0  0  0  0  0  0  0  0
   41.3530   27.8150   31.3370 H   0  0  0  0  0  0  0  0  0  0  0  0
   39.4390   25.0370   35.3610 N   0  0  0  0  0  0  0  0  0  0  0  0
   39.9050   23.8310   35.6930 C   0  0  0  0  0  0  0  0  0  0  0  0
   39.3460   23.1080   36.7480 C   0  0  0  0  0  0  0  0  0  0  0  0
   38.2990   23.7640   37.3760 C   0  0  0  0  0  0  0  0  0  0  0  0
   37.7850   23.1100   38.3390 O   0  0  0  0  0  0  0  0  0  0  0  0
   37.8010   24.9670   37.0780 N   0  0  0  0  0  0  0  0  0  0  0  0
   38.4040   25.5920   36.0450 C   0  0  0  0  0  0  0  0  0  0  0  0
   37.9380   26.7380   35.7510 O   0  0  0  0  0  0  0  0  0  0  0  0
   40.7220   23.3660   35.1610 H   0  0  0  0  0  0  0  0  0  0  0  0
   39.6880   22.1450   37.0440 H   0  0  0  0  0  0  0  0  0  0  0  0
   37.0070   25.3710   37.6180 H   0  0  0  0  0  0  0  0  0  0  0  0
   37.0040   25.2640   32.6880 C   0  0  2  0  0  3  0  0  0  0  0  0
   38.3640   24.6780   32.6540 C   0  0  1  0  0  3  0  0  0  0  0  0
   38.4990   24.1320   31.2710 C   0  0  0  0  0  3  0  0  0  0  0  0
   38.9690   23.1060   31.2830 H   0  0  0  0  0  0  0  0  0  0  0  0
   37.2430   23.9910   30.7280 O   0  0  0  0  0  0  0  0  0  0  0  0
   36.3760   24.8280   31.3930 C   0  0  0  0  0  3  0  0  0  0  0  0
   36.1120   25.7290   30.7840 H   0  0  0  0  0  0  0  0  0  0  0  0
   37.0750   26.6460   32.7480 O   0  0  0  0  0  0  0  0  0  0  0  0
   36.3660   27.0230   32.1620 H   0  0  0  0  0  0  0  0  0  0  0  0
  1  2  1  0  0  0  0
  2  3  2  0  0  0  0
  2  9  1  0  0  0  0
  3  7  1  0  0  0  0
  4  3  1  0  0  0  0
  5  4  2  0  0  0  0
  6  5  1  0  0  0  0
  6  1  2  0  0  0  0
  8  5  1  0  0  0  0
  9 10  1  0  0  0  0
  9 15  1  0  0  0  0
 10 11  2  0  0  0  0
 11 18  1  0  0  0  0
 11 12  1  0  0  0  0
 12 13  2  0  0  0  0
 14 12  1  0  0  0  0
 14 19  1  0  0  0  0
 15 14  1  0  0  0  0
 16 15  2  0  0  0  0
 17 10  1  0  0  0  0
 20 27  1  6  0  0  0
 21 20  1  0  0  0  0
 21  1  1  6  0  0  0
 22 23  1  0  0  0  0
 22 21  1  0  0  0  0
 24 22  1  0  0  0  0
 24 25  1  0  0  0  0
 25 20  1  0  0  0  0
 26 25  1  0  0  0  0
 28 27  1  0  0  0  0
M  END
>  <minimizedAffinity>
-4.52360392

$$$$

 OpenBabel03272507513D

 28 30  0  0  1  0  0  0  0  0999 V2000
   38.7070   23.3870   34.8470 C   0  0  0  0  0  0  0  0  0  0  0  0
   39.9830   23.7090   35.3400 C   0  0  0  0  0  0  0  0  0  0  0  0
   40.3600   25.0460   35.2900 C   0  0  0  0  0  0  0  0  0  0  0  0
   39.5080   25.9600   34.7810 N   0  0  0  0  0  0  0  0  0  0  0  0
   38.2820   25.6140   34.3130 C   0  0  0  0  0  0  0  0  0  0  0  0
   37.8690   24.3140   34.3420 N   0  0  0  0  0  0  0  0  0  0  0  0
   41.3490   25.2950   35.6720 H   0  0  0  0  0  0  0  0  0  0  0  0
   37.6950   26.4490   33.9300 H   0  0  0  0  0  0  0  0  0  0  0  0
   40.7890   22.6640   35.8490 N   0  0  0  0  0  0  0  0  0  0  0  0
   41.6680   21.9970   35.0980 C   0  0  0  0  0  0  0  0  0  0  0  0
   42.4460   20.9730   35.6390 C   0  0  0  0  0  0  0  0  0  0  0  0
   42.2050   20.7450   36.9850 C   0  0  0  0  0  0  0  0  0  0  0  0
   42.9120   19.8130   37.4840 O   0  0  0  0  0  0  0  0  0  0  0  0
   41.3380   21.3860   37.7730 N   0  0  0  0  0  0  0  0  0  0  0  0
   40.6290   22.3600   37.1640 C   0  0  0  0  0  0  0  0  0  0  0  0
   39.7990   22.9770   37.9040 O   0  0  0  0  0  0  0  0  0  0  0  0
   41.8080   22.2160   34.0500 H   0  0  0  0  0  0  0  0  0  0  0  0
   43.1580   20.4180   35.0750 H   0  0  0  0  0  0  0  0  0  0  0  0
   41.2340   21.1340   38.7780 H   0  0  0  0  0  0  0  0  0  0  0  0
   37.2840   21.6810   35.9820 C   0  0  2  0  0  3  0  0  0  0  0  0
   38.1190   22.0260   34.8080 C   0  0  1  0  0  3  0  0  0  0  0  0
   37.2190   21.8150   33.6370 C   0  0  0  0  0  3  0  0  0  0  0  0
   37.7560   21.2750   32.8030 H   0  0  0  0  0  0  0  0  0  0  0  0
   36.1710   21.0110   34.0250 O   0  0  0  0  0  0  0  0  0  0  0  0
   36.0330   21.0940   35.3920 C   0  0  0  0  0  3  0  0  0  0  0  0
   35.1520   21.7170   35.6880 H   0  0  0  0  0  0  0  0  0  0  0  0
   36.9850   22.8180   36.7140 O   0  0  0  0  0  0  0  0  0  0  0  0
   36.0400   22.7580   37.0170 H   0  0  0  0  0  0  0  0  0  0  0  0
  1  2  1  0  0  0  0
  2  9  1  0  0  0  0
  3  2  2  0  0  0  0
  3  7  1  0  0  0  0
  4  3  1  0  0  0  0
  5  6  1  0  0  0  0
  5  4  2  0  0  0  0
  6  1  2  0  0  0  0
  8  5  1  0  0  0  0
  9 15  1  0  0  0  0
 10 11  2  0  0  0  0
 10  9  1  0  0  0  0
 11 12  1  0  0  0  0
 12 13  2  0  0  0  0
 12 14  1  0  0  0  0
 14 19  1  0  0  0  0
 15 14  1  0  0  0  0
 15 16  2  0  0  0  0
 17 10  1  0  0  0  0
 18 11  1  0  0  0  0
 20 27  1  6  0  0  0
 21  1  1  1  0  0  0
 21 20  1  0  0  0  0
 22 24  1  0  0  0  0
 22 21  1  0  0  0  0
 23 22  1  0  0  0  0
 24 25  1  0  0  0  0
 25 26  1  0  0  0  0
 25 20  1  0  0  0  0
 27 28  1  0  0  0  0
M  END
>  <minimizedAffinity>
-4.50936508

$$$$

 OpenBabel03272507513D

 28 30  0  0  1  0  0  0  0  0999 V2000
   38.4090   24.4940   33.6350 C   0  0  0  0  0  0  0  0  0  0  0  0
   38.6750   24.7140   34.9970 C   0  0  0  0  0  0  0  0  0  0  0  0
   38.0640   25.8120   35.5900 C   0  0  0  0  0  0  0  0  0  0  0  0
   37.2580   26.6040   34.8540 N   0  0  0  0  0  0  0  0  0  0  0  0
   37.0230   26.3630   33.5390 C   0  0  0  0  0  0  0  0  0  0  0  0
   37.6020   25.2970   32.9140 N   0  0  0  0  0  0  0  0  0  0  0  0
   38.2700   25.9820   36.6450 H   0  0  0  0  0  0  0  0  0  0  0  0
   36.3530   27.0790   33.0620 H   0  0  0  0  0  0  0  0  0  0  0  0
   39.5380   23.8140   35.6650 N   0  0  0  0  0  0  0  0  0  0  0  0
   40.8680   23.9260   35.6320 C   0  0  0  0  0  0  0  0  0  0  0  0
   41.6850   23.0190   36.3070 C   0  0  0  0  0  0  0  0  0  0  0  0
   40.9790   22.0350   36.9830 C   0  0  0  0  0  0  0  0  0  0  0  0
   41.7190   21.2040   37.6010 O   0  0  0  0  0  0  0  0  0  0  0  0
   39.6540   21.8840   37.0440 N   0  0  0  0  0  0  0  0  0  0  0  0
   38.9450   22.8080   36.3610 C   0  0  0  0  0  0  0  0  0  0  0  0
   37.6810   22.6750   36.4100 O   0  0  0  0  0  0  0  0  0  0  0  0
   41.3620   24.7130   35.0810 H   0  0  0  0  0  0  0  0  0  0  0  0
   42.7470   23.0730   36.3050 H   0  0  0  0  0  0  0  0  0  0  0  0
   39.2230   21.1050   37.5840 H   0  0  0  0  0  0  0  0  0  0  0  0
   38.1670   22.1360   32.8540 C   0  0  2  0  0  3  0  0  0  0  0  0
   38.9630   23.3860   32.8190 C   0  0  1  0  0  3  0  0  0  0  0  0
   39.0590   23.7230   31.3680 C   0  0  0  0  0  3  0  0  0  0  0  0
   40.1070   24.0410   31.0940 H   0  0  0  0  0  0  0  0  0  0  0  0
   38.7780   22.5950   30.6330 O   0  0  0  0  0  0  0  0  0  0  0  0
   38.0440   21.7310   31.4120 C   0  0  0  0  0  3  0  0  0  0  0  0
   36.9640   21.7160   31.1200 H   0  0  0  0  0  0  0  0  0  0  0  0
   36.9150   22.3750   33.3970 O   0  0  0  0  0  0  0  0  0  0  0  0
   36.2440   21.8550   32.8800 H   0  0  0  0  0  0  0  0  0  0  0  0
  1  2  1  0  0  0  0
  2  3  2  0  0  0  0
  2  9  1  0  0  0  0
  3  7  1  0  0  0  0
  4  3  1  0  0  0  0
  5  4  2  0  0  0  0
  6  5  1  0  0  0  0
  6  1  2  0  0  0  0
  8  5  1  0  0  0  0
  9 15  1  0  0  0  0
 10  9  1  0  0  0  0
 10 11  2  0  0  0  0
 11 12  1  0  0  0  0
 12 14  1  0  0  0  0
 12 13  2  0  0  0  0
 14 19  1  0  0  0  0
 15 16  2  0  0  0  0
 15 14  1  0  0  0  0
 17 10  1  0  0  0  0
 18 11  1  0  0  0  0
 20 27  1  6  0  0  0
 21 20  1  0  0  0  0
 21  1  1  1  0  0  0
 22 21  1  0  0  0  0
 23 22  1  0  0  0  0
 24 22  1  0  0  0  0
 24 25  1  0  0  0  0
 25 20  1  0  0  0  0
 26 25  1  0  0  0  0
 28 27  1  0  0  0  0
M  END
>  <minimizedAffinity>
-4.50168991

$$$$

 OpenBabel03272507513D

 28 30  0  0  1  0  0  0  0  0999 V2000
   39.7550   24.8550   34.7400 C   0  0  0  0  0  0  0  0  0  0  0  0
   39.8540   26.2020   34.3530 C   0  0  0  0  0  0  0  0  0  0  0  0
   41.1270   26.7600   34.3260 C   0  0  0  0  0  0  0  0  0  0  0  0
   42.1920   26.0040   34.6640 N   0  0  0  0  0  0  0  0  0  0  0  0
   42.0620   24.7050   35.0330 C   0  0  0  0  0  0  0  0  0  0  0  0
   40.8310   24.1160   35.0750 N   0  0  0  0  0  0  0  0  0  0  0  0
   41.2030   27.8030   34.0260 H   0  0  0  0  0  0  0  0  0  0  0  0
   43.0010   24.2100   35.2800 H   0  0  0  0  0  0  0  0  0  0  0  0
   38.6650   26.8930   34.0220 N   0  0  0  0  0  0  0  0  0  0  0  0
   38.2190   27.0060   32.7680 C   0  0  0  0  0  0  0  0  0  0  0  0
   37.0400   27.6950   32.4830 C   0  0  0  0  0  0  0  0  0  0  0  0
   36.4190   28.2210   33.6060 C   0  0  0  0  0  0  0  0  0  0  0  0
   35.3430   28.8500   33.3520 O   0  0  0  0  0  0  0  0  0  0  0  0
   36.8280   28.1330   34.8740 N   0  0  0  0  0  0  0  0  0  0  0  0
   37.9780   27.4490   35.0540 C   0  0  0  0  0  0  0  0  0  0  0  0
   38.3790   27.3580   36.2580 O   0  0  0  0  0  0  0  0  0  0  0  0
   38.7510   26.5800   31.9310 H   0  0  0  0  0  0  0  0  0  0  0  0
   36.6510   27.8080   31.4990 H   0  0  0  0  0  0  0  0  0  0  0  0
   36.2840   28.5670   35.6480 H   0  0  0  0  0  0  0  0  0  0  0  0
   38.1730   23.2740   33.6350 C   0  0  2  0  0  3  0  0  0  0  0  0
   38.4960   24.0780   34.8370 C   0  0  1  0  0  3  0  0  0  0  0  0
   38.5060   23.0890   35.9540 C   0  0  0  0  0  3  0  0  0  0  0  0
   37.9680   23.4930   36.8600 H   0  0  0  0  0  0  0  0  0  0  0  0
   37.8250   21.9630   35.5530 O   0  0  0  0  0  0  0  0  0  0  0  0
   37.8130   21.9190   34.1770 C   0  0  0  0  0  3  0  0  0  0  0  0
   38.5250   21.1550   33.7760 H   0  0  0  0  0  0  0  0  0  0  0  0
   39.2770   23.1830   32.8030 O   0  0  0  0  0  0  0  0  0  0  0  0
   39.3220   22.2580   32.4400 H   0  0  0  0  0  0  0  0  0  0  0  0
  1  6  1  0  0  0  0
  2  1  2  0  0  0  0
  3  2  1  0  0  0  0
  3  4  2  0  0  0  0
  4  5  1  0  0  0  0
  5  6  2  0  0  0  0
  5  8  1  0  0  0  0
  7  3  1  0  0  0  0
  9  2  1  0  0  0  0
  9 15  1  0  0  0  0
 10  9  1  0  0  0  0
 11 10  2  0  0  0  0
 11 12  1  0  0  0  0
 12 14  1  0  0  0  0
 13 12  2  0  0  0  0
 14 15  1  0  0  0  0
 14 19  1  0  0  0  0
 15 16  2  0  0  0  0
 17 10  1  0  0  0  0
 18 11  1  0  0  0  0
 20 27  1  6  0  0  0
 20 25  1  0  0  0  0
 20 21  1  0  0  0  0
 21  1  1  6  0  0  0
 21 22  1  0  0  0  0
 22 23  1  0  0  0  0
 24 22  1  0  0  0  0
 25 24  1  0  0  0  0
 26 25  1  0  0  0  0
 28 27  1  0  0  0  0
M  END
>  <minimizedAffinity>
-4.49599218

$$$$
