
 OpenBabel03272506353D

 19 20  0  0  1  0  0  0  0  0999 V2000
   39.1740   23.1750   37.7140 C   0  0  0  0  0  0  0  0  0  0  0  0
   40.3640   22.5050   37.4410 C   0  0  0  0  0  0  0  0  0  0  0  0
   41.0920   22.8690   36.3010 C   0  0  0  0  0  0  0  0  0  0  0  0
   40.6000   23.8590   35.5160 N   0  0  0  0  0  0  0  0  0  0  0  0
   39.4270   24.5050   35.8060 C   0  0  0  0  0  0  0  0  0  0  0  0
   38.7360   24.1500   36.9020 N   0  0  0  0  0  0  0  0  0  0  0  0
   40.8260   21.7130   38.0040 H   0  0  0  0  0  0  0  0  0  0  0  0
   42.0240   22.3860   36.0340 H   0  0  0  0  0  0  0  0  0  0  0  0
   38.0450   26.5460   35.7510 C   0  0  2  0  0  3  0  0  0  0  0  0
   38.8960   25.5870   34.9440 C   0  0  2  0  0  3  0  0  0  0  0  0
   37.8190   25.0490   33.9910 C   0  0  0  0  0  3  0  0  0  0  0  0
   37.0750   24.5120   34.5760 H   0  0  0  0  0  0  0  0  0  0  0  0
   37.2630   26.2470   33.5590 O   0  0  0  0  0  0  0  0  0  0  0  0
   37.1030   27.0540   34.6690 C   0  0  0  0  0  3  0  0  0  0  0  0
   37.4530   28.1030   34.4440 H   0  0  0  0  0  0  0  0  0  0  0  0
   38.7810   27.5660   36.3400 O   0  0  0  0  0  0  0  0  0  0  0  0
   38.1510   27.9730   37.0150 H   0  0  0  0  0  0  0  0  0  0  0  0
   38.5590   22.7160   38.8710 O   0  0  0  0  0  0  0  0  0  0  0  0
   38.8500   22.9870   39.7970 H   0  0  0  0  0  0  0  0  0  0  0  0
  1 18  1  0  0  0  0
  2  1  1  0  0  0  0
  2  7  1  0  0  0  0
  3  2  2  0  0  0  0
  4  5  2  0  0  0  0
  4  3  1  0  0  0  0
  5  6  1  0  0  0  0
  6  1  2  0  0  0  0
  8  3  1  0  0  0  0
  9 16  1  6  0  0  0
 10  9  1  0  0  0  0
 10  5  1  1  0  0  0
 11 12  1  0  0  0  0
 11 10  1  0  0  0  0
 13 11  1  0  0  0  0
 13 14  1  0  0  0  0
 14  9  1  0  0  0  0
 15 14  1  0  0  0  0
 16 17  1  0  0  0  0
 18 19  1  0  0  0  0
M  END
>  <minimizedAffinity>
-4.70802116

$$$$

 OpenBabel03272506353D

 19 20  0  0  1  0  0  0  0  0999 V2000
   39.5340   22.8080   37.2120 C   0  0  0  0  0  0  0  0  0  0  0  0
   38.8170   23.0280   38.3860 C   0  0  0  0  0  0  0  0  0  0  0  0
   38.0270   24.1810   38.4820 C   0  0  0  0  0  0  0  0  0  0  0  0
   37.9990   25.0280   37.4240 N   0  0  0  0  0  0  0  0  0  0  0  0
   38.7120   24.7890   36.2790 C   0  0  0  0  0  0  0  0  0  0  0  0
   39.4670   23.6820   36.1960 N   0  0  0  0  0  0  0  0  0  0  0  0
   38.7810   22.4140   39.2680 H   0  0  0  0  0  0  0  0  0  0  0  0
   37.4460   24.4090   39.3670 H   0  0  0  0  0  0  0  0  0  0  0  0
   37.8060   26.9210   35.4350 C   0  0  2  0  0  3  0  0  0  0  0  0
   38.6770   25.7210   35.1260 C   0  0  2  0  0  3  0  0  0  0  0  0
   37.8660   25.1250   33.9660 C   0  0  0  0  0  3  0  0  0  0  0  0
   36.8950   24.8150   34.3450 H   0  0  0  0  0  0  0  0  0  0  0  0
   37.6960   26.2620   33.1860 O   0  0  0  0  0  0  0  0  0  0  0  0
   37.3510   27.2980   34.0330 C   0  0  0  0  0  3  0  0  0  0  0  0
   37.9360   28.2270   33.7730 H   0  0  0  0  0  0  0  0  0  0  0  0
   38.4970   27.9490   36.0650 O   0  0  0  0  0  0  0  0  0  0  0  0
   37.7740   28.5600   36.4150 H   0  0  0  0  0  0  0  0  0  0  0  0
   40.2720   21.6310   37.2520 O   0  0  0  0  0  0  0  0  0  0  0  0
   39.8670   20.7210   37.1020 H   0  0  0  0  0  0  0  0  0  0  0  0
  1 18  1  0  0  0  0
  1  2  1  0  0  0  0
  2  3  2  0  0  0  0
  2  7  1  0  0  0  0
  3  8  1  0  0  0  0
  4  3  1  0  0  0  0
  5  4  2  0  0  0  0
  6  5  1  0  0  0  0
  6  1  2  0  0  0  0
  9 16  1  6  0  0  0
 10  9  1  0  0  0  0
 10  5  1  1  0  0  0
 11 12  1  0  0  0  0
 11 10  1  0  0  0  0
 13 11  1  0  0  0  0
 13 14  1  0  0  0  0
 14  9  1  0  0  0  0
 15 14  1  0  0  0  0
 16 17  1  0  0  0  0
 19 18  1  0  0  0  0
M  END
>  <minimizedAffinity>
-4.56272888

$$$$

 OpenBabel03272506353D

 19 20  0  0  1  0  0  0  0  0999 V2000
   38.4830   26.3970   35.8410 C   0  0  0  0  0  0  0  0  0  0  0  0
   37.8080   26.5000   34.6270 C   0  0  0  0  0  0  0  0  0  0  0  0
   37.6360   25.3420   33.8560 C   0  0  0  0  0  0  0  0  0  0  0  0
   38.1360   24.1760   34.3330 N   0  0  0  0  0  0  0  0  0  0  0  0
   38.7950   24.1000   35.5310 C   0  0  0  0  0  0  0  0  0  0  0  0
   38.9550   25.2140   36.2630 N   0  0  0  0  0  0  0  0  0  0  0  0
   37.3820   27.3770   34.1750 H   0  0  0  0  0  0  0  0  0  0  0  0
   37.1210   25.3560   32.9040 H   0  0  0  0  0  0  0  0  0  0  0  0
   39.8490   22.9860   37.4620 C   0  0  2  0  0  3  0  0  0  0  0  0
   39.3390   22.8200   36.0450 C   0  0  2  0  0  3  0  0  0  0  0  0
   40.6630   22.4690   35.3510 C   0  0  0  0  0  3  0  0  0  0  0  0
   41.3320   23.3240   35.4260 H   0  0  0  0  0  0  0  0  0  0  0  0
   41.1200   21.4700   36.2010 O   0  0  0  0  0  0  0  0  0  0  0  0
   40.9190   21.9050   37.4970 C   0  0  0  0  0  3  0  0  0  0  0  0
   40.4790   21.0760   38.1240 H   0  0  0  0  0  0  0  0  0  0  0  0
   38.8650   22.7930   38.4230 O   0  0  0  0  0  0  0  0  0  0  0  0
   39.2690   23.1570   39.2730 H   0  0  0  0  0  0  0  0  0  0  0  0
   38.5800   27.6170   36.5000 O   0  0  0  0  0  0  0  0  0  0  0  0
   37.8230   28.0220   37.0260 H   0  0  0  0  0  0  0  0  0  0  0  0
  1  6  1  0  0  0  0
  1 18  1  0  0  0  0
  2  1  2  0  0  0  0
  3  4  2  0  0  0  0
  3  2  1  0  0  0  0
  4  5  1  0  0  0  0
  5  6  2  0  0  0  0
  7  2  1  0  0  0  0
  8  3  1  0  0  0  0
  9 14  1  0  0  0  0
  9 16  1  1  0  0  0
 10  5  1  6  0  0  0
 10  9  1  0  0  0  0
 11 12  1  0  0  0  0
 11 10  1  0  0  0  0
 11 13  1  0  0  0  0
 13 14  1  0  0  0  0
 14 15  1  0  0  0  0
 16 17  1  0  0  0  0
 18 19  1  0  0  0  0
M  END
>  <minimizedAffinity>
-4.2542057

$$$$

 OpenBabel03272506353D

 19 20  0  0  1  0  0  0  0  0999 V2000
   39.7310   22.8130   37.5160 C   0  0  0  0  0  0  0  0  0  0  0  0
   38.8010   23.2580   38.4520 C   0  0  0  0  0  0  0  0  0  0  0  0
   37.9610   24.3250   38.1070 C   0  0  0  0  0  0  0  0  0  0  0  0
   38.0970   24.8750   36.8750 N   0  0  0  0  0  0  0  0  0  0  0  0
   39.0200   24.4190   35.9710 C   0  0  0  0  0  0  0  0  0  0  0  0
   39.8200   23.3950   36.3100 N   0  0  0  0  0  0  0  0  0  0  0  0
   38.6250   22.8840   39.4440 H   0  0  0  0  0  0  0  0  0  0  0  0
   37.2180   24.7160   38.7900 H   0  0  0  0  0  0  0  0  0  0  0  0
   37.8140   25.1440   33.9460 C   0  0  2  0  0  3  0  0  0  0  0  0
   39.1630   25.0260   34.6260 C   0  0  2  0  0  3  0  0  0  0  0  0
   39.8390   24.0490   33.6530 C   0  0  0  0  0  3  0  0  0  0  0  0
   39.3030   23.1020   33.6840 H   0  0  0  0  0  0  0  0  0  0  0  0
   39.5580   24.6800   32.4480 O   0  0  0  0  0  0  0  0  0  0  0  0
   38.2350   25.0760   32.4860 C   0  0  0  0  0  3  0  0  0  0  0  0
   38.1320   26.1320   32.1010 H   0  0  0  0  0  0  0  0  0  0  0  0
   37.1490   26.3240   34.2550 O   0  0  0  0  0  0  0  0  0  0  0  0
   36.2020   26.1690   33.9420 H   0  0  0  0  0  0  0  0  0  0  0  0
   40.4940   21.7520   37.9870 O   0  0  0  0  0  0  0  0  0  0  0  0
   40.1610   20.8010   38.0140 H   0  0  0  0  0  0  0  0  0  0  0  0
  1 18  1  0  0  0  0
  1  2  1  0  0  0  0
  2  7  1  0  0  0  0
  3  2  2  0  0  0  0
  3  8  1  0  0  0  0
  4  3  1  0  0  0  0
  5  6  1  0  0  0  0
  5  4  2  0  0  0  0
  6  1  2  0  0  0  0
  9 16  1  6  0  0  0
  9 10  1  0  0  0  0
 10  5  1  1  0  0  0
 11 12  1  0  0  0  0
 11 10  1  0  0  0  0
 13 14  1  0  0  0  0
 13 11  1  0  0  0  0
 14  9  1  0  0  0  0
 15 14  1  0  0  0  0
 17 16  1  0  0  0  0
 18 19  1  0  0  0  0
M  END
>  <minimizedAffinity>
-4.20232201

$$$$

 OpenBabel03272506353D

 19 20  0  0  1  0  0  0  0  0999 V2000
   39.7870   22.7950   37.4790 C   0  0  0  0  0  0  0  0  0  0  0  0
   38.7510   23.1430   38.3440 C   0  0  0  0  0  0  0  0  0  0  0  0
   37.9370   24.2330   38.0090 C   0  0  0  0  0  0  0  0  0  0  0  0
   38.1980   24.8980   36.8570 N   0  0  0  0  0  0  0  0  0  0  0  0
   39.2220   24.5360   36.0230 C   0  0  0  0  0  0  0  0  0  0  0  0
   39.9970   23.4890   36.3500 N   0  0  0  0  0  0  0  0  0  0  0  0
   38.4740   22.6750   39.2710 H   0  0  0  0  0  0  0  0  0  0  0  0
   37.1160   24.5530   38.6390 H   0  0  0  0  0  0  0  0  0  0  0  0
   40.9560   25.6870   34.7000 C   0  0  2  0  0  3  0  0  0  0  0  0
   39.5020   25.2680   34.7640 C   0  0  2  0  0  3  0  0  0  0  0  0
   38.8490   26.6580   34.7820 C   0  0  0  0  0  3  0  0  0  0  0  0
   39.1480   27.1690   35.6950 H   0  0  0  0  0  0  0  0  0  0  0  0
   39.5080   27.2450   33.7090 O   0  0  0  0  0  0  0  0  0  0  0  0
   40.8470   26.9220   33.8180 C   0  0  0  0  0  3  0  0  0  0  0  0
   41.2560   26.6050   32.8150 H   0  0  0  0  0  0  0  0  0  0  0  0
   41.7810   24.7120   34.1530 O   0  0  0  0  0  0  0  0  0  0  0  0
   42.7160   25.0160   34.3850 H   0  0  0  0  0  0  0  0  0  0  0  0
   40.5110   21.6990   37.9310 O   0  0  0  0  0  0  0  0  0  0  0  0
   40.1930   20.7480   37.8320 H   0  0  0  0  0  0  0  0  0  0  0  0
  1 18  1  0  0  0  0
  1  2  1  0  0  0  0
  2  7  1  0  0  0  0
  3  2  2  0  0  0  0
  3  8  1  0  0  0  0
  4  3  1  0  0  0  0
  5  6  1  0  0  0  0
  5  4  2  0  0  0  0
  6  1  2  0  0  0  0
  9 16  1  6  0  0  0
  9 10  1  0  0  0  0
 10 11  1  0  0  0  0
 10  5  1  1  0  0  0
 11 12  1  0  0  0  0
 13 14  1  0  0  0  0
 13 11  1  0  0  0  0
 14  9  1  0  0  0  0
 15 14  1  0  0  0  0
 16 17  1  0  0  0  0
 19 18  1  0  0  0  0
M  END
>  <minimizedAffinity>
-4.18387175

$$$$

 OpenBabel03272506353D

 19 20  0  0  1  0  0  0  0  0999 V2000
   42.2870   20.8620   37.3160 C   0  0  0  0  0  0  0  0  0  0  0  0
   43.2820   21.1290   36.3790 C   0  0  0  0  0  0  0  0  0  0  0  0
   43.1320   22.2420   35.5400 C   0  0  0  0  0  0  0  0  0  0  0  0
   42.0220   23.0060   35.6830 N   0  0  0  0  0  0  0  0  0  0  0  0
   41.0560   22.7240   36.6140 C   0  0  0  0  0  0  0  0  0  0  0  0
   41.2090   21.6560   37.4140 N   0  0  0  0  0  0  0  0  0  0  0  0
   44.1890   20.5810   36.1980 H   0  0  0  0  0  0  0  0  0  0  0  0
   43.8700   22.5020   34.7920 H   0  0  0  0  0  0  0  0  0  0  0  0
   38.9160   22.9840   37.8110 C   0  0  2  0  0  3  0  0  0  0  0  0
   39.8450   23.5650   36.7640 C   0  0  2  0  0  3  0  0  0  0  0  0
   38.9340   23.4370   35.5350 C   0  0  0  0  0  3  0  0  0  0  0  0
   38.7480   22.3820   35.3480 H   0  0  0  0  0  0  0  0  0  0  0  0
   37.7720   24.0100   36.0380 O   0  0  0  0  0  0  0  0  0  0  0  0
   37.5780   23.5030   37.3080 C   0  0  0  0  0  3  0  0  0  0  0  0
   37.2970   24.3320   38.0210 H   0  0  0  0  0  0  0  0  0  0  0  0
   39.2070   23.4170   39.0980 O   0  0  0  0  0  0  0  0  0  0  0  0
   38.6890   22.7910   39.6970 H   0  0  0  0  0  0  0  0  0  0  0  0
   42.5630   19.7350   38.0790 O   0  0  0  0  0  0  0  0  0  0  0  0
   43.2060   19.7370   38.8550 H   0  0  0  0  0  0  0  0  0  0  0  0
  1  6  1  0  0  0  0
  1 18  1  0  0  0  0
  2  1  2  0  0  0  0
  3  4  2  0  0  0  0
  3  2  1  0  0  0  0
  4  5  1  0  0  0  0
  5  6  2  0  0  0  0
  7  2  1  0  0  0  0
  8  3  1  0  0  0  0
  9 16  1  1  0  0  0
 10  5  1  6  0  0  0
 10  9  1  0  0  0  0
 11 13  1  0  0  0  0
 11 10  1  0  0  0  0
 12 11  1  0  0  0  0
 13 14  1  0  0  0  0
 14  9  1  0  0  0  0
 14 15  1  0  0  0  0
 16 17  1  0  0  0  0
 18 19  1  0  0  0  0
M  END
>  <minimizedAffinity>
-4.16897488

$$$$

 OpenBabel03272506353D

 19 20  0  0  1  0  0  0  0  0999 V2000
   36.3500   27.8370   31.2590 C   0  0  0  0  0  0  0  0  0  0  0  0
   35.7880   29.0680   31.5890 C   0  0  0  0  0  0  0  0  0  0  0  0
   35.7530   29.4500   32.9370 C   0  0  0  0  0  0  0  0  0  0  0  0
   36.2680   28.5970   33.8560 N   0  0  0  0  0  0  0  0  0  0  0  0
   36.8160   27.3910   33.5070 C   0  0  0  0  0  0  0  0  0  0  0  0
   36.8470   27.0350   32.2130 N   0  0  0  0  0  0  0  0  0  0  0  0
   35.3590   29.8020   30.9300 H   0  0  0  0  0  0  0  0  0  0  0  0
   35.3300   30.3930   33.2570 H   0  0  0  0  0  0  0  0  0  0  0  0
   38.7040   26.9810   35.0390 C   0  0  2  0  0  3  0  0  0  0  0  0
   37.3780   26.4650   34.5200 C   0  0  2  0  0  3  0  0  0  0  0  0
   37.8640   25.1650   33.8630 C   0  0  0  0  0  3  0  0  0  0  0  0
   38.5310   25.4190   33.0420 H   0  0  0  0  0  0  0  0  0  0  0  0
   38.6190   24.6400   34.9030 O   0  0  0  0  0  0  0  0  0  0  0  0
   39.3740   25.6710   35.4280 C   0  0  0  0  0  3  0  0  0  0  0  0
   39.3380   25.6470   36.5560 H   0  0  0  0  0  0  0  0  0  0  0  0
   38.5690   27.8510   36.1130 O   0  0  0  0  0  0  0  0  0  0  0  0
   39.4750   28.2870   36.1990 H   0  0  0  0  0  0  0  0  0  0  0  0
   36.3210   27.5880   29.8930 O   0  0  0  0  0  0  0  0  0  0  0  0
   36.9780   27.9910   29.2440 H   0  0  0  0  0  0  0  0  0  0  0  0
  1  2  2  0  0  0  0
  1  6  1  0  0  0  0
  2  3  1  0  0  0  0
  3  8  1  0  0  0  0
  3  4  2  0  0  0  0
  5  4  1  0  0  0  0
  6  5  2  0  0  0  0
  7  2  1  0  0  0  0
  9 14  1  0  0  0  0
  9 16  1  1  0  0  0
 10  5  1  6  0  0  0
 10  9  1  0  0  0  0
 11 10  1  0  0  0  0
 11 13  1  0  0  0  0
 12 11  1  0  0  0  0
 13 14  1  0  0  0  0
 14 15  1  0  0  0  0
 16 17  1  0  0  0  0
 18  1  1  0  0  0  0
 19 18  1  0  0  0  0
M  END
>  <minimizedAffinity>
-4.11196041

$$$$

 OpenBabel03272506353D

 19 20  0  0  1  0  0  0  0  0999 V2000
   38.0400   27.2590   35.2340 C   0  0  0  0  0  0  0  0  0  0  0  0
   38.3400   25.9270   34.9590 C   0  0  0  0  0  0  0  0  0  0  0  0
   37.8000   25.3420   33.8060 C   0  0  0  0  0  0  0  0  0  0  0  0
   37.0080   26.1040   33.0130 N   0  0  0  0  0  0  0  0  0  0  0  0
   36.7270   27.4130   33.3040 C   0  0  0  0  0  0  0  0  0  0  0  0
   37.2500   27.9660   34.4110 N   0  0  0  0  0  0  0  0  0  0  0  0
   38.9550   25.2520   35.5280 H   0  0  0  0  0  0  0  0  0  0  0  0
   37.9960   24.3120   33.5370 H   0  0  0  0  0  0  0  0  0  0  0  0
   36.5260   28.4850   31.0920 C   0  0  2  0  0  3  0  0  0  0  0  0
   35.8600   28.2410   32.4310 C   0  0  2  0  0  3  0  0  0  0  0  0
   35.7950   29.6880   32.9380 C   0  0  0  0  0  3  0  0  0  0  0  0
   36.8100   30.0560   33.0690 H   0  0  0  0  0  0  0  0  0  0  0  0
   35.2390   30.3060   31.8240 O   0  0  0  0  0  0  0  0  0  0  0  0
   35.8920   29.8140   30.7100 C   0  0  0  0  0  3  0  0  0  0  0  0
   35.1470   29.5620   29.9000 H   0  0  0  0  0  0  0  0  0  0  0  0
   36.2690   27.4840   30.1640 O   0  0  0  0  0  0  0  0  0  0  0  0
   36.9410   27.6450   29.4290 H   0  0  0  0  0  0  0  0  0  0  0  0
   38.6410   27.7090   36.4030 O   0  0  0  0  0  0  0  0  0  0  0  0
   39.6090   27.9820   36.4560 H   0  0  0  0  0  0  0  0  0  0  0  0
  1 18  1  0  0  0  0
  2  1  1  0  0  0  0
  2  7  1  0  0  0  0
  3  2  2  0  0  0  0
  4  5  2  0  0  0  0
  4  3  1  0  0  0  0
  5  6  1  0  0  0  0
  6  1  2  0  0  0  0
  8  3  1  0  0  0  0
  9 16  1  6  0  0  0
  9 10  1  0  0  0  0
 10 11  1  0  0  0  0
 10  5  1  1  0  0  0
 11 12  1  0  0  0  0
 13 11  1  0  0  0  0
 14  9  1  0  0  0  0
 14 13  1  0  0  0  0
 15 14  1  0  0  0  0
 17 16  1  0  0  0  0
 18 19  1  0  0  0  0
M  END
>  <minimizedAffinity>
-4.01363373

$$$$

 OpenBabel03272506353D

 19 20  0  0  1  0  0  0  0  0999 V2000
   36.2340   24.5130   31.3560 C   0  0  0  0  0  0  0  0  0  0  0  0
   37.3820   24.7730   32.1000 C   0  0  0  0  0  0  0  0  0  0  0  0
   37.8540   23.7850   32.9740 C   0  0  0  0  0  0  0  0  0  0  0  0
   37.1660   22.6190   33.0530 N   0  0  0  0  0  0  0  0  0  0  0  0
   36.0390   22.3860   32.3100 C   0  0  0  0  0  0  0  0  0  0  0  0
   35.5950   23.3380   31.4740 N   0  0  0  0  0  0  0  0  0  0  0  0
   37.9870   25.6630   32.1010 H   0  0  0  0  0  0  0  0  0  0  0  0
   38.7400   23.9270   33.5790 H   0  0  0  0  0  0  0  0  0  0  0  0
   35.8980   20.2080   33.4590 C   0  0  2  0  0  3  0  0  0  0  0  0
   35.2920   21.1080   32.4010 C   0  0  2  0  0  3  0  0  0  0  0  0
   35.5470   20.2350   31.1650 C   0  0  0  0  0  3  0  0  0  0  0  0
   36.6220   20.1370   31.0240 H   0  0  0  0  0  0  0  0  0  0  0  0
   35.0480   19.0210   31.6220 O   0  0  0  0  0  0  0  0  0  0  0  0
   35.5120   18.8430   32.9120 C   0  0  0  0  0  3  0  0  0  0  0  0
   34.6780   18.4830   33.5810 H   0  0  0  0  0  0  0  0  0  0  0  0
   35.3860   20.4380   34.7300 O   0  0  0  0  0  0  0  0  0  0  0  0
   36.0250   19.9590   35.3480 H   0  0  0  0  0  0  0  0  0  0  0  0
   35.8810   25.5740   30.5330 O   0  0  0  0  0  0  0  0  0  0  0  0
   36.3330   25.7640   29.6520 H   0  0  0  0  0  0  0  0  0  0  0  0
  1  6  2  0  0  0  0
  1  2  1  0  0  0  0
  2  7  1  0  0  0  0
  2  3  2  0  0  0  0
  3  4  1  0  0  0  0
  3  8  1  0  0  0  0
  5  4  2  0  0  0  0
  6  5  1  0  0  0  0
  9 16  1  1  0  0  0
 10  5  1  6  0  0  0
 10  9  1  0  0  0  0
 11 13  1  0  0  0  0
 11 10  1  0  0  0  0
 12 11  1  0  0  0  0
 13 14  1  0  0  0  0
 14  9  1  0  0  0  0
 14 15  1  0  0  0  0
 16 17  1  0  0  0  0
 18  1  1  0  0  0  0
 19 18  1  0  0  0  0
M  END
>  <minimizedAffinity>
-3.9490993

$$$$
