
 OpenBabel03272504023D

 41 44  0  0  1  0  0  0  0  0999 V2000
   34.3760   29.4410   48.3070 C   0  0  0  0  0  0  0  0  0  0  0  0
   33.6930   30.3390   48.2880 H   0  0  0  0  0  0  0  0  0  0  0  0
   33.9770   28.7820   49.0710 H   0  0  0  0  0  0  0  0  0  0  0  0
   35.7090   29.9710   48.6360 C   0  0  0  0  0  0  0  0  0  0  0  0
   36.5320   29.3700   49.5990 C   0  0  0  0  0  0  0  0  0  0  0  0
   37.6850   30.1010   49.6620 C   0  0  0  0  0  0  0  0  0  0  0  0
   37.5730   31.1030   48.7790 N   0  0  0  0  0  0  0  0  0  0  0  0
   36.4000   30.9930   48.1960 N   0  0  0  0  0  0  0  0  0  0  0  0
   36.3170   28.4900   50.1960 H   0  0  0  0  0  0  0  0  0  0  0  0
   38.5690   29.9700   50.2750 H   0  0  0  0  0  0  0  0  0  0  0  0
   38.4500   32.1550   48.4200 C   0  0  0  0  0  0  0  0  0  0  0  0
   38.6550   33.1250   49.3650 C   0  0  0  0  0  0  0  0  0  0  0  0
   39.4860   34.2340   49.1860 C   0  0  0  0  0  0  0  0  0  0  0  0
   40.1250   34.3160   47.9510 C   0  0  0  0  0  0  0  0  0  0  0  0
   39.9310   33.3550   46.9920 C   0  0  0  0  0  0  0  0  0  0  0  0
   39.1030   32.2700   47.1970 C   0  0  0  0  0  0  0  0  0  0  0  0
   38.1750   33.0920   50.3380 H   0  0  0  0  0  0  0  0  0  0  0  0
   39.6290   34.9840   49.9530 H   0  0  0  0  0  0  0  0  0  0  0  0
   40.7810   35.1340   47.7250 H   0  0  0  0  0  0  0  0  0  0  0  0
   40.3820   33.3360   46.0070 H   0  0  0  0  0  0  0  0  0  0  0  0
   38.9050   31.4850   46.5010 H   0  0  0  0  0  0  0  0  0  0  0  0
   34.2980   28.8120   46.9650 C   0  0  0  0  0  0  0  0  0  0  0  0
   35.2310   28.2010   46.8390 H   0  0  0  0  0  0  0  0  0  0  0  0
   33.4840   28.0420   47.0050 H   0  0  0  0  0  0  0  0  0  0  0  0
   34.0160   29.6650   45.8430 C   0  0  0  0  0  0  0  0  0  0  0  0
   32.7740   30.1970   45.6590 C   0  0  0  0  0  0  0  0  0  0  0  0
   32.5000   31.0350   44.5550 C   0  0  0  0  0  0  0  0  0  0  0  0
   33.5550   31.2700   43.6980 N   0  0  0  0  0  0  0  0  0  0  0  0
   34.7690   30.7230   43.9180 C   0  0  0  0  0  0  0  0  0  0  0  0
   34.9760   29.9300   44.9880 N   0  0  0  0  0  0  0  0  0  0  0  0
   31.9560   29.9950   46.3520 H   0  0  0  0  0  0  0  0  0  0  0  0
   31.5170   31.4580   44.4060 H   0  0  0  0  0  0  0  0  0  0  0  0
   36.3560   32.4290   43.0080 C   0  0  2  0  0  3  0  0  0  0  0  0
   35.8940   30.9970   42.9700 C   0  0  1  0  0  3  0  0  0  0  0  0
   37.1050   30.2380   43.4370 C   0  0  0  0  0  3  0  0  0  0  0  0
   36.9510   29.8360   44.4720 H   0  0  0  0  0  0  0  0  0  0  0  0
   38.1560   31.1640   43.4740 O   0  0  0  0  0  0  0  0  0  0  0  0
   37.5450   32.3440   43.9250 C   0  0  0  0  0  3  0  0  0  0  0  0
   37.2370   32.2640   44.9810 H   0  0  0  0  0  0  0  0  0  0  0  0
   35.4050   33.3280   43.4250 O   0  0  0  0  0  0  0  0  0  0  0  0
   35.1600   34.0030   42.7210 H   0  0  0  0  0  0  0  0  0  0  0  0
  1  4  1  0  0  0  0
  1  3  1  0  0  0  0
  2  1  1  0  0  0  0
  4  5  1  0  0  0  0
  5  6  2  0  0  0  0
  5  9  1  0  0  0  0
  6 10  1  0  0  0  0
  7  6  1  0  0  0  0
  8  4  2  0  0  0  0
  8  7  1  0  0  0  0
 11  7  1  0  0  0  0
 11 12  1  0  0  0  0
 12 17  1  0  0  0  0
 13 12  2  0  0  0  0
 13 18  1  0  0  0  0
 14 13  1  0  0  0  0
 15 16  1  0  0  0  0
 15 14  2  0  0  0  0
 16 11  2  0  0  0  0
 19 14  1  0  0  0  0
 20 15  1  0  0  0  0
 21 16  1  0  0  0  0
 22 24  1  0  0  0  0
 22  1  1  0  0  0  0
 23 22  1  0  0  0  0
 25 22  1  0  0  0  0
 26 25  1  0  0  0  0
 26 31  1  0  0  0  0
 27 26  2  0  0  0  0
 28 29  2  0  0  0  0
 28 27  1  0  0  0  0
 29 30  1  0  0  0  0
 30 25  2  0  0  0  0
 32 27  1  0  0  0  0
 33 40  1  1  0  0  0
 33 38  1  0  0  0  0
 34 33  1  0  0  0  0
 34 35  1  0  0  0  0
 34 29  1  1  0  0  0
 35 37  1  0  0  0  0
 35 36  1  0  0  0  0
 37 38  1  0  0  0  0
 38 39  1  0  0  0  0
 41 40  1  0  0  0  0
M  END
>  <minimizedAffinity>
-6.15479088

>  <minimizedRMSD>
0.551716506

$$$$
