
 OpenBabel03262520533D

 25 27  0  0  1  0  0  0  0  0999 V2000
   38.2620   25.1710   33.6430 C   0  0  2  0  0  0  0  0  0  0  0  0
   39.3910   24.2410   33.4270 C   0  0  0  0  0  0  0  0  0  0  0  0
   38.3670   23.9790   34.5010 C   0  0  1  0  0  0  0  0  0  0  0  0
   38.4890   26.1770   34.0560 H   0  0  0  0  0  0  0  0  0  0  0  0
   39.3320   23.6820   32.4600 H   0  0  0  0  0  0  0  0  0  0  0  0
   40.3800   24.6400   33.6290 H   0  0  0  0  0  0  0  0  0  0  0  0
   37.6770   23.1280   34.2190 H   0  0  0  0  0  0  0  0  0  0  0  0
   35.6430   26.4790   31.3380 C   0  0  0  0  0  0  0  0  0  0  0  0
   35.1080   25.2940   30.8220 C   0  0  0  0  0  0  0  0  0  0  0  0
   35.6390   24.0500   31.2680 C   0  0  0  0  0  0  0  0  0  0  0  0
   36.6380   24.0770   32.1720 N   0  0  0  0  0  0  0  0  0  0  0  0
   37.1380   25.2450   32.6560 C   0  0  0  0  0  0  0  0  0  0  0  0
   36.6540   26.4430   32.2510 N   0  0  0  0  0  0  0  0  0  0  0  0
   35.2810   27.4530   31.0370 H   0  0  0  0  0  0  0  0  0  0  0  0
   34.3190   25.3150   30.1100 H   0  0  0  0  0  0  0  0  0  0  0  0
   35.2470   23.1130   30.8900 H   0  0  0  0  0  0  0  0  0  0  0  0
   38.3850   22.8530   36.7690 C   0  0  2  0  0  3  0  0  0  0  0  0
   38.7660   24.0360   35.9280 C   0  0  2  0  0  3  0  0  0  0  0  0
   37.9650   25.1190   36.6560 C   0  0  0  0  0  3  0  0  0  0  0  0
   36.9090   24.9880   36.3600 H   0  0  0  0  0  0  0  0  0  0  0  0
   38.1630   24.8270   37.9950 O   0  0  0  0  0  0  0  0  0  0  0  0
   38.3800   23.4780   38.1510 C   0  0  0  0  0  3  0  0  0  0  0  0
   37.5620   23.0620   38.7810 H   0  0  0  0  0  0  0  0  0  0  0  0
   39.2970   21.8450   36.6070 O   0  0  0  0  0  0  0  0  0  0  0  0
   39.7510   21.5450   37.4340 H   0  0  0  0  0  0  0  0  0  0  0  0
  1  4  1  1  0  0  0
  1  3  1  0  0  0  0
  2  6  1  0  0  0  0
  2  1  1  0  0  0  0
  2  3  1  0  0  0  0
  3  7  1  6  0  0  0
  3 18  1  0  0  0  0
  5  2  1  0  0  0  0
  8 13  1  0  0  0  0
  9 10  1  0  0  0  0
  9  8  2  0  0  0  0
 10 11  2  0  0  0  0
 11 12  1  0  0  0  0
 12  1  1  0  0  0  0
 13 12  2  0  0  0  0
 14  8  1  0  0  0  0
 15  9  1  0  0  0  0
 16 10  1  0  0  0  0
 17 24  1  1  0  0  0
 17 22  1  0  0  0  0
 18 19  1  1  0  0  0
 18 17  1  0  0  0  0
 19 21  1  0  0  0  0
 20 19  1  0  0  0  0
 21 22  1  0  0  0  0
 22 23  1  0  0  0  0
 24 25  1  0  0  0  0
M  END
>  <minimizedAffinity>
-4.43498564

$$$$

 OpenBabel03262520533D

 25 27  0  0  1  0  0  0  0  0999 V2000
   38.1580   22.9000   34.1020 C   0  0  2  0  0  0  0  0  0  0  0  0
   39.5130   22.3250   34.2580 C   0  0  0  0  0  0  0  0  0  0  0  0
   38.5710   22.4190   35.4320 C   0  0  1  0  0  0  0  0  0  0  0  0
   38.0760   23.9890   33.9040 H   0  0  0  0  0  0  0  0  0  0  0  0
   39.6460   21.3460   33.7350 H   0  0  0  0  0  0  0  0  0  0  0  0
   40.3400   23.0100   34.0990 H   0  0  0  0  0  0  0  0  0  0  0  0
   38.1620   21.4050   35.7190 H   0  0  0  0  0  0  0  0  0  0  0  0
   35.4540   20.4710   33.2830 C   0  0  0  0  0  0  0  0  0  0  0  0
   35.1320   20.8420   31.9740 C   0  0  0  0  0  0  0  0  0  0  0  0
   35.8450   21.9180   31.3700 C   0  0  0  0  0  0  0  0  0  0  0  0
   36.8020   22.5290   32.0970 N   0  0  0  0  0  0  0  0  0  0  0  0
   37.0920   22.1460   33.3690 C   0  0  0  0  0  0  0  0  0  0  0  0
   36.4320   21.1270   33.9690 N   0  0  0  0  0  0  0  0  0  0  0  0
   34.9470   19.6630   33.7930 H   0  0  0  0  0  0  0  0  0  0  0  0
   34.3710   20.3350   31.4330 H   0  0  0  0  0  0  0  0  0  0  0  0
   35.6220   22.2310   30.3570 H   0  0  0  0  0  0  0  0  0  0  0  0
   39.0050   22.6840   37.9120 C   0  0  2  0  0  3  0  0  0  0  0  0
   38.8930   23.3250   36.5610 C   0  0  2  0  0  3  0  0  0  0  0  0
   37.7130   24.2630   36.8360 C   0  0  0  0  0  3  0  0  0  0  0  0
   36.8030   23.6370   36.8420 H   0  0  0  0  0  0  0  0  0  0  0  0
   37.9910   24.7780   38.0900 O   0  0  0  0  0  0  0  0  0  0  0  0
   38.7280   23.8710   38.8140 C   0  0  0  0  0  3  0  0  0  0  0  0
   38.1370   23.5730   39.7080 H   0  0  0  0  0  0  0  0  0  0  0  0
   40.2470   22.1310   38.0710 O   0  0  0  0  0  0  0  0  0  0  0  0
   40.7710   22.4710   38.8380 H   0  0  0  0  0  0  0  0  0  0  0  0
  1  4  1  6  0  0  0
  1  2  1  0  0  0  0
  1  3  1  0  0  0  0
  2  3  1  0  0  0  0
  3  7  1  1  0  0  0
  3 18  1  0  0  0  0
  5  2  1  0  0  0  0
  6  2  1  0  0  0  0
  8 14  1  0  0  0  0
  8 13  1  0  0  0  0
  9  8  2  0  0  0  0
 10  9  1  0  0  0  0
 10 11  2  0  0  0  0
 11 12  1  0  0  0  0
 12 13  2  0  0  0  0
 12  1  1  0  0  0  0
 15  9  1  0  0  0  0
 16 10  1  0  0  0  0
 17 24  1  1  0  0  0
 17 22  1  0  0  0  0
 18 19  1  1  0  0  0
 18 17  1  0  0  0  0
 19 20  1  0  0  0  0
 19 21  1  0  0  0  0
 21 22  1  0  0  0  0
 22 23  1  0  0  0  0
 24 25  1  0  0  0  0
M  END
>  <minimizedAffinity>
-4.38234282

$$$$

 OpenBabel03262520533D

 25 27  0  0  1  0  0  0  0  0999 V2000
   38.1610   22.8940   33.9830 C   0  0  2  0  0  0  0  0  0  0  0  0
   39.4670   22.2520   34.2490 C   0  0  0  0  0  0  0  0  0  0  0  0
   38.4780   22.4870   35.3630 C   0  0  1  0  0  0  0  0  0  0  0  0
   38.1570   23.9700   33.7070 H   0  0  0  0  0  0  0  0  0  0  0  0
   39.5630   21.2320   33.8030 H   0  0  0  0  0  0  0  0  0  0  0  0
   40.3420   22.8730   34.0870 H   0  0  0  0  0  0  0  0  0  0  0  0
   37.9920   21.5220   35.6970 H   0  0  0  0  0  0  0  0  0  0  0  0
   35.8300   21.7500   31.3110 C   0  0  0  0  0  0  0  0  0  0  0  0
   35.1310   20.7320   31.9670 C   0  0  0  0  0  0  0  0  0  0  0  0
   35.4520   20.4430   33.3250 C   0  0  0  0  0  0  0  0  0  0  0  0
   36.4220   21.1710   33.9130 N   0  0  0  0  0  0  0  0  0  0  0  0
   37.0860   22.1550   33.2490 C   0  0  0  0  0  0  0  0  0  0  0  0
   36.8030   22.4520   31.9590 N   0  0  0  0  0  0  0  0  0  0  0  0
   35.6310   22.0140   30.2810 H   0  0  0  0  0  0  0  0  0  0  0  0
   34.3720   20.1810   31.4680 H   0  0  0  0  0  0  0  0  0  0  0  0
   34.9290   19.6620   33.8630 H   0  0  0  0  0  0  0  0  0  0  0  0
   38.7190   22.9250   37.8450 C   0  0  2  0  0  3  0  0  0  0  0  0
   38.8020   23.4510   36.4420 C   0  0  2  0  0  3  0  0  0  0  0  0
   37.7190   24.5310   36.5250 C   0  0  0  0  0  3  0  0  0  0  0  0
   36.7450   24.0110   36.4920 H   0  0  0  0  0  0  0  0  0  0  0  0
   37.9430   25.1240   37.7550 O   0  0  0  0  0  0  0  0  0  0  0  0
   38.5040   24.2110   38.6180 C   0  0  0  0  0  3  0  0  0  0  0  0
   37.8050   24.0600   39.4710 H   0  0  0  0  0  0  0  0  0  0  0  0
   39.8700   22.2570   38.1670 O   0  0  0  0  0  0  0  0  0  0  0  0
   40.3600   22.6070   38.9520 H   0  0  0  0  0  0  0  0  0  0  0  0
  1  4  1  6  0  0  0
  1  2  1  0  0  0  0
  1  3  1  0  0  0  0
  2  3  1  0  0  0  0
  3  7  1  1  0  0  0
  3 18  1  0  0  0  0
  5  2  1  0  0  0  0
  6  2  1  0  0  0  0
  8 13  2  0  0  0  0
  8  9  1  0  0  0  0
  9 10  2  0  0  0  0
 10 16  1  0  0  0  0
 10 11  1  0  0  0  0
 12 11  2  0  0  0  0
 12  1  1  0  0  0  0
 13 12  1  0  0  0  0
 14  8  1  0  0  0  0
 15  9  1  0  0  0  0
 17 24  1  1  0  0  0
 17 22  1  0  0  0  0
 18 19  1  1  0  0  0
 18 17  1  0  0  0  0
 19 21  1  0  0  0  0
 20 19  1  0  0  0  0
 21 22  1  0  0  0  0
 22 23  1  0  0  0  0
 24 25  1  0  0  0  0
M  END
>  <minimizedAffinity>
-4.32444668

$$$$

 OpenBabel03262520533D

 25 27  0  0  1  0  0  0  0  0999 V2000
   38.7340   22.9310   35.6230 C   0  0  2  0  0  0  0  0  0  0  0  0
   38.5710   23.6100   36.9270 C   0  0  0  0  0  0  0  0  0  0  0  0
   38.5690   24.3950   35.6400 C   0  0  1  0  0  0  0  0  0  0  0  0
   39.7240   22.4860   35.3890 H   0  0  0  0  0  0  0  0  0  0  0  0
   37.6010   23.3790   37.4330 H   0  0  0  0  0  0  0  0  0  0  0  0
   39.4240   23.5630   37.5970 H   0  0  0  0  0  0  0  0  0  0  0  0
   37.5310   24.7590   35.3760 H   0  0  0  0  0  0  0  0  0  0  0  0
   36.5450   21.0810   33.2430 C   0  0  0  0  0  0  0  0  0  0  0  0
   35.6000   20.5210   34.1090 C   0  0  0  0  0  0  0  0  0  0  0  0
   35.7100   20.7830   35.5060 C   0  0  0  0  0  0  0  0  0  0  0  0
   36.7260   21.5630   35.9250 N   0  0  0  0  0  0  0  0  0  0  0  0
   37.6300   22.0940   35.0580 C   0  0  0  0  0  0  0  0  0  0  0  0
   37.5520   21.8630   33.7260 N   0  0  0  0  0  0  0  0  0  0  0  0
   36.5130   20.9180   32.1740 H   0  0  0  0  0  0  0  0  0  0  0  0
   34.8130   19.9110   33.7390 H   0  0  0  0  0  0  0  0  0  0  0  0
   34.9940   20.3660   36.2040 H   0  0  0  0  0  0  0  0  0  0  0  0
   39.2670   26.7340   34.9670 C   0  0  2  0  0  3  0  0  0  0  0  0
   39.6730   25.3420   35.3550 C   0  0  2  0  0  3  0  0  0  0  0  0
   40.3970   24.9350   34.0680 C   0  0  0  0  0  3  0  0  0  0  0  0
   39.6170   24.7190   33.3170 H   0  0  0  0  0  0  0  0  0  0  0  0
   41.1320   26.0600   33.7370 O   0  0  0  0  0  0  0  0  0  0  0  0
   40.4970   27.1870   34.2050 C   0  0  0  0  0  3  0  0  0  0  0  0
   40.2240   27.8230   33.3340 H   0  0  0  0  0  0  0  0  0  0  0  0
   38.9910   27.4730   36.0860 O   0  0  0  0  0  0  0  0  0  0  0  0
   39.5330   28.2940   36.1990 H   0  0  0  0  0  0  0  0  0  0  0  0
  1  4  1  6  0  0  0
  1  3  1  0  0  0  0
  1  2  1  0  0  0  0
  2  5  1  0  0  0  0
  2  6  1  0  0  0  0
  3  7  1  6  0  0  0
  3  2  1  0  0  0  0
  8 13  2  0  0  0  0
  8  9  1  0  0  0  0
  9 10  2  0  0  0  0
 10 11  1  0  0  0  0
 10 16  1  0  0  0  0
 12  1  1  0  0  0  0
 12 11  2  0  0  0  0
 13 12  1  0  0  0  0
 14  8  1  0  0  0  0
 15  9  1  0  0  0  0
 17 18  1  0  0  0  0
 17 24  1  1  0  0  0
 18 19  1  6  0  0  0
 18  3  1  0  0  0  0
 20 19  1  0  0  0  0
 21 19  1  0  0  0  0
 21 22  1  0  0  0  0
 22 17  1  0  0  0  0
 23 22  1  0  0  0  0
 24 25  1  0  0  0  0
M  END
>  <minimizedAffinity>
-4.27855444

$$$$

 OpenBabel03262520533D

 25 27  0  0  1  0  0  0  0  0999 V2000
   38.2440   24.2410   34.8500 C   0  0  2  0  0  0  0  0  0  0  0  0
   37.9580   24.4520   36.2860 C   0  0  0  0  0  0  0  0  0  0  0  0
   39.3380   24.0650   35.8200 C   0  0  1  0  0  0  0  0  0  0  0  0
   37.7910   23.3570   34.3540 H   0  0  0  0  0  0  0  0  0  0  0  0
   37.7430   25.5180   36.5480 H   0  0  0  0  0  0  0  0  0  0  0  0
   37.2620   23.7530   36.7380 H   0  0  0  0  0  0  0  0  0  0  0  0
   40.0590   24.9340   35.8870 H   0  0  0  0  0  0  0  0  0  0  0  0
   39.5050   27.0770   32.7880 C   0  0  0  0  0  0  0  0  0  0  0  0
   38.3360   27.4970   32.1450 C   0  0  0  0  0  0  0  0  0  0  0  0
   37.1160   26.8140   32.4230 C   0  0  0  0  0  0  0  0  0  0  0  0
   37.1510   25.7900   33.2990 N   0  0  0  0  0  0  0  0  0  0  0  0
   38.3040   25.4040   33.9080 C   0  0  0  0  0  0  0  0  0  0  0  0
   39.4770   26.0330   33.6640 N   0  0  0  0  0  0  0  0  0  0  0  0
   40.4600   27.5560   32.6160 H   0  0  0  0  0  0  0  0  0  0  0  0
   38.3490   28.3100   31.4610 H   0  0  0  0  0  0  0  0  0  0  0  0
   36.1920   27.1140   31.9440 H   0  0  0  0  0  0  0  0  0  0  0  0
   40.5460   22.6480   37.5360 C   0  0  2  0  0  3  0  0  0  0  0  0
   39.8940   22.7400   36.1880 C   0  0  2  0  0  3  0  0  0  0  0  0
   41.1060   22.4150   35.3100 C   0  0  0  0  0  3  0  0  0  0  0  0
   41.7400   23.3200   35.2930 H   0  0  0  0  0  0  0  0  0  0  0  0
   41.7210   21.3700   35.9760 O   0  0  0  0  0  0  0  0  0  0  0  0
   41.4670   21.4620   37.3250 C   0  0  0  0  0  3  0  0  0  0  0  0
   42.4360   21.6010   37.8550 H   0  0  0  0  0  0  0  0  0  0  0  0
   39.5990   22.4630   38.5070 O   0  0  0  0  0  0  0  0  0  0  0  0
   39.7020   21.6430   39.0520 H   0  0  0  0  0  0  0  0  0  0  0  0
  1  4  1  6  0  0  0
  1  3  1  0  0  0  0
  1  2  1  0  0  0  0
  2  5  1  0  0  0  0
  2  6  1  0  0  0  0
  3  7  1  1  0  0  0
  3 18  1  0  0  0  0
  3  2  1  0  0  0  0
  8 13  1  0  0  0  0
  9 10  1  0  0  0  0
  9  8  2  0  0  0  0
 10 11  2  0  0  0  0
 11 12  1  0  0  0  0
 12  1  1  0  0  0  0
 13 12  2  0  0  0  0
 14  8  1  0  0  0  0
 15  9  1  0  0  0  0
 16 10  1  0  0  0  0
 17 24  1  1  0  0  0
 18 19  1  6  0  0  0
 18 17  1  0  0  0  0
 19 21  1  0  0  0  0
 20 19  1  0  0  0  0
 21 22  1  0  0  0  0
 22 17  1  0  0  0  0
 22 23  1  0  0  0  0
 24 25  1  0  0  0  0
M  END
>  <minimizedAffinity>
-4.25371361

$$$$

 OpenBabel03262520533D

 25 27  0  0  1  0  0  0  0  0999 V2000
   39.1590   25.2830   34.6140 C   0  0  2  0  0  0  0  0  0  0  0  0
   39.4430   26.7330   34.5530 C   0  0  0  0  0  0  0  0  0  0  0  0
   38.0860   26.1940   34.1810 C   0  0  1  0  0  0  0  0  0  0  0  0
   39.6610   24.6220   33.8760 H   0  0  0  0  0  0  0  0  0  0  0  0
   39.5940   27.2020   35.5570 H   0  0  0  0  0  0  0  0  0  0  0  0
   40.1850   27.0400   33.8220 H   0  0  0  0  0  0  0  0  0  0  0  0
   37.3130   26.4300   34.9730 H   0  0  0  0  0  0  0  0  0  0  0  0
   37.9520   24.3150   38.0040 C   0  0  0  0  0  0  0  0  0  0  0  0
   38.8050   23.2500   38.3110 C   0  0  0  0  0  0  0  0  0  0  0  0
   39.7960   22.8690   37.3610 C   0  0  0  0  0  0  0  0  0  0  0  0
   39.8630   23.5590   36.2050 N   0  0  0  0  0  0  0  0  0  0  0  0
   39.0190   24.5900   35.9350 C   0  0  0  0  0  0  0  0  0  0  0  0
   38.0670   24.9750   36.8170 N   0  0  0  0  0  0  0  0  0  0  0  0
   37.1800   24.6490   38.6850 H   0  0  0  0  0  0  0  0  0  0  0  0
   38.7210   22.7300   39.2340 H   0  0  0  0  0  0  0  0  0  0  0  0
   40.4740   22.0490   37.5680 H   0  0  0  0  0  0  0  0  0  0  0  0
   36.4860   27.2420   32.5220 C   0  0  2  0  0  3  0  0  0  0  0  0
   37.6160   26.2890   32.7780 C   0  0  2  0  0  3  0  0  0  0  0  0
   36.9300   24.9840   32.3620 C   0  0  0  0  0  3  0  0  0  0  0  0
   36.2410   24.7100   33.1820 H   0  0  0  0  0  0  0  0  0  0  0  0
   36.2460   25.3270   31.2090 O   0  0  0  0  0  0  0  0  0  0  0  0
   35.9060   26.6600   31.2480 C   0  0  0  0  0  3  0  0  0  0  0  0
   34.7960   26.7390   31.2330 H   0  0  0  0  0  0  0  0  0  0  0  0
   36.9640   28.5180   32.3940 O   0  0  0  0  0  0  0  0  0  0  0  0
   36.7600   28.9660   31.5350 H   0  0  0  0  0  0  0  0  0  0  0  0
  1  4  1  6  0  0  0
  1 12  1  0  0  0  0
  2  1  1  0  0  0  0
  2  5  1  0  0  0  0
  3  2  1  0  0  0  0
  3  1  1  0  0  0  0
  3  7  1  1  0  0  0
  6  2  1  0  0  0  0
  8  9  1  0  0  0  0
  8 14  1  0  0  0  0
  9 15  1  0  0  0  0
 10 16  1  0  0  0  0
 10  9  2  0  0  0  0
 11 10  1  0  0  0  0
 12 11  2  0  0  0  0
 12 13  1  0  0  0  0
 13  8  2  0  0  0  0
 17 24  1  6  0  0  0
 17 18  1  0  0  0  0
 18 19  1  1  0  0  0
 18  3  1  0  0  0  0
 19 20  1  0  0  0  0
 21 22  1  0  0  0  0
 21 19  1  0  0  0  0
 22 17  1  0  0  0  0
 23 22  1  0  0  0  0
 25 24  1  0  0  0  0
M  END
>  <minimizedAffinity>
-4.23885393

$$$$

 OpenBabel03262520533D

 25 27  0  0  1  0  0  0  0  0999 V2000
   38.2240   26.3320   34.7010 C   0  0  2  0  0  0  0  0  0  0  0  0
   38.2730   27.4600   35.6580 C   0  0  0  0  0  0  0  0  0  0  0  0
   37.0590   27.2290   34.7940 C   0  0  1  0  0  0  0  0  0  0  0  0
   38.8900   26.3750   33.8130 H   0  0  0  0  0  0  0  0  0  0  0  0
   38.2570   27.1400   36.7290 H   0  0  0  0  0  0  0  0  0  0  0  0
   39.0160   28.2240   35.4520 H   0  0  0  0  0  0  0  0  0  0  0  0
   36.1930   26.8210   35.3960 H   0  0  0  0  0  0  0  0  0  0  0  0
   37.6380   23.3820   36.9000 C   0  0  0  0  0  0  0  0  0  0  0  0
   37.8090   22.3250   36.0010 C   0  0  0  0  0  0  0  0  0  0  0  0
   38.1300   22.6220   34.6450 C   0  0  0  0  0  0  0  0  0  0  0  0
   38.2560   23.9180   34.2940 N   0  0  0  0  0  0  0  0  0  0  0  0
   38.0840   24.9250   35.1920 C   0  0  0  0  0  0  0  0  0  0  0  0
   37.7780   24.6740   36.4860 N   0  0  0  0  0  0  0  0  0  0  0  0
   37.3930   23.2180   37.9410 H   0  0  0  0  0  0  0  0  0  0  0  0
   37.7020   21.3160   36.3160 H   0  0  0  0  0  0  0  0  0  0  0  0
   38.2700   21.8270   33.9220 H   0  0  0  0  0  0  0  0  0  0  0  0
   35.4500   29.0040   33.9750 C   0  0  2  0  0  3  0  0  0  0  0  0
   36.7050   28.2150   33.7450 C   0  0  2  0  0  3  0  0  0  0  0  0
   36.3030   27.4910   32.4560 C   0  0  0  0  0  3  0  0  0  0  0  0
   35.6040   26.6850   32.7470 H   0  0  0  0  0  0  0  0  0  0  0  0
   35.6720   28.4730   31.7130 O   0  0  0  0  0  0  0  0  0  0  0  0
   35.0980   29.3980   32.5540 C   0  0  0  0  0  3  0  0  0  0  0  0
   33.9970   29.3850   32.3900 H   0  0  0  0  0  0  0  0  0  0  0  0
   35.7030   30.0600   34.8080 O   0  0  0  0  0  0  0  0  0  0  0  0
   35.4980   30.9550   34.4380 H   0  0  0  0  0  0  0  0  0  0  0  0
  1  4  1  6  0  0  0
  1  3  1  0  0  0  0
  1 12  1  0  0  0  0
  1  2  1  0  0  0  0
  2  5  1  0  0  0  0
  3  7  1  1  0  0  0
  3  2  1  0  0  0  0
  6  2  1  0  0  0  0
  8 14  1  0  0  0  0
  9 15  1  0  0  0  0
  9  8  2  0  0  0  0
 10  9  1  0  0  0  0
 11 10  2  0  0  0  0
 11 12  1  0  0  0  0
 12 13  2  0  0  0  0
 13  8  1  0  0  0  0
 16 10  1  0  0  0  0
 17 24  1  1  0  0  0
 18 19  1  6  0  0  0
 18 17  1  0  0  0  0
 18  3  1  0  0  0  0
 19 20  1  0  0  0  0
 21 19  1  0  0  0  0
 21 22  1  0  0  0  0
 22 17  1  0  0  0  0
 23 22  1  0  0  0  0
 25 24  1  0  0  0  0
M  END
>  <minimizedAffinity>
-4.23141479

$$$$

 OpenBabel03262520533D

 25 27  0  0  1  0  0  0  0  0999 V2000
   38.8200   26.1880   35.1790 C   0  0  2  0  0  0  0  0  0  0  0  0
   38.3050   27.5220   35.5580 C   0  0  0  0  0  0  0  0  0  0  0  0
   37.5450   26.6430   34.5990 C   0  0  1  0  0  0  0  0  0  0  0  0
   39.7340   26.1440   34.5490 H   0  0  0  0  0  0  0  0  0  0  0  0
   37.9760   27.5890   36.6250 H   0  0  0  0  0  0  0  0  0  0  0  0
   38.9070   28.3700   35.2430 H   0  0  0  0  0  0  0  0  0  0  0  0
   36.6200   26.2040   35.0800 H   0  0  0  0  0  0  0  0  0  0  0  0
   39.5330   22.9520   36.8820 C   0  0  0  0  0  0  0  0  0  0  0  0
   38.7220   23.0500   38.0180 C   0  0  0  0  0  0  0  0  0  0  0  0
   37.9280   24.2190   38.1960 C   0  0  0  0  0  0  0  0  0  0  0  0
   37.9980   25.1800   37.2540 N   0  0  0  0  0  0  0  0  0  0  0  0
   38.7960   25.0570   36.1590 C   0  0  0  0  0  0  0  0  0  0  0  0
   39.5620   23.9580   35.9630 N   0  0  0  0  0  0  0  0  0  0  0  0
   40.1580   22.0890   36.6930 H   0  0  0  0  0  0  0  0  0  0  0  0
   38.6950   22.2690   38.7390 H   0  0  0  0  0  0  0  0  0  0  0  0
   37.2880   24.3270   39.0640 H   0  0  0  0  0  0  0  0  0  0  0  0
   36.1080   27.7370   32.8230 C   0  0  2  0  0  3  0  0  0  0  0  0
   37.3960   27.0560   33.1820 C   0  0  2  0  0  3  0  0  0  0  0  0
   37.2750   25.8220   32.2840 C   0  0  0  0  0  3  0  0  0  0  0  0
   36.5450   25.1460   32.7650 H   0  0  0  0  0  0  0  0  0  0  0  0
   36.7940   26.3320   31.0910 O   0  0  0  0  0  0  0  0  0  0  0  0
   36.0470   27.4610   31.3340 C   0  0  0  0  0  3  0  0  0  0  0  0
   35.0030   27.2690   30.9990 H   0  0  0  0  0  0  0  0  0  0  0  0
   36.1700   29.0650   33.1510 O   0  0  0  0  0  0  0  0  0  0  0  0
   36.0310   29.6960   32.4000 H   0  0  0  0  0  0  0  0  0  0  0  0
  1  4  1  6  0  0  0
  1  2  1  0  0  0  0
  1 12  1  0  0  0  0
  2  5  1  0  0  0  0
  3  7  1  1  0  0  0
  3  1  1  0  0  0  0
  3  2  1  0  0  0  0
  6  2  1  0  0  0  0
  8  9  1  0  0  0  0
  9 10  2  0  0  0  0
  9 15  1  0  0  0  0
 10 16  1  0  0  0  0
 11 10  1  0  0  0  0
 12 11  2  0  0  0  0
 13 12  1  0  0  0  0
 13  8  2  0  0  0  0
 14  8  1  0  0  0  0
 17 24  1  6  0  0  0
 17 18  1  0  0  0  0
 18 19  1  6  0  0  0
 18  3  1  0  0  0  0
 19 20  1  0  0  0  0
 21 22  1  0  0  0  0
 21 19  1  0  0  0  0
 22 17  1  0  0  0  0
 23 22  1  0  0  0  0
 25 24  1  0  0  0  0
M  END
>  <minimizedAffinity>
-4.21303129

$$$$

 OpenBabel03262520533D

 25 27  0  0  1  0  0  0  0  0999 V2000
   38.0400   26.6400   34.7110 C   0  0  2  0  0  0  0  0  0  0  0  0
   38.6290   27.2850   35.9050 C   0  0  0  0  0  0  0  0  0  0  0  0
   39.4450   27.0770   34.6540 C   0  0  1  0  0  0  0  0  0  0  0  0
   37.7950   25.5590   34.7720 H   0  0  0  0  0  0  0  0  0  0  0  0
   38.2030   28.2960   36.1230 H   0  0  0  0  0  0  0  0  0  0  0  0
   38.7170   26.6590   36.7870 H   0  0  0  0  0  0  0  0  0  0  0  0
   39.6190   28.0500   34.1040 H   0  0  0  0  0  0  0  0  0  0  0  0
   35.8390   27.6370   31.8740 C   0  0  0  0  0  0  0  0  0  0  0  0
   35.1480   28.7220   32.4240 C   0  0  0  0  0  0  0  0  0  0  0  0
   35.4410   29.1150   33.7620 C   0  0  0  0  0  0  0  0  0  0  0  0
   36.3760   28.4160   34.4360 N   0  0  0  0  0  0  0  0  0  0  0  0
   37.0320   27.3650   33.8740 C   0  0  0  0  0  0  0  0  0  0  0  0
   36.7750   26.9680   32.6060 N   0  0  0  0  0  0  0  0  0  0  0  0
   35.6600   27.2920   30.8640 H   0  0  0  0  0  0  0  0  0  0  0  0
   34.4170   29.2470   31.8600 H   0  0  0  0  0  0  0  0  0  0  0  0
   34.9250   29.9510   34.2180 H   0  0  0  0  0  0  0  0  0  0  0  0
   41.7480   26.4860   33.7830 C   0  0  2  0  0  3  0  0  0  0  0  0
   40.5910   26.1370   34.6730 C   0  0  2  0  0  3  0  0  0  0  0  0
   40.1890   24.8040   34.0350 C   0  0  0  0  0  3  0  0  0  0  0  0
   39.6600   25.0460   33.0950 H   0  0  0  0  0  0  0  0  0  0  0  0
   41.4000   24.1780   33.7940 O   0  0  0  0  0  0  0  0  0  0  0  0
   42.3800   25.1210   33.5910 C   0  0  0  0  0  3  0  0  0  0  0  0
   42.7760   24.9990   32.5580 H   0  0  0  0  0  0  0  0  0  0  0  0
   42.5570   27.4020   34.3980 O   0  0  0  0  0  0  0  0  0  0  0  0
   43.4980   27.1230   34.5260 H   0  0  0  0  0  0  0  0  0  0  0  0
  1  4  1  1  0  0  0
  1  2  1  0  0  0  0
  2  5  1  0  0  0  0
  2  6  1  0  0  0  0
  3  7  1  6  0  0  0
  3 18  1  0  0  0  0
  3  1  1  0  0  0  0
  3  2  1  0  0  0  0
  8  9  2  0  0  0  0
  8 13  1  0  0  0  0
  9 10  1  0  0  0  0
 10 16  1  0  0  0  0
 10 11  2  0  0  0  0
 12 11  1  0  0  0  0
 12  1  1  0  0  0  0
 13 12  2  0  0  0  0
 14  8  1  0  0  0  0
 15  9  1  0  0  0  0
 17 24  1  1  0  0  0
 17 18  1  0  0  0  0
 18 19  1  6  0  0  0
 20 19  1  0  0  0  0
 21 19  1  0  0  0  0
 22 17  1  0  0  0  0
 22 21  1  0  0  0  0
 23 22  1  0  0  0  0
 24 25  1  0  0  0  0
M  END
>  <minimizedAffinity>
-4.17893314

$$$$
