
 OpenBabel03262520183D

 18 19  0  0  1  0  0  0  0  0999 V2000
   39.7410   22.8300   37.1160 C   0  0  0  0  0  0  0  0  0  0  0  0
   39.6300   23.7000   36.0060 C   0  0  0  0  0  0  0  0  0  0  0  0
   38.7260   24.7740   36.0970 C   0  0  0  0  0  0  0  0  0  0  0  0
   38.0090   24.9060   37.2630 N   0  0  0  0  0  0  0  0  0  0  0  0
   38.1440   24.0570   38.2950 C   0  0  0  0  0  0  0  0  0  0  0  0
   39.0070   23.0160   38.2290 N   0  0  0  0  0  0  0  0  0  0  0  0
   40.4240   21.9990   37.0750 H   0  0  0  0  0  0  0  0  0  0  0  0
   40.2190   23.5540   35.1050 H   0  0  0  0  0  0  0  0  0  0  0  0
   37.5110   24.2880   39.1500 H   0  0  0  0  0  0  0  0  0  0  0  0
   37.7540   26.9680   35.4230 C   0  0  2  0  0  3  0  0  0  0  0  0
   38.5430   25.7210   35.0090 C   0  0  2  0  0  3  0  0  0  0  0  0
   37.6720   25.2600   33.8870 C   0  0  0  0  0  3  0  0  0  0  0  0
   38.0860   24.4710   33.2510 H   0  0  0  0  0  0  0  0  0  0  0  0
   37.2910   26.4010   33.2020 O   0  0  0  0  0  0  0  0  0  0  0  0
   37.4210   27.4850   34.0300 C   0  0  0  0  0  3  0  0  0  0  0  0
   36.5900   28.1940   34.0380 H   0  0  0  0  0  0  0  0  0  0  0  0
   38.5450   27.8590   36.1290 O   0  0  0  0  0  0  0  0  0  0  0  0
   38.1370   28.0800   37.0060 H   0  0  0  0  0  0  0  0  0  0  0  0
  1  6  1  0  0  0  0
  2  3  1  0  0  0  0
  2  1  2  0  0  0  0
  3  4  2  0  0  0  0
  4  5  1  0  0  0  0
  5  9  1  0  0  0  0
  6  5  2  0  0  0  0
  7  1  1  0  0  0  0
  8  2  1  0  0  0  0
 10 17  1  6  0  0  0
 11 10  1  0  0  0  0
 11  3  1  1  0  0  0
 12 11  1  0  0  0  0
 13 12  1  0  0  0  0
 14 12  1  0  0  0  0
 14 15  1  0  0  0  0
 15 16  1  0  0  0  0
 15 10  1  0  0  0  0
 17 18  1  0  0  0  0
M  END
>  <minimizedAffinity>
-3.99004984

$$$$

 OpenBabel03262520183D

 18 19  0  0  1  0  0  0  0  0999 V2000
   38.7870   23.3710   38.4380 C   0  0  0  0  0  0  0  0  0  0  0  0
   38.0590   24.3570   37.7320 C   0  0  0  0  0  0  0  0  0  0  0  0
   38.4500   24.6480   36.4120 C   0  0  0  0  0  0  0  0  0  0  0  0
   39.5190   23.9530   35.8950 N   0  0  0  0  0  0  0  0  0  0  0  0
   40.1850   23.0230   36.6010 C   0  0  0  0  0  0  0  0  0  0  0  0
   39.8260   22.7270   37.8720 N   0  0  0  0  0  0  0  0  0  0  0  0
   38.5120   23.1280   39.4490 H   0  0  0  0  0  0  0  0  0  0  0  0
   37.2210   24.8800   38.1820 H   0  0  0  0  0  0  0  0  0  0  0  0
   41.0070   22.5560   36.0600 H   0  0  0  0  0  0  0  0  0  0  0  0
   38.1850   25.6240   34.1330 C   0  0  2  0  0  3  0  0  0  0  0  0
   37.7630   25.6450   35.6070 C   0  0  2  0  0  3  0  0  0  0  0  0
   38.0890   27.0690   35.9190 C   0  0  0  0  0  3  0  0  0  0  0  0
   37.7120   27.4480   36.8740 H   0  0  0  0  0  0  0  0  0  0  0  0
   37.6900   27.8050   34.8160 O   0  0  0  0  0  0  0  0  0  0  0  0
   37.6180   26.9770   33.7270 C   0  0  0  0  0  3  0  0  0  0  0  0
   38.0590   27.3520   32.8000 H   0  0  0  0  0  0  0  0  0  0  0  0
   37.5820   24.5830   33.4460 O   0  0  0  0  0  0  0  0  0  0  0  0
   38.2590   24.0150   32.9960 H   0  0  0  0  0  0  0  0  0  0  0  0
  1  7  1  0  0  0  0
  2  8  1  0  0  0  0
  2  1  2  0  0  0  0
  3  2  1  0  0  0  0
  4  3  2  0  0  0  0
  4  5  1  0  0  0  0
  5  6  2  0  0  0  0
  6  1  1  0  0  0  0
  9  5  1  0  0  0  0
 10 17  1  6  0  0  0
 10 11  1  0  0  0  0
 11 12  1  0  0  0  0
 11  3  1  1  0  0  0
 12 13  1  0  0  0  0
 14 12  1  0  0  0  0
 15 10  1  0  0  0  0
 15 14  1  0  0  0  0
 16 15  1  0  0  0  0
 18 17  1  0  0  0  0
M  END
>  <minimizedAffinity>
-3.71496558

$$$$

 OpenBabel03262520183D

 18 19  0  0  1  0  0  0  0  0999 V2000
   36.5310   28.7690   31.6620 C   0  0  0  0  0  0  0  0  0  0  0  0
   37.1040   27.7010   32.3920 C   0  0  0  0  0  0  0  0  0  0  0  0
   36.8870   27.6590   33.7810 C   0  0  0  0  0  0  0  0  0  0  0  0
   36.1300   28.6630   34.3390 N   0  0  0  0  0  0  0  0  0  0  0  0
   35.6030   29.6600   33.6100 C   0  0  0  0  0  0  0  0  0  0  0  0
   35.7990   29.7210   32.2720 N   0  0  0  0  0  0  0  0  0  0  0  0
   36.6800   28.8270   30.5990 H   0  0  0  0  0  0  0  0  0  0  0  0
   37.6950   26.9300   31.9060 H   0  0  0  0  0  0  0  0  0  0  0  0
   35.0280   30.3810   34.1880 H   0  0  0  0  0  0  0  0  0  0  0  0
   38.8360   26.9210   35.1500 C   0  0  2  0  0  3  0  0  0  0  0  0
   37.4350   26.6010   34.6150 C   0  0  2  0  0  3  0  0  0  0  0  0
   37.7430   25.3170   33.9170 C   0  0  0  0  0  3  0  0  0  0  0  0
   36.8800   24.7330   33.5860 H   0  0  0  0  0  0  0  0  0  0  0  0
   38.6140   24.6290   34.7450 O   0  0  0  0  0  0  0  0  0  0  0  0
   39.2240   25.5170   35.5910 C   0  0  0  0  0  3  0  0  0  0  0  0
   40.3040   25.4050   35.7180 H   0  0  0  0  0  0  0  0  0  0  0  0
   38.7840   27.8020   36.2170 O   0  0  0  0  0  0  0  0  0  0  0  0
   39.3510   28.5980   36.0500 H   0  0  0  0  0  0  0  0  0  0  0  0
  1  6  2  0  0  0  0
  1  2  1  0  0  0  0
  2  3  2  0  0  0  0
  3  4  1  0  0  0  0
  5  9  1  0  0  0  0
  5  4  2  0  0  0  0
  6  5  1  0  0  0  0
  7  1  1  0  0  0  0
  8  2  1  0  0  0  0
 10 15  1  0  0  0  0
 10 17  1  1  0  0  0
 11  3  1  6  0  0  0
 11 10  1  0  0  0  0
 12 11  1  0  0  0  0
 12 14  1  0  0  0  0
 13 12  1  0  0  0  0
 14 15  1  0  0  0  0
 15 16  1  0  0  0  0
 18 17  1  0  0  0  0
M  END
>  <minimizedAffinity>
-3.55696607

$$$$

 OpenBabel03262520183D

 18 19  0  0  1  0  0  0  0  0999 V2000
   36.9930   26.8370   33.9190 C   0  0  0  0  0  0  0  0  0  0  0  0
   37.5150   26.4240   35.1660 C   0  0  0  0  0  0  0  0  0  0  0  0
   38.0700   25.1340   35.2550 C   0  0  0  0  0  0  0  0  0  0  0  0
   38.0660   24.3590   34.1190 N   0  0  0  0  0  0  0  0  0  0  0  0
   37.5590   24.7900   32.9520 C   0  0  0  0  0  0  0  0  0  0  0  0
   37.0200   26.0270   32.8440 N   0  0  0  0  0  0  0  0  0  0  0  0
   36.5620   27.8180   33.8200 H   0  0  0  0  0  0  0  0  0  0  0  0
   37.4960   27.0730   36.0360 H   0  0  0  0  0  0  0  0  0  0  0  0
   37.6270   24.0660   32.1410 H   0  0  0  0  0  0  0  0  0  0  0  0
   39.5220   23.3900   36.2870 C   0  0  2  0  0  3  0  0  0  0  0  0
   38.6310   24.6210   36.4940 C   0  0  2  0  0  3  0  0  0  0  0  0
   37.6520   24.0370   37.4580 C   0  0  0  0  0  3  0  0  0  0  0  0
   36.9820   24.7480   37.9510 H   0  0  0  0  0  0  0  0  0  0  0  0
   38.3900   23.2530   38.3290 O   0  0  0  0  0  0  0  0  0  0  0  0
   39.5770   22.9190   37.7340 C   0  0  0  0  0  3  0  0  0  0  0  0
   39.8880   21.8750   37.8190 H   0  0  0  0  0  0  0  0  0  0  0  0
   40.7730   23.7420   35.8090 O   0  0  0  0  0  0  0  0  0  0  0  0
   40.9840   23.2540   34.9720 H   0  0  0  0  0  0  0  0  0  0  0  0
  1  2  1  0  0  0  0
  2  3  2  0  0  0  0
  2  8  1  0  0  0  0
  4  3  1  0  0  0  0
  5  4  2  0  0  0  0
  6  5  1  0  0  0  0
  6  1  2  0  0  0  0
  7  1  1  0  0  0  0
  9  5  1  0  0  0  0
 10 17  1  1  0  0  0
 10 11  1  0  0  0  0
 10 15  1  0  0  0  0
 11  3  1  6  0  0  0
 11 12  1  0  0  0  0
 12 13  1  0  0  0  0
 12 14  1  0  0  0  0
 15 16  1  0  0  0  0
 15 14  1  0  0  0  0
 18 17  1  0  0  0  0
M  END
>  <minimizedAffinity>
-3.55663443

$$$$

 OpenBabel03262520183D

 18 19  0  0  1  0  0  0  0  0999 V2000
   42.5350   21.1720   35.1010 C   0  0  0  0  0  0  0  0  0  0  0  0
   41.5370   22.1720   35.1740 C   0  0  0  0  0  0  0  0  0  0  0  0
   40.9270   22.4060   36.4200 C   0  0  0  0  0  0  0  0  0  0  0  0
   41.3420   21.6430   37.4860 N   0  0  0  0  0  0  0  0  0  0  0  0
   42.2940   20.7020   37.3740 C   0  0  0  0  0  0  0  0  0  0  0  0
   42.8950   20.4600   36.1850 N   0  0  0  0  0  0  0  0  0  0  0  0
   43.0190   20.9710   34.1620 H   0  0  0  0  0  0  0  0  0  0  0  0
   41.2430   22.7500   34.3030 H   0  0  0  0  0  0  0  0  0  0  0  0
   42.5170   20.1800   38.3030 H   0  0  0  0  0  0  0  0  0  0  0  0
   38.6790   22.9000   37.3790 C   0  0  2  0  0  3  0  0  0  0  0  0
   39.8920   23.4120   36.5940 C   0  0  2  0  0  3  0  0  0  0  0  0
   39.1920   23.8470   35.3480 C   0  0  0  0  0  3  0  0  0  0  0  0
   39.7850   24.4470   34.6500 H   0  0  0  0  0  0  0  0  0  0  0  0
   38.0150   24.4490   35.7590 O   0  0  0  0  0  0  0  0  0  0  0  0
   37.7030   24.0110   37.0180 C   0  0  0  0  0  3  0  0  0  0  0  0
   36.6640   23.7230   37.1910 H   0  0  0  0  0  0  0  0  0  0  0  0
   38.9350   22.8580   38.7400 O   0  0  0  0  0  0  0  0  0  0  0  0
   38.7630   21.9520   39.1060 H   0  0  0  0  0  0  0  0  0  0  0  0
  1  2  2  0  0  0  0
  1  6  1  0  0  0  0
  2  3  1  0  0  0  0
  3  4  2  0  0  0  0
  5  4  1  0  0  0  0
  5  9  1  0  0  0  0
  6  5  2  0  0  0  0
  7  1  1  0  0  0  0
  8  2  1  0  0  0  0
 10 17  1  1  0  0  0
 11  3  1  6  0  0  0
 11 10  1  0  0  0  0
 12 14  1  0  0  0  0
 12 11  1  0  0  0  0
 13 12  1  0  0  0  0
 14 15  1  0  0  0  0
 15 16  1  0  0  0  0
 15 10  1  0  0  0  0
 17 18  1  0  0  0  0
M  END
>  <minimizedAffinity>
-3.52343202

$$$$

 OpenBabel03262520183D

 18 19  0  0  1  0  0  0  0  0999 V2000
   42.9840   26.8310   33.6230 C   0  0  0  0  0  0  0  0  0  0  0  0
   41.6800   27.3670   33.5000 C   0  0  0  0  0  0  0  0  0  0  0  0
   40.6370   26.7350   34.2010 C   0  0  0  0  0  0  0  0  0  0  0  0
   40.9560   25.6340   34.9620 N   0  0  0  0  0  0  0  0  0  0  0  0
   42.2090   25.1560   35.0510 C   0  0  0  0  0  0  0  0  0  0  0  0
   43.2270   25.7480   34.3850 N   0  0  0  0  0  0  0  0  0  0  0  0
   43.8010   27.2930   33.0980 H   0  0  0  0  0  0  0  0  0  0  0  0
   41.4780   28.2400   32.8860 H   0  0  0  0  0  0  0  0  0  0  0  0
   42.3080   24.2800   35.6900 H   0  0  0  0  0  0  0  0  0  0  0  0
   38.4420   26.8450   35.3760 C   0  0  2  0  0  3  0  0  0  0  0  0
   39.2660   27.2120   34.1370 C   0  0  2  0  0  3  0  0  0  0  0  0
   38.4060   26.5790   33.0930 C   0  0  0  0  0  3  0  0  0  0  0  0
   38.6400   26.8390   32.0570 H   0  0  0  0  0  0  0  0  0  0  0  0
   37.0970   26.8390   33.4640 O   0  0  0  0  0  0  0  0  0  0  0  0
   37.0580   27.1180   34.8040 C   0  0  0  0  0  3  0  0  0  0  0  0
   36.2670   26.6310   35.3800 H   0  0  0  0  0  0  0  0  0  0  0  0
   38.7320   27.6760   36.4450 O   0  0  0  0  0  0  0  0  0  0  0  0
   39.0000   27.1510   37.2420 H   0  0  0  0  0  0  0  0  0  0  0  0
  1  6  1  0  0  0  0
  2  1  2  0  0  0  0
  2  3  1  0  0  0  0
  3  4  2  0  0  0  0
  4  5  1  0  0  0  0
  5  9  1  0  0  0  0
  6  5  2  0  0  0  0
  7  1  1  0  0  0  0
  8  2  1  0  0  0  0
 10 17  1  1  0  0  0
 11  3  1  1  0  0  0
 11 10  1  0  0  0  0
 12 14  1  0  0  0  0
 12 11  1  0  0  0  0
 13 12  1  0  0  0  0
 14 15  1  0  0  0  0
 15 10  1  0  0  0  0
 15 16  1  0  0  0  0
 17 18  1  0  0  0  0
M  END
>  <minimizedAffinity>
-3.50497437

$$$$

 OpenBabel03262520183D

 18 19  0  0  1  0  0  0  0  0999 V2000
   36.2180   30.0440   30.6060 C   0  0  0  0  0  0  0  0  0  0  0  0
   36.5680   28.6850   30.4270 C   0  0  0  0  0  0  0  0  0  0  0  0
   35.9730   27.7330   31.2740 C   0  0  0  0  0  0  0  0  0  0  0  0
   35.0870   28.1890   32.2230 N   0  0  0  0  0  0  0  0  0  0  0  0
   34.7820   29.4900   32.3600 C   0  0  0  0  0  0  0  0  0  0  0  0
   35.3430   30.4230   31.5560 N   0  0  0  0  0  0  0  0  0  0  0  0
   36.6570   30.7950   29.9730 H   0  0  0  0  0  0  0  0  0  0  0  0
   37.2730   28.3740   29.6630 H   0  0  0  0  0  0  0  0  0  0  0  0
   34.0660   29.6990   33.1540 H   0  0  0  0  0  0  0  0  0  0  0  0
   35.0130   25.4370   31.1230 C   0  0  2  0  0  3  0  0  0  0  0  0
   36.2700   26.3140   31.1670 C   0  0  2  0  0  3  0  0  0  0  0  0
   36.9380   25.6980   32.3520 C   0  0  0  0  0  3  0  0  0  0  0  0
   37.9770   25.9950   32.5240 H   0  0  0  0  0  0  0  0  0  0  0  0
   36.7480   24.3320   32.2340 O   0  0  0  0  0  0  0  0  0  0  0  0
   35.6740   24.0980   31.4170 C   0  0  0  0  0  3  0  0  0  0  0  0
   34.9580   23.3470   31.7590 H   0  0  0  0  0  0  0  0  0  0  0  0
   34.4220   25.4580   29.8700 O   0  0  0  0  0  0  0  0  0  0  0  0
   33.4690   25.7250   29.9310 H   0  0  0  0  0  0  0  0  0  0  0  0
  1  6  1  0  0  0  0
  2  1  2  0  0  0  0
  2  3  1  0  0  0  0
  3  4  2  0  0  0  0
  4  5  1  0  0  0  0
  5  9  1  0  0  0  0
  6  5  2  0  0  0  0
  7  1  1  0  0  0  0
  8  2  1  0  0  0  0
 10 17  1  6  0  0  0
 10 11  1  0  0  0  0
 10 15  1  0  0  0  0
 11  3  1  1  0  0  0
 11 12  1  0  0  0  0
 12 13  1  0  0  0  0
 14 12  1  0  0  0  0
 15 16  1  0  0  0  0
 15 14  1  0  0  0  0
 17 18  1  0  0  0  0
M  END
>  <minimizedAffinity>
-3.47359848

$$$$

 OpenBabel03262520183D

 18 19  0  0  1  0  0  0  0  0999 V2000
   39.7740   26.9560   34.5430 C   0  0  0  0  0  0  0  0  0  0  0  0
   40.4240   25.7390   34.8570 C   0  0  0  0  0  0  0  0  0  0  0  0
   39.6630   24.7200   35.4580 C   0  0  0  0  0  0  0  0  0  0  0  0
   38.3330   24.9760   35.7010 N   0  0  0  0  0  0  0  0  0  0  0  0
   37.7540   26.1470   35.3870 C   0  0  0  0  0  0  0  0  0  0  0  0
   38.4670   27.1420   34.8090 N   0  0  0  0  0  0  0  0  0  0  0  0
   40.3310   27.7540   34.0830 H   0  0  0  0  0  0  0  0  0  0  0  0
   41.4770   25.5840   34.6460 H   0  0  0  0  0  0  0  0  0  0  0  0
   36.6960   26.2040   35.6390 H   0  0  0  0  0  0  0  0  0  0  0  0
   39.8610   22.9780   37.2290 C   0  0  2  0  0  3  0  0  0  0  0  0
   40.2420   23.4360   35.8170 C   0  0  2  0  0  3  0  0  0  0  0  0
   41.7280   23.4110   35.9590 C   0  0  0  0  0  3  0  0  0  0  0  0
   42.3000   23.5110   35.0320 H   0  0  0  0  0  0  0  0  0  0  0  0
   42.0240   22.2730   36.6910 O   0  0  0  0  0  0  0  0  0  0  0  0
   40.9130   21.8900   37.3940 C   0  0  0  0  0  3  0  0  0  0  0  0
   41.0690   21.6170   38.4400 H   0  0  0  0  0  0  0  0  0  0  0  0
   38.5750   22.4640   37.2680 O   0  0  0  0  0  0  0  0  0  0  0  0
   38.0270   22.9290   37.9510 H   0  0  0  0  0  0  0  0  0  0  0  0
  1  6  2  0  0  0  0
  1  2  1  0  0  0  0
  2  3  2  0  0  0  0
  3  4  1  0  0  0  0
  5  9  1  0  0  0  0
  5  4  2  0  0  0  0
  6  5  1  0  0  0  0
  7  1  1  0  0  0  0
  8  2  1  0  0  0  0
 10 17  1  6  0  0  0
 10 15  1  0  0  0  0
 11  3  1  1  0  0  0
 11 12  1  0  0  0  0
 11 10  1  0  0  0  0
 12 14  1  0  0  0  0
 13 12  1  0  0  0  0
 14 15  1  0  0  0  0
 15 16  1  0  0  0  0
 17 18  1  0  0  0  0
M  END
>  <minimizedAffinity>
-3.47223425

$$$$

 OpenBabel03262520183D

 18 19  0  0  1  0  0  0  0  0999 V2000
   42.8930   22.9610   35.8050 C   0  0  0  0  0  0  0  0  0  0  0  0
   41.5510   23.3580   36.0130 C   0  0  0  0  0  0  0  0  0  0  0  0
   40.7230   22.5110   36.7730 C   0  0  0  0  0  0  0  0  0  0  0  0
   41.2760   21.3500   37.2620 N   0  0  0  0  0  0  0  0  0  0  0  0
   42.5560   21.0100   37.0400 C   0  0  0  0  0  0  0  0  0  0  0  0
   43.3710   21.8100   36.3120 N   0  0  0  0  0  0  0  0  0  0  0  0
   43.5500   23.5890   35.2280 H   0  0  0  0  0  0  0  0  0  0  0  0
   41.1610   24.2850   35.6060 H   0  0  0  0  0  0  0  0  0  0  0  0
   42.8520   20.0630   37.4900 H   0  0  0  0  0  0  0  0  0  0  0  0
   38.8230   24.0290   36.2290 C   0  0  2  0  0  3  0  0  0  0  0  0
   39.3310   22.8330   37.0410 C   0  0  2  0  0  3  0  0  0  0  0  0
   39.0350   23.3430   38.4130 C   0  0  0  0  0  3  0  0  0  0  0  0
   39.1170   22.6130   39.2230 H   0  0  0  0  0  0  0  0  0  0  0  0
   37.8030   23.9690   38.3320 O   0  0  0  0  0  0  0  0  0  0  0  0
   37.5580   24.3110   37.0280 C   0  0  0  0  0  3  0  0  0  0  0  0
   37.1710   25.3170   36.8520 H   0  0  0  0  0  0  0  0  0  0  0  0
   38.5390   23.6730   34.9210 O   0  0  0  0  0  0  0  0  0  0  0  0
   39.0300   24.2490   34.2800 H   0  0  0  0  0  0  0  0  0  0  0  0
  1  2  2  0  0  0  0
  1  6  1  0  0  0  0
  2  3  1  0  0  0  0
  3  4  2  0  0  0  0
  5  4  1  0  0  0  0
  5  9  1  0  0  0  0
  6  5  2  0  0  0  0
  7  1  1  0  0  0  0
  8  2  1  0  0  0  0
 10 17  1  6  0  0  0
 10 15  1  0  0  0  0
 10 11  1  0  0  0  0
 11  3  1  1  0  0  0
 11 12  1  0  0  0  0
 12 13  1  0  0  0  0
 14 12  1  0  0  0  0
 15 14  1  0  0  0  0
 16 15  1  0  0  0  0
 18 17  1  0  0  0  0
M  END
>  <minimizedAffinity>
-3.44837761

$$$$
