
 OpenBabel03272501333D

 27 29  0  0  1  0  0  0  0  0999 V2000
   37.6490   26.1540   35.0150 C   0  0  2  0  0  0  0  0  0  0  0  0
   38.8530   26.6910   35.8250 C   0  0  0  0  0  0  0  0  0  0  0  0
   37.9950   25.4880   36.2120 C   0  0  2  0  0  0  0  0  0  0  0  0
   36.9510   27.0510   34.9770 H   0  0  0  0  0  0  0  0  0  0  0  0
   38.7700   27.6230   36.3940 H   0  0  0  0  0  0  0  0  0  0  0  0
   39.8340   26.5390   35.3870 H   0  0  0  0  0  0  0  0  0  0  0  0
   37.2930   25.7710   37.0750 H   0  0  0  0  0  0  0  0  0  0  0  0
   38.2590   23.5990   37.8170 C   0  0  1  0  0  3  0  0  0  0  0  0
   38.8180   24.3790   36.6130 C   0  0  1  0  0  3  0  0  0  0  0  0
   38.9600   23.1590   35.7750 C   0  0  0  0  0  3  0  0  0  0  0  0
   39.4650   23.2120   34.8400 H   0  0  0  0  0  0  0  0  0  0  0  0
   37.7150   22.5710   35.7910 O   0  0  0  0  0  0  0  0  0  0  0  0
   37.2110   22.7990   37.0690 C   0  0  0  0  0  3  0  0  0  0  0  0
   36.3290   23.4650   36.9580 H   0  0  0  0  0  0  0  0  0  0  0  0
   39.2000   22.7410   38.3410 O   0  0  0  0  0  0  0  0  0  0  0  0
   39.2790   22.8090   39.3250 H   0  0  0  0  0  0  0  0  0  0  0  0
   38.0170   25.8170   33.6250 C   0  0  0  0  0  0  0  0  0  0  0  0
   39.2510   25.9120   33.3620 O   0  0  0  0  0  0  0  0  0  0  0  0
   35.9080   23.7620   31.3450 C   0  0  0  0  0  0  0  0  0  0  0  0
   36.8420   24.1030   32.3070 C   0  0  0  0  0  0  0  0  0  0  0  0
   37.0390   25.4220   32.6540 C   0  0  0  0  0  0  0  0  0  0  0  0
   36.2930   26.3230   32.0240 N   0  0  0  0  0  0  0  0  0  0  0  0
   35.3790   25.9860   31.0840 C   0  0  0  0  0  0  0  0  0  0  0  0
   35.1750   24.7140   30.7330 N   0  0  0  0  0  0  0  0  0  0  0  0
   35.7390   22.7170   31.0560 H   0  0  0  0  0  0  0  0  0  0  0  0
   37.4210   23.3010   32.7860 H   0  0  0  0  0  0  0  0  0  0  0  0
   34.7710   26.7250   30.5700 H   0  0  0  0  0  0  0  0  0  0  0  0
  1  4  1  1  0  0  0
  1  2  1  0  0  0  0
  1  3  1  0  0  0  0
  2  3  1  0  0  0  0
  2  5  1  0  0  0  0
  3  9  1  0  0  0  0
  3  7  1  1  0  0  0
  6  2  1  0  0  0  0
  8 15  1  6  0  0  0
  9 10  1  6  0  0  0
  9  8  1  0  0  0  0
 10 12  1  0  0  0  0
 11 10  1  0  0  0  0
 12 13  1  0  0  0  0
 13  8  1  0  0  0  0
 14 13  1  0  0  0  0
 15 16  1  0  0  0  0
 17  1  1  0  0  0  0
 18 17  2  0  0  0  0
 19 20  1  0  0  0  0
 20 21  2  0  0  0  0
 20 26  1  0  0  0  0
 21 17  1  0  0  0  0
 22 21  1  0  0  0  0
 23 22  2  0  0  0  0
 24 23  1  0  0  0  0
 24 19  2  0  0  0  0
 25 19  1  0  0  0  0
 27 23  1  0  0  0  0
M  END
>  <minimizedAffinity>
-4.88636637

$$$$

 OpenBabel03272501333D

 27 29  0  0  1  0  0  0  0  0999 V2000
   37.6720   26.0940   35.2790 C   0  0  2  0  0  0  0  0  0  0  0  0
   39.1760   26.1910   35.6310 C   0  0  0  0  0  0  0  0  0  0  0  0
   38.1700   25.2590   36.3040 C   0  0  2  0  0  0  0  0  0  0  0  0
   37.3030   27.1550   35.4600 H   0  0  0  0  0  0  0  0  0  0  0  0
   39.5660   27.0560   36.1770 H   0  0  0  0  0  0  0  0  0  0  0  0
   39.8680   25.7990   34.8930 H   0  0  0  0  0  0  0  0  0  0  0  0
   37.9050   25.6590   37.3470 H   0  0  0  0  0  0  0  0  0  0  0  0
   39.0160   23.5220   37.8800 C   0  0  1  0  0  3  0  0  0  0  0  0
   38.7050   23.9300   36.4270 C   0  0  1  0  0  3  0  0  0  0  0  0
   37.8790   22.7210   36.1700 C   0  0  0  0  0  3  0  0  0  0  0  0
   37.5420   22.5070   35.1840 H   0  0  0  0  0  0  0  0  0  0  0  0
   36.9410   22.7110   37.1770 O   0  0  0  0  0  0  0  0  0  0  0  0
   37.5980   23.1980   38.3050 C   0  0  0  0  0  3  0  0  0  0  0  0
   37.1210   24.1650   38.5680 H   0  0  0  0  0  0  0  0  0  0  0  0
   39.7800   22.3780   37.9270 O   0  0  0  0  0  0  0  0  0  0  0  0
   40.5590   22.4580   38.5330 H   0  0  0  0  0  0  0  0  0  0  0  0
   37.4500   25.7830   33.8530 C   0  0  0  0  0  0  0  0  0  0  0  0
   37.7060   24.5890   33.5220 O   0  0  0  0  0  0  0  0  0  0  0  0
   36.2160   28.9770   32.3870 C   0  0  0  0  0  0  0  0  0  0  0  0
   36.6860   28.0580   33.3100 C   0  0  0  0  0  0  0  0  0  0  0  0
   36.9890   26.7710   32.9220 C   0  0  0  0  0  0  0  0  0  0  0  0
   36.8070   26.4750   31.6390 N   0  0  0  0  0  0  0  0  0  0  0  0
   36.3480   27.3760   30.7400 C   0  0  0  0  0  0  0  0  0  0  0  0
   36.0480   28.6270   31.0960 N   0  0  0  0  0  0  0  0  0  0  0  0
   35.9700   30.0050   32.6790 H   0  0  0  0  0  0  0  0  0  0  0  0
   36.8110   28.3780   34.3530 H   0  0  0  0  0  0  0  0  0  0  0  0
   36.2000   27.1310   29.6920 H   0  0  0  0  0  0  0  0  0  0  0  0
  1  4  1  1  0  0  0
  1  2  1  0  0  0  0
  1  3  1  0  0  0  0
  2  5  1  0  0  0  0
  2  3  1  0  0  0  0
  3  9  1  0  0  0  0
  3  7  1  1  0  0  0
  6  2  1  0  0  0  0
  8 15  1  6  0  0  0
  8 13  1  0  0  0  0
  9 10  1  1  0  0  0
  9  8  1  0  0  0  0
 10 12  1  0  0  0  0
 11 10  1  0  0  0  0
 12 13  1  0  0  0  0
 13 14  1  0  0  0  0
 15 16  1  0  0  0  0
 17  1  1  0  0  0  0
 18 17  2  0  0  0  0
 19 25  1  0  0  0  0
 19 20  1  0  0  0  0
 20 26  1  0  0  0  0
 21 20  2  0  0  0  0
 21 17  1  0  0  0  0
 22 21  1  0  0  0  0
 23 24  1  0  0  0  0
 23 22  2  0  0  0  0
 24 19  2  0  0  0  0
 27 23  1  0  0  0  0
M  END
>  <minimizedAffinity>
-4.7930851

$$$$

 OpenBabel03272501333D

 27 29  0  0  1  0  0  0  0  0999 V2000
   38.4670   26.1770   34.3280 C   0  0  2  0  0  0  0  0  0  0  0  0
   37.1190   26.9340   34.2670 C   0  0  0  0  0  0  0  0  0  0  0  0
   38.1470   26.8690   33.1390 C   0  0  2  0  0  0  0  0  0  0  0  0
   38.9890   26.6630   35.2140 H   0  0  0  0  0  0  0  0  0  0  0  0
   36.9790   27.8670   34.8220 H   0  0  0  0  0  0  0  0  0  0  0  0
   36.2260   26.3200   34.2210 H   0  0  0  0  0  0  0  0  0  0  0  0
   38.7070   27.8690   33.0630 H   0  0  0  0  0  0  0  0  0  0  0  0
   37.1930   27.8440   31.0520 C   0  0  1  0  0  3  0  0  0  0  0  0
   37.5100   26.5850   31.8810 C   0  0  1  0  0  3  0  0  0  0  0  0
   38.2340   25.9220   30.7640 C   0  0  0  0  0  3  0  0  0  0  0  0
   38.5360   24.9060   30.8550 H   0  0  0  0  0  0  0  0  0  0  0  0
   39.1850   26.8340   30.3670 O   0  0  0  0  0  0  0  0  0  0  0  0
   38.5890   28.0840   30.5110 C   0  0  0  0  0  3  0  0  0  0  0  0
   39.1450   28.6220   31.3070 H   0  0  0  0  0  0  0  0  0  0  0  0
   36.3420   27.5560   30.0090 O   0  0  0  0  0  0  0  0  0  0  0  0
   35.5820   28.1880   29.9440 H   0  0  0  0  0  0  0  0  0  0  0  0
   38.2910   24.7460   34.6460 C   0  0  0  0  0  0  0  0  0  0  0  0
   37.9100   24.0280   33.6770 O   0  0  0  0  0  0  0  0  0  0  0  0
   38.0440   24.0950   38.3050 C   0  0  0  0  0  0  0  0  0  0  0  0
   37.7670   24.6000   37.0460 C   0  0  0  0  0  0  0  0  0  0  0  0
   38.5290   24.2240   35.9600 C   0  0  0  0  0  0  0  0  0  0  0  0
   39.5180   23.3680   36.1920 N   0  0  0  0  0  0  0  0  0  0  0  0
   39.7860   22.8770   37.4240 C   0  0  0  0  0  0  0  0  0  0  0  0
   39.0610   23.2290   38.4880 N   0  0  0  0  0  0  0  0  0  0  0  0
   37.4490   24.3840   39.1800 H   0  0  0  0  0  0  0  0  0  0  0  0
   36.9310   25.3030   36.9330 H   0  0  0  0  0  0  0  0  0  0  0  0
   40.5960   22.1780   37.6100 H   0  0  0  0  0  0  0  0  0  0  0  0
  1 17  1  0  0  0  0
  1  4  1  1  0  0  0
  2  1  1  0  0  0  0
  2  5  1  0  0  0  0
  3  7  1  6  0  0  0
  3  2  1  0  0  0  0
  3  1  1  0  0  0  0
  6  2  1  0  0  0  0
  8 15  1  6  0  0  0
  8  9  1  0  0  0  0
  9 10  1  6  0  0  0
  9  3  1  0  0  0  0
 10 11  1  0  0  0  0
 12 13  1  0  0  0  0
 12 10  1  0  0  0  0
 13  8  1  0  0  0  0
 13 14  1  0  0  0  0
 16 15  1  0  0  0  0
 17 21  1  0  0  0  0
 18 17  2  0  0  0  0
 19 24  1  0  0  0  0
 19 25  1  0  0  0  0
 20 19  2  0  0  0  0
 21 22  2  0  0  0  0
 21 20  1  0  0  0  0
 22 23  1  0  0  0  0
 23 27  1  0  0  0  0
 23 24  2  0  0  0  0
 26 20  1  0  0  0  0
M  END
>  <minimizedAffinity>
-4.54100704

$$$$

 OpenBabel03272501333D

 27 29  0  0  1  0  0  0  0  0999 V2000
   37.5420   26.2760   35.0300 C   0  0  2  0  0  0  0  0  0  0  0  0
   38.5110   26.7810   36.1250 C   0  0  0  0  0  0  0  0  0  0  0  0
   37.7870   25.4370   36.1390 C   0  0  2  0  0  0  0  0  0  0  0  0
   36.7350   27.0770   35.0170 H   0  0  0  0  0  0  0  0  0  0  0  0
   38.2040   27.5710   36.8180 H   0  0  0  0  0  0  0  0  0  0  0  0
   39.5600   26.8290   35.8530 H   0  0  0  0  0  0  0  0  0  0  0  0
   36.9240   25.4660   36.8950 H   0  0  0  0  0  0  0  0  0  0  0  0
   38.2430   23.5680   37.7260 C   0  0  1  0  0  3  0  0  0  0  0  0
   38.6890   24.3730   36.4900 C   0  0  1  0  0  3  0  0  0  0  0  0
   38.8420   23.1590   35.6440 C   0  0  0  0  0  3  0  0  0  0  0  0
   39.2870   23.2350   34.6810 H   0  0  0  0  0  0  0  0  0  0  0  0
   37.6330   22.5080   35.7360 O   0  0  0  0  0  0  0  0  0  0  0  0
   37.1950   22.7140   37.0410 C   0  0  0  0  0  3  0  0  0  0  0  0
   36.2750   23.3320   36.9830 H   0  0  0  0  0  0  0  0  0  0  0  0
   39.2570   22.7620   38.1920 O   0  0  0  0  0  0  0  0  0  0  0  0
   39.3910   22.8360   39.1700 H   0  0  0  0  0  0  0  0  0  0  0  0
   38.1700   26.2560   33.6940 C   0  0  0  0  0  0  0  0  0  0  0  0
   39.0140   27.1760   33.4880 O   0  0  0  0  0  0  0  0  0  0  0  0
   36.2750   24.1950   31.2370 C   0  0  0  0  0  0  0  0  0  0  0  0
   36.5700   25.1790   32.1640 C   0  0  0  0  0  0  0  0  0  0  0  0
   37.8330   25.2690   32.7100 C   0  0  0  0  0  0  0  0  0  0  0  0
   38.7260   24.3750   32.2980 N   0  0  0  0  0  0  0  0  0  0  0  0
   38.4340   23.4140   31.3910 C   0  0  0  0  0  0  0  0  0  0  0  0
   37.2170   23.3100   30.8520 N   0  0  0  0  0  0  0  0  0  0  0  0
   35.2760   24.1090   30.7930 H   0  0  0  0  0  0  0  0  0  0  0  0
   35.7790   25.8830   32.4540 H   0  0  0  0  0  0  0  0  0  0  0  0
   39.1660   22.6850   31.0570 H   0  0  0  0  0  0  0  0  0  0  0  0
  1  4  1  1  0  0  0
  1  2  1  0  0  0  0
  1  3  1  0  0  0  0
  2  3  1  0  0  0  0
  2  5  1  0  0  0  0
  3  9  1  0  0  0  0
  3  7  1  1  0  0  0
  6  2  1  0  0  0  0
  8 15  1  6  0  0  0
  9 10  1  6  0  0  0
  9  8  1  0  0  0  0
 10 12  1  0  0  0  0
 11 10  1  0  0  0  0
 12 13  1  0  0  0  0
 13  8  1  0  0  0  0
 14 13  1  0  0  0  0
 15 16  1  0  0  0  0
 17  1  1  0  0  0  0
 18 17  2  0  0  0  0
 19 20  1  0  0  0  0
 20 26  1  0  0  0  0
 20 21  2  0  0  0  0
 21 17  1  0  0  0  0
 22 21  1  0  0  0  0
 23 22  2  0  0  0  0
 24 19  2  0  0  0  0
 24 23  1  0  0  0  0
 25 19  1  0  0  0  0
 27 23  1  0  0  0  0
M  END
>  <minimizedAffinity>
-4.53296041

$$$$

 OpenBabel03272501333D

 27 29  0  0  1  0  0  0  0  0999 V2000
   38.9870   22.9100   34.5570 C   0  0  2  0  0  0  0  0  0  0  0  0
   39.6250   23.2620   35.9220 C   0  0  0  0  0  0  0  0  0  0  0  0
   39.2570   24.2690   34.8340 C   0  0  2  0  0  0  0  0  0  0  0  0
   39.7490   22.2020   34.0980 H   0  0  0  0  0  0  0  0  0  0  0  0
   40.6780   23.0360   36.1190 H   0  0  0  0  0  0  0  0  0  0  0  0
   38.9890   23.1490   36.7930 H   0  0  0  0  0  0  0  0  0  0  0  0
   40.2060   24.6330   34.3020 H   0  0  0  0  0  0  0  0  0  0  0  0
   39.3980   26.6940   35.3980 C   0  0  1  0  0  3  0  0  0  0  0  0
   38.5640   25.3980   35.3940 C   0  0  1  0  0  3  0  0  0  0  0  0
   37.4110   26.0370   34.7050 C   0  0  0  0  0  3  0  0  0  0  0  0
   36.4930   25.5080   34.6040 H   0  0  0  0  0  0  0  0  0  0  0  0
   37.9460   26.6030   33.5700 O   0  0  0  0  0  0  0  0  0  0  0  0
   39.2100   27.0570   33.9390 C   0  0  0  0  0  3  0  0  0  0  0  0
   39.9500   26.4590   33.3680 H   0  0  0  0  0  0  0  0  0  0  0  0
   38.8190   27.6610   36.1890 O   0  0  0  0  0  0  0  0  0  0  0  0
   39.4600   28.0870   36.8100 H   0  0  0  0  0  0  0  0  0  0  0  0
   37.7210   22.1650   34.7080 C   0  0  0  0  0  0  0  0  0  0  0  0
   37.3950   21.9050   35.9020 O   0  0  0  0  0  0  0  0  0  0  0  0
   35.1920   20.4660   32.5660 C   0  0  0  0  0  0  0  0  0  0  0  0
   35.9100   20.8490   33.6840 C   0  0  0  0  0  0  0  0  0  0  0  0
   36.9350   21.7650   33.5770 C   0  0  0  0  0  0  0  0  0  0  0  0
   37.1820   22.2450   32.3630 N   0  0  0  0  0  0  0  0  0  0  0  0
   36.4770   21.8690   31.2710 C   0  0  0  0  0  0  0  0  0  0  0  0
   35.4820   20.9830   31.3540 N   0  0  0  0  0  0  0  0  0  0  0  0
   34.3730   19.7390   32.6330 H   0  0  0  0  0  0  0  0  0  0  0  0
   35.6470   20.4090   34.6560 H   0  0  0  0  0  0  0  0  0  0  0  0
   36.6820   22.2620   30.2800 H   0  0  0  0  0  0  0  0  0  0  0  0
  1  4  1  6  0  0  0
  1 17  1  0  0  0  0
  1  3  1  0  0  0  0
  1  2  1  0  0  0  0
  2  5  1  0  0  0  0
  2  6  1  0  0  0  0
  3  7  1  6  0  0  0
  3  9  1  0  0  0  0
  3  2  1  0  0  0  0
  8 15  1  1  0  0  0
  9 10  1  6  0  0  0
  9  8  1  0  0  0  0
 11 10  1  0  0  0  0
 12 13  1  0  0  0  0
 12 10  1  0  0  0  0
 13  8  1  0  0  0  0
 14 13  1  0  0  0  0
 15 16  1  0  0  0  0
 17 18  2  0  0  0  0
 19 25  1  0  0  0  0
 19 20  1  0  0  0  0
 20 26  1  0  0  0  0
 21 20  2  0  0  0  0
 21 17  1  0  0  0  0
 22 21  1  0  0  0  0
 23 24  1  0  0  0  0
 23 22  2  0  0  0  0
 24 19  2  0  0  0  0
 27 23  1  0  0  0  0
M  END
>  <minimizedAffinity>
-4.44873953

$$$$

 OpenBabel03272501333D

 27 29  0  0  1  0  0  0  0  0999 V2000
   38.2870   25.6790   34.5300 C   0  0  2  0  0  0  0  0  0  0  0  0
   39.6450   25.7710   35.2660 C   0  0  0  0  0  0  0  0  0  0  0  0
   38.4500   24.9340   35.7190 C   0  0  2  0  0  0  0  0  0  0  0  0
   37.9370   26.7600   34.5110 H   0  0  0  0  0  0  0  0  0  0  0  0
   39.9170   26.6750   35.8210 H   0  0  0  0  0  0  0  0  0  0  0  0
   40.4890   25.2920   34.7800 H   0  0  0  0  0  0  0  0  0  0  0  0
   37.9360   25.4390   36.6120 H   0  0  0  0  0  0  0  0  0  0  0  0
   39.1210   23.4510   37.6080 C   0  0  1  0  0  3  0  0  0  0  0  0
   38.8660   23.6100   36.0970 C   0  0  1  0  0  3  0  0  0  0  0  0
   37.9400   22.4480   36.0410 C   0  0  0  0  0  3  0  0  0  0  0  0
   37.5980   22.0860   35.1010 H   0  0  0  0  0  0  0  0  0  0  0  0
   36.9920   22.7020   37.0060 O   0  0  0  0  0  0  0  0  0  0  0  0
   37.6750   23.3310   38.0440 C   0  0  0  0  0  3  0  0  0  0  0  0
   37.2810   24.3660   38.1140 H   0  0  0  0  0  0  0  0  0  0  0  0
   39.7820   22.2750   37.8840 O   0  0  0  0  0  0  0  0  0  0  0  0
   40.5570   22.4000   38.4870 H   0  0  0  0  0  0  0  0  0  0  0  0
   38.4400   25.2370   33.1290 C   0  0  0  0  0  0  0  0  0  0  0  0
   39.4100   25.7600   32.5080 O   0  0  0  0  0  0  0  0  0  0  0  0
   36.9660   22.0730   31.8300 C   0  0  0  0  0  0  0  0  0  0  0  0
   37.8430   22.9500   32.4430 C   0  0  0  0  0  0  0  0  0  0  0  0
   37.5440   24.2930   32.5280 C   0  0  0  0  0  0  0  0  0  0  0  0
   36.3900   24.6820   31.9970 N   0  0  0  0  0  0  0  0  0  0  0  0
   35.5340   23.8220   31.3990 C   0  0  0  0  0  0  0  0  0  0  0  0
   35.8050   22.5180   31.3070 N   0  0  0  0  0  0  0  0  0  0  0  0
   37.1880   21.0010   31.7540 H   0  0  0  0  0  0  0  0  0  0  0  0
   38.7790   22.5530   32.8600 H   0  0  0  0  0  0  0  0  0  0  0  0
   34.5910   24.1430   30.9660 H   0  0  0  0  0  0  0  0  0  0  0  0
  1  4  1  1  0  0  0
  1  2  1  0  0  0  0
  1  3  1  0  0  0  0
  2  3  1  0  0  0  0
  2  5  1  0  0  0  0
  3  9  1  0  0  0  0
  3  7  1  1  0  0  0
  6  2  1  0  0  0  0
  8 15  1  6  0  0  0
  8 13  1  0  0  0  0
  9 10  1  1  0  0  0
  9  8  1  0  0  0  0
 10 12  1  0  0  0  0
 11 10  1  0  0  0  0
 12 13  1  0  0  0  0
 13 14  1  0  0  0  0
 15 16  1  0  0  0  0
 17  1  1  0  0  0  0
 18 17  2  0  0  0  0
 19 20  1  0  0  0  0
 20 21  2  0  0  0  0
 20 26  1  0  0  0  0
 21 17  1  0  0  0  0
 22 21  1  0  0  0  0
 23 22  2  0  0  0  0
 24 23  1  0  0  0  0
 24 19  2  0  0  0  0
 25 19  1  0  0  0  0
 27 23  1  0  0  0  0
M  END
>  <minimizedAffinity>
-4.41474819

$$$$

 OpenBabel03272501333D

 27 29  0  0  1  0  0  0  0  0999 V2000
   38.1460   26.4060   35.0000 C   0  0  2  0  0  0  0  0  0  0  0  0
   38.3940   26.7720   36.4820 C   0  0  0  0  0  0  0  0  0  0  0  0
   37.9540   25.4010   35.9730 C   0  0  2  0  0  0  0  0  0  0  0  0
   37.3360   27.1420   34.6910 H   0  0  0  0  0  0  0  0  0  0  0  0
   37.6850   27.4030   37.0260 H   0  0  0  0  0  0  0  0  0  0  0  0
   39.4280   26.9360   36.7700 H   0  0  0  0  0  0  0  0  0  0  0  0
   36.8410   25.2380   36.2040 H   0  0  0  0  0  0  0  0  0  0  0  0
   38.0070   23.6720   37.7690 C   0  0  1  0  0  3  0  0  0  0  0  0
   38.7240   24.3540   36.5880 C   0  0  1  0  0  3  0  0  0  0  0  0
   38.9970   23.0660   35.8960 C   0  0  0  0  0  3  0  0  0  0  0  0
   39.6300   23.0470   35.0400 H   0  0  0  0  0  0  0  0  0  0  0  0
   37.7700   22.4520   35.7920 O   0  0  0  0  0  0  0  0  0  0  0  0
   37.0860   22.7820   36.9580 C   0  0  0  0  0  3  0  0  0  0  0  0
   36.2220   23.4130   36.6620 H   0  0  0  0  0  0  0  0  0  0  0  0
   38.8740   22.8890   38.4980 O   0  0  0  0  0  0  0  0  0  0  0  0
   38.8110   23.0480   39.4730 H   0  0  0  0  0  0  0  0  0  0  0  0
   39.3290   26.6660   34.1540 C   0  0  0  0  0  0  0  0  0  0  0  0
   40.4090   26.8400   34.7880 O   0  0  0  0  0  0  0  0  0  0  0  0
   38.2740   27.5530   30.6940 C   0  0  0  0  0  0  0  0  0  0  0  0
   38.3470   27.5450   32.0760 C   0  0  0  0  0  0  0  0  0  0  0  0
   39.2440   26.7230   32.7240 C   0  0  0  0  0  0  0  0  0  0  0  0
   40.0140   25.9590   31.9580 N   0  0  0  0  0  0  0  0  0  0  0  0
   39.9410   25.9690   30.6070 C   0  0  0  0  0  0  0  0  0  0  0  0
   39.0790   26.7570   29.9610 N   0  0  0  0  0  0  0  0  0  0  0  0
   37.5660   28.2000   30.1620 H   0  0  0  0  0  0  0  0  0  0  0  0
   37.6760   28.2060   32.6420 H   0  0  0  0  0  0  0  0  0  0  0  0
   40.5720   25.3430   29.9830 H   0  0  0  0  0  0  0  0  0  0  0  0
  1  4  1  6  0  0  0
  1  3  1  0  0  0  0
  1  2  1  0  0  0  0
  2  6  1  0  0  0  0
  2  5  1  0  0  0  0
  3  7  1  1  0  0  0
  3  2  1  0  0  0  0
  3  9  1  0  0  0  0
  8 15  1  1  0  0  0
  9 10  1  6  0  0  0
  9  8  1  0  0  0  0
 11 10  1  0  0  0  0
 12 10  1  0  0  0  0
 12 13  1  0  0  0  0
 13  8  1  0  0  0  0
 14 13  1  0  0  0  0
 15 16  1  0  0  0  0
 17 18  2  0  0  0  0
 17  1  1  0  0  0  0
 19 20  1  0  0  0  0
 20 26  1  0  0  0  0
 20 21  2  0  0  0  0
 21 17  1  0  0  0  0
 22 21  1  0  0  0  0
 23 22  2  0  0  0  0
 24 23  1  0  0  0  0
 24 19  2  0  0  0  0
 25 19  1  0  0  0  0
 27 23  1  0  0  0  0
M  END
>  <minimizedAffinity>
-4.40794659

$$$$

 OpenBabel03272501333D

 27 29  0  0  1  0  0  0  0  0999 V2000
   38.9720   26.0060   34.7120 C   0  0  2  0  0  0  0  0  0  0  0  0
   39.2080   24.6130   34.0830 C   0  0  0  0  0  0  0  0  0  0  0  0
   39.1190   24.9020   35.5800 C   0  0  2  0  0  0  0  0  0  0  0  0
   39.8480   26.6140   34.3160 H   0  0  0  0  0  0  0  0  0  0  0  0
   40.1740   24.3610   33.6340 H   0  0  0  0  0  0  0  0  0  0  0  0
   38.3630   24.1690   33.5660 H   0  0  0  0  0  0  0  0  0  0  0  0
   40.1670   24.8640   36.0480 H   0  0  0  0  0  0  0  0  0  0  0  0
   38.5920   22.4830   35.8730 C   0  0  1  0  0  3  0  0  0  0  0  0
   38.2710   23.9450   36.2380 C   0  0  1  0  0  3  0  0  0  0  0  0
   38.3550   23.6910   37.7010 C   0  0  0  0  0  3  0  0  0  0  0  0
   38.0580   24.4460   38.3890 H   0  0  0  0  0  0  0  0  0  0  0  0
   39.5890   23.1110   37.8900 O   0  0  0  0  0  0  0  0  0  0  0  0
   39.8030   22.3140   36.7680 C   0  0  0  0  0  3  0  0  0  0  0  0
   40.6630   22.7490   36.2180 H   0  0  0  0  0  0  0  0  0  0  0  0
   37.5930   21.6310   36.2890 O   0  0  0  0  0  0  0  0  0  0  0  0
   37.3050   20.9990   35.5830 H   0  0  0  0  0  0  0  0  0  0  0  0
   37.7330   26.6400   34.2170 C   0  0  0  0  0  0  0  0  0  0  0  0
   36.8260   26.7860   35.0870 O   0  0  0  0  0  0  0  0  0  0  0  0
   38.4510   27.8930   30.7840 C   0  0  0  0  0  0  0  0  0  0  0  0
   38.6430   27.4830   32.0920 C   0  0  0  0  0  0  0  0  0  0  0  0
   37.5790   27.0450   32.8510 C   0  0  0  0  0  0  0  0  0  0  0  0
   36.3880   27.0410   32.2620 N   0  0  0  0  0  0  0  0  0  0  0  0
   36.2040   27.4430   30.9830 C   0  0  0  0  0  0  0  0  0  0  0  0
   37.2210   27.8700   30.2320 N   0  0  0  0  0  0  0  0  0  0  0  0
   39.2870   28.2450   30.1670 H   0  0  0  0  0  0  0  0  0  0  0  0
   39.6590   27.5140   32.5100 H   0  0  0  0  0  0  0  0  0  0  0  0
   35.2290   27.4390   30.5040 H   0  0  0  0  0  0  0  0  0  0  0  0
  1  4  1  6  0  0  0
  1  3  1  0  0  0  0
  2  1  1  0  0  0  0
  2  3  1  0  0  0  0
  3  7  1  1  0  0  0
  3  9  1  0  0  0  0
  5  2  1  0  0  0  0
  6  2  1  0  0  0  0
  8  9  1  0  0  0  0
  8 15  1  1  0  0  0
  8 13  1  0  0  0  0
  9 10  1  1  0  0  0
 10 12  1  0  0  0  0
 10 11  1  0  0  0  0
 13 12  1  0  0  0  0
 14 13  1  0  0  0  0
 16 15  1  0  0  0  0
 17  1  1  0  0  0  0
 17 18  2  0  0  0  0
 19 20  1  0  0  0  0
 20 26  1  0  0  0  0
 20 21  2  0  0  0  0
 21 17  1  0  0  0  0
 22 21  1  0  0  0  0
 23 22  2  0  0  0  0
 24 19  2  0  0  0  0
 24 23  1  0  0  0  0
 25 19  1  0  0  0  0
 27 23  1  0  0  0  0
M  END
>  <minimizedAffinity>
-4.39598799

$$$$

 OpenBabel03272501333D

 27 29  0  0  1  0  0  0  0  0999 V2000
   36.6870   26.5120   31.8460 C   0  0  2  0  0  0  0  0  0  0  0  0
   37.2490   27.9510   31.7500 C   0  0  0  0  0  0  0  0  0  0  0  0
   37.0180   27.1780   33.0470 C   0  0  2  0  0  0  0  0  0  0  0  0
   35.6730   26.6030   31.3390 H   0  0  0  0  0  0  0  0  0  0  0  0
   36.5940   28.7890   31.4920 H   0  0  0  0  0  0  0  0  0  0  0  0
   38.2530   28.0480   31.3490 H   0  0  0  0  0  0  0  0  0  0  0  0
   36.0860   27.5830   33.5820 H   0  0  0  0  0  0  0  0  0  0  0  0
   37.7860   27.2750   35.4170 C   0  0  1  0  0  3  0  0  0  0  0  0
   38.1540   27.2930   33.9220 C   0  0  1  0  0  3  0  0  0  0  0  0
   39.1540   26.2010   34.0630 C   0  0  0  0  0  3  0  0  0  0  0  0
   39.7910   25.9550   33.2470 H   0  0  0  0  0  0  0  0  0  0  0  0
   38.4710   25.1710   34.6680 O   0  0  0  0  0  0  0  0  0  0  0  0
   37.5880   25.7790   35.5560 C   0  0  0  0  0  3  0  0  0  0  0  0
   36.5600   25.5630   35.1940 H   0  0  0  0  0  0  0  0  0  0  0  0
   38.8480   27.6700   36.2000 O   0  0  0  0  0  0  0  0  0  0  0  0
   38.5980   28.3490   36.8760 H   0  0  0  0  0  0  0  0  0  0  0  0
   37.4880   25.5460   31.0690 C   0  0  0  0  0  0  0  0  0  0  0  0
   38.4550   26.0490   30.4280 O   0  0  0  0  0  0  0  0  0  0  0  0
   35.6700   22.3080   31.3600 C   0  0  0  0  0  0  0  0  0  0  0  0
   35.9260   23.6680   31.3690 C   0  0  0  0  0  0  0  0  0  0  0  0
   37.1770   24.1470   31.0430 C   0  0  0  0  0  0  0  0  0  0  0  0
   38.0980   23.2430   30.7280 N   0  0  0  0  0  0  0  0  0  0  0  0
   37.8450   21.9130   30.7200 C   0  0  0  0  0  0  0  0  0  0  0  0
   36.6410   21.4300   31.0320 N   0  0  0  0  0  0  0  0  0  0  0  0
   34.6810   21.9100   31.6160 H   0  0  0  0  0  0  0  0  0  0  0  0
   35.1120   24.3550   31.6390 H   0  0  0  0  0  0  0  0  0  0  0  0
   38.6010   21.1770   30.4620 H   0  0  0  0  0  0  0  0  0  0  0  0
  1  4  1  6  0  0  0
  1  3  1  0  0  0  0
  2  1  1  0  0  0  0
  2  3  1  0  0  0  0
  3  7  1  1  0  0  0
  3  9  1  0  0  0  0
  5  2  1  0  0  0  0
  6  2  1  0  0  0  0
  8 13  1  0  0  0  0
  8 15  1  1  0  0  0
  9 10  1  1  0  0  0
  9  8  1  0  0  0  0
 10 12  1  0  0  0  0
 11 10  1  0  0  0  0
 12 13  1  0  0  0  0
 14 13  1  0  0  0  0
 15 16  1  0  0  0  0
 17  1  1  0  0  0  0
 18 17  2  0  0  0  0
 19 20  1  0  0  0  0
 19 25  1  0  0  0  0
 20 26  1  0  0  0  0
 21 17  1  0  0  0  0
 21 20  2  0  0  0  0
 22 21  1  0  0  0  0
 23 22  2  0  0  0  0
 23 24  1  0  0  0  0
 24 19  2  0  0  0  0
 27 23  1  0  0  0  0
M  END
>  <minimizedAffinity>
-4.28759623

$$$$
