REMARK  Name = 
REMARK  3 active torsions:
REMARK  status: ('A' for Active; 'I' for Inactive)
REMARK    1  A    between atoms: C_2  and  C_7
REMARK    2  A    between atoms: C_11  and  C_21
REMARK    3  A    between atoms: O_19  and  C_20
REMARK                            x       y       z     vdW  Elec       q    Type
REMARK                         _______ _______ _______ _____ _____    ______ ____
ROOT
ATOM      1  C   UNL     1      38.077  31.985  49.026  0.00  0.00    +0.000 A 
ATOM      2  C   UNL     1      38.548  33.148  49.575  0.00  0.00    +0.000 A 
ATOM      3  C   UNL     1      39.385  34.037  48.935  0.00  0.00    +0.000 A 
ATOM      4  C   UNL     1      39.797  33.763  47.648  0.00  0.00    +0.000 A 
ATOM      5  C   UNL     1      39.316  32.584  47.100  0.00  0.00    +0.000 A 
ATOM      6  N   UNL     1      38.504  31.748  47.756  0.00  0.00    +0.000 NA
ATOM      7  H   UNL     1      38.236  33.385  50.589  0.00  0.00    +0.000 HD
ATOM      8  H   UNL     1      39.721  34.949  49.438  0.00  0.00    +0.000 HD
ATOM      9  H   UNL     1      40.443  34.405  47.093  0.00  0.00    +0.000 HD
ENDROOT
BRANCH   1  11
ATOM     10  C   UNL     1      37.521  30.437  50.926  0.00  0.00    +0.000 A 
ATOM     11  C   UNL     1      37.196  31.061  49.715  0.00  0.00    +0.000 A 
ATOM     12  C   UNL     1      35.965  30.779  49.142  0.00  0.00    +0.000 A 
ATOM     13  N   UNL     1      35.136  29.913  49.785  0.00  0.00    +0.000 NA
ATOM     14  C   UNL     1      35.476  29.329  50.948  0.00  0.00    +0.000 A 
ATOM     15  N   UNL     1      36.655  29.585  51.518  0.00  0.00    +0.000 NA
ATOM     16  H   UNL     1      38.500  30.699  51.324  0.00  0.00    +0.000 HD
ATOM     17  H   UNL     1      35.611  31.193  48.225  0.00  0.00    +0.000 HD
ATOM     18  H   UNL     1      34.843  28.637  51.486  0.00  0.00    +0.000 HD
ENDBRANCH   1  11
BRANCH   5  20
ATOM     19  C   UNL     1      39.218  33.283  44.713  0.00  0.00    +0.000 C 
ATOM     20  C   UNL     1      39.729  32.246  45.722  0.00  0.00    +0.000 C 
ATOM     21  C   UNL     1      39.053  31.029  45.157  0.00  0.00    +0.000 C 
ATOM     22  H   UNL     1      37.954  31.042  45.307  0.00  0.00    +0.000 HD
ATOM     23  O   UNL     1      39.273  31.138  43.793  0.00  0.00    +0.000 OA
ATOM     24  C   UNL     1      39.353  32.469  43.449  0.00  0.00    +0.000 C 
ATOM     25  H   UNL     1      40.408  32.639  43.090  0.00  0.00    +0.000 HD
BRANCH  19  26
ATOM     26  O   UNL     1      37.894  33.575  44.976  0.00  0.00    +0.000 OA
ATOM     27  H   UNL     1      37.410  33.782  44.114  0.00  0.00    +0.000 HD
ENDBRANCH  19  26
ENDBRANCH   5  20
TORSDOF 3
