
 OpenBabel03272504023D

 41 44  0  0  1  0  0  0  0  0999 V2000
   34.4250   29.1780   49.0040 C   0  0  0  0  0  0  0  0  0  0  0  0
   33.7150   30.0550   49.0030 H   0  0  0  0  0  0  0  0  0  0  0  0
   34.1170   28.5490   49.8330 H   0  0  0  0  0  0  0  0  0  0  0  0
   35.7650   29.7610   49.1840 C   0  0  0  0  0  0  0  0  0  0  0  0
   36.6810   29.2470   50.1120 C   0  0  0  0  0  0  0  0  0  0  0  0
   37.8140   30.0070   50.0280 C   0  0  0  0  0  0  0  0  0  0  0  0
   37.6000   30.9430   49.0930 N   0  0  0  0  0  0  0  0  0  0  0  0
   36.3870   30.7660   48.6200 N   0  0  0  0  0  0  0  0  0  0  0  0
   36.5420   28.4050   50.7820 H   0  0  0  0  0  0  0  0  0  0  0  0
   38.7480   29.9400   50.5730 H   0  0  0  0  0  0  0  0  0  0  0  0
   38.4130   31.9880   48.5920 C   0  0  0  0  0  0  0  0  0  0  0  0
   38.6420   33.0410   49.4390 C   0  0  0  0  0  0  0  0  0  0  0  0
   39.4180   34.1560   49.1160 C   0  0  0  0  0  0  0  0  0  0  0  0
   39.9750   34.1540   47.8390 C   0  0  0  0  0  0  0  0  0  0  0  0
   39.7570   33.1100   46.9760 C   0  0  0  0  0  0  0  0  0  0  0  0
   38.9850   32.0200   47.3240 C   0  0  0  0  0  0  0  0  0  0  0  0
   38.2250   33.0750   50.4410 H   0  0  0  0  0  0  0  0  0  0  0  0
   39.5810   34.9720   49.8080 H   0  0  0  0  0  0  0  0  0  0  0  0
   40.5850   34.9700   47.5030 H   0  0  0  0  0  0  0  0  0  0  0  0
   40.1460   33.0220   45.9690 H   0  0  0  0  0  0  0  0  0  0  0  0
   38.7720   31.1740   46.7090 H   0  0  0  0  0  0  0  0  0  0  0  0
   34.2470   28.4780   47.7070 C   0  0  0  0  0  0  0  0  0  0  0  0
   35.1280   27.7940   47.5850 H   0  0  0  0  0  0  0  0  0  0  0  0
   33.3840   27.7730   47.8250 H   0  0  0  0  0  0  0  0  0  0  0  0
   33.9800   29.2810   46.5460 C   0  0  0  0  0  0  0  0  0  0  0  0
   32.7210   29.7330   46.2790 C   0  0  0  0  0  0  0  0  0  0  0  0
   32.4620   30.5230   45.1360 C   0  0  0  0  0  0  0  0  0  0  0  0
   33.5480   30.7950   44.3300 N   0  0  0  0  0  0  0  0  0  0  0  0
   34.7770   30.3270   44.6330 C   0  0  0  0  0  0  0  0  0  0  0  0
   34.9690   29.5780   45.7360 N   0  0  0  0  0  0  0  0  0  0  0  0
   31.8790   29.5040   46.9320 H   0  0  0  0  0  0  0  0  0  0  0  0
   31.4660   30.8840   44.9210 H   0  0  0  0  0  0  0  0  0  0  0  0
   36.3240   29.4840   42.8570 C   0  0  2  0  0  3  0  0  0  0  0  0
   35.9360   30.6400   43.7380 C   0  0  1  0  0  3  0  0  0  0  0  0
   35.5060   31.6890   42.7510 C   0  0  0  0  0  3  0  0  0  0  0  0
   34.3930   31.8260   42.7720 H   0  0  0  0  0  0  0  0  0  0  0  0
   35.8680   31.2090   41.4870 O   0  0  0  0  0  0  0  0  0  0  0  0
   35.6220   29.8290   41.5710 C   0  0  0  0  0  3  0  0  0  0  0  0
   34.5430   29.6110   41.6280 H   0  0  0  0  0  0  0  0  0  0  0  0
   35.9850   28.2460   43.3500 O   0  0  0  0  0  0  0  0  0  0  0  0
   36.7800   27.6590   43.5300 H   0  0  0  0  0  0  0  0  0  0  0  0
  1  4  1  0  0  0  0
  1  3  1  0  0  0  0
  2  1  1  0  0  0  0
  4  5  1  0  0  0  0
  5  9  1  0  0  0  0
  6  5  2  0  0  0  0
  6 10  1  0  0  0  0
  7  6  1  0  0  0  0
  8  7  1  0  0  0  0
  8  4  2  0  0  0  0
 11  7  1  0  0  0  0
 11 12  1  0  0  0  0
 12 17  1  0  0  0  0
 13 12  2  0  0  0  0
 13 18  1  0  0  0  0
 14 13  1  0  0  0  0
 15 16  1  0  0  0  0
 15 14  2  0  0  0  0
 16 11  2  0  0  0  0
 19 14  1  0  0  0  0
 20 15  1  0  0  0  0
 21 16  1  0  0  0  0
 22 24  1  0  0  0  0
 22  1  1  0  0  0  0
 23 22  1  0  0  0  0
 25 22  1  0  0  0  0
 26 25  1  0  0  0  0
 26 31  1  0  0  0  0
 27 26  2  0  0  0  0
 28 29  2  0  0  0  0
 28 27  1  0  0  0  0
 29 30  1  0  0  0  0
 30 25  2  0  0  0  0
 32 27  1  0  0  0  0
 33 40  1  1  0  0  0
 33 34  1  0  0  0  0
 34 29  1  1  0  0  0
 35 36  1  0  0  0  0
 35 34  1  0  0  0  0
 37 38  1  0  0  0  0
 37 35  1  0  0  0  0
 38 39  1  0  0  0  0
 38 33  1  0  0  0  0
 40 41  1  0  0  0  0
M  END
>  <minimizedAffinity>
-5.51600695

>  <minimizedRMSD>
0.461955249

$$$$
