REMARK  Name = 
REMARK  3 active torsions:
REMARK  status: ('A' for Active; 'I' for Inactive)
REMARK    1  A    between atoms: C_1  and  C_7
REMARK    2  A    between atoms: C_5  and  C_19
REMARK    3  A    between atoms: O_17  and  C_18
REMARK                            x       y       z     vdW  Elec       q    Type
REMARK                         _______ _______ _______ _____ _____    ______ ____
ROOT
ATOM      1  C   UNL     1      37.008  31.152  49.247  0.00  0.00    +0.000 A 
ATOM      2  C   UNL     1      37.317  32.440  49.719  0.00  0.00    +0.000 A 
ATOM      3  C   UNL     1      38.300  33.119  49.020  0.00  0.00    +0.000 A 
ATOM      4  N   UNL     1      38.911  32.539  47.940  0.00  0.00    +0.000 NA
ATOM      5  C   UNL     1      38.580  31.289  47.517  0.00  0.00    +0.000 A 
ATOM      6  N   UNL     1      37.621  30.597  48.181  0.00  0.00    +0.000 NA
ATOM      7  H   UNL     1      36.829  32.868  50.559  0.00  0.00    +0.000 HD
ATOM      8  H   UNL     1      38.566  34.113  49.354  0.00  0.00    +0.000 HD
ENDROOT
BRANCH   1   9
ATOM      9  C   UNL     1      35.923  30.397  49.972  0.00  0.00    +0.000 C 
ATOM     10  C   UNL     1      35.805  28.949  49.848  0.00  0.00    +0.000 C 
ATOM     11  C   UNL     1      36.469  29.507  51.078  0.00  0.00    +0.000 C 
ATOM     12  H   UNL     1      35.065  31.058  50.256  0.00  0.00    +0.000 HD
ATOM     13  H   UNL     1      36.495  28.459  49.099  0.00  0.00    +0.000 HD
ATOM     14  H   UNL     1      34.827  28.452  49.896  0.00  0.00    +0.000 HD
ATOM     15  H   UNL     1      37.548  29.422  51.238  0.00  0.00    +0.000 HD
ATOM     16  H   UNL     1      35.820  29.474  51.975  0.00  0.00    +0.000 HD
ENDBRANCH   1   9
BRANCH   5  18
ATOM     17  C   UNL     1      39.435  31.720  45.218  0.00  0.00    +0.000 C 
ATOM     18  C   UNL     1      39.282  30.717  46.337  0.00  0.00    +0.000 C 
ATOM     19  C   UNL     1      38.527  29.585  45.697  0.00  0.00    +0.000 C 
ATOM     20  H   UNL     1      38.895  28.628  46.106  0.00  0.00    +0.000 HD
ATOM     21  O   UNL     1      38.712  29.683  44.336  0.00  0.00    +0.000 OA
ATOM     22  C   UNL     1      38.795  31.050  44.043  0.00  0.00    +0.000 C 
ATOM     23  H   UNL     1      37.799  31.492  43.849  0.00  0.00    +0.000 HD
BRANCH  17  24
ATOM     24  O   UNL     1      40.768  31.975  44.894  0.00  0.00    +0.000 OA
ATOM     25  H   UNL     1      41.297  31.190  45.233  0.00  0.00    +0.000 HD
ENDBRANCH  17  24
ENDBRANCH   5  18
TORSDOF 3
