
 OpenBabel03272505263D

 31 33  0  0  1  0  0  0  0  0999 V2000
   37.3740   31.0710   47.1020 N   0  0  0  0  0  0  0  0  0  0  0  0
   36.7990   30.7420   45.9140 C   0  0  0  0  0  0  0  0  0  0  0  0
   37.2770   31.2150   44.7030 C   0  0  0  0  0  0  0  0  0  0  0  0
   38.3970   32.0620   44.7410 C   0  0  0  0  0  0  0  0  0  0  0  0
   38.8570   32.5080   43.6700 O   0  0  0  0  0  0  0  0  0  0  0  0
   38.9750   32.3940   45.9300 N   0  0  0  0  0  0  0  0  0  0  0  0
   38.4190   31.8730   47.0330 C   0  0  0  0  0  0  0  0  0  0  0  0
   38.9800   32.2050   48.1020 O   0  0  0  0  0  0  0  0  0  0  0  0
   35.9330   30.0830   45.9190 H   0  0  0  0  0  0  0  0  0  0  0  0
   37.2250   29.4730   50.4500 C   0  0  0  0  0  0  0  0  0  0  0  0
   37.7130   29.9610   49.2310 C   0  0  0  0  0  0  0  0  0  0  0  0
   36.8820   30.5820   48.3140 C   0  0  0  0  0  0  0  0  0  0  0  0
   35.5580   30.7100   48.6240 N   0  0  0  0  0  0  0  0  0  0  0  0
   35.0750   30.2350   49.8130 C   0  0  0  0  0  0  0  0  0  0  0  0
   35.8920   29.6250   50.7160 N   0  0  0  0  0  0  0  0  0  0  0  0
   37.7990   28.9860   51.2050 H   0  0  0  0  0  0  0  0  0  0  0  0
   38.7660   29.7640   49.1530 H   0  0  0  0  0  0  0  0  0  0  0  0
   34.0270   30.3970   49.9320 H   0  0  0  0  0  0  0  0  0  0  0  0
   37.4990   31.1350   42.3000 C   0  0  2  0  0  3  0  0  0  0  0  0
   36.6100   30.8190   43.4790 C   0  0  2  0  0  3  0  0  0  0  0  0
   35.3570   31.5580   43.1460 C   0  0  0  0  0  3  0  0  0  0  0  0
   34.7410   31.8600   43.9970 H   0  0  0  0  0  0  0  0  0  0  0  0
   35.6960   32.6050   42.3020 O   0  0  0  0  0  0  0  0  0  0  0  0
   36.7030   32.1270   41.5060 C   0  0  0  0  0  3  0  0  0  0  0  0
   36.3090   31.6480   40.5640 H   0  0  0  0  0  0  0  0  0  0  0  0
   37.7360   29.9570   41.5650 O   0  0  0  0  0  0  0  0  0  0  0  0
   38.2210   29.3290   42.1470 H   0  0  0  0  0  0  0  0  0  0  0  0
   40.1260   33.2660   45.9640 C   0  0  0  0  0  0  0  0  0  0  0  0
   39.9720   34.2630   45.0270 F   0  0  0  0  0  0  0  0  0  0  0  0
   41.3070   32.6270   45.6890 F   0  0  0  0  0  0  0  0  0  0  0  0
   40.1750   33.8870   47.2120 F   0  0  0  0  0  0  0  0  0  0  0  0
  1 12  1  0  0  0  0
  2  9  1  0  0  0  0
  2  1  1  0  0  0  0
  3  4  1  0  0  0  0
  3  2  2  0  0  0  0
  4  6  1  0  0  0  0
  5  4  2  0  0  0  0
  6 28  1  0  0  0  0
  6  7  1  0  0  0  0
  7  1  1  0  0  0  0
  7  8  2  0  0  0  0
 10 15  1  0  0  0  0
 10 16  1  0  0  0  0
 11 10  2  0  0  0  0
 12 13  2  0  0  0  0
 12 11  1  0  0  0  0
 13 14  1  0  0  0  0
 14 18  1  0  0  0  0
 14 15  2  0  0  0  0
 17 11  1  0  0  0  0
 19 26  1  6  0  0  0
 19 20  1  0  0  0  0
 20  3  1  1  0  0  0
 21 20  1  0  0  0  0
 21 22  1  0  0  0  0
 23 21  1  0  0  0  0
 24 19  1  0  0  0  0
 24 23  1  0  0  0  0
 25 24  1  0  0  0  0
 26 27  1  0  0  0  0
 28 31  1  0  0  0  0
 29 28  1  0  0  0  0
 30 28  1  0  0  0  0
M  END
>  <minimizedAffinity>
-6.20256901

>  <minimizedRMSD>
0.448265344

$$$$
