
 OpenBabel03262523273D

 40 43  0  0  1  0  0  0  0  0999 V2000
   37.3510   27.0800   34.2490 C   0  0  0  0  0  0  0  0  0  0  0  0
   38.3950   27.2590   33.3380 C   0  0  0  0  0  0  0  0  0  0  0  0
   39.4420   26.3600   33.3680 C   0  0  0  0  0  0  0  0  0  0  0  0
   39.3910   25.3540   34.2850 N   0  0  0  0  0  0  0  0  0  0  0  0
   38.3630   25.2040   35.1570 C   0  0  0  0  0  0  0  0  0  0  0  0
   37.3520   26.0620   35.1370 N   0  0  0  0  0  0  0  0  0  0  0  0
   38.3990   24.1060   36.0970 N   0  0  0  0  0  0  0  0  0  0  0  0
   38.0500   24.3370   37.4730 C   0  0  0  0  0  0  0  0  0  0  0  0
   38.7670   23.4090   38.4250 C   0  0  0  0  0  0  0  0  0  0  0  0
   40.0070   22.8920   37.7350 C   0  0  0  0  0  0  0  0  0  0  0  0
   39.5270   21.9780   36.6340 C   0  0  0  0  0  0  0  0  0  0  0  0
   38.7980   22.7800   35.6180 C   0  0  1  0  0  0  0  0  0  0  0  0
   36.5460   27.8060   34.1940 H   0  0  0  0  0  0  0  0  0  0  0  0
   38.4270   28.0630   32.6120 H   0  0  0  0  0  0  0  0  0  0  0  0
   40.2960   26.4180   32.7010 H   0  0  0  0  0  0  0  0  0  0  0  0
   38.3120   25.3890   37.7230 H   0  0  0  0  0  0  0  0  0  0  0  0
   36.9460   24.2240   37.5850 H   0  0  0  0  0  0  0  0  0  0  0  0
   39.0520   23.9050   39.3740 H   0  0  0  0  0  0  0  0  0  0  0  0
   38.0990   22.5560   38.6480 H   0  0  0  0  0  0  0  0  0  0  0  0
   40.5770   23.7530   37.3310 H   0  0  0  0  0  0  0  0  0  0  0  0
   40.6740   22.3140   38.3810 H   0  0  0  0  0  0  0  0  0  0  0  0
   38.9840   21.1490   37.0780 H   0  0  0  0  0  0  0  0  0  0  0  0
   40.4640   21.5290   36.1910 H   0  0  0  0  0  0  0  0  0  0  0  0
   39.5010   23.0090   34.7630 H   0  0  0  0  0  0  0  0  0  0  0  0
   37.6710   22.0630   35.0060 C   0  0  0  0  0  0  0  0  0  0  0  0
   36.6400   21.3870   35.6570 C   0  0  0  0  0  0  0  0  0  0  0  0
   35.6620   20.7760   34.9230 C   0  0  0  0  0  0  0  0  0  0  0  0
   35.7830   20.8850   33.4730 C   0  0  0  0  0  0  0  0  0  0  0  0
   37.3650   21.9030   33.3150 S   0  0  0  0  0  0  0  0  0  0  0  0
   36.4970   21.2750   36.7240 H   0  0  0  0  0  0  0  0  0  0  0  0
   34.7960   20.2140   35.1260 H   0  0  0  0  0  0  0  0  0  0  0  0
   35.0930   18.9710   32.0930 C   0  0  1  0  0  3  0  0  0  0  0  0
   35.1090   20.4790   32.2860 C   0  0  2  0  0  3  0  0  0  0  0  0
   35.9010   20.9390   31.0880 C   0  0  0  0  0  3  0  0  0  0  0  0
   35.3760   21.7980   30.6040 H   0  0  0  0  0  0  0  0  0  0  0  0
   36.0260   19.8650   30.2350 O   0  0  0  0  0  0  0  0  0  0  0  0
   36.2200   18.7980   31.1040 C   0  0  0  0  0  3  0  0  0  0  0  0
   37.1710   18.8960   31.6570 H   0  0  0  0  0  0  0  0  0  0  0  0
   35.3340   18.3010   33.2820 O   0  0  0  0  0  0  0  0  0  0  0  0
   35.3690   18.9670   34.0110 H   0  0  0  0  0  0  0  0  0  0  0  0
  1  6  1  0  0  0  0
  2  3  1  0  0  0  0
  2  1  2  0  0  0  0
  3  4  2  0  0  0  0
  4  5  1  0  0  0  0
  5  7  1  0  0  0  0
  6  5  2  0  0  0  0
  7  8  1  0  0  0  0
  8 17  1  0  0  0  0
  8 16  1  0  0  0  0
  8  9  1  0  0  0  0
  9 19  1  0  0  0  0
  9 18  1  0  0  0  0
 10 21  1  0  0  0  0
 10  9  1  0  0  0  0
 11 22  1  0  0  0  0
 11 10  1  0  0  0  0
 12 24  1  6  0  0  0
 12  7  1  0  0  0  0
 12 11  1  0  0  0  0
 13  1  1  0  0  0  0
 14  2  1  0  0  0  0
 15  3  1  0  0  0  0
 20 10  1  0  0  0  0
 23 11  1  0  0  0  0
 25 12  1  0  0  0  0
 25 26  2  0  0  0  0
 26 30  1  0  0  0  0
 27 31  1  0  0  0  0
 27 26  1  0  0  0  0
 28 27  2  0  0  0  0
 29 28  1  0  0  0  0
 29 25  1  0  0  0  0
 32 33  1  0  0  0  0
 32 39  1  1  0  0  0
 33 28  1  1  0  0  0
 34 33  1  0  0  0  0
 35 34  1  0  0  0  0
 36 34  1  0  0  0  0
 36 37  1  0  0  0  0
 37 38  1  0  0  0  0
 37 32  1  0  0  0  0
 39 40  1  0  0  0  0
M  END
>  <minimizedAffinity>
-6.48852015

$$$$

 OpenBabel03262523273D

 40 43  0  0  1  0  0  0  0  0999 V2000
   38.3700   20.9930   32.7120 C   0  0  0  0  0  0  0  0  0  0  0  0
   37.0430   20.5570   32.7400 C   0  0  0  0  0  0  0  0  0  0  0  0
   36.2680   20.9080   33.8260 C   0  0  0  0  0  0  0  0  0  0  0  0
   36.8450   21.6600   34.8030 N   0  0  0  0  0  0  0  0  0  0  0  0
   38.1370   22.0710   34.7490 C   0  0  0  0  0  0  0  0  0  0  0  0
   38.8910   21.7390   33.7110 N   0  0  0  0  0  0  0  0  0  0  0  0
   38.6630   22.8640   35.8380 N   0  0  0  0  0  0  0  0  0  0  0  0
   39.9630   22.5620   36.3750 C   0  0  0  0  0  0  0  0  0  0  0  0
   40.0920   22.9140   37.8380 C   0  0  0  0  0  0  0  0  0  0  0  0
   38.7040   22.9720   38.4320 C   0  0  0  0  0  0  0  0  0  0  0  0
   38.0370   24.1840   37.8270 C   0  0  0  0  0  0  0  0  0  0  0  0
   37.8490   23.9600   36.3710 C   0  0  1  0  0  0  0  0  0  0  0  0
   38.9470   20.6980   31.8420 H   0  0  0  0  0  0  0  0  0  0  0  0
   36.5930   19.9580   31.9560 H   0  0  0  0  0  0  0  0  0  0  0  0
   35.2290   20.6150   33.9360 H   0  0  0  0  0  0  0  0  0  0  0  0
   40.1420   21.4710   36.2450 H   0  0  0  0  0  0  0  0  0  0  0  0
   40.7310   23.1080   35.7790 H   0  0  0  0  0  0  0  0  0  0  0  0
   40.7040   22.1830   38.4020 H   0  0  0  0  0  0  0  0  0  0  0  0
   40.5570   23.9140   37.9140 H   0  0  0  0  0  0  0  0  0  0  0  0
   38.1640   22.0380   38.1750 H   0  0  0  0  0  0  0  0  0  0  0  0
   38.6850   23.0900   39.5200 H   0  0  0  0  0  0  0  0  0  0  0  0
   38.5950   25.0700   38.1130 H   0  0  0  0  0  0  0  0  0  0  0  0
   37.0400   24.2670   38.3500 H   0  0  0  0  0  0  0  0  0  0  0  0
   36.7880   23.6130   36.1910 H   0  0  0  0  0  0  0  0  0  0  0  0
   37.9920   25.1830   35.5680 C   0  0  0  0  0  0  0  0  0  0  0  0
   38.4770   26.4210   35.9860 C   0  0  0  0  0  0  0  0  0  0  0  0
   38.5470   27.4560   35.0960 C   0  0  0  0  0  0  0  0  0  0  0  0
   38.0960   27.1690   33.7390 C   0  0  0  0  0  0  0  0  0  0  0  0
   37.5950   25.3550   33.8980 S   0  0  0  0  0  0  0  0  0  0  0  0
   38.8260   26.6920   36.9750 H   0  0  0  0  0  0  0  0  0  0  0  0
   38.8540   28.4620   35.1210 H   0  0  0  0  0  0  0  0  0  0  0  0
   36.6040   28.5010   32.3090 C   0  0  1  0  0  3  0  0  0  0  0  0
   37.9490   27.8110   32.4760 C   0  0  2  0  0  3  0  0  0  0  0  0
   37.9000   26.7630   31.3930 C   0  0  0  0  0  3  0  0  0  0  0  0
   38.8630   26.7710   30.8270 H   0  0  0  0  0  0  0  0  0  0  0  0
   36.8240   27.0510   30.5840 O   0  0  0  0  0  0  0  0  0  0  0  0
   35.8590   27.4760   31.4900 C   0  0  0  0  0  3  0  0  0  0  0  0
   35.5550   26.6590   32.1680 H   0  0  0  0  0  0  0  0  0  0  0  0
   35.9950   28.7370   33.5310 O   0  0  0  0  0  0  0  0  0  0  0  0
   36.6270   28.4830   34.2460 H   0  0  0  0  0  0  0  0  0  0  0  0
  1  2  2  0  0  0  0
  1  6  1  0  0  0  0
  2  3  1  0  0  0  0
  3 15  1  0  0  0  0
  3  4  2  0  0  0  0
  5  4  1  0  0  0  0
  5  7  1  0  0  0  0
  6  5  2  0  0  0  0
  7 12  1  0  0  0  0
  7  8  1  0  0  0  0
  8  9  1  0  0  0  0
  9 19  1  0  0  0  0
  9 18  1  0  0  0  0
  9 10  1  0  0  0  0
 10 21  1  0  0  0  0
 11 22  1  0  0  0  0
 11 23  1  0  0  0  0
 11 10  1  0  0  0  0
 12 24  1  6  0  0  0
 12 11  1  0  0  0  0
 13  1  1  0  0  0  0
 14  2  1  0  0  0  0
 16  8  1  0  0  0  0
 17  8  1  0  0  0  0
 20 10  1  0  0  0  0
 25 26  2  0  0  0  0
 25 12  1  0  0  0  0
 26 30  1  0  0  0  0
 27 31  1  0  0  0  0
 27 26  1  0  0  0  0
 28 29  1  0  0  0  0
 28 27  2  0  0  0  0
 29 25  1  0  0  0  0
 32 33  1  0  0  0  0
 32 39  1  1  0  0  0
 33 28  1  1  0  0  0
 34 33  1  0  0  0  0
 35 34  1  0  0  0  0
 36 34  1  0  0  0  0
 36 37  1  0  0  0  0
 37 38  1  0  0  0  0
 37 32  1  0  0  0  0
 39 40  1  0  0  0  0
M  END
>  <minimizedAffinity>
-5.8966403

$$$$

 OpenBabel03262523273D

 40 43  0  0  1  0  0  0  0  0999 V2000
   38.2430   23.0600   37.1220 C   0  0  0  0  0  0  0  0  0  0  0  0
   39.6260   22.8740   37.0670 C   0  0  0  0  0  0  0  0  0  0  0  0
   40.1570   22.2880   35.9360 C   0  0  0  0  0  0  0  0  0  0  0  0
   39.2970   21.9280   34.9430 N   0  0  0  0  0  0  0  0  0  0  0  0
   37.9570   22.1210   35.0230 C   0  0  0  0  0  0  0  0  0  0  0  0
   37.4360   22.6830   36.1060 N   0  0  0  0  0  0  0  0  0  0  0  0
   37.1240   21.7020   33.9190 N   0  0  0  0  0  0  0  0  0  0  0  0
   35.8990   20.9940   34.1800 C   0  0  0  0  0  0  0  0  0  0  0  0
   35.5220   20.0410   33.0720 C   0  0  0  0  0  0  0  0  0  0  0  0
   36.7700   19.7130   32.2870 C   0  0  0  0  0  0  0  0  0  0  0  0
   37.1560   20.9780   31.5600 C   0  0  0  0  0  0  0  0  0  0  0  0
   37.5550   22.0080   32.5520 C   0  0  1  0  0  0  0  0  0  0  0  0
   37.8640   23.5240   38.0270 H   0  0  0  0  0  0  0  0  0  0  0  0
   40.3020   23.1640   37.8630 H   0  0  0  0  0  0  0  0  0  0  0  0
   41.2170   22.1030   35.8030 H   0  0  0  0  0  0  0  0  0  0  0  0
   36.0290   20.4200   35.1250 H   0  0  0  0  0  0  0  0  0  0  0  0
   35.0840   21.7380   34.3420 H   0  0  0  0  0  0  0  0  0  0  0  0
   35.0660   19.1040   33.4480 H   0  0  0  0  0  0  0  0  0  0  0  0
   34.8040   20.5520   32.4040 H   0  0  0  0  0  0  0  0  0  0  0  0
   37.5620   19.3900   32.9930 H   0  0  0  0  0  0  0  0  0  0  0  0
   36.6380   18.9260   31.5390 H   0  0  0  0  0  0  0  0  0  0  0  0
   36.3560   21.2470   30.8770 H   0  0  0  0  0  0  0  0  0  0  0  0
   38.0320   20.6910   30.9080 H   0  0  0  0  0  0  0  0  0  0  0  0
   38.6840   22.0210   32.6290 H   0  0  0  0  0  0  0  0  0  0  0  0
   37.1840   23.3740   32.1590 C   0  0  0  0  0  0  0  0  0  0  0  0
   35.9750   23.8010   31.6110 C   0  0  0  0  0  0  0  0  0  0  0  0
   35.7980   25.1220   31.3090 C   0  0  0  0  0  0  0  0  0  0  0  0
   36.9240   26.0040   31.5950 C   0  0  0  0  0  0  0  0  0  0  0  0
   38.1760   24.7790   32.3010 S   0  0  0  0  0  0  0  0  0  0  0  0
   35.1070   23.1960   31.3790 H   0  0  0  0  0  0  0  0  0  0  0  0
   35.0290   25.7130   30.9010 H   0  0  0  0  0  0  0  0  0  0  0  0
   36.8170   28.2080   32.6790 C   0  0  1  0  0  3  0  0  0  0  0  0
   37.2900   27.3770   31.4980 C   0  0  2  0  0  3  0  0  0  0  0  0
   36.5400   28.0070   30.3520 C   0  0  0  0  0  3  0  0  0  0  0  0
   37.2410   28.1810   29.5000 H   0  0  0  0  0  0  0  0  0  0  0  0
   35.9870   29.1810   30.8120 O   0  0  0  0  0  0  0  0  0  0  0  0
   35.5810   28.8500   32.1000 C   0  0  0  0  0  3  0  0  0  0  0  0
   34.7800   28.0890   32.0870 H   0  0  0  0  0  0  0  0  0  0  0  0
   36.5280   27.4150   33.7780 O   0  0  0  0  0  0  0  0  0  0  0  0
   36.7880   26.4860   33.5670 H   0  0  0  0  0  0  0  0  0  0  0  0
  1 13  1  0  0  0  0
  2  1  1  0  0  0  0
  2 14  1  0  0  0  0
  3  2  2  0  0  0  0
  4  5  2  0  0  0  0
  4  3  1  0  0  0  0
  5  6  1  0  0  0  0
  6  1  2  0  0  0  0
  7  8  1  0  0  0  0
  7  5  1  0  0  0  0
  8 17  1  0  0  0  0
  8 16  1  0  0  0  0
  9 18  1  0  0  0  0
  9  8  1  0  0  0  0
 10 20  1  0  0  0  0
 10  9  1  0  0  0  0
 11 10  1  0  0  0  0
 11 12  1  0  0  0  0
 12 24  1  1  0  0  0
 12  7  1  0  0  0  0
 15  3  1  0  0  0  0
 19  9  1  0  0  0  0
 21 10  1  0  0  0  0
 22 11  1  0  0  0  0
 23 11  1  0  0  0  0
 25 29  1  0  0  0  0
 25 12  1  0  0  0  0
 26 25  2  0  0  0  0
 27 28  2  0  0  0  0
 27 26  1  0  0  0  0
 28 29  1  0  0  0  0
 30 26  1  0  0  0  0
 31 27  1  0  0  0  0
 32 39  1  1  0  0  0
 33 28  1  1  0  0  0
 33 32  1  0  0  0  0
 34 36  1  0  0  0  0
 34 33  1  0  0  0  0
 35 34  1  0  0  0  0
 36 37  1  0  0  0  0
 37 32  1  0  0  0  0
 38 37  1  0  0  0  0
 40 39  1  0  0  0  0
M  END
>  <minimizedAffinity>
-5.71100807

$$$$

 OpenBabel03262523273D

 40 43  0  0  1  0  0  0  0  0999 V2000
   42.3810   22.1600   35.7410 C   0  0  0  0  0  0  0  0  0  0  0  0
   41.9430   21.4780   36.8780 C   0  0  0  0  0  0  0  0  0  0  0  0
   40.7670   21.8920   37.4700 C   0  0  0  0  0  0  0  0  0  0  0  0
   40.1070   22.9410   36.9070 N   0  0  0  0  0  0  0  0  0  0  0  0
   40.5550   23.5860   35.8010 C   0  0  0  0  0  0  0  0  0  0  0  0
   41.6840   23.1960   35.2240 N   0  0  0  0  0  0  0  0  0  0  0  0
   39.7870   24.6930   35.2780 N   0  0  0  0  0  0  0  0  0  0  0  0
   40.4600   25.8990   34.8740 C   0  0  0  0  0  0  0  0  0  0  0  0
   39.6050   27.1330   35.0360 C   0  0  0  0  0  0  0  0  0  0  0  0
   38.5260   26.8280   36.0470 C   0  0  0  0  0  0  0  0  0  0  0  0
   37.6010   25.8320   35.3910 C   0  0  0  0  0  0  0  0  0  0  0  0
   38.3320   24.5570   35.1760 C   0  0  1  0  0  0  0  0  0  0  0  0
   43.3090   21.8050   35.3040 H   0  0  0  0  0  0  0  0  0  0  0  0
   42.4760   20.6430   37.3190 H   0  0  0  0  0  0  0  0  0  0  0  0
   40.3480   21.4240   38.3550 H   0  0  0  0  0  0  0  0  0  0  0  0
   41.3760   26.0060   35.4980 H   0  0  0  0  0  0  0  0  0  0  0  0
   40.7810   25.7890   33.8120 H   0  0  0  0  0  0  0  0  0  0  0  0
   40.1850   28.0160   35.3700 H   0  0  0  0  0  0  0  0  0  0  0  0
   39.1310   27.3560   34.0620 H   0  0  0  0  0  0  0  0  0  0  0  0
   38.9970   26.4080   36.9590 H   0  0  0  0  0  0  0  0  0  0  0  0
   37.9260   27.6950   36.3410 H   0  0  0  0  0  0  0  0  0  0  0  0
   37.1590   26.2910   34.5120 H   0  0  0  0  0  0  0  0  0  0  0  0
   36.7520   25.6880   36.1210 H   0  0  0  0  0  0  0  0  0  0  0  0
   38.0740   23.8450   36.0160 H   0  0  0  0  0  0  0  0  0  0  0  0
   37.9360   23.8560   33.9470 C   0  0  0  0  0  0  0  0  0  0  0  0
   37.6180   24.4210   32.7120 C   0  0  0  0  0  0  0  0  0  0  0  0
   37.2760   23.6110   31.6660 C   0  0  0  0  0  0  0  0  0  0  0  0
   37.2720   22.1780   31.9360 C   0  0  0  0  0  0  0  0  0  0  0  0
   37.7850   22.1480   33.7530 S   0  0  0  0  0  0  0  0  0  0  0  0
   37.6060   25.4720   32.4530 H   0  0  0  0  0  0  0  0  0  0  0  0
   36.9960   23.7440   30.6600 H   0  0  0  0  0  0  0  0  0  0  0  0
   35.6190   20.4000   31.5420 C   0  0  1  0  0  3  0  0  0  0  0  0
   37.0150   20.9410   31.2780 C   0  0  2  0  0  3  0  0  0  0  0  0
   37.8860   19.8700   31.8850 C   0  0  0  0  0  3  0  0  0  0  0  0
   38.7060   19.6110   31.1720 H   0  0  0  0  0  0  0  0  0  0  0  0
   37.0810   18.7860   32.1600 O   0  0  0  0  0  0  0  0  0  0  0  0
   35.9080   19.3780   32.6130 C   0  0  0  0  0  3  0  0  0  0  0  0
   36.0700   19.9200   33.5620 H   0  0  0  0  0  0  0  0  0  0  0  0
   34.7620   21.3940   31.9860 O   0  0  0  0  0  0  0  0  0  0  0  0
   35.2380   22.2580   31.9390 H   0  0  0  0  0  0  0  0  0  0  0  0
  1  2  1  0  0  0  0
  2 14  1  0  0  0  0
  2  3  2  0  0  0  0
  3 15  1  0  0  0  0
  4  3  1  0  0  0  0
  5  4  2  0  0  0  0
  6  1  2  0  0  0  0
  6  5  1  0  0  0  0
  7  5  1  0  0  0  0
  8  9  1  0  0  0  0
  8  7  1  0  0  0  0
  8 16  1  0  0  0  0
  9 18  1  0  0  0  0
  9 10  1  0  0  0  0
 10 21  1  0  0  0  0
 10 20  1  0  0  0  0
 11 10  1  0  0  0  0
 11 23  1  0  0  0  0
 12  7  1  0  0  0  0
 12 11  1  0  0  0  0
 12 24  1  1  0  0  0
 13  1  1  0  0  0  0
 17  8  1  0  0  0  0
 19  9  1  0  0  0  0
 22 11  1  0  0  0  0
 25 12  1  0  0  0  0
 26 25  2  0  0  0  0
 27 28  2  0  0  0  0
 27 26  1  0  0  0  0
 28 29  1  0  0  0  0
 29 25  1  0  0  0  0
 30 26  1  0  0  0  0
 31 27  1  0  0  0  0
 32 39  1  1  0  0  0
 32 37  1  0  0  0  0
 33 32  1  0  0  0  0
 33 34  1  0  0  0  0
 33 28  1  1  0  0  0
 34 36  1  0  0  0  0
 35 34  1  0  0  0  0
 36 37  1  0  0  0  0
 37 38  1  0  0  0  0
 40 39  1  0  0  0  0
M  END
>  <minimizedAffinity>
-5.56483603

$$$$

 OpenBabel03262523273D

 40 43  0  0  1  0  0  0  0  0999 V2000
   35.0160   29.0660   32.7680 C   0  0  0  0  0  0  0  0  0  0  0  0
   35.2610   29.7050   31.5500 C   0  0  0  0  0  0  0  0  0  0  0  0
   36.4660   29.4660   30.9230 C   0  0  0  0  0  0  0  0  0  0  0  0
   37.3430   28.6200   31.5310 N   0  0  0  0  0  0  0  0  0  0  0  0
   37.0790   28.0130   32.7150 C   0  0  0  0  0  0  0  0  0  0  0  0
   35.9240   28.2350   33.3270 N   0  0  0  0  0  0  0  0  0  0  0  0
   38.0750   27.1340   33.2860 N   0  0  0  0  0  0  0  0  0  0  0  0
   38.3820   27.2220   34.6890 C   0  0  0  0  0  0  0  0  0  0  0  0
   39.8070   26.8360   35.0050 C   0  0  0  0  0  0  0  0  0  0  0  0
   40.6270   26.9880   33.7450 C   0  0  0  0  0  0  0  0  0  0  0  0
   40.1600   25.9030   32.8050 C   0  0  0  0  0  0  0  0  0  0  0  0
   38.7530   26.1720   32.4120 C   0  0  1  0  0  0  0  0  0  0  0  0
   34.0580   29.2790   33.2300 H   0  0  0  0  0  0  0  0  0  0  0  0
   34.5550   30.3760   31.0740 H   0  0  0  0  0  0  0  0  0  0  0  0
   36.7440   29.9160   29.9760 H   0  0  0  0  0  0  0  0  0  0  0  0
   38.2090   28.2730   35.0120 H   0  0  0  0  0  0  0  0  0  0  0  0
   37.6730   26.5700   35.2510 H   0  0  0  0  0  0  0  0  0  0  0  0
   40.2510   27.4550   35.8100 H   0  0  0  0  0  0  0  0  0  0  0  0
   39.8190   25.7750   35.3140 H   0  0  0  0  0  0  0  0  0  0  0  0
   40.4510   27.9980   33.3220 H   0  0  0  0  0  0  0  0  0  0  0  0
   41.7040   26.8610   33.8900 H   0  0  0  0  0  0  0  0  0  0  0  0
   40.3610   24.9370   33.2570 H   0  0  0  0  0  0  0  0  0  0  0  0
   40.8440   25.9710   31.9090 H   0  0  0  0  0  0  0  0  0  0  0  0
   38.7480   26.6830   31.4030 H   0  0  0  0  0  0  0  0  0  0  0  0
   37.9540   24.9520   32.2250 C   0  0  0  0  0  0  0  0  0  0  0  0
   37.0900   24.6560   31.1730 C   0  0  0  0  0  0  0  0  0  0  0  0
   36.4270   23.4600   31.1580 C   0  0  0  0  0  0  0  0  0  0  0  0
   36.6900   22.5650   32.2780 C   0  0  0  0  0  0  0  0  0  0  0  0
   37.9190   23.5890   33.2820 S   0  0  0  0  0  0  0  0  0  0  0  0
   36.8580   25.2770   30.3170 H   0  0  0  0  0  0  0  0  0  0  0  0
   35.7390   22.9800   30.5230 H   0  0  0  0  0  0  0  0  0  0  0  0
   37.0650   20.1430   32.0880 C   0  0  1  0  0  3  0  0  0  0  0  0
   36.3140   21.2790   32.7630 C   0  0  2  0  0  3  0  0  0  0  0  0
   34.8890   20.9980   32.3570 C   0  0  0  0  0  3  0  0  0  0  0  0
   34.2260   21.0780   33.2520 H   0  0  0  0  0  0  0  0  0  0  0  0
   34.8560   19.7370   31.8030 O   0  0  0  0  0  0  0  0  0  0  0  0
   36.0410   19.6850   31.0790 C   0  0  0  0  0  3  0  0  0  0  0  0
   36.0380   20.4120   30.2480 H   0  0  0  0  0  0  0  0  0  0  0  0
   38.2300   20.5870   31.4850 O   0  0  0  0  0  0  0  0  0  0  0  0
   38.3550   21.5400   31.7160 H   0  0  0  0  0  0  0  0  0  0  0  0
  1 13  1  0  0  0  0
  1  6  1  0  0  0  0
  2  1  2  0  0  0  0
  3  4  2  0  0  0  0
  3  2  1  0  0  0  0
  4  5  1  0  0  0  0
  5  7  1  0  0  0  0
  5  6  2  0  0  0  0
  7  8  1  0  0  0  0
  8  9  1  0  0  0  0
  8 16  1  0  0  0  0
  8 17  1  0  0  0  0
  9 19  1  0  0  0  0
  9 18  1  0  0  0  0
 10 21  1  0  0  0  0
 10  9  1  0  0  0  0
 11 22  1  0  0  0  0
 11 10  1  0  0  0  0
 12 24  1  6  0  0  0
 12 11  1  0  0  0  0
 12  7  1  0  0  0  0
 14  2  1  0  0  0  0
 15  3  1  0  0  0  0
 20 10  1  0  0  0  0
 23 11  1  0  0  0  0
 25 12  1  0  0  0  0
 25 29  1  0  0  0  0
 26 25  2  0  0  0  0
 27 26  1  0  0  0  0
 27 28  2  0  0  0  0
 28 29  1  0  0  0  0
 30 26  1  0  0  0  0
 31 27  1  0  0  0  0
 32 39  1  6  0  0  0
 32 33  1  0  0  0  0
 33 28  1  6  0  0  0
 34 33  1  0  0  0  0
 34 35  1  0  0  0  0
 36 34  1  0  0  0  0
 37 36  1  0  0  0  0
 37 32  1  0  0  0  0
 38 37  1  0  0  0  0
 39 40  1  0  0  0  0
M  END
>  <minimizedAffinity>
-5.41323566

$$$$

 OpenBabel03262523273D

 40 43  0  0  1  0  0  0  0  0999 V2000
   37.7430   20.6050   32.3670 C   0  0  0  0  0  0  0  0  0  0  0  0
   36.4190   20.2660   32.6510 C   0  0  0  0  0  0  0  0  0  0  0  0
   35.8520   20.7720   33.8030 C   0  0  0  0  0  0  0  0  0  0  0  0
   36.6220   21.5730   34.5910 N   0  0  0  0  0  0  0  0  0  0  0  0
   37.9060   21.8870   34.2900 C   0  0  0  0  0  0  0  0  0  0  0  0
   38.4610   21.4060   33.1860 N   0  0  0  0  0  0  0  0  0  0  0  0
   38.6450   22.7430   35.1910 N   0  0  0  0  0  0  0  0  0  0  0  0
   39.9980   22.4040   35.5440 C   0  0  0  0  0  0  0  0  0  0  0  0
   40.3850   22.8860   36.9220 C   0  0  0  0  0  0  0  0  0  0  0  0
   39.1190   23.0970   37.7190 C   0  0  0  0  0  0  0  0  0  0  0  0
   38.4260   24.2880   37.1030 C   0  0  0  0  0  0  0  0  0  0  0  0
   37.9890   23.9390   35.7270 C   0  0  1  0  0  0  0  0  0  0  0  0
   38.1530   20.1880   31.4530 H   0  0  0  0  0  0  0  0  0  0  0  0
   35.8140   19.6270   32.0170 H   0  0  0  0  0  0  0  0  0  0  0  0
   34.8320   20.5640   34.1070 H   0  0  0  0  0  0  0  0  0  0  0  0
   40.0970   21.2970   35.5040 H   0  0  0  0  0  0  0  0  0  0  0  0
   40.6860   22.8370   34.7790 H   0  0  0  0  0  0  0  0  0  0  0  0
   41.0430   22.1720   37.4560 H   0  0  0  0  0  0  0  0  0  0  0  0
   40.9080   23.8540   36.8170 H   0  0  0  0  0  0  0  0  0  0  0  0
   38.4960   22.1820   37.6510 H   0  0  0  0  0  0  0  0  0  0  0  0
   39.2860   23.3200   38.7770 H   0  0  0  0  0  0  0  0  0  0  0  0
   39.0690   25.1570   37.2010 H   0  0  0  0  0  0  0  0  0  0  0  0
   37.5340   24.4890   37.7650 H   0  0  0  0  0  0  0  0  0  0  0  0
   36.8960   23.6500   35.7550 H   0  0  0  0  0  0  0  0  0  0  0  0
   38.0620   25.0660   34.7860 C   0  0  0  0  0  0  0  0  0  0  0  0
   37.3560   26.2660   34.8430 C   0  0  0  0  0  0  0  0  0  0  0  0
   37.5540   27.2140   33.8790 C   0  0  0  0  0  0  0  0  0  0  0  0
   38.5200   26.8810   32.8380 C   0  0  0  0  0  0  0  0  0  0  0  0
   39.0640   25.1570   33.3840 S   0  0  0  0  0  0  0  0  0  0  0  0
   36.6310   26.5680   35.5890 H   0  0  0  0  0  0  0  0  0  0  0  0
   37.1790   28.1740   33.6670 H   0  0  0  0  0  0  0  0  0  0  0  0
   38.4190   26.9690   30.3830 C   0  0  1  0  0  3  0  0  0  0  0  0
   39.0950   27.4390   31.6610 C   0  0  2  0  0  3  0  0  0  0  0  0
   40.4930   26.8990   31.4920 C   0  0  0  0  0  3  0  0  0  0  0  0
   41.2320   27.6990   31.7400 H   0  0  0  0  0  0  0  0  0  0  0  0
   40.6180   26.4680   30.1890 O   0  0  0  0  0  0  0  0  0  0  0  0
   39.3780   25.8950   29.9320 C   0  0  0  0  0  3  0  0  0  0  0  0
   39.2080   25.0040   30.5600 H   0  0  0  0  0  0  0  0  0  0  0  0
   37.1520   26.4660   30.6310 O   0  0  0  0  0  0  0  0  0  0  0  0
   36.9390   26.6170   31.5840 H   0  0  0  0  0  0  0  0  0  0  0  0
  1  2  2  0  0  0  0
  1  6  1  0  0  0  0
  2  3  1  0  0  0  0
  3 15  1  0  0  0  0
  3  4  2  0  0  0  0
  5  4  1  0  0  0  0
  5  7  1  0  0  0  0
  6  5  2  0  0  0  0
  7  8  1  0  0  0  0
  7 12  1  0  0  0  0
  8  9  1  0  0  0  0
  9 18  1  0  0  0  0
  9 10  1  0  0  0  0
 10 21  1  0  0  0  0
 11 22  1  0  0  0  0
 11 10  1  0  0  0  0
 11 23  1  0  0  0  0
 12 24  1  1  0  0  0
 12 11  1  0  0  0  0
 13  1  1  0  0  0  0
 14  2  1  0  0  0  0
 16  8  1  0  0  0  0
 17  8  1  0  0  0  0
 19  9  1  0  0  0  0
 20 10  1  0  0  0  0
 25 26  2  0  0  0  0
 25 12  1  0  0  0  0
 26 30  1  0  0  0  0
 27 26  1  0  0  0  0
 28 29  1  0  0  0  0
 28 27  2  0  0  0  0
 29 25  1  0  0  0  0
 31 27  1  0  0  0  0
 32 39  1  1  0  0  0
 32 33  1  0  0  0  0
 33 28  1  1  0  0  0
 34 33  1  0  0  0  0
 34 35  1  0  0  0  0
 36 34  1  0  0  0  0
 37 36  1  0  0  0  0
 37 32  1  0  0  0  0
 37 38  1  0  0  0  0
 39 40  1  0  0  0  0
M  END
>  <minimizedAffinity>
-5.36109638

$$$$

 OpenBabel03262523273D

 40 43  0  0  1  0  0  0  0  0999 V2000
   37.7760   28.7530   28.9450 C   0  0  0  0  0  0  0  0  0  0  0  0
   39.1400   28.6360   28.6680 C   0  0  0  0  0  0  0  0  0  0  0  0
   39.9500   28.0630   29.6260 C   0  0  0  0  0  0  0  0  0  0  0  0
   39.3680   27.6440   30.7840 N   0  0  0  0  0  0  0  0  0  0  0  0
   38.0390   27.7680   31.0260 C   0  0  0  0  0  0  0  0  0  0  0  0
   37.2510   28.3190   30.1130 N   0  0  0  0  0  0  0  0  0  0  0  0
   37.5130   27.2980   32.2880 N   0  0  0  0  0  0  0  0  0  0  0  0
   36.5740   28.1100   33.0150 C   0  0  0  0  0  0  0  0  0  0  0  0
   36.6530   27.9080   34.5090 C   0  0  0  0  0  0  0  0  0  0  0  0
   38.0140   27.3390   34.8360 C   0  0  0  0  0  0  0  0  0  0  0  0
   38.0290   25.9360   34.2800 C   0  0  0  0  0  0  0  0  0  0  0  0
   37.9570   25.9980   32.7980 C   0  0  1  0  0  0  0  0  0  0  0  0
   37.1720   29.2080   28.1680 H   0  0  0  0  0  0  0  0  0  0  0  0
   39.5940   28.9730   27.7420 H   0  0  0  0  0  0  0  0  0  0  0  0
   41.0190   27.9300   29.5000 H   0  0  0  0  0  0  0  0  0  0  0  0
   36.7890   29.1770   32.7800 H   0  0  0  0  0  0  0  0  0  0  0  0
   35.5450   27.8800   32.6490 H   0  0  0  0  0  0  0  0  0  0  0  0
   36.4990   28.8460   35.0780 H   0  0  0  0  0  0  0  0  0  0  0  0
   35.8790   27.1740   34.8010 H   0  0  0  0  0  0  0  0  0  0  0  0
   38.7900   27.9740   34.3630 H   0  0  0  0  0  0  0  0  0  0  0  0
   38.2300   27.2760   35.9060 H   0  0  0  0  0  0  0  0  0  0  0  0
   37.2610   25.3530   34.7790 H   0  0  0  0  0  0  0  0  0  0  0  0
   39.0140   25.4950   34.6140 H   0  0  0  0  0  0  0  0  0  0  0  0
   39.0020   25.8940   32.3790 H   0  0  0  0  0  0  0  0  0  0  0  0
   37.1950   24.8920   32.2030 C   0  0  0  0  0  0  0  0  0  0  0  0
   35.8970   24.9320   31.6940 C   0  0  0  0  0  0  0  0  0  0  0  0
   35.3410   23.8000   31.1680 C   0  0  0  0  0  0  0  0  0  0  0  0
   36.1790   22.6060   31.1820 C   0  0  0  0  0  0  0  0  0  0  0  0
   37.7500   23.2720   31.9890 S   0  0  0  0  0  0  0  0  0  0  0  0
   35.2310   25.7850   31.6560 H   0  0  0  0  0  0  0  0  0  0  0  0
   34.4220   23.5360   30.7300 H   0  0  0  0  0  0  0  0  0  0  0  0
   35.5350   20.3320   31.8600 C   0  0  1  0  0  3  0  0  0  0  0  0
   36.1360   21.2350   30.7960 C   0  0  2  0  0  3  0  0  0  0  0  0
   37.5450   20.7080   30.6970 C   0  0  0  0  0  3  0  0  0  0  0  0
   37.8190   20.5790   29.6210 H   0  0  0  0  0  0  0  0  0  0  0  0
   37.5920   19.5160   31.3860 O   0  0  0  0  0  0  0  0  0  0  0  0
   36.7830   19.7630   32.4890 C   0  0  0  0  0  3  0  0  0  0  0  0
   37.2170   20.5400   33.1410 H   0  0  0  0  0  0  0  0  0  0  0  0
   34.7740   21.0500   32.7690 O   0  0  0  0  0  0  0  0  0  0  0  0
   34.7200   21.9860   32.4570 H   0  0  0  0  0  0  0  0  0  0  0  0
  1  6  1  0  0  0  0
  2  1  2  0  0  0  0
  2  3  1  0  0  0  0
  3  4  2  0  0  0  0
  4  5  1  0  0  0  0
  5  7  1  0  0  0  0
  6  5  2  0  0  0  0
  7 12  1  0  0  0  0
  7  8  1  0  0  0  0
  8  9  1  0  0  0  0
  9 19  1  0  0  0  0
  9 10  1  0  0  0  0
  9 18  1  0  0  0  0
 10 21  1  0  0  0  0
 11 23  1  0  0  0  0
 11 22  1  0  0  0  0
 11 10  1  0  0  0  0
 12 24  1  6  0  0  0
 12 11  1  0  0  0  0
 13  1  1  0  0  0  0
 14  2  1  0  0  0  0
 15  3  1  0  0  0  0
 16  8  1  0  0  0  0
 17  8  1  0  0  0  0
 20 10  1  0  0  0  0
 25 12  1  0  0  0  0
 26 25  2  0  0  0  0
 27 28  2  0  0  0  0
 27 26  1  0  0  0  0
 28 29  1  0  0  0  0
 29 25  1  0  0  0  0
 30 26  1  0  0  0  0
 31 27  1  0  0  0  0
 32 37  1  0  0  0  0
 32 39  1  1  0  0  0
 33 28  1  1  0  0  0
 33 32  1  0  0  0  0
 34 33  1  0  0  0  0
 34 36  1  0  0  0  0
 35 34  1  0  0  0  0
 36 37  1  0  0  0  0
 37 38  1  0  0  0  0
 40 39  1  0  0  0  0
M  END
>  <minimizedAffinity>
-5.23546457

$$$$

 OpenBabel03262523273D

 40 43  0  0  1  0  0  0  0  0999 V2000
   37.9150   26.0630   35.7390 C   0  0  0  0  0  0  0  0  0  0  0  0
   38.6710   27.0670   35.1310 C   0  0  0  0  0  0  0  0  0  0  0  0
   39.9720   26.7730   34.7740 C   0  0  0  0  0  0  0  0  0  0  0  0
   40.4360   25.5210   35.0380 N   0  0  0  0  0  0  0  0  0  0  0  0
   39.6790   24.5640   35.6300 C   0  0  0  0  0  0  0  0  0  0  0  0
   38.4280   24.8350   35.9770 N   0  0  0  0  0  0  0  0  0  0  0  0
   40.2610   23.2630   35.8740 N   0  0  0  0  0  0  0  0  0  0  0  0
   40.0550   22.6180   37.1430 C   0  0  0  0  0  0  0  0  0  0  0  0
   41.1970   21.7120   37.5350 C   0  0  0  0  0  0  0  0  0  0  0  0
   42.4270   22.1480   36.7730 C   0  0  0  0  0  0  0  0  0  0  0  0
   42.1720   21.8010   35.3260 C   0  0  0  0  0  0  0  0  0  0  0  0
   41.0560   22.6360   34.8140 C   0  0  1  0  0  0  0  0  0  0  0  0
   36.8970   26.3320   36.0040 H   0  0  0  0  0  0  0  0  0  0  0  0
   38.2920   28.0610   34.9250 H   0  0  0  0  0  0  0  0  0  0  0  0
   40.6340   27.4880   34.2980 H   0  0  0  0  0  0  0  0  0  0  0  0
   39.9350   23.4100   37.9160 H   0  0  0  0  0  0  0  0  0  0  0  0
   39.1030   22.0380   37.0970 H   0  0  0  0  0  0  0  0  0  0  0  0
   41.4100   21.7360   38.6220 H   0  0  0  0  0  0  0  0  0  0  0  0
   40.9400   20.6790   37.2380 H   0  0  0  0  0  0  0  0  0  0  0  0
   42.5660   23.2400   36.9120 H   0  0  0  0  0  0  0  0  0  0  0  0
   43.3480   21.6440   37.0790 H   0  0  0  0  0  0  0  0  0  0  0  0
   42.0510   20.7250   35.2410 H   0  0  0  0  0  0  0  0  0  0  0  0
   43.1330   22.0460   34.7880 H   0  0  0  0  0  0  0  0  0  0  0  0
   41.4890   23.5170   34.2530 H   0  0  0  0  0  0  0  0  0  0  0  0
   40.2050   21.9410   33.8380 C   0  0  0  0  0  0  0  0  0  0  0  0
   40.6150   21.1970   32.7320 C   0  0  0  0  0  0  0  0  0  0  0  0
   39.6800   20.6090   31.9280 C   0  0  0  0  0  0  0  0  0  0  0  0
   38.2870   20.8150   32.3050 C   0  0  0  0  0  0  0  0  0  0  0  0
   38.4810   21.8830   33.8500 S   0  0  0  0  0  0  0  0  0  0  0  0
   41.6310   21.0090   32.4050 H   0  0  0  0  0  0  0  0  0  0  0  0
   39.6890   20.0150   31.0590 H   0  0  0  0  0  0  0  0  0  0  0  0
   36.2960   21.5700   31.0760 C   0  0  1  0  0  3  0  0  0  0  0  0
   36.9740   20.4680   31.8730 C   0  0  2  0  0  3  0  0  0  0  0  0
   36.0740   20.3540   33.0780 C   0  0  0  0  0  3  0  0  0  0  0  0
   35.8530   19.2760   33.2740 H   0  0  0  0  0  0  0  0  0  0  0  0
   34.9310   21.0740   32.8120 O   0  0  0  0  0  0  0  0  0  0  0  0
   35.4150   22.1870   32.1350 C   0  0  0  0  0  3  0  0  0  0  0  0
   36.0550   22.8080   32.7860 H   0  0  0  0  0  0  0  0  0  0  0  0
   37.2150   22.4740   30.5690 O   0  0  0  0  0  0  0  0  0  0  0  0
   38.1220   22.1380   30.7680 H   0  0  0  0  0  0  0  0  0  0  0  0
  1  6  1  0  0  0  0
  1 13  1  0  0  0  0
  2  1  2  0  0  0  0
  3  4  2  0  0  0  0
  3  2  1  0  0  0  0
  4  5  1  0  0  0  0
  5  7  1  0  0  0  0
  5  6  2  0  0  0  0
  7  8  1  0  0  0  0
  8  9  1  0  0  0  0
  8 16  1  0  0  0  0
  9 18  1  0  0  0  0
 10 20  1  0  0  0  0
 10 21  1  0  0  0  0
 10  9  1  0  0  0  0
 11 10  1  0  0  0  0
 12 24  1  6  0  0  0
 12 11  1  0  0  0  0
 12  7  1  0  0  0  0
 14  2  1  0  0  0  0
 15  3  1  0  0  0  0
 17  8  1  0  0  0  0
 19  9  1  0  0  0  0
 22 11  1  0  0  0  0
 23 11  1  0  0  0  0
 25 29  1  0  0  0  0
 25 12  1  0  0  0  0
 26 25  2  0  0  0  0
 27 28  2  0  0  0  0
 27 26  1  0  0  0  0
 28 29  1  0  0  0  0
 30 26  1  0  0  0  0
 31 27  1  0  0  0  0
 32 39  1  1  0  0  0
 32 33  1  0  0  0  0
 32 37  1  0  0  0  0
 33 28  1  1  0  0  0
 33 34  1  0  0  0  0
 34 35  1  0  0  0  0
 36 34  1  0  0  0  0
 37 38  1  0  0  0  0
 37 36  1  0  0  0  0
 39 40  1  0  0  0  0
M  END
>  <minimizedAffinity>
-5.20437908

$$$$

 OpenBabel03262523273D

 40 43  0  0  1  0  0  0  0  0999 V2000
   36.3800   20.9780   32.9260 C   0  0  0  0  0  0  0  0  0  0  0  0
   35.5430   20.6900   34.0050 C   0  0  0  0  0  0  0  0  0  0  0  0
   36.0020   20.9710   35.2760 C   0  0  0  0  0  0  0  0  0  0  0  0
   37.2450   21.5140   35.3970 N   0  0  0  0  0  0  0  0  0  0  0  0
   38.0370   21.7840   34.3300 C   0  0  0  0  0  0  0  0  0  0  0  0
   37.6070   21.5170   33.1050 N   0  0  0  0  0  0  0  0  0  0  0  0
   39.3450   22.3570   34.5590 N   0  0  0  0  0  0  0  0  0  0  0  0
   40.4830   21.8420   33.8440 C   0  0  0  0  0  0  0  0  0  0  0  0
   41.7730   21.9730   34.6180 C   0  0  0  0  0  0  0  0  0  0  0  0
   41.4310   22.1020   36.0840 C   0  0  0  0  0  0  0  0  0  0  0  0
   40.7750   23.4510   36.2470 C   0  0  0  0  0  0  0  0  0  0  0  0
   39.4770   23.4520   35.5240 C   0  0  1  0  0  0  0  0  0  0  0  0
   35.9840   20.7430   31.9430 H   0  0  0  0  0  0  0  0  0  0  0  0
   34.5540   20.2580   33.8980 H   0  0  0  0  0  0  0  0  0  0  0  0
   35.4230   20.7820   36.1740 H   0  0  0  0  0  0  0  0  0  0  0  0
   40.2940   20.7670   33.6280 H   0  0  0  0  0  0  0  0  0  0  0  0
   40.5630   22.3780   32.8690 H   0  0  0  0  0  0  0  0  0  0  0  0
   42.4500   21.1090   34.4710 H   0  0  0  0  0  0  0  0  0  0  0  0
   42.2840   22.8960   34.2870 H   0  0  0  0  0  0  0  0  0  0  0  0
   40.7460   21.2770   36.3660 H   0  0  0  0  0  0  0  0  0  0  0  0
   42.2970   22.0700   36.7520 H   0  0  0  0  0  0  0  0  0  0  0  0
   41.4860   24.2230   35.9690 H   0  0  0  0  0  0  0  0  0  0  0  0
   40.6120   23.5700   37.3590 H   0  0  0  0  0  0  0  0  0  0  0  0
   38.6480   23.2510   36.2660 H   0  0  0  0  0  0  0  0  0  0  0  0
   39.1450   24.7500   34.9210 C   0  0  0  0  0  0  0  0  0  0  0  0
   39.2710   26.0120   35.5000 C   0  0  0  0  0  0  0  0  0  0  0  0
   38.9170   27.1220   34.7850 C   0  0  0  0  0  0  0  0  0  0  0  0
   38.4220   26.8870   33.4340 C   0  0  0  0  0  0  0  0  0  0  0  0
   38.5240   25.0040   33.3320 S   0  0  0  0  0  0  0  0  0  0  0  0
   39.6320   26.2480   36.4930 H   0  0  0  0  0  0  0  0  0  0  0  0
   38.9010   28.1610   34.9510 H   0  0  0  0  0  0  0  0  0  0  0  0
   36.5180   28.1140   32.4790 C   0  0  1  0  0  3  0  0  0  0  0  0
   37.9410   27.6080   32.3040 C   0  0  2  0  0  3  0  0  0  0  0  0
   37.7950   26.6610   31.1400 C   0  0  0  0  0  3  0  0  0  0  0  0
   38.6110   26.8520   30.4020 H   0  0  0  0  0  0  0  0  0  0  0  0
   36.5470   26.8630   30.5930 O   0  0  0  0  0  0  0  0  0  0  0  0
   35.7470   27.0690   31.7110 C   0  0  0  0  0  3  0  0  0  0  0  0
   35.6910   26.1620   32.3380 H   0  0  0  0  0  0  0  0  0  0  0  0
   36.1510   28.1560   33.8150 O   0  0  0  0  0  0  0  0  0  0  0  0
   36.9440   27.9330   34.3610 H   0  0  0  0  0  0  0  0  0  0  0  0
  1  6  2  0  0  0  0
  1  2  1  0  0  0  0
  2  3  2  0  0  0  0
  3  4  1  0  0  0  0
  3 15  1  0  0  0  0
  5  7  1  0  0  0  0
  5  4  2  0  0  0  0
  6  5  1  0  0  0  0
  7 12  1  0  0  0  0
  8  7  1  0  0  0  0
  8  9  1  0  0  0  0
  9 10  1  0  0  0  0
 10 11  1  0  0  0  0
 10 20  1  0  0  0  0
 10 21  1  0  0  0  0
 11 23  1  0  0  0  0
 12 11  1  0  0  0  0
 12 24  1  1  0  0  0
 13  1  1  0  0  0  0
 14  2  1  0  0  0  0
 16  8  1  0  0  0  0
 17  8  1  0  0  0  0
 18  9  1  0  0  0  0
 19  9  1  0  0  0  0
 22 11  1  0  0  0  0
 25 26  2  0  0  0  0
 25 12  1  0  0  0  0
 26 30  1  0  0  0  0
 27 31  1  0  0  0  0
 27 26  1  0  0  0  0
 28 27  2  0  0  0  0
 29 28  1  0  0  0  0
 29 25  1  0  0  0  0
 32 39  1  1  0  0  0
 33 32  1  0  0  0  0
 33 28  1  1  0  0  0
 34 33  1  0  0  0  0
 35 34  1  0  0  0  0
 36 34  1  0  0  0  0
 36 37  1  0  0  0  0
 37 38  1  0  0  0  0
 37 32  1  0  0  0  0
 39 40  1  0  0  0  0
M  END
>  <minimizedAffinity>
-5.15144634

$$$$
