
     RDKit          3D

 29 31  0  0  0  0  0  0  0  0999 V2000
   37.0079   31.1516   49.2466 C   0  0  0  0  0  0  0  0  0  0  0  0
   37.3171   32.4397   49.7186 C   0  0  0  0  0  0  0  0  0  0  0  0
   38.3005   33.1191   49.0197 C   0  0  0  0  0  0  0  0  0  0  0  0
   38.9113   32.5389   47.9396 N   0  0  0  0  0  0  0  0  0  0  0  0
   38.5803   31.2893   47.5174 C   0  0  0  0  0  0  0  0  0  0  0  0
   37.6209   30.5973   48.1813 N   0  0  0  0  0  0  0  0  0  0  0  0
   35.9229   30.3973   49.9717 C   0  0  0  0  0  0  0  0  0  0  0  0
   35.8052   28.9490   49.8476 C   0  0  0  0  0  0  0  0  0  0  0  0
   36.4689   29.5068   51.0775 C   0  0  0  0  0  0  0  0  0  0  0  0
   36.8287   32.8684   50.5590 H   0  0  0  0  0  0  0  0  0  0  0  0
   38.5655   34.1128   49.3540 H   0  0  0  0  0  0  0  0  0  0  0  0
   35.0648   31.0581   50.2556 H   0  0  0  0  0  0  0  0  0  0  0  0
   36.4952   28.4592   49.0994 H   0  0  0  0  0  0  0  0  0  0  0  0
   34.8273   28.4522   49.8962 H   0  0  0  0  0  0  0  0  0  0  0  0
   37.5480   29.4219   51.2382 H   0  0  0  0  0  0  0  0  0  0  0  0
   35.8200   29.4742   51.9747 H   0  0  0  0  0  0  0  0  0  0  0  0
   38.2055   30.2126   44.2253 O   0  0  0  0  0  0  0  0  0  0  0  0
   38.3980   29.7864   45.5397 C   0  0  2  0  0  0  0  0  0  0  0  0
   39.2818   30.7169   46.3373 C   0  0  2  0  0  0  0  0  0  0  0  0
   40.4552   29.8551   46.7129 C   0  0  1  0  0  0  0  0  0  0  0  0
   41.3742   30.4658   46.6880 H   0  0  0  0  0  0  0  0  0  0  0  0
   40.4967   28.8042   45.8229 O   0  0  0  0  0  0  0  0  0  0  0  0
   39.1676   28.5034   45.4998 C   0  0  1  0  0  0  0  0  0  0  0  0
   38.7266   27.7730   46.2042 H   0  0  0  0  0  0  0  0  0  0  0  0
   38.9634   30.8394   44.0163 H   0  0  0  0  0  0  0  0  0  0  0  0
   37.3888   29.7130   45.9855 H   0  0  0  0  0  0  0  0  0  0  0  0
   39.5968   31.5150   45.6255 H   0  0  0  0  0  0  0  0  0  0  0  0
   40.2749   29.4770   47.7452 H   0  0  0  0  0  0  0  0  0  0  0  0
   39.2102   28.0384   44.4928 H   0  0  0  0  0  0  0  0  0  0  0  0
  1  2  2  0
  1  7  1  0
  3  2  1  0
  4  3  2  0
  5  4  1  0
  5  6  2  0
  6  1  1  0
  7  9  1  0
  8  7  1  0
  8  9  1  0
  2 10  1  0
  3 11  1  0
  7 12  1  0
  8 13  1  0
  8 14  1  0
  9 15  1  0
  9 16  1  0
 17 18  1  0
 18 19  1  0
 19 20  1  0
 20 21  1  1
 20 22  1  0
 22 23  1  0
 23 24  1  1
 23 18  1  0
 17 25  1  0
 18 26  1  1
 19 27  1  6
 20 28  1  0
 23 29  1  0
  5 19  1  0
M  ISO  8  10  14  11  14  12  13  13  13  14  13  15  13  16  13  21  15
M  ISO  1  24  16
M  END
>  <DihAtoms>  (1) 
3,4,18,17

>  <DihDeg>  (1) 
61.75033900580991

$$$$
