REMARK  Name = 
REMARK  3 active torsions:
REMARK  status: ('A' for Active; 'I' for Inactive)
REMARK    1  A    between atoms: C_5  and  C_7
REMARK    2  A    between atoms: C_7  and  C_19
REMARK    3  A    between atoms: O_17  and  C_18
REMARK                            x       y       z     vdW  Elec       q    Type
REMARK                         _______ _______ _______ _____ _____    ______ ____
ROOT
ATOM      1  C   UNL     1      37.142  29.280  50.019  0.00  0.00    +0.000 C 
ATOM      2  C   UNL     1      35.728  28.991  49.983  0.00  0.00    +0.000 C 
ATOM      3  C   UNL     1      36.297  29.549  51.240  0.00  0.00    +0.000 C 
ATOM      4  H   UNL     1      35.275  27.988  49.975  0.00  0.00    +0.000 HD
ATOM      5  H   UNL     1      35.103  29.711  49.383  0.00  0.00    +0.000 HD
ATOM      6  H   UNL     1      36.084  30.581  51.552  0.00  0.00    +0.000 HD
ATOM      7  H   UNL     1      36.351  28.839  52.084  0.00  0.00    +0.000 HD
ENDROOT
BRANCH   1  12
ATOM      8  C   UNL     1      38.585  32.626  49.394  0.00  0.00    +0.000 A 
ATOM      9  C   UNL     1      38.845  32.618  48.024  0.00  0.00    +0.000 A 
ATOM     10  C   UNL     1      38.517  31.455  47.316  0.00  0.00    +0.000 A 
ATOM     11  N   UNL     1      37.967  30.400  47.985  0.00  0.00    +0.000 NA
ATOM     12  C   UNL     1      37.731  30.457  49.332  0.00  0.00    +0.000 A 
ATOM     13  N   UNL     1      38.044  31.577  50.034  0.00  0.00    +0.000 NA
ATOM     14  H   UNL     1      38.859  33.557  49.900  0.00  0.00    +0.000 HD
ATOM     15  H   UNL     1      39.277  33.438  47.477  0.00  0.00    +0.000 HD
ATOM     16  H   UNL     1      38.671  31.328  46.248  0.00  0.00    +0.000 HD
ENDBRANCH   1  12
BRANCH   1  18
ATOM     17  C   UNL     1      37.790  27.024  50.964  0.00  0.00    +0.000 C 
ATOM     18  C   UNL     1      38.238  28.259  50.279  0.00  0.00    +0.000 C 
ATOM     19  C   UNL     1      39.290  28.823  51.213  0.00  0.00    +0.000 C 
ATOM     20  H   UNL     1      40.261  28.409  50.892  0.00  0.00    +0.000 HD
ATOM     21  O   UNL     1      38.918  28.393  52.469  0.00  0.00    +0.000 OA
ATOM     22  C   UNL     1      38.322  27.149  52.353  0.00  0.00    +0.000 C 
ATOM     23  H   UNL     1      39.085  26.383  52.625  0.00  0.00    +0.000 HD
BRANCH  17  24
ATOM     24  O   UNL     1      38.440  25.923  50.375  0.00  0.00    +0.000 OA
ATOM     25  H   UNL     1      37.804  25.242  50.043  0.00  0.00    +0.000 HD
ENDBRANCH  17  24
ENDBRANCH   1  18
TORSDOF 3
