
     RDKit          3D

 32 34  0  0  0  0  0  0  0  0999 V2000
   36.9986   31.3957   48.5738 N   0  0  0  0  0  0  0  0  0  0  0  0
   37.1840   32.1630   49.6508 C   0  0  0  0  0  0  0  0  0  0  0  0
   38.1559   33.1638   49.6642 C   0  0  0  0  0  0  0  0  0  0  0  0
   38.8704   33.2592   48.4792 C   0  0  0  0  0  0  0  0  0  0  0  0
   39.7585   34.1701   48.4851 O   0  0  0  0  0  0  0  0  0  0  0  0
   38.7194   32.5160   47.3801 N   0  0  0  0  0  0  0  0  0  0  0  0
   37.7556   31.5727   47.4588 C   0  0  0  0  0  0  0  0  0  0  0  0
   37.6019   30.8591   46.4177 O   0  0  0  0  0  0  0  0  0  0  0  0
   36.1974   29.2480   49.3496 C   0  0  0  0  0  0  0  0  0  0  0  0
   36.0268   30.3700   48.5207 C   0  0  0  0  0  0  0  0  0  0  0  0
   34.9044   30.3862   47.7020 C   0  0  0  0  0  0  0  0  0  0  0  0
   34.0423   29.3488   47.7342 N   0  0  0  0  0  0  0  0  0  0  0  0
   34.2358   28.2796   48.5472 C   0  0  0  0  0  0  0  0  0  0  0  0
   35.3251   28.2208   49.3685 N   0  0  0  0  0  0  0  0  0  0  0  0
   36.5914   32.0461   50.5457 H   0  0  0  0  0  0  0  0  0  0  0  0
   38.3353   33.7958   50.5012 H   0  0  0  0  0  0  0  0  0  0  0  0
   39.3124   32.6711   46.5377 H   0  0  0  0  0  0  0  0  0  0  0  0
   34.7728   31.2553   47.0601 H   0  0  0  0  0  0  0  0  0  0  0  0
   33.4650   27.5129   48.4751 H   0  0  0  0  0  0  0  0  0  0  0  0
   35.5805   29.0742   51.8721 O   0  0  0  0  0  0  0  0  0  0  0  0
   36.9565   29.1217   51.7232 C   0  0  2  0  0  0  0  0  0  0  0  0
   37.3242   29.0372   50.2896 C   0  0  1  0  0  0  0  0  0  0  0  0
   37.9572   27.6931   50.1469 C   0  0  2  0  0  0  0  0  0  0  0  0
   38.8926   27.7499   49.5180 H   0  0  0  0  0  0  0  0  0  0  0  0
   38.3378   27.2502   51.3930 O   0  0  0  0  0  0  0  0  0  0  0  0
   37.5926   27.9101   52.3439 C   0  0  2  0  0  0  0  0  0  0  0  0
   36.7990   27.2547   52.7846 H   0  0  0  0  0  0  0  0  0  0  0  0
   35.3690   28.5114   52.6644 H   0  0  0  0  0  0  0  0  0  0  0  0
   37.3807   30.0676   52.1682 H   0  0  0  0  0  0  0  0  0  0  0  0
   38.0943   29.8003   50.0391 H   0  0  0  0  0  0  0  0  0  0  0  0
   37.3198   26.9198   49.6859 H   0  0  0  0  0  0  0  0  0  0  0  0
   38.2173   28.2461   53.2005 H   0  0  0  0  0  0  0  0  0  0  0  0
  1  2  1  0
  2  3  2  0
  4  3  1  0
  5  4  2  0
  6  7  1  0
  6  4  1  0
  7  1  1  0
  8  7  2  0
  9 14  1  0
 10  1  1  0
 10  9  2  0
 11 12  2  0
 11 10  1  0
 12 13  1  0
 13 14  2  0
  2 15  1  0
  3 16  1  0
  6 17  1  0
 11 18  1  0
 13 19  1  0
 20 21  1  0
 21 22  1  0
 22 23  1  0
 23 24  1  6
 23 25  1  0
 25 26  1  0
 26 27  1  1
 26 21  1  0
 20 28  1  0
 21 29  1  1
 22 30  1  6
 23 31  1  0
 26 32  1  0
  9 22  1  0
M  ISO  7  15  14  16  14  17   9  18  14  19  14  24  15  27  16
M  END
>  <DihAtoms>  (1) 
13,8,21,20

>  <DihDeg>  (1) 
-85.11060379430003

$$$$
