
 OpenBabel03272507363D

 19 20  0  0  1  0  0  0  0  0999 V2000
   36.9180   30.1040   50.7800 C   0  0  0  0  0  0  0  0  0  0  0  0
   36.9670   30.8480   49.5980 C   0  0  0  0  0  0  0  0  0  0  0  0
   35.8520   30.8110   48.7710 C   0  0  0  0  0  0  0  0  0  0  0  0
   34.7790   30.0650   49.1420 N   0  0  0  0  0  0  0  0  0  0  0  0
   34.7480   29.3510   50.2900 C   0  0  0  0  0  0  0  0  0  0  0  0
   35.8210   29.3720   51.1080 N   0  0  0  0  0  0  0  0  0  0  0  0
   35.7970   31.3490   47.8450 H   0  0  0  0  0  0  0  0  0  0  0  0
   33.8600   28.7770   50.5280 H   0  0  0  0  0  0  0  0  0  0  0  0
   38.3850   31.7490   47.7330 C   0  0  1  0  0  3  0  0  0  0  0  0
   38.1370   31.6520   49.2070 C   0  0  1  0  0  3  0  0  0  0  0  0
   38.0750   33.0770   49.6260 C   0  0  0  0  0  3  0  0  0  0  0  0
   37.2320   33.6540   49.2020 H   0  0  0  0  0  0  0  0  0  0  0  0
   39.2080   33.5790   48.9430 O   0  0  0  0  0  0  0  0  0  0  0  0
   38.9540   33.1440   47.6260 C   0  0  0  0  0  3  0  0  0  0  0  0
   39.8360   33.1740   46.9820 H   0  0  0  0  0  0  0  0  0  0  0  0
   39.2480   30.7480   47.3260 O   0  0  0  0  0  0  0  0  0  0  0  0
   39.4800   30.7730   46.3860 H   0  0  0  0  0  0  0  0  0  0  0  0
   38.0630   30.1930   51.5440 O   0  0  0  0  0  0  0  0  0  0  0  0
   38.2400   30.9290   52.2020 H   0  0  0  0  0  0  0  0  0  0  0  0
  1  6  1  0  0  0  0
  1 18  1  0  0  0  0
  2  1  2  0  0  0  0
  3  4  2  0  0  0  0
  3  2  1  0  0  0  0
  4  5  1  0  0  0  0
  5  8  1  0  0  0  0
  5  6  2  0  0  0  0
  7  3  1  0  0  0  0
  9 16  1  1  0  0  0
  9 10  1  0  0  0  0
 10  2  1  6  0  0  0
 10 11  1  0  0  0  0
 12 11  1  0  0  0  0
 13 11  1  0  0  0  0
 14  9  1  0  0  0  0
 14 13  1  0  0  0  0
 15 14  1  0  0  0  0
 17 16  1  0  0  0  0
 18 19  1  0  0  0  0
M  END
>  <minimizedAffinity>
-5.05472946

>  <minimizedRMSD>
2.15318179

$$$$
