REMARK  Name = 
REMARK  3 active torsions:
REMARK  status: ('A' for Active; 'I' for Inactive)
REMARK    1  A    between atoms: C_1  and  C_7
REMARK    2  A    between atoms: C_2  and  C_19
REMARK    3  A    between atoms: O_17  and  C_18
REMARK                            x       y       z     vdW  Elec       q    Type
REMARK                         _______ _______ _______ _____ _____    ______ ____
ROOT
ATOM      1  C   UNL     1      37.048  31.144  49.282  0.00  0.00    +0.000 A 
ATOM      2  C   UNL     1      37.298  32.444  49.731  0.00  0.00    +0.000 A 
ATOM      3  C   UNL     1      38.270  33.141  48.983  0.00  0.00    +0.000 A 
ATOM      4  N   UNL     1      38.884  32.544  47.915  0.00  0.00    +0.000 NA
ATOM      5  C   UNL     1      38.595  31.272  47.528  0.00  0.00    +0.000 A 
ATOM      6  N   UNL     1      37.675  30.576  48.217  0.00  0.00    +0.000 NA
ATOM      7  H   UNL     1      38.628  34.133  49.123  0.00  0.00    +0.000 HD
ATOM      8  H   UNL     1      39.092  30.823  46.682  0.00  0.00    +0.000 HD
ENDROOT
BRANCH   1   9
ATOM      9  C   UNL     1      35.934  30.418  49.994  0.00  0.00    +0.000 C 
ATOM     10  C   UNL     1      35.735  29.003  49.824  0.00  0.00    +0.000 C 
ATOM     11  C   UNL     1      36.496  29.447  51.046  0.00  0.00    +0.000 C 
ATOM     12  H   UNL     1      35.187  31.096  50.460  0.00  0.00    +0.000 HD
ATOM     13  H   UNL     1      36.402  28.471  49.083  0.00  0.00    +0.000 HD
ATOM     14  H   UNL     1      34.770  28.519  50.043  0.00  0.00    +0.000 HD
ATOM     15  H   UNL     1      35.971  29.462  52.016  0.00  0.00    +0.000 HD
ATOM     16  H   UNL     1      37.582  29.333  51.097  0.00  0.00    +0.000 HD
ENDBRANCH   1   9
BRANCH   2  18
ATOM     17  C   UNL     1      36.661  32.349  52.163  0.00  0.00    +0.000 C 
ATOM     18  C   UNL     1      36.658  33.108  50.850  0.00  0.00    +0.000 C 
ATOM     19  C   UNL     1      37.527  34.285  51.337  0.00  0.00    +0.000 C 
ATOM     20  H   UNL     1      38.503  33.848  51.647  0.00  0.00    +0.000 HD
ATOM     21  O   UNL     1      36.923  34.659  52.544  0.00  0.00    +0.000 OA
ATOM     22  C   UNL     1      36.374  33.513  53.096  0.00  0.00    +0.000 C 
ATOM     23  H   UNL     1      36.681  33.301  54.130  0.00  0.00    +0.000 HD
BRANCH  17  24
ATOM     24  O   UNL     1      37.895  31.811  52.437  0.00  0.00    +0.000 OA
ATOM     25  H   UNL     1      37.752  30.903  52.848  0.00  0.00    +0.000 HD
ENDBRANCH  17  24
ENDBRANCH   2  18
TORSDOF 3
