
     RDKit          3D

 29 31  0  0  0  0  0  0  0  0999 V2000
   38.5851   32.6262   49.3943 C   0  0  0  0  0  0  0  0  0  0  0  0
   38.8451   32.6184   48.0236 C   0  0  0  0  0  0  0  0  0  0  0  0
   38.5165   31.4554   47.3163 C   0  0  0  0  0  0  0  0  0  0  0  0
   37.9668   30.4004   47.9850 N   0  0  0  0  0  0  0  0  0  0  0  0
   37.7315   30.4566   49.3322 C   0  0  0  0  0  0  0  0  0  0  0  0
   38.0440   31.5774   50.0342 N   0  0  0  0  0  0  0  0  0  0  0  0
   37.1417   29.2796   50.0191 C   0  0  0  0  0  0  0  0  0  0  0  0
   35.7279   28.9905   49.9830 C   0  0  0  0  0  0  0  0  0  0  0  0
   36.2974   29.5486   51.2403 C   0  0  0  0  0  0  0  0  0  0  0  0
   38.8592   33.5570   49.8995 H   0  0  0  0  0  0  0  0  0  0  0  0
   39.2772   33.4376   47.4771 H   0  0  0  0  0  0  0  0  0  0  0  0
   38.6707   31.3275   46.2478 H   0  0  0  0  0  0  0  0  0  0  0  0
   35.2748   27.9883   49.9746 H   0  0  0  0  0  0  0  0  0  0  0  0
   35.1026   29.7112   49.3833 H   0  0  0  0  0  0  0  0  0  0  0  0
   36.0844   30.5809   51.5516 H   0  0  0  0  0  0  0  0  0  0  0  0
   36.3514   28.8386   52.0842 H   0  0  0  0  0  0  0  0  0  0  0  0
   38.4402   25.9228   50.3754 O   0  0  0  0  0  0  0  0  0  0  0  0
   37.7904   27.0244   50.9641 C   0  0  2  0  0  0  0  0  0  0  0  0
   38.2376   28.2591   50.2793 C   0  0  2  0  0  0  0  0  0  0  0  0
   39.2898   28.8231   51.2133 C   0  0  1  0  0  0  0  0  0  0  0  0
   40.2605   28.4087   50.8919 H   0  0  0  0  0  0  0  0  0  0  0  0
   38.9178   28.3932   52.4691 O   0  0  0  0  0  0  0  0  0  0  0  0
   38.3224   27.1486   52.3532 C   0  0  2  0  0  0  0  0  0  0  0  0
   39.0847   26.3827   52.6254 H   0  0  0  0  0  0  0  0  0  0  0  0
   37.8040   25.2425   50.0429 H   0  0  0  0  0  0  0  0  0  0  0  0
   36.7122   26.8137   50.9070 H   0  0  0  0  0  0  0  0  0  0  0  0
   38.6872   28.0143   49.2950 H   0  0  0  0  0  0  0  0  0  0  0  0
   39.2933   29.9362   51.2268 H   0  0  0  0  0  0  0  0  0  0  0  0
   37.5323   27.0303   53.1387 H   0  0  0  0  0  0  0  0  0  0  0  0
  1  6  2  0
  2  1  1  0
  3  4  1  0
  3  2  2  0
  4  5  2  0
  5  7  1  0
  5  6  1  0
  7  9  1  0
  8  7  1  0
  8  9  1  0
  1 10  1  0
  2 11  1  0
  3 12  1  0
  8 13  1  0
  8 14  1  0
  9 15  1  0
  9 16  1  0
 17 18  1  0
 18 19  1  0
 19 20  1  0
 20 21  1  6
 20 22  1  0
 22 23  1  0
 23 24  1  1
 23 18  1  0
 17 25  1  0
 18 26  1  1
 19 27  1  6
 20 28  1  0
 23 29  1  0
  7 19  1  0
M  ISO  8  10  14  11  14  12  14  13  13  14  13  15  13  16  13  21  15
M  ISO  1  24  16
M  END
>  <DihAtoms>  (1) 
4,6,18,17

>  <DihDeg>  (1) 
179.99798753833872

$$$$
