
 OpenBabel03272504153D

 24 25  0  0  1  0  0  0  0  0999 V2000
   38.2980   31.3460   47.4210 C   0  0  0  0  0  0  0  0  0  0  0  0
   37.4490   31.1530   48.5090 C   0  0  0  0  0  0  0  0  0  0  0  0
   37.4340   32.0940   49.5480 C   0  0  0  0  0  0  0  0  0  0  0  0
   38.2720   33.1720   49.4310 N   0  0  0  0  0  0  0  0  0  0  0  0
   39.0920   33.3330   48.3510 C   0  0  0  0  0  0  0  0  0  0  0  0
   39.0930   32.4200   47.3640 N   0  0  0  0  0  0  0  0  0  0  0  0
   36.7930   31.9910   50.4160 H   0  0  0  0  0  0  0  0  0  0  0  0
   39.7460   34.1920   48.2780 H   0  0  0  0  0  0  0  0  0  0  0  0
   35.8180   29.8220   49.8880 C   0  0  1  0  0  0  0  0  0  0  0  0
   36.5670   30.0140   48.6140 C   0  0  1  0  0  0  0  0  0  0  0  0
   35.4330   30.0280   47.6010 C   0  0  0  0  0  0  0  0  0  0  0  0
   35.0880   28.9980   47.3690 H   0  0  0  0  0  0  0  0  0  0  0  0
   34.4050   30.6980   48.2240 O   0  0  0  0  0  0  0  0  0  0  0  0
   34.4230   30.2970   49.5430 C   0  0  0  0  0  0  0  0  0  0  0  0
   34.1410   31.2000   50.1530 H   0  0  0  0  0  0  0  0  0  0  0  0
   35.7460   28.4520   50.2470 O   0  0  0  0  0  0  0  0  0  0  0  0
   35.5240   28.3550   51.2030 H   0  0  0  0  0  0  0  0  0  0  0  0
   38.3740   30.4710   46.3600 O   0  0  0  0  0  0  0  0  0  0  0  0
   39.3050   31.8310   44.2220 O   0  0  0  0  0  0  0  0  0  0  0  0
   39.5470   30.6360   45.1220 P   0  0  0  0  0  0  0  0  0  0  0  0
   41.0280   30.8050   45.9380 O   0  0  0  0  0  0  0  0  0  0  0  0
   41.7140   30.9580   45.2470 H   0  0  0  0  0  0  0  0  0  0  0  0
   39.5420   29.2660   44.1210 O   0  0  0  0  0  0  0  0  0  0  0  0
   39.4720   28.4450   44.6350 H   0  0  0  0  0  0  0  0  0  0  0  0
  1  2  1  0  0  0  0
  2  3  2  0  0  0  0
  3  7  1  0  0  0  0
  4  3  1  0  0  0  0
  5  4  2  0  0  0  0
  6  1  2  0  0  0  0
  6  5  1  0  0  0  0
  8  5  1  0  0  0  0
  9 16  1  6  0  0  0
 10  2  1  1  0  0  0
 10  9  1  0  0  0  0
 11 13  1  0  0  0  0
 11 10  1  0  0  0  0
 12 11  1  0  0  0  0
 13 14  1  0  0  0  0
 14  9  1  0  0  0  0
 14 15  1  0  0  0  0
 16 17  1  0  0  0  0
 18  1  1  0  0  0  0
 19 20  2  0  0  0  0
 20 21  1  0  0  0  0
 20 18  1  0  0  0  0
 22 21  1  0  0  0  0
 23 24  1  0  0  0  0
 23 20  1  0  0  0  0
M  END
>  <minimizedAffinity>
-5.36414194

>  <minimizedRMSD>
4.40197086

$$$$
