
 OpenBabel03272509583D

 46 49  0  0  1  0  0  0  0  0999 V2000
   34.6320   28.4990   48.1150 C   0  0  0  0  0  0  0  0  0  0  0  0
   34.5300   29.5900   47.9330 H   0  0  0  0  0  0  0  0  0  0  0  0
   35.4920   28.1790   47.4950 H   0  0  0  0  0  0  0  0  0  0  0  0
   33.3740   27.7390   47.8350 C   0  0  0  0  0  0  0  0  0  0  0  0
   32.9220   27.2940   48.7360 H   0  0  0  0  0  0  0  0  0  0  0  0
   33.6680   26.8760   47.1730 H   0  0  0  0  0  0  0  0  0  0  0  0
   32.3600   28.5590   47.1230 C   0  0  0  0  0  0  0  0  0  0  0  0
   31.0350   28.1290   47.1970 C   0  0  0  0  0  0  0  0  0  0  0  0
   30.0180   28.8210   46.5700 C   0  0  0  0  0  0  0  0  0  0  0  0
   30.3100   29.9310   45.8740 N   0  0  0  0  0  0  0  0  0  0  0  0
   31.6190   30.3230   45.8230 C   0  0  0  0  0  0  0  0  0  0  0  0
   32.6320   29.6830   46.4140 N   0  0  0  0  0  0  0  0  0  0  0  0
   30.7920   27.2380   47.7530 H   0  0  0  0  0  0  0  0  0  0  0  0
   28.9970   28.4730   46.6380 H   0  0  0  0  0  0  0  0  0  0  0  0
   31.8780   31.5590   45.0250 C   0  0  0  0  0  0  0  0  0  0  0  0
   32.2490   32.3600   45.6900 H   0  0  0  0  0  0  0  0  0  0  0  0
   30.9470   31.9320   44.5700 H   0  0  0  0  0  0  0  0  0  0  0  0
   33.1280   30.9660   41.6370 C   0  0  1  0  0  3  0  0  0  0  0  0
   32.4270   30.3760   42.8680 C   0  0  0  0  0  3  0  0  0  0  0  0
   31.3550   30.3050   42.6990 H   0  0  0  0  0  0  0  0  0  0  0  0
   32.8670   31.3310   43.9210 C   0  0  1  0  0  3  0  0  0  0  0  0
   33.2800   32.4920   43.3020 O   0  0  0  0  0  0  0  0  0  0  0  0
   34.0300   32.0390   42.2200 C   0  0  0  0  0  3  0  0  0  0  0  0
   34.1720   32.8810   41.5140 H   0  0  0  0  0  0  0  0  0  0  0  0
   33.8610   30.0040   40.9480 O   0  0  0  0  0  0  0  0  0  0  0  0
   33.2240   29.3320   40.6260 H   0  0  0  0  0  0  0  0  0  0  0  0
   35.0000   28.3760   49.4810 O   0  0  0  0  0  0  0  0  0  0  0  0
   37.3580   30.1850   51.5440 C   0  0  0  0  0  0  0  0  0  0  0  0
   38.0850   30.8770   50.5400 C   0  0  0  0  0  0  0  0  0  0  0  0
   37.7120   30.6740   49.2100 C   0  0  0  0  0  0  0  0  0  0  0  0
   36.6660   29.8130   49.0160 N   0  0  0  0  0  0  0  0  0  0  0  0
   35.9930   29.1700   49.9640 C   0  0  0  0  0  0  0  0  0  0  0  0
   36.3540   29.3670   51.2540 N   0  0  0  0  0  0  0  0  0  0  0  0
   37.6590   30.3540   52.5690 H   0  0  0  0  0  0  0  0  0  0  0  0
   38.8970   31.5430   50.7300 H   0  0  0  0  0  0  0  0  0  0  0  0
   38.9300   33.2910   49.0080 F   0  0  0  0  0  0  0  0  0  0  0  0
   38.9050   32.4980   47.9570 C   0  0  0  0  0  0  0  0  0  0  0  0
   38.3370   31.2910   48.0730 C   0  0  0  0  0  0  0  0  0  0  0  0
   38.3670   30.5320   46.8930 C   0  0  0  0  0  0  0  0  0  0  0  0
   38.9270   30.9890   45.7310 C   0  0  0  0  0  0  0  0  0  0  0  0
   39.5020   32.2440   45.6650 C   0  0  0  0  0  0  0  0  0  0  0  0
   39.4790   32.9910   46.8070 C   0  0  0  0  0  0  0  0  0  0  0  0
   37.9360   29.5270   46.8450 H   0  0  0  0  0  0  0  0  0  0  0  0
   38.9450   30.3940   44.8250 H   0  0  0  0  0  0  0  0  0  0  0  0
   39.9430   32.5950   44.7420 H   0  0  0  0  0  0  0  0  0  0  0  0
   39.9260   33.9720   46.7630 H   0  0  0  0  0  0  0  0  0  0  0  0
  1 27  1  0  0  0  0
  2  1  1  0  0  0  0
  3  1  1  0  0  0  0
  4  1  1  0  0  0  0
  4  5  1  0  0  0  0
  6  4  1  0  0  0  0
  7  8  1  0  0  0  0
  7  4  1  0  0  0  0
  8 13  1  0  0  0  0
  9 14  1  0  0  0  0
  9  8  2  0  0  0  0
 10  9  1  0  0  0  0
 11 10  2  0  0  0  0
 11 12  1  0  0  0  0
 12  7  2  0  0  0  0
 15 16  1  0  0  0  0
 15 11  1  0  0  0  0
 17 15  1  0  0  0  0
 18 25  1  1  0  0  0
 18 23  1  0  0  0  0
 18 19  1  0  0  0  0
 19 21  1  0  0  0  0
 20 19  1  0  0  0  0
 21 15  1  1  0  0  0
 22 21  1  0  0  0  0
 23 22  1  0  0  0  0
 24 23  1  0  0  0  0
 26 25  1  0  0  0  0
 27 32  1  0  0  0  0
 28 34  1  0  0  0  0
 29 35  1  0  0  0  0
 29 28  2  0  0  0  0
 30 29  1  0  0  0  0
 31 30  2  0  0  0  0
 31 32  1  0  0  0  0
 32 33  2  0  0  0  0
 33 28  1  0  0  0  0
 37 38  1  0  0  0  0
 37 36  1  0  0  0  0
 38 30  1  0  0  0  0
 39 38  2  0  0  0  0
 40 39  1  0  0  0  0
 41 40  2  0  0  0  0
 41 42  1  0  0  0  0
 42 37  2  0  0  0  0
 43 39  1  0  0  0  0
 44 40  1  0  0  0  0
 45 41  1  0  0  0  0
 46 42  1  0  0  0  0
M  END
>  <minimizedAffinity>
-6.08885956

>  <minimizedRMSD>
2.75813961

$$$$
