
     RDKit          3D

 25 26  0  0  0  0  0  0  0  0999 V2000
   37.1408   30.2690   50.4639 C   0  0  0  0  0  0  0  0  0  0  0  0
   37.8607   31.3381   49.9211 C   0  0  0  0  0  0  0  0  0  0  0  0
   37.6304   31.6648   48.5634 C   0  0  0  0  0  0  0  0  0  0  0  0
   36.7280   30.9244   47.8710 N   0  0  0  0  0  0  0  0  0  0  0  0
   36.0589   29.9038   48.4372 C   0  0  0  0  0  0  0  0  0  0  0  0
   36.2664   29.5829   49.7209 N   0  0  0  0  0  0  0  0  0  0  0  0
   37.3948   29.9429   51.8826 C   0  0  0  0  0  0  0  0  0  0  0  0
   38.5696   31.8806   50.5548 H   0  0  0  0  0  0  0  0  0  0  0  0
   38.1873   32.4905   48.1464 H   0  0  0  0  0  0  0  0  0  0  0  0
   35.3378   29.3097   47.8894 H   0  0  0  0  0  0  0  0  0  0  0  0
   36.4694   29.4397   52.2614 H   0  0  0  0  0  0  0  0  0  0  0  0
   37.5293   30.8257   52.5037 H   0  0  0  0  0  0  0  0  0  0  0  0
   41.2261   28.0872   52.5902 O   0  0  0  0  0  0  0  0  0  0  0  0
   40.0584   27.8163   53.3394 C   0  0  1  0  0  0  0  0  0  0  0  0
   39.2463   29.1179   53.3584 C   0  0  1  0  0  0  0  0  0  0  0  0
   38.5583   29.1170   54.2235 H   0  0  0  0  0  0  0  0  0  0  0  0
   38.5011   28.9436   52.0625 C   0  0  1  0  0  0  0  0  0  0  0  0
   38.0161   27.6415   52.2354 O   0  0  0  0  0  0  0  0  0  0  0  0
   39.1754   26.9190   52.5300 C   0  0  2  0  0  0  0  0  0  0  0  0
   38.8852   25.9852   53.0392 H   0  0  0  0  0  0  0  0  0  0  0  0
   41.4536   29.0649   52.6226 H   0  0  0  0  0  0  0  0  0  0  0  0
   40.2777   27.4441   54.3496 H   0  0  0  0  0  0  0  0  0  0  0  0
   39.9665   29.9342   53.3614 H   0  0  0  0  0  0  0  0  0  0  0  0
   39.2315   28.9677   51.2318 H   0  0  0  0  0  0  0  0  0  0  0  0
   39.6402   26.6924   51.5265 H   0  0  0  0  0  0  0  0  0  0  0  0
  1  7  1  0
  2  1  2  0
  3  2  1  0
  4  5  1  0
  4  3  2  0
  5  6  2  0
  6  1  1  0
  2  8  1  0
  3  9  1  0
  5 10  1  0
  7 11  1  0
  7 12  1  0
 13 14  1  0
 14 15  1  0
 15 16  1  1
 15 17  1  0
 17 18  1  0
 18 19  1  0
 19 20  1  1
 19 14  1  0
 13 21  1  0
 14 22  1  1
 15 23  1  0
 17 24  1  6
 19 25  1  0
  7 17  1  0
M  ISO  7   8  14   9  14  10  14  11   8  12   8  16   8  20  16
M  END
>  <DihAtoms>  (1) 
0,6,16,14

>  <DihDeg>  (1) 
-60.018840358405896

$$$$
