
     RDKit          3D

 41 43  0  0  0  0  0  0  0  0999 V2000
   37.3462   30.1150   48.2987 O   0  0  0  0  0  0  0  0  0  0  0  0
   38.0650   31.3025   48.2218 C   0  0  0  0  0  0  0  0  0  0  0  0
   38.2187   32.0117   49.3990 C   0  0  0  0  0  0  0  0  0  0  0  0
   38.9306   33.2028   49.3616 C   0  0  0  0  0  0  0  0  0  0  0  0
   39.4449   33.6203   48.1713 N   0  0  0  0  0  0  0  0  0  0  0  0
   39.2870   32.9208   47.0374 C   0  0  0  0  0  0  0  0  0  0  0  0
   38.6057   31.7861   47.0881 N   0  0  0  0  0  0  0  0  0  0  0  0
   40.7648   32.4703   45.2390 C   0  0  0  0  0  0  0  0  0  0  0  0
   41.1309   31.3461   45.6870 O   0  0  0  0  0  0  0  0  0  0  0  0
   39.8362   33.3885   45.8098 N   0  0  0  0  0  0  0  0  0  0  0  0
   35.4768   28.6800   50.0528 O   0  0  0  0  0  0  0  0  0  0  0  0
   35.2545   29.0512   48.8843 C   0  0  0  0  0  0  0  0  0  0  0  0
   35.9205   30.2079   48.3271 C   0  0  2  0  0  0  0  0  0  0  0  0
   35.4641   30.1164   46.8355 C   0  0  0  0  0  0  0  0  0  0  0  0
   34.1487   29.4018   46.9298 C   0  0  0  0  0  0  0  0  0  0  0  0
   34.3420   28.4047   47.9660 N   0  0  0  0  0  0  0  0  0  0  0  0
   33.7765   27.0667   48.0917 C   0  0  0  0  0  0  0  0  0  0  0  0
   37.8321   31.7251   50.3645 H   0  0  0  0  0  0  0  0  0  0  0  0
   39.0725   33.7831   50.2541 H   0  0  0  0  0  0  0  0  0  0  0  0
   41.2656   32.6900   44.3000 H   0  0  0  0  0  0  0  0  0  0  0  0
   39.6121   34.2954   45.3431 H   0  0  0  0  0  0  0  0  0  0  0  0
   35.6295   31.1941   48.6971 H   0  0  0  0  0  0  0  0  0  0  0  0
   35.4163   31.1222   46.3993 H   0  0  0  0  0  0  0  0  0  0  0  0
   36.2159   29.5198   46.3227 H   0  0  0  0  0  0  0  0  0  0  0  0
   33.3050   30.0873   47.1502 H   0  0  0  0  0  0  0  0  0  0  0  0
   33.9952   28.8686   45.9714 H   0  0  0  0  0  0  0  0  0  0  0  0
   33.7106   26.5321   47.1232 H   0  0  0  0  0  0  0  0  0  0  0  0
   34.5354   26.4752   48.6817 H   0  0  0  0  0  0  0  0  0  0  0  0
   31.0515   29.0451   47.0664 O   0  0  0  0  0  0  0  0  0  0  0  0
   30.7928   28.6629   48.3802 C   0  0  2  0  0  0  0  0  0  0  0  0
   32.1168   28.5367   49.0946 C   0  0  1  0  0  0  0  0  0  0  0  0
   32.8582   29.2380   48.6519 H   0  0  0  0  0  0  0  0  0  0  0  0
   32.4893   27.0948   48.8417 C   0  0  1  0  0  0  0  0  0  0  0  0
   31.4956   26.5764   48.0118 O   0  0  0  0  0  0  0  0  0  0  0  0
   30.3200   27.2294   48.3658 C   0  0  2  0  0  0  0  0  0  0  0  0
   29.6078   27.0334   47.5298 H   0  0  0  0  0  0  0  0  0  0  0  0
   31.3909   28.2489   46.5631 H   0  0  0  0  0  0  0  0  0  0  0  0
   30.0776   29.3403   48.8842 H   0  0  0  0  0  0  0  0  0  0  0  0
   32.0023   28.7242   50.1869 H   0  0  0  0  0  0  0  0  0  0  0  0
   32.4734   26.4831   49.7445 H   0  0  0  0  0  0  0  0  0  0  0  0
   29.9251   26.9779   49.3497 H   0  0  0  0  0  0  0  0  0  0  0  0
  2  1  1  0
  2  3  2  0
  4  3  1  0
  5  4  2  0
  6  7  2  0
  6  5  1  0
  7  2  1  0
  8  9  2  0
  8 10  1  0
 10  6  1  0
 12 11  2  0
 13  1  1  0
 13 12  1  0
 14 15  1  0
 14 13  1  0
 15 16  1  0
 16 17  1  0
 16 12  1  0
  3 18  1  0
  4 19  1  0
  8 20  1  0
 10 21  1  0
 13 22  1  1
 14 23  1  0
 14 24  1  0
 15 25  1  0
 15 26  1  0
 17 27  1  0
 17 28  1  0
 29 30  1  0
 30 31  1  0
 31 32  1  6
 31 33  1  0
 33 34  1  0
 34 35  1  0
 35 36  1  6
 35 30  1  0
 29 37  1  0
 30 38  1  1
 31 39  1  0
 33 40  1  1
 35 41  1  0
 17 33  1  0
M  ISO  8  18  14  19  14  20   6  22  13  23  13  24  13  25  13  26  13
M  ISO  4  27   8  28   8  32   8  36  16
M  END
>  <DihAtoms>  (1) 
15,16,32,30

>  <DihDeg>  (1) 
66.20290306553582

$$$$
