
 OpenBabel03272509573D

 46 49  0  0  1  0  0  0  0  0999 V2000
   34.5440   28.2840   48.3980 C   0  0  0  0  0  0  0  0  0  0  0  0
   34.4090   29.1280   47.6880 H   0  0  0  0  0  0  0  0  0  0  0  0
   35.5620   27.8980   48.2010 H   0  0  0  0  0  0  0  0  0  0  0  0
   33.4730   27.2460   48.2810 C   0  0  0  0  0  0  0  0  0  0  0  0
   33.2820   26.7060   49.2230 H   0  0  0  0  0  0  0  0  0  0  0  0
   33.8580   26.4780   47.5520 H   0  0  0  0  0  0  0  0  0  0  0  0
   32.1970   27.7990   47.7590 C   0  0  0  0  0  0  0  0  0  0  0  0
   31.0720   27.6710   48.5740 C   0  0  0  0  0  0  0  0  0  0  0  0
   29.8390   28.1520   48.1790 C   0  0  0  0  0  0  0  0  0  0  0  0
   29.7200   28.7560   46.9860 N   0  0  0  0  0  0  0  0  0  0  0  0
   30.8440   28.8630   46.2140 C   0  0  0  0  0  0  0  0  0  0  0  0
   32.0530   28.4130   46.5570 N   0  0  0  0  0  0  0  0  0  0  0  0
   31.1590   27.1870   49.5330 H   0  0  0  0  0  0  0  0  0  0  0  0
   28.9790   28.0440   48.8240 H   0  0  0  0  0  0  0  0  0  0  0  0
   30.6420   29.5350   44.8950 C   0  0  0  0  0  0  0  0  0  0  0  0
   29.7030   29.1770   44.4350 H   0  0  0  0  0  0  0  0  0  0  0  0
   31.4540   29.2760   44.1960 H   0  0  0  0  0  0  0  0  0  0  0  0
   31.7130   33.0140   44.5220 C   0  0  1  0  0  0  0  0  0  0  0  0
   31.9190   31.6800   45.2490 C   0  0  0  0  0  0  0  0  0  0  0  0
   32.7900   31.1610   44.8550 H   0  0  0  0  0  0  0  0  0  0  0  0
   30.6010   31.0290   45.0130 C   0  0  1  0  0  0  0  0  0  0  0  0
   30.0020   31.6510   43.9390 O   0  0  0  0  0  0  0  0  0  0  0  0
   30.2370   33.0040   44.1690 C   0  0  0  0  0  0  0  0  0  0  0  0
   30.0360   33.5610   43.2320 H   0  0  0  0  0  0  0  0  0  0  0  0
   32.0360   34.0990   45.3320 O   0  0  0  0  0  0  0  0  0  0  0  0
   32.9890   34.0270   45.5430 H   0  0  0  0  0  0  0  0  0  0  0  0
   34.5350   28.8720   49.6900 O   0  0  0  0  0  0  0  0  0  0  0  0
   37.3030   30.0330   51.7110 C   0  0  0  0  0  0  0  0  0  0  0  0
   38.0760   30.6900   50.7170 C   0  0  0  0  0  0  0  0  0  0  0  0
   37.5890   30.6910   49.4090 C   0  0  0  0  0  0  0  0  0  0  0  0
   36.3970   30.0450   49.2230 N   0  0  0  0  0  0  0  0  0  0  0  0
   35.6820   29.4320   50.1610 C   0  0  0  0  0  0  0  0  0  0  0  0
   36.1530   29.4320   51.4300 N   0  0  0  0  0  0  0  0  0  0  0  0
   37.6940   30.0430   52.7190 H   0  0  0  0  0  0  0  0  0  0  0  0
   39.0030   31.1850   50.9010 H   0  0  0  0  0  0  0  0  0  0  0  0
   38.8340   33.2980   49.2370 F   0  0  0  0  0  0  0  0  0  0  0  0
   38.8210   32.5070   48.1830 C   0  0  0  0  0  0  0  0  0  0  0  0
   38.2400   31.3050   48.2850 C   0  0  0  0  0  0  0  0  0  0  0  0
   38.2850   30.5490   47.1040 C   0  0  0  0  0  0  0  0  0  0  0  0
   38.8710   31.0040   45.9530 C   0  0  0  0  0  0  0  0  0  0  0  0
   39.4570   32.2530   45.9020 C   0  0  0  0  0  0  0  0  0  0  0  0
   39.4190   32.9980   47.0450 C   0  0  0  0  0  0  0  0  0  0  0  0
   37.8470   29.5480   47.0450 H   0  0  0  0  0  0  0  0  0  0  0  0
   38.9000   30.4110   45.0470 H   0  0  0  0  0  0  0  0  0  0  0  0
   39.9180   32.6030   44.9880 H   0  0  0  0  0  0  0  0  0  0  0  0
   39.8760   33.9750   47.0120 H   0  0  0  0  0  0  0  0  0  0  0  0
  1 27  1  0  0  0  0
  2  1  1  0  0  0  0
  3  1  1  0  0  0  0
  4  1  1  0  0  0  0
  4  5  1  0  0  0  0
  6  4  1  0  0  0  0
  7  4  1  0  0  0  0
  7  8  1  0  0  0  0
  8 13  1  0  0  0  0
  9  8  2  0  0  0  0
  9 14  1  0  0  0  0
 10  9  1  0  0  0  0
 11 12  1  0  0  0  0
 11 10  2  0  0  0  0
 12  7  2  0  0  0  0
 15 11  1  0  0  0  0
 16 15  1  0  0  0  0
 17 15  1  0  0  0  0
 18 19  1  0  0  0  0
 18 25  1  1  0  0  0
 20 19  1  0  0  0  0
 21 15  1  6  0  0  0
 21 19  1  0  0  0  0
 22 23  1  0  0  0  0
 22 21  1  0  0  0  0
 23 18  1  0  0  0  0
 24 23  1  0  0  0  0
 25 26  1  0  0  0  0
 27 32  1  0  0  0  0
 28 34  1  0  0  0  0
 29 35  1  0  0  0  0
 29 28  2  0  0  0  0
 30 29  1  0  0  0  0
 31 30  2  0  0  0  0
 31 32  1  0  0  0  0
 32 33  2  0  0  0  0
 33 28  1  0  0  0  0
 37 38  1  0  0  0  0
 37 36  1  0  0  0  0
 38 30  1  0  0  0  0
 39 38  2  0  0  0  0
 40 39  1  0  0  0  0
 41 40  2  0  0  0  0
 41 42  1  0  0  0  0
 42 37  2  0  0  0  0
 43 39  1  0  0  0  0
 44 40  1  0  0  0  0
 45 41  1  0  0  0  0
 46 42  1  0  0  0  0
M  END
>  <minimizedAffinity>
-6.96695852

>  <minimizedRMSD>
0.962461114

$$$$
