
 OpenBabel03262521513D

 22 23  0  0  1  0  0  0  0  0999 V2000
   34.9430   29.8050   46.2020 C   0  0  0  0  0  0  0  0  0  0  0  0
   34.7500   30.8060   46.6880 H   0  0  0  0  0  0  0  0  0  0  0  0
   35.8790   29.4510   46.6740 H   0  0  0  0  0  0  0  0  0  0  0  0
   32.4280   27.9380   48.1720 C   0  0  2  0  0  3  0  0  0  0  0  0
   33.7100   28.7830   48.1310 C   0  0  0  0  0  3  0  0  0  0  0  0
   33.5190   29.8010   48.5250 H   0  0  0  0  0  0  0  0  0  0  0  0
   33.8150   28.9290   46.6050 C   0  0  1  0  0  3  0  0  0  0  0  0
   32.5540   29.3560   46.3050 O   0  0  0  0  0  0  0  0  0  0  0  0
   31.7310   28.4270   46.9350 C   0  0  0  0  0  3  0  0  0  0  0  0
   31.5390   27.5950   46.2000 H   0  0  0  0  0  0  0  0  0  0  0  0
   31.7140   28.1390   49.3460 O   0  0  0  0  0  0  0  0  0  0  0  0
   30.8790   27.5970   49.2460 H   0  0  0  0  0  0  0  0  0  0  0  0
   35.1050   30.0960   44.4380 S   0  0  0  0  0  0  0  0  0  0  0  0
   34.6880   28.5810   43.6000 C   0  0  0  0  0  0  0  0  0  0  0  0
   33.4600   28.6750   42.9300 C   0  0  0  0  0  0  0  0  0  0  0  0
   33.0300   27.5310   42.2230 C   0  0  0  0  0  0  0  0  0  0  0  0
   33.8080   26.4230   42.2270 N   0  0  0  0  0  0  0  0  0  0  0  0
   34.9770   26.3930   42.8890 C   0  0  0  0  0  0  0  0  0  0  0  0
   35.3860   27.4600   43.5520 N   0  0  0  0  0  0  0  0  0  0  0  0
   32.8030   29.5480   42.9020 H   0  0  0  0  0  0  0  0  0  0  0  0
   32.0770   27.5530   41.6830 H   0  0  0  0  0  0  0  0  0  0  0  0
   35.5850   25.4900   42.8780 H   0  0  0  0  0  0  0  0  0  0  0  0
  1  3  1  0  0  0  0
  1  2  1  0  0  0  0
  4 11  1  1  0  0  0
  5  4  1  0  0  0  0
  5  6  1  0  0  0  0
  7  1  1  1  0  0  0
  7  5  1  0  0  0  0
  8  7  1  0  0  0  0
  8  9  1  0  0  0  0
  9  4  1  0  0  0  0
 10  9  1  0  0  0  0
 12 11  1  0  0  0  0
 13  1  1  0  0  0  0
 14 13  1  0  0  0  0
 15 14  2  0  0  0  0
 16 17  2  0  0  0  0
 16 15  1  0  0  0  0
 17 18  1  0  0  0  0
 18 19  2  0  0  0  0
 19 14  1  0  0  0  0
 20 15  1  0  0  0  0
 21 16  1  0  0  0  0
 22 18  1  0  0  0  0
M  END
>  <minimizedAffinity>
-1.96970451

>  <minimizedRMSD>
5.75938797

$$$$
