
 OpenBabel03272506403D

 37 39  0  0  1  0  0  0  0  0999 V2000
   36.8370   24.9030   32.2500 O   0  0  0  0  0  0  0  0  0  0  0  0
   37.0600   25.8250   33.0590 C   0  0  0  0  0  0  0  0  0  0  0  0
   37.8380   25.5970   34.2560 C   0  0  2  0  0  0  0  0  0  0  0  0
   37.9870   27.0580   34.7880 C   0  0  0  0  0  0  0  0  0  0  0  0
   36.7650   27.7390   34.2470 C   0  0  0  0  0  0  0  0  0  0  0  0
   36.5920   27.1860   32.9170 N   0  0  0  0  0  0  0  0  0  0  0  0
   37.3890   25.0030   35.0550 H   0  0  0  0  0  0  0  0  0  0  0  0
   38.0670   27.0490   35.8830 H   0  0  0  0  0  0  0  0  0  0  0  0
   38.9010   27.4520   34.3490 H   0  0  0  0  0  0  0  0  0  0  0  0
   35.8740   27.5910   34.8900 H   0  0  0  0  0  0  0  0  0  0  0  0
   37.0090   28.8140   34.1390 H   0  0  0  0  0  0  0  0  0  0  0  0
   36.0760   27.8130   31.7060 C   0  0  0  0  0  0  0  0  0  0  0  0
   35.8890   27.0860   30.8890 H   0  0  0  0  0  0  0  0  0  0  0  0
   35.0480   28.1900   31.9780 H   0  0  0  0  0  0  0  0  0  0  0  0
   38.0380   29.0320   29.2170 C   0  0  2  0  0  3  0  0  0  0  0  0
   38.1520   28.4260   30.5960 C   0  0  0  0  0  3  0  0  0  0  0  0
   38.1340   27.3160   30.5270 H   0  0  0  0  0  0  0  0  0  0  0  0
   36.9250   28.9650   31.2920 C   0  0  1  0  0  3  0  0  0  0  0  0
   36.2220   29.6950   30.3340 O   0  0  0  0  0  0  0  0  0  0  0  0
   37.1820   30.2450   29.4910 C   0  0  0  0  0  3  0  0  0  0  0  0
   36.6250   30.5750   28.5820 H   0  0  0  0  0  0  0  0  0  0  0  0
   37.3030   28.1550   28.4240 O   0  0  0  0  0  0  0  0  0  0  0  0
   36.3370   28.2300   28.6760 H   0  0  0  0  0  0  0  0  0  0  0  0
   39.1710   25.1380   34.0180 O   0  0  0  0  0  0  0  0  0  0  0  0
   39.7800   24.3900   35.0190 C   0  0  0  0  0  0  0  0  0  0  0  0
   41.1510   24.2330   34.9290 C   0  0  0  0  0  0  0  0  0  0  0  0
   41.7950   23.4920   35.9100 C   0  0  0  0  0  0  0  0  0  0  0  0
   41.0510   22.9520   36.9150 N   0  0  0  0  0  0  0  0  0  0  0  0
   39.7210   23.1110   36.9890 C   0  0  0  0  0  0  0  0  0  0  0  0
   39.1200   23.8220   36.0460 N   0  0  0  0  0  0  0  0  0  0  0  0
   38.2740   23.5010   38.8260 C   0  0  0  0  0  0  0  0  0  0  0  0
   38.2510   24.7560   38.6730 O   0  0  0  0  0  0  0  0  0  0  0  0
   38.9740   22.5300   38.0520 N   0  0  0  0  0  0  0  0  0  0  0  0
   41.7830   24.6400   34.1560 H   0  0  0  0  0  0  0  0  0  0  0  0
   42.8580   23.3480   35.8760 H   0  0  0  0  0  0  0  0  0  0  0  0
   37.6600   23.2070   39.6730 H   0  0  0  0  0  0  0  0  0  0  0  0
   38.9160   21.5120   38.2770 H   0  0  0  0  0  0  0  0  0  0  0  0
  1  2  2  0  0  0  0
  2  3  1  0  0  0  0
  3  4  1  0  0  0  0
  3  7  1  1  0  0  0
  4  8  1  0  0  0  0
  5  4  1  0  0  0  0
  5 10  1  0  0  0  0
  6  2  1  0  0  0  0
  6  5  1  0  0  0  0
  9  4  1  0  0  0  0
 11  5  1  0  0  0  0
 12 14  1  0  0  0  0
 12  6  1  0  0  0  0
 13 12  1  0  0  0  0
 15 22  1  6  0  0  0
 15 20  1  0  0  0  0
 15 16  1  0  0  0  0
 16 18  1  0  0  0  0
 17 16  1  0  0  0  0
 18 12  1  6  0  0  0
 19 18  1  0  0  0  0
 20 19  1  0  0  0  0
 21 20  1  0  0  0  0
 22 23  1  0  0  0  0
 24  3  1  0  0  0  0
 24 25  1  0  0  0  0
 25 30  1  0  0  0  0
 26 25  2  0  0  0  0
 26 27  1  0  0  0  0
 27 28  2  0  0  0  0
 28 29  1  0  0  0  0
 29 33  1  0  0  0  0
 30 29  2  0  0  0  0
 31 36  1  0  0  0  0
 32 31  2  0  0  0  0
 33 37  1  0  0  0  0
 33 31  1  0  0  0  0
 34 26  1  0  0  0  0
 35 27  1  0  0  0  0
M  END
>  <minimizedAffinity>
-5.58713198

$$$$

 OpenBabel03272506403D

 37 39  0  0  1  0  0  0  0  0999 V2000
   34.7130   24.8920   30.8790 O   0  0  0  0  0  0  0  0  0  0  0  0
   35.8760   24.5950   31.2150 C   0  0  0  0  0  0  0  0  0  0  0  0
   36.8780   25.6160   31.4250 C   0  0  2  0  0  0  0  0  0  0  0  0
   38.0480   24.7610   32.0070 C   0  0  0  0  0  0  0  0  0  0  0  0
   37.8030   23.4070   31.4110 C   0  0  0  0  0  0  0  0  0  0  0  0
   36.3610   23.2490   31.4300 N   0  0  0  0  0  0  0  0  0  0  0  0
   37.2630   26.1440   30.5500 H   0  0  0  0  0  0  0  0  0  0  0  0
   39.0100   25.2180   31.7420 H   0  0  0  0  0  0  0  0  0  0  0  0
   37.9180   24.7600   33.0870 H   0  0  0  0  0  0  0  0  0  0  0  0
   38.2290   23.3040   30.3930 H   0  0  0  0  0  0  0  0  0  0  0  0
   38.2350   22.6590   32.1050 H   0  0  0  0  0  0  0  0  0  0  0  0
   35.5550   22.0480   31.6170 C   0  0  0  0  0  0  0  0  0  0  0  0
   34.6000   22.2460   32.1440 H   0  0  0  0  0  0  0  0  0  0  0  0
   35.2370   21.7360   30.5800 H   0  0  0  0  0  0  0  0  0  0  0  0
   35.4380   18.8380   32.7180 C   0  0  2  0  0  3  0  0  0  0  0  0
   35.4940   20.2490   33.2540 C   0  0  0  0  0  3  0  0  0  0  0  0
   34.4700   20.6820   33.2980 H   0  0  0  0  0  0  0  0  0  0  0  0
   36.3560   20.9520   32.2320 C   0  0  1  0  0  3  0  0  0  0  0  0
   36.6300   20.0110   31.2400 O   0  0  0  0  0  0  0  0  0  0  0  0
   36.6960   18.7810   31.8860 C   0  0  0  0  0  3  0  0  0  0  0  0
   36.6260   18.0170   31.0770 H   0  0  0  0  0  0  0  0  0  0  0  0
   34.3460   18.7510   31.8580 O   0  0  0  0  0  0  0  0  0  0  0  0
   34.5820   19.2030   30.9970 H   0  0  0  0  0  0  0  0  0  0  0  0
   36.5520   26.5650   32.4440 O   0  0  0  0  0  0  0  0  0  0  0  0
   36.1510   27.8320   32.0360 C   0  0  0  0  0  0  0  0  0  0  0  0
   36.6960   28.3060   30.8570 C   0  0  0  0  0  0  0  0  0  0  0  0
   36.3200   29.5680   30.4170 C   0  0  0  0  0  0  0  0  0  0  0  0
   35.4330   30.2820   31.1650 N   0  0  0  0  0  0  0  0  0  0  0  0
   34.9120   29.8090   32.3070 C   0  0  0  0  0  0  0  0  0  0  0  0
   35.2800   28.6030   32.7130 N   0  0  0  0  0  0  0  0  0  0  0  0
   32.7290   29.9380   33.2220 C   0  0  0  0  0  0  0  0  0  0  0  0
   32.3670   28.8090   32.7820 O   0  0  0  0  0  0  0  0  0  0  0  0
   33.9900   30.5850   33.0640 N   0  0  0  0  0  0  0  0  0  0  0  0
   37.4010   27.7800   30.2310 H   0  0  0  0  0  0  0  0  0  0  0  0
   36.7210   29.9710   29.5070 H   0  0  0  0  0  0  0  0  0  0  0  0
   31.9220   30.4090   33.7780 H   0  0  0  0  0  0  0  0  0  0  0  0
   34.1720   31.5260   33.4760 H   0  0  0  0  0  0  0  0  0  0  0  0
  1  2  2  0  0  0  0
  2  3  1  0  0  0  0
  2  6  1  0  0  0  0
  3  7  1  6  0  0  0
  3  4  1  0  0  0  0
  3 24  1  0  0  0  0
  4  9  1  0  0  0  0
  5  6  1  0  0  0  0
  5  4  1  0  0  0  0
  5 11  1  0  0  0  0
  6 12  1  0  0  0  0
  8  4  1  0  0  0  0
 10  5  1  0  0  0  0
 12 13  1  0  0  0  0
 14 12  1  0  0  0  0
 15 22  1  6  0  0  0
 15 16  1  0  0  0  0
 16 17  1  0  0  0  0
 18 12  1  6  0  0  0
 18 16  1  0  0  0  0
 19 20  1  0  0  0  0
 19 18  1  0  0  0  0
 20 15  1  0  0  0  0
 21 20  1  0  0  0  0
 23 22  1  0  0  0  0
 25 24  1  0  0  0  0
 25 30  1  0  0  0  0
 26 25  2  0  0  0  0
 27 26  1  0  0  0  0
 27 28  2  0  0  0  0
 28 29  1  0  0  0  0
 29 30  2  0  0  0  0
 29 33  1  0  0  0  0
 31 36  1  0  0  0  0
 32 31  2  0  0  0  0
 33 31  1  0  0  0  0
 33 37  1  0  0  0  0
 34 26  1  0  0  0  0
 35 27  1  0  0  0  0
M  END
>  <minimizedAffinity>
-5.40620661

$$$$

 OpenBabel03272506403D

 37 39  0  0  1  0  0  0  0  0999 V2000
   37.3940   27.7240   35.4850 O   0  0  0  0  0  0  0  0  0  0  0  0
   37.0450   27.6350   34.2910 C   0  0  0  0  0  0  0  0  0  0  0  0
   37.6460   26.6620   33.4070 C   0  0  2  0  0  0  0  0  0  0  0  0
   36.7460   26.8240   32.1410 C   0  0  0  0  0  0  0  0  0  0  0  0
   36.2780   28.2450   32.2410 C   0  0  0  0  0  0  0  0  0  0  0  0
   36.0380   28.4570   33.6560 N   0  0  0  0  0  0  0  0  0  0  0  0
   38.6810   26.8220   33.0950 H   0  0  0  0  0  0  0  0  0  0  0  0
   37.3260   26.5890   31.2390 H   0  0  0  0  0  0  0  0  0  0  0  0
   35.9280   26.1160   32.2550 H   0  0  0  0  0  0  0  0  0  0  0  0
   37.0070   28.9670   31.8200 H   0  0  0  0  0  0  0  0  0  0  0  0
   35.3030   28.3080   31.7190 H   0  0  0  0  0  0  0  0  0  0  0  0
   35.0390   29.2860   34.3200 C   0  0  0  0  0  0  0  0  0  0  0  0
   34.0270   29.1790   33.8800 H   0  0  0  0  0  0  0  0  0  0  0  0
   34.9330   28.8540   35.3580 H   0  0  0  0  0  0  0  0  0  0  0  0
   34.4260   32.2710   35.8170 C   0  0  2  0  0  3  0  0  0  0  0  0
   34.2750   31.5900   34.4770 C   0  0  0  0  0  3  0  0  0  0  0  0
   33.3320   31.0000   34.4530 H   0  0  0  0  0  0  0  0  0  0  0  0
   35.4940   30.7000   34.4250 C   0  0  1  0  0  3  0  0  0  0  0  0
   36.1430   30.8540   35.6500 O   0  0  0  0  0  0  0  0  0  0  0  0
   35.9160   32.1690   36.0410 C   0  0  0  0  0  3  0  0  0  0  0  0
   36.1770   32.2050   37.1250 H   0  0  0  0  0  0  0  0  0  0  0  0
   33.7900   31.4820   36.7720 O   0  0  0  0  0  0  0  0  0  0  0  0
   34.3690   30.6890   36.9670 H   0  0  0  0  0  0  0  0  0  0  0  0
   37.4830   25.3040   33.8220 O   0  0  0  0  0  0  0  0  0  0  0  0
   38.5160   24.7280   34.5530 C   0  0  0  0  0  0  0  0  0  0  0  0
   39.8010   24.9490   34.0920 C   0  0  0  0  0  0  0  0  0  0  0  0
   40.8590   24.3900   34.7950 C   0  0  0  0  0  0  0  0  0  0  0  0
   40.5870   23.6500   35.9060 N   0  0  0  0  0  0  0  0  0  0  0  0
   39.3350   23.4430   36.3410 C   0  0  0  0  0  0  0  0  0  0  0  0
   38.3350   23.9840   35.6600 N   0  0  0  0  0  0  0  0  0  0  0  0
   38.4080   23.3930   38.5220 C   0  0  0  0  0  0  0  0  0  0  0  0
   38.0250   24.5970   38.4990 O   0  0  0  0  0  0  0  0  0  0  0  0
   39.0870   22.6610   37.5040 N   0  0  0  0  0  0  0  0  0  0  0  0
   40.0680   25.5260   33.2200 H   0  0  0  0  0  0  0  0  0  0  0  0
   41.8710   24.5380   34.4690 H   0  0  0  0  0  0  0  0  0  0  0  0
   38.1500   22.9270   39.4700 H   0  0  0  0  0  0  0  0  0  0  0  0
   39.3540   21.6610   37.6400 H   0  0  0  0  0  0  0  0  0  0  0  0
  2  1  2  0  0  0  0
  3  7  1  6  0  0  0
  3 24  1  0  0  0  0
  3  2  1  0  0  0  0
  4  5  1  0  0  0  0
  4  9  1  0  0  0  0
  4  3  1  0  0  0  0
  5  6  1  0  0  0  0
  6  2  1  0  0  0  0
  6 12  1  0  0  0  0
  8  4  1  0  0  0  0
 10  5  1  0  0  0  0
 11  5  1  0  0  0  0
 12 14  1  0  0  0  0
 13 12  1  0  0  0  0
 15 20  1  0  0  0  0
 15 22  1  1  0  0  0
 16 15  1  0  0  0  0
 17 16  1  0  0  0  0
 18 12  1  1  0  0  0
 18 16  1  0  0  0  0
 18 19  1  0  0  0  0
 19 20  1  0  0  0  0
 20 21  1  0  0  0  0
 22 23  1  0  0  0  0
 24 25  1  0  0  0  0
 25 30  1  0  0  0  0
 26 25  2  0  0  0  0
 26 27  1  0  0  0  0
 27 28  2  0  0  0  0
 28 29  1  0  0  0  0
 29 33  1  0  0  0  0
 30 29  2  0  0  0  0
 31 36  1  0  0  0  0
 32 31  2  0  0  0  0
 33 37  1  0  0  0  0
 33 31  1  0  0  0  0
 34 26  1  0  0  0  0
 35 27  1  0  0  0  0
M  END
>  <minimizedAffinity>
-5.39911652

$$$$

 OpenBabel03272506403D

 37 39  0  0  1  0  0  0  0  0999 V2000
   34.7710   24.9820   31.1150 O   0  0  0  0  0  0  0  0  0  0  0  0
   35.9430   24.6050   31.3080 C   0  0  0  0  0  0  0  0  0  0  0  0
   36.9910   25.5490   31.6270 C   0  0  2  0  0  0  0  0  0  0  0  0
   38.1670   24.5770   31.9600 C   0  0  0  0  0  0  0  0  0  0  0  0
   37.8380   23.3600   31.1490 C   0  0  0  0  0  0  0  0  0  0  0  0
   36.3960   23.2320   31.2410 N   0  0  0  0  0  0  0  0  0  0  0  0
   37.3350   26.2200   30.8360 H   0  0  0  0  0  0  0  0  0  0  0  0
   39.1250   25.0550   31.7140 H   0  0  0  0  0  0  0  0  0  0  0  0
   38.1090   24.3830   33.0290 H   0  0  0  0  0  0  0  0  0  0  0  0
   38.1930   23.4360   30.1010 H   0  0  0  0  0  0  0  0  0  0  0  0
   38.2900   22.4900   31.6640 H   0  0  0  0  0  0  0  0  0  0  0  0
   35.5640   22.0340   31.2660 C   0  0  0  0  0  0  0  0  0  0  0  0
   34.6500   22.1550   31.8820 H   0  0  0  0  0  0  0  0  0  0  0  0
   35.1730   21.9200   30.2130 H   0  0  0  0  0  0  0  0  0  0  0  0
   35.3730   18.8360   32.3900 C   0  0  2  0  0  3  0  0  0  0  0  0
   35.7700   20.2130   32.8660 C   0  0  0  0  0  3  0  0  0  0  0  0
   34.8730   20.7710   33.2130 H   0  0  0  0  0  0  0  0  0  0  0  0
   36.3650   20.8300   31.6220 C   0  0  1  0  0  3  0  0  0  0  0  0
   36.2030   19.8890   30.6050 O   0  0  0  0  0  0  0  0  0  0  0  0
   36.3010   18.6440   31.2150 C   0  0  0  0  0  3  0  0  0  0  0  0
   35.8910   17.9170   30.4750 H   0  0  0  0  0  0  0  0  0  0  0  0
   34.0710   18.9110   31.9030 O   0  0  0  0  0  0  0  0  0  0  0  0
   34.0900   19.3540   31.0050 H   0  0  0  0  0  0  0  0  0  0  0  0
   36.7650   26.3030   32.8200 O   0  0  0  0  0  0  0  0  0  0  0  0
   36.4050   27.6380   32.6770 C   0  0  0  0  0  0  0  0  0  0  0  0
   36.1220   28.3320   33.8400 C   0  0  0  0  0  0  0  0  0  0  0  0
   35.7580   29.6680   33.7380 C   0  0  0  0  0  0  0  0  0  0  0  0
   35.6960   30.2350   32.5000 N   0  0  0  0  0  0  0  0  0  0  0  0
   35.9730   29.5490   31.3810 C   0  0  0  0  0  0  0  0  0  0  0  0
   36.3190   28.2750   31.4950 N   0  0  0  0  0  0  0  0  0  0  0  0
   37.1380   30.1500   29.4060 C   0  0  0  0  0  0  0  0  0  0  0  0
   38.2400   29.6600   29.7830 O   0  0  0  0  0  0  0  0  0  0  0  0
   35.8950   30.1740   30.1050 N   0  0  0  0  0  0  0  0  0  0  0  0
   36.1560   27.9290   34.8400 H   0  0  0  0  0  0  0  0  0  0  0  0
   35.5300   30.2400   34.6160 H   0  0  0  0  0  0  0  0  0  0  0  0
   37.2320   30.5900   28.4160 H   0  0  0  0  0  0  0  0  0  0  0  0
   35.0450   30.6120   29.6870 H   0  0  0  0  0  0  0  0  0  0  0  0
  1  2  2  0  0  0  0
  2  3  1  0  0  0  0
  3  7  1  6  0  0  0
  3  4  1  0  0  0  0
  3 24  1  0  0  0  0
  4  9  1  0  0  0  0
  5  6  1  0  0  0  0
  5 11  1  0  0  0  0
  5  4  1  0  0  0  0
  6 12  1  0  0  0  0
  6  2  1  0  0  0  0
  8  4  1  0  0  0  0
 10  5  1  0  0  0  0
 12 13  1  0  0  0  0
 14 12  1  0  0  0  0
 15 22  1  6  0  0  0
 15 16  1  0  0  0  0
 16 17  1  0  0  0  0
 18 12  1  6  0  0  0
 18 16  1  0  0  0  0
 19 20  1  0  0  0  0
 19 18  1  0  0  0  0
 20 15  1  0  0  0  0
 21 20  1  0  0  0  0
 23 22  1  0  0  0  0
 25 24  1  0  0  0  0
 25 26  1  0  0  0  0
 26 34  1  0  0  0  0
 27 26  2  0  0  0  0
 27 35  1  0  0  0  0
 28 27  1  0  0  0  0
 29 30  1  0  0  0  0
 29 28  2  0  0  0  0
 30 25  2  0  0  0  0
 31 32  2  0  0  0  0
 31 33  1  0  0  0  0
 33 29  1  0  0  0  0
 36 31  1  0  0  0  0
 37 33  1  0  0  0  0
M  END
>  <minimizedAffinity>
-5.36512613

$$$$

 OpenBabel03272506403D

 37 39  0  0  1  0  0  0  0  0999 V2000
   37.5790   27.2770   34.4110 O   0  0  0  0  0  0  0  0  0  0  0  0
   37.4590   26.7360   33.2940 C   0  0  0  0  0  0  0  0  0  0  0  0
   38.1490   25.5040   32.9810 C   0  0  2  0  0  0  0  0  0  0  0  0
   37.5200   25.1630   31.5930 C   0  0  0  0  0  0  0  0  0  0  0  0
   37.1400   26.5100   31.0550 C   0  0  0  0  0  0  0  0  0  0  0  0
   36.6500   27.2430   32.2070 N   0  0  0  0  0  0  0  0  0  0  0  0
   39.2330   25.5430   32.8480 H   0  0  0  0  0  0  0  0  0  0  0  0
   38.2450   24.6070   30.9830 H   0  0  0  0  0  0  0  0  0  0  0  0
   36.6490   24.5440   31.7960 H   0  0  0  0  0  0  0  0  0  0  0  0
   37.9840   27.0230   30.5510 H   0  0  0  0  0  0  0  0  0  0  0  0
   36.2890   26.3590   30.3620 H   0  0  0  0  0  0  0  0  0  0  0  0
   35.6010   28.2530   32.2940 C   0  0  0  0  0  0  0  0  0  0  0  0
   34.7810   28.0880   31.5670 H   0  0  0  0  0  0  0  0  0  0  0  0
   35.1140   28.0920   33.3000 H   0  0  0  0  0  0  0  0  0  0  0  0
   35.1820   31.3590   30.9890 C   0  0  2  0  0  3  0  0  0  0  0  0
   36.0570   30.1390   30.8270 C   0  0  0  0  0  3  0  0  0  0  0  0
   35.5600   29.3990   30.1610 H   0  0  0  0  0  0  0  0  0  0  0  0
   36.1720   29.6280   32.2440 C   0  0  1  0  0  3  0  0  0  0  0  0
   35.3660   30.4570   33.0230 O   0  0  0  0  0  0  0  0  0  0  0  0
   35.4290   31.7160   32.4360 C   0  0  0  0  0  3  0  0  0  0  0  0
   34.5790   32.2910   32.8730 H   0  0  0  0  0  0  0  0  0  0  0  0
   33.8560   30.9550   30.8640 O   0  0  0  0  0  0  0  0  0  0  0  0
   33.5830   30.4900   31.7080 H   0  0  0  0  0  0  0  0  0  0  0  0
   37.8180   24.4060   33.8340 O   0  0  0  0  0  0  0  0  0  0  0  0
   38.7860   23.9770   34.7340 C   0  0  0  0  0  0  0  0  0  0  0  0
   40.1030   24.0650   34.3170 C   0  0  0  0  0  0  0  0  0  0  0  0
   41.0990   23.6460   35.1890 C   0  0  0  0  0  0  0  0  0  0  0  0
   40.7370   23.1670   36.4120 N   0  0  0  0  0  0  0  0  0  0  0  0
   39.4560   23.0880   36.8020 C   0  0  0  0  0  0  0  0  0  0  0  0
   38.5170   23.4920   35.9600 N   0  0  0  0  0  0  0  0  0  0  0  0
   38.4060   23.5280   38.8820 C   0  0  0  0  0  0  0  0  0  0  0  0
   38.0690   24.7080   38.5780 O   0  0  0  0  0  0  0  0  0  0  0  0
   39.1160   22.5800   38.0870 N   0  0  0  0  0  0  0  0  0  0  0  0
   40.4390   24.4350   33.3620 H   0  0  0  0  0  0  0  0  0  0  0  0
   42.1320   23.6970   34.9030 H   0  0  0  0  0  0  0  0  0  0  0  0
   38.0780   23.2830   39.8880 H   0  0  0  0  0  0  0  0  0  0  0  0
   39.3380   21.6270   38.4500 H   0  0  0  0  0  0  0  0  0  0  0  0
  2  1  2  0  0  0  0
  3  7  1  6  0  0  0
  3  2  1  0  0  0  0
  3 24  1  0  0  0  0
  4  9  1  0  0  0  0
  4  3  1  0  0  0  0
  5  4  1  0  0  0  0
  5  6  1  0  0  0  0
  6 12  1  0  0  0  0
  6  2  1  0  0  0  0
  8  4  1  0  0  0  0
 10  5  1  0  0  0  0
 11  5  1  0  0  0  0
 12 14  1  0  0  0  0
 13 12  1  0  0  0  0
 15 22  1  1  0  0  0
 15 20  1  0  0  0  0
 16 15  1  0  0  0  0
 16 18  1  0  0  0  0
 17 16  1  0  0  0  0
 18 12  1  6  0  0  0
 18 19  1  0  0  0  0
 20 21  1  0  0  0  0
 20 19  1  0  0  0  0
 22 23  1  0  0  0  0
 24 25  1  0  0  0  0
 25 30  1  0  0  0  0
 26 25  2  0  0  0  0
 26 27  1  0  0  0  0
 27 28  2  0  0  0  0
 28 29  1  0  0  0  0
 29 33  1  0  0  0  0
 30 29  2  0  0  0  0
 31 36  1  0  0  0  0
 32 31  2  0  0  0  0
 33 37  1  0  0  0  0
 33 31  1  0  0  0  0
 34 26  1  0  0  0  0
 35 27  1  0  0  0  0
M  END
>  <minimizedAffinity>
-5.07876301

$$$$

 OpenBabel03272506403D

 37 39  0  0  1  0  0  0  0  0999 V2000
   38.3810   26.0240   36.1390 O   0  0  0  0  0  0  0  0  0  0  0  0
   38.2780   25.1870   35.2210 C   0  0  0  0  0  0  0  0  0  0  0  0
   37.6720   25.5360   33.9550 C   0  0  2  0  0  0  0  0  0  0  0  0
   37.9690   24.2470   33.1250 C   0  0  0  0  0  0  0  0  0  0  0  0
   38.0510   23.1820   34.1770 C   0  0  0  0  0  0  0  0  0  0  0  0
   38.7280   23.8140   35.2930 N   0  0  0  0  0  0  0  0  0  0  0  0
   36.5920   25.6990   33.9300 H   0  0  0  0  0  0  0  0  0  0  0  0
   37.1820   24.0990   32.3740 H   0  0  0  0  0  0  0  0  0  0  0  0
   38.9270   24.4120   32.6360 H   0  0  0  0  0  0  0  0  0  0  0  0
   37.0560   22.7780   34.4550 H   0  0  0  0  0  0  0  0  0  0  0  0
   38.7130   22.3840   33.7860 H   0  0  0  0  0  0  0  0  0  0  0  0
   39.6460   23.2450   36.2720 C   0  0  0  0  0  0  0  0  0  0  0  0
   39.6830   23.8230   37.2180 H   0  0  0  0  0  0  0  0  0  0  0  0
   39.1900   22.2570   36.5720 H   0  0  0  0  0  0  0  0  0  0  0  0
   42.5990   21.6260   36.7050 C   0  0  2  0  0  3  0  0  0  0  0  0
   42.0140   23.0160   36.7830 C   0  0  0  0  0  3  0  0  0  0  0  0
   41.5430   23.1770   37.7780 H   0  0  0  0  0  0  0  0  0  0  0  0
   40.9890   23.0010   35.6740 C   0  0  1  0  0  3  0  0  0  0  0  0
   40.9980   21.7080   35.1510 O   0  0  0  0  0  0  0  0  0  0  0  0
   42.3080   21.2570   35.2700 C   0  0  0  0  0  3  0  0  0  0  0  0
   42.2550   20.1510   35.1270 H   0  0  0  0  0  0  0  0  0  0  0  0
   41.8420   20.7960   37.5270 O   0  0  0  0  0  0  0  0  0  0  0  0
   40.9760   20.5950   37.0660 H   0  0  0  0  0  0  0  0  0  0  0  0
   38.3260   26.6000   33.2590 O   0  0  0  0  0  0  0  0  0  0  0  0
   37.5440   27.4080   32.4420 C   0  0  0  0  0  0  0  0  0  0  0  0
   36.6190   28.2200   33.0730 C   0  0  0  0  0  0  0  0  0  0  0  0
   35.8190   29.0410   32.2900 C   0  0  0  0  0  0  0  0  0  0  0  0
   35.9800   29.0110   30.9370 N   0  0  0  0  0  0  0  0  0  0  0  0
   36.8810   28.2180   30.3390 C   0  0  0  0  0  0  0  0  0  0  0  0
   37.6370   27.4410   31.0990 N   0  0  0  0  0  0  0  0  0  0  0  0
   38.3290   28.5800   28.4970 C   0  0  0  0  0  0  0  0  0  0  0  0
   39.3240   28.8950   29.2090 O   0  0  0  0  0  0  0  0  0  0  0  0
   37.0180   28.2110   28.9220 N   0  0  0  0  0  0  0  0  0  0  0  0
   36.4540   28.2790   34.1370 H   0  0  0  0  0  0  0  0  0  0  0  0
   35.0900   29.6850   32.7420 H   0  0  0  0  0  0  0  0  0  0  0  0
   38.5850   28.6190   27.4410 H   0  0  0  0  0  0  0  0  0  0  0  0
   36.2720   27.9690   28.2340 H   0  0  0  0  0  0  0  0  0  0  0  0
  2  6  1  0  0  0  0
  2  1  2  0  0  0  0
  3  7  1  1  0  0  0
  3  2  1  0  0  0  0
  4  3  1  0  0  0  0
  4  5  1  0  0  0  0
  5 10  1  0  0  0  0
  5  6  1  0  0  0  0
  6 12  1  0  0  0  0
  8  4  1  0  0  0  0
  9  4  1  0  0  0  0
 11  5  1  0  0  0  0
 12 14  1  0  0  0  0
 12 13  1  0  0  0  0
 15 16  1  0  0  0  0
 15 22  1  1  0  0  0
 16 17  1  0  0  0  0
 18 12  1  1  0  0  0
 18 16  1  0  0  0  0
 19 20  1  0  0  0  0
 19 18  1  0  0  0  0
 20 15  1  0  0  0  0
 21 20  1  0  0  0  0
 23 22  1  0  0  0  0
 24  3  1  0  0  0  0
 25 26  1  0  0  0  0
 25 24  1  0  0  0  0
 26 34  1  0  0  0  0
 27 35  1  0  0  0  0
 27 26  2  0  0  0  0
 28 27  1  0  0  0  0
 29 28  2  0  0  0  0
 29 30  1  0  0  0  0
 30 25  2  0  0  0  0
 31 33  1  0  0  0  0
 31 32  2  0  0  0  0
 33 29  1  0  0  0  0
 36 31  1  0  0  0  0
 37 33  1  0  0  0  0
M  END
>  <minimizedAffinity>
-5.07603121

$$$$

 OpenBabel03272506403D

 37 39  0  0  1  0  0  0  0  0999 V2000
   37.0470   24.7600   32.4730 O   0  0  0  0  0  0  0  0  0  0  0  0
   37.0250   25.8940   32.9910 C   0  0  0  0  0  0  0  0  0  0  0  0
   37.4300   26.0990   34.3640 C   0  0  2  0  0  0  0  0  0  0  0  0
   37.4120   27.6580   34.4430 C   0  0  0  0  0  0  0  0  0  0  0  0
   36.3920   28.0360   33.4110 C   0  0  0  0  0  0  0  0  0  0  0  0
   36.6090   27.1060   32.3190 N   0  0  0  0  0  0  0  0  0  0  0  0
   36.7750   25.7240   35.1530 H   0  0  0  0  0  0  0  0  0  0  0  0
   37.1760   27.9760   35.4680 H   0  0  0  0  0  0  0  0  0  0  0  0
   38.4120   27.9890   34.1690 H   0  0  0  0  0  0  0  0  0  0  0  0
   35.3550   28.0000   33.8020 H   0  0  0  0  0  0  0  0  0  0  0  0
   36.6510   29.0510   33.0500 H   0  0  0  0  0  0  0  0  0  0  0  0
   36.4580   27.3020   30.8820 C   0  0  0  0  0  0  0  0  0  0  0  0
   36.5860   26.3660   30.3020 H   0  0  0  0  0  0  0  0  0  0  0  0
   35.3720   27.5730   30.7290 H   0  0  0  0  0  0  0  0  0  0  0  0
   39.2110   28.0680   29.0490 C   0  0  2  0  0  3  0  0  0  0  0  0
   38.7570   27.9910   30.4880 C   0  0  0  0  0  3  0  0  0  0  0  0
   38.8540   26.9480   30.8630 H   0  0  0  0  0  0  0  0  0  0  0  0
   37.3130   28.4220   30.3980 C   0  0  1  0  0  3  0  0  0  0  0  0
   37.0460   28.6120   29.0420 O   0  0  0  0  0  0  0  0  0  0  0  0
   38.2330   29.0660   28.4780 C   0  0  0  0  0  3  0  0  0  0  0  0
   38.1060   28.9410   27.3770 H   0  0  0  0  0  0  0  0  0  0  0  0
   38.9650   26.8330   28.4560 O   0  0  0  0  0  0  0  0  0  0  0  0
   37.9830   26.7570   28.2750 H   0  0  0  0  0  0  0  0  0  0  0  0
   38.7780   25.7150   34.6470 O   0  0  0  0  0  0  0  0  0  0  0  0
   38.9770   24.7410   35.6190 C   0  0  0  0  0  0  0  0  0  0  0  0
   37.9270   24.5090   36.4890 C   0  0  0  0  0  0  0  0  0  0  0  0
   38.0880   23.5440   37.4740 C   0  0  0  0  0  0  0  0  0  0  0  0
   39.2710   22.8700   37.5400 N   0  0  0  0  0  0  0  0  0  0  0  0
   40.2810   23.1070   36.6900 C   0  0  0  0  0  0  0  0  0  0  0  0
   40.1120   24.0300   35.7550 N   0  0  0  0  0  0  0  0  0  0  0  0
   41.8080   21.6530   35.6060 C   0  0  0  0  0  0  0  0  0  0  0  0
   41.1400   21.5830   34.5350 O   0  0  0  0  0  0  0  0  0  0  0  0
   41.5030   22.3850   36.7910 N   0  0  0  0  0  0  0  0  0  0  0  0
   36.9740   25.0150   36.4770 H   0  0  0  0  0  0  0  0  0  0  0  0
   37.2970   23.3350   38.1680 H   0  0  0  0  0  0  0  0  0  0  0  0
   42.7120   21.0540   35.5340 H   0  0  0  0  0  0  0  0  0  0  0  0
   42.1380   22.3660   37.6200 H   0  0  0  0  0  0  0  0  0  0  0  0
  1  2  2  0  0  0  0
  2  3  1  0  0  0  0
  3  4  1  0  0  0  0
  3 24  1  0  0  0  0
  3  7  1  1  0  0  0
  4  8  1  0  0  0  0
  5 10  1  0  0  0  0
  5  4  1  0  0  0  0
  6  2  1  0  0  0  0
  6  5  1  0  0  0  0
  9  4  1  0  0  0  0
 11  5  1  0  0  0  0
 12  6  1  0  0  0  0
 13 12  1  0  0  0  0
 14 12  1  0  0  0  0
 15 22  1  6  0  0  0
 15 16  1  0  0  0  0
 16 17  1  0  0  0  0
 18 16  1  0  0  0  0
 18 12  1  6  0  0  0
 19 18  1  0  0  0  0
 20 19  1  0  0  0  0
 20 15  1  0  0  0  0
 21 20  1  0  0  0  0
 23 22  1  0  0  0  0
 24 25  1  0  0  0  0
 25 30  2  0  0  0  0
 25 26  1  0  0  0  0
 26 27  2  0  0  0  0
 27 28  1  0  0  0  0
 27 35  1  0  0  0  0
 29 33  1  0  0  0  0
 29 28  2  0  0  0  0
 30 29  1  0  0  0  0
 31 33  1  0  0  0  0
 32 31  2  0  0  0  0
 33 37  1  0  0  0  0
 34 26  1  0  0  0  0
 36 31  1  0  0  0  0
M  END
>  <minimizedAffinity>
-5.02235031

$$$$

 OpenBabel03272506403D

 37 39  0  0  1  0  0  0  0  0999 V2000
   36.6460   27.4360   33.1440 O   0  0  0  0  0  0  0  0  0  0  0  0
   37.7910   27.1880   33.5700 C   0  0  0  0  0  0  0  0  0  0  0  0
   38.0440   27.0230   34.9840 C   0  0  2  0  0  0  0  0  0  0  0  0
   39.5310   26.5430   34.9590 C   0  0  0  0  0  0  0  0  0  0  0  0
   40.0600   27.1540   33.6960 C   0  0  0  0  0  0  0  0  0  0  0  0
   38.9700   27.0400   32.7450 N   0  0  0  0  0  0  0  0  0  0  0  0
   37.9970   27.9090   35.6200 H   0  0  0  0  0  0  0  0  0  0  0  0
   40.0400   26.8630   35.8780 H   0  0  0  0  0  0  0  0  0  0  0  0
   39.5000   25.4570   34.9050 H   0  0  0  0  0  0  0  0  0  0  0  0
   40.3960   28.2020   33.8350 H   0  0  0  0  0  0  0  0  0  0  0  0
   40.8880   26.5100   33.3410 H   0  0  0  0  0  0  0  0  0  0  0  0
   39.0080   26.8270   31.3020 C   0  0  0  0  0  0  0  0  0  0  0  0
   39.9040   26.2640   30.9720 H   0  0  0  0  0  0  0  0  0  0  0  0
   38.1480   26.1300   31.0800 H   0  0  0  0  0  0  0  0  0  0  0  0
   39.1610   28.2920   28.2430 C   0  0  2  0  0  3  0  0  0  0  0  0
   39.9150   28.2520   29.5510 C   0  0  0  0  0  3  0  0  0  0  0  0
   40.6050   27.3790   29.5670 H   0  0  0  0  0  0  0  0  0  0  0  0
   38.8040   28.1050   30.5640 C   0  0  1  0  0  3  0  0  0  0  0  0
   37.6220   27.9950   29.8330 O   0  0  0  0  0  0  0  0  0  0  0  0
   37.8020   28.7720   28.6940 C   0  0  0  0  0  3  0  0  0  0  0  0
   36.9960   28.4590   27.9890 H   0  0  0  0  0  0  0  0  0  0  0  0
   39.0270   26.9840   27.7860 O   0  0  0  0  0  0  0  0  0  0  0  0
   38.3190   26.5280   28.3260 H   0  0  0  0  0  0  0  0  0  0  0  0
   37.3090   25.9610   35.5970 O   0  0  0  0  0  0  0  0  0  0  0  0
   37.9610   24.7460   35.7710 C   0  0  0  0  0  0  0  0  0  0  0  0
   38.3210   24.4150   37.0650 C   0  0  0  0  0  0  0  0  0  0  0  0
   38.9740   23.2090   37.2800 C   0  0  0  0  0  0  0  0  0  0  0  0
   39.2320   22.4070   36.2090 N   0  0  0  0  0  0  0  0  0  0  0  0
   38.8770   22.7420   34.9590 C   0  0  0  0  0  0  0  0  0  0  0  0
   38.2540   23.8950   34.7700 N   0  0  0  0  0  0  0  0  0  0  0  0
   37.9910   21.4620   33.1710 C   0  0  0  0  0  0  0  0  0  0  0  0
   36.7880   21.7610   33.4170 O   0  0  0  0  0  0  0  0  0  0  0  0
   39.1660   21.8790   33.8640 N   0  0  0  0  0  0  0  0  0  0  0  0
   38.1400   25.0150   37.9430 H   0  0  0  0  0  0  0  0  0  0  0  0
   39.2700   22.9170   38.2690 H   0  0  0  0  0  0  0  0  0  0  0  0
   38.0540   20.8010   32.3110 H   0  0  0  0  0  0  0  0  0  0  0  0
   40.1140   21.5630   33.5650 H   0  0  0  0  0  0  0  0  0  0  0  0
  1  2  2  0  0  0  0
  2  3  1  0  0  0  0
  3 24  1  0  0  0  0
  3  7  1  1  0  0  0
  4  3  1  0  0  0  0
  4  8  1  0  0  0  0
  5 10  1  0  0  0  0
  5  4  1  0  0  0  0
  6  2  1  0  0  0  0
  6  5  1  0  0  0  0
  9  4  1  0  0  0  0
 11  5  1  0  0  0  0
 12  6  1  0  0  0  0
 13 12  1  0  0  0  0
 14 12  1  0  0  0  0
 15 22  1  1  0  0  0
 15 20  1  0  0  0  0
 15 16  1  0  0  0  0
 16 17  1  0  0  0  0
 16 18  1  0  0  0  0
 18 12  1  6  0  0  0
 19 18  1  0  0  0  0
 20 19  1  0  0  0  0
 21 20  1  0  0  0  0
 22 23  1  0  0  0  0
 24 25  1  0  0  0  0
 25 26  1  0  0  0  0
 26 27  2  0  0  0  0
 26 34  1  0  0  0  0
 27 35  1  0  0  0  0
 28 27  1  0  0  0  0
 29 28  2  0  0  0  0
 30 29  1  0  0  0  0
 30 25  2  0  0  0  0
 31 32  2  0  0  0  0
 31 33  1  0  0  0  0
 33 29  1  0  0  0  0
 36 31  1  0  0  0  0
 37 33  1  0  0  0  0
M  END
>  <minimizedAffinity>
-4.98440123

$$$$

 OpenBabel03272506403D

 37 39  0  0  1  0  0  0  0  0999 V2000
   37.2350   28.2570   35.2280 O   0  0  0  0  0  0  0  0  0  0  0  0
   37.2570   27.3700   34.3530 C   0  0  0  0  0  0  0  0  0  0  0  0
   37.9060   26.1000   34.5920 C   0  0  2  0  0  0  0  0  0  0  0  0
   37.4820   25.3120   33.3110 C   0  0  0  0  0  0  0  0  0  0  0  0
   37.2810   26.3990   32.2990 C   0  0  0  0  0  0  0  0  0  0  0  0
   36.6650   27.4840   33.0380 N   0  0  0  0  0  0  0  0  0  0  0  0
   38.9970   26.0820   34.6400 H   0  0  0  0  0  0  0  0  0  0  0  0
   38.2550   24.5750   33.0550 H   0  0  0  0  0  0  0  0  0  0  0  0
   36.5510   24.8070   33.5580 H   0  0  0  0  0  0  0  0  0  0  0  0
   38.2260   26.7030   31.8040 H   0  0  0  0  0  0  0  0  0  0  0  0
   36.5420   26.0280   31.5610 H   0  0  0  0  0  0  0  0  0  0  0  0
   35.6850   28.4720   32.6030 C   0  0  0  0  0  0  0  0  0  0  0  0
   35.0030   28.0880   31.8170 H   0  0  0  0  0  0  0  0  0  0  0  0
   35.0110   28.6380   33.4940 H   0  0  0  0  0  0  0  0  0  0  0  0
   35.3410   31.3230   30.7910 C   0  0  2  0  0  3  0  0  0  0  0  0
   36.1040   30.0200   30.7730 C   0  0  0  0  0  3  0  0  0  0  0  0
   35.4840   29.2210   30.3080 H   0  0  0  0  0  0  0  0  0  0  0  0
   36.3410   29.7600   32.2420 C   0  0  1  0  0  3  0  0  0  0  0  0
   35.6890   30.7830   32.9290 O   0  0  0  0  0  0  0  0  0  0  0  0
   35.7740   31.9070   32.1140 C   0  0  0  0  0  3  0  0  0  0  0  0
   35.0220   32.6250   32.5180 H   0  0  0  0  0  0  0  0  0  0  0  0
   33.9840   31.0240   30.8740 O   0  0  0  0  0  0  0  0  0  0  0  0
   33.7760   30.7430   31.8120 H   0  0  0  0  0  0  0  0  0  0  0  0
   37.3720   25.3600   35.6920 O   0  0  0  0  0  0  0  0  0  0  0  0
   38.2360   24.5090   36.3720 C   0  0  0  0  0  0  0  0  0  0  0  0
   37.8760   24.1600   37.6610 C   0  0  0  0  0  0  0  0  0  0  0  0
   38.7130   23.3120   38.3730 C   0  0  0  0  0  0  0  0  0  0  0  0
   39.8510   22.8620   37.7720 N   0  0  0  0  0  0  0  0  0  0  0  0
   40.1870   23.2090   36.5210 C   0  0  0  0  0  0  0  0  0  0  0  0
   39.3780   24.0190   35.8540 N   0  0  0  0  0  0  0  0  0  0  0  0
   41.1410   21.9710   34.7390 C   0  0  0  0  0  0  0  0  0  0  0  0
   40.0320   21.7080   34.1920 O   0  0  0  0  0  0  0  0  0  0  0  0
   41.3850   22.7220   35.9260 N   0  0  0  0  0  0  0  0  0  0  0  0
   36.9890   24.4890   38.1800 H   0  0  0  0  0  0  0  0  0  0  0  0
   38.4690   23.0190   39.3760 H   0  0  0  0  0  0  0  0  0  0  0  0
   41.9600   21.5350   34.1730 H   0  0  0  0  0  0  0  0  0  0  0  0
   42.3530   22.8730   36.2830 H   0  0  0  0  0  0  0  0  0  0  0  0
  2  3  1  0  0  0  0
  2  1  2  0  0  0  0
  3  7  1  1  0  0  0
  3 24  1  0  0  0  0
  4  9  1  0  0  0  0
  4  3  1  0  0  0  0
  5  6  1  0  0  0  0
  5  4  1  0  0  0  0
  6  2  1  0  0  0  0
  8  4  1  0  0  0  0
 10  5  1  0  0  0  0
 11  5  1  0  0  0  0
 12  6  1  0  0  0  0
 12 14  1  0  0  0  0
 13 12  1  0  0  0  0
 15 22  1  1  0  0  0
 15 20  1  0  0  0  0
 16 15  1  0  0  0  0
 16 18  1  0  0  0  0
 17 16  1  0  0  0  0
 18 12  1  1  0  0  0
 18 19  1  0  0  0  0
 20 21  1  0  0  0  0
 20 19  1  0  0  0  0
 22 23  1  0  0  0  0
 24 25  1  0  0  0  0
 25 26  1  0  0  0  0
 26 34  1  0  0  0  0
 26 27  2  0  0  0  0
 27 35  1  0  0  0  0
 28 27  1  0  0  0  0
 29 28  2  0  0  0  0
 30 25  2  0  0  0  0
 30 29  1  0  0  0  0
 31 33  1  0  0  0  0
 32 31  2  0  0  0  0
 33 37  1  0  0  0  0
 33 29  1  0  0  0  0
 36 31  1  0  0  0  0
M  END
>  <minimizedAffinity>
-4.98365593

$$$$
