REMARK  Name = 
REMARK  3 active torsions:
REMARK  status: ('A' for Active; 'I' for Inactive)
REMARK    1  A    between atoms: C_1  and  C_7
REMARK    2  A    between atoms: C_7  and  C_17
REMARK    3  A    between atoms: O_13  and  C_14
REMARK                            x       y       z     vdW  Elec       q    Type
REMARK                         _______ _______ _______ _____ _____    ______ ____
ROOT
ATOM      1  C   UNL     1      37.395  29.943  51.883  0.00  0.00    +0.000 C 
ATOM      2  H   UNL     1      36.469  29.440  52.261  0.00  0.00    +0.000 HD
ATOM      3  H   UNL     1      37.529  30.826  52.504  0.00  0.00    +0.000 HD
ENDROOT
BRANCH   1   4
ATOM      4  C   UNL     1      37.141  30.269  50.464  0.00  0.00    +0.000 A 
ATOM      5  C   UNL     1      37.861  31.338  49.921  0.00  0.00    +0.000 A 
ATOM      6  C   UNL     1      37.630  31.665  48.563  0.00  0.00    +0.000 A 
ATOM      7  N   UNL     1      36.728  30.924  47.871  0.00  0.00    +0.000 NA
ATOM      8  C   UNL     1      36.059  29.904  48.437  0.00  0.00    +0.000 A 
ATOM      9  N   UNL     1      36.266  29.583  49.721  0.00  0.00    +0.000 NA
ATOM     10  H   UNL     1      38.570  31.881  50.555  0.00  0.00    +0.000 HD
ATOM     11  H   UNL     1      38.187  32.490  48.146  0.00  0.00    +0.000 HD
ATOM     12  H   UNL     1      35.338  29.310  47.889  0.00  0.00    +0.000 HD
ENDBRANCH   1   4
BRANCH   1  16
ATOM     13  C   UNL     1      40.058  27.816  53.339  0.00  0.00    +0.000 C 
ATOM     14  C   UNL     1      39.246  29.118  53.358  0.00  0.00    +0.000 C 
ATOM     15  H   UNL     1      38.558  29.117  54.224  0.00  0.00    +0.000 HD
ATOM     16  C   UNL     1      38.501  28.944  52.062  0.00  0.00    +0.000 C 
ATOM     17  O   UNL     1      38.016  27.642  52.235  0.00  0.00    +0.000 OA
ATOM     18  C   UNL     1      39.175  26.919  52.530  0.00  0.00    +0.000 C 
ATOM     19  H   UNL     1      38.885  25.985  53.039  0.00  0.00    +0.000 HD
BRANCH  13  20
ATOM     20  O   UNL     1      41.226  28.087  52.590  0.00  0.00    +0.000 OA
ATOM     21  H   UNL     1      41.454  29.065  52.623  0.00  0.00    +0.000 HD
ENDBRANCH  13  20
ENDBRANCH   1  16
TORSDOF 3
