
 OpenBabel03272506393D

 37 39  0  0  1  0  0  0  0  0999 V2000
   34.9080   28.0500   49.7480 O   0  0  0  0  0  0  0  0  0  0  0  0
   34.8140   28.6250   48.6460 C   0  0  0  0  0  0  0  0  0  0  0  0
   35.5220   29.8580   48.3830 C   0  0  2  0  0  0  0  0  0  0  0  0
   35.2380   30.0370   46.8570 C   0  0  0  0  0  0  0  0  0  0  0  0
   33.9310   29.3270   46.6730 C   0  0  0  0  0  0  0  0  0  0  0  0
   34.0190   28.1590   47.5300 N   0  0  0  0  0  0  0  0  0  0  0  0
   35.1790   30.7640   48.8870 H   0  0  0  0  0  0  0  0  0  0  0  0
   35.2260   31.1050   46.6040 H   0  0  0  0  0  0  0  0  0  0  0  0
   36.0520   29.5370   46.3350 H   0  0  0  0  0  0  0  0  0  0  0  0
   33.0580   29.9670   46.9150 H   0  0  0  0  0  0  0  0  0  0  0  0
   33.8930   28.9740   45.6230 H   0  0  0  0  0  0  0  0  0  0  0  0
   33.4610   26.8240   47.3510 C   0  0  0  0  0  0  0  0  0  0  0  0
   33.4150   26.5140   46.2870 H   0  0  0  0  0  0  0  0  0  0  0  0
   34.2150   26.1200   47.8100 H   0  0  0  0  0  0  0  0  0  0  0  0
   30.2850   28.0070   47.5480 C   0  0  2  0  0  3  0  0  0  0  0  0
   31.5940   28.0630   48.2980 C   0  0  0  0  0  3  0  0  0  0  0  0
   32.2460   28.8550   47.8680 H   0  0  0  0  0  0  0  0  0  0  0  0
   32.1620   26.6830   48.0670 C   0  0  1  0  0  3  0  0  0  0  0  0
   31.2690   26.0320   47.2160 O   0  0  0  0  0  0  0  0  0  0  0  0
   30.0090   26.5230   47.5340 C   0  0  0  0  0  3  0  0  0  0  0  0
   29.3510   26.2290   46.6810 H   0  0  0  0  0  0  0  0  0  0  0  0
   30.5250   28.4140   46.2390 O   0  0  0  0  0  0  0  0  0  0  0  0
   30.9800   27.6690   45.7510 H   0  0  0  0  0  0  0  0  0  0  0  0
   36.9430   29.7620   48.5010 O   0  0  0  0  0  0  0  0  0  0  0  0
   37.6720   30.9450   48.4590 C   0  0  0  0  0  0  0  0  0  0  0  0
   37.8420   31.6120   49.6580 C   0  0  0  0  0  0  0  0  0  0  0  0
   38.5640   32.7970   49.6570 C   0  0  0  0  0  0  0  0  0  0  0  0
   39.0720   33.2510   48.4770 N   0  0  0  0  0  0  0  0  0  0  0  0
   38.8990   32.5930   47.3200 C   0  0  0  0  0  0  0  0  0  0  0  0
   38.2080   31.4630   47.3380 N   0  0  0  0  0  0  0  0  0  0  0  0
   40.3580   32.1920   45.4960 C   0  0  0  0  0  0  0  0  0  0  0  0
   40.7180   31.0500   45.9010 O   0  0  0  0  0  0  0  0  0  0  0  0
   39.4420   33.0990   46.1060 N   0  0  0  0  0  0  0  0  0  0  0  0
   37.4600   31.2950   50.6160 H   0  0  0  0  0  0  0  0  0  0  0  0
   38.7180   33.3450   50.5670 H   0  0  0  0  0  0  0  0  0  0  0  0
   40.8540   32.4400   44.5610 H   0  0  0  0  0  0  0  0  0  0  0  0
   39.2230   34.0220   45.6720 H   0  0  0  0  0  0  0  0  0  0  0  0
  2  1  2  0  0  0  0
  3 24  1  0  0  0  0
  3  2  1  0  0  0  0
  3  7  1  1  0  0  0
  4  3  1  0  0  0  0
  5  4  1  0  0  0  0
  5 10  1  0  0  0  0
  5  6  1  0  0  0  0
  6  2  1  0  0  0  0
  8  4  1  0  0  0  0
  9  4  1  0  0  0  0
 11  5  1  0  0  0  0
 12  6  1  0  0  0  0
 12 14  1  0  0  0  0
 13 12  1  0  0  0  0
 15 22  1  6  0  0  0
 15 16  1  0  0  0  0
 17 16  1  0  0  0  0
 18 12  1  6  0  0  0
 18 16  1  0  0  0  0
 19 20  1  0  0  0  0
 19 18  1  0  0  0  0
 20 15  1  0  0  0  0
 21 20  1  0  0  0  0
 23 22  1  0  0  0  0
 25 24  1  0  0  0  0
 25 26  1  0  0  0  0
 26 34  1  0  0  0  0
 27 26  2  0  0  0  0
 27 35  1  0  0  0  0
 28 27  1  0  0  0  0
 29 30  1  0  0  0  0
 29 28  2  0  0  0  0
 30 25  2  0  0  0  0
 31 32  2  0  0  0  0
 31 33  1  0  0  0  0
 33 29  1  0  0  0  0
 36 31  1  0  0  0  0
 37 33  1  0  0  0  0
M  END
>  <minimizedAffinity>
-5.68237305

>  <minimizedRMSD>
1.09225488

$$$$
