
     RDKit          3D

 37 39  0  0  0  0  0  0  0  0999 V2000
   37.7388   31.6245   47.4747 C   0  0  0  0  0  0  0  0  0  0  0  0
   37.9614   32.4522   48.5888 C   0  0  0  0  0  0  0  0  0  0  0  0
   39.0023   33.3543   48.6097 C   0  0  0  0  0  0  0  0  0  0  0  0
   39.7968   33.3916   47.4879 C   0  0  0  0  0  0  0  0  0  0  0  0
   39.5678   32.5835   46.4177 C   0  0  0  0  0  0  0  0  0  0  0  0
   38.5438   31.6918   46.3895 N   0  0  0  0  0  0  0  0  0  0  0  0
   36.6296   30.7107   47.5352 C   0  0  0  0  0  0  0  0  0  0  0  0
   36.0701   30.3263   46.5088 O   0  0  0  0  0  0  0  0  0  0  0  0
   37.0211   29.6320   49.7232 C   0  0  0  0  0  0  0  0  0  0  0  0
   36.1089   30.1914   48.8098 C   0  0  0  0  0  0  0  0  0  0  0  0
   34.7452   30.2384   49.1346 C   0  0  0  0  0  0  0  0  0  0  0  0
   34.3520   29.7301   50.3458 N   0  0  0  0  0  0  0  0  0  0  0  0
   35.2500   29.1982   51.2048 C   0  0  0  0  0  0  0  0  0  0  0  0
   36.5494   29.1527   50.8968 N   0  0  0  0  0  0  0  0  0  0  0  0
   40.6249   32.6425   44.9414 S   0  0  0  0  0  0  0  0  0  0  0  0
   39.4959   32.9420   43.5496 C   0  0  0  0  0  0  0  0  0  0  0  0
   37.2867   32.3646   49.4439 H   0  0  0  0  0  0  0  0  0  0  0  0
   39.1998   34.0059   49.4535 H   0  0  0  0  0  0  0  0  0  0  0  0
   40.6434   34.0582   47.3878 H   0  0  0  0  0  0  0  0  0  0  0  0
   38.0616   29.6120   49.4412 H   0  0  0  0  0  0  0  0  0  0  0  0
   34.0533   30.6728   48.4201 H   0  0  0  0  0  0  0  0  0  0  0  0
   34.8563   28.8187   52.1403 H   0  0  0  0  0  0  0  0  0  0  0  0
   38.8092   32.0651   43.3974 H   0  0  0  0  0  0  0  0  0  0  0  0
   38.8482   33.8066   43.6750 H   0  0  0  0  0  0  0  0  0  0  0  0
   39.5969   35.4119   39.8032 O   0  0  0  0  0  0  0  0  0  0  0  0
   40.1686   34.2604   40.3312 C   0  0  1  0  0  0  0  0  0  0  0  0
   40.4900   34.4142   41.8039 C   0  0  1  0  0  0  0  0  0  0  0  0
   41.5141   34.8105   41.9486 H   0  0  0  0  0  0  0  0  0  0  0  0
   40.3345   32.9994   42.2900 C   0  0  2  0  0  0  0  0  0  0  0  0
   39.8059   32.2516   41.2736 O   0  0  0  0  0  0  0  0  0  0  0  0
   39.1828   33.1121   40.3779 C   0  0  1  0  0  0  0  0  0  0  0  0
   38.1777   33.4183   40.7077 H   0  0  0  0  0  0  0  0  0  0  0  0
   38.6144   35.3219   39.8974 H   0  0  0  0  0  0  0  0  0  0  0  0
   41.0648   33.9115   39.7785 H   0  0  0  0  0  0  0  0  0  0  0  0
   39.7269   35.0859   42.2479 H   0  0  0  0  0  0  0  0  0  0  0  0
   41.3282   32.5722   42.5475 H   0  0  0  0  0  0  0  0  0  0  0  0
   39.1387   32.5525   39.4085 H   0  0  0  0  0  0  0  0  0  0  0  0
  1  7  1  0
  1  2  2  0
  2  3  1  0
  4  3  2  0
  5  4  1  0
  6  5  2  0
  6  1  1  0
  7 10  1  0
  8  7  2  0
  9 14  2  0
 10 11  2  0
 10  9  1  0
 11 12  1  0
 12 13  2  0
 14 13  1  0
 15  5  1  0
 16 15  1  0
  2 17  1  0
  3 18  1  0
  4 19  1  0
  9 20  1  0
 11 21  1  0
 13 22  1  0
 16 23  1  0
 16 24  1  0
 25 26  1  0
 26 27  1  0
 27 28  1  6
 27 29  1  0
 29 30  1  0
 30 31  1  0
 31 32  1  1
 31 26  1  0
 25 33  1  0
 26 34  1  6
 27 35  1  0
 29 36  1  1
 31 37  1  0
 16 29  1  0
M  ISO  8  17  14  18  14  19  14  20  14  21  14  22  14  23   8  24   8
M  ISO  2  28   8  32  16
M  END
>  <DihAtoms>  (1) 
14,15,28,26

>  <DihDeg>  (1) 
-179.99368842751434

$$$$
