
 OpenBabel03272506393D

 37 39  0  0  1  0  0  0  0  0999 V2000
   35.0840   28.5300   49.7570 O   0  0  0  0  0  0  0  0  0  0  0  0
   35.0150   28.9610   48.5890 C   0  0  0  0  0  0  0  0  0  0  0  0
   35.7520   30.1360   48.1800 C   0  0  2  0  0  0  0  0  0  0  0  0
   35.4890   30.1230   46.6400 C   0  0  0  0  0  0  0  0  0  0  0  0
   34.1680   29.4210   46.5310 C   0  0  0  0  0  0  0  0  0  0  0  0
   34.2220   28.3720   47.5310 N   0  0  0  0  0  0  0  0  0  0  0  0
   35.4220   31.1060   48.5590 H   0  0  0  0  0  0  0  0  0  0  0  0
   35.5020   31.1500   46.2520 H   0  0  0  0  0  0  0  0  0  0  0  0
   36.2970   29.5440   46.1980 H   0  0  0  0  0  0  0  0  0  0  0  0
   33.3070   30.1040   46.6760 H   0  0  0  0  0  0  0  0  0  0  0  0
   34.1350   28.9370   45.5340 H   0  0  0  0  0  0  0  0  0  0  0  0
   33.6380   27.0360   47.5170 C   0  0  0  0  0  0  0  0  0  0  0  0
   33.6850   26.5540   46.5190 H   0  0  0  0  0  0  0  0  0  0  0  0
   34.3180   26.4040   48.1590 H   0  0  0  0  0  0  0  0  0  0  0  0
   30.3480   27.5470   46.8480 C   0  0  2  0  0  3  0  0  0  0  0  0
   31.5100   28.2150   47.5440 C   0  0  0  0  0  3  0  0  0  0  0  0
   32.1190   28.7850   46.8090 H   0  0  0  0  0  0  0  0  0  0  0  0
   32.2710   27.0400   48.1100 C   0  0  1  0  0  3  0  0  0  0  0  0
   31.6060   25.8960   47.6680 O   0  0  0  0  0  0  0  0  0  0  0  0
   30.2610   26.2390   47.5950 C   0  0  0  0  0  3  0  0  0  0  0  0
   29.7840   25.4390   46.9810 H   0  0  0  0  0  0  0  0  0  0  0  0
   30.7350   27.2720   45.5390 O   0  0  0  0  0  0  0  0  0  0  0  0
   31.3490   26.4810   45.5470 H   0  0  0  0  0  0  0  0  0  0  0  0
   37.1690   30.0270   48.3290 O   0  0  0  0  0  0  0  0  0  0  0  0
   37.9100   31.2020   48.2850 C   0  0  0  0  0  0  0  0  0  0  0  0
   38.0710   31.8800   49.4800 C   0  0  0  0  0  0  0  0  0  0  0  0
   38.8060   33.0570   49.4760 C   0  0  0  0  0  0  0  0  0  0  0  0
   39.3340   33.4940   48.2990 N   0  0  0  0  0  0  0  0  0  0  0  0
   39.1690   32.8270   47.1470 C   0  0  0  0  0  0  0  0  0  0  0  0
   38.4670   31.7040   47.1660 N   0  0  0  0  0  0  0  0  0  0  0  0
   40.6480   32.3930   45.3460 C   0  0  0  0  0  0  0  0  0  0  0  0
   40.9910   31.2510   45.7670 O   0  0  0  0  0  0  0  0  0  0  0  0
   39.7340   33.3150   45.9350 N   0  0  0  0  0  0  0  0  0  0  0  0
   37.6740   31.5760   50.4350 H   0  0  0  0  0  0  0  0  0  0  0  0
   38.9520   33.6120   50.3830 H   0  0  0  0  0  0  0  0  0  0  0  0
   41.1590   32.6260   44.4150 H   0  0  0  0  0  0  0  0  0  0  0  0
   39.5290   34.2360   45.4890 H   0  0  0  0  0  0  0  0  0  0  0  0
  2  1  2  0  0  0  0
  3 24  1  0  0  0  0
  3  7  1  1  0  0  0
  3  2  1  0  0  0  0
  4  3  1  0  0  0  0
  5  4  1  0  0  0  0
  5 10  1  0  0  0  0
  5  6  1  0  0  0  0
  6  2  1  0  0  0  0
  8  4  1  0  0  0  0
  9  4  1  0  0  0  0
 11  5  1  0  0  0  0
 12  6  1  0  0  0  0
 12 14  1  0  0  0  0
 13 12  1  0  0  0  0
 15 22  1  6  0  0  0
 15 16  1  0  0  0  0
 15 20  1  0  0  0  0
 16 18  1  0  0  0  0
 17 16  1  0  0  0  0
 18 12  1  6  0  0  0
 19 18  1  0  0  0  0
 20 19  1  0  0  0  0
 21 20  1  0  0  0  0
 22 23  1  0  0  0  0
 25 24  1  0  0  0  0
 25 26  1  0  0  0  0
 26 34  1  0  0  0  0
 27 26  2  0  0  0  0
 27 35  1  0  0  0  0
 28 27  1  0  0  0  0
 29 30  1  0  0  0  0
 29 28  2  0  0  0  0
 30 25  2  0  0  0  0
 31 32  2  0  0  0  0
 31 33  1  0  0  0  0
 33 29  1  0  0  0  0
 36 31  1  0  0  0  0
 37 33  1  0  0  0  0
M  END
>  <minimizedAffinity>
-5.56514788

>  <minimizedRMSD>
0.662786305

$$$$
