REMARK  Name = 
REMARK  6 active torsions:
REMARK  status: ('A' for Active; 'I' for Inactive)
REMARK    1  A    between atoms: C_1  and  C_7
REMARK    2  A    between atoms: C_5  and  S_15
REMARK    3  A    between atoms: C_7  and  C_10
REMARK    4  A    between atoms: S_15  and  C_16
REMARK    5  A    between atoms: C_16  and  C_29
REMARK    6  A    between atoms: O_25  and  C_26
REMARK                            x       y       z     vdW  Elec       q    Type
REMARK                         _______ _______ _______ _____ _____    ______ ____
ROOT
ATOM      1  C   UNL     1      37.739  31.625  47.475  0.00  0.00    +0.000 A 
ATOM      2  C   UNL     1      37.961  32.452  48.589  0.00  0.00    +0.000 A 
ATOM      3  C   UNL     1      39.002  33.354  48.610  0.00  0.00    +0.000 A 
ATOM      4  C   UNL     1      39.797  33.392  47.488  0.00  0.00    +0.000 A 
ATOM      5  C   UNL     1      39.568  32.584  46.418  0.00  0.00    +0.000 A 
ATOM      6  N   UNL     1      38.544  31.692  46.389  0.00  0.00    +0.000 NA
ATOM      7  H   UNL     1      37.287  32.365  49.444  0.00  0.00    +0.000 HD
ATOM      8  H   UNL     1      39.200  34.006  49.453  0.00  0.00    +0.000 HD
ATOM      9  H   UNL     1      40.643  34.058  47.388  0.00  0.00    +0.000 HD
ENDROOT
BRANCH   1  10
ATOM     10  C   UNL     1      36.630  30.711  47.535  0.00  0.00    +0.000 C 
ATOM     11  O   UNL     1      36.070  30.326  46.509  0.00  0.00    +0.000 OA
BRANCH  10  13
ATOM     12  C   UNL     1      37.021  29.632  49.723  0.00  0.00    +0.000 A 
ATOM     13  C   UNL     1      36.109  30.191  48.810  0.00  0.00    +0.000 A 
ATOM     14  C   UNL     1      34.745  30.238  49.135  0.00  0.00    +0.000 A 
ATOM     15  N   UNL     1      34.352  29.730  50.346  0.00  0.00    +0.000 NA
ATOM     16  C   UNL     1      35.250  29.198  51.205  0.00  0.00    +0.000 A 
ATOM     17  N   UNL     1      36.549  29.153  50.897  0.00  0.00    +0.000 NA
ATOM     18  H   UNL     1      38.062  29.612  49.441  0.00  0.00    +0.000 HD
ATOM     19  H   UNL     1      34.053  30.673  48.420  0.00  0.00    +0.000 HD
ATOM     20  H   UNL     1      34.856  28.819  52.140  0.00  0.00    +0.000 HD
ENDBRANCH  10  13
ENDBRANCH   1  10
BRANCH   5  21
ATOM     21  S   UNL     1      40.625  32.642  44.941  0.00  0.00    +0.000 S 
BRANCH  21  22
ATOM     22  C   UNL     1      39.496  32.942  43.550  0.00  0.00    +0.000 C 
ATOM     23  H   UNL     1      38.809  32.065  43.397  0.00  0.00    +0.000 HD
ATOM     24  H   UNL     1      38.848  33.807  43.675  0.00  0.00    +0.000 HD
BRANCH  22  28
ATOM     25  C   UNL     1      40.169  34.260  40.331  0.00  0.00    +0.000 C 
ATOM     26  C   UNL     1      40.490  34.414  41.804  0.00  0.00    +0.000 C 
ATOM     27  H   UNL     1      41.514  34.810  41.949  0.00  0.00    +0.000 HD
ATOM     28  C   UNL     1      40.334  32.999  42.290  0.00  0.00    +0.000 C 
ATOM     29  O   UNL     1      39.806  32.252  41.274  0.00  0.00    +0.000 OA
ATOM     30  C   UNL     1      39.183  33.112  40.378  0.00  0.00    +0.000 C 
ATOM     31  H   UNL     1      38.178  33.418  40.708  0.00  0.00    +0.000 HD
BRANCH  25  32
ATOM     32  O   UNL     1      39.597  35.412  39.803  0.00  0.00    +0.000 OA
ATOM     33  H   UNL     1      38.614  35.322  39.897  0.00  0.00    +0.000 HD
ENDBRANCH  25  32
ENDBRANCH  22  28
ENDBRANCH  21  22
ENDBRANCH   5  21
TORSDOF 6
