REMARK  Name = 
REMARK  5 active torsions:
REMARK  status: ('A' for Active; 'I' for Inactive)
REMARK    1  A    between atoms: O_1  and  C_2
REMARK    2  A    between atoms: O_1  and  C_13
REMARK    3  A    between atoms: N_16  and  C_17
REMARK    4  A    between atoms: C_17  and  C_33
REMARK    5  A    between atoms: O_29  and  C_30
REMARK                            x       y       z     vdW  Elec       q    Type
REMARK                         _______ _______ _______ _____ _____    ______ ____
ROOT
ATOM      1  O   UNL     1      35.477  28.680  50.053  0.00  0.00    +0.000 OA
ATOM      2  C   UNL     1      35.255  29.051  48.884  0.00  0.00    +0.000 C 
ATOM      3  C   UNL     1      35.920  30.208  48.327  0.00  0.00    +0.000 C 
ATOM      4  C   UNL     1      35.464  30.116  46.836  0.00  0.00    +0.000 C 
ATOM      5  C   UNL     1      34.149  29.402  46.930  0.00  0.00    +0.000 C 
ATOM      6  N   UNL     1      34.342  28.405  47.966  0.00  0.00    +0.000 N 
ATOM      7  H   UNL     1      35.630  31.194  48.697  0.00  0.00    +0.000 HD
ATOM      8  H   UNL     1      35.416  31.122  46.399  0.00  0.00    +0.000 HD
ATOM      9  H   UNL     1      36.216  29.520  46.323  0.00  0.00    +0.000 HD
ATOM     10  H   UNL     1      33.305  30.087  47.150  0.00  0.00    +0.000 HD
ATOM     11  H   UNL     1      33.995  28.869  45.971  0.00  0.00    +0.000 HD
ENDROOT
BRANCH   6  12
ATOM     12  C   UNL     1      33.776  27.067  48.092  0.00  0.00    +0.000 C 
ATOM     13  H   UNL     1      33.711  26.532  47.123  0.00  0.00    +0.000 HD
ATOM     14  H   UNL     1      34.535  26.475  48.682  0.00  0.00    +0.000 HD
BRANCH  12  18
ATOM     15  C   UNL     1      31.020  28.934  48.760  0.00  0.00    +0.000 C 
ATOM     16  C   UNL     1      32.302  28.480  49.415  0.00  0.00    +0.000 C 
ATOM     17  H   UNL     1      33.137  29.159  49.133  0.00  0.00    +0.000 HD
ATOM     18  C   UNL     1      32.489  27.095  48.842  0.00  0.00    +0.000 C 
ATOM     19  O   UNL     1      31.453  26.909  47.927  0.00  0.00    +0.000 OA
ATOM     20  C   UNL     1      30.366  27.615  48.430  0.00  0.00    +0.000 C 
ATOM     21  H   UNL     1      29.651  27.705  47.578  0.00  0.00    +0.000 HD
BRANCH  15  22
ATOM     22  O   UNL     1      31.352  29.563  47.562  0.00  0.00    +0.000 OA
ATOM     23  H   UNL     1      31.595  28.862  46.891  0.00  0.00    +0.000 HD
ENDBRANCH  15  22
ENDBRANCH  12  18
ENDBRANCH   6  12
BRANCH   3  24
ATOM     24  O   UNL     1      37.346  30.115  48.299  0.00  0.00    +0.000 OA
BRANCH  24  25
ATOM     25  C   UNL     1      38.065  31.302  48.222  0.00  0.00    +0.000 A 
ATOM     26  C   UNL     1      38.219  32.012  49.399  0.00  0.00    +0.000 A 
ATOM     27  C   UNL     1      38.931  33.203  49.362  0.00  0.00    +0.000 A 
ATOM     28  N   UNL     1      39.445  33.620  48.171  0.00  0.00    +0.000 NA
ATOM     29  C   UNL     1      39.287  32.921  47.037  0.00  0.00    +0.000 A 
ATOM     30  N   UNL     1      38.606  31.786  47.088  0.00  0.00    +0.000 NA
ATOM     31  C   UNL     1      40.765  32.470  45.239  0.00  0.00    +0.000 C 
ATOM     32  O   UNL     1      41.131  31.346  45.687  0.00  0.00    +0.000 OA
ATOM     33  N   UNL     1      39.836  33.389  45.810  0.00  0.00    +0.000 N 
ATOM     34  H   UNL     1      37.832  31.725  50.364  0.00  0.00    +0.000 HD
ATOM     35  H   UNL     1      39.072  33.783  50.254  0.00  0.00    +0.000 HD
ATOM     36  H   UNL     1      41.266  32.690  44.300  0.00  0.00    +0.000 HD
ATOM     37  H   UNL     1      39.612  34.295  45.343  0.00  0.00    +0.000 HD
ENDBRANCH  24  25
ENDBRANCH   3  24
TORSDOF 5
