
 OpenBabel03272506393D

 37 39  0  0  1  0  0  0  0  0999 V2000
   34.8000   28.4960   49.9800 O   0  0  0  0  0  0  0  0  0  0  0  0
   34.5940   28.9770   48.8480 C   0  0  0  0  0  0  0  0  0  0  0  0
   35.3400   30.1210   48.3740 C   0  0  2  0  0  0  0  0  0  0  0  0
   34.8610   30.1850   46.8890 C   0  0  0  0  0  0  0  0  0  0  0  0
   33.4960   29.5690   46.9490 C   0  0  0  0  0  0  0  0  0  0  0  0
   33.6230   28.4790   47.8980 N   0  0  0  0  0  0  0  0  0  0  0  0
   35.1320   31.0930   48.8270 H   0  0  0  0  0  0  0  0  0  0  0  0
   34.8870   31.2240   46.5350 H   0  0  0  0  0  0  0  0  0  0  0  0
   35.5590   29.5770   46.3160 H   0  0  0  0  0  0  0  0  0  0  0  0
   32.7100   30.2960   47.2380 H   0  0  0  0  0  0  0  0  0  0  0  0
   33.2900   29.1290   45.9530 H   0  0  0  0  0  0  0  0  0  0  0  0
   32.9560   27.1830   47.9270 C   0  0  0  0  0  0  0  0  0  0  0  0
   33.6540   26.3340   47.7750 H   0  0  0  0  0  0  0  0  0  0  0  0
   32.5950   27.0550   48.9890 H   0  0  0  0  0  0  0  0  0  0  0  0
   31.0360   25.1830   45.9650 C   0  0  2  0  0  3  0  0  0  0  0  0
   32.1050   26.2430   45.8500 C   0  0  0  0  0  3  0  0  0  0  0  0
   33.1130   25.7820   45.9560 H   0  0  0  0  0  0  0  0  0  0  0  0
   31.7840   27.1590   47.0070 C   0  0  1  0  0  3  0  0  0  0  0  0
   30.7170   26.5710   47.6840 O   0  0  0  0  0  0  0  0  0  0  0  0
   29.9570   25.9250   46.7160 C   0  0  0  0  0  3  0  0  0  0  0  0
   29.2870   25.2310   47.2770 H   0  0  0  0  0  0  0  0  0  0  0  0
   31.5220   24.1750   46.7930 O   0  0  0  0  0  0  0  0  0  0  0  0
   31.4850   24.4950   47.7410 H   0  0  0  0  0  0  0  0  0  0  0  0
   36.7540   29.9210   48.3130 O   0  0  0  0  0  0  0  0  0  0  0  0
   37.5630   31.0520   48.3300 C   0  0  0  0  0  0  0  0  0  0  0  0
   37.7390   31.6710   49.5550 C   0  0  0  0  0  0  0  0  0  0  0  0
   38.5400   32.8030   49.6120 C   0  0  0  0  0  0  0  0  0  0  0  0
   39.1160   33.2540   48.4620 N   0  0  0  0  0  0  0  0  0  0  0  0
   38.9350   32.6440   47.2810 C   0  0  0  0  0  0  0  0  0  0  0  0
   38.1690   31.5640   47.2430 N   0  0  0  0  0  0  0  0  0  0  0  0
   40.4220   32.1970   45.4900 C   0  0  0  0  0  0  0  0  0  0  0  0
   40.6900   31.0210   45.8700 O   0  0  0  0  0  0  0  0  0  0  0  0
   39.5510   33.1460   46.1000 N   0  0  0  0  0  0  0  0  0  0  0  0
   37.3060   31.3530   50.4900 H   0  0  0  0  0  0  0  0  0  0  0  0
   38.7010   33.3120   50.5430 H   0  0  0  0  0  0  0  0  0  0  0  0
   40.9630   32.4370   44.5780 H   0  0  0  0  0  0  0  0  0  0  0  0
   39.4080   34.0950   45.6890 H   0  0  0  0  0  0  0  0  0  0  0  0
  2  1  2  0  0  0  0
  3  7  1  1  0  0  0
  3  2  1  0  0  0  0
  4  5  1  0  0  0  0
  4  3  1  0  0  0  0
  5 10  1  0  0  0  0
  5  6  1  0  0  0  0
  6 12  1  0  0  0  0
  6  2  1  0  0  0  0
  8  4  1  0  0  0  0
  9  4  1  0  0  0  0
 11  5  1  0  0  0  0
 12 14  1  0  0  0  0
 13 12  1  0  0  0  0
 15 20  1  0  0  0  0
 15 22  1  1  0  0  0
 16 17  1  0  0  0  0
 16 15  1  0  0  0  0
 16 18  1  0  0  0  0
 18 19  1  0  0  0  0
 18 12  1  1  0  0  0
 20 21  1  0  0  0  0
 20 19  1  0  0  0  0
 22 23  1  0  0  0  0
 24 25  1  0  0  0  0
 24  3  1  0  0  0  0
 25 26  1  0  0  0  0
 26 27  2  0  0  0  0
 26 34  1  0  0  0  0
 27 35  1  0  0  0  0
 28 27  1  0  0  0  0
 29 28  2  0  0  0  0
 30 29  1  0  0  0  0
 30 25  2  0  0  0  0
 31 32  2  0  0  0  0
 31 33  1  0  0  0  0
 33 29  1  0  0  0  0
 36 31  1  0  0  0  0
 37 33  1  0  0  0  0
M  END
>  <minimizedAffinity>
-5.45828724

>  <minimizedRMSD>
1.36752307

$$$$
