REMARK  Name = 
REMARK  4 active torsions:
REMARK  status: ('A' for Active; 'I' for Inactive)
REMARK    1  A    between atoms: C_1  and  S_7
REMARK    2  A    between atoms: S_7  and  C_8
REMARK    3  A    between atoms: C_8  and  C_18
REMARK    4  A    between atoms: O_14  and  C_15
REMARK                            x       y       z     vdW  Elec       q    Type
REMARK                         _______ _______ _______ _____ _____    ______ ____
ROOT
ATOM      1  C   UNL     1      35.589  29.344  51.299  0.00  0.00    +0.000 C 
ATOM      2  H   UNL     1      35.731  29.108  52.395  0.00  0.00    +0.000 HD
ATOM      3  H   UNL     1      35.422  28.356  50.830  0.00  0.00    +0.000 HD
ENDROOT
BRANCH   1   7
ATOM      4  C   UNL     1      32.055  30.412  51.050  0.00  0.00    +0.000 C 
ATOM      5  C   UNL     1      33.103  29.291  50.981  0.00  0.00    +0.000 C 
ATOM      6  H   UNL     1      33.022  28.627  51.865  0.00  0.00    +0.000 HD
ATOM      7  C   UNL     1      34.351  30.157  51.211  0.00  0.00    +0.000 C 
ATOM      8  O   UNL     1      33.976  30.848  52.327  0.00  0.00    +0.000 OA
ATOM      9  C   UNL     1      32.730  31.368  51.992  0.00  0.00    +0.000 C 
ATOM     10  H   UNL     1      32.902  32.377  51.520  0.00  0.00    +0.000 HD
BRANCH   4  11
ATOM     11  O   UNL     1      30.826  29.945  51.495  0.00  0.00    +0.000 OA
ATOM     12  H   UNL     1      30.241  30.754  51.561  0.00  0.00    +0.000 HD
ENDBRANCH   4  11
ENDBRANCH   1   7
BRANCH   1  13
ATOM     13  S   UNL     1      37.088  30.153  50.734  0.00  0.00    +0.000 S 
BRANCH  13  14
ATOM     14  C   UNL     1      36.950  30.378  48.973  0.00  0.00    +0.000 A 
ATOM     15  C   UNL     1      38.144  30.851  48.411  0.00  0.00    +0.000 A 
ATOM     16  C   UNL     1      38.152  31.062  47.015  0.00  0.00    +0.000 A 
ATOM     17  N   UNL     1      37.031  30.802  46.302  0.00  0.00    +0.000 NA
ATOM     18  C   UNL     1      35.915  30.349  46.898  0.00  0.00    +0.000 A 
ATOM     19  N   UNL     1      35.900  30.149  48.204  0.00  0.00    +0.000 NA
ATOM     20  H   UNL     1      39.069  31.073  48.949  0.00  0.00    +0.000 HD
ATOM     21  H   UNL     1      39.061  31.431  46.527  0.00  0.00    +0.000 HD
ATOM     22  H   UNL     1      35.025  30.148  46.304  0.00  0.00    +0.000 HD
ENDBRANCH  13  14
ENDBRANCH   1  13
TORSDOF 4
