
 OpenBabel03262522133D

 33 35  0  0  1  0  0  0  0  0999 V2000
   36.9810   25.5340   31.8630 C   0  0  0  0  0  0  0  0  0  0  0  0
   36.2760   26.4970   31.1220 C   0  0  0  0  0  0  0  0  0  0  0  0
   36.0180   27.7470   31.6410 C   0  0  0  0  0  0  0  0  0  0  0  0
   36.4860   27.9870   32.9120 C   0  0  0  0  0  0  0  0  0  0  0  0
   37.1660   27.0430   33.6160 C   0  0  0  0  0  0  0  0  0  0  0  0
   37.4260   25.8080   33.1120 N   0  0  0  0  0  0  0  0  0  0  0  0
   35.9360   26.2340   30.1180 H   0  0  0  0  0  0  0  0  0  0  0  0
   35.4780   28.5120   31.0950 H   0  0  0  0  0  0  0  0  0  0  0  0
   36.3450   28.9290   33.4240 H   0  0  0  0  0  0  0  0  0  0  0  0
   37.2080   24.2550   31.2470 C   0  0  0  0  0  0  0  0  0  0  0  0
   37.7620   24.1680   30.1520 O   0  0  0  0  0  0  0  0  0  0  0  0
   35.4520   22.5950   31.7630 C   0  0  0  0  0  0  0  0  0  0  0  0
   36.7950   22.9930   31.8830 C   0  0  0  0  0  0  0  0  0  0  0  0
   37.6950   22.1860   32.5960 C   0  0  0  0  0  0  0  0  0  0  0  0
   37.2210   21.0270   33.1540 N   0  0  0  0  0  0  0  0  0  0  0  0
   35.9240   20.6690   33.0230 C   0  0  0  0  0  0  0  0  0  0  0  0
   35.0660   21.4360   32.3450 N   0  0  0  0  0  0  0  0  0  0  0  0
   34.7870   23.2390   31.2090 H   0  0  0  0  0  0  0  0  0  0  0  0
   38.7290   22.5060   32.6790 H   0  0  0  0  0  0  0  0  0  0  0  0
   35.6310   19.7380   33.4940 H   0  0  0  0  0  0  0  0  0  0  0  0
   37.7800   27.3700   35.2950 S   0  0  0  0  0  0  0  0  0  0  0  0
   38.7530   25.9050   35.7480 C   0  0  0  0  0  0  0  0  0  0  0  0
   39.1590   25.3950   34.8310 H   0  0  0  0  0  0  0  0  0  0  0  0
   39.6160   26.1140   36.3760 H   0  0  0  0  0  0  0  0  0  0  0  0
   38.0820   23.1970   37.9320 C   0  0  1  0  0  3  0  0  0  0  0  0
   38.0720   24.7090   37.8240 C   0  0  0  0  0  3  0  0  0  0  0  0
   37.2860   25.1480   38.4690 H   0  0  0  0  0  0  0  0  0  0  0  0
   37.8000   24.8980   36.3570 C   0  0  2  0  0  3  0  0  0  0  0  0
   37.8670   23.6750   35.7460 O   0  0  0  0  0  0  0  0  0  0  0  0
   38.6000   22.8210   36.5600 C   0  0  0  0  0  3  0  0  0  0  0  0
   39.6880   22.9600   36.4560 H   0  0  0  0  0  0  0  0  0  0  0  0
   38.9280   22.7570   38.9440 O   0  0  0  0  0  0  0  0  0  0  0  0
   39.8190   22.6080   38.5360 H   0  0  0  0  0  0  0  0  0  0  0  0
  1  6  1  0  0  0  0
  2  3  1  0  0  0  0
  2  1  2  0  0  0  0
  3  4  2  0  0  0  0
  4  9  1  0  0  0  0
  4  5  1  0  0  0  0
  5 21  1  0  0  0  0
  6  5  2  0  0  0  0
  7  2  1  0  0  0  0
  8  3  1  0  0  0  0
 10  1  1  0  0  0  0
 10 13  1  0  0  0  0
 11 10  2  0  0  0  0
 12 13  2  0  0  0  0
 12 17  1  0  0  0  0
 13 14  1  0  0  0  0
 14 19  1  0  0  0  0
 14 15  2  0  0  0  0
 16 15  1  0  0  0  0
 16 20  1  0  0  0  0
 17 16  2  0  0  0  0
 18 12  1  0  0  0  0
 21 22  1  0  0  0  0
 22 24  1  0  0  0  0
 23 22  1  0  0  0  0
 25 32  1  1  0  0  0
 26 25  1  0  0  0  0
 26 27  1  0  0  0  0
 28 22  1  6  0  0  0
 28 26  1  0  0  0  0
 29 28  1  0  0  0  0
 29 30  1  0  0  0  0
 30 25  1  0  0  0  0
 31 30  1  0  0  0  0
 33 32  1  0  0  0  0
M  END
>  <minimizedAffinity>
-5.36004734

$$$$

 OpenBabel03262522133D

 33 35  0  0  1  0  0  0  0  0999 V2000
   36.9750   25.9160   31.9200 C   0  0  0  0  0  0  0  0  0  0  0  0
   35.7180   25.8060   31.3040 C   0  0  0  0  0  0  0  0  0  0  0  0
   35.1300   24.5770   31.0990 C   0  0  0  0  0  0  0  0  0  0  0  0
   35.8430   23.4830   31.5300 C   0  0  0  0  0  0  0  0  0  0  0  0
   37.0590   23.6070   32.1250 C   0  0  0  0  0  0  0  0  0  0  0  0
   37.6460   24.8140   32.3310 N   0  0  0  0  0  0  0  0  0  0  0  0
   35.2120   26.7210   30.9880 H   0  0  0  0  0  0  0  0  0  0  0  0
   34.1620   24.4590   30.6260 H   0  0  0  0  0  0  0  0  0  0  0  0
   35.4840   22.4680   31.4240 H   0  0  0  0  0  0  0  0  0  0  0  0
   37.5180   27.2370   32.0960 C   0  0  0  0  0  0  0  0  0  0  0  0
   38.6930   27.4810   31.8230 O   0  0  0  0  0  0  0  0  0  0  0  0
   36.3180   28.3350   33.9560 C   0  0  0  0  0  0  0  0  0  0  0  0
   36.7090   28.3560   32.6050 C   0  0  0  0  0  0  0  0  0  0  0  0
   36.3230   29.4310   31.7900 C   0  0  0  0  0  0  0  0  0  0  0  0
   35.5700   30.4290   32.3520 N   0  0  0  0  0  0  0  0  0  0  0  0
   35.2080   30.3830   33.6530 C   0  0  0  0  0  0  0  0  0  0  0  0
   35.5750   29.3610   34.4310 N   0  0  0  0  0  0  0  0  0  0  0  0
   36.6320   27.4940   34.5540 H   0  0  0  0  0  0  0  0  0  0  0  0
   36.6320   29.4340   30.7490 H   0  0  0  0  0  0  0  0  0  0  0  0
   34.6130   31.2120   34.0170 H   0  0  0  0  0  0  0  0  0  0  0  0
   37.9920   22.1540   32.6910 S   0  0  0  0  0  0  0  0  0  0  0  0
   37.6420   22.0160   34.4680 C   0  0  0  0  0  0  0  0  0  0  0  0
   36.6150   22.4090   34.7040 H   0  0  0  0  0  0  0  0  0  0  0  0
   37.6660   20.9990   34.8540 H   0  0  0  0  0  0  0  0  0  0  0  0
   39.1090   23.2500   37.4470 C   0  0  1  0  0  3  0  0  0  0  0  0
   39.2900   22.2510   36.3210 C   0  0  0  0  0  3  0  0  0  0  0  0
   40.3630   22.0710   36.1180 H   0  0  0  0  0  0  0  0  0  0  0  0
   38.5880   22.9520   35.1900 C   0  0  2  0  0  3  0  0  0  0  0  0
   37.9530   24.0540   35.6950 O   0  0  0  0  0  0  0  0  0  0  0  0
   37.7830   23.8710   37.0620 C   0  0  0  0  0  3  0  0  0  0  0  0
   36.9190   23.2310   37.3040 H   0  0  0  0  0  0  0  0  0  0  0  0
   39.0470   22.6250   38.6880 O   0  0  0  0  0  0  0  0  0  0  0  0
   38.0920   22.4350   38.8730 H   0  0  0  0  0  0  0  0  0  0  0  0
  1 10  1  0  0  0  0
  1  6  1  0  0  0  0
  2  1  2  0  0  0  0
  3  2  1  0  0  0  0
  3  4  2  0  0  0  0
  4  5  1  0  0  0  0
  5  6  2  0  0  0  0
  5 21  1  0  0  0  0
  7  2  1  0  0  0  0
  8  3  1  0  0  0  0
  9  4  1  0  0  0  0
 10 13  1  0  0  0  0
 11 10  2  0  0  0  0
 12 17  1  0  0  0  0
 12 18  1  0  0  0  0
 13 12  2  0  0  0  0
 14 15  2  0  0  0  0
 14 13  1  0  0  0  0
 15 16  1  0  0  0  0
 16 20  1  0  0  0  0
 16 17  2  0  0  0  0
 19 14  1  0  0  0  0
 21 22  1  0  0  0  0
 22 23  1  0  0  0  0
 22 24  1  0  0  0  0
 25 32  1  1  0  0  0
 26 25  1  0  0  0  0
 27 26  1  0  0  0  0
 28 22  1  1  0  0  0
 28 29  1  0  0  0  0
 28 26  1  0  0  0  0
 29 30  1  0  0  0  0
 30 31  1  0  0  0  0
 30 25  1  0  0  0  0
 32 33  1  0  0  0  0
M  END
>  <minimizedAffinity>
-5.35497332

$$$$

 OpenBabel03262522133D

 33 35  0  0  1  0  0  0  0  0999 V2000
   37.5220   26.5770   34.1610 C   0  0  0  0  0  0  0  0  0  0  0  0
   36.9160   27.8230   33.9210 C   0  0  0  0  0  0  0  0  0  0  0  0
   36.2430   28.0720   32.7450 C   0  0  0  0  0  0  0  0  0  0  0  0
   36.2020   27.0400   31.8370 C   0  0  0  0  0  0  0  0  0  0  0  0
   36.7940   25.8410   32.0850 C   0  0  0  0  0  0  0  0  0  0  0  0
   37.4600   25.5860   33.2420 N   0  0  0  0  0  0  0  0  0  0  0  0
   36.9910   28.5940   34.6900 H   0  0  0  0  0  0  0  0  0  0  0  0
   35.7650   29.0210   32.5290 H   0  0  0  0  0  0  0  0  0  0  0  0
   35.7040   27.1170   30.8800 H   0  0  0  0  0  0  0  0  0  0  0  0
   38.2050   26.4000   35.4140 C   0  0  0  0  0  0  0  0  0  0  0  0
   38.4760   27.3640   36.1300 O   0  0  0  0  0  0  0  0  0  0  0  0
   39.8530   24.5610   35.4870 C   0  0  0  0  0  0  0  0  0  0  0  0
   38.6120   25.0740   35.9060 C   0  0  0  0  0  0  0  0  0  0  0  0
   37.8070   24.3170   36.7700 C   0  0  0  0  0  0  0  0  0  0  0  0
   38.2700   23.0920   37.1760 N   0  0  0  0  0  0  0  0  0  0  0  0
   39.4670   22.6230   36.7580 C   0  0  0  0  0  0  0  0  0  0  0  0
   40.2340   23.3430   35.9360 N   0  0  0  0  0  0  0  0  0  0  0  0
   40.4470   25.1700   34.8220 H   0  0  0  0  0  0  0  0  0  0  0  0
   36.8520   24.7260   37.0850 H   0  0  0  0  0  0  0  0  0  0  0  0
   39.7570   21.6470   37.1260 H   0  0  0  0  0  0  0  0  0  0  0  0
   36.7340   24.4840   30.8770 S   0  0  0  0  0  0  0  0  0  0  0  0
   35.4310   23.3660   31.4700 C   0  0  0  0  0  0  0  0  0  0  0  0
   35.0380   23.7040   32.4680 H   0  0  0  0  0  0  0  0  0  0  0  0
   34.5630   23.3010   30.8170 H   0  0  0  0  0  0  0  0  0  0  0  0
   36.0950   20.6260   33.6160 C   0  0  1  0  0  3  0  0  0  0  0  0
   35.1590   21.1310   32.5350 C   0  0  0  0  0  3  0  0  0  0  0  0
   34.7510   20.2930   31.9390 H   0  0  0  0  0  0  0  0  0  0  0  0
   36.0750   22.0240   31.7440 C   0  0  2  0  0  3  0  0  0  0  0  0
   37.2570   22.1380   32.4250 O   0  0  0  0  0  0  0  0  0  0  0  0
   37.0280   21.8120   33.7550 C   0  0  0  0  0  3  0  0  0  0  0  0
   36.5880   22.6420   34.3300 H   0  0  0  0  0  0  0  0  0  0  0  0
   35.4200   20.3570   34.8000 O   0  0  0  0  0  0  0  0  0  0  0  0
   35.4420   21.1850   35.3450 H   0  0  0  0  0  0  0  0  0  0  0  0
  1 10  1  0  0  0  0
  2  1  1  0  0  0  0
  2  7  1  0  0  0  0
  3  2  2  0  0  0  0
  4  5  2  0  0  0  0
  4  3  1  0  0  0  0
  5  6  1  0  0  0  0
  6  1  2  0  0  0  0
  8  3  1  0  0  0  0
  9  4  1  0  0  0  0
 10 13  1  0  0  0  0
 10 11  2  0  0  0  0
 12 13  2  0  0  0  0
 12 17  1  0  0  0  0
 13 14  1  0  0  0  0
 14 19  1  0  0  0  0
 14 15  2  0  0  0  0
 16 20  1  0  0  0  0
 16 15  1  0  0  0  0
 17 16  2  0  0  0  0
 18 12  1  0  0  0  0
 21 22  1  0  0  0  0
 21  5  1  0  0  0  0
 22 23  1  0  0  0  0
 24 22  1  0  0  0  0
 25 30  1  0  0  0  0
 25 32  1  1  0  0  0
 26 25  1  0  0  0  0
 27 26  1  0  0  0  0
 28 22  1  1  0  0  0
 28 29  1  0  0  0  0
 28 26  1  0  0  0  0
 29 30  1  0  0  0  0
 30 31  1  0  0  0  0
 32 33  1  0  0  0  0
M  END
>  <minimizedAffinity>
-5.35390425

$$$$

 OpenBabel03262522133D

 33 35  0  0  1  0  0  0  0  0999 V2000
   38.1080   25.0940   34.8290 C   0  0  0  0  0  0  0  0  0  0  0  0
   38.1760   26.4970   34.8100 C   0  0  0  0  0  0  0  0  0  0  0  0
   37.9140   27.2070   33.6590 C   0  0  0  0  0  0  0  0  0  0  0  0
   37.5870   26.4650   32.5470 C   0  0  0  0  0  0  0  0  0  0  0  0
   37.5260   25.1060   32.5830 C   0  0  0  0  0  0  0  0  0  0  0  0
   37.7830   24.3990   33.7140 N   0  0  0  0  0  0  0  0  0  0  0  0
   38.4430   27.0170   35.7320 H   0  0  0  0  0  0  0  0  0  0  0  0
   37.9580   28.2890   33.6110 H   0  0  0  0  0  0  0  0  0  0  0  0
   37.3610   26.9100   31.5880 H   0  0  0  0  0  0  0  0  0  0  0  0
   38.3970   24.4300   36.0720 C   0  0  0  0  0  0  0  0  0  0  0  0
   37.5990   24.4650   37.0090 O   0  0  0  0  0  0  0  0  0  0  0  0
   39.6830   22.7420   37.3370 C   0  0  0  0  0  0  0  0  0  0  0  0
   39.6450   23.6810   36.2920 C   0  0  0  0  0  0  0  0  0  0  0  0
   40.7840   23.8770   35.4950 C   0  0  0  0  0  0  0  0  0  0  0  0
   41.9020   23.1340   35.7740 N   0  0  0  0  0  0  0  0  0  0  0  0
   41.9100   22.2370   36.7860 C   0  0  0  0  0  0  0  0  0  0  0  0
   40.8270   22.0500   37.5440 N   0  0  0  0  0  0  0  0  0  0  0  0
   38.7900   22.6170   37.9300 H   0  0  0  0  0  0  0  0  0  0  0  0
   40.7400   24.6060   34.6910 H   0  0  0  0  0  0  0  0  0  0  0  0
   42.8340   21.6920   36.9380 H   0  0  0  0  0  0  0  0  0  0  0  0
   37.0930   24.1360   31.1090 S   0  0  0  0  0  0  0  0  0  0  0  0
   35.7890   22.9930   31.6490 C   0  0  0  0  0  0  0  0  0  0  0  0
   35.4010   23.2800   32.6640 H   0  0  0  0  0  0  0  0  0  0  0  0
   34.9190   22.9630   30.9970 H   0  0  0  0  0  0  0  0  0  0  0  0
   35.5530   19.4890   32.1190 C   0  0  1  0  0  3  0  0  0  0  0  0
   35.7140   20.5710   31.0700 C   0  0  0  0  0  3  0  0  0  0  0  0
   36.2980   20.2020   30.2050 H   0  0  0  0  0  0  0  0  0  0  0  0
   36.4310   21.6360   31.8520 C   0  0  2  0  0  3  0  0  0  0  0  0
   36.4580   21.2600   33.1670 O   0  0  0  0  0  0  0  0  0  0  0  0
   35.4470   20.3290   33.3750 C   0  0  0  0  0  3  0  0  0  0  0  0
   34.4570   20.7940   33.5020 H   0  0  0  0  0  0  0  0  0  0  0  0
   34.4080   18.7290   31.9070 O   0  0  0  0  0  0  0  0  0  0  0  0
   33.6740   19.1570   32.4170 H   0  0  0  0  0  0  0  0  0  0  0  0
  1 10  1  0  0  0  0
  2  1  1  0  0  0  0
  2  7  1  0  0  0  0
  3  2  2  0  0  0  0
  4  5  2  0  0  0  0
  4  3  1  0  0  0  0
  5  6  1  0  0  0  0
  6  1  2  0  0  0  0
  8  3  1  0  0  0  0
  9  4  1  0  0  0  0
 10 13  1  0  0  0  0
 10 11  2  0  0  0  0
 12 17  1  0  0  0  0
 12 18  1  0  0  0  0
 13 12  2  0  0  0  0
 14 15  2  0  0  0  0
 14 13  1  0  0  0  0
 15 16  1  0  0  0  0
 16 20  1  0  0  0  0
 16 17  2  0  0  0  0
 19 14  1  0  0  0  0
 21 22  1  0  0  0  0
 21  5  1  0  0  0  0
 22 23  1  0  0  0  0
 24 22  1  0  0  0  0
 25 32  1  6  0  0  0
 25 30  1  0  0  0  0
 26 28  1  0  0  0  0
 26 25  1  0  0  0  0
 27 26  1  0  0  0  0
 28 22  1  1  0  0  0
 28 29  1  0  0  0  0
 29 30  1  0  0  0  0
 30 31  1  0  0  0  0
 32 33  1  0  0  0  0
M  END
>  <minimizedAffinity>
-5.3430748

$$$$

 OpenBabel03262522133D

 33 35  0  0  1  0  0  0  0  0999 V2000
   35.7640   29.1400   33.6760 C   0  0  0  0  0  0  0  0  0  0  0  0
   35.7130   28.4330   32.4630 C   0  0  0  0  0  0  0  0  0  0  0  0
   36.4390   27.2770   32.2810 C   0  0  0  0  0  0  0  0  0  0  0  0
   37.2060   26.8660   33.3460 C   0  0  0  0  0  0  0  0  0  0  0  0
   37.2440   27.5620   34.5140 C   0  0  0  0  0  0  0  0  0  0  0  0
   36.5310   28.7030   34.7020 N   0  0  0  0  0  0  0  0  0  0  0  0
   35.0810   28.8220   31.6610 H   0  0  0  0  0  0  0  0  0  0  0  0
   36.4210   26.7090   31.3580 H   0  0  0  0  0  0  0  0  0  0  0  0
   37.8180   25.9750   33.3220 H   0  0  0  0  0  0  0  0  0  0  0  0
   34.9750   30.3370   33.7830 C   0  0  0  0  0  0  0  0  0  0  0  0
   34.7770   31.0560   32.8040 O   0  0  0  0  0  0  0  0  0  0  0  0
   33.0940   30.2670   35.3840 C   0  0  0  0  0  0  0  0  0  0  0  0
   34.3670   30.7660   35.0530 C   0  0  0  0  0  0  0  0  0  0  0  0
   35.0140   31.6480   35.9320 C   0  0  0  0  0  0  0  0  0  0  0  0
   34.3700   31.9910   37.0930 N   0  0  0  0  0  0  0  0  0  0  0  0
   33.1470   31.4960   37.3860 C   0  0  0  0  0  0  0  0  0  0  0  0
   32.5300   30.6560   36.5500 N   0  0  0  0  0  0  0  0  0  0  0  0
   32.6250   29.5910   34.6860 H   0  0  0  0  0  0  0  0  0  0  0  0
   35.9960   32.0250   35.6630 H   0  0  0  0  0  0  0  0  0  0  0  0
   32.7090   31.8180   38.3230 H   0  0  0  0  0  0  0  0  0  0  0  0
   38.2610   27.0100   35.9160 S   0  0  0  0  0  0  0  0  0  0  0  0
   39.2220   25.6010   35.2900 C   0  0  0  0  0  0  0  0  0  0  0  0
   39.2400   25.5980   34.1660 H   0  0  0  0  0  0  0  0  0  0  0  0
   40.2640   25.5930   35.6030 H   0  0  0  0  0  0  0  0  0  0  0  0
   38.5140   22.9780   37.5640 C   0  0  1  0  0  3  0  0  0  0  0  0
   38.0720   24.3570   37.1150 C   0  0  0  0  0  3  0  0  0  0  0  0
   36.9820   24.4910   37.2590 H   0  0  0  0  0  0  0  0  0  0  0  0
   38.4750   24.3390   35.6670 C   0  0  2  0  0  3  0  0  0  0  0  0
   39.2080   23.2070   35.4380 O   0  0  0  0  0  0  0  0  0  0  0  0
   39.7040   22.7560   36.6550 C   0  0  0  0  0  3  0  0  0  0  0  0
   40.6040   23.3030   36.9790 H   0  0  0  0  0  0  0  0  0  0  0  0
   38.8780   22.9630   38.9060 O   0  0  0  0  0  0  0  0  0  0  0  0
   39.8500   23.1510   38.9480 H   0  0  0  0  0  0  0  0  0  0  0  0
  1 10  1  0  0  0  0
  1  6  1  0  0  0  0
  2  1  2  0  0  0  0
  3  2  1  0  0  0  0
  3  4  2  0  0  0  0
  4  5  1  0  0  0  0
  5  6  2  0  0  0  0
  5 21  1  0  0  0  0
  7  2  1  0  0  0  0
  8  3  1  0  0  0  0
  9  4  1  0  0  0  0
 10 13  1  0  0  0  0
 11 10  2  0  0  0  0
 12 17  1  0  0  0  0
 13 12  2  0  0  0  0
 13 14  1  0  0  0  0
 14 15  2  0  0  0  0
 15 16  1  0  0  0  0
 16 20  1  0  0  0  0
 17 16  2  0  0  0  0
 18 12  1  0  0  0  0
 19 14  1  0  0  0  0
 22 24  1  0  0  0  0
 22 21  1  0  0  0  0
 23 22  1  0  0  0  0
 25 32  1  1  0  0  0
 26 27  1  0  0  0  0
 26 25  1  0  0  0  0
 28 22  1  1  0  0  0
 28 26  1  0  0  0  0
 29 28  1  0  0  0  0
 29 30  1  0  0  0  0
 30 31  1  0  0  0  0
 30 25  1  0  0  0  0
 32 33  1  0  0  0  0
M  END
>  <minimizedAffinity>
-5.32424831

$$$$

 OpenBabel03262522133D

 33 35  0  0  1  0  0  0  0  0999 V2000
   36.0380   28.5790   33.8740 C   0  0  0  0  0  0  0  0  0  0  0  0
   36.2950   28.3470   32.5130 C   0  0  0  0  0  0  0  0  0  0  0  0
   37.1720   27.3640   32.1110 C   0  0  0  0  0  0  0  0  0  0  0  0
   37.7710   26.6360   33.1130 C   0  0  0  0  0  0  0  0  0  0  0  0
   37.5110   26.8740   34.4270 C   0  0  0  0  0  0  0  0  0  0  0  0
   36.6480   27.8410   34.8310 N   0  0  0  0  0  0  0  0  0  0  0  0
   35.7810   28.9650   31.7740 H   0  0  0  0  0  0  0  0  0  0  0  0
   37.3920   27.1590   31.0690 H   0  0  0  0  0  0  0  0  0  0  0  0
   38.4770   25.8400   32.9210 H   0  0  0  0  0  0  0  0  0  0  0  0
   35.1080   29.6240   34.2080 C   0  0  0  0  0  0  0  0  0  0  0  0
   33.9050   29.3900   34.3200 O   0  0  0  0  0  0  0  0  0  0  0  0
   35.8790   31.4040   35.7380 C   0  0  0  0  0  0  0  0  0  0  0  0
   35.5370   31.0150   34.4310 C   0  0  0  0  0  0  0  0  0  0  0  0
   35.6130   31.9500   33.3870 C   0  0  0  0  0  0  0  0  0  0  0  0
   36.0240   33.2220   33.6900 N   0  0  0  0  0  0  0  0  0  0  0  0
   36.3470   33.5700   34.9550 C   0  0  0  0  0  0  0  0  0  0  0  0
   36.2750   32.6810   35.9500 N   0  0  0  0  0  0  0  0  0  0  0  0
   35.8090   30.6600   36.5160 H   0  0  0  0  0  0  0  0  0  0  0  0
   35.3460   31.6340   32.3830 H   0  0  0  0  0  0  0  0  0  0  0  0
   36.6610   34.5950   35.1080 H   0  0  0  0  0  0  0  0  0  0  0  0
   38.3090   25.9070   35.7420 S   0  0  0  0  0  0  0  0  0  0  0  0
   38.6120   24.2670   35.0210 C   0  0  0  0  0  0  0  0  0  0  0  0
   37.8970   24.0640   34.1780 H   0  0  0  0  0  0  0  0  0  0  0  0
   39.6080   24.1360   34.6040 H   0  0  0  0  0  0  0  0  0  0  0  0
   38.7580   23.0700   38.3530 C   0  0  1  0  0  3  0  0  0  0  0  0
   37.9280   23.8920   37.3870 C   0  0  0  0  0  3  0  0  0  0  0  0
   36.8510   23.8310   37.6370 H   0  0  0  0  0  0  0  0  0  0  0  0
   38.2650   23.2370   36.0760 C   0  0  2  0  0  3  0  0  0  0  0  0
   39.2790   22.3430   36.2900 O   0  0  0  0  0  0  0  0  0  0  0  0
   39.9280   22.6940   37.4670 C   0  0  0  0  0  3  0  0  0  0  0  0
   40.6480   23.5160   37.3300 H   0  0  0  0  0  0  0  0  0  0  0  0
   39.1610   23.8160   39.4540 O   0  0  0  0  0  0  0  0  0  0  0  0
   40.0420   24.2130   39.2320 H   0  0  0  0  0  0  0  0  0  0  0  0
  1 10  1  0  0  0  0
  1  6  1  0  0  0  0
  2  1  2  0  0  0  0
  3  2  1  0  0  0  0
  3  4  2  0  0  0  0
  4  5  1  0  0  0  0
  5  6  2  0  0  0  0
  5 21  1  0  0  0  0
  7  2  1  0  0  0  0
  8  3  1  0  0  0  0
  9  4  1  0  0  0  0
 10 11  2  0  0  0  0
 10 13  1  0  0  0  0
 12 17  1  0  0  0  0
 12 18  1  0  0  0  0
 13 12  2  0  0  0  0
 14 15  2  0  0  0  0
 14 13  1  0  0  0  0
 15 16  1  0  0  0  0
 16 20  1  0  0  0  0
 16 17  2  0  0  0  0
 19 14  1  0  0  0  0
 22 21  1  0  0  0  0
 23 22  1  0  0  0  0
 24 22  1  0  0  0  0
 25 32  1  1  0  0  0
 26 27  1  0  0  0  0
 26 25  1  0  0  0  0
 28 22  1  6  0  0  0
 28 29  1  0  0  0  0
 28 26  1  0  0  0  0
 29 30  1  0  0  0  0
 30 25  1  0  0  0  0
 31 30  1  0  0  0  0
 33 32  1  0  0  0  0
M  END
>  <minimizedAffinity>
-5.23097992

$$$$

 OpenBabel03262522133D

 33 35  0  0  1  0  0  0  0  0999 V2000
   37.5460   27.4000   34.1220 C   0  0  0  0  0  0  0  0  0  0  0  0
   37.6790   27.3280   32.7250 C   0  0  0  0  0  0  0  0  0  0  0  0
   36.8230   28.0150   31.8930 C   0  0  0  0  0  0  0  0  0  0  0  0
   35.8460   28.7630   32.5070 C   0  0  0  0  0  0  0  0  0  0  0  0
   35.7320   28.8220   33.8610 C   0  0  0  0  0  0  0  0  0  0  0  0
   36.5710   28.1480   34.6900 N   0  0  0  0  0  0  0  0  0  0  0  0
   38.4800   26.7130   32.3100 H   0  0  0  0  0  0  0  0  0  0  0  0
   36.8990   27.9810   30.8120 H   0  0  0  0  0  0  0  0  0  0  0  0
   35.1170   29.3440   31.9590 H   0  0  0  0  0  0  0  0  0  0  0  0
   38.4820   26.6530   34.9190 C   0  0  0  0  0  0  0  0  0  0  0  0
   39.5380   27.1590   35.2980 O   0  0  0  0  0  0  0  0  0  0  0  0
   37.9100   25.0020   36.6660 C   0  0  0  0  0  0  0  0  0  0  0  0
   38.2320   25.2590   35.3220 C   0  0  0  0  0  0  0  0  0  0  0  0
   38.3060   24.1930   34.4120 C   0  0  0  0  0  0  0  0  0  0  0  0
   38.0570   22.9280   34.8770 N   0  0  0  0  0  0  0  0  0  0  0  0
   37.7490   22.7090   36.1750 C   0  0  0  0  0  0  0  0  0  0  0  0
   37.6790   23.7230   37.0420 N   0  0  0  0  0  0  0  0  0  0  0  0
   37.8620   25.8440   37.3380 H   0  0  0  0  0  0  0  0  0  0  0  0
   38.5560   24.4080   33.3770 H   0  0  0  0  0  0  0  0  0  0  0  0
   37.5670   21.6810   36.4600 H   0  0  0  0  0  0  0  0  0  0  0  0
   34.4370   29.8130   34.6630 S   0  0  0  0  0  0  0  0  0  0  0  0
   32.9070   29.4280   33.7630 C   0  0  0  0  0  0  0  0  0  0  0  0
   32.6360   30.2630   33.0600 H   0  0  0  0  0  0  0  0  0  0  0  0
   32.9590   28.5310   33.1500 H   0  0  0  0  0  0  0  0  0  0  0  0
   31.0180   27.7540   36.2500 C   0  0  1  0  0  3  0  0  0  0  0  0
   32.1970   28.6810   36.0310 C   0  0  0  0  0  3  0  0  0  0  0  0
   32.3320   29.3630   36.8920 H   0  0  0  0  0  0  0  0  0  0  0  0
   31.7810   29.3970   34.7750 C   0  0  2  0  0  3  0  0  0  0  0  0
   30.6540   28.7920   34.2890 O   0  0  0  0  0  0  0  0  0  0  0  0
   30.5840   27.5100   34.8190 C   0  0  0  0  0  3  0  0  0  0  0  0
   31.2290   26.7920   34.2880 H   0  0  0  0  0  0  0  0  0  0  0  0
   31.3970   26.5770   36.8840 O   0  0  0  0  0  0  0  0  0  0  0  0
   31.6200   25.9200   36.1750 H   0  0  0  0  0  0  0  0  0  0  0  0
  1  6  1  0  0  0  0
  1 10  1  0  0  0  0
  2  1  2  0  0  0  0
  3  4  2  0  0  0  0
  3  2  1  0  0  0  0
  4  5  1  0  0  0  0
  5 21  1  0  0  0  0
  5  6  2  0  0  0  0
  7  2  1  0  0  0  0
  8  3  1  0  0  0  0
  9  4  1  0  0  0  0
 10 11  2  0  0  0  0
 10 13  1  0  0  0  0
 12 17  1  0  0  0  0
 12 18  1  0  0  0  0
 13 12  2  0  0  0  0
 14 15  2  0  0  0  0
 14 13  1  0  0  0  0
 15 16  1  0  0  0  0
 16 20  1  0  0  0  0
 16 17  2  0  0  0  0
 19 14  1  0  0  0  0
 22 21  1  0  0  0  0
 23 22  1  0  0  0  0
 24 22  1  0  0  0  0
 25 32  1  6  0  0  0
 26 25  1  0  0  0  0
 26 27  1  0  0  0  0
 28 22  1  6  0  0  0
 28 26  1  0  0  0  0
 29 28  1  0  0  0  0
 29 30  1  0  0  0  0
 30 25  1  0  0  0  0
 31 30  1  0  0  0  0
 33 32  1  0  0  0  0
M  END
>  <minimizedAffinity>
-5.21016216

$$$$

 OpenBabel03262522133D

 33 35  0  0  1  0  0  0  0  0999 V2000
   35.4110   29.1500   32.8650 C   0  0  0  0  0  0  0  0  0  0  0  0
   35.6680   29.6870   31.5920 C   0  0  0  0  0  0  0  0  0  0  0  0
   36.7350   29.2510   30.8380 C   0  0  0  0  0  0  0  0  0  0  0  0
   37.5200   28.2730   31.4020 C   0  0  0  0  0  0  0  0  0  0  0  0
   37.2570   27.7640   32.6360 C   0  0  0  0  0  0  0  0  0  0  0  0
   36.2070   28.1880   33.3870 N   0  0  0  0  0  0  0  0  0  0  0  0
   35.0000   30.4620   31.2100 H   0  0  0  0  0  0  0  0  0  0  0  0
   36.9600   29.6440   29.8530 H   0  0  0  0  0  0  0  0  0  0  0  0
   38.3840   27.8520   30.9070 H   0  0  0  0  0  0  0  0  0  0  0  0
   34.2760   29.6610   33.5860 C   0  0  0  0  0  0  0  0  0  0  0  0
   33.1280   29.3990   33.2290 O   0  0  0  0  0  0  0  0  0  0  0  0
   35.6650   31.1310   35.0060 C   0  0  0  0  0  0  0  0  0  0  0  0
   34.4220   30.5150   34.7770 C   0  0  0  0  0  0  0  0  0  0  0  0
   33.3670   30.7280   35.6770 C   0  0  0  0  0  0  0  0  0  0  0  0
   33.5950   31.5400   36.7580 N   0  0  0  0  0  0  0  0  0  0  0  0
   34.8010   32.1190   36.9550 C   0  0  0  0  0  0  0  0  0  0  0  0
   35.8050   31.9170   36.0980 N   0  0  0  0  0  0  0  0  0  0  0  0
   36.4540   30.9450   34.2940 H   0  0  0  0  0  0  0  0  0  0  0  0
   32.4130   30.2460   35.4870 H   0  0  0  0  0  0  0  0  0  0  0  0
   34.8960   32.7450   37.8330 H   0  0  0  0  0  0  0  0  0  0  0  0
   38.3010   26.4720   33.3730 S   0  0  0  0  0  0  0  0  0  0  0  0
   37.5230   26.0700   34.9640 C   0  0  0  0  0  0  0  0  0  0  0  0
   37.4290   26.9890   35.6060 H   0  0  0  0  0  0  0  0  0  0  0  0
   36.5180   25.6620   34.8830 H   0  0  0  0  0  0  0  0  0  0  0  0
   38.3430   22.9400   36.4070 C   0  0  1  0  0  3  0  0  0  0  0  0
   38.4770   23.7770   35.1500 C   0  0  0  0  0  3  0  0  0  0  0  0
   39.4100   23.5320   34.6070 H   0  0  0  0  0  0  0  0  0  0  0  0
   38.4760   25.1680   35.7200 C   0  0  2  0  0  3  0  0  0  0  0  0
   38.1770   25.0870   37.0530 O   0  0  0  0  0  0  0  0  0  0  0  0
   37.5360   23.8760   37.2820 C   0  0  0  0  0  3  0  0  0  0  0  0
   36.4670   23.9000   37.0180 H   0  0  0  0  0  0  0  0  0  0  0  0
   37.6710   21.7480   36.1660 O   0  0  0  0  0  0  0  0  0  0  0  0
   36.7080   21.9160   36.3280 H   0  0  0  0  0  0  0  0  0  0  0  0
  1  6  1  0  0  0  0
  1 10  1  0  0  0  0
  2  1  2  0  0  0  0
  3  4  2  0  0  0  0
  3  2  1  0  0  0  0
  4  5  1  0  0  0  0
  5 21  1  0  0  0  0
  5  6  2  0  0  0  0
  7  2  1  0  0  0  0
  8  3  1  0  0  0  0
  9  4  1  0  0  0  0
 10 13  1  0  0  0  0
 11 10  2  0  0  0  0
 12 17  1  0  0  0  0
 13 12  2  0  0  0  0
 13 14  1  0  0  0  0
 14 15  2  0  0  0  0
 15 16  1  0  0  0  0
 16 20  1  0  0  0  0
 17 16  2  0  0  0  0
 18 12  1  0  0  0  0
 19 14  1  0  0  0  0
 21 22  1  0  0  0  0
 22 23  1  0  0  0  0
 24 22  1  0  0  0  0
 25 32  1  6  0  0  0
 25 30  1  0  0  0  0
 26 28  1  0  0  0  0
 26 25  1  0  0  0  0
 27 26  1  0  0  0  0
 28 22  1  6  0  0  0
 28 29  1  0  0  0  0
 29 30  1  0  0  0  0
 31 30  1  0  0  0  0
 32 33  1  0  0  0  0
M  END
>  <minimizedAffinity>
-5.17791796

$$$$

 OpenBabel03262522133D

 33 35  0  0  1  0  0  0  0  0999 V2000
   35.6860   28.8000   33.5320 C   0  0  0  0  0  0  0  0  0  0  0  0
   35.3590   28.3380   32.2460 C   0  0  0  0  0  0  0  0  0  0  0  0
   36.1200   27.3750   31.6200 C   0  0  0  0  0  0  0  0  0  0  0  0
   37.2030   26.9020   32.3250 C   0  0  0  0  0  0  0  0  0  0  0  0
   37.5050   27.3610   33.5690 C   0  0  0  0  0  0  0  0  0  0  0  0
   36.7600   28.3100   34.1930 N   0  0  0  0  0  0  0  0  0  0  0  0
   34.4830   28.7600   31.7480 H   0  0  0  0  0  0  0  0  0  0  0  0
   35.8940   26.9970   30.6290 H   0  0  0  0  0  0  0  0  0  0  0  0
   37.8730   26.1470   31.9380 H   0  0  0  0  0  0  0  0  0  0  0  0
   34.8380   29.8060   34.1120 C   0  0  0  0  0  0  0  0  0  0  0  0
   35.2790   30.6060   34.9380 O   0  0  0  0  0  0  0  0  0  0  0  0
   32.4730   29.2160   34.5100 C   0  0  0  0  0  0  0  0  0  0  0  0
   33.4160   29.9370   33.7570 C   0  0  0  0  0  0  0  0  0  0  0  0
   32.9810   30.7510   32.7000 C   0  0  0  0  0  0  0  0  0  0  0  0
   31.6360   30.8100   32.4420 N   0  0  0  0  0  0  0  0  0  0  0  0
   30.7510   30.1070   33.1820 C   0  0  0  0  0  0  0  0  0  0  0  0
   31.1630   29.3320   34.1890 N   0  0  0  0  0  0  0  0  0  0  0  0
   32.8410   28.6000   35.3160 H   0  0  0  0  0  0  0  0  0  0  0  0
   33.7210   31.3020   32.1270 H   0  0  0  0  0  0  0  0  0  0  0  0
   29.7070   30.2100   32.9120 H   0  0  0  0  0  0  0  0  0  0  0  0
   38.9390   26.7310   34.4910 S   0  0  0  0  0  0  0  0  0  0  0  0
   38.3300   26.4100   36.1720 C   0  0  0  0  0  0  0  0  0  0  0  0
   39.1640   26.4910   36.9210 H   0  0  0  0  0  0  0  0  0  0  0  0
   37.5600   27.0990   36.5110 H   0  0  0  0  0  0  0  0  0  0  0  0
   38.7040   23.1130   37.4140 C   0  0  1  0  0  3  0  0  0  0  0  0
   37.9750   24.4240   37.6330 C   0  0  0  0  0  3  0  0  0  0  0  0
   36.9790   24.2540   38.0840 H   0  0  0  0  0  0  0  0  0  0  0  0
   37.9010   24.9580   36.2290 C   0  0  2  0  0  3  0  0  0  0  0  0
   38.6590   24.1550   35.4220 O   0  0  0  0  0  0  0  0  0  0  0  0
   39.5650   23.4670   36.2200 C   0  0  0  0  0  3  0  0  0  0  0  0
   40.4460   24.0720   36.4870 H   0  0  0  0  0  0  0  0  0  0  0  0
   39.4700   22.7560   38.5170 O   0  0  0  0  0  0  0  0  0  0  0  0
   40.3750   23.1360   38.3810 H   0  0  0  0  0  0  0  0  0  0  0  0
  1 10  1  0  0  0  0
  1  6  1  0  0  0  0
  2  1  2  0  0  0  0
  3  2  1  0  0  0  0
  3  4  2  0  0  0  0
  4  5  1  0  0  0  0
  5  6  2  0  0  0  0
  5 21  1  0  0  0  0
  7  2  1  0  0  0  0
  8  3  1  0  0  0  0
  9  4  1  0  0  0  0
 10 11  2  0  0  0  0
 12 18  1  0  0  0  0
 13 10  1  0  0  0  0
 13 12  2  0  0  0  0
 14 13  1  0  0  0  0
 15 14  2  0  0  0  0
 15 16  1  0  0  0  0
 16 17  2  0  0  0  0
 17 12  1  0  0  0  0
 19 14  1  0  0  0  0
 20 16  1  0  0  0  0
 21 22  1  0  0  0  0
 22 24  1  0  0  0  0
 22 23  1  0  0  0  0
 25 26  1  0  0  0  0
 25 32  1  1  0  0  0
 26 27  1  0  0  0  0
 28 22  1  1  0  0  0
 28 26  1  0  0  0  0
 29 30  1  0  0  0  0
 29 28  1  0  0  0  0
 30 31  1  0  0  0  0
 30 25  1  0  0  0  0
 33 32  1  0  0  0  0
M  END
>  <minimizedAffinity>
-5.00109196

$$$$
