REMARK  Name = 
REMARK  8 active torsions:
REMARK  status: ('A' for Active; 'I' for Inactive)
REMARK    1  A    between atoms: C_1  and  C_7
REMARK    2  A    between atoms: C_6  and  C_15
REMARK    3  A    between atoms: C_7  and  O_8
REMARK    4  A    between atoms: C_7  and  C_13
REMARK    5  A    between atoms: C_16  and  C_17
REMARK    6  A    between atoms: C_17  and  S_18
REMARK    7  A    between atoms: S_18  and  C_34
REMARK    8  A    between atoms: O_32  and  C_33
REMARK                            x       y       z     vdW  Elec       q    Type
REMARK                         _______ _______ _______ _____ _____    ______ ____
ROOT
ATOM      1  C   UNL     1      37.078  30.947  49.029  0.00  0.00    +0.000 A 
ATOM      2  C   UNL     1      36.814  31.872  50.039  0.00  0.00    +0.000 A 
ATOM      3  C   UNL     1      37.428  33.123  50.069  0.00  0.00    +0.000 A 
ATOM      4  C   UNL     1      38.336  33.462  49.056  0.00  0.00    +0.000 A 
ATOM      5  C   UNL     1      38.583  32.545  48.077  0.00  0.00    +0.000 A 
ATOM      6  C   UNL     1      37.952  31.311  48.084  0.00  0.00    +0.000 A 
ATOM      7  H   UNL     1      36.102  31.587  50.812  0.00  0.00    +0.000 HD
ATOM      8  H   UNL     1      37.178  33.795  50.896  0.00  0.00    +0.000 HD
ATOM      9  H   UNL     1      38.793  34.448  49.121  0.00  0.00    +0.000 HD
ATOM     10  H   UNL     1      39.303  32.937  47.359  0.00  0.00    +0.000 HD
ENDROOT
BRANCH   1  11
ATOM     11  C   UNL     1      36.467  29.637  49.017  0.00  0.00    +0.000 C 
ATOM     12  H   UNL     1      37.009  29.055  48.173  0.00  0.00    +0.000 HD
BRANCH  11  17
ATOM     13  C   UNL     1      33.615  30.153  46.826  0.00  0.00    +0.000 A 
ATOM     14  C   UNL     1      32.955  28.939  46.840  0.00  0.00    +0.000 A 
ATOM     15  C   UNL     1      33.449  27.939  47.660  0.00  0.00    +0.000 A 
ATOM     16  N   UNL     1      34.569  28.184  48.424  0.00  0.00    +0.000 NA
ATOM     17  C   UNL     1      35.157  29.362  48.366  0.00  0.00    +0.000 A 
ATOM     18  N   UNL     1      34.687  30.350  47.572  0.00  0.00    +0.000 NA
ATOM     19  H   UNL     1      33.193  30.910  46.166  0.00  0.00    +0.000 HD
ATOM     20  H   UNL     1      32.092  28.731  46.251  0.00  0.00    +0.000 HD
ATOM     21  H   UNL     1      32.966  26.964  47.710  0.00  0.00    +0.000 HD
ENDBRANCH  11  17
BRANCH  11  22
ATOM     22  O   UNL     1      36.867  28.898  49.994  0.00  0.00    +0.000 OA
ATOM     23  H   UNL     1      36.900  27.901  49.909  0.00  0.00    +0.000 HD
ENDBRANCH  11  22
ENDBRANCH   1  11
BRANCH   6  24
ATOM     24  C   UNL     1      38.343  30.419  47.011  0.00  0.00    +0.000 C 
ATOM     25  C   UNL     1      38.818  30.835  45.836  0.00  0.00    +0.000 C 
BRANCH  25  26
ATOM     26  C   UNL     1      39.291  30.027  44.697  0.00  0.00    +0.000 C 
ATOM     27  H   UNL     1      38.715  29.078  44.636  0.00  0.00    +0.000 HD
ATOM     28  H   UNL     1      40.360  29.723  44.846  0.00  0.00    +0.000 HD
BRANCH  26  29
ATOM     29  S   UNL     1      39.184  30.981  43.177  0.00  0.00    +0.000 S 
BRANCH  29  31
ATOM     30  C   UNL     1      38.856  29.810  40.684  0.00  0.00    +0.000 C 
ATOM     31  C   UNL     1      39.808  29.929  41.857  0.00  0.00    +0.000 C 
ATOM     32  C   UNL     1      41.006  30.527  41.139  0.00  0.00    +0.000 C 
ATOM     33  H   UNL     1      40.790  31.606  40.995  0.00  0.00    +0.000 HD
ATOM     34  O   UNL     1      41.065  29.939  39.890  0.00  0.00    +0.000 OA
ATOM     35  C   UNL     1      39.839  29.368  39.616  0.00  0.00    +0.000 C 
ATOM     36  H   UNL     1      39.953  28.262  39.700  0.00  0.00    +0.000 HD
BRANCH  30  37
ATOM     37  O   UNL     1      37.844  28.906  40.894  0.00  0.00    +0.000 OA
ATOM     38  H   UNL     1      37.074  29.404  41.311  0.00  0.00    +0.000 HD
ENDBRANCH  30  37
ENDBRANCH  29  31
ENDBRANCH  26  29
ENDBRANCH  25  26
ENDBRANCH   6  24
TORSDOF 8
