
 OpenBabel03272509423D

 38 40  0  0  1  0  0  0  0  0999 V2000
   37.0540   30.9460   49.0540 C   0  0  0  0  0  0  0  0  0  0  0  0
   36.7550   31.8650   50.0600 C   0  0  0  0  0  0  0  0  0  0  0  0
   37.3380   33.1300   50.0980 C   0  0  0  0  0  0  0  0  0  0  0  0
   38.2500   33.4910   49.0960 C   0  0  0  0  0  0  0  0  0  0  0  0
   38.5320   32.5810   48.1200 C   0  0  0  0  0  0  0  0  0  0  0  0
   37.9310   31.3310   48.1200 C   0  0  0  0  0  0  0  0  0  0  0  0
   36.0410   31.5620   50.8250 H   0  0  0  0  0  0  0  0  0  0  0  0
   37.0620   33.7960   50.9210 H   0  0  0  0  0  0  0  0  0  0  0  0
   38.6820   34.4880   49.1660 H   0  0  0  0  0  0  0  0  0  0  0  0
   39.2510   32.9900   47.4110 H   0  0  0  0  0  0  0  0  0  0  0  0
   36.4760   29.6220   49.0350 C   0  0  2  0  0  0  0  0  0  0  0  0
   36.9740   29.0840   48.1360 H   0  0  0  0  0  0  0  0  0  0  0  0
   33.6050   29.9590   46.8340 C   0  0  0  0  0  0  0  0  0  0  0  0
   32.8640   28.8170   47.0680 C   0  0  0  0  0  0  0  0  0  0  0  0
   33.3110   27.9400   48.0410 C   0  0  0  0  0  0  0  0  0  0  0  0
   34.4660   28.2300   48.7330 N   0  0  0  0  0  0  0  0  0  0  0  0
   35.1320   29.3350   48.4620 C   0  0  0  0  0  0  0  0  0  0  0  0
   34.7090   30.2030   47.5170 N   0  0  0  0  0  0  0  0  0  0  0  0
   33.2180   30.6210   46.0590 H   0  0  0  0  0  0  0  0  0  0  0  0
   31.9720   28.5740   46.5380 H   0  0  0  0  0  0  0  0  0  0  0  0
   32.7640   27.0250   48.2670 H   0  0  0  0  0  0  0  0  0  0  0  0
   36.9580   28.8600   49.9560 O   0  0  0  0  0  0  0  0  0  0  0  0
   37.0090   27.8680   49.8320 H   0  0  0  0  0  0  0  0  0  0  0  0
   38.3570   30.4490   47.0520 C   0  0  0  0  0  3  0  0  0  0  0  0
   38.9850   30.8660   45.9510 C   0  0  0  0  0  3  0  0  0  0  0  0
   39.5060   30.0630   44.8300 C   0  0  0  0  0  0  0  0  0  0  0  0
   39.1180   29.0230   44.8920 H   0  0  0  0  0  0  0  0  0  0  0  0
   40.6220   29.9730   44.8940 H   0  0  0  0  0  0  0  0  0  0  0  0
   39.0930   30.8460   43.2660 S   0  0  0  0  0  0  0  0  0  0  0  0
   40.9330   29.7690   41.4900 C   0  0  1  0  0  3  0  0  0  0  0  0
   39.4980   29.6650   41.9690 C   0  0  1  0  0  3  0  0  0  0  0  0
   39.5110   28.2270   42.4610 C   0  0  0  0  0  3  0  0  0  0  0  0
   40.0140   28.2300   43.4510 H   0  0  0  0  0  0  0  0  0  0  0  0
   40.3030   27.5060   41.5880 O   0  0  0  0  0  0  0  0  0  0  0  0
   41.0850   28.3910   40.8740 C   0  0  0  0  0  3  0  0  0  0  0  0
   40.6810   28.4390   39.8350 H   0  0  0  0  0  0  0  0  0  0  0  0
   41.1320   30.7880   40.5910 O   0  0  0  0  0  0  0  0  0  0  0  0
   41.3780   31.6130   41.1150 H   0  0  0  0  0  0  0  0  0  0  0  0
  1  2  1  0  0  0  0
  2  3  2  0  0  0  0
  2  7  1  0  0  0  0
  3  8  1  0  0  0  0
  4  9  1  0  0  0  0
  4  3  1  0  0  0  0
  5  6  1  0  0  0  0
  5  4  2  0  0  0  0
  6  1  2  0  0  0  0
 10  5  1  0  0  0  0
 11 12  1  6  0  0  0
 11  1  1  0  0  0  0
 11 22  1  0  0  0  0
 13 14  2  0  0  0  0
 13 18  1  0  0  0  0
 14 15  1  0  0  0  0
 15 21  1  0  0  0  0
 15 16  2  0  0  0  0
 17 16  1  0  0  0  0
 17 11  1  0  0  0  0
 18 17  2  0  0  0  0
 19 13  1  0  0  0  0
 20 14  1  0  0  0  0
 23 22  1  0  0  0  0
 24  6  1  0  0  0  0
 25 24  2  0  0  0  0
 26 27  1  0  0  0  0
 26 28  1  0  0  0  0
 26 25  1  0  0  0  0
 29 26  1  0  0  0  0
 30 37  1  6  0  0  0
 30 31  1  0  0  0  0
 31 32  1  0  0  0  0
 31 29  1  1  0  0  0
 32 33  1  0  0  0  0
 34 32  1  0  0  0  0
 35 30  1  0  0  0  0
 35 34  1  0  0  0  0
 36 35  1  0  0  0  0
 37 38  1  0  0  0  0
M  END
>  <minimizedAffinity>
-5.72129011

>  <minimizedRMSD>
0.315229148

$$$$
