
 OpenBabel03272509423D

 38 40  0  0  1  0  0  0  0  0999 V2000
   37.0080   30.9150   49.0740 C   0  0  0  0  0  0  0  0  0  0  0  0
   36.7020   31.8050   50.1030 C   0  0  0  0  0  0  0  0  0  0  0  0
   37.2840   33.0690   50.1800 C   0  0  0  0  0  0  0  0  0  0  0  0
   38.2030   33.4570   49.1950 C   0  0  0  0  0  0  0  0  0  0  0  0
   38.4920   32.5740   48.1970 C   0  0  0  0  0  0  0  0  0  0  0  0
   37.8910   31.3260   48.1570 C   0  0  0  0  0  0  0  0  0  0  0  0
   35.9820   31.4810   50.8530 H   0  0  0  0  0  0  0  0  0  0  0  0
   37.0010   33.7110   51.0200 H   0  0  0  0  0  0  0  0  0  0  0  0
   38.6340   34.4520   49.2970 H   0  0  0  0  0  0  0  0  0  0  0  0
   39.2160   33.0030   47.5050 H   0  0  0  0  0  0  0  0  0  0  0  0
   36.4300   29.5910   49.0130 C   0  0  2  0  0  0  0  0  0  0  0  0
   36.9370   29.0770   48.1060 H   0  0  0  0  0  0  0  0  0  0  0  0
   33.5880   29.9790   46.7820 C   0  0  0  0  0  0  0  0  0  0  0  0
   32.8400   28.8360   46.9880 C   0  0  0  0  0  0  0  0  0  0  0  0
   33.2710   27.9400   47.9520 C   0  0  0  0  0  0  0  0  0  0  0  0
   34.4190   28.2140   48.6630 N   0  0  0  0  0  0  0  0  0  0  0  0
   35.0920   29.3200   48.4190 C   0  0  0  0  0  0  0  0  0  0  0  0
   34.6840   30.2060   47.4830 N   0  0  0  0  0  0  0  0  0  0  0  0
   33.2130   30.6540   46.0150 H   0  0  0  0  0  0  0  0  0  0  0  0
   31.9540   28.6060   46.4430 H   0  0  0  0  0  0  0  0  0  0  0  0
   32.7170   27.0240   48.1550 H   0  0  0  0  0  0  0  0  0  0  0  0
   36.9020   28.8050   49.9190 O   0  0  0  0  0  0  0  0  0  0  0  0
   36.9550   27.8170   49.7700 H   0  0  0  0  0  0  0  0  0  0  0  0
   38.3250   30.4740   47.0680 C   0  0  0  0  0  3  0  0  0  0  0  0
   38.8040   30.9340   45.9110 C   0  0  0  0  0  3  0  0  0  0  0  0
   39.3180   30.1700   44.7600 C   0  0  0  0  0  0  0  0  0  0  0  0
   38.4750   29.7120   44.1970 H   0  0  0  0  0  0  0  0  0  0  0  0
   39.9510   29.3120   45.1070 H   0  0  0  0  0  0  0  0  0  0  0  0
   40.3290   31.2300   43.7180 S   0  0  0  0  0  0  0  0  0  0  0  0
   40.7950   28.9740   42.1720 C   0  0  1  0  0  3  0  0  0  0  0  0
   40.4160   30.4420   42.1020 C   0  0  1  0  0  3  0  0  0  0  0  0
   39.0580   30.3110   41.4330 C   0  0  0  0  0  3  0  0  0  0  0  0
   38.3410   29.9940   42.2180 H   0  0  0  0  0  0  0  0  0  0  0  0
   39.1560   29.2840   40.5140 O   0  0  0  0  0  0  0  0  0  0  0  0
   40.2650   28.5230   40.8220 C   0  0  0  0  0  3  0  0  0  0  0  0
   41.0500   28.7410   40.0620 H   0  0  0  0  0  0  0  0  0  0  0  0
   42.1440   28.7680   42.3180 O   0  0  0  0  0  0  0  0  0  0  0  0
   42.3410   28.7380   43.3060 H   0  0  0  0  0  0  0  0  0  0  0  0
  1  2  1  0  0  0  0
  2  3  2  0  0  0  0
  2  7  1  0  0  0  0
  3  8  1  0  0  0  0
  4  9  1  0  0  0  0
  4  3  1  0  0  0  0
  5  4  2  0  0  0  0
  6  5  1  0  0  0  0
  6  1  2  0  0  0  0
 10  5  1  0  0  0  0
 11 12  1  6  0  0  0
 11  1  1  0  0  0  0
 11 22  1  0  0  0  0
 13 14  2  0  0  0  0
 13 18  1  0  0  0  0
 14 15  1  0  0  0  0
 15 21  1  0  0  0  0
 15 16  2  0  0  0  0
 17 16  1  0  0  0  0
 17 11  1  0  0  0  0
 18 17  2  0  0  0  0
 19 13  1  0  0  0  0
 20 14  1  0  0  0  0
 23 22  1  0  0  0  0
 24  6  1  0  0  0  0
 25 24  2  0  0  0  0
 26 28  1  0  0  0  0
 26 25  1  0  0  0  0
 27 26  1  0  0  0  0
 29 26  1  0  0  0  0
 30 37  1  6  0  0  0
 31 30  1  0  0  0  0
 31 29  1  1  0  0  0
 32 31  1  0  0  0  0
 32 33  1  0  0  0  0
 34 35  1  0  0  0  0
 34 32  1  0  0  0  0
 35 30  1  0  0  0  0
 36 35  1  0  0  0  0
 37 38  1  0  0  0  0
M  END
>  <minimizedAffinity>
-6.29550791

>  <minimizedRMSD>
0.724463284

$$$$
