
 OpenBabel03272505243D

 28 30  0  0  1  0  0  0  0  0999 V2000
   37.4280   21.4490   31.8950 C   0  0  0  0  0  0  0  0  0  0  0  0
   38.0380   21.9610   33.0780 C   0  0  0  0  0  0  0  0  0  0  0  0
   37.3590   21.7960   34.2800 C   0  0  0  0  0  0  0  0  0  0  0  0
   36.1460   21.1580   34.2880 N   0  0  0  0  0  0  0  0  0  0  0  0
   35.5880   20.6800   33.1400 C   0  0  0  0  0  0  0  0  0  0  0  0
   36.2240   20.8250   31.9590 N   0  0  0  0  0  0  0  0  0  0  0  0
   37.8920   22.2570   35.5020 N   0  0  0  0  0  0  0  0  0  0  0  0
   37.1160   22.7130   36.5020 C   0  0  0  0  0  0  0  0  0  0  0  0
   37.6770   23.1470   37.7130 C   0  0  0  0  0  0  0  0  0  0  0  0
   39.0510   23.0990   37.8670 C   0  0  0  0  0  0  0  0  0  0  0  0
   39.5710   23.4760   38.9250 O   0  0  0  0  0  0  0  0  0  0  0  0
   39.7890   22.6410   36.8500 N   0  0  0  0  0  0  0  0  0  0  0  0
   39.2000   22.2410   35.7180 C   0  0  0  0  0  0  0  0  0  0  0  0
   39.9560   21.8230   34.8010 O   0  0  0  0  0  0  0  0  0  0  0  0
   37.8960   21.5410   30.9330 H   0  0  0  0  0  0  0  0  0  0  0  0
   38.9820   22.4480   32.9160 H   0  0  0  0  0  0  0  0  0  0  0  0
   34.6320   20.2010   33.2980 H   0  0  0  0  0  0  0  0  0  0  0  0
   36.0460   22.7500   36.3810 H   0  0  0  0  0  0  0  0  0  0  0  0
   37.0230   23.5070   38.4990 H   0  0  0  0  0  0  0  0  0  0  0  0
   41.8250   21.2360   36.9850 C   0  0  1  0  0  3  0  0  0  0  0  0
   41.1900   22.6060   37.0400 C   0  0  1  0  0  3  0  0  0  0  0  0
   42.0750   23.3800   36.1450 C   0  0  0  0  0  3  0  0  0  0  0  0
   42.2060   22.9830   35.1160 H   0  0  0  0  0  0  0  0  0  0  0  0
   43.3200   23.0220   36.7350 O   0  0  0  0  0  0  0  0  0  0  0  0
   43.2290   21.6290   36.4960 C   0  0  0  0  0  3  0  0  0  0  0  0
   43.9760   21.0650   37.0740 H   0  0  0  0  0  0  0  0  0  0  0  0
   41.9010   20.6450   38.2450 O   0  0  0  0  0  0  0  0  0  0  0  0
   41.4560   19.7480   38.2230 H   0  0  0  0  0  0  0  0  0  0  0  0
  1  6  2  0  0  0  0
  1  2  1  0  0  0  0
  2  3  2  0  0  0  0
  3  4  1  0  0  0  0
  3  7  1  0  0  0  0
  5 17  1  0  0  0  0
  5  4  2  0  0  0  0
  6  5  1  0  0  0  0
  7 13  1  0  0  0  0
  7  8  1  0  0  0  0
  8  9  2  0  0  0  0
  9 10  1  0  0  0  0
  9 19  1  0  0  0  0
 10 11  2  0  0  0  0
 12 10  1  0  0  0  0
 13 12  1  0  0  0  0
 14 13  2  0  0  0  0
 15  1  1  0  0  0  0
 16  2  1  0  0  0  0
 18  8  1  0  0  0  0
 20 21  1  0  0  0  0
 20 27  1  1  0  0  0
 21 12  1  6  0  0  0
 22 24  1  0  0  0  0
 22 21  1  0  0  0  0
 23 22  1  0  0  0  0
 25 24  1  0  0  0  0
 25 20  1  0  0  0  0
 25 26  1  0  0  0  0
 28 27  1  0  0  0  0
M  END
>  <minimizedAffinity>
-5.28443861

$$$$

 OpenBabel03272505243D

 28 30  0  0  1  0  0  0  0  0999 V2000
   37.4610   20.2470   32.2920 C   0  0  0  0  0  0  0  0  0  0  0  0
   37.4990   21.6690   32.1880 C   0  0  0  0  0  0  0  0  0  0  0  0
   36.2970   22.3340   31.9710 C   0  0  0  0  0  0  0  0  0  0  0  0
   35.1360   21.6140   31.8630 N   0  0  0  0  0  0  0  0  0  0  0  0
   35.1330   20.2560   31.9660 C   0  0  0  0  0  0  0  0  0  0  0  0
   36.2830   19.5820   32.1780 N   0  0  0  0  0  0  0  0  0  0  0  0
   36.2370   23.7400   31.8690 N   0  0  0  0  0  0  0  0  0  0  0  0
   35.3530   24.3700   31.0730 C   0  0  0  0  0  0  0  0  0  0  0  0
   35.3050   25.7710   31.0100 C   0  0  0  0  0  0  0  0  0  0  0  0
   36.1870   26.5030   31.7840 C   0  0  0  0  0  0  0  0  0  0  0  0
   36.1660   27.7400   31.7460 O   0  0  0  0  0  0  0  0  0  0  0  0
   37.0520   25.8420   32.5610 N   0  0  0  0  0  0  0  0  0  0  0  0
   37.0520   24.5060   32.5810 C   0  0  0  0  0  0  0  0  0  0  0  0
   37.8950   23.9490   33.3340 O   0  0  0  0  0  0  0  0  0  0  0  0
   38.3510   19.6700   32.4600 H   0  0  0  0  0  0  0  0  0  0  0  0
   38.4810   22.0950   32.2790 H   0  0  0  0  0  0  0  0  0  0  0  0
   34.1470   19.8230   31.8610 H   0  0  0  0  0  0  0  0  0  0  0  0
   34.6660   23.7970   30.4710 H   0  0  0  0  0  0  0  0  0  0  0  0
   34.5800   26.2450   30.3600 H   0  0  0  0  0  0  0  0  0  0  0  0
   37.4850   26.9230   34.7480 C   0  0  1  0  0  3  0  0  0  0  0  0
   37.9400   26.6220   33.3390 C   0  0  1  0  0  3  0  0  0  0  0  0
   39.3240   26.1570   33.5650 C   0  0  0  0  0  3  0  0  0  0  0  0
   39.4500   25.3100   34.2720 H   0  0  0  0  0  0  0  0  0  0  0  0
   39.7740   27.2460   34.3640 O   0  0  0  0  0  0  0  0  0  0  0  0
   38.8570   27.0700   35.4280 C   0  0  0  0  0  3  0  0  0  0  0  0
   38.8300   27.9440   36.0950 H   0  0  0  0  0  0  0  0  0  0  0  0
   36.7790   28.1220   34.8230 O   0  0  0  0  0  0  0  0  0  0  0  0
   35.8840   27.9600   35.2410 H   0  0  0  0  0  0  0  0  0  0  0  0
  1 15  1  0  0  0  0
  2 16  1  0  0  0  0
  2  1  1  0  0  0  0
  3  2  2  0  0  0  0
  4  5  2  0  0  0  0
  4  3  1  0  0  0  0
  5  6  1  0  0  0  0
  6  1  2  0  0  0  0
  7  3  1  0  0  0  0
  7 13  1  0  0  0  0
  8  7  1  0  0  0  0
  9  8  2  0  0  0  0
  9 10  1  0  0  0  0
 10 12  1  0  0  0  0
 11 10  2  0  0  0  0
 12 13  1  0  0  0  0
 13 14  2  0  0  0  0
 17  5  1  0  0  0  0
 18  8  1  0  0  0  0
 19  9  1  0  0  0  0
 20 27  1  6  0  0  0
 20 25  1  0  0  0  0
 21 12  1  1  0  0  0
 21 22  1  0  0  0  0
 21 20  1  0  0  0  0
 22 23  1  0  0  0  0
 22 24  1  0  0  0  0
 24 25  1  0  0  0  0
 25 26  1  0  0  0  0
 27 28  1  0  0  0  0
M  END
>  <minimizedAffinity>
-5.05843735

$$$$

 OpenBabel03272505243D

 28 30  0  0  1  0  0  0  0  0999 V2000
   36.1730   28.6900   34.4150 C   0  0  0  0  0  0  0  0  0  0  0  0
   36.7240   27.3900   34.6150 C   0  0  0  0  0  0  0  0  0  0  0  0
   37.0590   26.6490   33.4870 C   0  0  0  0  0  0  0  0  0  0  0  0
   36.8510   27.1820   32.2420 N   0  0  0  0  0  0  0  0  0  0  0  0
   36.3210   28.4280   32.0830 C   0  0  0  0  0  0  0  0  0  0  0  0
   35.9870   29.1710   33.1590 N   0  0  0  0  0  0  0  0  0  0  0  0
   37.6220   25.3590   33.5880 N   0  0  0  0  0  0  0  0  0  0  0  0
   37.3790   24.3920   32.6850 C   0  0  0  0  0  0  0  0  0  0  0  0
   37.9710   23.1250   32.8030 C   0  0  0  0  0  0  0  0  0  0  0  0
   38.8170   22.8820   33.8710 C   0  0  0  0  0  0  0  0  0  0  0  0
   39.3520   21.7730   33.9980 O   0  0  0  0  0  0  0  0  0  0  0  0
   39.0340   23.8680   34.7480 N   0  0  0  0  0  0  0  0  0  0  0  0
   38.4410   25.0550   34.5850 C   0  0  0  0  0  0  0  0  0  0  0  0
   38.6890   25.9370   35.4500 O   0  0  0  0  0  0  0  0  0  0  0  0
   35.8920   29.3170   35.2410 H   0  0  0  0  0  0  0  0  0  0  0  0
   36.8160   27.1000   35.6450 H   0  0  0  0  0  0  0  0  0  0  0  0
   36.2140   28.7170   31.0470 H   0  0  0  0  0  0  0  0  0  0  0  0
   36.7200   24.5830   31.8540 H   0  0  0  0  0  0  0  0  0  0  0  0
   37.7550   22.3690   32.0580 H   0  0  0  0  0  0  0  0  0  0  0  0
   39.4900   22.4370   36.7180 C   0  0  1  0  0  3  0  0  0  0  0  0
   39.9030   23.5850   35.8280 C   0  0  1  0  0  3  0  0  0  0  0  0
   41.3220   23.2670   35.5670 C   0  0  0  0  0  3  0  0  0  0  0  0
   41.5310   22.2640   35.1390 H   0  0  0  0  0  0  0  0  0  0  0  0
   41.7350   23.0760   36.9170 O   0  0  0  0  0  0  0  0  0  0  0  0
   40.8770   21.9880   37.2080 C   0  0  0  0  0  3  0  0  0  0  0  0
   40.8240   21.7870   38.2880 H   0  0  0  0  0  0  0  0  0  0  0  0
   38.7140   22.8630   37.7940 O   0  0  0  0  0  0  0  0  0  0  0  0
   37.8490   22.3580   37.8060 H   0  0  0  0  0  0  0  0  0  0  0  0
  1  2  1  0  0  0  0
  1 15  1  0  0  0  0
  2 16  1  0  0  0  0
  3  7  1  0  0  0  0
  3  2  2  0  0  0  0
  4  3  1  0  0  0  0
  5  4  2  0  0  0  0
  5  6  1  0  0  0  0
  6  1  2  0  0  0  0
  7 13  1  0  0  0  0
  8  9  2  0  0  0  0
  8  7  1  0  0  0  0
  9 10  1  0  0  0  0
 10 11  2  0  0  0  0
 10 12  1  0  0  0  0
 13 12  1  0  0  0  0
 13 14  2  0  0  0  0
 17  5  1  0  0  0  0
 18  8  1  0  0  0  0
 19  9  1  0  0  0  0
 20 25  1  0  0  0  0
 20 27  1  1  0  0  0
 21 12  1  6  0  0  0
 21 20  1  0  0  0  0
 22 21  1  0  0  0  0
 22 24  1  0  0  0  0
 23 22  1  0  0  0  0
 24 25  1  0  0  0  0
 25 26  1  0  0  0  0
 27 28  1  0  0  0  0
M  END
>  <minimizedAffinity>
-5.03068733

$$$$

 OpenBabel03272505243D

 28 30  0  0  1  0  0  0  0  0999 V2000
   37.8590   24.0810   37.9020 C   0  0  0  0  0  0  0  0  0  0  0  0
   38.1360   24.9130   36.7770 C   0  0  0  0  0  0  0  0  0  0  0  0
   39.2740   24.6330   36.0290 C   0  0  0  0  0  0  0  0  0  0  0  0
   40.0800   23.5850   36.3920 N   0  0  0  0  0  0  0  0  0  0  0  0
   39.7890   22.8090   37.4730 C   0  0  0  0  0  0  0  0  0  0  0  0
   38.6910   23.0560   38.2180 N   0  0  0  0  0  0  0  0  0  0  0  0
   39.6190   25.3930   34.8920 N   0  0  0  0  0  0  0  0  0  0  0  0
   40.8960   25.6240   34.5380 C   0  0  0  0  0  0  0  0  0  0  0  0
   41.2070   26.3680   33.3890 C   0  0  0  0  0  0  0  0  0  0  0  0
   40.1710   26.8650   32.6180 C   0  0  0  0  0  0  0  0  0  0  0  0
   40.4170   27.5250   31.6000 O   0  0  0  0  0  0  0  0  0  0  0  0
   38.9150   26.6160   33.0020 N   0  0  0  0  0  0  0  0  0  0  0  0
   38.6790   25.9010   34.1070 C   0  0  0  0  0  0  0  0  0  0  0  0
   37.4720   25.7060   34.4110 O   0  0  0  0  0  0  0  0  0  0  0  0
   36.9980   24.2400   38.5230 H   0  0  0  0  0  0  0  0  0  0  0  0
   37.4240   25.7030   36.6230 H   0  0  0  0  0  0  0  0  0  0  0  0
   40.5110   22.0210   37.6390 H   0  0  0  0  0  0  0  0  0  0  0  0
   41.7020   25.2360   35.1400 H   0  0  0  0  0  0  0  0  0  0  0  0
   42.2450   26.5350   33.1330 H   0  0  0  0  0  0  0  0  0  0  0  0
   37.2860   26.1800   31.1880 C   0  0  1  0  0  3  0  0  0  0  0  0
   37.8810   27.1390   32.1920 C   0  0  1  0  0  3  0  0  0  0  0  0
   36.6680   27.7050   32.8180 C   0  0  0  0  0  3  0  0  0  0  0  0
   35.9530   26.9770   33.2560 H   0  0  0  0  0  0  0  0  0  0  0  0
   35.9810   28.0750   31.6270 O   0  0  0  0  0  0  0  0  0  0  0  0
   35.8710   26.7740   31.0800 C   0  0  0  0  0  3  0  0  0  0  0  0
   35.5770   26.7990   30.0200 H   0  0  0  0  0  0  0  0  0  0  0  0
   37.9320   26.2470   29.9550 O   0  0  0  0  0  0  0  0  0  0  0  0
   38.2530   25.3350   29.6920 H   0  0  0  0  0  0  0  0  0  0  0  0
  1  6  1  0  0  0  0
  1 15  1  0  0  0  0
  2  1  2  0  0  0  0
  3  4  2  0  0  0  0
  3  2  1  0  0  0  0
  4  5  1  0  0  0  0
  5 17  1  0  0  0  0
  5  6  2  0  0  0  0
  7  3  1  0  0  0  0
  8  7  1  0  0  0  0
  8 18  1  0  0  0  0
  9  8  2  0  0  0  0
 10 12  1  0  0  0  0
 10  9  1  0  0  0  0
 11 10  2  0  0  0  0
 12 13  1  0  0  0  0
 13 14  2  0  0  0  0
 13  7  1  0  0  0  0
 16  2  1  0  0  0  0
 19  9  1  0  0  0  0
 20 27  1  6  0  0  0
 20 21  1  0  0  0  0
 21 22  1  0  0  0  0
 21 12  1  1  0  0  0
 22 23  1  0  0  0  0
 24 22  1  0  0  0  0
 25 20  1  0  0  0  0
 25 24  1  0  0  0  0
 26 25  1  0  0  0  0
 28 27  1  0  0  0  0
M  END
>  <minimizedAffinity>
-4.97626686

$$$$

 OpenBabel03272505243D

 28 30  0  0  1  0  0  0  0  0999 V2000
   39.1610   23.0070   37.2490 C   0  0  0  0  0  0  0  0  0  0  0  0
   39.0020   23.9340   36.1770 C   0  0  0  0  0  0  0  0  0  0  0  0
   40.1310   24.2710   35.4390 C   0  0  0  0  0  0  0  0  0  0  0  0
   41.3400   23.7120   35.7610 N   0  0  0  0  0  0  0  0  0  0  0  0
   41.4610   22.8300   36.7930 C   0  0  0  0  0  0  0  0  0  0  0  0
   40.3830   22.4830   37.5260 N   0  0  0  0  0  0  0  0  0  0  0  0
   40.0660   25.1680   34.3520 N   0  0  0  0  0  0  0  0  0  0  0  0
   41.0780   25.9970   34.0380 C   0  0  0  0  0  0  0  0  0  0  0  0
   40.9890   26.8640   32.9380 C   0  0  0  0  0  0  0  0  0  0  0  0
   39.8360   26.8540   32.1730 C   0  0  0  0  0  0  0  0  0  0  0  0
   39.7320   27.6090   31.1970 O   0  0  0  0  0  0  0  0  0  0  0  0
   38.8520   26.0170   32.5160 N   0  0  0  0  0  0  0  0  0  0  0  0
   38.9910   25.2130   33.5760 C   0  0  0  0  0  0  0  0  0  0  0  0
   38.0240   24.4520   33.8430 O   0  0  0  0  0  0  0  0  0  0  0  0
   38.3320   22.7020   37.8590 H   0  0  0  0  0  0  0  0  0  0  0  0
   37.9990   24.2990   36.0500 H   0  0  0  0  0  0  0  0  0  0  0  0
   42.4720   22.4710   36.9310 H   0  0  0  0  0  0  0  0  0  0  0  0
   41.9750   26.0040   34.6340 H   0  0  0  0  0  0  0  0  0  0  0  0
   41.8220   27.5180   32.7120 H   0  0  0  0  0  0  0  0  0  0  0  0
   37.2470   24.6930   31.1710 C   0  0  1  0  0  3  0  0  0  0  0  0
   37.6870   26.0330   31.7140 C   0  0  1  0  0  3  0  0  0  0  0  0
   36.4220   26.5630   32.2610 C   0  0  0  0  0  3  0  0  0  0  0  0
   35.8990   25.9230   33.0040 H   0  0  0  0  0  0  0  0  0  0  0  0
   35.6060   26.3640   31.1110 O   0  0  0  0  0  0  0  0  0  0  0  0
   35.7370   24.9560   31.0490 C   0  0  0  0  0  3  0  0  0  0  0  0
   35.3840   24.5540   30.0880 H   0  0  0  0  0  0  0  0  0  0  0  0
   37.7940   24.4330   29.9160 O   0  0  0  0  0  0  0  0  0  0  0  0
   38.2810   23.5580   29.9360 H   0  0  0  0  0  0  0  0  0  0  0  0
  1  6  1  0  0  0  0
  1 15  1  0  0  0  0
  2  1  2  0  0  0  0
  3  4  2  0  0  0  0
  3  2  1  0  0  0  0
  4  5  1  0  0  0  0
  5 17  1  0  0  0  0
  5  6  2  0  0  0  0
  7  3  1  0  0  0  0
  8  7  1  0  0  0  0
  8 18  1  0  0  0  0
  9  8  2  0  0  0  0
 10 12  1  0  0  0  0
 10  9  1  0  0  0  0
 11 10  2  0  0  0  0
 12 13  1  0  0  0  0
 13 14  2  0  0  0  0
 13  7  1  0  0  0  0
 16  2  1  0  0  0  0
 19  9  1  0  0  0  0
 20 27  1  6  0  0  0
 20 21  1  0  0  0  0
 21 22  1  0  0  0  0
 21 12  1  1  0  0  0
 22 23  1  0  0  0  0
 24 22  1  0  0  0  0
 25 24  1  0  0  0  0
 25 20  1  0  0  0  0
 26 25  1  0  0  0  0
 27 28  1  0  0  0  0
M  END
>  <minimizedAffinity>
-4.88434744

$$$$

 OpenBabel03272505243D

 28 30  0  0  1  0  0  0  0  0999 V2000
   40.5920   24.3770   34.8480 C   0  0  0  0  0  0  0  0  0  0  0  0
   39.6340   24.7240   33.8500 C   0  0  0  0  0  0  0  0  0  0  0  0
   38.4300   24.0290   33.8410 C   0  0  0  0  0  0  0  0  0  0  0  0
   38.2070   23.0500   34.7720 N   0  0  0  0  0  0  0  0  0  0  0  0
   39.1440   22.7400   35.7130 C   0  0  0  0  0  0  0  0  0  0  0  0
   40.3220   23.3980   35.7480 N   0  0  0  0  0  0  0  0  0  0  0  0
   37.4180   24.3150   32.9000 N   0  0  0  0  0  0  0  0  0  0  0  0
   36.5950   23.3670   32.4140 C   0  0  0  0  0  0  0  0  0  0  0  0
   35.5850   23.6860   31.4940 C   0  0  0  0  0  0  0  0  0  0  0  0
   35.4450   25.0020   31.0890 C   0  0  0  0  0  0  0  0  0  0  0  0
   34.5610   25.3110   30.2790 O   0  0  0  0  0  0  0  0  0  0  0  0
   36.2810   25.9160   31.5930 N   0  0  0  0  0  0  0  0  0  0  0  0
   37.2260   25.5530   32.4670 C   0  0  0  0  0  0  0  0  0  0  0  0
   37.9800   26.4640   32.8990 O   0  0  0  0  0  0  0  0  0  0  0  0
   41.5430   24.8730   34.9140 H   0  0  0  0  0  0  0  0  0  0  0  0
   39.9520   25.5010   33.1800 H   0  0  0  0  0  0  0  0  0  0  0  0
   38.8320   21.9490   36.3810 H   0  0  0  0  0  0  0  0  0  0  0  0
   36.7060   22.3430   32.7300 H   0  0  0  0  0  0  0  0  0  0  0  0
   34.9390   22.9000   31.1240 H   0  0  0  0  0  0  0  0  0  0  0  0
   35.8670   28.2690   32.2470 C   0  0  1  0  0  3  0  0  0  0  0  0
   36.1100   27.2510   31.1580 C   0  0  1  0  0  3  0  0  0  0  0  0
   37.1700   27.9090   30.3660 C   0  0  0  0  0  3  0  0  0  0  0  0
   38.0850   28.2080   30.9190 H   0  0  0  0  0  0  0  0  0  0  0  0
   36.5340   29.1710   30.1910 O   0  0  0  0  0  0  0  0  0  0  0  0
   36.4530   29.5140   31.5620 C   0  0  0  0  0  3  0  0  0  0  0  0
   35.7760   30.3640   31.7320 H   0  0  0  0  0  0  0  0  0  0  0  0
   34.5080   28.4510   32.4970 O   0  0  0  0  0  0  0  0  0  0  0  0
   34.3210   28.2970   33.4690 H   0  0  0  0  0  0  0  0  0  0  0  0
  1 15  1  0  0  0  0
  1  6  1  0  0  0  0
  2  1  2  0  0  0  0
  3  2  1  0  0  0  0
  3  4  2  0  0  0  0
  4  5  1  0  0  0  0
  5  6  2  0  0  0  0
  5 17  1  0  0  0  0
  7  3  1  0  0  0  0
  8 18  1  0  0  0  0
  8  7  1  0  0  0  0
  9  8  2  0  0  0  0
 10  9  1  0  0  0  0
 10 12  1  0  0  0  0
 11 10  2  0  0  0  0
 12 13  1  0  0  0  0
 13 14  2  0  0  0  0
 13  7  1  0  0  0  0
 16  2  1  0  0  0  0
 19  9  1  0  0  0  0
 20 27  1  6  0  0  0
 21 12  1  1  0  0  0
 21 20  1  0  0  0  0
 22 23  1  0  0  0  0
 22 21  1  0  0  0  0
 24 22  1  0  0  0  0
 24 25  1  0  0  0  0
 25 26  1  0  0  0  0
 25 20  1  0  0  0  0
 27 28  1  0  0  0  0
M  END
>  <minimizedAffinity>
-4.86134195

$$$$

 OpenBabel03272505243D

 28 30  0  0  1  0  0  0  0  0999 V2000
   36.6340   27.2410   30.7100 C   0  0  0  0  0  0  0  0  0  0  0  0
   37.0940   26.0900   31.4150 C   0  0  0  0  0  0  0  0  0  0  0  0
   37.1510   26.1620   32.8030 C   0  0  0  0  0  0  0  0  0  0  0  0
   36.7720   27.3160   33.4360 N   0  0  0  0  0  0  0  0  0  0  0  0
   36.3370   28.4000   32.7340 C   0  0  0  0  0  0  0  0  0  0  0  0
   36.2700   28.3600   31.3870 N   0  0  0  0  0  0  0  0  0  0  0  0
   37.5800   25.0680   33.5840 N   0  0  0  0  0  0  0  0  0  0  0  0
   38.2500   25.2240   34.7400 C   0  0  0  0  0  0  0  0  0  0  0  0
   38.6450   24.1150   35.5040 C   0  0  0  0  0  0  0  0  0  0  0  0
   38.3330   22.8470   35.0490 C   0  0  0  0  0  0  0  0  0  0  0  0
   38.6700   21.8520   35.7030 O   0  0  0  0  0  0  0  0  0  0  0  0
   37.6670   22.7310   33.8950 N   0  0  0  0  0  0  0  0  0  0  0  0
   37.3160   23.8240   33.2080 C   0  0  0  0  0  0  0  0  0  0  0  0
   36.6930   23.6410   32.1290 O   0  0  0  0  0  0  0  0  0  0  0  0
   36.5630   27.2560   29.6390 H   0  0  0  0  0  0  0  0  0  0  0  0
   37.3690   25.2640   30.7860 H   0  0  0  0  0  0  0  0  0  0  0  0
   36.0720   29.2380   33.3640 H   0  0  0  0  0  0  0  0  0  0  0  0
   38.4920   26.2130   35.0940 H   0  0  0  0  0  0  0  0  0  0  0  0
   39.1820   24.2770   36.4310 H   0  0  0  0  0  0  0  0  0  0  0  0
   35.9010   21.0450   33.4740 C   0  0  1  0  0  3  0  0  0  0  0  0
   37.3650   21.4210   33.4580 C   0  0  1  0  0  3  0  0  0  0  0  0
   37.7690   20.9830   32.1060 C   0  0  0  0  0  3  0  0  0  0  0  0
   37.1860   21.3980   31.2570 H   0  0  0  0  0  0  0  0  0  0  0  0
   37.2560   19.6550   32.1630 O   0  0  0  0  0  0  0  0  0  0  0  0
   35.8960   20.0040   32.3430 C   0  0  0  0  0  3  0  0  0  0  0  0
   35.2910   19.1410   32.6570 H   0  0  0  0  0  0  0  0  0  0  0  0
   35.5290   20.4500   34.6780 O   0  0  0  0  0  0  0  0  0  0  0  0
   34.7580   20.9500   35.0770 H   0  0  0  0  0  0  0  0  0  0  0  0
  1  6  2  0  0  0  0
  1  2  1  0  0  0  0
  2  3  2  0  0  0  0
  3  4  1  0  0  0  0
  3  7  1  0  0  0  0
  5 17  1  0  0  0  0
  5  4  2  0  0  0  0
  6  5  1  0  0  0  0
  7  8  1  0  0  0  0
  8 18  1  0  0  0  0
  8  9  2  0  0  0  0
  9 19  1  0  0  0  0
 10  9  1  0  0  0  0
 10 11  2  0  0  0  0
 12 10  1  0  0  0  0
 13  7  1  0  0  0  0
 13 12  1  0  0  0  0
 14 13  2  0  0  0  0
 15  1  1  0  0  0  0
 16  2  1  0  0  0  0
 20 27  1  1  0  0  0
 21 20  1  0  0  0  0
 21 12  1  6  0  0  0
 22 24  1  0  0  0  0
 22 21  1  0  0  0  0
 23 22  1  0  0  0  0
 24 25  1  0  0  0  0
 25 26  1  0  0  0  0
 25 20  1  0  0  0  0
 27 28  1  0  0  0  0
M  END
>  <minimizedAffinity>
-4.77395439

$$$$

 OpenBabel03272505243D

 28 30  0  0  1  0  0  0  0  0999 V2000
   37.3810   25.7170   33.4140 C   0  0  0  0  0  0  0  0  0  0  0  0
   37.0800   27.1110   33.4210 C   0  0  0  0  0  0  0  0  0  0  0  0
   36.3060   27.6110   32.3790 C   0  0  0  0  0  0  0  0  0  0  0  0
   35.8680   26.7630   31.3960 N   0  0  0  0  0  0  0  0  0  0  0  0
   36.1740   25.4350   31.4160 C   0  0  0  0  0  0  0  0  0  0  0  0
   36.9220   24.9210   32.4150 N   0  0  0  0  0  0  0  0  0  0  0  0
   35.9450   28.9730   32.3110 N   0  0  0  0  0  0  0  0  0  0  0  0
   35.8020   29.6250   31.1430 C   0  0  0  0  0  0  0  0  0  0  0  0
   35.4230   30.9760   31.1080 C   0  0  0  0  0  0  0  0  0  0  0  0
   35.1970   31.6340   32.3040 C   0  0  0  0  0  0  0  0  0  0  0  0
   34.8610   32.8260   32.3020 O   0  0  0  0  0  0  0  0  0  0  0  0
   35.3500   30.9540   33.4450 N   0  0  0  0  0  0  0  0  0  0  0  0
   35.7140   29.6680   33.4160 C   0  0  0  0  0  0  0  0  0  0  0  0
   35.8420   29.0890   34.5280 O   0  0  0  0  0  0  0  0  0  0  0  0
   37.9730   25.2640   34.1870 H   0  0  0  0  0  0  0  0  0  0  0  0
   37.5020   27.6530   34.2460 H   0  0  0  0  0  0  0  0  0  0  0  0
   35.7620   24.8890   30.5790 H   0  0  0  0  0  0  0  0  0  0  0  0
   35.9780   29.1100   30.2130 H   0  0  0  0  0  0  0  0  0  0  0  0
   35.3150   31.4700   30.1510 H   0  0  0  0  0  0  0  0  0  0  0  0
   33.7410   31.4690   35.2570 C   0  0  1  0  0  3  0  0  0  0  0  0
   35.1110   31.6570   34.6480 C   0  0  1  0  0  3  0  0  0  0  0  0
   35.9890   31.4390   35.8160 C   0  0  0  0  0  3  0  0  0  0  0  0
   35.8620   30.4760   36.3560 H   0  0  0  0  0  0  0  0  0  0  0  0
   35.3530   32.3400   36.7170 O   0  0  0  0  0  0  0  0  0  0  0  0
   34.0900   31.7010   36.7360 C   0  0  0  0  0  3  0  0  0  0  0  0
   33.3160   32.3390   37.1870 H   0  0  0  0  0  0  0  0  0  0  0  0
   32.8380   32.4360   34.8170 O   0  0  0  0  0  0  0  0  0  0  0  0
   32.0330   31.9890   34.4230 H   0  0  0  0  0  0  0  0  0  0  0  0
  1  2  1  0  0  0  0
  1 15  1  0  0  0  0
  2 16  1  0  0  0  0
  3  2  2  0  0  0  0
  4  5  2  0  0  0  0
  4  3  1  0  0  0  0
  5  6  1  0  0  0  0
  6  1  2  0  0  0  0
  7  3  1  0  0  0  0
  7 13  1  0  0  0  0
  8  7  1  0  0  0  0
  9  8  2  0  0  0  0
  9 10  1  0  0  0  0
 10 12  1  0  0  0  0
 11 10  2  0  0  0  0
 13 12  1  0  0  0  0
 13 14  2  0  0  0  0
 17  5  1  0  0  0  0
 18  8  1  0  0  0  0
 19  9  1  0  0  0  0
 20 27  1  6  0  0  0
 20 25  1  0  0  0  0
 21 12  1  6  0  0  0
 21 20  1  0  0  0  0
 21 22  1  0  0  0  0
 22 23  1  0  0  0  0
 22 24  1  0  0  0  0
 24 25  1  0  0  0  0
 25 26  1  0  0  0  0
 28 27  1  0  0  0  0
M  END
>  <minimizedAffinity>
-4.7173562

$$$$

 OpenBabel03272505243D

 28 30  0  0  1  0  0  0  0  0999 V2000
   36.8100   28.3340   30.6240 C   0  0  0  0  0  0  0  0  0  0  0  0
   37.4140   27.4600   31.5750 C   0  0  0  0  0  0  0  0  0  0  0  0
   37.0120   27.5700   32.9010 C   0  0  0  0  0  0  0  0  0  0  0  0
   36.0660   28.4990   33.2460 N   0  0  0  0  0  0  0  0  0  0  0  0
   35.5070   29.3210   32.3140 C   0  0  0  0  0  0  0  0  0  0  0  0
   35.8770   29.2380   31.0190 N   0  0  0  0  0  0  0  0  0  0  0  0
   37.5450   26.7370   33.9080 N   0  0  0  0  0  0  0  0  0  0  0  0
   37.7220   27.1570   35.1740 C   0  0  0  0  0  0  0  0  0  0  0  0
   38.2360   26.2980   36.1570 C   0  0  0  0  0  0  0  0  0  0  0  0
   38.5600   25.0000   35.8040 C   0  0  0  0  0  0  0  0  0  0  0  0
   39.0150   24.2210   36.6520 O   0  0  0  0  0  0  0  0  0  0  0  0
   38.3710   24.6190   34.5360 N   0  0  0  0  0  0  0  0  0  0  0  0
   37.8780   25.4820   33.6410 C   0  0  0  0  0  0  0  0  0  0  0  0
   37.7270   25.0560   32.4650 O   0  0  0  0  0  0  0  0  0  0  0  0
   37.0720   28.3040   29.5830 H   0  0  0  0  0  0  0  0  0  0  0  0
   38.1480   26.7940   31.1620 H   0  0  0  0  0  0  0  0  0  0  0  0
   34.7770   30.0030   32.7290 H   0  0  0  0  0  0  0  0  0  0  0  0
   37.4690   28.1680   35.4470 H   0  0  0  0  0  0  0  0  0  0  0  0
   38.3650   26.6680   37.1670 H   0  0  0  0  0  0  0  0  0  0  0  0
   37.5620   22.3090   34.1510 C   0  0  1  0  0  3  0  0  0  0  0  0
   38.7130   23.2860   34.2090 C   0  0  1  0  0  3  0  0  0  0  0  0
   39.4150   22.9950   32.9420 C   0  0  0  0  0  3  0  0  0  0  0  0
   38.8080   23.0650   32.0140 H   0  0  0  0  0  0  0  0  0  0  0  0
   39.5200   21.5830   33.0900 O   0  0  0  0  0  0  0  0  0  0  0  0
   38.1320   21.3100   33.1310 C   0  0  0  0  0  3  0  0  0  0  0  0
   37.9260   20.2880   33.4820 H   0  0  0  0  0  0  0  0  0  0  0  0
   37.3500   21.6790   35.3760 O   0  0  0  0  0  0  0  0  0  0  0  0
   36.4000   21.8120   35.6630 H   0  0  0  0  0  0  0  0  0  0  0  0
  1  6  2  0  0  0  0
  1  2  1  0  0  0  0
  2  3  2  0  0  0  0
  3  4  1  0  0  0  0
  3  7  1  0  0  0  0
  5 17  1  0  0  0  0
  5  4  2  0  0  0  0
  6  5  1  0  0  0  0
  7  8  1  0  0  0  0
  8 18  1  0  0  0  0
  8  9  2  0  0  0  0
  9 19  1  0  0  0  0
 10  9  1  0  0  0  0
 10 11  2  0  0  0  0
 12 10  1  0  0  0  0
 13  7  1  0  0  0  0
 13 12  1  0  0  0  0
 14 13  2  0  0  0  0
 15  1  1  0  0  0  0
 16  2  1  0  0  0  0
 20 21  1  0  0  0  0
 20 27  1  1  0  0  0
 21 12  1  6  0  0  0
 22 24  1  0  0  0  0
 22 21  1  0  0  0  0
 23 22  1  0  0  0  0
 24 25  1  0  0  0  0
 25 26  1  0  0  0  0
 25 20  1  0  0  0  0
 27 28  1  0  0  0  0
M  END
>  <minimizedAffinity>
-4.67094803

$$$$
