
 OpenBabel03272507513D

 32 34  0  0  1  0  0  0  0  0999 V2000
   36.5930   31.3330   48.7850 N   0  0  0  0  0  0  0  0  0  0  0  0
   36.6550   32.2550   49.7450 C   0  0  0  0  0  0  0  0  0  0  0  0
   37.7200   33.1640   49.7400 C   0  0  0  0  0  0  0  0  0  0  0  0
   38.6140   33.0080   48.7230 C   0  0  0  0  0  0  0  0  0  0  0  0
   39.5570   33.8590   48.7740 O   0  0  0  0  0  0  0  0  0  0  0  0
   38.5900   32.0990   47.7420 N   0  0  0  0  0  0  0  0  0  0  0  0
   37.5370   31.2440   47.7960 C   0  0  0  0  0  0  0  0  0  0  0  0
   37.4880   30.3700   46.8780 O   0  0  0  0  0  0  0  0  0  0  0  0
   35.8960   32.2870   50.4970 H   0  0  0  0  0  0  0  0  0  0  0  0
   37.7690   33.9020   50.5080 H   0  0  0  0  0  0  0  0  0  0  0  0
   35.3230   29.5610   49.8640 C   0  0  0  0  0  0  0  0  0  0  0  0
   35.5450   30.3560   48.7180 C   0  0  0  0  0  0  0  0  0  0  0  0
   34.7400   30.1480   47.5910 C   0  0  0  0  0  0  0  0  0  0  0  0
   33.7850   29.1920   47.6580 N   0  0  0  0  0  0  0  0  0  0  0  0
   33.5800   28.4480   48.7330 C   0  0  0  0  0  0  0  0  0  0  0  0
   34.3410   28.6310   49.8250 N   0  0  0  0  0  0  0  0  0  0  0  0
   34.9280   30.7690   46.7260 H   0  0  0  0  0  0  0  0  0  0  0  0
   32.8230   27.6760   48.8100 H   0  0  0  0  0  0  0  0  0  0  0  0
   37.3680   29.2240   51.4470 C   0  0  0  0  0  0  0  0  0  0  0  0
   38.1010   28.5870   50.6580 O   0  0  0  0  0  0  0  0  0  0  0  0
   36.0650   29.6910   51.0570 N   0  0  0  0  0  0  0  0  0  0  0  0
   37.7760   29.3960   52.4300 H   0  0  0  0  0  0  0  0  0  0  0  0
   35.6200   30.2340   51.8560 H   0  0  0  0  0  0  0  0  0  0  0  0
   39.1130   31.3010   45.4610 C   0  0  1  0  0  3  0  0  0  0  0  0
   39.5840   32.0170   46.7120 C   0  0  1  0  0  3  0  0  0  0  0  0
   39.9960   33.3390   46.1530 C   0  0  0  0  0  3  0  0  0  0  0  0
   40.8190   33.8270   46.7400 H   0  0  0  0  0  0  0  0  0  0  0  0
   40.6420   32.9640   44.9520 O   0  0  0  0  0  0  0  0  0  0  0  0
   39.7020   32.1420   44.3230 C   0  0  0  0  0  3  0  0  0  0  0  0
   38.9100   32.7450   43.8050 H   0  0  0  0  0  0  0  0  0  0  0  0
   39.7130   30.0440   45.3890 O   0  0  0  0  0  0  0  0  0  0  0  0
   40.5430   30.0260   45.9260 H   0  0  0  0  0  0  0  0  0  0  0  0
  1  2  1  0  0  0  0
  2  9  1  0  0  0  0
  3  2  2  0  0  0  0
  3 10  1  0  0  0  0
  4  5  2  0  0  0  0
  4  3  1  0  0  0  0
  6  7  1  0  0  0  0
  6  4  1  0  0  0  0
  7  1  1  0  0  0  0
  8  7  2  0  0  0  0
 11 21  1  0  0  0  0
 12  1  1  0  0  0  0
 12 11  2  0  0  0  0
 13 14  2  0  0  0  0
 13 12  1  0  0  0  0
 14 15  1  0  0  0  0
 15 18  1  0  0  0  0
 15 16  2  0  0  0  0
 16 11  1  0  0  0  0
 17 13  1  0  0  0  0
 19 22  1  0  0  0  0
 20 19  2  0  0  0  0
 21 19  1  0  0  0  0
 21 23  1  0  0  0  0
 24 31  1  1  0  0  0
 24 25  1  0  0  0  0
 25  6  1  1  0  0  0
 26 25  1  0  0  0  0
 26 27  1  0  0  0  0
 28 26  1  0  0  0  0
 29 28  1  0  0  0  0
 29 24  1  0  0  0  0
 30 29  1  0  0  0  0
 31 32  1  0  0  0  0
M  END
>  <minimizedAffinity>
-6.21210575

>  <minimizedRMSD>
0.789402962

$$$$
