
 OpenBabel03262521453D

 30 31  0  0  1  0  0  0  0  0999 V2000
   36.9650   29.2710   50.7370 C   0  0  0  0  0  0  0  0  0  0  0  0
   36.8150   29.0790   49.6400 H   0  0  0  0  0  0  0  0  0  0  0  0
   37.4480   28.4020   51.2410 H   0  0  0  0  0  0  0  0  0  0  0  0
   37.7360   30.5460   50.8770 C   0  0  0  0  0  0  0  0  0  0  0  0
   38.6890   30.2970   51.4190 H   0  0  0  0  0  0  0  0  0  0  0  0
   37.2200   31.2560   51.5580 H   0  0  0  0  0  0  0  0  0  0  0  0
   38.0940   31.1790   49.6230 C   0  0  0  0  0  0  0  0  0  0  0  0
   38.5490   32.4970   49.5540 C   0  0  0  0  0  0  0  0  0  0  0  0
   38.8710   33.0210   48.2850 C   0  0  0  0  0  0  0  0  0  0  0  0
   38.7200   32.2070   47.1960 N   0  0  0  0  0  0  0  0  0  0  0  0
   38.2730   30.9280   47.3050 C   0  0  0  0  0  0  0  0  0  0  0  0
   37.9630   30.4220   48.5280 N   0  0  0  0  0  0  0  0  0  0  0  0
   38.6470   33.0840   50.4450 H   0  0  0  0  0  0  0  0  0  0  0  0
   39.2230   34.0300   48.2090 H   0  0  0  0  0  0  0  0  0  0  0  0
   38.1760   30.3340   46.4010 H   0  0  0  0  0  0  0  0  0  0  0  0
   35.6970   29.4540   51.2920 O   0  0  0  0  0  0  0  0  0  0  0  0
   34.6880   30.5200   49.1280 O   0  0  0  0  0  0  0  0  0  0  0  0
   34.4860   29.3630   50.1000 P   0  0  2  0  0  0  0  0  0  0  0  0
   32.9620   29.5750   50.7710 O   0  0  0  0  0  0  0  0  0  0  0  0
   32.8130   28.9890   51.5530 H   0  0  0  0  0  0  0  0  0  0  0  0
   34.5340   27.8850   49.3170 O   0  0  0  0  0  0  0  0  0  0  0  0
   32.3600   27.9450   48.2410 C   0  0  1  0  0  0  0  0  0  0  0  0
   33.8730   27.9810   48.1140 C   0  0  1  0  0  0  0  0  0  0  0  0
   34.0040   29.3820   47.5030 C   0  0  0  0  0  0  0  0  0  0  0  0
   33.9290   30.1750   48.2710 H   0  0  0  0  0  0  0  0  0  0  0  0
   32.9510   29.5310   46.6390 O   0  0  0  0  0  0  0  0  0  0  0  0
   32.0150   28.5670   46.8890 C   0  0  0  0  0  0  0  0  0  0  0  0
   32.1720   27.7530   46.1300 H   0  0  0  0  0  0  0  0  0  0  0  0
   31.8400   26.6900   48.4170 O   0  0  0  0  0  0  0  0  0  0  0  0
   31.4960   26.2870   47.5900 H   0  0  0  0  0  0  0  0  0  0  0  0
  1  4  1  0  0  0  0
  1  3  1  0  0  0  0
  1 16  1  0  0  0  0
  2  1  1  0  0  0  0
  4  5  1  0  0  0  0
  4  6  1  0  0  0  0
  7  4  1  0  0  0  0
  8  7  1  0  0  0  0
  8 13  1  0  0  0  0
  9  8  2  0  0  0  0
 10 11  2  0  0  0  0
 10  9  1  0  0  0  0
 11 12  1  0  0  0  0
 12  7  2  0  0  0  0
 14  9  1  0  0  0  0
 15 11  1  0  0  0  0
 18 17  2  6  0  0  0
 18 19  1  0  0  0  0
 18 16  1  0  0  0  0
 19 20  1  0  0  0  0
 21 18  1  0  0  0  0
 22 29  1  6  0  0  0
 23 22  1  0  0  0  0
 23 21  1  1  0  0  0
 24 23  1  0  0  0  0
 24 25  1  0  0  0  0
 26 27  1  0  0  0  0
 26 24  1  0  0  0  0
 27 22  1  0  0  0  0
 28 27  1  0  0  0  0
 30 29  1  0  0  0  0
M  END
>  <minimizedAffinity>
-5.22947168

>  <minimizedRMSD>
0.758688331

$$$$
