
 OpenBabel03272504403D

 45 47  0  0  1  0  0  0  0  0999 V2000
   34.7730   29.3760   48.8110 C   0  0  0  0  0  0  0  0  0  0  0  0
   35.6800   29.4010   49.4840 H   0  0  0  0  0  0  0  0  0  0  0  0
   34.1370   30.2020   49.2470 H   0  0  0  0  0  0  0  0  0  0  0  0
   37.5370   30.4270   48.5320 Cl  0  0  0  0  0  0  0  0  0  0  0  0
   36.3940   30.2900   47.2030 C   0  0  0  0  0  0  0  0  0  0  0  0
   36.7760   30.6890   45.9590 C   0  0  0  0  0  0  0  0  0  0  0  0
   35.8940   30.5890   44.9060 C   0  0  0  0  0  0  0  0  0  0  0  0
   34.6250   30.0810   45.1450 C   0  0  0  0  0  0  0  0  0  0  0  0
   34.3000   29.6890   46.4530 C   0  0  0  0  0  0  0  0  0  0  0  0
   35.1520   29.7810   47.4900 C   0  0  0  0  0  0  0  0  0  0  0  0
   36.2180   30.9160   43.9100 H   0  0  0  0  0  0  0  0  0  0  0  0
   34.0000   30.0380   44.2690 H   0  0  0  0  0  0  0  0  0  0  0  0
   33.3360   29.3410   46.4520 H   0  0  0  0  0  0  0  0  0  0  0  0
   39.7800   32.8320   46.0350 C   0  0  0  0  0  0  0  0  0  0  0  0
   40.6440   32.0970   45.1470 C   0  0  0  0  0  0  0  0  0  0  0  0
   40.1550   30.9110   44.5690 C   0  0  0  0  0  0  0  0  0  0  0  0
   38.8960   30.5100   44.8740 N   0  0  0  0  0  0  0  0  0  0  0  0
   38.1050   31.2210   45.7130 C   0  0  0  0  0  0  0  0  0  0  0  0
   38.5500   32.3570   46.2750 N   0  0  0  0  0  0  0  0  0  0  0  0
   40.1590   33.7350   46.4710 H   0  0  0  0  0  0  0  0  0  0  0  0
   41.6170   32.5260   44.9920 H   0  0  0  0  0  0  0  0  0  0  0  0
   41.0290   30.2320   43.7140 N   0  0  0  0  0  0  0  0  0  0  0  0
   41.9720   29.8430   43.8330 H   0  0  0  0  0  0  0  0  0  0  0  0
   40.8060   30.0040   42.7030 H   0  0  0  0  0  0  0  0  0  0  0  0
   34.1130   28.0930   49.0260 C   0  0  0  0  0  0  0  0  0  0  0  0
   34.2610   27.4550   48.1080 H   0  0  0  0  0  0  0  0  0  0  0  0
   34.5360   27.4930   49.8590 H   0  0  0  0  0  0  0  0  0  0  0  0
   32.7690   28.2600   49.2750 O   0  0  0  0  0  0  0  0  0  0  0  0
   32.7380   26.3270   47.5060 O   0  0  0  0  0  0  0  0  0  0  0  0
   31.8520   27.3210   48.2420 P   0  0  2  0  0  0  0  0  0  0  0  0
   31.1060   28.3930   47.1360 O   0  0  0  0  0  0  0  0  0  0  0  0
   31.1860   27.7750   44.7570 C   0  0  2  0  0  3  0  0  0  0  0  0
   30.4940   27.8490   46.0780 C   0  0  1  0  0  3  0  0  0  0  0  0
   30.1630   26.3630   46.2750 C   0  0  0  0  0  3  0  0  0  0  0  0
   29.1550   26.2230   46.7170 H   0  0  0  0  0  0  0  0  0  0  0  0
   30.1860   25.7690   45.0400 O   0  0  0  0  0  0  0  0  0  0  0  0
   30.3210   26.7130   44.0570 C   0  0  0  0  0  3  0  0  0  0  0  0
   30.8850   26.2830   43.1970 H   0  0  0  0  0  0  0  0  0  0  0  0
   32.4630   27.2920   44.7670 O   0  0  0  0  0  0  0  0  0  0  0  0
   32.9880   27.7080   44.0370 H   0  0  0  0  0  0  0  0  0  0  0  0
   30.6540   26.5020   49.0390 O   0  0  0  0  0  0  0  0  0  0  0  0
   29.8720   27.3710   49.7780 C   0  0  0  0  0  0  0  0  0  0  0  0
   29.2920   26.7370   50.8790 F   0  0  0  0  0  0  0  0  0  0  0  0
   30.6230   28.4170   50.2810 F   0  0  0  0  0  0  0  0  0  0  0  0
   28.8630   27.8820   49.0070 F   0  0  0  0  0  0  0  0  0  0  0  0
  1 25  1  0  0  0  0
  1  3  1  0  0  0  0
  1  2  1  0  0  0  0
  5 10  1  0  0  0  0
  5  4  1  0  0  0  0
  6  5  2  0  0  0  0
  7  8  2  0  0  0  0
  7  6  1  0  0  0  0
  8  9  1  0  0  0  0
  9 10  2  0  0  0  0
 10  1  1  0  0  0  0
 11  7  1  0  0  0  0
 12  8  1  0  0  0  0
 13  9  1  0  0  0  0
 14 19  1  0  0  0  0
 14 20  1  0  0  0  0
 15 14  2  0  0  0  0
 16 17  2  0  0  0  0
 16 15  1  0  0  0  0
 17 18  1  0  0  0  0
 18  6  1  0  0  0  0
 18 19  2  0  0  0  0
 21 15  1  0  0  0  0
 22 23  1  0  0  0  0
 22 16  1  0  0  0  0
 24 22  1  0  0  0  0
 25 28  1  0  0  0  0
 25 27  1  0  0  0  0
 26 25  1  0  0  0  0
 30 29  2  6  0  0  0
 30 41  1  0  0  0  0
 30 28  1  0  0  0  0
 31 30  1  0  0  0  0
 32 39  1  1  0  0  0
 32 33  1  0  0  0  0
 33 34  1  0  0  0  0
 33 31  1  1  0  0  0
 34 35  1  0  0  0  0
 36 34  1  0  0  0  0
 37 32  1  0  0  0  0
 37 36  1  0  0  0  0
 38 37  1  0  0  0  0
 40 39  1  0  0  0  0
 41 42  1  0  0  0  0
 42 44  1  0  0  0  0
 42 43  1  0  0  0  0
 45 42  1  0  0  0  0
M  END
>  <minimizedAffinity>
-5.67397499

>  <minimizedRMSD>
0.324729025

$$$$
