
     RDKit          3D

 32 34  0  0  0  0  0  0  0  0999 V2000
   37.4761   30.2515   51.3334 C   0  0  0  0  0  0  0  0  0  0  0  0
   38.1729   30.9782   50.3226 C   0  0  0  0  0  0  0  0  0  0  0  0
   37.8407   30.7225   48.9972 C   0  0  0  0  0  0  0  0  0  0  0  0
   36.8729   29.7967   48.7095 N   0  0  0  0  0  0  0  0  0  0  0  0
   36.2251   29.1180   49.6973 C   0  0  0  0  0  0  0  0  0  0  0  0
   36.5249   29.3447   50.9935 N   0  0  0  0  0  0  0  0  0  0  0  0
   38.4683   31.4039   47.9316 N   0  0  0  0  0  0  0  0  0  0  0  0
   38.6961   30.8254   46.7387 C   0  0  0  0  0  0  0  0  0  0  0  0
   39.3040   31.5362   45.6925 C   0  0  0  0  0  0  0  0  0  0  0  0
   39.6691   32.8528   45.9066 C   0  0  0  0  0  0  0  0  0  0  0  0
   40.2067   33.5033   45.0006 O   0  0  0  0  0  0  0  0  0  0  0  0
   39.4269   33.3941   47.1059 N   0  0  0  0  0  0  0  0  0  0  0  0
   38.8449   32.6676   48.0662 C   0  0  0  0  0  0  0  0  0  0  0  0
   38.6493   33.2403   49.1713 O   0  0  0  0  0  0  0  0  0  0  0  0
   37.6815   30.3991   52.3773 H   0  0  0  0  0  0  0  0  0  0  0  0
   38.9141   31.6600   50.6965 H   0  0  0  0  0  0  0  0  0  0  0  0
   35.4883   28.4207   49.3233 H   0  0  0  0  0  0  0  0  0  0  0  0
   38.4106   29.7991   46.5742 H   0  0  0  0  0  0  0  0  0  0  0  0
   39.4725   31.0395   44.7453 H   0  0  0  0  0  0  0  0  0  0  0  0
   37.9723   36.1334   47.9820 O   0  0  0  0  0  0  0  0  0  0  0  0
   39.1205   35.4735   48.4174 C   0  0  1  0  0  0  0  0  0  0  0  0
   39.8129   34.7415   47.2907 C   0  0  1  0  0  0  0  0  0  0  0  0
   41.2292   35.0741   47.5462 C   0  0  1  0  0  0  0  0  0  0  0  0
   41.6209   34.8261   48.5562 H   0  0  0  0  0  0  0  0  0  0  0  0
   41.0885   36.4881   47.6510 O   0  0  0  0  0  0  0  0  0  0  0  0
   40.2181   36.4911   48.7678 C   0  0  1  0  0  0  0  0  0  0  0  0
   39.7537   37.4760   48.9210 H   0  0  0  0  0  0  0  0  0  0  0  0
   37.1870   35.8407   48.5308 H   0  0  0  0  0  0  0  0  0  0  0  0
   38.9379   34.7929   49.2569 H   0  0  0  0  0  0  0  0  0  0  0  0
   39.5207   35.3099   46.3602 H   0  0  0  0  0  0  0  0  0  0  0  0
   41.9309   34.8906   46.7213 H   0  0  0  0  0  0  0  0  0  0  0  0
   40.7796   36.0934   49.6280 H   0  0  0  0  0  0  0  0  0  0  0  0
  2  1  2  0
  3  2  1  0
  4  3  2  0
  4  5  1  0
  5  6  2  0
  6  1  1  0
  7 13  1  0
  7  3  1  0
  8  7  1  0
  9 10  1  0
  9  8  2  0
 10 12  1  0
 11 10  2  0
 12 13  1  0
 13 14  2  0
  1 15  1  0
  2 16  1  0
  5 17  1  0
  8 18  1  0
  9 19  1  0
 20 21  1  0
 21 22  1  0
 22 23  1  0
 23 24  1  1
 23 25  1  0
 25 26  1  0
 26 27  1  1
 26 21  1  0
 20 28  1  0
 21 29  1  1
 22 30  1  6
 23 31  1  0
 26 32  1  0
 12 22  1  0
M  ISO  7  15  14  16  14  17  14  18  14  19  14  24  15  27  16
M  END
>  <DihAtoms>  (1) 
9,11,21,20

>  <DihDeg>  (1) 
69.12230370365072

$$$$
