
 OpenBabel03272504403D

 45 47  0  0  1  0  0  0  0  0999 V2000
   34.7560   29.3670   48.7900 C   0  0  0  0  0  0  0  0  0  0  0  0
   35.6610   29.3920   49.4660 H   0  0  0  0  0  0  0  0  0  0  0  0
   34.1210   30.1960   49.2210 H   0  0  0  0  0  0  0  0  0  0  0  0
   37.5170   30.4310   48.5230 Cl  0  0  0  0  0  0  0  0  0  0  0  0
   36.3830   30.2810   47.1880 C   0  0  0  0  0  0  0  0  0  0  0  0
   36.7710   30.6750   45.9440 C   0  0  0  0  0  0  0  0  0  0  0  0
   35.8960   30.5660   44.8860 C   0  0  0  0  0  0  0  0  0  0  0  0
   34.6280   30.0530   45.1190 C   0  0  0  0  0  0  0  0  0  0  0  0
   34.2970   29.6660   46.4270 C   0  0  0  0  0  0  0  0  0  0  0  0
   35.1420   29.7670   47.4690 C   0  0  0  0  0  0  0  0  0  0  0  0
   36.2250   30.8900   43.8910 H   0  0  0  0  0  0  0  0  0  0  0  0
   34.0090   30.0020   44.2390 H   0  0  0  0  0  0  0  0  0  0  0  0
   33.3350   29.3130   46.4210 H   0  0  0  0  0  0  0  0  0  0  0  0
   39.7660   32.8300   46.0350 C   0  0  0  0  0  0  0  0  0  0  0  0
   40.6370   32.1000   45.1500 C   0  0  0  0  0  0  0  0  0  0  0  0
   40.1550   30.9120   44.5680 C   0  0  0  0  0  0  0  0  0  0  0  0
   38.8960   30.5070   44.8680 N   0  0  0  0  0  0  0  0  0  0  0  0
   38.0990   31.2130   45.7040 C   0  0  0  0  0  0  0  0  0  0  0  0
   38.5370   32.3510   46.2700 N   0  0  0  0  0  0  0  0  0  0  0  0
   40.1400   33.7340   46.4740 H   0  0  0  0  0  0  0  0  0  0  0  0
   41.6090   32.5330   44.9990 H   0  0  0  0  0  0  0  0  0  0  0  0
   41.0350   30.2380   43.7160 N   0  0  0  0  0  0  0  0  0  0  0  0
   41.9790   29.8520   43.8390 H   0  0  0  0  0  0  0  0  0  0  0  0
   40.8170   30.0100   42.7040 H   0  0  0  0  0  0  0  0  0  0  0  0
   34.0920   28.0860   49.0060 C   0  0  0  0  0  0  0  0  0  0  0  0
   34.1950   27.4660   48.0690 H   0  0  0  0  0  0  0  0  0  0  0  0
   34.5430   27.4640   49.8070 H   0  0  0  0  0  0  0  0  0  0  0  0
   32.7620   28.2610   49.3150 O   0  0  0  0  0  0  0  0  0  0  0  0
   32.6280   26.5450   47.3390 O   0  0  0  0  0  0  0  0  0  0  0  0
   31.7870   27.4490   48.2270 P   0  0  2  0  0  0  0  0  0  0  0  0
   30.9970   28.6440   47.2910 O   0  0  0  0  0  0  0  0  0  0  0  0
   28.9610   28.6140   45.9110 C   0  0  2  0  0  3  0  0  0  0  0  0
   30.3820   28.2350   46.1750 C   0  0  1  0  0  3  0  0  0  0  0  0
   31.0310   28.7830   44.8970 C   0  0  0  0  0  3  0  0  0  0  0  0
   31.8160   28.0980   44.5110 H   0  0  0  0  0  0  0  0  0  0  0  0
   30.0450   28.8950   43.9500 O   0  0  0  0  0  0  0  0  0  0  0  0
   28.8820   28.3330   44.4000 C   0  0  0  0  0  3  0  0  0  0  0  0
   28.0100   28.8760   43.9680 H   0  0  0  0  0  0  0  0  0  0  0  0
   28.6410   29.9310   46.0800 O   0  0  0  0  0  0  0  0  0  0  0  0
   27.6990   30.0170   46.3680 H   0  0  0  0  0  0  0  0  0  0  0  0
   30.6230   26.5470   48.9830 O   0  0  0  0  0  0  0  0  0  0  0  0
   29.8240   27.3450   49.7810 C   0  0  0  0  0  0  0  0  0  0  0  0
   29.3340   26.6440   50.8860 F   0  0  0  0  0  0  0  0  0  0  0  0
   30.5320   28.4200   50.2840 F   0  0  0  0  0  0  0  0  0  0  0  0
   28.7520   27.8130   49.0710 F   0  0  0  0  0  0  0  0  0  0  0  0
  1 25  1  0  0  0  0
  1  3  1  0  0  0  0
  1  2  1  0  0  0  0
  5 10  1  0  0  0  0
  5  4  1  0  0  0  0
  6  5  2  0  0  0  0
  7  8  2  0  0  0  0
  7  6  1  0  0  0  0
  8  9  1  0  0  0  0
  9 10  2  0  0  0  0
 10  1  1  0  0  0  0
 11  7  1  0  0  0  0
 12  8  1  0  0  0  0
 13  9  1  0  0  0  0
 14 19  1  0  0  0  0
 14 20  1  0  0  0  0
 15 14  2  0  0  0  0
 16 17  2  0  0  0  0
 16 15  1  0  0  0  0
 17 18  1  0  0  0  0
 18  6  1  0  0  0  0
 18 19  2  0  0  0  0
 21 15  1  0  0  0  0
 22 23  1  0  0  0  0
 22 16  1  0  0  0  0
 24 22  1  0  0  0  0
 25 28  1  0  0  0  0
 25 27  1  0  0  0  0
 26 25  1  0  0  0  0
 30 29  2  6  0  0  0
 30 41  1  0  0  0  0
 30 28  1  0  0  0  0
 31 30  1  0  0  0  0
 32 39  1  6  0  0  0
 32 33  1  0  0  0  0
 33 31  1  1  0  0  0
 34 33  1  0  0  0  0
 35 34  1  0  0  0  0
 36 37  1  0  0  0  0
 36 34  1  0  0  0  0
 37 32  1  0  0  0  0
 38 37  1  0  0  0  0
 39 40  1  0  0  0  0
 41 42  1  0  0  0  0
 42 44  1  0  0  0  0
 42 43  1  0  0  0  0
 45 42  1  0  0  0  0
M  END
>  <minimizedAffinity>
-5.75821781

>  <minimizedRMSD>
0.430635065

$$$$
