
 OpenBabel03272507513D

 32 34  0  0  1  0  0  0  0  0999 V2000
   37.1600   31.5700   48.4500 N   0  0  0  0  0  0  0  0  0  0  0  0
   37.3070   32.4660   49.4260 C   0  0  0  0  0  0  0  0  0  0  0  0
   38.3450   33.4010   49.3340 C   0  0  0  0  0  0  0  0  0  0  0  0
   39.1250   33.2960   48.2220 C   0  0  0  0  0  0  0  0  0  0  0  0
   40.0490   34.1680   48.1960 O   0  0  0  0  0  0  0  0  0  0  0  0
   39.0130   32.4150   47.2210 N   0  0  0  0  0  0  0  0  0  0  0  0
   37.9910   31.5340   47.3620 C   0  0  0  0  0  0  0  0  0  0  0  0
   37.8610   30.6860   46.4270 O   0  0  0  0  0  0  0  0  0  0  0  0
   36.6330   32.4570   50.2570 H   0  0  0  0  0  0  0  0  0  0  0  0
   38.4610   34.1170   50.1150 H   0  0  0  0  0  0  0  0  0  0  0  0
   35.8610   29.9360   49.6990 C   0  0  0  0  0  0  0  0  0  0  0  0
   36.1320   30.5700   48.4670 C   0  0  0  0  0  0  0  0  0  0  0  0
   35.3920   30.1910   47.3410 C   0  0  0  0  0  0  0  0  0  0  0  0
   34.4490   29.2310   47.4910 N   0  0  0  0  0  0  0  0  0  0  0  0
   34.1980   28.6380   48.6480 C   0  0  0  0  0  0  0  0  0  0  0  0
   34.8970   28.9890   49.7410 N   0  0  0  0  0  0  0  0  0  0  0  0
   35.6150   30.6900   46.4080 H   0  0  0  0  0  0  0  0  0  0  0  0
   33.4500   27.8680   48.7930 H   0  0  0  0  0  0  0  0  0  0  0  0
   37.5130   29.5350   51.6770 C   0  0  0  0  0  0  0  0  0  0  0  0
   37.9550   28.4210   51.3160 O   0  0  0  0  0  0  0  0  0  0  0  0
   36.5360   30.2480   50.8990 N   0  0  0  0  0  0  0  0  0  0  0  0
   37.9110   29.9190   52.6020 H   0  0  0  0  0  0  0  0  0  0  0  0
   36.3170   31.1810   51.3590 H   0  0  0  0  0  0  0  0  0  0  0  0
   40.2450   30.9900   45.6190 C   0  0  1  0  0  0  0  0  0  0  0  0
   39.8900   32.3880   46.0860 C   0  0  1  0  0  0  0  0  0  0  0  0
   39.3000   32.9690   44.8440 C   0  0  0  0  0  0  0  0  0  0  0  0
   39.4390   34.0820   44.7700 H   0  0  0  0  0  0  0  0  0  0  0  0
   40.1720   32.4750   43.8440 O   0  0  0  0  0  0  0  0  0  0  0  0
   40.1980   31.1000   44.0920 C   0  0  0  0  0  0  0  0  0  0  0  0
   39.2920   30.5890   43.6700 H   0  0  0  0  0  0  0  0  0  0  0  0
   41.5650   30.7040   45.9640 O   0  0  0  0  0  0  0  0  0  0  0  0
   42.0770   31.5400   46.1000 H   0  0  0  0  0  0  0  0  0  0  0  0
  1 12  1  0  0  0  0
  1  2  1  0  0  0  0
  2  9  1  0  0  0  0
  3  2  2  0  0  0  0
  3 10  1  0  0  0  0
  4  3  1  0  0  0  0
  5  4  2  0  0  0  0
  6  7  1  0  0  0  0
  6  4  1  0  0  0  0
  7  1  1  0  0  0  0
  8  7  2  0  0  0  0
 11 16  1  0  0  0  0
 11 21  1  0  0  0  0
 12 11  2  0  0  0  0
 13 14  2  0  0  0  0
 13 12  1  0  0  0  0
 14 15  1  0  0  0  0
 15 18  1  0  0  0  0
 15 16  2  0  0  0  0
 17 13  1  0  0  0  0
 19 22  1  0  0  0  0
 20 19  2  0  0  0  0
 21 23  1  0  0  0  0
 21 19  1  0  0  0  0
 24 31  1  6  0  0  0
 24 25  1  0  0  0  0
 25  6  1  1  0  0  0
 26 25  1  0  0  0  0
 27 26  1  0  0  0  0
 28 29  1  0  0  0  0
 28 26  1  0  0  0  0
 29 24  1  0  0  0  0
 30 29  1  0  0  0  0
 31 32  1  0  0  0  0
M  END
>  <minimizedAffinity>
-6.78624105

>  <minimizedRMSD>
1.15970266

$$$$
