
 OpenBabel03262521483D

 30 31  0  0  1  0  0  0  0  0999 V2000
   38.1570   25.4260   35.7730 C   0  0  0  0  0  0  0  0  0  0  0  0
   37.2470   25.0190   35.2550 H   0  0  0  0  0  0  0  0  0  0  0  0
   39.0950   25.0200   35.3300 H   0  0  0  0  0  0  0  0  0  0  0  0
   38.0760   26.9200   35.7330 C   0  0  0  0  0  0  0  0  0  0  0  0
   39.1210   27.3100   35.8770 H   0  0  0  0  0  0  0  0  0  0  0  0
   37.5200   27.3170   36.6090 H   0  0  0  0  0  0  0  0  0  0  0  0
   37.5690   27.4670   34.4900 C   0  0  0  0  0  0  0  0  0  0  0  0
   36.4160   28.2520   34.4350 C   0  0  0  0  0  0  0  0  0  0  0  0
   36.0040   28.7350   33.1760 C   0  0  0  0  0  0  0  0  0  0  0  0
   36.7580   28.4090   32.0830 N   0  0  0  0  0  0  0  0  0  0  0  0
   37.8760   27.6410   32.1790 C   0  0  0  0  0  0  0  0  0  0  0  0
   38.2740   27.1740   33.3920 N   0  0  0  0  0  0  0  0  0  0  0  0
   35.8670   28.4730   35.3290 H   0  0  0  0  0  0  0  0  0  0  0  0
   35.1220   29.3400   33.1110 H   0  0  0  0  0  0  0  0  0  0  0  0
   38.4320   27.4180   31.2720 H   0  0  0  0  0  0  0  0  0  0  0  0
   38.0830   25.0110   37.1050 O   0  0  0  0  0  0  0  0  0  0  0  0
   36.8880   22.6860   37.1120 O   0  0  0  0  0  0  0  0  0  0  0  0
   38.2660   23.3250   37.2340 P   0  0  2  0  0  0  0  0  0  0  0  0
   38.8480   22.8960   38.7500 O   0  0  0  0  0  0  0  0  0  0  0  0
   39.6500   23.4170   39.0030 H   0  0  0  0  0  0  0  0  0  0  0  0
   39.3170   22.7510   36.0660 O   0  0  0  0  0  0  0  0  0  0  0  0
   41.3950   21.7030   36.7530 C   0  0  1  0  0  3  0  0  0  0  0  0
   40.6140   22.9740   36.4650 C   0  0  1  0  0  3  0  0  0  0  0  0
   41.4810   23.5030   35.3160 C   0  0  0  0  0  3  0  0  0  0  0  0
   41.2480   23.0000   34.3590 H   0  0  0  0  0  0  0  0  0  0  0  0
   42.7810   23.2110   35.6400 O   0  0  0  0  0  0  0  0  0  0  0  0
   42.8040   22.2860   36.6460 C   0  0  0  0  0  3  0  0  0  0  0  0
   42.9750   22.8480   37.6040 H   0  0  0  0  0  0  0  0  0  0  0  0
   41.1250   21.1410   37.9720 O   0  0  0  0  0  0  0  0  0  0  0  0
   41.7860   21.3640   38.6640 H   0  0  0  0  0  0  0  0  0  0  0  0
  1 16  1  0  0  0  0
  2  1  1  0  0  0  0
  3  1  1  0  0  0  0
  4  1  1  0  0  0  0
  4  5  1  0  0  0  0
  4  6  1  0  0  0  0
  7  4  1  0  0  0  0
  8  7  1  0  0  0  0
  8 13  1  0  0  0  0
  9  8  2  0  0  0  0
 10 11  2  0  0  0  0
 10  9  1  0  0  0  0
 11 12  1  0  0  0  0
 12  7  2  0  0  0  0
 14  9  1  0  0  0  0
 15 11  1  0  0  0  0
 16 18  1  0  0  0  0
 18 17  2  6  0  0  0
 18 19  1  0  0  0  0
 19 20  1  0  0  0  0
 21 18  1  0  0  0  0
 22 29  1  1  0  0  0
 23 21  1  6  0  0  0
 23 22  1  0  0  0  0
 24 26  1  0  0  0  0
 24 23  1  0  0  0  0
 25 24  1  0  0  0  0
 26 27  1  0  0  0  0
 27 22  1  0  0  0  0
 27 28  1  0  0  0  0
 29 30  1  0  0  0  0
M  END
>  <minimizedAffinity>
-4.81851006

$$$$

 OpenBabel03262521483D

 30 31  0  0  1  0  0  0  0  0999 V2000
   37.9760   25.5560   35.9510 C   0  0  0  0  0  0  0  0  0  0  0  0
   36.9050   25.8730   35.8320 H   0  0  0  0  0  0  0  0  0  0  0  0
   38.2400   24.7360   35.2450 H   0  0  0  0  0  0  0  0  0  0  0  0
   38.8340   26.7730   35.8000 C   0  0  0  0  0  0  0  0  0  0  0  0
   39.6830   26.6710   36.5300 H   0  0  0  0  0  0  0  0  0  0  0  0
   38.3000   27.6870   36.1380 H   0  0  0  0  0  0  0  0  0  0  0  0
   39.4060   26.9510   34.4800 C   0  0  0  0  0  0  0  0  0  0  0  0
   40.7810   27.0800   34.2720 C   0  0  0  0  0  0  0  0  0  0  0  0
   41.2370   27.2510   32.9490 C   0  0  0  0  0  0  0  0  0  0  0  0
   40.3080   27.2790   31.9460 N   0  0  0  0  0  0  0  0  0  0  0  0
   38.9770   27.1500   32.1890 C   0  0  0  0  0  0  0  0  0  0  0  0
   38.5360   26.9850   33.4650 N   0  0  0  0  0  0  0  0  0  0  0  0
   41.4590   27.0490   35.1010 H   0  0  0  0  0  0  0  0  0  0  0  0
   42.2890   27.3510   32.7670 H   0  0  0  0  0  0  0  0  0  0  0  0
   38.2900   27.1800   31.3480 H   0  0  0  0  0  0  0  0  0  0  0  0
   38.1120   25.0750   37.2550 O   0  0  0  0  0  0  0  0  0  0  0  0
   36.8790   22.7740   37.1170 O   0  0  0  0  0  0  0  0  0  0  0  0
   38.2690   23.3810   37.2720 P   0  0  2  0  0  0  0  0  0  0  0  0
   38.8520   22.8440   38.7520 O   0  0  0  0  0  0  0  0  0  0  0  0
   39.6630   23.3330   39.0340 H   0  0  0  0  0  0  0  0  0  0  0  0
   39.3040   22.8680   36.0610 O   0  0  0  0  0  0  0  0  0  0  0  0
   41.3630   21.7670   36.7190 C   0  0  1  0  0  3  0  0  0  0  0  0
   40.6060   23.0580   36.4600 C   0  0  1  0  0  3  0  0  0  0  0  0
   41.4790   23.5940   35.3180 C   0  0  0  0  0  3  0  0  0  0  0  0
   41.2320   23.1150   34.3520 H   0  0  0  0  0  0  0  0  0  0  0  0
   42.7740   23.2700   35.6300 O   0  0  0  0  0  0  0  0  0  0  0  0
   42.7820   22.3240   36.6170 C   0  0  0  0  0  3  0  0  0  0  0  0
   42.9680   22.8630   37.5860 H   0  0  0  0  0  0  0  0  0  0  0  0
   41.0870   21.1860   37.9280 O   0  0  0  0  0  0  0  0  0  0  0  0
   41.7550   21.3820   38.6210 H   0  0  0  0  0  0  0  0  0  0  0  0
  1 16  1  0  0  0  0
  2  1  1  0  0  0  0
  3  1  1  0  0  0  0
  4  1  1  0  0  0  0
  4  6  1  0  0  0  0
  4  5  1  0  0  0  0
  7  4  1  0  0  0  0
  8  7  1  0  0  0  0
  8 13  1  0  0  0  0
  9  8  2  0  0  0  0
 10 11  2  0  0  0  0
 10  9  1  0  0  0  0
 11 12  1  0  0  0  0
 12  7  2  0  0  0  0
 14  9  1  0  0  0  0
 15 11  1  0  0  0  0
 16 18  1  0  0  0  0
 18 17  2  6  0  0  0
 18 19  1  0  0  0  0
 19 20  1  0  0  0  0
 21 18  1  0  0  0  0
 22 29  1  1  0  0  0
 23 21  1  6  0  0  0
 23 22  1  0  0  0  0
 24 26  1  0  0  0  0
 24 23  1  0  0  0  0
 25 24  1  0  0  0  0
 26 27  1  0  0  0  0
 27 22  1  0  0  0  0
 27 28  1  0  0  0  0
 29 30  1  0  0  0  0
M  END
>  <minimizedAffinity>
-4.74867868

$$$$

 OpenBabel03262521483D

 30 31  0  0  1  0  0  0  0  0999 V2000
   38.4580   27.3870   32.7730 C   0  0  0  0  0  0  0  0  0  0  0  0
   39.0920   28.2770   32.5100 H   0  0  0  0  0  0  0  0  0  0  0  0
   37.4110   27.6870   33.0070 H   0  0  0  0  0  0  0  0  0  0  0  0
   38.5610   26.4040   31.6480 C   0  0  0  0  0  0  0  0  0  0  0  0
   39.5320   25.8530   31.7790 H   0  0  0  0  0  0  0  0  0  0  0  0
   38.6770   26.9200   30.6710 H   0  0  0  0  0  0  0  0  0  0  0  0
   37.4970   25.4200   31.6050 C   0  0  0  0  0  0  0  0  0  0  0  0
   37.6720   24.1110   32.0580 C   0  0  0  0  0  0  0  0  0  0  0  0
   36.5760   23.2290   31.9720 C   0  0  0  0  0  0  0  0  0  0  0  0
   35.4050   23.7060   31.4500 N   0  0  0  0  0  0  0  0  0  0  0  0
   35.2750   24.9890   31.0190 C   0  0  0  0  0  0  0  0  0  0  0  0
   36.3310   25.8400   31.1020 N   0  0  0  0  0  0  0  0  0  0  0  0
   38.6160   23.7970   32.4570 H   0  0  0  0  0  0  0  0  0  0  0  0
   36.6880   22.2200   32.3150 H   0  0  0  0  0  0  0  0  0  0  0  0
   34.3180   25.3060   30.6150 H   0  0  0  0  0  0  0  0  0  0  0  0
   39.0190   26.8150   33.9160 O   0  0  0  0  0  0  0  0  0  0  0  0
   36.7750   27.7850   34.8400 O   0  0  0  0  0  0  0  0  0  0  0  0
   37.9400   26.8830   35.2300 P   0  0  2  0  0  0  0  0  0  0  0  0
   38.6610   27.5990   36.5660 O   0  0  0  0  0  0  0  0  0  0  0  0
   39.5390   27.1970   36.7770 H   0  0  0  0  0  0  0  0  0  0  0  0
   37.4180   25.3500   35.6500 O   0  0  0  0  0  0  0  0  0  0  0  0
   38.0010   24.2090   37.7100 C   0  0  1  0  0  3  0  0  0  0  0  0
   38.4170   24.6960   36.3330 C   0  0  1  0  0  3  0  0  0  0  0  0
   38.7350   23.3320   35.7090 C   0  0  0  0  0  3  0  0  0  0  0  0
   37.8190   22.8070   35.3790 H   0  0  0  0  0  0  0  0  0  0  0  0
   39.3210   22.5790   36.6940 O   0  0  0  0  0  0  0  0  0  0  0  0
   39.0970   23.1620   37.9090 C   0  0  0  0  0  3  0  0  0  0  0  0
   40.0250   23.7390   38.1720 H   0  0  0  0  0  0  0  0  0  0  0  0
   37.9920   25.1830   38.6720 O   0  0  0  0  0  0  0  0  0  0  0  0
   38.7990   25.1910   39.2320 H   0  0  0  0  0  0  0  0  0  0  0  0
  1  3  1  0  0  0  0
  1 16  1  0  0  0  0
  2  1  1  0  0  0  0
  4  5  1  0  0  0  0
  4  1  1  0  0  0  0
  6  4  1  0  0  0  0
  7  4  1  0  0  0  0
  7  8  1  0  0  0  0
  8 13  1  0  0  0  0
  9  8  2  0  0  0  0
  9 14  1  0  0  0  0
 10  9  1  0  0  0  0
 11 12  1  0  0  0  0
 11 10  2  0  0  0  0
 12  7  2  0  0  0  0
 15 11  1  0  0  0  0
 16 18  1  0  0  0  0
 18 17  2  6  0  0  0
 18 21  1  0  0  0  0
 18 19  1  0  0  0  0
 19 20  1  0  0  0  0
 22 27  1  0  0  0  0
 22 29  1  1  0  0  0
 23 21  1  6  0  0  0
 23 22  1  0  0  0  0
 24 23  1  0  0  0  0
 24 26  1  0  0  0  0
 25 24  1  0  0  0  0
 26 27  1  0  0  0  0
 27 28  1  0  0  0  0
 29 30  1  0  0  0  0
M  END
>  <minimizedAffinity>
-4.47872591

$$$$

 OpenBabel03262521483D

 30 31  0  0  1  0  0  0  0  0999 V2000
   38.5920   22.9990   33.4120 C   0  0  0  0  0  0  0  0  0  0  0  0
   37.9890   23.8510   33.8280 H   0  0  0  0  0  0  0  0  0  0  0  0
   39.6000   23.3370   33.0800 H   0  0  0  0  0  0  0  0  0  0  0  0
   38.6350   21.9200   34.4490 C   0  0  0  0  0  0  0  0  0  0  0  0
   39.5230   21.2720   34.2130 H   0  0  0  0  0  0  0  0  0  0  0  0
   37.7690   21.2320   34.3520 H   0  0  0  0  0  0  0  0  0  0  0  0
   38.7860   22.3940   35.8110 C   0  0  0  0  0  0  0  0  0  0  0  0
   37.7570   23.0430   36.4950 C   0  0  0  0  0  0  0  0  0  0  0  0
   38.0040   23.4670   37.8170 C   0  0  0  0  0  0  0  0  0  0  0  0
   39.2370   23.2160   38.3530 N   0  0  0  0  0  0  0  0  0  0  0  0
   40.2140   22.5800   37.6540 C   0  0  0  0  0  0  0  0  0  0  0  0
   39.9770   22.1720   36.3790 N   0  0  0  0  0  0  0  0  0  0  0  0
   36.8110   23.2100   36.0190 H   0  0  0  0  0  0  0  0  0  0  0  0
   37.2280   23.9670   38.3600 H   0  0  0  0  0  0  0  0  0  0  0  0
   41.1730   22.4110   38.1370 H   0  0  0  0  0  0  0  0  0  0  0  0
   37.8990   22.5190   32.2990 O   0  0  0  0  0  0  0  0  0  0  0  0
   35.6430   23.2240   31.1810 O   0  0  0  0  0  0  0  0  0  0  0  0
   37.0230   23.7630   31.5370 P   0  0  2  0  0  0  0  0  0  0  0  0
   37.7430   24.2040   30.0860 O   0  0  0  0  0  0  0  0  0  0  0  0
   38.7090   24.3860   30.1880 H   0  0  0  0  0  0  0  0  0  0  0  0
   36.9230   25.1100   32.5260 O   0  0  0  0  0  0  0  0  0  0  0  0
   35.8320   26.8340   31.2130 C   0  0  1  0  0  3  0  0  0  0  0  0
   37.1150   26.2460   31.7750 C   0  0  1  0  0  3  0  0  0  0  0  0
   37.5360   27.4380   32.6440 C   0  0  0  0  0  3  0  0  0  0  0  0
   36.9850   27.4630   33.6030 H   0  0  0  0  0  0  0  0  0  0  0  0
   37.2090   28.5680   31.9410 O   0  0  0  0  0  0  0  0  0  0  0  0
   36.3470   28.2450   30.9310 C   0  0  0  0  0  3  0  0  0  0  0  0
   36.9590   28.1630   29.9910 H   0  0  0  0  0  0  0  0  0  0  0  0
   35.3580   26.1900   30.1010 O   0  0  0  0  0  0  0  0  0  0  0  0
   35.5950   26.6340   29.2580 H   0  0  0  0  0  0  0  0  0  0  0  0
  1  2  1  0  0  0  0
  1  4  1  0  0  0  0
  3  1  1  0  0  0  0
  4  7  1  0  0  0  0
  5  4  1  0  0  0  0
  6  4  1  0  0  0  0
  7 12  2  0  0  0  0
  7  8  1  0  0  0  0
  8  9  2  0  0  0  0
  9 10  1  0  0  0  0
  9 14  1  0  0  0  0
 11 15  1  0  0  0  0
 11 10  2  0  0  0  0
 12 11  1  0  0  0  0
 13  8  1  0  0  0  0
 16  1  1  0  0  0  0
 18 17  2  6  0  0  0
 18 16  1  0  0  0  0
 18 21  1  0  0  0  0
 19 20  1  0  0  0  0
 19 18  1  0  0  0  0
 22 29  1  6  0  0  0
 22 23  1  0  0  0  0
 23 21  1  1  0  0  0
 23 24  1  0  0  0  0
 24 25  1  0  0  0  0
 26 24  1  0  0  0  0
 27 22  1  0  0  0  0
 27 26  1  0  0  0  0
 28 27  1  0  0  0  0
 30 29  1  0  0  0  0
M  END
>  <minimizedAffinity>
-4.47696161

$$$$

 OpenBabel03262521483D

 30 31  0  0  1  0  0  0  0  0999 V2000
   41.6550   24.2470   35.0550 C   0  0  0  0  0  0  0  0  0  0  0  0
   42.2480   23.9220   35.9520 H   0  0  0  0  0  0  0  0  0  0  0  0
   42.2590   24.1850   34.1210 H   0  0  0  0  0  0  0  0  0  0  0  0
   40.4030   23.4260   35.0120 C   0  0  0  0  0  0  0  0  0  0  0  0
   40.7170   22.3550   34.8760 H   0  0  0  0  0  0  0  0  0  0  0  0
   39.8070   23.6470   34.1010 H   0  0  0  0  0  0  0  0  0  0  0  0
   39.5890   23.4980   36.2100 C   0  0  0  0  0  0  0  0  0  0  0  0
   40.0210   22.9940   37.4380 C   0  0  0  0  0  0  0  0  0  0  0  0
   39.1530   23.1120   38.5430 C   0  0  0  0  0  0  0  0  0  0  0  0
   37.9410   23.7140   38.3480 N   0  0  0  0  0  0  0  0  0  0  0  0
   37.5570   24.1930   37.1350 C   0  0  0  0  0  0  0  0  0  0  0  0
   38.3930   24.0790   36.0690 N   0  0  0  0  0  0  0  0  0  0  0  0
   40.9840   22.5330   37.5260 H   0  0  0  0  0  0  0  0  0  0  0  0
   39.4650   22.7330   39.4960 H   0  0  0  0  0  0  0  0  0  0  0  0
   36.5810   24.6610   37.0470 H   0  0  0  0  0  0  0  0  0  0  0  0
   41.3030   25.5820   35.2650 O   0  0  0  0  0  0  0  0  0  0  0  0
   42.0670   25.6020   32.7650 O   0  0  0  0  0  0  0  0  0  0  0  0
   41.6660   26.5340   33.9020 P   0  0  2  0  0  0  0  0  0  0  0  0
   42.9940   27.5200   34.1910 O   0  0  0  0  0  0  0  0  0  0  0  0
   42.9060   28.0280   35.0340 H   0  0  0  0  0  0  0  0  0  0  0  0
   40.3590   27.4910   33.4820 O   0  0  0  0  0  0  0  0  0  0  0  0
   38.4320   27.5930   34.9530 C   0  0  1  0  0  3  0  0  0  0  0  0
   39.1930   26.8670   33.8570 C   0  0  1  0  0  3  0  0  0  0  0  0
   38.1240   26.9510   32.7610 C   0  0  0  0  0  3  0  0  0  0  0  0
   38.1180   27.9410   32.2670 H   0  0  0  0  0  0  0  0  0  0  0  0
   36.9130   26.7840   33.3820 O   0  0  0  0  0  0  0  0  0  0  0  0
   37.0650   26.9500   34.7300 C   0  0  0  0  0  3  0  0  0  0  0  0
   37.1340   25.9230   35.1810 H   0  0  0  0  0  0  0  0  0  0  0  0
   38.9340   27.3950   36.2120 O   0  0  0  0  0  0  0  0  0  0  0  0
   38.4510   26.7110   36.7240 H   0  0  0  0  0  0  0  0  0  0  0  0
  1 16  1  0  0  0  0
  1  2  1  0  0  0  0
  3  1  1  0  0  0  0
  4  1  1  0  0  0  0
  4  7  1  0  0  0  0
  5  4  1  0  0  0  0
  6  4  1  0  0  0  0
  7  8  1  0  0  0  0
  8 13  1  0  0  0  0
  8  9  2  0  0  0  0
  9 14  1  0  0  0  0
 10  9  1  0  0  0  0
 11 10  2  0  0  0  0
 12  7  2  0  0  0  0
 12 11  1  0  0  0  0
 15 11  1  0  0  0  0
 18 17  2  6  0  0  0
 18 19  1  0  0  0  0
 18 16  1  0  0  0  0
 19 20  1  0  0  0  0
 21 18  1  0  0  0  0
 22 29  1  1  0  0  0
 23 21  1  6  0  0  0
 23 22  1  0  0  0  0
 24 26  1  0  0  0  0
 24 23  1  0  0  0  0
 25 24  1  0  0  0  0
 26 27  1  0  0  0  0
 27 22  1  0  0  0  0
 27 28  1  0  0  0  0
 29 30  1  0  0  0  0
M  END
>  <minimizedAffinity>
-4.30158901

$$$$

 OpenBabel03262521483D

 30 31  0  0  1  0  0  0  0  0999 V2000
   38.0880   25.5210   36.4370 C   0  0  0  0  0  0  0  0  0  0  0  0
   37.8760   25.6030   37.5370 H   0  0  0  0  0  0  0  0  0  0  0  0
   37.2050   25.1370   35.8780 H   0  0  0  0  0  0  0  0  0  0  0  0
   38.5590   26.8610   35.9620 C   0  0  0  0  0  0  0  0  0  0  0  0
   39.6790   26.8030   35.8710 H   0  0  0  0  0  0  0  0  0  0  0  0
   38.3940   27.6430   36.7330 H   0  0  0  0  0  0  0  0  0  0  0  0
   38.0320   27.2670   34.6730 C   0  0  0  0  0  0  0  0  0  0  0  0
   36.7870   27.8810   34.5350 C   0  0  0  0  0  0  0  0  0  0  0  0
   36.3640   28.2360   33.2380 C   0  0  0  0  0  0  0  0  0  0  0  0
   37.2000   27.9600   32.1910 N   0  0  0  0  0  0  0  0  0  0  0  0
   38.4060   27.3600   32.3670 C   0  0  0  0  0  0  0  0  0  0  0  0
   38.8140   27.0170   33.6180 N   0  0  0  0  0  0  0  0  0  0  0  0
   36.1780   28.0710   35.3960 H   0  0  0  0  0  0  0  0  0  0  0  0
   35.4110   28.7090   33.1090 H   0  0  0  0  0  0  0  0  0  0  0  0
   39.0230   27.1680   31.4940 H   0  0  0  0  0  0  0  0  0  0  0  0
   39.1330   24.6060   36.2940 O   0  0  0  0  0  0  0  0  0  0  0  0
   37.2720   23.1510   37.4130 O   0  0  0  0  0  0  0  0  0  0  0  0
   38.6560   23.0480   36.7820 P   0  0  2  0  0  0  0  0  0  0  0  0
   39.6730   22.4520   37.9780 O   0  0  0  0  0  0  0  0  0  0  0  0
   40.6270   22.5300   37.7300 H   0  0  0  0  0  0  0  0  0  0  0  0
   38.6640   21.9910   35.4840 O   0  0  0  0  0  0  0  0  0  0  0  0
   38.7240   22.8880   33.2310 C   0  0  1  0  0  3  0  0  0  0  0  0
   37.9120   22.5160   34.4600 C   0  0  1  0  0  3  0  0  0  0  0  0
   37.0140   21.4560   33.8120 C   0  0  0  0  0  3  0  0  0  0  0  0
   37.5310   20.4830   33.7120 H   0  0  0  0  0  0  0  0  0  0  0  0
   36.7200   21.9090   32.5520 O   0  0  0  0  0  0  0  0  0  0  0  0
   37.5800   22.9170   32.2180 C   0  0  0  0  0  3  0  0  0  0  0  0
   37.0380   23.8850   32.3990 H   0  0  0  0  0  0  0  0  0  0  0  0
   39.3940   24.0770   33.3370 O   0  0  0  0  0  0  0  0  0  0  0  0
   38.9310   24.8290   32.9080 H   0  0  0  0  0  0  0  0  0  0  0  0
  1  2  1  0  0  0  0
  3  1  1  0  0  0  0
  4  1  1  0  0  0  0
  4  6  1  0  0  0  0
  5  4  1  0  0  0  0
  7  4  1  0  0  0  0
  8  7  1  0  0  0  0
  8 13  1  0  0  0  0
  9  8  2  0  0  0  0
 10 11  2  0  0  0  0
 10  9  1  0  0  0  0
 11 12  1  0  0  0  0
 12  7  2  0  0  0  0
 14  9  1  0  0  0  0
 15 11  1  0  0  0  0
 16  1  1  0  0  0  0
 16 18  1  0  0  0  0
 18 17  2  1  0  0  0
 18 19  1  0  0  0  0
 20 19  1  0  0  0  0
 21 18  1  0  0  0  0
 22 29  1  1  0  0  0
 22 23  1  0  0  0  0
 23 21  1  1  0  0  0
 24 23  1  0  0  0  0
 25 24  1  0  0  0  0
 26 24  1  0  0  0  0
 27 28  1  0  0  0  0
 27 26  1  0  0  0  0
 27 22  1  0  0  0  0
 30 29  1  0  0  0  0
M  END
>  <minimizedAffinity>
-4.25339317

$$$$

 OpenBabel03262521483D

 30 31  0  0  1  0  0  0  0  0999 V2000
   37.9480   24.8230   36.5340 C   0  0  0  0  0  0  0  0  0  0  0  0
   37.0320   25.1120   37.1150 H   0  0  0  0  0  0  0  0  0  0  0  0
   38.8700   25.2590   36.9810 H   0  0  0  0  0  0  0  0  0  0  0  0
   37.9790   23.3290   36.4430 C   0  0  0  0  0  0  0  0  0  0  0  0
   37.3840   23.0420   35.5330 H   0  0  0  0  0  0  0  0  0  0  0  0
   37.4220   22.8620   37.2830 H   0  0  0  0  0  0  0  0  0  0  0  0
   39.3040   22.7570   36.3020 C   0  0  0  0  0  0  0  0  0  0  0  0
   39.8930   22.5330   35.0570 C   0  0  0  0  0  0  0  0  0  0  0  0
   41.1850   21.9700   35.0270 C   0  0  0  0  0  0  0  0  0  0  0  0
   41.7880   21.6790   36.2200 N   0  0  0  0  0  0  0  0  0  0  0  0
   41.1800   21.9120   37.4140 C   0  0  0  0  0  0  0  0  0  0  0  0
   39.9340   22.4540   37.4430 N   0  0  0  0  0  0  0  0  0  0  0  0
   39.3680   22.7830   34.1560 H   0  0  0  0  0  0  0  0  0  0  0  0
   41.6560   21.7900   34.0820 H   0  0  0  0  0  0  0  0  0  0  0  0
   41.7130   21.6580   38.3260 H   0  0  0  0  0  0  0  0  0  0  0  0
   37.7930   25.3430   35.2470 O   0  0  0  0  0  0  0  0  0  0  0  0
   40.2840   26.1350   35.2040 O   0  0  0  0  0  0  0  0  0  0  0  0
   38.8630   26.6380   34.9750 P   0  0  2  0  0  0  0  0  0  0  0  0
   38.6160   27.8690   36.0890 O   0  0  0  0  0  0  0  0  0  0  0  0
   37.6640   28.1300   36.1530 H   0  0  0  0  0  0  0  0  0  0  0  0
   38.6680   27.2540   33.4320 O   0  0  0  0  0  0  0  0  0  0  0  0
   36.5630   28.4050   33.0700 C   0  0  1  0  0  3  0  0  0  0  0  0
   37.3580   27.1100   33.0420 C   0  0  1  0  0  3  0  0  0  0  0  0
   37.2390   26.8180   31.5410 C   0  0  0  0  0  3  0  0  0  0  0  0
   37.9580   27.4130   30.9480 H   0  0  0  0  0  0  0  0  0  0  0  0
   35.9740   27.1930   31.1680 O   0  0  0  0  0  0  0  0  0  0  0  0
   35.4260   27.9810   32.1410 C   0  0  0  0  0  3  0  0  0  0  0  0
   34.7580   27.3220   32.7600 H   0  0  0  0  0  0  0  0  0  0  0  0
   36.1420   28.7790   34.3180 O   0  0  0  0  0  0  0  0  0  0  0  0
   35.2100   28.5350   34.5090 H   0  0  0  0  0  0  0  0  0  0  0  0
  1  3  1  0  0  0  0
  1  2  1  0  0  0  0
  4  1  1  0  0  0  0
  4  6  1  0  0  0  0
  5  4  1  0  0  0  0
  7  4  1  0  0  0  0
  7 12  1  0  0  0  0
  8  7  2  0  0  0  0
  9  8  1  0  0  0  0
  9 10  2  0  0  0  0
 10 11  1  0  0  0  0
 11 12  2  0  0  0  0
 11 15  1  0  0  0  0
 13  8  1  0  0  0  0
 14  9  1  0  0  0  0
 16  1  1  0  0  0  0
 18 17  2  1  0  0  0
 18 16  1  0  0  0  0
 18 19  1  0  0  0  0
 19 20  1  0  0  0  0
 21 18  1  0  0  0  0
 22 29  1  1  0  0  0
 23 22  1  0  0  0  0
 23 21  1  6  0  0  0
 24 23  1  0  0  0  0
 25 24  1  0  0  0  0
 26 24  1  0  0  0  0
 26 27  1  0  0  0  0
 27 28  1  0  0  0  0
 27 22  1  0  0  0  0
 29 30  1  0  0  0  0
M  END
>  <minimizedAffinity>
-4.22472477

$$$$

 OpenBabel03262521483D

 30 31  0  0  1  0  0  0  0  0999 V2000
   39.1820   24.0990   34.9980 C   0  0  0  0  0  0  0  0  0  0  0  0
   40.1940   24.4380   35.3500 H   0  0  0  0  0  0  0  0  0  0  0  0
   39.2040   23.7920   33.9270 H   0  0  0  0  0  0  0  0  0  0  0  0
   38.7160   23.0150   35.9200 C   0  0  0  0  0  0  0  0  0  0  0  0
   38.3430   23.5170   36.8550 H   0  0  0  0  0  0  0  0  0  0  0  0
   39.5660   22.3930   36.2730 H   0  0  0  0  0  0  0  0  0  0  0  0
   37.6390   22.1960   35.3990 C   0  0  0  0  0  0  0  0  0  0  0  0
   36.6730   21.6190   36.2240 C   0  0  0  0  0  0  0  0  0  0  0  0
   35.6670   20.8380   35.6190 C   0  0  0  0  0  0  0  0  0  0  0  0
   35.6960   20.6920   34.2590 N   0  0  0  0  0  0  0  0  0  0  0  0
   36.6550   21.2710   33.4900 C   0  0  0  0  0  0  0  0  0  0  0  0
   37.6260   22.0240   34.0720 N   0  0  0  0  0  0  0  0  0  0  0  0
   36.7040   21.7710   37.2840 H   0  0  0  0  0  0  0  0  0  0  0  0
   34.9140   20.3860   36.2330 H   0  0  0  0  0  0  0  0  0  0  0  0
   36.6220   21.1170   32.4150 H   0  0  0  0  0  0  0  0  0  0  0  0
   38.3230   25.1920   35.1260 O   0  0  0  0  0  0  0  0  0  0  0  0
   40.6340   26.4110   35.1910 O   0  0  0  0  0  0  0  0  0  0  0  0
   39.1570   26.6580   34.9080 P   0  0  2  0  0  0  0  0  0  0  0  0
   38.6530   27.8100   36.0200 O   0  0  0  0  0  0  0  0  0  0  0  0
   37.6690   27.8990   36.0460 H   0  0  0  0  0  0  0  0  0  0  0  0
   38.9180   27.2540   33.3620 O   0  0  0  0  0  0  0  0  0  0  0  0
   36.7230   28.1800   32.9040 C   0  0  1  0  0  3  0  0  0  0  0  0
   37.6370   26.9670   32.9540 C   0  0  1  0  0  3  0  0  0  0  0  0
   37.5830   26.5970   31.4660 C   0  0  0  0  0  3  0  0  0  0  0  0
   38.2580   27.2300   30.8600 H   0  0  0  0  0  0  0  0  0  0  0  0
   36.2980   26.8310   31.0510 O   0  0  0  0  0  0  0  0  0  0  0  0
   35.6550   27.6070   31.9730 C   0  0  0  0  0  3  0  0  0  0  0  0
   35.0360   26.9160   32.6090 H   0  0  0  0  0  0  0  0  0  0  0  0
   36.2380   28.5690   34.1240 O   0  0  0  0  0  0  0  0  0  0  0  0
   35.3290   28.2470   34.3060 H   0  0  0  0  0  0  0  0  0  0  0  0
  1 16  1  0  0  0  0
  1  2  1  0  0  0  0
  1  4  1  0  0  0  0
  3  1  1  0  0  0  0
  4  6  1  0  0  0  0
  4  5  1  0  0  0  0
  7  4  1  0  0  0  0
  7  8  1  0  0  0  0
  8 13  1  0  0  0  0
  9  8  2  0  0  0  0
  9 14  1  0  0  0  0
 10  9  1  0  0  0  0
 11 12  1  0  0  0  0
 11 10  2  0  0  0  0
 12  7  2  0  0  0  0
 15 11  1  0  0  0  0
 18 16  1  0  0  0  0
 18 17  2  1  0  0  0
 18 19  1  0  0  0  0
 19 20  1  0  0  0  0
 21 18  1  0  0  0  0
 22 23  1  0  0  0  0
 22 29  1  1  0  0  0
 23 21  1  6  0  0  0
 24 23  1  0  0  0  0
 25 24  1  0  0  0  0
 26 24  1  0  0  0  0
 26 27  1  0  0  0  0
 27 28  1  0  0  0  0
 27 22  1  0  0  0  0
 29 30  1  0  0  0  0
M  END
>  <minimizedAffinity>
-4.16981173

$$$$

 OpenBabel03262521483D

 30 31  0  0  1  0  0  0  0  0999 V2000
   36.7400   23.5740   32.2920 C   0  0  0  0  0  0  0  0  0  0  0  0
   36.6830   24.6760   32.0770 H   0  0  0  0  0  0  0  0  0  0  0  0
   36.3720   23.3390   33.3170 H   0  0  0  0  0  0  0  0  0  0  0  0
   35.9920   22.8580   31.2100 C   0  0  0  0  0  0  0  0  0  0  0  0
   36.5510   23.0360   30.2500 H   0  0  0  0  0  0  0  0  0  0  0  0
   34.9990   23.3230   31.0300 H   0  0  0  0  0  0  0  0  0  0  0  0
   35.8810   21.4250   31.3960 C   0  0  0  0  0  0  0  0  0  0  0  0
   36.4600   20.5100   30.5160 C   0  0  0  0  0  0  0  0  0  0  0  0
   36.2940   19.1360   30.7850 C   0  0  0  0  0  0  0  0  0  0  0  0
   35.5760   18.7790   31.8930 N   0  0  0  0  0  0  0  0  0  0  0  0
   35.0270   19.7020   32.7270 C   0  0  0  0  0  0  0  0  0  0  0  0
   35.1870   21.0270   32.4680 N   0  0  0  0  0  0  0  0  0  0  0  0
   37.0120   20.8520   29.6630 H   0  0  0  0  0  0  0  0  0  0  0  0
   36.7300   18.4160   30.1220 H   0  0  0  0  0  0  0  0  0  0  0  0
   34.4680   19.3540   33.5910 H   0  0  0  0  0  0  0  0  0  0  0  0
   38.0870   23.2160   32.2140 O   0  0  0  0  0  0  0  0  0  0  0  0
   39.8740   21.7530   33.4390 O   0  0  0  0  0  0  0  0  0  0  0  0
   38.6530   22.6260   33.7060 P   0  0  2  0  0  0  0  0  0  0  0  0
   37.5140   21.6290   34.4310 O   0  0  0  0  0  0  0  0  0  0  0  0
   36.6190   22.0490   34.4690 H   0  0  0  0  0  0  0  0  0  0  0  0
   39.0130   23.8870   34.7450 O   0  0  0  0  0  0  0  0  0  0  0  0
   39.3860   23.0970   37.0090 C   0  0  1  0  0  3  0  0  0  0  0  0
   38.4290   23.6540   35.9680 C   0  0  1  0  0  3  0  0  0  0  0  0
   38.0700   24.9610   36.6860 C   0  0  0  0  0  3  0  0  0  0  0  0
   38.8520   25.7320   36.5540 H   0  0  0  0  0  0  0  0  0  0  0  0
   37.9910   24.6650   38.0220 O   0  0  0  0  0  0  0  0  0  0  0  0
   38.5810   23.4550   38.2570 C   0  0  0  0  0  3  0  0  0  0  0  0
   37.7560   22.6940   38.3150 H   0  0  0  0  0  0  0  0  0  0  0  0
   39.6360   21.7560   36.8820 O   0  0  0  0  0  0  0  0  0  0  0  0
   39.1030   21.1980   37.4880 H   0  0  0  0  0  0  0  0  0  0  0  0
  1  3  1  0  0  0  0
  2  1  1  0  0  0  0
  4  7  1  0  0  0  0
  4  1  1  0  0  0  0
  5  4  1  0  0  0  0
  6  4  1  0  0  0  0
  7 12  1  0  0  0  0
  8  9  1  0  0  0  0
  8  7  2  0  0  0  0
  9 10  2  0  0  0  0
 10 11  1  0  0  0  0
 11 15  1  0  0  0  0
 12 11  2  0  0  0  0
 13  8  1  0  0  0  0
 14  9  1  0  0  0  0
 16  1  1  0  0  0  0
 16 18  1  0  0  0  0
 18 17  2  6  0  0  0
 18 19  1  0  0  0  0
 18 21  1  0  0  0  0
 19 20  1  0  0  0  0
 22 29  1  6  0  0  0
 22 27  1  0  0  0  0
 23 21  1  6  0  0  0
 23 24  1  0  0  0  0
 23 22  1  0  0  0  0
 24 26  1  0  0  0  0
 25 24  1  0  0  0  0
 26 27  1  0  0  0  0
 27 28  1  0  0  0  0
 29 30  1  0  0  0  0
M  END
>  <minimizedAffinity>
-4.15605783

$$$$
