
 OpenBabel03272502273D

 40 43  0  0  1  0  0  0  0  0999 V2000
   35.5080   20.7190   33.1920 C   0  0  0  0  0  0  0  0  0  0  0  0
   36.3730   20.9420   34.2720 C   0  0  0  0  0  0  0  0  0  0  0  0
   37.3190   21.9330   34.1360 C   0  0  0  0  0  0  0  0  0  0  0  0
   37.3490   22.6160   32.9870 N   0  0  0  0  0  0  0  0  0  0  0  0
   36.5130   22.3960   31.9490 C   0  0  0  0  0  0  0  0  0  0  0  0
   35.5910   21.4380   32.0660 N   0  0  0  0  0  0  0  0  0  0  0  0
   34.7700   19.9360   33.3110 H   0  0  0  0  0  0  0  0  0  0  0  0
   36.3300   20.3780   35.1930 H   0  0  0  0  0  0  0  0  0  0  0  0
   38.2690   22.2680   35.1770 C   0  0  0  0  0  0  0  0  0  0  0  0
   39.6350   22.0540   34.9890 C   0  0  0  0  0  0  0  0  0  0  0  0
   40.5770   22.3550   35.9430 C   0  0  0  0  0  0  0  0  0  0  0  0
   40.1760   22.8820   37.1230 N   0  0  0  0  0  0  0  0  0  0  0  0
   38.8580   23.0810   37.2870 C   0  0  0  0  0  0  0  0  0  0  0  0
   37.9170   22.7950   36.3680 N   0  0  0  0  0  0  0  0  0  0  0  0
   39.9530   21.6350   34.0510 H   0  0  0  0  0  0  0  0  0  0  0  0
   41.6260   22.1610   35.7260 H   0  0  0  0  0  0  0  0  0  0  0  0
   38.3830   23.6600   38.5710 C   0  0  0  0  0  0  0  0  0  0  0  0
   37.3090   22.8580   39.0210 F   0  0  0  0  0  0  0  0  0  0  0  0
   39.3770   23.7110   39.4990 F   0  0  0  0  0  0  0  0  0  0  0  0
   37.8250   24.9150   38.3930 F   0  0  0  0  0  0  0  0  0  0  0  0
   36.6810   23.1940   30.8300 O   0  0  0  0  0  0  0  0  0  0  0  0
   35.0980   26.5010   30.9800 N   0  0  0  0  0  0  0  0  0  0  0  0
   35.1600   25.1640   30.9180 C   0  0  0  0  0  0  0  0  0  0  0  0
   36.4030   24.5420   30.8920 C   0  0  0  0  0  0  0  0  0  0  0  0
   37.5430   25.3230   30.9300 C   0  0  0  0  0  0  0  0  0  0  0  0
   38.7560   24.9630   30.9180 O   0  0  0  0  0  0  0  0  0  0  0  0
   37.4150   26.6770   30.9930 N   0  0  0  0  0  0  0  0  0  0  0  0
   36.2100   27.2640   31.0170 C   0  0  0  0  0  0  0  0  0  0  0  0
   36.0450   28.5140   31.0750 O   0  0  0  0  0  0  0  0  0  0  0  0
   34.1330   26.8980   30.9950 H   0  0  0  0  0  0  0  0  0  0  0  0
   34.3320   24.4960   30.8850 H   0  0  0  0  0  0  0  0  0  0  0  0
   39.2440   27.7710   29.7420 C   0  0  1  0  0  3  0  0  0  0  0  0
   38.5260   27.5900   31.0380 C   0  0  2  0  0  3  0  0  0  0  0  0
   39.5880   27.2110   32.0280 C   0  0  0  0  0  3  0  0  0  0  0  0
   39.8560   28.0980   32.6480 H   0  0  0  0  0  0  0  0  0  0  0  0
   40.7260   26.8960   31.3140 O   0  0  0  0  0  0  0  0  0  0  0  0
   40.6900   27.6080   30.1290 C   0  0  0  0  0  3  0  0  0  0  0  0
   41.2050   28.5710   30.3270 H   0  0  0  0  0  0  0  0  0  0  0  0
   38.8360   26.9540   28.7180 O   0  0  0  0  0  0  0  0  0  0  0  0
   39.5710   26.5050   28.2300 H   0  0  0  0  0  0  0  0  0  0  0  0
  1  7  1  0  0  0  0
  1  2  1  0  0  0  0
  2  8  1  0  0  0  0
  3  2  2  0  0  0  0
  3  9  1  0  0  0  0
  4  3  1  0  0  0  0
  5  6  1  0  0  0  0
  5  4  2  0  0  0  0
  6  1  2  0  0  0  0
  9 14  1  0  0  0  0
 10  9  2  0  0  0  0
 10 11  1  0  0  0  0
 11 12  2  0  0  0  0
 12 13  1  0  0  0  0
 13 17  1  0  0  0  0
 14 13  2  0  0  0  0
 15 10  1  0  0  0  0
 16 11  1  0  0  0  0
 17 18  1  0  0  0  0
 17 19  1  0  0  0  0
 20 17  1  0  0  0  0
 21 24  1  0  0  0  0
 21  5  1  0  0  0  0
 22 30  1  0  0  0  0
 22 28  1  0  0  0  0
 23 22  1  0  0  0  0
 24 23  2  0  0  0  0
 24 25  1  0  0  0  0
 25 27  1  0  0  0  0
 26 25  2  0  0  0  0
 27 28  1  0  0  0  0
 28 29  2  0  0  0  0
 31 23  1  0  0  0  0
 32 39  1  6  0  0  0
 32 37  1  0  0  0  0
 32 33  1  0  0  0  0
 33 27  1  6  0  0  0
 33 34  1  0  0  0  0
 34 35  1  0  0  0  0
 36 34  1  0  0  0  0
 37 38  1  0  0  0  0
 37 36  1  0  0  0  0
 40 39  1  0  0  0  0
M  END
>  <minimizedAffinity>
-6.78280163

$$$$

 OpenBabel03272502273D

 40 43  0  0  1  0  0  0  0  0999 V2000
   35.3670   20.6570   33.0120 C   0  0  0  0  0  0  0  0  0  0  0  0
   36.2760   20.8700   34.0570 C   0  0  0  0  0  0  0  0  0  0  0  0
   37.1530   21.9240   33.9330 C   0  0  0  0  0  0  0  0  0  0  0  0
   37.0800   22.6730   32.8270 N   0  0  0  0  0  0  0  0  0  0  0  0
   36.2010   22.4620   31.8240 C   0  0  0  0  0  0  0  0  0  0  0  0
   35.3440   21.4440   31.9300 N   0  0  0  0  0  0  0  0  0  0  0  0
   34.6820   19.8250   33.1210 H   0  0  0  0  0  0  0  0  0  0  0  0
   36.3170   20.2520   34.9430 H   0  0  0  0  0  0  0  0  0  0  0  0
   38.1390   22.2550   34.9410 C   0  0  0  0  0  0  0  0  0  0  0  0
   39.4980   22.0530   34.7010 C   0  0  0  0  0  0  0  0  0  0  0  0
   40.4730   22.3520   35.6230 C   0  0  0  0  0  0  0  0  0  0  0  0
   40.1120   22.8640   36.8220 N   0  0  0  0  0  0  0  0  0  0  0  0
   38.8000   23.0520   37.0360 C   0  0  0  0  0  0  0  0  0  0  0  0
   37.8270   22.7680   36.1500 N   0  0  0  0  0  0  0  0  0  0  0  0
   39.7840   21.6450   33.7480 H   0  0  0  0  0  0  0  0  0  0  0  0
   41.5150   22.1670   35.3650 H   0  0  0  0  0  0  0  0  0  0  0  0
   38.3690   23.6140   38.3430 C   0  0  0  0  0  0  0  0  0  0  0  0
   37.2950   22.8200   38.8080 F   0  0  0  0  0  0  0  0  0  0  0  0
   39.3890   23.6350   39.2440 F   0  0  0  0  0  0  0  0  0  0  0  0
   37.8260   24.8810   38.2010 F   0  0  0  0  0  0  0  0  0  0  0  0
   36.2600   23.3330   30.7480 O   0  0  0  0  0  0  0  0  0  0  0  0
   39.3550   25.2390   30.2460 N   0  0  0  0  0  0  0  0  0  0  0  0
   38.5430   24.1740   30.2180 C   0  0  0  0  0  0  0  0  0  0  0  0
   37.2420   24.2980   30.6900 C   0  0  0  0  0  0  0  0  0  0  0  0
   36.8200   25.5210   31.1770 C   0  0  0  0  0  0  0  0  0  0  0  0
   35.6910   25.8450   31.6450 O   0  0  0  0  0  0  0  0  0  0  0  0
   37.6910   26.5670   31.1790 N   0  0  0  0  0  0  0  0  0  0  0  0
   38.9440   26.4330   30.7210 C   0  0  0  0  0  0  0  0  0  0  0  0
   39.7850   27.3760   30.7050 O   0  0  0  0  0  0  0  0  0  0  0  0
   40.3160   25.0720   29.8780 H   0  0  0  0  0  0  0  0  0  0  0  0
   38.7920   23.2020   29.8610 H   0  0  0  0  0  0  0  0  0  0  0  0
   37.1050   27.9720   33.1250 C   0  0  1  0  0  3  0  0  0  0  0  0
   37.3680   27.8840   31.6590 C   0  0  2  0  0  3  0  0  0  0  0  0
   36.1620   28.4930   31.0050 C   0  0  0  0  0  3  0  0  0  0  0  0
   36.3980   29.5320   30.6780 H   0  0  0  0  0  0  0  0  0  0  0  0
   35.1850   28.6180   31.9720 O   0  0  0  0  0  0  0  0  0  0  0  0
   35.8170   28.7500   33.1940 C   0  0  0  0  0  3  0  0  0  0  0  0
   35.9680   29.8390   33.3520 H   0  0  0  0  0  0  0  0  0  0  0  0
   37.0800   26.7750   33.7970 O   0  0  0  0  0  0  0  0  0  0  0  0
   36.3050   26.6570   34.4010 H   0  0  0  0  0  0  0  0  0  0  0  0
  1  7  1  0  0  0  0
  1  2  1  0  0  0  0
  2  8  1  0  0  0  0
  3  2  2  0  0  0  0
  3  9  1  0  0  0  0
  4  3  1  0  0  0  0
  5  6  1  0  0  0  0
  5  4  2  0  0  0  0
  6  1  2  0  0  0  0
  9 14  1  0  0  0  0
 10  9  2  0  0  0  0
 10 11  1  0  0  0  0
 11 12  2  0  0  0  0
 12 13  1  0  0  0  0
 13 17  1  0  0  0  0
 14 13  2  0  0  0  0
 15 10  1  0  0  0  0
 16 11  1  0  0  0  0
 17 18  1  0  0  0  0
 17 19  1  0  0  0  0
 20 17  1  0  0  0  0
 21  5  1  0  0  0  0
 22 28  1  0  0  0  0
 23 22  1  0  0  0  0
 23 24  2  0  0  0  0
 24 21  1  0  0  0  0
 24 25  1  0  0  0  0
 25 27  1  0  0  0  0
 25 26  2  0  0  0  0
 28 27  1  0  0  0  0
 29 28  2  0  0  0  0
 30 22  1  0  0  0  0
 31 23  1  0  0  0  0
 32 37  1  0  0  0  0
 32 39  1  6  0  0  0
 33 27  1  6  0  0  0
 33 32  1  0  0  0  0
 34 33  1  0  0  0  0
 34 36  1  0  0  0  0
 35 34  1  0  0  0  0
 36 37  1  0  0  0  0
 37 38  1  0  0  0  0
 39 40  1  0  0  0  0
M  END
>  <minimizedAffinity>
-6.71640444

$$$$

 OpenBabel03272502273D

 40 43  0  0  1  0  0  0  0  0999 V2000
   35.5230   20.5300   33.5410 C   0  0  0  0  0  0  0  0  0  0  0  0
   36.2440   20.8280   34.7050 C   0  0  0  0  0  0  0  0  0  0  0  0
   37.1970   21.8180   34.6290 C   0  0  0  0  0  0  0  0  0  0  0  0
   37.3720   22.4290   33.4520 N   0  0  0  0  0  0  0  0  0  0  0  0
   36.6740   22.1380   32.3330 C   0  0  0  0  0  0  0  0  0  0  0  0
   35.7460   21.1790   32.3920 N   0  0  0  0  0  0  0  0  0  0  0  0
   34.7770   19.7490   33.6130 H   0  0  0  0  0  0  0  0  0  0  0  0
   36.0850   20.3210   35.6470 H   0  0  0  0  0  0  0  0  0  0  0  0
   38.0070   22.2250   35.7590 C   0  0  0  0  0  0  0  0  0  0  0  0
   37.4510   22.9610   36.8050 C   0  0  0  0  0  0  0  0  0  0  0  0
   38.1740   23.3700   37.8990 C   0  0  0  0  0  0  0  0  0  0  0  0
   39.4880   23.0540   37.9770 N   0  0  0  0  0  0  0  0  0  0  0  0
   40.0070   22.3450   36.9610 C   0  0  0  0  0  0  0  0  0  0  0  0
   39.3190   21.9330   35.8800 N   0  0  0  0  0  0  0  0  0  0  0  0
   36.4060   23.2120   36.7420 H   0  0  0  0  0  0  0  0  0  0  0  0
   37.6720   23.9420   38.6780 H   0  0  0  0  0  0  0  0  0  0  0  0
   41.4470   21.9800   37.0160 C   0  0  0  0  0  0  0  0  0  0  0  0
   41.7400   21.2530   35.8390 F   0  0  0  0  0  0  0  0  0  0  0  0
   42.2420   23.0790   37.1240 F   0  0  0  0  0  0  0  0  0  0  0  0
   41.7100   21.0910   38.0450 F   0  0  0  0  0  0  0  0  0  0  0  0
   36.9810   22.8670   31.1960 O   0  0  0  0  0  0  0  0  0  0  0  0
   35.2340   26.0850   30.9640 N   0  0  0  0  0  0  0  0  0  0  0  0
   35.3640   24.7550   31.0400 C   0  0  0  0  0  0  0  0  0  0  0  0
   36.6360   24.1990   31.1130 C   0  0  0  0  0  0  0  0  0  0  0  0
   37.7350   25.0370   31.1060 C   0  0  0  0  0  0  0  0  0  0  0  0
   38.9630   24.7420   31.1650 O   0  0  0  0  0  0  0  0  0  0  0  0
   37.5390   26.3820   31.0270 N   0  0  0  0  0  0  0  0  0  0  0  0
   36.3060   26.9050   30.9560 C   0  0  0  0  0  0  0  0  0  0  0  0
   36.0780   28.1450   30.8820 O   0  0  0  0  0  0  0  0  0  0  0  0
   34.2520   26.4310   30.9110 H   0  0  0  0  0  0  0  0  0  0  0  0
   34.5710   24.0450   31.0500 H   0  0  0  0  0  0  0  0  0  0  0  0
   39.3520   27.4410   29.7250 C   0  0  1  0  0  3  0  0  0  0  0  0
   38.6010   27.3520   31.0110 C   0  0  2  0  0  3  0  0  0  0  0  0
   39.6470   27.1290   32.0640 C   0  0  0  0  0  3  0  0  0  0  0  0
   39.8500   28.0850   32.5990 H   0  0  0  0  0  0  0  0  0  0  0  0
   40.8230   26.8040   31.4180 O   0  0  0  0  0  0  0  0  0  0  0  0
   40.7910   27.3920   30.1670 C   0  0  0  0  0  3  0  0  0  0  0  0
   41.2510   28.3960   30.2820 H   0  0  0  0  0  0  0  0  0  0  0  0
   39.0190   26.5060   28.7760 O   0  0  0  0  0  0  0  0  0  0  0  0
   39.7910   26.0510   28.3570 H   0  0  0  0  0  0  0  0  0  0  0  0
  1  7  1  0  0  0  0
  1  2  1  0  0  0  0
  2  8  1  0  0  0  0
  3  2  2  0  0  0  0
  3  9  1  0  0  0  0
  4  3  1  0  0  0  0
  5  6  1  0  0  0  0
  5  4  2  0  0  0  0
  6  1  2  0  0  0  0
  9 14  2  0  0  0  0
  9 10  1  0  0  0  0
 10 11  2  0  0  0  0
 11 12  1  0  0  0  0
 11 16  1  0  0  0  0
 13 17  1  0  0  0  0
 13 12  2  0  0  0  0
 14 13  1  0  0  0  0
 15 10  1  0  0  0  0
 17 19  1  0  0  0  0
 17 20  1  0  0  0  0
 18 17  1  0  0  0  0
 21  5  1  0  0  0  0
 22 23  1  0  0  0  0
 23 31  1  0  0  0  0
 23 24  2  0  0  0  0
 24 21  1  0  0  0  0
 25 24  1  0  0  0  0
 25 26  2  0  0  0  0
 27 25  1  0  0  0  0
 28 22  1  0  0  0  0
 28 27  1  0  0  0  0
 29 28  2  0  0  0  0
 30 22  1  0  0  0  0
 32 39  1  6  0  0  0
 32 37  1  0  0  0  0
 32 33  1  0  0  0  0
 33 27  1  6  0  0  0
 33 34  1  0  0  0  0
 34 35  1  0  0  0  0
 36 34  1  0  0  0  0
 37 38  1  0  0  0  0
 37 36  1  0  0  0  0
 40 39  1  0  0  0  0
M  END
>  <minimizedAffinity>
-6.63793659

$$$$

 OpenBabel03272502273D

 40 43  0  0  1  0  0  0  0  0999 V2000
   37.0450   27.4580   34.1800 C   0  0  0  0  0  0  0  0  0  0  0  0
   37.4890   26.7420   35.3000 C   0  0  0  0  0  0  0  0  0  0  0  0
   37.9300   25.4540   35.0990 C   0  0  0  0  0  0  0  0  0  0  0  0
   37.9060   24.9720   33.8520 N   0  0  0  0  0  0  0  0  0  0  0  0
   37.4770   25.6660   32.7770 C   0  0  0  0  0  0  0  0  0  0  0  0
   37.0460   26.9170   32.9560 N   0  0  0  0  0  0  0  0  0  0  0  0
   36.6990   28.4700   34.3510 H   0  0  0  0  0  0  0  0  0  0  0  0
   37.5000   27.1530   36.3010 H   0  0  0  0  0  0  0  0  0  0  0  0
   38.4190   24.6090   36.1700 C   0  0  0  0  0  0  0  0  0  0  0  0
   37.7510   24.5530   37.3930 C   0  0  0  0  0  0  0  0  0  0  0  0
   38.1720   23.7680   38.4390 C   0  0  0  0  0  0  0  0  0  0  0  0
   39.2830   23.0100   38.2900 N   0  0  0  0  0  0  0  0  0  0  0  0
   39.9130   23.0760   37.1060 C   0  0  0  0  0  0  0  0  0  0  0  0
   39.5200   23.8360   36.0670 N   0  0  0  0  0  0  0  0  0  0  0  0
   36.8680   25.1570   37.5110 H   0  0  0  0  0  0  0  0  0  0  0  0
   37.6000   23.7750   39.3670 H   0  0  0  0  0  0  0  0  0  0  0  0
   41.1360   22.2550   36.9080 C   0  0  0  0  0  0  0  0  0  0  0  0
   42.2280   23.1480   36.8030 F   0  0  0  0  0  0  0  0  0  0  0  0
   41.3220   21.3730   37.9280 F   0  0  0  0  0  0  0  0  0  0  0  0
   41.1160   21.5900   35.6930 F   0  0  0  0  0  0  0  0  0  0  0  0
   37.5180   25.0160   31.5540 O   0  0  0  0  0  0  0  0  0  0  0  0
   39.2340   21.7740   31.4580 N   0  0  0  0  0  0  0  0  0  0  0  0
   39.1160   23.1060   31.5350 C   0  0  0  0  0  0  0  0  0  0  0  0
   37.8510   23.6800   31.4910 C   0  0  0  0  0  0  0  0  0  0  0  0
   36.7460   22.8580   31.3690 C   0  0  0  0  0  0  0  0  0  0  0  0
   35.5230   23.1720   31.3120 O   0  0  0  0  0  0  0  0  0  0  0  0
   36.9300   21.5110   31.2950 N   0  0  0  0  0  0  0  0  0  0  0  0
   38.1560   20.9710   31.3380 C   0  0  0  0  0  0  0  0  0  0  0  0
   38.3730   19.7280   31.2740 O   0  0  0  0  0  0  0  0  0  0  0  0
   40.2120   21.4140   31.4960 H   0  0  0  0  0  0  0  0  0  0  0  0
   39.9150   23.8040   31.6290 H   0  0  0  0  0  0  0  0  0  0  0  0
   35.1660   20.2170   32.4420 C   0  0  1  0  0  3  0  0  0  0  0  0
   35.8600   20.5580   31.1670 C   0  0  2  0  0  3  0  0  0  0  0  0
   36.2830   19.2420   30.5820 C   0  0  0  0  0  3  0  0  0  0  0  0
   35.5790   18.9500   29.7690 H   0  0  0  0  0  0  0  0  0  0  0  0
   36.1340   18.2850   31.5660 O   0  0  0  0  0  0  0  0  0  0  0  0
   35.1330   18.7110   32.4190 C   0  0  0  0  0  3  0  0  0  0  0  0
   34.1840   18.2980   32.0170 H   0  0  0  0  0  0  0  0  0  0  0  0
   35.7160   20.7530   33.5800 O   0  0  0  0  0  0  0  0  0  0  0  0
   35.8420   20.1080   34.3220 H   0  0  0  0  0  0  0  0  0  0  0  0
  1  7  1  0  0  0  0
  1  2  1  0  0  0  0
  2  8  1  0  0  0  0
  3  2  2  0  0  0  0
  3  9  1  0  0  0  0
  4  3  1  0  0  0  0
  5  6  1  0  0  0  0
  5  4  2  0  0  0  0
  6  1  2  0  0  0  0
  9 10  1  0  0  0  0
 10 15  1  0  0  0  0
 10 11  2  0  0  0  0
 11 16  1  0  0  0  0
 12 11  1  0  0  0  0
 13 12  2  0  0  0  0
 14  9  2  0  0  0  0
 14 13  1  0  0  0  0
 17 13  1  0  0  0  0
 17 19  1  0  0  0  0
 18 17  1  0  0  0  0
 20 17  1  0  0  0  0
 21  5  1  0  0  0  0
 22 30  1  0  0  0  0
 22 23  1  0  0  0  0
 23 31  1  0  0  0  0
 24 23  2  0  0  0  0
 24 21  1  0  0  0  0
 25 24  1  0  0  0  0
 26 25  2  0  0  0  0
 27 28  1  0  0  0  0
 27 25  1  0  0  0  0
 28 22  1  0  0  0  0
 29 28  2  0  0  0  0
 32 39  1  1  0  0  0
 33 27  1  1  0  0  0
 33 32  1  0  0  0  0
 34 33  1  0  0  0  0
 34 36  1  0  0  0  0
 35 34  1  0  0  0  0
 36 37  1  0  0  0  0
 37 32  1  0  0  0  0
 38 37  1  0  0  0  0
 39 40  1  0  0  0  0
M  END
>  <minimizedAffinity>
-6.6210103

$$$$

 OpenBabel03272502273D

 40 43  0  0  1  0  0  0  0  0999 V2000
   36.6120   24.9350   31.6270 C   0  0  0  0  0  0  0  0  0  0  0  0
   37.1990   24.1270   32.6100 C   0  0  0  0  0  0  0  0  0  0  0  0
   37.7890   24.7570   33.6830 C   0  0  0  0  0  0  0  0  0  0  0  0
   37.7620   26.0930   33.7170 N   0  0  0  0  0  0  0  0  0  0  0  0
   37.1940   26.8660   32.7670 C   0  0  0  0  0  0  0  0  0  0  0  0
   36.6190   26.2700   31.7200 N   0  0  0  0  0  0  0  0  0  0  0  0
   36.1510   24.4280   30.7880 H   0  0  0  0  0  0  0  0  0  0  0  0
   37.2090   23.0470   32.5620 H   0  0  0  0  0  0  0  0  0  0  0  0
   38.4270   24.0390   34.7680 C   0  0  0  0  0  0  0  0  0  0  0  0
   39.4420   23.1170   34.5120 C   0  0  0  0  0  0  0  0  0  0  0  0
   40.0800   22.4120   35.5040 C   0  0  0  0  0  0  0  0  0  0  0  0
   39.7160   22.6100   36.7920 N   0  0  0  0  0  0  0  0  0  0  0  0
   38.7380   23.5010   37.0200 C   0  0  0  0  0  0  0  0  0  0  0  0
   38.0990   24.2040   36.0660 N   0  0  0  0  0  0  0  0  0  0  0  0
   39.7300   22.9590   33.4870 H   0  0  0  0  0  0  0  0  0  0  0  0
   40.8640   21.7070   35.2280 H   0  0  0  0  0  0  0  0  0  0  0  0
   38.3150   23.7440   38.4250 C   0  0  0  0  0  0  0  0  0  0  0  0
   37.8930   25.0910   38.5090 F   0  0  0  0  0  0  0  0  0  0  0  0
   37.3220   22.8950   38.8060 F   0  0  0  0  0  0  0  0  0  0  0  0
   39.3830   23.6610   39.3030 F   0  0  0  0  0  0  0  0  0  0  0  0
   37.2550   28.2370   32.9560 O   0  0  0  0  0  0  0  0  0  0  0  0
   35.3130   30.3790   30.6970 N   0  0  0  0  0  0  0  0  0  0  0  0
   36.3250   29.5920   31.0850 C   0  0  0  0  0  0  0  0  0  0  0  0
   36.3190   29.0600   32.3690 C   0  0  0  0  0  0  0  0  0  0  0  0
   35.2650   29.3590   33.2130 C   0  0  0  0  0  0  0  0  0  0  0  0
   35.0670   28.9820   34.4040 O   0  0  0  0  0  0  0  0  0  0  0  0
   34.2650   30.1640   32.7610 N   0  0  0  0  0  0  0  0  0  0  0  0
   34.2840   30.6710   31.5200 C   0  0  0  0  0  0  0  0  0  0  0  0
   33.3780   31.4220   31.0600 O   0  0  0  0  0  0  0  0  0  0  0  0
   35.3840   30.7420   29.7230 H   0  0  0  0  0  0  0  0  0  0  0  0
   37.1690   29.3170   30.4980 H   0  0  0  0  0  0  0  0  0  0  0  0
   33.3990   31.5310   34.6290 C   0  0  1  0  0  3  0  0  0  0  0  0
   33.1200   30.5440   33.5450 C   0  0  2  0  0  3  0  0  0  0  0  0
   32.4360   29.3940   34.2240 C   0  0  0  0  0  3  0  0  0  0  0  0
   31.3380   29.4500   34.0410 H   0  0  0  0  0  0  0  0  0  0  0  0
   32.5980   29.5610   35.5850 O   0  0  0  0  0  0  0  0  0  0  0  0
   32.7290   30.9160   35.8290 C   0  0  0  0  0  3  0  0  0  0  0  0
   31.7030   31.3020   36.0070 H   0  0  0  0  0  0  0  0  0  0  0  0
   34.7220   31.8460   34.8190 O   0  0  0  0  0  0  0  0  0  0  0  0
   35.0220   31.8180   35.7620 H   0  0  0  0  0  0  0  0  0  0  0  0
  1  6  2  0  0  0  0
  1  2  1  0  0  0  0
  2  3  2  0  0  0  0
  3  4  1  0  0  0  0
  3  9  1  0  0  0  0
  5 21  1  0  0  0  0
  5  4  2  0  0  0  0
  6  5  1  0  0  0  0
  7  1  1  0  0  0  0
  8  2  1  0  0  0  0
  9 14  1  0  0  0  0
 10  9  2  0  0  0  0
 10 11  1  0  0  0  0
 11 12  2  0  0  0  0
 12 13  1  0  0  0  0
 13 17  1  0  0  0  0
 14 13  2  0  0  0  0
 15 10  1  0  0  0  0
 16 11  1  0  0  0  0
 17 18  1  0  0  0  0
 17 19  1  0  0  0  0
 17 20  1  0  0  0  0
 22 23  1  0  0  0  0
 22 28  1  0  0  0  0
 23 24  2  0  0  0  0
 24 21  1  0  0  0  0
 24 25  1  0  0  0  0
 25 26  2  0  0  0  0
 27 25  1  0  0  0  0
 28 27  1  0  0  0  0
 29 28  2  0  0  0  0
 30 22  1  0  0  0  0
 31 23  1  0  0  0  0
 32 39  1  1  0  0  0
 32 37  1  0  0  0  0
 33 27  1  1  0  0  0
 33 34  1  0  0  0  0
 33 32  1  0  0  0  0
 34 36  1  0  0  0  0
 35 34  1  0  0  0  0
 36 37  1  0  0  0  0
 37 38  1  0  0  0  0
 39 40  1  0  0  0  0
M  END
>  <minimizedAffinity>
-6.54162312

$$$$

 OpenBabel03272502273D

 40 43  0  0  1  0  0  0  0  0999 V2000
   37.6660   27.2310   31.8710 C   0  0  0  0  0  0  0  0  0  0  0  0
   37.9840   26.0470   32.5510 C   0  0  0  0  0  0  0  0  0  0  0  0
   37.6280   25.9600   33.8780 C   0  0  0  0  0  0  0  0  0  0  0  0
   37.0030   27.0050   34.4290 N   0  0  0  0  0  0  0  0  0  0  0  0
   36.6990   28.1430   33.7680 C   0  0  0  0  0  0  0  0  0  0  0  0
   37.0380   28.2430   32.4810 N   0  0  0  0  0  0  0  0  0  0  0  0
   37.9510   27.2880   30.8280 H   0  0  0  0  0  0  0  0  0  0  0  0
   38.4900   25.2130   32.0850 H   0  0  0  0  0  0  0  0  0  0  0  0
   37.8950   24.7920   34.6930 C   0  0  0  0  0  0  0  0  0  0  0  0
   38.1300   23.5500   34.1020 C   0  0  0  0  0  0  0  0  0  0  0  0
   38.3880   22.4130   34.8290 C   0  0  0  0  0  0  0  0  0  0  0  0
   38.4190   22.4860   36.1800 N   0  0  0  0  0  0  0  0  0  0  0  0
   38.1910   23.6890   36.7320 C   0  0  0  0  0  0  0  0  0  0  0  0
   37.9360   24.8160   36.0410 N   0  0  0  0  0  0  0  0  0  0  0  0
   38.1050   23.4930   33.0280 H   0  0  0  0  0  0  0  0  0  0  0  0
   38.5620   21.4780   34.2990 H   0  0  0  0  0  0  0  0  0  0  0  0
   38.2180   23.8050   38.2130 C   0  0  0  0  0  0  0  0  0  0  0  0
   39.4800   23.3380   38.6470 F   0  0  0  0  0  0  0  0  0  0  0  0
   38.0020   25.0840   38.6230 F   0  0  0  0  0  0  0  0  0  0  0  0
   37.3080   22.9470   38.8100 F   0  0  0  0  0  0  0  0  0  0  0  0
   36.0490   29.1310   34.4900 O   0  0  0  0  0  0  0  0  0  0  0  0
   32.7530   29.5410   32.9320 N   0  0  0  0  0  0  0  0  0  0  0  0
   33.9810   29.0370   33.1050 C   0  0  0  0  0  0  0  0  0  0  0  0
   34.7710   29.5140   34.1450 C   0  0  0  0  0  0  0  0  0  0  0  0
   34.2650   30.4980   34.9740 C   0  0  0  0  0  0  0  0  0  0  0  0
   34.8100   31.0620   35.9660 O   0  0  0  0  0  0  0  0  0  0  0  0
   33.0090   30.9710   34.7470 N   0  0  0  0  0  0  0  0  0  0  0  0
   32.2580   30.5020   33.7390 C   0  0  0  0  0  0  0  0  0  0  0  0
   31.0890   30.9110   33.4930 O   0  0  0  0  0  0  0  0  0  0  0  0
   32.2180   29.1380   32.1320 H   0  0  0  0  0  0  0  0  0  0  0  0
   34.4410   28.2820   32.5130 H   0  0  0  0  0  0  0  0  0  0  0  0
   32.8730   33.3760   35.2940 C   0  0  1  0  0  3  0  0  0  0  0  0
   32.3760   31.9910   35.5400 C   0  0  2  0  0  3  0  0  0  0  0  0
   32.5050   31.7810   37.0200 C   0  0  0  0  0  3  0  0  0  0  0  0
   31.5080   31.9000   37.5030 H   0  0  0  0  0  0  0  0  0  0  0  0
   33.2860   32.8050   37.5170 O   0  0  0  0  0  0  0  0  0  0  0  0
   33.1260   33.8980   36.6850 C   0  0  0  0  0  3  0  0  0  0  0  0
   32.2770   34.4830   37.0970 H   0  0  0  0  0  0  0  0  0  0  0  0
   33.9480   33.4800   34.4470 O   0  0  0  0  0  0  0  0  0  0  0  0
   34.6830   34.0540   34.7800 H   0  0  0  0  0  0  0  0  0  0  0  0
  1  6  2  0  0  0  0
  1  2  1  0  0  0  0
  2  3  2  0  0  0  0
  3  4  1  0  0  0  0
  3  9  1  0  0  0  0
  5  4  2  0  0  0  0
  5 21  1  0  0  0  0
  6  5  1  0  0  0  0
  7  1  1  0  0  0  0
  8  2  1  0  0  0  0
  9 14  1  0  0  0  0
 10  9  2  0  0  0  0
 10 11  1  0  0  0  0
 11 12  2  0  0  0  0
 12 13  1  0  0  0  0
 13 17  1  0  0  0  0
 14 13  2  0  0  0  0
 15 10  1  0  0  0  0
 16 11  1  0  0  0  0
 17 19  1  0  0  0  0
 17 18  1  0  0  0  0
 17 20  1  0  0  0  0
 22 23  1  0  0  0  0
 22 28  1  0  0  0  0
 23 24  2  0  0  0  0
 24 21  1  0  0  0  0
 24 25  1  0  0  0  0
 25 26  2  0  0  0  0
 27 25  1  0  0  0  0
 28 27  1  0  0  0  0
 29 28  2  0  0  0  0
 30 22  1  0  0  0  0
 31 23  1  0  0  0  0
 32 39  1  6  0  0  0
 32 33  1  0  0  0  0
 32 37  1  0  0  0  0
 33 27  1  6  0  0  0
 33 34  1  0  0  0  0
 34 35  1  0  0  0  0
 34 36  1  0  0  0  0
 37 38  1  0  0  0  0
 37 36  1  0  0  0  0
 39 40  1  0  0  0  0
M  END
>  <minimizedAffinity>
-6.42162514

$$$$

 OpenBabel03272502273D

 40 43  0  0  1  0  0  0  0  0999 V2000
   36.8660   29.1390   30.2030 C   0  0  0  0  0  0  0  0  0  0  0  0
   36.2160   29.8400   31.2280 C   0  0  0  0  0  0  0  0  0  0  0  0
   35.5010   29.1060   32.1470 C   0  0  0  0  0  0  0  0  0  0  0  0
   35.4750   27.7770   32.0030 N   0  0  0  0  0  0  0  0  0  0  0  0
   36.1030   27.1070   31.0130 C   0  0  0  0  0  0  0  0  0  0  0  0
   36.8000   27.8060   30.1140 N   0  0  0  0  0  0  0  0  0  0  0  0
   37.4240   29.7270   29.4860 H   0  0  0  0  0  0  0  0  0  0  0  0
   36.2510   30.9160   31.3260 H   0  0  0  0  0  0  0  0  0  0  0  0
   34.7880   29.7070   33.2560 C   0  0  0  0  0  0  0  0  0  0  0  0
   33.4300   29.4520   33.4500 C   0  0  0  0  0  0  0  0  0  0  0  0
   32.7080   29.9950   34.4860 C   0  0  0  0  0  0  0  0  0  0  0  0
   33.3290   30.8160   35.3640 N   0  0  0  0  0  0  0  0  0  0  0  0
   34.6360   31.0500   35.1620 C   0  0  0  0  0  0  0  0  0  0  0  0
   35.3640   30.5300   34.1560 N   0  0  0  0  0  0  0  0  0  0  0  0
   32.9370   28.8000   32.7510 H   0  0  0  0  0  0  0  0  0  0  0  0
   31.6500   29.7510   34.5740 H   0  0  0  0  0  0  0  0  0  0  0  0
   35.3490   31.9470   36.1090 C   0  0  0  0  0  0  0  0  0  0  0  0
   35.2090   33.2680   35.6210 F   0  0  0  0  0  0  0  0  0  0  0  0
   34.8590   31.8370   37.3730 F   0  0  0  0  0  0  0  0  0  0  0  0
   36.7150   31.7190   36.0990 F   0  0  0  0  0  0  0  0  0  0  0  0
   35.9730   25.7280   31.0100 O   0  0  0  0  0  0  0  0  0  0  0  0
   38.3610   24.4590   33.4890 N   0  0  0  0  0  0  0  0  0  0  0  0
   37.7470   25.3670   32.7200 C   0  0  0  0  0  0  0  0  0  0  0  0
   36.7230   24.9590   31.8730 C   0  0  0  0  0  0  0  0  0  0  0  0
   36.3650   23.6240   31.8490 C   0  0  0  0  0  0  0  0  0  0  0  0
   35.4720   23.0510   31.1620 O   0  0  0  0  0  0  0  0  0  0  0  0
   37.0270   22.7490   32.6550 N   0  0  0  0  0  0  0  0  0  0  0  0
   38.0140   23.1560   33.4670 C   0  0  0  0  0  0  0  0  0  0  0  0
   38.6530   22.3790   34.2300 O   0  0  0  0  0  0  0  0  0  0  0  0
   39.1200   24.8360   34.0980 H   0  0  0  0  0  0  0  0  0  0  0  0
   37.9640   26.4090   32.6800 H   0  0  0  0  0  0  0  0  0  0  0  0
   37.2040   20.5540   31.5350 C   0  0  1  0  0  3  0  0  0  0  0  0
   36.7450   21.3390   32.7170 C   0  0  2  0  0  3  0  0  0  0  0  0
   35.2870   21.0150   32.8660 C   0  0  0  0  0  3  0  0  0  0  0  0
   35.1510   20.2730   33.6860 H   0  0  0  0  0  0  0  0  0  0  0  0
   34.8860   20.3740   31.7110 O   0  0  0  0  0  0  0  0  0  0  0  0
   35.9900   19.7350   31.1790 C   0  0  0  0  0  3  0  0  0  0  0  0
   36.0030   18.7150   31.6180 H   0  0  0  0  0  0  0  0  0  0  0  0
   37.7140   21.2900   30.4940 O   0  0  0  0  0  0  0  0  0  0  0  0
   37.3560   21.0490   29.6030 H   0  0  0  0  0  0  0  0  0  0  0  0
  1  2  1  0  0  0  0
  2  8  1  0  0  0  0
  2  3  2  0  0  0  0
  3  9  1  0  0  0  0
  4  3  1  0  0  0  0
  5  4  2  0  0  0  0
  6  1  2  0  0  0  0
  6  5  1  0  0  0  0
  7  1  1  0  0  0  0
  9 10  2  0  0  0  0
  9 14  1  0  0  0  0
 10 11  1  0  0  0  0
 11 16  1  0  0  0  0
 11 12  2  0  0  0  0
 13 12  1  0  0  0  0
 13 17  1  0  0  0  0
 14 13  2  0  0  0  0
 15 10  1  0  0  0  0
 17 19  1  0  0  0  0
 18 17  1  0  0  0  0
 20 17  1  0  0  0  0
 21  5  1  0  0  0  0
 21 24  1  0  0  0  0
 22 30  1  0  0  0  0
 23 22  1  0  0  0  0
 24 23  2  0  0  0  0
 25 24  1  0  0  0  0
 25 27  1  0  0  0  0
 26 25  2  0  0  0  0
 27 28  1  0  0  0  0
 28 22  1  0  0  0  0
 28 29  2  0  0  0  0
 31 23  1  0  0  0  0
 32 39  1  6  0  0  0
 32 33  1  0  0  0  0
 33 27  1  6  0  0  0
 33 34  1  0  0  0  0
 34 35  1  0  0  0  0
 36 34  1  0  0  0  0
 37 32  1  0  0  0  0
 37 38  1  0  0  0  0
 37 36  1  0  0  0  0
 40 39  1  0  0  0  0
M  END
>  <minimizedAffinity>
-6.38810587

$$$$

 OpenBabel03272502273D

 40 43  0  0  1  0  0  0  0  0999 V2000
   36.3840   27.2160   32.1720 C   0  0  0  0  0  0  0  0  0  0  0  0
   37.0970   26.1980   32.8200 C   0  0  0  0  0  0  0  0  0  0  0  0
   37.3390   26.3480   34.1670 C   0  0  0  0  0  0  0  0  0  0  0  0
   36.8800   27.4510   34.7670 N   0  0  0  0  0  0  0  0  0  0  0  0
   36.1930   28.4290   34.1370 C   0  0  0  0  0  0  0  0  0  0  0  0
   35.9510   28.2970   32.8300 N   0  0  0  0  0  0  0  0  0  0  0  0
   36.2000   27.0860   31.1130 H   0  0  0  0  0  0  0  0  0  0  0  0
   37.4590   25.3130   32.3150 H   0  0  0  0  0  0  0  0  0  0  0  0
   38.0600   25.3690   34.9550 C   0  0  0  0  0  0  0  0  0  0  0  0
   39.0690   24.5970   34.3810 C   0  0  0  0  0  0  0  0  0  0  0  0
   39.7830   23.6560   35.0840 C   0  0  0  0  0  0  0  0  0  0  0  0
   39.5040   23.4590   36.3930 N   0  0  0  0  0  0  0  0  0  0  0  0
   38.5290   24.2110   36.9300 C   0  0  0  0  0  0  0  0  0  0  0  0
   37.8160   25.1380   36.2620 N   0  0  0  0  0  0  0  0  0  0  0  0
   39.2910   24.7540   33.3400 H   0  0  0  0  0  0  0  0  0  0  0  0
   40.5580   23.0900   34.5680 H   0  0  0  0  0  0  0  0  0  0  0  0
   38.1970   24.0200   38.3660 C   0  0  0  0  0  0  0  0  0  0  0  0
   39.3420   23.4760   38.9920 F   0  0  0  0  0  0  0  0  0  0  0  0
   37.8230   25.1870   38.9570 F   0  0  0  0  0  0  0  0  0  0  0  0
   37.2170   23.0560   38.5410 F   0  0  0  0  0  0  0  0  0  0  0  0
   35.7900   29.5070   34.9080 O   0  0  0  0  0  0  0  0  0  0  0  0
   33.7190   32.1360   33.4040 N   0  0  0  0  0  0  0  0  0  0  0  0
   34.8430   31.4820   33.7220 C   0  0  0  0  0  0  0  0  0  0  0  0
   34.7620   30.3190   34.4790 C   0  0  0  0  0  0  0  0  0  0  0  0
   33.5190   29.8690   34.8840 C   0  0  0  0  0  0  0  0  0  0  0  0
   33.2270   28.8470   35.5690 O   0  0  0  0  0  0  0  0  0  0  0  0
   32.4120   30.5780   34.5300 N   0  0  0  0  0  0  0  0  0  0  0  0
   32.5050   31.6980   33.7990 C   0  0  0  0  0  0  0  0  0  0  0  0
   31.5060   32.3860   33.4480 O   0  0  0  0  0  0  0  0  0  0  0  0
   33.8560   33.0000   32.8350 H   0  0  0  0  0  0  0  0  0  0  0  0
   35.8330   31.7630   33.4490 H   0  0  0  0  0  0  0  0  0  0  0  0
   30.7140   30.4540   36.3200 C   0  0  1  0  0  3  0  0  0  0  0  0
   31.0700   30.2100   34.8920 C   0  0  2  0  0  3  0  0  0  0  0  0
   30.7450   28.7650   34.6450 C   0  0  0  0  0  3  0  0  0  0  0  0
   29.7750   28.6870   34.1020 H   0  0  0  0  0  0  0  0  0  0  0  0
   30.5360   28.1720   35.8740 O   0  0  0  0  0  0  0  0  0  0  0  0
   30.0870   29.1510   36.7420 C   0  0  0  0  0  3  0  0  0  0  0  0
   28.9790   29.1500   36.6670 H   0  0  0  0  0  0  0  0  0  0  0  0
   31.7440   30.8730   37.1250 O   0  0  0  0  0  0  0  0  0  0  0  0
   31.8220   30.3850   37.9830 H   0  0  0  0  0  0  0  0  0  0  0  0
  1  2  2  0  0  0  0
  1  6  1  0  0  0  0
  2  3  1  0  0  0  0
  3  4  2  0  0  0  0
  3  9  1  0  0  0  0
  5  4  1  0  0  0  0
  5 21  1  0  0  0  0
  6  5  2  0  0  0  0
  7  1  1  0  0  0  0
  8  2  1  0  0  0  0
  9 14  1  0  0  0  0
 10  9  2  0  0  0  0
 10 11  1  0  0  0  0
 11 12  2  0  0  0  0
 12 13  1  0  0  0  0
 13 17  1  0  0  0  0
 14 13  2  0  0  0  0
 15 10  1  0  0  0  0
 16 11  1  0  0  0  0
 17 20  1  0  0  0  0
 17 19  1  0  0  0  0
 17 18  1  0  0  0  0
 22 23  1  0  0  0  0
 22 28  1  0  0  0  0
 23 24  2  0  0  0  0
 24 25  1  0  0  0  0
 24 21  1  0  0  0  0
 25 26  2  0  0  0  0
 27 25  1  0  0  0  0
 28 27  1  0  0  0  0
 29 28  2  0  0  0  0
 30 22  1  0  0  0  0
 31 23  1  0  0  0  0
 32 37  1  0  0  0  0
 32 39  1  1  0  0  0
 33 27  1  1  0  0  0
 33 32  1  0  0  0  0
 34 33  1  0  0  0  0
 34 36  1  0  0  0  0
 35 34  1  0  0  0  0
 36 37  1  0  0  0  0
 38 37  1  0  0  0  0
 39 40  1  0  0  0  0
M  END
>  <minimizedAffinity>
-6.38296223

$$$$

 OpenBabel03272502273D

 40 43  0  0  1  0  0  0  0  0999 V2000
   39.0630   27.2240   32.0370 C   0  0  0  0  0  0  0  0  0  0  0  0
   39.2100   26.0940   32.8530 C   0  0  0  0  0  0  0  0  0  0  0  0
   38.1150   25.6890   33.5820 C   0  0  0  0  0  0  0  0  0  0  0  0
   36.9870   26.3980   33.4640 N   0  0  0  0  0  0  0  0  0  0  0  0
   36.8520   27.4860   32.6760 C   0  0  0  0  0  0  0  0  0  0  0  0
   37.9060   27.8910   31.9630 N   0  0  0  0  0  0  0  0  0  0  0  0
   39.9320   27.5340   31.4680 H   0  0  0  0  0  0  0  0  0  0  0  0
   40.1320   25.5350   32.9320 H   0  0  0  0  0  0  0  0  0  0  0  0
   38.1310   24.5360   34.4590 C   0  0  0  0  0  0  0  0  0  0  0  0
   38.0550   23.2450   33.9390 C   0  0  0  0  0  0  0  0  0  0  0  0
   38.0680   22.1190   34.7260 C   0  0  0  0  0  0  0  0  0  0  0  0
   38.1570   22.2540   36.0700 N   0  0  0  0  0  0  0  0  0  0  0  0
   38.2300   23.5050   36.5540 C   0  0  0  0  0  0  0  0  0  0  0  0
   38.2200   24.6220   35.8030 N   0  0  0  0  0  0  0  0  0  0  0  0
   37.9830   23.1380   32.8700 H   0  0  0  0  0  0  0  0  0  0  0  0
   38.0040   21.1420   34.2490 H   0  0  0  0  0  0  0  0  0  0  0  0
   38.3300   23.6900   38.0250 C   0  0  0  0  0  0  0  0  0  0  0  0
   37.2860   22.9390   38.6140 F   0  0  0  0  0  0  0  0  0  0  0  0
   39.5430   23.2990   38.5010 F   0  0  0  0  0  0  0  0  0  0  0  0
   38.0650   24.9980   38.3960 F   0  0  0  0  0  0  0  0  0  0  0  0
   35.6130   28.1050   32.6710 O   0  0  0  0  0  0  0  0  0  0  0  0
   35.7030   30.6300   35.3310 N   0  0  0  0  0  0  0  0  0  0  0  0
   36.1830   29.6960   34.4990 C   0  0  0  0  0  0  0  0  0  0  0  0
   35.3210   29.0800   33.6000 C   0  0  0  0  0  0  0  0  0  0  0  0
   33.9890   29.4490   33.5890 C   0  0  0  0  0  0  0  0  0  0  0  0
   33.0490   29.0190   32.8590 O   0  0  0  0  0  0  0  0  0  0  0  0
   33.5610   30.4050   34.4580 N   0  0  0  0  0  0  0  0  0  0  0  0
   34.4030   30.9910   35.3210 C   0  0  0  0  0  0  0  0  0  0  0  0
   34.0490   31.8810   36.1440 O   0  0  0  0  0  0  0  0  0  0  0  0
   36.4060   31.0490   35.9780 H   0  0  0  0  0  0  0  0  0  0  0  0
   37.1910   29.3580   34.4470 H   0  0  0  0  0  0  0  0  0  0  0  0
   31.2610   29.9450   35.2370 C   0  0  1  0  0  3  0  0  0  0  0  0
   32.2020   30.8700   34.5390 C   0  0  2  0  0  3  0  0  0  0  0  0
   31.5700   31.1440   33.2060 C   0  0  0  0  0  3  0  0  0  0  0  0
   31.0780   32.1440   33.2230 H   0  0  0  0  0  0  0  0  0  0  0  0
   30.5510   30.2280   33.0350 O   0  0  0  0  0  0  0  0  0  0  0  0
   30.0930   29.8690   34.2890 C   0  0  0  0  0  3  0  0  0  0  0  0
   29.2760   30.5780   34.5390 H   0  0  0  0  0  0  0  0  0  0  0  0
   31.7820   28.7260   35.5930 O   0  0  0  0  0  0  0  0  0  0  0  0
   31.2180   27.9490   35.3500 H   0  0  0  0  0  0  0  0  0  0  0  0
  1  2  1  0  0  0  0
  2  8  1  0  0  0  0
  2  3  2  0  0  0  0
  3  9  1  0  0  0  0
  4  3  1  0  0  0  0
  5  4  2  0  0  0  0
  6  1  2  0  0  0  0
  6  5  1  0  0  0  0
  7  1  1  0  0  0  0
  9 14  1  0  0  0  0
 10  9  2  0  0  0  0
 10 11  1  0  0  0  0
 11 12  2  0  0  0  0
 12 13  1  0  0  0  0
 13 17  1  0  0  0  0
 14 13  2  0  0  0  0
 15 10  1  0  0  0  0
 16 11  1  0  0  0  0
 17 20  1  0  0  0  0
 17 19  1  0  0  0  0
 17 18  1  0  0  0  0
 21  5  1  0  0  0  0
 21 24  1  0  0  0  0
 22 30  1  0  0  0  0
 23 22  1  0  0  0  0
 24 23  2  0  0  0  0
 25 24  1  0  0  0  0
 25 27  1  0  0  0  0
 26 25  2  0  0  0  0
 27 28  1  0  0  0  0
 28 22  1  0  0  0  0
 28 29  2  0  0  0  0
 31 23  1  0  0  0  0
 32 39  1  6  0  0  0
 33 27  1  6  0  0  0
 33 32  1  0  0  0  0
 34 35  1  0  0  0  0
 34 33  1  0  0  0  0
 36 34  1  0  0  0  0
 36 37  1  0  0  0  0
 37 38  1  0  0  0  0
 37 32  1  0  0  0  0
 40 39  1  0  0  0  0
M  END
>  <minimizedAffinity>
-6.30023718

$$$$
