
     RDKit          3D

 28 29  0  0  0  0  0  0  0  0999 V2000
   37.3476   30.1428   51.3584 C   0  0  0  0  0  0  0  0  0  0  0  0
   38.0070   30.4938   50.1648 C   0  0  0  0  0  0  0  0  0  0  0  0
   37.4230   30.1460   48.9528 C   0  0  0  0  0  0  0  0  0  0  0  0
   36.2267   29.4748   48.9994 N   0  0  0  0  0  0  0  0  0  0  0  0
   35.6303   29.1586   50.1533 C   0  0  0  0  0  0  0  0  0  0  0  0
   36.1885   29.4911   51.3216 N   0  0  0  0  0  0  0  0  0  0  0  0
   37.8626   30.3726   47.6973 O   0  0  0  0  0  0  0  0  0  0  0  0
   39.0428   32.7354   48.1366 O   0  0  0  0  0  0  0  0  0  0  0  0
   38.7024   31.7165   47.1091 P   0  0  2  0  0  0  0  0  0  0  0  0
   37.8249   32.4462   45.8438 O   0  0  0  0  0  0  0  0  0  0  0  0
   40.1643   31.1942   46.4161 O   0  0  0  0  0  0  0  0  0  0  0  0
   37.8635   30.4475   52.2733 H   0  0  0  0  0  0  0  0  0  0  0  0
   38.9413   31.0171   50.0724 H   0  0  0  0  0  0  0  0  0  0  0  0
   34.6744   28.6218   50.1657 H   0  0  0  0  0  0  0  0  0  0  0  0
   37.8639   31.8531   45.0451 H   0  0  0  0  0  0  0  0  0  0  0  0
   43.2412   32.7862   45.8040 O   0  0  0  0  0  0  0  0  0  0  0  0
   42.1078   32.1266   45.3337 C   0  0  1  0  0  0  0  0  0  0  0  0
   40.9661   32.3303   46.2743 C   0  0  1  0  0  0  0  0  0  0  0  0
   40.2094   33.4923   45.7006 C   0  0  2  0  0  0  0  0  0  0  0  0
   40.2243   34.3646   46.3918 H   0  0  0  0  0  0  0  0  0  0  0  0
   40.7944   33.8805   44.5195 O   0  0  0  0  0  0  0  0  0  0  0  0
   41.6410   32.8802   44.1006 C   0  0  1  0  0  0  0  0  0  0  0  0
   42.5488   33.3025   43.6019 H   0  0  0  0  0  0  0  0  0  0  0  0
   44.0592   32.5334   45.3073 H   0  0  0  0  0  0  0  0  0  0  0  0
   42.2758   31.0529   45.1120 H   0  0  0  0  0  0  0  0  0  0  0  0
   41.3588   32.6212   47.2684 H   0  0  0  0  0  0  0  0  0  0  0  0
   39.1315   33.1899   45.5620 H   0  0  0  0  0  0  0  0  0  0  0  0
   41.1521   32.1623   43.4024 H   0  0  0  0  0  0  0  0  0  0  0  0
  2  1  2  0
  3  4  2  0
  3  2  1  0
  4  5  1  0
  5  6  2  0
  6  1  1  0
  7  3  1  0
  9  7  1  1
  9  8  2  0
 10  9  1  0
 11  9  1  0
  1 12  1  0
  2 13  1  0
  5 14  1  0
 10 15  1  0
 16 17  1  0
 17 18  1  0
 18 19  1  0
 19 20  1  1
 19 21  1  0
 21 22  1  0
 22 23  1  6
 22 17  1  0
 16 24  1  0
 17 25  1  6
 18 26  1  1
 19 27  1  0
 22 28  1  0
 11 18  1  0
M  ISO  6  12  14  13  14  14  14  15   3  20  15  23  16
M  END
>  <DihAtoms>  (1) 
8,10,17,16

>  <DihDeg>  (1) 
121.74510532440894

$$$$
