
 OpenBabel03272509453D

 19 20  0  0  1  0  0  0  0  0999 V2000
   35.3450   28.8150   48.4180 O   0  0  0  0  0  0  0  0  0  0  0  0
   37.2280   30.0110   51.2880 C   0  0  0  0  0  0  0  0  0  0  0  0
   38.1820   30.8100   50.6280 C   0  0  0  0  0  0  0  0  0  0  0  0
   38.1350   30.9030   49.2260 C   0  0  0  0  0  0  0  0  0  0  0  0
   37.1480   30.1970   48.5950 N   0  0  0  0  0  0  0  0  0  0  0  0
   36.2520   29.4420   49.2520 C   0  0  0  0  0  0  0  0  0  0  0  0
   36.2870   29.3460   50.5980 N   0  0  0  0  0  0  0  0  0  0  0  0
   37.2730   29.9470   52.3740 H   0  0  0  0  0  0  0  0  0  0  0  0
   38.9570   31.3640   51.1450 H   0  0  0  0  0  0  0  0  0  0  0  0
   38.8290   31.4930   48.6580 H   0  0  0  0  0  0  0  0  0  0  0  0
   33.7670   29.9660   47.1000 C   0  0  2  0  0  3  0  0  0  0  0  0
   33.9700   29.1400   48.3520 C   0  0  1  0  0  3  0  0  0  0  0  0
   33.1220   27.9120   48.0550 C   0  0  0  0  0  3  0  0  0  0  0  0
   32.0630   28.1650   48.2920 H   0  0  0  0  0  0  0  0  0  0  0  0
   33.3020   27.7580   46.6620 O   0  0  0  0  0  0  0  0  0  0  0  0
   32.9700   29.0280   46.2190 C   0  0  0  0  0  3  0  0  0  0  0  0
   31.8890   29.1740   46.4210 H   0  0  0  0  0  0  0  0  0  0  0  0
   34.9380   30.4040   46.5330 O   0  0  0  0  0  0  0  0  0  0  0  0
   35.2400   29.8340   45.7720 H   0  0  0  0  0  0  0  0  0  0  0  0
  1  6  1  0  0  0  0
  2  8  1  0  0  0  0
  3  9  1  0  0  0  0
  3  2  1  0  0  0  0
  4  3  2  0  0  0  0
  5  4  1  0  0  0  0
  5  6  2  0  0  0  0
  6  7  1  0  0  0  0
  7  2  2  0  0  0  0
 10  4  1  0  0  0  0
 11 18  1  6  0  0  0
 11 12  1  0  0  0  0
 12  1  1  6  0  0  0
 13 14  1  0  0  0  0
 13 12  1  0  0  0  0
 15 13  1  0  0  0  0
 16 17  1  0  0  0  0
 16 15  1  0  0  0  0
 16 11  1  0  0  0  0
 19 18  1  0  0  0  0
M  END
>  <minimizedAffinity>
-3.86352682

>  <minimizedRMSD>
2.57014942

$$$$
