
 OpenBabel03272506403D

 19 20  0  0  1  0  0  0  0  0999 V2000
   34.5100   28.2940   49.3570 S   0  0  0  0  0  0  0  0  0  0  0  0
   37.2990   30.1900   51.4290 C   0  0  0  0  0  0  0  0  0  0  0  0
   38.1420   30.7650   50.4770 C   0  0  0  0  0  0  0  0  0  0  0  0
   37.8390   30.5580   49.1240 C   0  0  0  0  0  0  0  0  0  0  0  0
   36.7370   29.8100   48.8280 N   0  0  0  0  0  0  0  0  0  0  0  0
   35.9530   29.2750   49.7680 C   0  0  0  0  0  0  0  0  0  0  0  0
   36.2260   29.4620   51.0610 N   0  0  0  0  0  0  0  0  0  0  0  0
   37.5180   30.3390   52.4800 H   0  0  0  0  0  0  0  0  0  0  0  0
   39.0080   31.3540   50.7710 H   0  0  0  0  0  0  0  0  0  0  0  0
   38.4770   30.9930   48.3660 H   0  0  0  0  0  0  0  0  0  0  0  0
   33.1830   29.3890   47.1640 C   0  0  2  0  0  0  0  0  0  0  0  0
   34.2510   28.4140   47.6100 C   0  0  2  0  0  0  0  0  0  0  0  0
   33.6690   27.1480   46.9910 C   0  0  0  0  0  0  0  0  0  0  0  0
   34.4570   26.3670   46.9560 H   0  0  0  0  0  0  0  0  0  0  0  0
   33.1920   27.5290   45.7430 O   0  0  0  0  0  0  0  0  0  0  0  0
   33.0930   28.9140   45.7100 C   0  0  0  0  0  0  0  0  0  0  0  0
   32.2300   29.3090   45.1770 H   0  0  0  0  0  0  0  0  0  0  0  0
   33.5990   30.7000   47.1350 O   0  0  0  0  0  0  0  0  0  0  0  0
   34.2700   30.8520   47.8540 H   0  0  0  0  0  0  0  0  0  0  0  0
  1  6  1  0  0  0  0
  2  8  1  0  0  0  0
  3  9  1  0  0  0  0
  3  2  2  0  0  0  0
  4  3  1  0  0  0  0
  5  4  2  0  0  0  0
  5  6  1  0  0  0  0
  6  7  2  0  0  0  0
  7  2  1  0  0  0  0
 10  4  1  0  0  0  0
 11 18  1  6  0  0  0
 11 12  1  0  0  0  0
 12  1  1  1  0  0  0
 13 12  1  0  0  0  0
 14 13  1  0  0  0  0
 15 13  1  0  0  0  0
 16 15  1  0  0  0  0
 16 11  1  0  0  0  0
 17 16  1  0  0  0  0
 18 19  1  0  0  0  0
M  END
>  <minimizedAffinity>
-4.11298466

>  <minimizedRMSD>
0.543598473

$$$$
