
 OpenBabel03272505443D

 24 25  0  0  1  0  0  0  0  0999 V2000
   40.7830   26.8000   34.7270 O   0  0  0  0  0  0  0  0  0  0  0  0
   39.2630   26.7580   34.7580 P   0  0  2  0  0  0  0  0  0  0  0  0
   38.7930   27.7090   36.0810 O   0  0  0  0  0  0  0  0  0  0  0  0
   38.9340   27.1120   36.8830 H   0  0  0  0  0  0  0  0  0  0  0  0
   38.7820   25.1320   34.9520 O   0  0  0  0  0  0  0  0  0  0  0  0
   39.7420   22.8250   37.6190 C   0  0  0  0  0  0  0  0  0  0  0  0
   38.8300   23.2430   38.6300 C   0  0  0  0  0  0  0  0  0  0  0  0
   37.9480   24.2890   38.3250 C   0  0  0  0  0  0  0  0  0  0  0  0
   38.0200   24.8340   37.0890 N   0  0  0  0  0  0  0  0  0  0  0  0
   38.8870   24.4310   36.1410 C   0  0  0  0  0  0  0  0  0  0  0  0
   39.7440   23.4240   36.4180 N   0  0  0  0  0  0  0  0  0  0  0  0
   40.4490   22.0150   37.8070 H   0  0  0  0  0  0  0  0  0  0  0  0
   38.8300   22.7650   39.5840 H   0  0  0  0  0  0  0  0  0  0  0  0
   37.2330   24.6440   39.0610 H   0  0  0  0  0  0  0  0  0  0  0  0
   38.7000   27.4680   33.3590 O   0  0  0  0  0  0  0  0  0  0  0  0
   37.2460   26.0880   32.0280 C   0  0  2  0  0  3  0  0  0  0  0  0
   37.3690   27.1130   33.1360 C   0  0  2  0  0  3  0  0  0  0  0  0
   36.5270   28.2570   32.6580 C   0  0  0  0  0  3  0  0  0  0  0  0
   37.0220   28.9200   31.9240 H   0  0  0  0  0  0  0  0  0  0  0  0
   35.5050   27.5920   31.9530 O   0  0  0  0  0  0  0  0  0  0  0  0
   36.2170   26.7070   31.1280 C   0  0  0  0  0  3  0  0  0  0  0  0
   35.5300   25.9550   30.7100 H   0  0  0  0  0  0  0  0  0  0  0  0
   36.7350   24.8690   32.4850 O   0  0  0  0  0  0  0  0  0  0  0  0
   35.9020   24.9940   32.9940 H   0  0  0  0  0  0  0  0  0  0  0  0
  2  1  2  6  0  0  0
  2  5  1  0  0  0  0
  2  3  1  0  0  0  0
  3  4  1  0  0  0  0
  5 10  1  0  0  0  0
  6 12  1  0  0  0  0
  6  7  1  0  0  0  0
  7 13  1  0  0  0  0
  8  7  2  0  0  0  0
  8 14  1  0  0  0  0
  9  8  1  0  0  0  0
 10 11  1  0  0  0  0
 10  9  2  0  0  0  0
 11  6  2  0  0  0  0
 15  2  1  0  0  0  0
 16 23  1  1  0  0  0
 16 17  1  0  0  0  0
 17 15  1  6  0  0  0
 18 17  1  0  0  0  0
 19 18  1  0  0  0  0
 20 18  1  0  0  0  0
 21 20  1  0  0  0  0
 21 16  1  0  0  0  0
 22 21  1  0  0  0  0
 23 24  1  0  0  0  0
M  END
>  <minimizedAffinity>
-4.70865774

$$$$

 OpenBabel03272505443D

 24 25  0  0  1  0  0  0  0  0999 V2000
   39.3840   26.9480   32.8960 O   0  0  0  0  0  0  0  0  0  0  0  0
   38.5220   26.3490   33.9960 P   0  0  2  0  0  0  0  0  0  0  0  0
   38.6310   27.4130   35.3120 O   0  0  0  0  0  0  0  0  0  0  0  0
   39.5190   27.1930   35.7400 H   0  0  0  0  0  0  0  0  0  0  0  0
   39.1490   24.8090   34.3810 O   0  0  0  0  0  0  0  0  0  0  0  0
   39.8130   22.8750   37.4100 C   0  0  0  0  0  0  0  0  0  0  0  0
   38.7530   23.3550   38.2320 C   0  0  0  0  0  0  0  0  0  0  0  0
   37.8840   24.3110   37.6870 C   0  0  0  0  0  0  0  0  0  0  0  0
   38.1080   24.7140   36.4160 N   0  0  0  0  0  0  0  0  0  0  0  0
   39.1130   24.2540   35.6490 C   0  0  0  0  0  0  0  0  0  0  0  0
   39.9610   23.3330   36.1570 N   0  0  0  0  0  0  0  0  0  0  0  0
   40.5180   22.1320   37.7880 H   0  0  0  0  0  0  0  0  0  0  0  0
   38.6380   22.9910   39.2270 H   0  0  0  0  0  0  0  0  0  0  0  0
   37.0600   24.7080   38.2720 H   0  0  0  0  0  0  0  0  0  0  0  0
   36.9440   26.3210   33.4560 O   0  0  0  0  0  0  0  0  0  0  0  0
   35.7260   26.4200   31.3850 C   0  0  2  0  0  3  0  0  0  0  0  0
   36.8840   25.8230   32.1550 C   0  0  2  0  0  3  0  0  0  0  0  0
   36.6260   24.3480   32.1000 C   0  0  0  0  0  3  0  0  0  0  0  0
   35.8860   23.9810   32.8360 H   0  0  0  0  0  0  0  0  0  0  0  0
   36.0210   24.2040   30.8370 O   0  0  0  0  0  0  0  0  0  0  0  0
   35.0350   25.2020   30.8450 C   0  0  0  0  0  3  0  0  0  0  0  0
   34.6570   25.3620   29.8230 H   0  0  0  0  0  0  0  0  0  0  0  0
   36.1500   27.1880   30.2950 O   0  0  0  0  0  0  0  0  0  0  0  0
   36.7800   26.6910   29.7260 H   0  0  0  0  0  0  0  0  0  0  0  0
  2  1  2  6  0  0  0
  2  5  1  0  0  0  0
  2  3  1  0  0  0  0
  3  4  1  0  0  0  0
  5 10  1  0  0  0  0
  6 12  1  0  0  0  0
  6  7  1  0  0  0  0
  7 13  1  0  0  0  0
  8  7  2  0  0  0  0
  8 14  1  0  0  0  0
  9  8  1  0  0  0  0
 10 11  1  0  0  0  0
 10  9  2  0  0  0  0
 11  6  2  0  0  0  0
 15  2  1  0  0  0  0
 16 23  1  6  0  0  0
 16 17  1  0  0  0  0
 17 15  1  1  0  0  0
 18 17  1  0  0  0  0
 18 19  1  0  0  0  0
 20 21  1  0  0  0  0
 20 18  1  0  0  0  0
 21 16  1  0  0  0  0
 22 21  1  0  0  0  0
 24 23  1  0  0  0  0
M  END
>  <minimizedAffinity>
-4.56272888

$$$$

 OpenBabel03272505443D

 24 25  0  0  1  0  0  0  0  0999 V2000
   35.2230   24.6490   31.4330 O   0  0  0  0  0  0  0  0  0  0  0  0
   36.7200   24.5610   31.6830 P   0  0  2  0  0  0  0  0  0  0  0  0
   37.4410   24.3610   30.1610 O   0  0  0  0  0  0  0  0  0  0  0  0
   37.3100   23.3840   29.9460 H   0  0  0  0  0  0  0  0  0  0  0  0
   37.0100   23.2170   32.6940 O   0  0  0  0  0  0  0  0  0  0  0  0
   35.4820   19.9100   32.9950 C   0  0  0  0  0  0  0  0  0  0  0  0
   35.6110   19.4690   31.6470 C   0  0  0  0  0  0  0  0  0  0  0  0
   36.2140   20.3390   30.7290 C   0  0  0  0  0  0  0  0  0  0  0  0
   36.6350   21.5410   31.1820 N   0  0  0  0  0  0  0  0  0  0  0  0
   36.5080   21.9480   32.4590 C   0  0  0  0  0  0  0  0  0  0  0  0
   35.9290   21.1230   33.3570 N   0  0  0  0  0  0  0  0  0  0  0  0
   35.0190   19.2700   33.7490 H   0  0  0  0  0  0  0  0  0  0  0  0
   35.2550   18.5050   31.3610 H   0  0  0  0  0  0  0  0  0  0  0  0
   36.3370   20.0500   29.6890 H   0  0  0  0  0  0  0  0  0  0  0  0
   37.2220   26.0140   32.3290 O   0  0  0  0  0  0  0  0  0  0  0  0
   37.1210   27.8160   30.7380 C   0  0  2  0  0  3  0  0  0  0  0  0
   36.4290   27.0570   31.8510 C   0  0  2  0  0  3  0  0  0  0  0  0
   36.1550   28.1090   32.8820 C   0  0  0  0  0  3  0  0  0  0  0  0
   37.0180   28.3610   33.5260 H   0  0  0  0  0  0  0  0  0  0  0  0
   35.9220   29.2460   32.0840 O   0  0  0  0  0  0  0  0  0  0  0  0
   37.0120   29.2390   31.2010 C   0  0  0  0  0  3  0  0  0  0  0  0
   36.8190   29.9300   30.3650 H   0  0  0  0  0  0  0  0  0  0  0  0
   36.4430   27.7100   29.5190 O   0  0  0  0  0  0  0  0  0  0  0  0
   35.4910   27.9410   29.6140 H   0  0  0  0  0  0  0  0  0  0  0  0
  2  1  2  6  0  0  0
  2 15  1  0  0  0  0
  2  5  1  0  0  0  0
  3  2  1  0  0  0  0
  4  3  1  0  0  0  0
  6 11  1  0  0  0  0
  6 12  1  0  0  0  0
  7  6  2  0  0  0  0
  8  9  2  0  0  0  0
  8  7  1  0  0  0  0
  9 10  1  0  0  0  0
 10  5  1  0  0  0  0
 10 11  2  0  0  0  0
 13  7  1  0  0  0  0
 14  8  1  0  0  0  0
 16 23  1  6  0  0  0
 16 21  1  0  0  0  0
 16 17  1  0  0  0  0
 17 15  1  1  0  0  0
 17 18  1  0  0  0  0
 18 19  1  0  0  0  0
 20 18  1  0  0  0  0
 21 20  1  0  0  0  0
 22 21  1  0  0  0  0
 23 24  1  0  0  0  0
M  END
>  <minimizedAffinity>
-4.23776484

$$$$

 OpenBabel03272505443D

 24 25  0  0  1  0  0  0  0  0999 V2000
   35.1640   24.4960   31.5030 O   0  0  0  0  0  0  0  0  0  0  0  0
   36.6270   24.7200   31.8490 P   0  0  2  0  0  0  0  0  0  0  0  0
   37.4090   25.0750   30.3860 O   0  0  0  0  0  0  0  0  0  0  0  0
   37.5390   24.1760   29.9460 H   0  0  0  0  0  0  0  0  0  0  0  0
   37.2310   23.2860   32.5500 O   0  0  0  0  0  0  0  0  0  0  0  0
   35.4840   20.1210   33.0840 C   0  0  0  0  0  0  0  0  0  0  0  0
   35.5590   19.5870   31.7660 C   0  0  0  0  0  0  0  0  0  0  0  0
   36.2040   20.3520   30.7850 C   0  0  0  0  0  0  0  0  0  0  0  0
   36.7150   21.5480   31.1540 N   0  0  0  0  0  0  0  0  0  0  0  0
   36.6390   22.0440   32.4040 C   0  0  0  0  0  0  0  0  0  0  0  0
   36.0200   21.3200   33.3610 N   0  0  0  0  0  0  0  0  0  0  0  0
   34.9900   19.5640   33.8830 H   0  0  0  0  0  0  0  0  0  0  0  0
   35.1320   18.6340   31.5470 H   0  0  0  0  0  0  0  0  0  0  0  0
   36.2890   19.9890   29.7650 H   0  0  0  0  0  0  0  0  0  0  0  0
   36.7220   26.0530   32.8470 O   0  0  0  0  0  0  0  0  0  0  0  0
   37.4810   26.2460   35.1210 C   0  0  2  0  0  3  0  0  0  0  0  0
   37.8380   25.9580   33.6790 C   0  0  2  0  0  3  0  0  0  0  0  0
   38.8950   26.9730   33.3640 C   0  0  0  0  0  3  0  0  0  0  0  0
   38.5100   27.9800   33.1180 H   0  0  0  0  0  0  0  0  0  0  0  0
   39.5530   27.1020   34.6020 O   0  0  0  0  0  0  0  0  0  0  0  0
   38.4940   27.2850   35.5040 C   0  0  0  0  0  3  0  0  0  0  0  0
   38.8550   27.1470   36.5350 H   0  0  0  0  0  0  0  0  0  0  0  0
   37.6750   25.1350   35.9500 O   0  0  0  0  0  0  0  0  0  0  0  0
   38.5760   24.7560   35.8410 H   0  0  0  0  0  0  0  0  0  0  0  0
  2  1  2  6  0  0  0
  2  5  1  0  0  0  0
  2 15  1  0  0  0  0
  3  2  1  0  0  0  0
  4  3  1  0  0  0  0
  6 11  1  0  0  0  0
  6 12  1  0  0  0  0
  7  6  2  0  0  0  0
  8  9  2  0  0  0  0
  8  7  1  0  0  0  0
  9 10  1  0  0  0  0
 10  5  1  0  0  0  0
 10 11  2  0  0  0  0
 13  7  1  0  0  0  0
 14  8  1  0  0  0  0
 16 21  1  0  0  0  0
 16 23  1  1  0  0  0
 17 15  1  6  0  0  0
 17 16  1  0  0  0  0
 18 17  1  0  0  0  0
 18 20  1  0  0  0  0
 19 18  1  0  0  0  0
 20 21  1  0  0  0  0
 21 22  1  0  0  0  0
 24 23  1  0  0  0  0
M  END
>  <minimizedAffinity>
-4.15061951

$$$$

 OpenBabel03272505443D

 24 25  0  0  1  0  0  0  0  0999 V2000
   39.3200   27.1700   35.5590 O   0  0  0  0  0  0  0  0  0  0  0  0
   38.0020   26.7950   34.8990 P   0  0  2  0  0  0  0  0  0  0  0  0
   36.9950   28.1520   35.0540 O   0  0  0  0  0  0  0  0  0  0  0  0
   36.6570   28.1060   36.0040 H   0  0  0  0  0  0  0  0  0  0  0  0
   37.3630   25.4430   35.7210 O   0  0  0  0  0  0  0  0  0  0  0  0
   38.7650   23.4790   38.4660 C   0  0  0  0  0  0  0  0  0  0  0  0
   39.8090   22.8100   37.7660 C   0  0  0  0  0  0  0  0  0  0  0  0
   39.9580   23.0800   36.3990 C   0  0  0  0  0  0  0  0  0  0  0  0
   39.1010   23.9590   35.8330 N   0  0  0  0  0  0  0  0  0  0  0  0
   38.1170   24.5870   36.5040 C   0  0  0  0  0  0  0  0  0  0  0  0
   37.9590   24.3390   37.8220 N   0  0  0  0  0  0  0  0  0  0  0  0
   38.6060   23.3030   39.5320 H   0  0  0  0  0  0  0  0  0  0  0  0
   40.4480   22.1270   38.2790 H   0  0  0  0  0  0  0  0  0  0  0  0
   40.7390   22.5950   35.8200 H   0  0  0  0  0  0  0  0  0  0  0  0
   38.2940   26.5260   33.2800 O   0  0  0  0  0  0  0  0  0  0  0  0
   38.0170   24.2740   32.4800 C   0  0  2  0  0  3  0  0  0  0  0  0
   37.3730   25.6150   32.7640 C   0  0  2  0  0  3  0  0  0  0  0  0
   36.8130   26.0290   31.4370 C   0  0  0  0  0  3  0  0  0  0  0  0
   37.5500   26.4770   30.7440 H   0  0  0  0  0  0  0  0  0  0  0  0
   36.4520   24.7900   30.8730 O   0  0  0  0  0  0  0  0  0  0  0  0
   37.6040   24.0120   31.0620 C   0  0  0  0  0  3  0  0  0  0  0  0
   37.3680   22.9500   30.8920 H   0  0  0  0  0  0  0  0  0  0  0  0
   37.4890   23.2510   33.2750 O   0  0  0  0  0  0  0  0  0  0  0  0
   36.5060   23.2280   33.2290 H   0  0  0  0  0  0  0  0  0  0  0  0
  2  3  1  0  0  0  0
  2  1  2  1  0  0  0
  2  5  1  0  0  0  0
  3  4  1  0  0  0  0
  5 10  1  0  0  0  0
  6 12  1  0  0  0  0
  7 13  1  0  0  0  0
  7  6  2  0  0  0  0
  8  7  1  0  0  0  0
  9  8  2  0  0  0  0
  9 10  1  0  0  0  0
 10 11  2  0  0  0  0
 11  6  1  0  0  0  0
 14  8  1  0  0  0  0
 15  2  1  0  0  0  0
 16 17  1  0  0  0  0
 16 23  1  1  0  0  0
 17 15  1  6  0  0  0
 18 17  1  0  0  0  0
 19 18  1  0  0  0  0
 20 21  1  0  0  0  0
 20 18  1  0  0  0  0
 21 16  1  0  0  0  0
 22 21  1  0  0  0  0
 24 23  1  0  0  0  0
M  END
>  <minimizedAffinity>
-4.13351679

$$$$

 OpenBabel03272505443D

 24 25  0  0  1  0  0  0  0  0999 V2000
   38.4300   21.8890   35.9070 O   0  0  0  0  0  0  0  0  0  0  0  0
   39.4160   22.8900   36.4900 P   0  0  2  0  0  0  0  0  0  0  0  0
   40.1200   22.1290   37.8330 O   0  0  0  0  0  0  0  0  0  0  0  0
   39.4300   22.2200   38.5640 H   0  0  0  0  0  0  0  0  0  0  0  0
   38.5460   24.2860   36.9450 O   0  0  0  0  0  0  0  0  0  0  0  0
   38.1090   27.5940   35.4530 C   0  0  0  0  0  0  0  0  0  0  0  0
   37.6750   27.2080   34.1530 C   0  0  0  0  0  0  0  0  0  0  0  0
   37.5630   25.8390   33.8790 C   0  0  0  0  0  0  0  0  0  0  0  0
   37.8740   24.9710   34.8680 N   0  0  0  0  0  0  0  0  0  0  0  0
   38.2840   25.3460   36.0940 C   0  0  0  0  0  0  0  0  0  0  0  0
   38.3980   26.6620   36.3760 N   0  0  0  0  0  0  0  0  0  0  0  0
   38.2140   28.6480   35.7170 H   0  0  0  0  0  0  0  0  0  0  0  0
   37.4460   27.9500   33.4210 H   0  0  0  0  0  0  0  0  0  0  0  0
   37.2350   25.4930   32.9030 H   0  0  0  0  0  0  0  0  0  0  0  0
   40.5990   23.1710   35.3500 O   0  0  0  0  0  0  0  0  0  0  0  0
   41.7940   25.1700   34.7430 C   0  0  2  0  0  3  0  0  0  0  0  0
   41.4960   24.1360   35.8090 C   0  0  2  0  0  3  0  0  0  0  0  0
   42.8440   23.5740   36.1460 C   0  0  0  0  0  3  0  0  0  0  0  0
   43.2150   22.8080   35.4400 H   0  0  0  0  0  0  0  0  0  0  0  0
   43.6780   24.6960   35.9770 O   0  0  0  0  0  0  0  0  0  0  0  0
   43.2940   25.1860   34.7190 C   0  0  0  0  0  3  0  0  0  0  0  0
   43.6930   26.2030   34.5790 H   0  0  0  0  0  0  0  0  0  0  0  0
   41.3590   26.4490   35.1060 O   0  0  0  0  0  0  0  0  0  0  0  0
   41.6880   26.7040   35.9970 H   0  0  0  0  0  0  0  0  0  0  0  0
  2  1  2  6  0  0  0
  2  5  1  0  0  0  0
  2  3  1  0  0  0  0
  3  4  1  0  0  0  0
  6 12  1  0  0  0  0
  6 11  1  0  0  0  0
  7  6  2  0  0  0  0
  8  7  1  0  0  0  0
  8  9  2  0  0  0  0
  9 10  1  0  0  0  0
 10 11  2  0  0  0  0
 10  5  1  0  0  0  0
 13  7  1  0  0  0  0
 14  8  1  0  0  0  0
 15  2  1  0  0  0  0
 16 23  1  1  0  0  0
 16 17  1  0  0  0  0
 17 15  1  6  0  0  0
 17 18  1  0  0  0  0
 19 18  1  0  0  0  0
 20 18  1  0  0  0  0
 21 16  1  0  0  0  0
 21 20  1  0  0  0  0
 22 21  1  0  0  0  0
 23 24  1  0  0  0  0
M  END
>  <minimizedAffinity>
-4.1136446

$$$$

 OpenBabel03272505443D

 24 25  0  0  1  0  0  0  0  0999 V2000
   39.4280   26.6720   34.5910 O   0  0  0  0  0  0  0  0  0  0  0  0
   38.1530   25.9210   34.2370 P   0  0  2  0  0  0  0  0  0  0  0  0
   36.9020   26.6910   35.0850 O   0  0  0  0  0  0  0  0  0  0  0  0
   36.9790   26.3330   36.0260 H   0  0  0  0  0  0  0  0  0  0  0  0
   38.3390   24.2980   34.7300 O   0  0  0  0  0  0  0  0  0  0  0  0
   39.8100   22.8070   37.7250 C   0  0  0  0  0  0  0  0  0  0  0  0
   38.9310   23.3440   38.7100 C   0  0  0  0  0  0  0  0  0  0  0  0
   37.8950   24.1810   38.2750 C   0  0  0  0  0  0  0  0  0  0  0  0
   37.7960   24.4250   36.9490 N   0  0  0  0  0  0  0  0  0  0  0  0
   38.6320   23.9120   36.0270 C   0  0  0  0  0  0  0  0  0  0  0  0
   39.6360   23.1030   36.4270 N   0  0  0  0  0  0  0  0  0  0  0  0
   40.6330   22.1500   38.0120 H   0  0  0  0  0  0  0  0  0  0  0  0
   39.0710   23.1070   39.7400 H   0  0  0  0  0  0  0  0  0  0  0  0
   37.1980   24.6160   38.9860 H   0  0  0  0  0  0  0  0  0  0  0  0
   37.8850   26.1040   32.6010 O   0  0  0  0  0  0  0  0  0  0  0  0
   36.3220   27.8200   31.9680 C   0  0  2  0  0  3  0  0  0  0  0  0
   37.7580   27.4560   32.2780 C   0  0  2  0  0  3  0  0  0  0  0  0
   38.4990   27.8360   31.0330 C   0  0  0  0  0  3  0  0  0  0  0  0
   38.4390   27.0940   30.2140 H   0  0  0  0  0  0  0  0  0  0  0  0
   37.7730   28.9600   30.5930 O   0  0  0  0  0  0  0  0  0  0  0  0
   36.4440   28.5140   30.6430 C   0  0  0  0  0  3  0  0  0  0  0  0
   35.7600   29.3740   30.5640 H   0  0  0  0  0  0  0  0  0  0  0  0
   35.7950   28.7370   32.8830 O   0  0  0  0  0  0  0  0  0  0  0  0
   36.3800   29.5200   32.9880 H   0  0  0  0  0  0  0  0  0  0  0  0
  2  1  2  1  0  0  0
  2  5  1  0  0  0  0
  2  3  1  0  0  0  0
  3  4  1  0  0  0  0
  5 10  1  0  0  0  0
  6 12  1  0  0  0  0
  6  7  1  0  0  0  0
  7 13  1  0  0  0  0
  8  7  2  0  0  0  0
  8 14  1  0  0  0  0
  9  8  1  0  0  0  0
 10 11  1  0  0  0  0
 10  9  2  0  0  0  0
 11  6  2  0  0  0  0
 15  2  1  0  0  0  0
 16 17  1  0  0  0  0
 16 23  1  1  0  0  0
 17 15  1  6  0  0  0
 18 17  1  0  0  0  0
 19 18  1  0  0  0  0
 20 21  1  0  0  0  0
 20 18  1  0  0  0  0
 21 16  1  0  0  0  0
 22 21  1  0  0  0  0
 23 24  1  0  0  0  0
M  END
>  <minimizedAffinity>
-4.06880856

$$$$

 OpenBabel03272505443D

 24 25  0  0  1  0  0  0  0  0999 V2000
   38.9020   23.6460   38.0820 O   0  0  0  0  0  0  0  0  0  0  0  0
   38.8360   23.5310   36.5670 P   0  0  2  0  0  0  0  0  0  0  0  0
   38.4080   21.9230   36.2360 O   0  0  0  0  0  0  0  0  0  0  0  0
   39.2690   21.4060   36.3470 H   0  0  0  0  0  0  0  0  0  0  0  0
   40.3770   23.9110   35.9400 O   0  0  0  0  0  0  0  0  0  0  0  0
   43.7870   22.6360   36.2630 C   0  0  0  0  0  0  0  0  0  0  0  0
   43.5020   21.2560   36.4710 C   0  0  0  0  0  0  0  0  0  0  0  0
   42.1580   20.8600   36.4870 C   0  0  0  0  0  0  0  0  0  0  0  0
   41.2180   21.8140   36.3020 N   0  0  0  0  0  0  0  0  0  0  0  0
   41.4980   23.1160   36.1060 C   0  0  0  0  0  0  0  0  0  0  0  0
   42.7880   23.5160   36.0880 N   0  0  0  0  0  0  0  0  0  0  0  0
   44.8180   22.9960   36.2430 H   0  0  0  0  0  0  0  0  0  0  0  0
   44.2970   20.5590   36.6100 H   0  0  0  0  0  0  0  0  0  0  0  0
   41.8880   19.8190   36.6410 H   0  0  0  0  0  0  0  0  0  0  0  0
   37.6190   24.5330   36.0260 O   0  0  0  0  0  0  0  0  0  0  0  0
   37.7730   26.9170   35.7450 C   0  0  2  0  0  3  0  0  0  0  0  0
   38.1440   25.5450   35.2230 C   0  0  2  0  0  3  0  0  0  0  0  0
   37.5960   25.5350   33.8280 C   0  0  0  0  0  3  0  0  0  0  0  0
   36.5140   25.3210   33.7580 H   0  0  0  0  0  0  0  0  0  0  0  0
   37.7510   26.8810   33.4440 O   0  0  0  0  0  0  0  0  0  0  0  0
   37.2010   27.5820   34.5280 C   0  0  0  0  0  3  0  0  0  0  0  0
   37.4860   28.6450   34.4670 H   0  0  0  0  0  0  0  0  0  0  0  0
   38.8920   27.6540   36.1480 O   0  0  0  0  0  0  0  0  0  0  0  0
   39.5810   27.6790   35.4470 H   0  0  0  0  0  0  0  0  0  0  0  0
  2  1  2  1  0  0  0
  3  4  1  0  0  0  0
  3  2  1  0  0  0  0
  5 10  1  0  0  0  0
  5  2  1  0  0  0  0
  6  7  1  0  0  0  0
  7  8  2  0  0  0  0
  7 13  1  0  0  0  0
  8 14  1  0  0  0  0
  9  8  1  0  0  0  0
 10  9  2  0  0  0  0
 11 10  1  0  0  0  0
 11  6  2  0  0  0  0
 12  6  1  0  0  0  0
 15  2  1  0  0  0  0
 16 23  1  6  0  0  0
 17 16  1  0  0  0  0
 17 15  1  1  0  0  0
 18 17  1  0  0  0  0
 19 18  1  0  0  0  0
 20 18  1  0  0  0  0
 20 21  1  0  0  0  0
 21 16  1  0  0  0  0
 22 21  1  0  0  0  0
 24 23  1  0  0  0  0
M  END
>  <minimizedAffinity>
-4.04461765

$$$$

 OpenBabel03272505443D

 24 25  0  0  1  0  0  0  0  0999 V2000
   38.7300   21.1180   33.1230 O   0  0  0  0  0  0  0  0  0  0  0  0
   37.6280   22.0300   33.6390 P   0  0  2  0  0  0  0  0  0  0  0  0
   36.1950   21.4990   32.9040 O   0  0  0  0  0  0  0  0  0  0  0  0
   36.2300   21.8890   31.9730 H   0  0  0  0  0  0  0  0  0  0  0  0
   38.0090   23.6310   33.1860 O   0  0  0  0  0  0  0  0  0  0  0  0
   35.4320   25.0130   30.9940 C   0  0  0  0  0  0  0  0  0  0  0  0
   35.5930   26.3980   31.2870 C   0  0  0  0  0  0  0  0  0  0  0  0
   36.5760   26.7590   32.2180 C   0  0  0  0  0  0  0  0  0  0  0  0
   37.3090   25.7710   32.7780 N   0  0  0  0  0  0  0  0  0  0  0  0
   37.1480   24.4650   32.4940 C   0  0  0  0  0  0  0  0  0  0  0  0
   36.2050   24.0980   31.5990 N   0  0  0  0  0  0  0  0  0  0  0  0
   34.6790   24.6800   30.2770 H   0  0  0  0  0  0  0  0  0  0  0  0
   34.9780   27.1240   30.8060 H   0  0  0  0  0  0  0  0  0  0  0  0
   36.7390   27.8020   32.4760 H   0  0  0  0  0  0  0  0  0  0  0  0
   37.5020   21.8050   35.2860 O   0  0  0  0  0  0  0  0  0  0  0  0
   39.5400   22.6970   36.2030 C   0  0  2  0  0  3  0  0  0  0  0  0
   38.0560   22.8880   35.9690 C   0  0  2  0  0  3  0  0  0  0  0  0
   37.4980   23.0630   37.3480 C   0  0  0  0  0  3  0  0  0  0  0  0
   37.3360   22.1210   37.9050 H   0  0  0  0  0  0  0  0  0  0  0  0
   38.5500   23.7280   38.0070 O   0  0  0  0  0  0  0  0  0  0  0  0
   39.6690   22.9490   37.6770 C   0  0  0  0  0  3  0  0  0  0  0  0
   40.5910   23.5000   37.9200 H   0  0  0  0  0  0  0  0  0  0  0  0
   40.3120   23.6550   35.5370 O   0  0  0  0  0  0  0  0  0  0  0  0
   40.0020   24.5680   35.7310 H   0  0  0  0  0  0  0  0  0  0  0  0
  2  1  2  6  0  0  0
  2 15  1  0  0  0  0
  3  2  1  0  0  0  0
  4  3  1  0  0  0  0
  5  2  1  0  0  0  0
  6  7  2  0  0  0  0
  6 11  1  0  0  0  0
  7  8  1  0  0  0  0
  8 14  1  0  0  0  0
  8  9  2  0  0  0  0
 10  9  1  0  0  0  0
 10  5  1  0  0  0  0
 11 10  2  0  0  0  0
 12  6  1  0  0  0  0
 13  7  1  0  0  0  0
 16 23  1  6  0  0  0
 16 21  1  0  0  0  0
 17 15  1  1  0  0  0
 17 16  1  0  0  0  0
 17 18  1  0  0  0  0
 18 19  1  0  0  0  0
 18 20  1  0  0  0  0
 21 22  1  0  0  0  0
 21 20  1  0  0  0  0
 23 24  1  0  0  0  0
M  END
>  <minimizedAffinity>
-4.01803684

$$$$
