
     RDKit          3D

 28 29  0  0  0  0  0  0  0  0999 V2000
   37.3476   30.1428   51.3584 C   0  0  0  0  0  0  0  0  0  0  0  0
   38.0070   30.4938   50.1648 C   0  0  0  0  0  0  0  0  0  0  0  0
   37.4230   30.1460   48.9528 C   0  0  0  0  0  0  0  0  0  0  0  0
   36.2267   29.4748   48.9994 N   0  0  0  0  0  0  0  0  0  0  0  0
   35.6303   29.1586   50.1533 C   0  0  0  0  0  0  0  0  0  0  0  0
   36.1885   29.4911   51.3216 N   0  0  0  0  0  0  0  0  0  0  0  0
   37.8626   30.3726   47.6973 O   0  0  0  0  0  0  0  0  0  0  0  0
   39.0428   32.7354   48.1366 O   0  0  0  0  0  0  0  0  0  0  0  0
   38.7024   31.7165   47.1091 P   0  0  2  0  0  0  0  0  0  0  0  0
   37.8249   32.4462   45.8438 O   0  0  0  0  0  0  0  0  0  0  0  0
   40.1643   31.1942   46.4161 O   0  0  0  0  0  0  0  0  0  0  0  0
   37.8635   30.4475   52.2733 H   0  0  0  0  0  0  0  0  0  0  0  0
   38.9413   31.0171   50.0724 H   0  0  0  0  0  0  0  0  0  0  0  0
   34.6744   28.6218   50.1657 H   0  0  0  0  0  0  0  0  0  0  0  0
   37.8639   31.8531   45.0451 H   0  0  0  0  0  0  0  0  0  0  0  0
   42.6268   33.0905   44.7679 O   0  0  0  0  0  0  0  0  0  0  0  0
   41.3165   32.6251   44.8530 C   0  0  1  0  0  0  0  0  0  0  0  0
   40.9661   32.3303   46.2743 C   0  0  1  0  0  0  0  0  0  0  0  0
   40.2802   33.5743   46.7580 C   0  0  2  0  0  0  0  0  0  0  0  0
   40.8594   34.0638   47.5728 H   0  0  0  0  0  0  0  0  0  0  0  0
   40.1724   34.4695   45.7211 O   0  0  0  0  0  0  0  0  0  0  0  0
   40.4107   33.8035   44.5411 C   0  0  1  0  0  0  0  0  0  0  0  0
   40.9499   34.4570   43.8109 H   0  0  0  0  0  0  0  0  0  0  0  0
   42.9544   33.1293   43.8347 H   0  0  0  0  0  0  0  0  0  0  0  0
   41.1041   31.7643   44.1866 H   0  0  0  0  0  0  0  0  0  0  0  0
   41.8966   32.1905   46.8589 H   0  0  0  0  0  0  0  0  0  0  0  0
   39.2739   33.2916   47.1821 H   0  0  0  0  0  0  0  0  0  0  0  0
   39.4789   33.4254   44.0607 H   0  0  0  0  0  0  0  0  0  0  0  0
  2  1  2  0
  3  4  2  0
  3  2  1  0
  4  5  1  0
  5  6  2  0
  6  1  1  0
  7  3  1  0
  9  7  1  1
  9  8  2  0
 10  9  1  0
 11  9  1  0
  1 12  1  0
  2 13  1  0
  5 14  1  0
 10 15  1  0
 16 17  1  0
 17 18  1  0
 18 19  1  0
 19 20  1  1
 19 21  1  0
 21 22  1  0
 22 23  1  6
 22 17  1  0
 16 24  1  0
 17 25  1  6
 18 26  1  1
 19 27  1  0
 22 28  1  0
 11 18  1  0
M  ISO  6  12  14  13  14  14  14  15   3  20  15  23  16
M  END
>  <DihAtoms>  (1) 
8,10,17,16

>  <DihDeg>  (1) 
121.74510532440894

$$$$
