
 OpenBabel03272509453D

 19 20  0  0  1  0  0  0  0  0999 V2000
   38.0830   22.0290   35.1390 O   0  0  0  0  0  0  0  0  0  0  0  0
   36.7900   21.9420   31.7420 C   0  0  0  0  0  0  0  0  0  0  0  0
   35.6480   21.1440   31.9460 C   0  0  0  0  0  0  0  0  0  0  0  0
   35.3720   20.6710   33.2410 C   0  0  0  0  0  0  0  0  0  0  0  0
   36.2500   21.0280   34.2260 N   0  0  0  0  0  0  0  0  0  0  0  0
   37.3330   21.7920   34.0020 C   0  0  0  0  0  0  0  0  0  0  0  0
   37.6070   22.2510   32.7620 N   0  0  0  0  0  0  0  0  0  0  0  0
   36.9940   22.3030   30.7350 H   0  0  0  0  0  0  0  0  0  0  0  0
   34.9620   20.8710   31.1520 H   0  0  0  0  0  0  0  0  0  0  0  0
   34.5190   20.0590   33.4680 H   0  0  0  0  0  0  0  0  0  0  0  0
   37.5010   23.2190   37.0870 C   0  0  2  0  0  3  0  0  0  0  0  0
   38.2130   23.2960   35.7540 C   0  0  1  0  0  3  0  0  0  0  0  0
   39.6490   23.5620   36.1840 C   0  0  0  0  0  3  0  0  0  0  0  0
   39.7460   24.6510   36.3940 H   0  0  0  0  0  0  0  0  0  0  0  0
   39.7430   22.8090   37.3770 O   0  0  0  0  0  0  0  0  0  0  0  0
   38.6480   23.2930   38.0730 C   0  0  0  0  0  3  0  0  0  0  0  0
   38.8540   24.3580   38.3080 H   0  0  0  0  0  0  0  0  0  0  0  0
   36.7150   22.1020   37.2290 O   0  0  0  0  0  0  0  0  0  0  0  0
   37.1620   21.3730   37.7410 H   0  0  0  0  0  0  0  0  0  0  0  0
  2  3  2  0  0  0  0
  2  7  1  0  0  0  0
  3  4  1  0  0  0  0
  4 10  1  0  0  0  0
  4  5  2  0  0  0  0
  6  5  1  0  0  0  0
  6  1  1  0  0  0  0
  7  6  2  0  0  0  0
  8  2  1  0  0  0  0
  9  3  1  0  0  0  0
 11 18  1  6  0  0  0
 11 16  1  0  0  0  0
 12  1  1  1  0  0  0
 12 13  1  0  0  0  0
 12 11  1  0  0  0  0
 13 14  1  0  0  0  0
 13 15  1  0  0  0  0
 15 16  1  0  0  0  0
 16 17  1  0  0  0  0
 18 19  1  0  0  0  0
M  END
>  <minimizedAffinity>
-3.81180096

$$$$

 OpenBabel03272509453D

 19 20  0  0  1  0  0  0  0  0999 V2000
   38.5560   25.5870   35.0970 O   0  0  0  0  0  0  0  0  0  0  0  0
   39.7140   22.9070   37.2640 C   0  0  0  0  0  0  0  0  0  0  0  0
   38.9310   23.1720   38.4040 C   0  0  0  0  0  0  0  0  0  0  0  0
   38.0390   24.2580   38.3780 C   0  0  0  0  0  0  0  0  0  0  0  0
   37.9980   24.9920   37.2250 N   0  0  0  0  0  0  0  0  0  0  0  0
   38.7580   24.7170   36.1520 C   0  0  0  0  0  0  0  0  0  0  0  0
   39.6170   23.6750   36.1660 N   0  0  0  0  0  0  0  0  0  0  0  0
   40.4010   22.0630   37.2950 H   0  0  0  0  0  0  0  0  0  0  0  0
   38.9760   22.5780   39.3100 H   0  0  0  0  0  0  0  0  0  0  0  0
   37.4120   24.5170   39.2100 H   0  0  0  0  0  0  0  0  0  0  0  0
   37.0150   27.3430   34.8040 C   0  0  2  0  0  3  0  0  0  0  0  0
   37.2890   25.8800   34.5400 C   0  0  1  0  0  3  0  0  0  0  0  0
   37.3280   25.8400   33.0190 C   0  0  0  0  0  3  0  0  0  0  0  0
   36.2770   25.7960   32.6530 H   0  0  0  0  0  0  0  0  0  0  0  0
   37.9170   27.0870   32.7070 O   0  0  0  0  0  0  0  0  0  0  0  0
   37.0930   27.9450   33.4170 C   0  0  0  0  0  3  0  0  0  0  0  0
   36.0890   27.8990   32.9460 H   0  0  0  0  0  0  0  0  0  0  0  0
   37.8770   27.9120   35.7080 O   0  0  0  0  0  0  0  0  0  0  0  0
   38.6190   28.4180   35.2750 H   0  0  0  0  0  0  0  0  0  0  0  0
  1  6  1  0  0  0  0
  2  8  1  0  0  0  0
  2  3  1  0  0  0  0
  3  9  1  0  0  0  0
  4  3  2  0  0  0  0
  4 10  1  0  0  0  0
  5  4  1  0  0  0  0
  6  7  1  0  0  0  0
  6  5  2  0  0  0  0
  7  2  2  0  0  0  0
 11 18  1  1  0  0  0
 12 11  1  0  0  0  0
 12  1  1  1  0  0  0
 13 12  1  0  0  0  0
 14 13  1  0  0  0  0
 15 13  1  0  0  0  0
 15 16  1  0  0  0  0
 16 11  1  0  0  0  0
 17 16  1  0  0  0  0
 19 18  1  0  0  0  0
M  END
>  <minimizedAffinity>
-3.77156019

$$$$

 OpenBabel03272509453D

 19 20  0  0  1  0  0  0  0  0999 V2000
   37.0070   22.0290   34.8230 O   0  0  0  0  0  0  0  0  0  0  0  0
   40.0900   22.3440   36.7250 C   0  0  0  0  0  0  0  0  0  0  0  0
   39.5990   23.0220   37.8580 C   0  0  0  0  0  0  0  0  0  0  0  0
   38.2310   23.3400   37.9180 C   0  0  0  0  0  0  0  0  0  0  0  0
   37.4630   22.9610   36.8520 N   0  0  0  0  0  0  0  0  0  0  0  0
   37.9590   22.3150   35.7840 C   0  0  0  0  0  0  0  0  0  0  0  0
   39.2710   22.0040   35.7150 N   0  0  0  0  0  0  0  0  0  0  0  0
   41.1500   22.1030   36.6890 H   0  0  0  0  0  0  0  0  0  0  0  0
   40.2230   23.3150   38.6940 H   0  0  0  0  0  0  0  0  0  0  0  0
   37.7890   23.8550   38.7510 H   0  0  0  0  0  0  0  0  0  0  0  0
   36.1840   20.4680   33.2630 C   0  0  2  0  0  3  0  0  0  0  0  0
   37.2960   21.4470   33.5660 C   0  0  1  0  0  3  0  0  0  0  0  0
   37.1390   22.4560   32.4370 C   0  0  0  0  0  3  0  0  0  0  0  0
   37.6390   22.0370   31.5350 H   0  0  0  0  0  0  0  0  0  0  0  0
   35.7360   22.4870   32.2650 O   0  0  0  0  0  0  0  0  0  0  0  0
   35.4660   21.1380   32.1120 C   0  0  0  0  0  3  0  0  0  0  0  0
   35.9330   20.8160   31.1580 H   0  0  0  0  0  0  0  0  0  0  0  0
   35.3790   20.1960   34.3410 O   0  0  0  0  0  0  0  0  0  0  0  0
   34.5340   20.7250   34.3400 H   0  0  0  0  0  0  0  0  0  0  0  0
  1  6  1  0  0  0  0
  2  3  1  0  0  0  0
  3  4  2  0  0  0  0
  3  9  1  0  0  0  0
  4 10  1  0  0  0  0
  5  4  1  0  0  0  0
  6  5  2  0  0  0  0
  7  6  1  0  0  0  0
  7  2  2  0  0  0  0
  8  2  1  0  0  0  0
 11 12  1  0  0  0  0
 11 18  1  1  0  0  0
 12  1  1  1  0  0  0
 13 12  1  0  0  0  0
 14 13  1  0  0  0  0
 15 13  1  0  0  0  0
 16 15  1  0  0  0  0
 16 11  1  0  0  0  0
 17 16  1  0  0  0  0
 19 18  1  0  0  0  0
M  END
>  <minimizedAffinity>
-3.74283481

$$$$

 OpenBabel03272509453D

 19 20  0  0  1  0  0  0  0  0999 V2000
   38.3230   25.1600   36.2770 O   0  0  0  0  0  0  0  0  0  0  0  0
   36.8350   27.6810   34.1230 C   0  0  0  0  0  0  0  0  0  0  0  0
   36.8420   26.9800   32.9010 C   0  0  0  0  0  0  0  0  0  0  0  0
   37.3570   25.6730   32.8720 C   0  0  0  0  0  0  0  0  0  0  0  0
   37.8230   25.1680   34.0550 N   0  0  0  0  0  0  0  0  0  0  0  0
   37.8030   25.8600   35.2060 C   0  0  0  0  0  0  0  0  0  0  0  0
   37.3100   27.1170   35.2450 N   0  0  0  0  0  0  0  0  0  0  0  0
   36.4330   28.6930   34.1340 H   0  0  0  0  0  0  0  0  0  0  0  0
   36.4680   27.3970   31.9730 H   0  0  0  0  0  0  0  0  0  0  0  0
   37.3930   25.0810   31.9770 H   0  0  0  0  0  0  0  0  0  0  0  0
   39.5140   23.1280   36.3000 C   0  0  2  0  0  3  0  0  0  0  0  0
   38.1550   23.7680   36.4740 C   0  0  1  0  0  3  0  0  0  0  0  0
   37.8430   23.4450   37.9280 C   0  0  0  0  0  3  0  0  0  0  0  0
   37.4500   22.4040   37.9690 H   0  0  0  0  0  0  0  0  0  0  0  0
   39.1210   23.5250   38.5280 O   0  0  0  0  0  0  0  0  0  0  0  0
   39.8430   22.6750   37.7070 C   0  0  0  0  0  3  0  0  0  0  0  0
   39.4420   21.6520   37.8610 H   0  0  0  0  0  0  0  0  0  0  0  0
   40.4530   23.9640   35.7490 O   0  0  0  0  0  0  0  0  0  0  0  0
   41.0480   24.3840   36.4300 H   0  0  0  0  0  0  0  0  0  0  0  0
  2  8  1  0  0  0  0
  2  7  1  0  0  0  0
  3  2  2  0  0  0  0
  4  3  1  0  0  0  0
  4  5  2  0  0  0  0
  5  6  1  0  0  0  0
  6  7  2  0  0  0  0
  6  1  1  0  0  0  0
  9  3  1  0  0  0  0
 10  4  1  0  0  0  0
 11 18  1  1  0  0  0
 11 12  1  0  0  0  0
 11 16  1  0  0  0  0
 12  1  1  1  0  0  0
 12 13  1  0  0  0  0
 13 14  1  0  0  0  0
 13 15  1  0  0  0  0
 16 17  1  0  0  0  0
 16 15  1  0  0  0  0
 18 19  1  0  0  0  0
M  END
>  <minimizedAffinity>
-3.67468929

$$$$

 OpenBabel03272509453D

 19 20  0  0  1  0  0  0  0  0999 V2000
   37.8720   24.8810   34.7340 O   0  0  0  0  0  0  0  0  0  0  0  0
   38.1570   23.6870   38.1550 C   0  0  0  0  0  0  0  0  0  0  0  0
   39.3900   23.0120   38.0670 C   0  0  0  0  0  0  0  0  0  0  0  0
   40.0680   22.9980   36.8360 C   0  0  0  0  0  0  0  0  0  0  0  0
   39.4700   23.6520   35.7950 N   0  0  0  0  0  0  0  0  0  0  0  0
   38.2920   24.2880   35.9090 C   0  0  0  0  0  0  0  0  0  0  0  0
   37.6320   24.3090   37.0870 N   0  0  0  0  0  0  0  0  0  0  0  0
   37.6400   23.6920   39.1130 H   0  0  0  0  0  0  0  0  0  0  0  0
   39.8500   22.4980   38.9030 H   0  0  0  0  0  0  0  0  0  0  0  0
   41.0120   22.5040   36.6970 H   0  0  0  0  0  0  0  0  0  0  0  0
   37.5540   26.4800   33.0330 C   0  0  2  0  0  3  0  0  0  0  0  0
   38.4210   26.0730   34.2040 C   0  0  1  0  0  3  0  0  0  0  0  0
   38.2300   27.2450   35.1560 C   0  0  0  0  0  3  0  0  0  0  0  0
   38.9100   28.0640   34.8290 H   0  0  0  0  0  0  0  0  0  0  0  0
   36.8780   27.5920   34.9260 O   0  0  0  0  0  0  0  0  0  0  0  0
   36.8800   27.7340   33.5490 C   0  0  0  0  0  3  0  0  0  0  0  0
   37.5170   28.6110   33.3100 H   0  0  0  0  0  0  0  0  0  0  0  0
   36.6800   25.5030   32.6270 O   0  0  0  0  0  0  0  0  0  0  0  0
   35.7600   25.6270   32.9910 H   0  0  0  0  0  0  0  0  0  0  0  0
  1  6  1  0  0  0  0
  2  8  1  0  0  0  0
  3  2  1  0  0  0  0
  3  9  1  0  0  0  0
  4  3  2  0  0  0  0
  5  6  2  0  0  0  0
  5  4  1  0  0  0  0
  6  7  1  0  0  0  0
  7  2  2  0  0  0  0
 10  4  1  0  0  0  0
 11 18  1  1  0  0  0
 11 16  1  0  0  0  0
 11 12  1  0  0  0  0
 12  1  1  1  0  0  0
 12 13  1  0  0  0  0
 14 13  1  0  0  0  0
 15 13  1  0  0  0  0
 16 15  1  0  0  0  0
 17 16  1  0  0  0  0
 18 19  1  0  0  0  0
M  END
>  <minimizedAffinity>
-3.64679623

$$$$

 OpenBabel03272509453D

 19 20  0  0  1  0  0  0  0  0999 V2000
   39.3740   25.3630   35.0350 O   0  0  0  0  0  0  0  0  0  0  0  0
   41.7360   22.8780   36.2440 C   0  0  0  0  0  0  0  0  0  0  0  0
   40.9470   22.2680   37.2390 C   0  0  0  0  0  0  0  0  0  0  0  0
   39.6400   22.7380   37.4500 C   0  0  0  0  0  0  0  0  0  0  0  0
   39.2210   23.7720   36.6590 N   0  0  0  0  0  0  0  0  0  0  0  0
   39.9960   24.3340   35.7170 C   0  0  0  0  0  0  0  0  0  0  0  0
   41.2540   23.8900   35.5050 N   0  0  0  0  0  0  0  0  0  0  0  0
   42.7470   22.5060   36.0880 H   0  0  0  0  0  0  0  0  0  0  0  0
   41.2960   21.4490   37.8570 H   0  0  0  0  0  0  0  0  0  0  0  0
   38.9830   22.3200   38.1910 H   0  0  0  0  0  0  0  0  0  0  0  0
   37.7490   26.9920   35.5420 C   0  0  2  0  0  3  0  0  0  0  0  0
   37.9760   25.5850   35.0340 C   0  0  1  0  0  3  0  0  0  0  0  0
   37.4280   25.6730   33.6170 C   0  0  0  0  0  3  0  0  0  0  0  0
   36.3210   25.5640   33.6730 H   0  0  0  0  0  0  0  0  0  0  0  0
   37.7850   26.9890   33.2450 O   0  0  0  0  0  0  0  0  0  0  0  0
   37.2560   27.7080   34.3030 C   0  0  0  0  0  3  0  0  0  0  0  0
   36.1510   27.6110   34.2450 H   0  0  0  0  0  0  0  0  0  0  0  0
   38.8620   27.5610   36.1090 O   0  0  0  0  0  0  0  0  0  0  0  0
   39.3530   28.1650   35.4850 H   0  0  0  0  0  0  0  0  0  0  0  0
  1  6  1  0  0  0  0
  2  3  1  0  0  0  0
  3  4  2  0  0  0  0
  3  9  1  0  0  0  0
  4 10  1  0  0  0  0
  5  4  1  0  0  0  0
  6  5  2  0  0  0  0
  7  6  1  0  0  0  0
  7  2  2  0  0  0  0
  8  2  1  0  0  0  0
 11 18  1  6  0  0  0
 12  1  1  6  0  0  0
 12 11  1  0  0  0  0
 13 14  1  0  0  0  0
 13 12  1  0  0  0  0
 15 13  1  0  0  0  0
 15 16  1  0  0  0  0
 16 11  1  0  0  0  0
 17 16  1  0  0  0  0
 19 18  1  0  0  0  0
M  END
>  <minimizedAffinity>
-3.57576609

$$$$

 OpenBabel03272509453D

 19 20  0  0  1  0  0  0  0  0999 V2000
   36.2940   25.9390   30.9450 O   0  0  0  0  0  0  0  0  0  0  0  0
   37.8480   22.6600   30.7360 C   0  0  0  0  0  0  0  0  0  0  0  0
   36.8050   21.8710   31.2590 C   0  0  0  0  0  0  0  0  0  0  0  0
   35.6140   22.5010   31.6590 C   0  0  0  0  0  0  0  0  0  0  0  0
   35.5550   23.8590   31.5090 N   0  0  0  0  0  0  0  0  0  0  0  0
   36.5670   24.5860   31.0070 C   0  0  0  0  0  0  0  0  0  0  0  0
   37.7150   23.9910   30.6180 N   0  0  0  0  0  0  0  0  0  0  0  0
   38.7660   22.1620   30.4280 H   0  0  0  0  0  0  0  0  0  0  0  0
   36.8690   20.7950   31.3700 H   0  0  0  0  0  0  0  0  0  0  0  0
   34.7780   21.9620   32.0660 H   0  0  0  0  0  0  0  0  0  0  0  0
   37.1020   28.1220   30.5850 C   0  0  2  0  0  3  0  0  0  0  0  0
   37.1030   26.9420   31.5300 C   0  0  1  0  0  3  0  0  0  0  0  0
   36.4460   27.5340   32.7690 C   0  0  0  0  0  3  0  0  0  0  0  0
   37.2260   28.0940   33.3330 H   0  0  0  0  0  0  0  0  0  0  0  0
   35.5000   28.4210   32.2050 O   0  0  0  0  0  0  0  0  0  0  0  0
   36.3120   29.1570   31.3580 C   0  0  0  0  0  3  0  0  0  0  0  0
   37.0080   29.7400   31.9970 H   0  0  0  0  0  0  0  0  0  0  0  0
   36.5850   27.8370   29.3460 O   0  0  0  0  0  0  0  0  0  0  0  0
   35.6320   28.1150   29.2470 H   0  0  0  0  0  0  0  0  0  0  0  0
  1  6  1  0  0  0  0
  2  3  1  0  0  0  0
  3  9  1  0  0  0  0
  3  4  2  0  0  0  0
  4 10  1  0  0  0  0
  5  4  1  0  0  0  0
  6  5  2  0  0  0  0
  7  2  2  0  0  0  0
  7  6  1  0  0  0  0
  8  2  1  0  0  0  0
 11 18  1  6  0  0  0
 11 16  1  0  0  0  0
 11 12  1  0  0  0  0
 12  1  1  6  0  0  0
 12 13  1  0  0  0  0
 13 14  1  0  0  0  0
 15 13  1  0  0  0  0
 16 17  1  0  0  0  0
 16 15  1  0  0  0  0
 19 18  1  0  0  0  0
M  END
>  <minimizedAffinity>
-3.51594973

$$$$

 OpenBabel03272509453D

 19 20  0  0  1  0  0  0  0  0999 V2000
   40.6570   23.3070   36.6280 O   0  0  0  0  0  0  0  0  0  0  0  0
   42.7430   20.3800   37.1740 C   0  0  0  0  0  0  0  0  0  0  0  0
   43.7740   20.6520   36.2540 C   0  0  0  0  0  0  0  0  0  0  0  0
   43.7070   21.8280   35.4870 C   0  0  0  0  0  0  0  0  0  0  0  0
   42.6250   22.6370   35.6950 N   0  0  0  0  0  0  0  0  0  0  0  0
   41.6550   22.3520   36.5800 C   0  0  0  0  0  0  0  0  0  0  0  0
   41.7100   21.2260   37.3230 N   0  0  0  0  0  0  0  0  0  0  0  0
   42.8060   19.4670   37.7630 H   0  0  0  0  0  0  0  0  0  0  0  0
   44.6260   19.9980   36.1020 H   0  0  0  0  0  0  0  0  0  0  0  0
   44.4580   22.0980   34.7680 H   0  0  0  0  0  0  0  0  0  0  0  0
   38.4430   22.9570   37.3520 C   0  0  2  0  0  3  0  0  0  0  0  0
   39.3420   23.1060   36.1450 C   0  0  1  0  0  3  0  0  0  0  0  0
   38.7880   24.3680   35.4990 C   0  0  0  0  0  3  0  0  0  0  0  0
   37.8940   24.0800   34.9020 H   0  0  0  0  0  0  0  0  0  0  0  0
   38.4140   25.1360   36.6260 O   0  0  0  0  0  0  0  0  0  0  0  0
   37.6200   24.2260   37.3040 C   0  0  0  0  0  3  0  0  0  0  0  0
   36.7190   24.0500   36.6800 H   0  0  0  0  0  0  0  0  0  0  0  0
   39.1250   22.7780   38.5300 O   0  0  0  0  0  0  0  0  0  0  0  0
   39.2220   23.6200   39.0560 H   0  0  0  0  0  0  0  0  0  0  0  0
  2  7  1  0  0  0  0
  2  8  1  0  0  0  0
  3  2  2  0  0  0  0
  4  5  2  0  0  0  0
  4  3  1  0  0  0  0
  5  6  1  0  0  0  0
  6  1  1  0  0  0  0
  6  7  2  0  0  0  0
  9  3  1  0  0  0  0
 10  4  1  0  0  0  0
 11 18  1  1  0  0  0
 12  1  1  1  0  0  0
 12 11  1  0  0  0  0
 13 12  1  0  0  0  0
 13 15  1  0  0  0  0
 14 13  1  0  0  0  0
 15 16  1  0  0  0  0
 16 11  1  0  0  0  0
 17 16  1  0  0  0  0
 18 19  1  0  0  0  0
M  END
>  <minimizedAffinity>
-3.48112655

$$$$

 OpenBabel03272509453D

 19 20  0  0  1  0  0  0  0  0999 V2000
   40.1650   23.3850   35.7460 O   0  0  0  0  0  0  0  0  0  0  0  0
   37.8090   26.1510   35.6410 C   0  0  0  0  0  0  0  0  0  0  0  0
   38.6360   27.1440   35.0820 C   0  0  0  0  0  0  0  0  0  0  0  0
   39.9660   26.8190   34.7650 C   0  0  0  0  0  0  0  0  0  0  0  0
   40.3670   25.5380   35.0290 N   0  0  0  0  0  0  0  0  0  0  0  0
   39.5550   24.6120   35.5630 C   0  0  0  0  0  0  0  0  0  0  0  0
   38.2750   24.9130   35.8710 N   0  0  0  0  0  0  0  0  0  0  0  0
   36.7800   26.4140   35.8820 H   0  0  0  0  0  0  0  0  0  0  0  0
   38.3010   28.1550   34.8790 H   0  0  0  0  0  0  0  0  0  0  0  0
   40.6530   27.5260   34.3360 H   0  0  0  0  0  0  0  0  0  0  0  0
   41.3860   22.2660   37.4200 C   0  0  2  0  0  3  0  0  0  0  0  0
   41.4770   23.2170   36.2480 C   0  0  1  0  0  3  0  0  0  0  0  0
   42.3480   22.4320   35.2770 C   0  0  0  0  0  3  0  0  0  0  0  0
   43.4100   22.5730   35.5820 H   0  0  0  0  0  0  0  0  0  0  0  0
   41.9290   21.1030   35.5150 O   0  0  0  0  0  0  0  0  0  0  0  0
   42.0780   21.0290   36.8900 C   0  0  0  0  0  3  0  0  0  0  0  0
   43.1650   21.1020   37.1050 H   0  0  0  0  0  0  0  0  0  0  0  0
   40.1020   22.0440   37.8530 O   0  0  0  0  0  0  0  0  0  0  0  0
   39.7110   21.1990   37.4970 H   0  0  0  0  0  0  0  0  0  0  0  0
  2  7  1  0  0  0  0
  2  8  1  0  0  0  0
  3  2  2  0  0  0  0
  4  5  2  0  0  0  0
  4  3  1  0  0  0  0
  5  6  1  0  0  0  0
  6  1  1  0  0  0  0
  6  7  2  0  0  0  0
  9  3  1  0  0  0  0
 10  4  1  0  0  0  0
 11 18  1  6  0  0  0
 12  1  1  6  0  0  0
 12 11  1  0  0  0  0
 13 15  1  0  0  0  0
 13 14  1  0  0  0  0
 13 12  1  0  0  0  0
 15 16  1  0  0  0  0
 16 17  1  0  0  0  0
 16 11  1  0  0  0  0
 19 18  1  0  0  0  0
M  END
>  <minimizedAffinity>
-3.47861838

$$$$
