REMARK  Name = 
REMARK  3 active torsions:
REMARK  status: ('A' for Active; 'I' for Inactive)
REMARK    1  A    between atoms: C_5  and  O_7
REMARK    2  A    between atoms: O_7  and  C_13
REMARK    3  A    between atoms: O_11  and  C_12
REMARK                            x       y       z     vdW  Elec       q    Type
REMARK                         _______ _______ _______ _____ _____    ______ ____
ROOT
ATOM      1  O   UNL     1      34.869  28.269  49.602  0.00  0.00    +0.000 OA
ENDROOT
BRANCH   1   6
ATOM      2  C   UNL     1      37.327  30.232  51.424  0.00  0.00    +0.000 A 
ATOM      3  C   UNL     1      38.076  30.734  50.342  0.00  0.00    +0.000 A 
ATOM      4  C   UNL     1      37.703  30.376  49.035  0.00  0.00    +0.000 A 
ATOM      5  N   UNL     1      36.620  29.551  48.908  0.00  0.00    +0.000 NA
ATOM      6  C   UNL     1      35.924  29.087  49.959  0.00  0.00    +0.000 A 
ATOM      7  N   UNL     1      36.273  29.425  51.219  0.00  0.00    +0.000 NA
ATOM      8  H   UNL     1      37.624  30.516  52.432  0.00  0.00    +0.000 HD
ATOM      9  H   UNL     1      38.932  31.388  50.462  0.00  0.00    +0.000 HD
ATOM     10  H   UNL     1      38.228  30.722  48.164  0.00  0.00    +0.000 HD
ENDBRANCH   1   6
BRANCH   1  12
ATOM     11  C   UNL     1      32.700  27.369  49.787  0.00  0.00    +0.000 C 
ATOM     12  C   UNL     1      33.988  27.659  50.526  0.00  0.00    +0.000 C 
ATOM     13  C   UNL     1      34.455  26.258  50.897  0.00  0.00    +0.000 C 
ATOM     14  H   UNL     1      33.902  25.947  51.812  0.00  0.00    +0.000 HD
ATOM     15  O   UNL     1      34.040  25.502  49.777  0.00  0.00    +0.000 OA
ATOM     16  C   UNL     1      32.703  25.856  49.710  0.00  0.00    +0.000 C 
ATOM     17  H   UNL     1      32.209  25.448  50.616  0.00  0.00    +0.000 HD
BRANCH  11  18
ATOM     18  O   UNL     1      32.612  27.990  48.565  0.00  0.00    +0.000 OA
ATOM     19  H   UNL     1      32.856  27.392  47.806  0.00  0.00    +0.000 HD
ENDBRANCH  11  18
ENDBRANCH   1  12
TORSDOF 3
