REMARK  Name = 
REMARK  6 active torsions:
REMARK  status: ('A' for Active; 'I' for Inactive)
REMARK    1  A    between atoms: C_3  and  O_7
REMARK    2  A    between atoms: O_7  and  P_9
REMARK    3  A    between atoms: P_9  and  O_10
REMARK    4  A    between atoms: P_9  and  O_11
REMARK    5  A    between atoms: O_11  and  C_18
REMARK    6  A    between atoms: O_16  and  C_17
REMARK                            x       y       z     vdW  Elec       q    Type
REMARK                         _______ _______ _______ _____ _____    ______ ____
ROOT
ATOM      1  O   UNL     1      39.043  32.735  48.137  0.00  0.00    +0.000 OA
ATOM      2  P   UNL     1      38.702  31.716  47.109  0.00  0.00    +0.000 P 
ENDROOT
BRANCH   2   3
ATOM      3  O   UNL     1      37.825  32.446  45.844  0.00  0.00    +0.000 OA
ATOM      4  H   UNL     1      37.864  31.853  45.045  0.00  0.00    +0.000 HD
ENDBRANCH   2   3
BRANCH   2   5
ATOM      5  O   UNL     1      37.863  30.373  47.697  0.00  0.00    +0.000 OA
BRANCH   5   8
ATOM      6  C   UNL     1      37.348  30.143  51.358  0.00  0.00    +0.000 A 
ATOM      7  C   UNL     1      38.007  30.494  50.165  0.00  0.00    +0.000 A 
ATOM      8  C   UNL     1      37.423  30.146  48.953  0.00  0.00    +0.000 A 
ATOM      9  N   UNL     1      36.227  29.475  48.999  0.00  0.00    +0.000 NA
ATOM     10  C   UNL     1      35.630  29.159  50.153  0.00  0.00    +0.000 A 
ATOM     11  N   UNL     1      36.188  29.491  51.322  0.00  0.00    +0.000 NA
ATOM     12  H   UNL     1      37.864  30.448  52.273  0.00  0.00    +0.000 HD
ATOM     13  H   UNL     1      38.941  31.017  50.072  0.00  0.00    +0.000 HD
ATOM     14  H   UNL     1      34.674  28.622  50.166  0.00  0.00    +0.000 HD
ENDBRANCH   5   8
ENDBRANCH   2   5
BRANCH   2  15
ATOM     15  O   UNL     1      40.164  31.194  46.416  0.00  0.00    +0.000 OA
BRANCH  15  17
ATOM     16  C   UNL     1      41.607  32.429  44.929  0.00  0.00    +0.000 C 
ATOM     17  C   UNL     1      40.966  32.330  46.274  0.00  0.00    +0.000 C 
ATOM     18  C   UNL     1      40.180  33.602  46.411  0.00  0.00    +0.000 C 
ATOM     19  H   UNL     1      40.568  34.228  47.245  0.00  0.00    +0.000 HD
ATOM     20  O   UNL     1      40.286  34.331  45.251  0.00  0.00    +0.000 OA
ATOM     21  C   UNL     1      40.776  33.511  44.261  0.00  0.00    +0.000 C 
ATOM     22  H   UNL     1      41.451  34.073  43.569  0.00  0.00    +0.000 HD
BRANCH  16  23
ATOM     23  O   UNL     1      42.901  32.932  45.050  0.00  0.00    +0.000 OA
ATOM     24  H   UNL     1      43.419  32.849  44.210  0.00  0.00    +0.000 HD
ENDBRANCH  16  23
ENDBRANCH  15  17
ENDBRANCH   2  15
TORSDOF 6
