
 OpenBabel03272503483D

 37 39  0  0  1  0  0  0  0  0999 V2000
   33.1870   27.2980   45.8680 C   0  0  1  0  0  0  0  0  0  0  0  0
   33.9160   27.4550   47.2230 C   0  0  2  0  0  0  0  0  0  0  0  0
   33.7650   26.2340   47.8010 O   0  0  0  0  0  0  0  0  0  0  0  0
   34.0560   25.3280   46.8020 C   0  0  0  0  0  0  0  0  0  0  0  0
   33.5770   25.8950   45.4950 C   0  0  2  0  0  0  0  0  0  0  0  0
   33.5480   28.0500   45.1350 H   0  0  0  0  0  0  0  0  0  0  0  0
   34.9870   27.6410   46.9280 H   0  0  0  0  0  0  0  0  0  0  0  0
   33.6030   24.3260   47.0090 H   0  0  0  0  0  0  0  0  0  0  0  0
   35.1520   25.1760   46.7480 H   0  0  0  0  0  0  0  0  0  0  0  0
   32.6560   25.3610   45.1700 H   0  0  0  0  0  0  0  0  0  0  0  0
   31.8320   27.5090   46.0220 O   0  0  0  0  0  0  0  0  0  0  0  0
   31.2900   27.0530   45.3590 H   0  0  0  0  0  0  0  0  0  0  0  0
   33.2970   28.5110   47.8220 O   0  0  0  0  0  0  0  0  0  0  0  0
   35.3500   29.8010   46.7810 O   0  0  0  0  0  0  0  0  0  0  0  0
   34.0870   29.9820   47.6150 P   0  0  1  0  0  0  0  0  0  0  0  0
   33.1170   31.0430   46.7210 O   0  0  0  0  0  0  0  0  0  0  0  0
   32.2190   31.0530   47.1520 H   0  0  0  0  0  0  0  0  0  0  0  0
   34.3830   30.6200   49.1710 O   0  0  0  0  0  0  0  0  0  0  0  0
   35.6190   30.4940   49.7880 C   0  0  0  0  0  0  0  0  0  0  0  0
   35.9660   29.4760   50.7070 C   0  0  0  0  0  0  0  0  0  0  0  0
   37.2490   29.4890   51.2390 C   0  0  0  0  0  0  0  0  0  0  0  0
   38.1110   30.4790   50.8500 N   0  0  0  0  0  0  0  0  0  0  0  0
   37.7510   31.4460   49.9640 C   0  0  0  0  0  0  0  0  0  0  0  0
   36.4970   31.4510   49.4320 N   0  0  0  0  0  0  0  0  0  0  0  0
   35.2070   28.7620   50.9290 H   0  0  0  0  0  0  0  0  0  0  0  0
   37.5180   28.7220   51.9350 H   0  0  0  0  0  0  0  0  0  0  0  0
   38.4680   32.2000   49.6940 H   0  0  0  0  0  0  0  0  0  0  0  0
   34.5880   25.9080   44.5560 O   0  0  0  0  0  0  0  0  0  0  0  0
   36.4280   24.4470   44.0190 C   0  0  2  0  0  0  0  0  0  0  0  0
   34.9320   24.6600   44.0820 C   0  0  2  0  0  0  0  0  0  0  0  0
   34.6150   24.6900   42.5890 C   0  0  0  0  0  0  0  0  0  0  0  0
   34.6100   23.6930   42.1310 H   0  0  0  0  0  0  0  0  0  0  0  0
   35.6130   25.5280   42.1240 O   0  0  0  0  0  0  0  0  0  0  0  0
   36.7760   25.2780   42.8060 C   0  0  0  0  0  0  0  0  0  0  0  0
   37.2250   26.2450   43.1390 H   0  0  0  0  0  0  0  0  0  0  0  0
   36.6480   23.1200   43.6580 O   0  0  0  0  0  0  0  0  0  0  0  0
   35.8490   22.5850   43.8060 H   0  0  0  0  0  0  0  0  0  0  0  0
  1  6  1  6  0  0  0
  1 11  1  0  0  0  0
  1  2  1  0  0  0  0
  2  7  1  6  0  0  0
  2  3  1  0  0  0  0
  2 13  1  0  0  0  0
  4  8  1  0  0  0  0
  4  3  1  0  0  0  0
  5 10  1  6  0  0  0
  5  1  1  0  0  0  0
  5  4  1  0  0  0  0
  9  4  1  0  0  0  0
 12 11  1  0  0  0  0
 15 14  2  6  0  0  0
 15 13  1  0  0  0  0
 15 18  1  0  0  0  0
 16 17  1  0  0  0  0
 16 15  1  0  0  0  0
 18 19  1  0  0  0  0
 19 20  1  0  0  0  0
 20 25  1  0  0  0  0
 20 21  2  0  0  0  0
 21 26  1  0  0  0  0
 22 21  1  0  0  0  0
 23 22  2  0  0  0  0
 24 19  2  0  0  0  0
 24 23  1  0  0  0  0
 27 23  1  0  0  0  0
 28  5  1  0  0  0  0
 29 36  1  6  0  0  0
 29 30  1  0  0  0  0
 30 28  1  6  0  0  0
 31 30  1  0  0  0  0
 32 31  1  0  0  0  0
 33 31  1  0  0  0  0
 33 34  1  0  0  0  0
 34 35  1  0  0  0  0
 34 29  1  0  0  0  0
 36 37  1  0  0  0  0
M  END
>  <minimizedAffinity>
-4.10130882

>  <minimizedRMSD>
1.1358707

$$$$
