
 OpenBabel03272508083D

 24 25  0  0  1  0  0  0  0  0999 V2000
   39.1960   32.5800   48.0240 O   0  0  0  0  0  0  0  0  0  0  0  0
   38.6250   31.6240   47.0380 P   0  0  2  0  0  0  0  0  0  0  0  0
   37.5050   32.4290   46.0380 O   0  0  0  0  0  0  0  0  0  0  0  0
   37.3610   31.8850   45.2170 H   0  0  0  0  0  0  0  0  0  0  0  0
   37.9150   30.2500   47.7160 O   0  0  0  0  0  0  0  0  0  0  0  0
   37.3220   30.1990   51.3720 C   0  0  0  0  0  0  0  0  0  0  0  0
   38.0050   30.4940   50.1780 C   0  0  0  0  0  0  0  0  0  0  0  0
   37.4490   30.0830   48.9720 C   0  0  0  0  0  0  0  0  0  0  0  0
   36.2560   29.4070   49.0260 N   0  0  0  0  0  0  0  0  0  0  0  0
   35.6360   29.1450   50.1810 C   0  0  0  0  0  0  0  0  0  0  0  0
   36.1670   29.5380   51.3440 N   0  0  0  0  0  0  0  0  0  0  0  0
   37.8170   30.5520   52.2820 H   0  0  0  0  0  0  0  0  0  0  0  0
   38.9380   31.0180   50.0790 H   0  0  0  0  0  0  0  0  0  0  0  0
   34.6830   28.6030   50.2010 H   0  0  0  0  0  0  0  0  0  0  0  0
   39.8940   31.1420   46.0150 O   0  0  0  0  0  0  0  0  0  0  0  0
   40.3330   31.5900   43.6840 C   0  0  1  0  0  3  0  0  0  0  0  0
   39.3700   31.1060   44.7190 C   0  0  1  0  0  3  0  0  0  0  0  0
   39.0220   29.7130   44.2850 C   0  0  0  0  0  3  0  0  0  0  0  0
   37.9420   29.6300   44.0260 H   0  0  0  0  0  0  0  0  0  0  0  0
   39.7500   29.3870   43.1670 O   0  0  0  0  0  0  0  0  0  0  0  0
   40.7770   30.2920   43.0340 C   0  0  0  0  0  3  0  0  0  0  0  0
   40.9850   30.5100   41.9570 H   0  0  0  0  0  0  0  0  0  0  0  0
   39.6610   32.3220   42.7080 O   0  0  0  0  0  0  0  0  0  0  0  0
   40.2800   32.8050   42.1050 H   0  0  0  0  0  0  0  0  0  0  0  0
  2  5  1  0  0  0  0
  2  1  2  1  0  0  0
  3  2  1  0  0  0  0
  4  3  1  0  0  0  0
  5  8  1  0  0  0  0
  6 12  1  0  0  0  0
  7  6  2  0  0  0  0
  8  9  2  0  0  0  0
  8  7  1  0  0  0  0
  9 10  1  0  0  0  0
 10 14  1  0  0  0  0
 10 11  2  0  0  0  0
 11  6  1  0  0  0  0
 13  7  1  0  0  0  0
 15  2  1  0  0  0  0
 16 23  1  6  0  0  0
 16 17  1  0  0  0  0
 17 15  1  1  0  0  0
 18 17  1  0  0  0  0
 19 18  1  0  0  0  0
 20 18  1  0  0  0  0
 21 20  1  0  0  0  0
 21 16  1  0  0  0  0
 22 21  1  0  0  0  0
 24 23  1  0  0  0  0
M  END
>  <minimizedAffinity>
-5.09940386

>  <minimizedRMSD>
2.51593089

$$$$
