
 OpenBabel03262520343D

 29 30  0  0  1  0  0  0  0  0999 V2000
   39.2320   24.3870   35.9520 O   0  0  0  0  0  0  0  0  0  0  0  0
   38.3230   25.2810   36.5050 C   0  0  0  0  0  0  0  0  0  0  0  0
   38.7580   25.9710   37.2280 H   0  0  0  0  0  0  0  0  0  0  0  0
   37.5590   24.6550   37.0410 H   0  0  0  0  0  0  0  0  0  0  0  0
   37.5460   27.2930   35.2910 C   0  0  0  0  0  3  0  0  0  0  0  0
   37.5830   26.0150   35.4530 C   0  0  0  0  0  3  0  0  0  0  0  0
   35.9800   27.7400   32.0090 C   0  0  0  0  0  0  0  0  0  0  0  0
   35.2390   28.9300   32.1950 C   0  0  0  0  0  0  0  0  0  0  0  0
   35.2940   29.5590   33.4530 C   0  0  0  0  0  0  0  0  0  0  0  0
   36.0760   28.9540   34.4150 N   0  0  0  0  0  0  0  0  0  0  0  0
   36.7550   27.8320   34.1880 C   0  0  0  0  0  0  0  0  0  0  0  0
   36.7050   27.2310   32.9910 N   0  0  0  0  0  0  0  0  0  0  0  0
   35.8910   27.3130   31.0170 H   0  0  0  0  0  0  0  0  0  0  0  0
   34.6370   29.3890   31.4440 H   0  0  0  0  0  0  0  0  0  0  0  0
   34.7680   30.4650   33.6950 H   0  0  0  0  0  0  0  0  0  0  0  0
   38.8660   21.8660   35.7060 O   0  0  0  0  0  0  0  0  0  0  0  0
   39.1280   22.9010   36.7920 P   0  0  2  0  0  0  0  0  0  0  0  0
   37.8110   23.0030   37.8540 O   0  0  0  0  0  0  0  0  0  0  0  0
   36.9630   22.7810   37.4110 H   0  0  0  0  0  0  0  0  0  0  0  0
   40.5670   22.5700   37.6080 O   0  0  0  0  0  0  0  0  0  0  0  0
   42.0570   20.7750   36.9430 C   0  0  1  0  0  3  0  0  0  0  0  0
   41.4690   22.1090   36.6250 C   0  0  2  0  0  3  0  0  0  0  0  0
   42.7150   23.0040   36.6170 C   0  0  0  0  0  3  0  0  0  0  0  0
   42.9460   23.3410   37.6410 H   0  0  0  0  0  0  0  0  0  0  0  0
   43.6650   22.1950   36.0380 O   0  0  0  0  0  0  0  0  0  0  0  0
   43.4910   20.9160   36.5020 C   0  0  0  0  0  3  0  0  0  0  0  0
   44.2270   20.6230   37.2820 H   0  0  0  0  0  0  0  0  0  0  0  0
   42.0860   20.5090   38.3100 O   0  0  0  0  0  0  0  0  0  0  0  0
   42.5480   21.2580   38.7710 H   0  0  0  0  0  0  0  0  0  0  0  0
  1  2  1  0  0  0  0
  1 17  1  0  0  0  0
  2  4  1  0  0  0  0
  2  3  1  0  0  0  0
  5  6  2  0  0  0  0
  6  2  1  0  0  0  0
  7  8  2  0  0  0  0
  7 12  1  0  0  0  0
  8  9  1  0  0  0  0
  9 15  1  0  0  0  0
  9 10  2  0  0  0  0
 11 10  1  0  0  0  0
 11  5  1  0  0  0  0
 12 11  2  0  0  0  0
 13  7  1  0  0  0  0
 14  8  1  0  0  0  0
 17 16  2  6  0  0  0
 17 20  1  0  0  0  0
 17 18  1  0  0  0  0
 19 18  1  0  0  0  0
 21 28  1  1  0  0  0
 22 21  1  0  0  0  0
 22 20  1  1  0  0  0
 23 22  1  0  0  0  0
 23 24  1  0  0  0  0
 25 26  1  0  0  0  0
 25 23  1  0  0  0  0
 26 21  1  0  0  0  0
 26 27  1  0  0  0  0
 28 29  1  0  0  0  0
M  END
>  <minimizedAffinity>
-4.69359398

$$$$

 OpenBabel03262520343D

 29 30  0  0  1  0  0  0  0  0999 V2000
   37.2570   28.2520   33.0580 O   0  0  0  0  0  0  0  0  0  0  0  0
   36.5930   28.0360   34.2580 C   0  0  0  0  0  0  0  0  0  0  0  0
   35.5080   27.9800   34.1650 H   0  0  0  0  0  0  0  0  0  0  0  0
   36.8380   28.9170   34.9120 H   0  0  0  0  0  0  0  0  0  0  0  0
   38.3650   26.5670   35.1680 C   0  0  0  0  0  3  0  0  0  0  0  0
   37.1240   26.8460   34.9610 C   0  0  0  0  0  3  0  0  0  0  0  0
   39.9590   23.4190   36.1560 C   0  0  0  0  0  0  0  0  0  0  0  0
   39.2190   23.0620   37.3060 C   0  0  0  0  0  0  0  0  0  0  0  0
   38.1800   23.9160   37.7220 C   0  0  0  0  0  0  0  0  0  0  0  0
   37.9660   25.0480   36.9630 N   0  0  0  0  0  0  0  0  0  0  0  0
   38.6920   25.3380   35.8860 C   0  0  0  0  0  0  0  0  0  0  0  0
   39.6820   24.5260   35.4870 N   0  0  0  0  0  0  0  0  0  0  0  0
   40.7400   22.7160   35.8950 H   0  0  0  0  0  0  0  0  0  0  0  0
   39.3920   22.1850   37.8870 H   0  0  0  0  0  0  0  0  0  0  0  0
   37.5610   23.7340   38.5830 H   0  0  0  0  0  0  0  0  0  0  0  0
   36.5350   29.8830   31.2210 O   0  0  0  0  0  0  0  0  0  0  0  0
   36.1030   28.5560   31.8330 P   0  0  2  0  0  0  0  0  0  0  0  0
   34.5900   28.7060   32.5800 O   0  0  0  0  0  0  0  0  0  0  0  0
   34.4330   29.6150   32.9160 H   0  0  0  0  0  0  0  0  0  0  0  0
   36.1140   27.3260   30.6780 O   0  0  0  0  0  0  0  0  0  0  0  0
   37.1970   25.2340   31.2550 C   0  0  1  0  0  3  0  0  0  0  0  0
   36.0050   26.1190   31.4020 C   0  0  2  0  0  3  0  0  0  0  0  0
   34.8990   25.2540   30.7840 C   0  0  0  0  0  3  0  0  0  0  0  0
   34.8760   25.3900   29.6900 H   0  0  0  0  0  0  0  0  0  0  0  0
   35.2300   23.9880   31.2100 O   0  0  0  0  0  0  0  0  0  0  0  0
   36.5950   23.8560   31.1620 C   0  0  0  0  0  3  0  0  0  0  0  0
   36.9530   23.2720   30.2860 H   0  0  0  0  0  0  0  0  0  0  0  0
   37.8870   25.4480   30.0650 O   0  0  0  0  0  0  0  0  0  0  0  0
   37.2490   25.3690   29.3070 H   0  0  0  0  0  0  0  0  0  0  0  0
  1  2  1  0  0  0  0
  2  4  1  0  0  0  0
  2  6  1  0  0  0  0
  3  2  1  0  0  0  0
  5 11  1  0  0  0  0
  6  5  2  0  0  0  0
  7  8  1  0  0  0  0
  8  9  2  0  0  0  0
  8 14  1  0  0  0  0
  9 15  1  0  0  0  0
 10  9  1  0  0  0  0
 11 10  2  0  0  0  0
 12 11  1  0  0  0  0
 12  7  2  0  0  0  0
 13  7  1  0  0  0  0
 17 16  2  6  0  0  0
 17 18  1  0  0  0  0
 17  1  1  0  0  0  0
 18 19  1  0  0  0  0
 20 17  1  0  0  0  0
 21 28  1  6  0  0  0
 21 22  1  0  0  0  0
 22 20  1  6  0  0  0
 23 25  1  0  0  0  0
 23 22  1  0  0  0  0
 24 23  1  0  0  0  0
 26 25  1  0  0  0  0
 26 21  1  0  0  0  0
 27 26  1  0  0  0  0
 29 28  1  0  0  0  0
M  END
>  <minimizedAffinity>
-4.63226557

$$$$

 OpenBabel03262520343D

 29 30  0  0  1  0  0  0  0  0999 V2000
   36.5790   26.2900   32.7000 O   0  0  0  0  0  0  0  0  0  0  0  0
   37.8630   26.5010   33.1860 C   0  0  0  0  0  0  0  0  0  0  0  0
   38.1510   27.5510   33.2470 H   0  0  0  0  0  0  0  0  0  0  0  0
   38.5570   25.9950   32.4610 H   0  0  0  0  0  0  0  0  0  0  0  0
   38.7300   24.7380   34.6900 C   0  0  0  0  0  3  0  0  0  0  0  0
   38.0650   25.8220   34.4860 C   0  0  0  0  0  3  0  0  0  0  0  0
   39.7990   22.8630   37.6520 C   0  0  0  0  0  0  0  0  0  0  0  0
   38.8880   23.3190   38.6330 C   0  0  0  0  0  0  0  0  0  0  0  0
   37.9190   24.2660   38.2550 C   0  0  0  0  0  0  0  0  0  0  0  0
   37.9370   24.6800   36.9390 N   0  0  0  0  0  0  0  0  0  0  0  0
   38.8170   24.2200   36.0530 C   0  0  0  0  0  0  0  0  0  0  0  0
   39.7410   23.3160   36.4110 N   0  0  0  0  0  0  0  0  0  0  0  0
   40.5140   22.1360   38.0140 H   0  0  0  0  0  0  0  0  0  0  0  0
   38.8830   22.9920   39.6490 H   0  0  0  0  0  0  0  0  0  0  0  0
   37.1840   24.6740   38.9250 H   0  0  0  0  0  0  0  0  0  0  0  0
   37.9730   25.2810   30.8050 O   0  0  0  0  0  0  0  0  0  0  0  0
   36.6340   25.0730   31.5000 P   0  0  2  0  0  0  0  0  0  0  0  0
   35.3520   25.3510   30.4270 O   0  0  0  0  0  0  0  0  0  0  0  0
   35.5870   26.0070   29.7350 H   0  0  0  0  0  0  0  0  0  0  0  0
   36.5470   23.5380   32.1970 O   0  0  0  0  0  0  0  0  0  0  0  0
   35.4970   21.6050   31.1760 C   0  0  1  0  0  3  0  0  0  0  0  0
   36.5840   22.6260   31.1210 C   0  0  2  0  0  3  0  0  0  0  0  0
   37.8380   21.7500   31.2390 C   0  0  0  0  0  3  0  0  0  0  0  0
   38.0650   21.5530   32.3000 H   0  0  0  0  0  0  0  0  0  0  0  0
   37.5040   20.6410   30.4960 O   0  0  0  0  0  0  0  0  0  0  0  0
   36.1850   20.3430   30.7260 C   0  0  0  0  0  3  0  0  0  0  0  0
   36.0390   19.4850   31.4190 H   0  0  0  0  0  0  0  0  0  0  0  0
   35.0400   21.3700   32.4700 O   0  0  0  0  0  0  0  0  0  0  0  0
   35.8180   21.1420   33.0460 H   0  0  0  0  0  0  0  0  0  0  0  0
  1  2  1  0  0  0  0
  2  3  1  0  0  0  0
  2  6  1  0  0  0  0
  4  2  1  0  0  0  0
  5 11  1  0  0  0  0
  6  5  2  0  0  0  0
  7 13  1  0  0  0  0
  7  8  1  0  0  0  0
  8 14  1  0  0  0  0
  9  8  2  0  0  0  0
  9 15  1  0  0  0  0
 10  9  1  0  0  0  0
 11 12  1  0  0  0  0
 11 10  2  0  0  0  0
 12  7  2  0  0  0  0
 17 16  2  6  0  0  0
 17 20  1  0  0  0  0
 17  1  1  0  0  0  0
 18 17  1  0  0  0  0
 19 18  1  0  0  0  0
 21 28  1  1  0  0  0
 22 21  1  0  0  0  0
 22 23  1  0  0  0  0
 22 20  1  1  0  0  0
 23 24  1  0  0  0  0
 25 26  1  0  0  0  0
 25 23  1  0  0  0  0
 26 21  1  0  0  0  0
 26 27  1  0  0  0  0
 28 29  1  0  0  0  0
M  END
>  <minimizedAffinity>
-4.57731438

$$$$

 OpenBabel03262520343D

 29 30  0  0  1  0  0  0  0  0999 V2000
   38.8790   26.9650   33.7580 O   0  0  0  0  0  0  0  0  0  0  0  0
   38.0830   26.8460   32.6260 C   0  0  0  0  0  0  0  0  0  0  0  0
   38.4480   27.4030   31.7620 H   0  0  0  0  0  0  0  0  0  0  0  0
   37.0790   27.2640   32.9060 H   0  0  0  0  0  0  0  0  0  0  0  0
   36.7100   24.8600   32.0800 C   0  0  0  0  0  3  0  0  0  0  0  0
   37.8510   25.4250   32.2770 C   0  0  0  0  0  3  0  0  0  0  0  0
   35.5630   21.5330   31.0590 C   0  0  0  0  0  0  0  0  0  0  0  0
   36.7540   20.7750   31.1350 C   0  0  0  0  0  0  0  0  0  0  0  0
   37.9340   21.4260   31.5390 C   0  0  0  0  0  0  0  0  0  0  0  0
   37.8320   22.7710   31.8310 N   0  0  0  0  0  0  0  0  0  0  0  0
   36.6850   23.4390   31.7430 C   0  0  0  0  0  0  0  0  0  0  0  0
   35.5590   22.8210   31.3590 N   0  0  0  0  0  0  0  0  0  0  0  0
   34.6960   20.9670   30.7430 H   0  0  0  0  0  0  0  0  0  0  0  0
   36.8230   19.7350   30.9070 H   0  0  0  0  0  0  0  0  0  0  0  0
   38.8890   20.9390   31.6280 H   0  0  0  0  0  0  0  0  0  0  0  0
   36.6670   27.8240   34.7180 O   0  0  0  0  0  0  0  0  0  0  0  0
   37.8730   26.9950   35.1410 P   0  0  2  0  0  0  0  0  0  0  0  0
   38.7290   27.7720   36.3810 O   0  0  0  0  0  0  0  0  0  0  0  0
   38.6440   28.7490   36.3300 H   0  0  0  0  0  0  0  0  0  0  0  0
   37.4100   25.4340   35.5820 O   0  0  0  0  0  0  0  0  0  0  0  0
   39.2590   23.8770   35.7810 C   0  0  1  0  0  3  0  0  0  0  0  0
   38.4390   24.9490   36.4170 C   0  0  2  0  0  3  0  0  0  0  0  0
   37.8200   24.2020   37.6050 C   0  0  0  0  0  3  0  0  0  0  0  0
   36.9040   23.6770   37.2880 H   0  0  0  0  0  0  0  0  0  0  0  0
   38.8490   23.3860   38.0190 O   0  0  0  0  0  0  0  0  0  0  0  0
   39.5010   22.9110   36.9100 C   0  0  0  0  0  3  0  0  0  0  0  0
   39.2400   21.8590   36.6600 H   0  0  0  0  0  0  0  0  0  0  0  0
   38.5650   23.1760   34.7980 O   0  0  0  0  0  0  0  0  0  0  0  0
   37.7160   22.8360   35.1880 H   0  0  0  0  0  0  0  0  0  0  0  0
  1 17  1  0  0  0  0
  2  4  1  0  0  0  0
  2  1  1  0  0  0  0
  3  2  1  0  0  0  0
  5  6  2  0  0  0  0
  6  2  1  0  0  0  0
  7  8  2  0  0  0  0
  7 12  1  0  0  0  0
  8  9  1  0  0  0  0
  9 15  1  0  0  0  0
  9 10  2  0  0  0  0
 11 10  1  0  0  0  0
 11  5  1  0  0  0  0
 12 11  2  0  0  0  0
 13  7  1  0  0  0  0
 14  8  1  0  0  0  0
 17 16  2  6  0  0  0
 17 20  1  0  0  0  0
 17 18  1  0  0  0  0
 19 18  1  0  0  0  0
 21 28  1  6  0  0  0
 21 22  1  0  0  0  0
 21 26  1  0  0  0  0
 22 20  1  6  0  0  0
 22 23  1  0  0  0  0
 23 25  1  0  0  0  0
 24 23  1  0  0  0  0
 26 25  1  0  0  0  0
 27 26  1  0  0  0  0
 28 29  1  0  0  0  0
M  END
>  <minimizedAffinity>
-4.5459857

$$$$

 OpenBabel03262520343D

 29 30  0  0  1  0  0  0  0  0999 V2000
   36.2560   26.2820   32.3070 O   0  0  0  0  0  0  0  0  0  0  0  0
   35.9750   25.5310   31.1720 C   0  0  0  0  0  0  0  0  0  0  0  0
   36.7070   25.6390   30.3720 H   0  0  0  0  0  0  0  0  0  0  0  0
   34.9870   25.9060   30.7880 H   0  0  0  0  0  0  0  0  0  0  0  0
   36.5650   23.1290   31.2410 C   0  0  0  0  0  3  0  0  0  0  0  0
   35.7670   24.1040   31.5080 C   0  0  0  0  0  3  0  0  0  0  0  0
   35.7810   19.5500   31.1910 C   0  0  0  0  0  0  0  0  0  0  0  0
   35.4540   19.3010   32.5440 C   0  0  0  0  0  0  0  0  0  0  0  0
   35.5100   20.3750   33.4510 C   0  0  0  0  0  0  0  0  0  0  0  0
   35.8850   21.6000   32.9400 N   0  0  0  0  0  0  0  0  0  0  0  0
   36.1830   21.7820   31.6560 C   0  0  0  0  0  0  0  0  0  0  0  0
   36.1300   20.7610   30.7890 N   0  0  0  0  0  0  0  0  0  0  0  0
   35.7150   18.6790   30.5510 H   0  0  0  0  0  0  0  0  0  0  0  0
   35.1660   18.3490   32.9290 H   0  0  0  0  0  0  0  0  0  0  0  0
   35.2820   20.2880   34.4990 H   0  0  0  0  0  0  0  0  0  0  0  0
   37.3000   28.5230   31.6440 O   0  0  0  0  0  0  0  0  0  0  0  0
   37.7250   27.1220   32.0650 P   0  0  2  0  0  0  0  0  0  0  0  0
   38.5590   26.3470   30.8100 O   0  0  0  0  0  0  0  0  0  0  0  0
   38.2670   26.6580   29.9250 H   0  0  0  0  0  0  0  0  0  0  0  0
   38.6330   27.1670   33.4870 O   0  0  0  0  0  0  0  0  0  0  0  0
   37.8880   26.6860   35.7440 C   0  0  1  0  0  3  0  0  0  0  0  0
   38.0560   26.2040   34.3420 C   0  0  2  0  0  3  0  0  0  0  0  0
   39.0360   25.0390   34.5290 C   0  0  0  0  0  3  0  0  0  0  0  0
   40.0730   25.4110   34.5340 H   0  0  0  0  0  0  0  0  0  0  0  0
   38.6110   24.4730   35.7100 O   0  0  0  0  0  0  0  0  0  0  0  0
   38.2480   25.4780   36.5690 C   0  0  0  0  0  3  0  0  0  0  0  0
   39.0080   25.6860   37.3530 H   0  0  0  0  0  0  0  0  0  0  0  0
   38.7950   27.6860   36.0850 O   0  0  0  0  0  0  0  0  0  0  0  0
   39.7150   27.3620   35.8920 H   0  0  0  0  0  0  0  0  0  0  0  0
  2  6  1  0  0  0  0
  2  1  1  0  0  0  0
  3  2  1  0  0  0  0
  4  2  1  0  0  0  0
  5  6  2  0  0  0  0
  5 11  1  0  0  0  0
  7  8  1  0  0  0  0
  8 14  1  0  0  0  0
  8  9  2  0  0  0  0
  9 15  1  0  0  0  0
 10  9  1  0  0  0  0
 11 10  2  0  0  0  0
 12  7  2  0  0  0  0
 12 11  1  0  0  0  0
 13  7  1  0  0  0  0
 17 16  2  6  0  0  0
 17  1  1  0  0  0  0
 17 20  1  0  0  0  0
 18 17  1  0  0  0  0
 19 18  1  0  0  0  0
 21 28  1  1  0  0  0
 21 26  1  0  0  0  0
 22 20  1  6  0  0  0
 22 23  1  0  0  0  0
 22 21  1  0  0  0  0
 23 24  1  0  0  0  0
 23 25  1  0  0  0  0
 25 26  1  0  0  0  0
 26 27  1  0  0  0  0
 29 28  1  0  0  0  0
M  END
>  <minimizedAffinity>
-4.54405928

$$$$

 OpenBabel03262520343D

 29 30  0  0  1  0  0  0  0  0999 V2000
   36.4720   26.5110   32.7640 O   0  0  0  0  0  0  0  0  0  0  0  0
   37.3410   27.1330   33.6510 C   0  0  0  0  0  0  0  0  0  0  0  0
   37.0130   28.1200   33.9810 H   0  0  0  0  0  0  0  0  0  0  0  0
   38.3110   27.2600   33.0990 H   0  0  0  0  0  0  0  0  0  0  0  0
   38.5580   25.3600   34.8740 C   0  0  0  0  0  3  0  0  0  0  0  0
   37.6420   26.2620   34.8110 C   0  0  0  0  0  3  0  0  0  0  0  0
   39.6930   22.9210   37.3630 C   0  0  0  0  0  0  0  0  0  0  0  0
   38.8860   23.2410   38.4790 C   0  0  0  0  0  0  0  0  0  0  0  0
   37.9620   24.2950   38.3530 C   0  0  0  0  0  0  0  0  0  0  0  0
   37.9190   24.9400   37.1340 N   0  0  0  0  0  0  0  0  0  0  0  0
   38.7010   24.5990   36.1130 C   0  0  0  0  0  0  0  0  0  0  0  0
   39.5820   23.5940   36.2300 N   0  0  0  0  0  0  0  0  0  0  0  0
   40.3780   22.1000   37.5330 H   0  0  0  0  0  0  0  0  0  0  0  0
   38.9270   22.7370   39.4180 H   0  0  0  0  0  0  0  0  0  0  0  0
   37.3050   24.6160   39.1410 H   0  0  0  0  0  0  0  0  0  0  0  0
   38.5770   27.0820   31.4240 O   0  0  0  0  0  0  0  0  0  0  0  0
   37.2300   26.3960   31.2360 P   0  0  2  0  0  0  0  0  0  0  0  0
   36.2750   27.2460   30.1230 O   0  0  0  0  0  0  0  0  0  0  0  0
   36.4790   28.2070   30.1220 H   0  0  0  0  0  0  0  0  0  0  0  0
   37.4320   24.7830   30.7850 O   0  0  0  0  0  0  0  0  0  0  0  0
   37.6480   22.9030   32.3020 C   0  0  1  0  0  3  0  0  0  0  0  0
   36.8020   24.0210   31.7920 C   0  0  2  0  0  3  0  0  0  0  0  0
   35.6150   23.2600   31.1870 C   0  0  0  0  0  3  0  0  0  0  0  0
   35.8480   22.9530   30.1540 H   0  0  0  0  0  0  0  0  0  0  0  0
   35.4320   22.2270   32.0770 O   0  0  0  0  0  0  0  0  0  0  0  0
   36.6620   21.7790   32.4840 C   0  0  0  0  0  3  0  0  0  0  0  0
   36.9730   20.8310   31.9930 H   0  0  0  0  0  0  0  0  0  0  0  0
   38.5850   22.4640   31.3700 O   0  0  0  0  0  0  0  0  0  0  0  0
   38.1120   22.2400   30.5250 H   0  0  0  0  0  0  0  0  0  0  0  0
  1  2  1  0  0  0  0
  2  3  1  0  0  0  0
  2  6  1  0  0  0  0
  4  2  1  0  0  0  0
  5 11  1  0  0  0  0
  6  5  2  0  0  0  0
  7 13  1  0  0  0  0
  7  8  1  0  0  0  0
  8 14  1  0  0  0  0
  9  8  2  0  0  0  0
  9 15  1  0  0  0  0
 10  9  1  0  0  0  0
 11 12  1  0  0  0  0
 11 10  2  0  0  0  0
 12  7  2  0  0  0  0
 17 16  2  1  0  0  0
 17  1  1  0  0  0  0
 18 17  1  0  0  0  0
 19 18  1  0  0  0  0
 20 17  1  0  0  0  0
 21 28  1  6  0  0  0
 21 26  1  0  0  0  0
 22 20  1  6  0  0  0
 22 21  1  0  0  0  0
 23 22  1  0  0  0  0
 23 25  1  0  0  0  0
 24 23  1  0  0  0  0
 25 26  1  0  0  0  0
 27 26  1  0  0  0  0
 29 28  1  0  0  0  0
M  END
>  <minimizedAffinity>
-4.5025177

$$$$

 OpenBabel03262520343D

 29 30  0  0  1  0  0  0  0  0999 V2000
   38.7890   25.1460   35.8460 O   0  0  0  0  0  0  0  0  0  0  0  0
   39.2890   24.2720   34.8890 C   0  0  0  0  0  0  0  0  0  0  0  0
   40.1440   23.6840   35.2240 H   0  0  0  0  0  0  0  0  0  0  0  0
   39.6280   24.9130   34.0300 H   0  0  0  0  0  0  0  0  0  0  0  0
   38.2090   22.8290   33.1940 C   0  0  0  0  0  3  0  0  0  0  0  0
   38.2240   23.3960   34.3500 C   0  0  0  0  0  3  0  0  0  0  0  0
   35.4660   20.4060   33.3760 C   0  0  0  0  0  0  0  0  0  0  0  0
   34.9180   20.4840   32.0750 C   0  0  0  0  0  0  0  0  0  0  0  0
   35.5060   21.3720   31.1550 C   0  0  0  0  0  0  0  0  0  0  0  0
   36.5840   22.1060   31.6050 N   0  0  0  0  0  0  0  0  0  0  0  0
   37.0620   21.9960   32.8410 C   0  0  0  0  0  0  0  0  0  0  0  0
   36.5040   21.1500   33.7200 N   0  0  0  0  0  0  0  0  0  0  0  0
   34.9640   19.7030   34.0280 H   0  0  0  0  0  0  0  0  0  0  0  0
   34.0840   19.9110   31.7370 H   0  0  0  0  0  0  0  0  0  0  0  0
   35.1640   21.5040   30.1440 H   0  0  0  0  0  0  0  0  0  0  0  0
   39.6460   26.8150   34.1040 O   0  0  0  0  0  0  0  0  0  0  0  0
   38.5180   26.6690   35.1170 P   0  0  2  0  0  0  0  0  0  0  0  0
   38.6440   27.8480   36.3280 O   0  0  0  0  0  0  0  0  0  0  0  0
   39.5760   28.1180   36.4830 H   0  0  0  0  0  0  0  0  0  0  0  0
   37.0120   26.7120   34.3560 O   0  0  0  0  0  0  0  0  0  0  0  0
   36.7400   28.2480   32.4990 C   0  0  1  0  0  3  0  0  0  0  0  0
   37.2790   26.9460   32.9900 C   0  0  2  0  0  3  0  0  0  0  0  0
   36.4910   25.9430   32.1380 C   0  0  0  0  0  3  0  0  0  0  0  0
   35.5180   25.7270   32.6090 H   0  0  0  0  0  0  0  0  0  0  0  0
   36.4240   26.5700   30.9150 O   0  0  0  0  0  0  0  0  0  0  0  0
   36.2240   27.9110   31.1240 C   0  0  0  0  0  3  0  0  0  0  0  0
   35.1750   28.2350   30.9510 H   0  0  0  0  0  0  0  0  0  0  0  0
   35.6460   28.6930   33.2360 O   0  0  0  0  0  0  0  0  0  0  0  0
   34.9620   27.9720   33.2590 H   0  0  0  0  0  0  0  0  0  0  0  0
  2  3  1  0  0  0  0
  2  1  1  0  0  0  0
  4  2  1  0  0  0  0
  5  6  2  0  0  0  0
  6  2  1  0  0  0  0
  7 12  1  0  0  0  0
  7 13  1  0  0  0  0
  8  7  2  0  0  0  0
  9 10  2  0  0  0  0
  9  8  1  0  0  0  0
 10 11  1  0  0  0  0
 11  5  1  0  0  0  0
 11 12  2  0  0  0  0
 14  8  1  0  0  0  0
 15  9  1  0  0  0  0
 17 16  2  6  0  0  0
 17  1  1  0  0  0  0
 17 18  1  0  0  0  0
 18 19  1  0  0  0  0
 20 17  1  0  0  0  0
 21 22  1  0  0  0  0
 21 28  1  1  0  0  0
 22 20  1  1  0  0  0
 23 24  1  0  0  0  0
 23 22  1  0  0  0  0
 25 26  1  0  0  0  0
 25 23  1  0  0  0  0
 26 21  1  0  0  0  0
 27 26  1  0  0  0  0
 28 29  1  0  0  0  0
M  END
>  <minimizedAffinity>
-4.44057894

$$$$

 OpenBabel03262520343D

 29 30  0  0  1  0  0  0  0  0999 V2000
   38.7940   26.1860   33.9010 O   0  0  0  0  0  0  0  0  0  0  0  0
   37.9420   25.7620   32.8890 C   0  0  0  0  0  0  0  0  0  0  0  0
   36.8900   25.7270   33.1750 H   0  0  0  0  0  0  0  0  0  0  0  0
   38.2630   24.7170   32.6290 H   0  0  0  0  0  0  0  0  0  0  0  0
   39.0280   27.4610   31.4540 C   0  0  0  0  0  3  0  0  0  0  0  0
   38.1270   26.5630   31.6570 C   0  0  0  0  0  3  0  0  0  0  0  0
   40.1870   29.0230   28.3490 C   0  0  0  0  0  0  0  0  0  0  0  0
   38.9730   29.4390   27.7570 C   0  0  0  0  0  0  0  0  0  0  0  0
   37.7720   29.1740   28.4420 C   0  0  0  0  0  0  0  0  0  0  0  0
   37.8800   28.5190   29.6510 N   0  0  0  0  0  0  0  0  0  0  0  0
   39.0490   28.1480   30.1650 C   0  0  0  0  0  0  0  0  0  0  0  0
   40.1950   28.4000   29.5150 N   0  0  0  0  0  0  0  0  0  0  0  0
   41.0690   29.2610   27.7670 H   0  0  0  0  0  0  0  0  0  0  0  0
   38.9000   29.9450   26.8210 H   0  0  0  0  0  0  0  0  0  0  0  0
   36.7990   29.4490   28.0770 H   0  0  0  0  0  0  0  0  0  0  0  0
   36.6650   27.3310   34.7400 O   0  0  0  0  0  0  0  0  0  0  0  0
   37.8640   26.5660   35.2840 P   0  0  2  0  0  0  0  0  0  0  0  0
   38.8080   27.5610   36.2800 O   0  0  0  0  0  0  0  0  0  0  0  0
   38.7530   28.5050   36.0160 H   0  0  0  0  0  0  0  0  0  0  0  0
   37.3740   25.1630   36.0840 O   0  0  0  0  0  0  0  0  0  0  0  0
   39.2870   23.6890   36.3050 C   0  0  1  0  0  3  0  0  0  0  0  0
   38.4640   24.7840   36.8960 C   0  0  2  0  0  3  0  0  0  0  0  0
   37.9380   24.1200   38.1750 C   0  0  0  0  0  3  0  0  0  0  0  0
   37.0250   23.5410   37.9550 H   0  0  0  0  0  0  0  0  0  0  0  0
   39.0160   23.3760   38.5960 O   0  0  0  0  0  0  0  0  0  0  0  0
   39.6240   22.8290   37.4950 C   0  0  0  0  0  3  0  0  0  0  0  0
   39.3890   21.7530   37.3480 H   0  0  0  0  0  0  0  0  0  0  0  0
   38.5670   22.8850   35.4250 O   0  0  0  0  0  0  0  0  0  0  0  0
   37.7540   22.5530   35.8900 H   0  0  0  0  0  0  0  0  0  0  0  0
  1 17  1  0  0  0  0
  2  3  1  0  0  0  0
  2  1  1  0  0  0  0
  4  2  1  0  0  0  0
  5  6  2  0  0  0  0
  6  2  1  0  0  0  0
  7 12  1  0  0  0  0
  8  7  2  0  0  0  0
  8  9  1  0  0  0  0
  9 10  2  0  0  0  0
 10 11  1  0  0  0  0
 11  5  1  0  0  0  0
 12 11  2  0  0  0  0
 13  7  1  0  0  0  0
 14  8  1  0  0  0  0
 15  9  1  0  0  0  0
 17 16  2  6  0  0  0
 17 20  1  0  0  0  0
 17 18  1  0  0  0  0
 19 18  1  0  0  0  0
 21 28  1  6  0  0  0
 21 22  1  0  0  0  0
 21 26  1  0  0  0  0
 22 20  1  6  0  0  0
 22 23  1  0  0  0  0
 23 25  1  0  0  0  0
 24 23  1  0  0  0  0
 26 25  1  0  0  0  0
 27 26  1  0  0  0  0
 28 29  1  0  0  0  0
M  END
>  <minimizedAffinity>
-4.28157711

$$$$

 OpenBabel03262520343D

 29 30  0  0  1  0  0  0  0  0999 V2000
   35.7520   22.6600   32.1180 O   0  0  0  0  0  0  0  0  0  0  0  0
   36.8750   21.9170   32.4590 C   0  0  0  0  0  0  0  0  0  0  0  0
   37.6930   21.9880   31.7410 H   0  0  0  0  0  0  0  0  0  0  0  0
   36.5400   20.8450   32.4940 H   0  0  0  0  0  0  0  0  0  0  0  0
   38.5000   21.9770   34.3240 C   0  0  0  0  0  3  0  0  0  0  0  0
   37.3430   22.2430   33.8260 C   0  0  0  0  0  3  0  0  0  0  0  0
   40.1840   22.5280   37.5320 C   0  0  0  0  0  0  0  0  0  0  0  0
   39.1820   23.1840   38.2820 C   0  0  0  0  0  0  0  0  0  0  0  0
   37.9400   23.4250   37.6670 C   0  0  0  0  0  0  0  0  0  0  0  0
   37.7990   22.9970   36.3640 N   0  0  0  0  0  0  0  0  0  0  0  0
   38.7750   22.3820   35.7010 C   0  0  0  0  0  0  0  0  0  0  0  0
   39.9600   22.1500   36.2840 N   0  0  0  0  0  0  0  0  0  0  0  0
   41.1120   22.3750   38.0690 H   0  0  0  0  0  0  0  0  0  0  0  0
   39.3010   23.5120   39.2900 H   0  0  0  0  0  0  0  0  0  0  0  0
   37.1150   23.9170   38.1520 H   0  0  0  0  0  0  0  0  0  0  0  0
   35.0450   24.6580   30.6830 O   0  0  0  0  0  0  0  0  0  0  0  0
   36.2560   24.1550   31.4590 P   0  0  2  0  0  0  0  0  0  0  0  0
   37.5510   23.8430   30.4110 O   0  0  0  0  0  0  0  0  0  0  0  0
   37.2460   23.5810   29.5150 H   0  0  0  0  0  0  0  0  0  0  0  0
   36.6830   25.2370   32.6800 O   0  0  0  0  0  0  0  0  0  0  0  0
   38.9010   25.5840   33.5980 C   0  0  1  0  0  3  0  0  0  0  0  0
   38.0110   25.6260   32.4010 C   0  0  2  0  0  3  0  0  0  0  0  0
   38.0400   27.1180   32.0460 C   0  0  0  0  0  3  0  0  0  0  0  0
   37.2860   27.6640   32.6370 H   0  0  0  0  0  0  0  0  0  0  0  0
   39.3470   27.4650   32.3010 O   0  0  0  0  0  0  0  0  0  0  0  0
   39.7580   26.8110   33.4350 C   0  0  0  0  0  3  0  0  0  0  0  0
   39.7810   27.4610   34.3370 H   0  0  0  0  0  0  0  0  0  0  0  0
   38.2070   25.7390   34.7950 O   0  0  0  0  0  0  0  0  0  0  0  0
   37.6640   26.5700   34.7430 H   0  0  0  0  0  0  0  0  0  0  0  0
  1  2  1  0  0  0  0
  2  4  1  0  0  0  0
  2  6  1  0  0  0  0
  3  2  1  0  0  0  0
  5 11  1  0  0  0  0
  6  5  2  0  0  0  0
  7 13  1  0  0  0  0
  7  8  1  0  0  0  0
  8 14  1  0  0  0  0
  9 15  1  0  0  0  0
  9  8  2  0  0  0  0
 10  9  1  0  0  0  0
 11 12  1  0  0  0  0
 11 10  2  0  0  0  0
 12  7  2  0  0  0  0
 17 16  2  6  0  0  0
 17  1  1  0  0  0  0
 17 20  1  0  0  0  0
 18 17  1  0  0  0  0
 19 18  1  0  0  0  0
 21 28  1  1  0  0  0
 22 20  1  1  0  0  0
 22 21  1  0  0  0  0
 23 25  1  0  0  0  0
 23 22  1  0  0  0  0
 23 24  1  0  0  0  0
 25 26  1  0  0  0  0
 26 21  1  0  0  0  0
 26 27  1  0  0  0  0
 29 28  1  0  0  0  0
M  END
>  <minimizedAffinity>
-4.27476072

$$$$
