
 OpenBabel03272504193D

 27 28  0  0  1  0  0  0  0  0999 V2000
   36.0310   29.9510   46.9690 O   0  0  0  0  0  0  0  0  0  0  0  0
   36.0280   30.2310   48.4430 P   0  0  2  0  0  0  0  0  0  0  0  0
   36.7960   28.9110   49.2200 O   0  0  0  0  0  0  0  0  0  0  0  0
   36.8030   28.1040   48.6490 H   0  0  0  0  0  0  0  0  0  0  0  0
   34.4400   30.3650   49.0180 O   0  0  0  0  0  0  0  0  0  0  0  0
   34.1690   29.2500   49.7810 C   0  0  0  0  0  0  0  0  0  0  0  0
   35.0670   28.7740   50.2370 H   0  0  0  0  0  0  0  0  0  0  0  0
   33.5500   29.5960   50.6610 H   0  0  0  0  0  0  0  0  0  0  0  0
   33.3220   28.2540   49.0650 C   0  0  0  0  0  0  0  0  0  0  0  0
   33.9550   27.3630   48.2130 C   0  0  0  0  0  0  0  0  0  0  0  0
   33.1820   26.4280   47.5380 C   0  0  0  0  0  0  0  0  0  0  0  0
   31.8440   26.4330   47.7440 N   0  0  0  0  0  0  0  0  0  0  0  0
   31.2400   27.3130   48.5820 C   0  0  0  0  0  0  0  0  0  0  0  0
   31.9810   28.2290   49.2470 N   0  0  0  0  0  0  0  0  0  0  0  0
   35.0270   27.3410   48.0320 H   0  0  0  0  0  0  0  0  0  0  0  0
   33.5740   25.6970   46.8590 H   0  0  0  0  0  0  0  0  0  0  0  0
   30.1680   27.2990   48.7330 H   0  0  0  0  0  0  0  0  0  0  0  0
   36.8820   31.6500   48.7470 O   0  0  0  0  0  0  0  0  0  0  0  0
   38.8510   32.4760   47.8150 C   0  0  2  0  0  0  0  0  0  0  0  0
   38.2560   31.4520   48.7620 C   0  0  1  0  0  0  0  0  0  0  0  0
   38.8270   32.0170   50.0700 C   0  0  0  0  0  0  0  0  0  0  0  0
   38.3650   31.5610   50.9620 H   0  0  0  0  0  0  0  0  0  0  0  0
   38.4790   33.3500   49.9640 O   0  0  0  0  0  0  0  0  0  0  0  0
   38.6750   33.7420   48.6560 C   0  0  0  0  0  0  0  0  0  0  0  0
   39.5050   34.4510   48.5440 H   0  0  0  0  0  0  0  0  0  0  0  0
   38.0870   32.4940   46.6610 O   0  0  0  0  0  0  0  0  0  0  0  0
   38.4530   33.2010   46.0630 H   0  0  0  0  0  0  0  0  0  0  0  0
  2  1  2  6  0  0  0
  2 18  1  0  0  0  0
  2  5  1  0  0  0  0
  2  3  1  0  0  0  0
  4  3  1  0  0  0  0
  5  6  1  0  0  0  0
  6  7  1  0  0  0  0
  6  8  1  0  0  0  0
  9 14  1  0  0  0  0
  9  6  1  0  0  0  0
 10  9  2  0  0  0  0
 11 12  2  0  0  0  0
 11 10  1  0  0  0  0
 12 13  1  0  0  0  0
 13 17  1  0  0  0  0
 13 14  2  0  0  0  0
 15 10  1  0  0  0  0
 16 11  1  0  0  0  0
 19 26  1  6  0  0  0
 19 24  1  0  0  0  0
 19 20  1  0  0  0  0
 20 18  1  1  0  0  0
 20 21  1  0  0  0  0
 21 22  1  0  0  0  0
 23 21  1  0  0  0  0
 24 23  1  0  0  0  0
 25 24  1  0  0  0  0
 27 26  1  0  0  0  0
M  END
>  <minimizedAffinity>
-3.887218

>  <minimizedRMSD>
2.91775322

$$$$
