
 OpenBabel03272504203D

 27 28  0  0  1  0  0  0  0  0999 V2000
   36.6270   27.4810   34.9270 O   0  0  0  0  0  0  0  0  0  0  0  0
   37.8960   26.7250   35.1920 P   0  0  2  0  0  0  0  0  0  0  0  0
   38.8770   27.7020   36.2010 O   0  0  0  0  0  0  0  0  0  0  0  0
   38.6110   28.6540   36.1600 H   0  0  0  0  0  0  0  0  0  0  0  0
   38.7210   26.4240   33.7420 O   0  0  0  0  0  0  0  0  0  0  0  0
   37.9250   26.8550   32.7030 C   0  0  0  0  0  0  0  0  0  0  0  0
   37.3200   27.7620   32.9320 H   0  0  0  0  0  0  0  0  0  0  0  0
   38.6160   27.1750   31.8690 H   0  0  0  0  0  0  0  0  0  0  0  0
   37.0850   25.7650   32.1300 C   0  0  0  0  0  0  0  0  0  0  0  0
   35.9060   26.1240   31.4970 C   0  0  0  0  0  0  0  0  0  0  0  0
   35.1120   25.1220   30.9560 C   0  0  0  0  0  0  0  0  0  0  0  0
   35.5280   23.8390   31.0760 N   0  0  0  0  0  0  0  0  0  0  0  0
   36.6860   23.5050   31.6990 C   0  0  0  0  0  0  0  0  0  0  0  0
   37.4700   24.4710   32.2290 N   0  0  0  0  0  0  0  0  0  0  0  0
   35.5520   27.1460   31.3900 H   0  0  0  0  0  0  0  0  0  0  0  0
   34.1840   25.2950   30.4480 H   0  0  0  0  0  0  0  0  0  0  0  0
   37.0000   22.4720   31.7820 H   0  0  0  0  0  0  0  0  0  0  0  0
   37.5360   25.2770   35.9710 O   0  0  0  0  0  0  0  0  0  0  0  0
   38.4380   23.8350   37.5630 C   0  0  2  0  0  3  0  0  0  0  0  0
   38.6670   24.5140   36.2260 C   0  0  1  0  0  3  0  0  0  0  0  0
   38.6310   23.2590   35.3430 C   0  0  0  0  0  3  0  0  0  0  0  0
   38.5690   23.5030   34.2690 H   0  0  0  0  0  0  0  0  0  0  0  0
   37.4680   22.6540   35.7780 O   0  0  0  0  0  0  0  0  0  0  0  0
   37.4010   22.7890   37.1490 C   0  0  0  0  0  3  0  0  0  0  0  0
   37.5210   21.8330   37.6760 H   0  0  0  0  0  0  0  0  0  0  0  0
   37.9260   24.7720   38.4420 O   0  0  0  0  0  0  0  0  0  0  0  0
   37.7330   24.3110   39.3030 H   0  0  0  0  0  0  0  0  0  0  0  0
  2  1  2  6  0  0  0
  2 18  1  0  0  0  0
  2  3  1  0  0  0  0
  4  3  1  0  0  0  0
  5  2  1  0  0  0  0
  6  7  1  0  0  0  0
  6  5  1  0  0  0  0
  8  6  1  0  0  0  0
  9 14  1  0  0  0  0
  9  6  1  0  0  0  0
 10  9  2  0  0  0  0
 11 12  2  0  0  0  0
 11 10  1  0  0  0  0
 12 13  1  0  0  0  0
 13 17  1  0  0  0  0
 13 14  2  0  0  0  0
 15 10  1  0  0  0  0
 16 11  1  0  0  0  0
 19 26  1  1  0  0  0
 20 18  1  6  0  0  0
 20 19  1  0  0  0  0
 21 23  1  0  0  0  0
 21 20  1  0  0  0  0
 22 21  1  0  0  0  0
 23 24  1  0  0  0  0
 24 19  1  0  0  0  0
 24 25  1  0  0  0  0
 26 27  1  0  0  0  0
M  END
>  <minimizedAffinity>
-4.4846468

$$$$

 OpenBabel03272504203D

 27 28  0  0  1  0  0  0  0  0999 V2000
   36.8170   26.4350   35.2510 O   0  0  0  0  0  0  0  0  0  0  0  0
   38.3160   26.4400   35.1740 P   0  0  2  0  0  0  0  0  0  0  0  0
   38.8880   27.5670   36.3310 O   0  0  0  0  0  0  0  0  0  0  0  0
   38.1870   28.2150   36.5890 H   0  0  0  0  0  0  0  0  0  0  0  0
   38.8280   26.9190   33.6320 O   0  0  0  0  0  0  0  0  0  0  0  0
   38.8510   25.8030   32.8250 C   0  0  0  0  0  0  0  0  0  0  0  0
   39.6920   25.7770   32.0960 H   0  0  0  0  0  0  0  0  0  0  0  0
   39.0290   24.9130   33.4990 H   0  0  0  0  0  0  0  0  0  0  0  0
   37.5410   25.5450   32.1620 C   0  0  0  0  0  0  0  0  0  0  0  0
   36.8910   26.6200   31.5770 C   0  0  0  0  0  0  0  0  0  0  0  0
   35.6700   26.3980   30.9550 C   0  0  0  0  0  0  0  0  0  0  0  0
   35.1720   25.1380   30.9500 N   0  0  0  0  0  0  0  0  0  0  0  0
   35.8220   24.0970   31.5270 C   0  0  0  0  0  0  0  0  0  0  0  0
   37.0130   24.2990   32.1370 N   0  0  0  0  0  0  0  0  0  0  0  0
   37.2710   27.6380   31.5690 H   0  0  0  0  0  0  0  0  0  0  0  0
   35.0890   27.1600   30.4740 H   0  0  0  0  0  0  0  0  0  0  0  0
   35.4060   23.0980   31.5110 H   0  0  0  0  0  0  0  0  0  0  0  0
   38.9010   24.9030   35.5330 O   0  0  0  0  0  0  0  0  0  0  0  0
   38.1590   22.6960   35.6320 C   0  0  2  0  0  3  0  0  0  0  0  0
   37.9520   24.1040   36.1570 C   0  0  1  0  0  3  0  0  0  0  0  0
   38.3880   23.8540   37.6080 C   0  0  0  0  0  3  0  0  0  0  0  0
   38.5290   24.7920   38.1720 H   0  0  0  0  0  0  0  0  0  0  0  0
   39.5940   23.2070   37.4220 O   0  0  0  0  0  0  0  0  0  0  0  0
   39.4530   22.3320   36.3640 C   0  0  0  0  0  3  0  0  0  0  0  0
   39.4900   21.2800   36.6740 H   0  0  0  0  0  0  0  0  0  0  0  0
   38.3260   22.7670   34.2610 O   0  0  0  0  0  0  0  0  0  0  0  0
   38.5080   21.8460   33.9270 H   0  0  0  0  0  0  0  0  0  0  0  0
  2  1  2  1  0  0  0
  2 18  1  0  0  0  0
  2  3  1  0  0  0  0
  3  4  1  0  0  0  0
  5  2  1  0  0  0  0
  6  8  1  0  0  0  0
  6  5  1  0  0  0  0
  7  6  1  0  0  0  0
  9  6  1  0  0  0  0
 10  9  2  0  0  0  0
 11 10  1  0  0  0  0
 12 11  2  0  0  0  0
 12 13  1  0  0  0  0
 13 14  2  0  0  0  0
 14  9  1  0  0  0  0
 15 10  1  0  0  0  0
 16 11  1  0  0  0  0
 17 13  1  0  0  0  0
 19 26  1  6  0  0  0
 19 20  1  0  0  0  0
 19 24  1  0  0  0  0
 20 18  1  6  0  0  0
 20 21  1  0  0  0  0
 21 22  1  0  0  0  0
 23 21  1  0  0  0  0
 24 25  1  0  0  0  0
 24 23  1  0  0  0  0
 27 26  1  0  0  0  0
M  END
>  <minimizedAffinity>
-4.28787136

$$$$

 OpenBabel03272504203D

 27 28  0  0  1  0  0  0  0  0999 V2000
   36.5110   22.7650   32.4030 O   0  0  0  0  0  0  0  0  0  0  0  0
   37.4950   23.8980   32.3940 P   0  0  2  0  0  0  0  0  0  0  0  0
   38.4630   23.7290   30.9900 O   0  0  0  0  0  0  0  0  0  0  0  0
   38.4380   22.8060   30.6370 H   0  0  0  0  0  0  0  0  0  0  0  0
   38.4900   23.8310   33.7640 O   0  0  0  0  0  0  0  0  0  0  0  0
   38.0370   22.8070   34.5680 C   0  0  0  0  0  0  0  0  0  0  0  0
   36.9430   22.6110   34.4920 H   0  0  0  0  0  0  0  0  0  0  0  0
   38.5250   21.8580   34.1970 H   0  0  0  0  0  0  0  0  0  0  0  0
   38.4720   22.9530   35.9860 C   0  0  0  0  0  0  0  0  0  0  0  0
   37.5930   23.5540   36.8720 C   0  0  0  0  0  0  0  0  0  0  0  0
   37.9810   23.6980   38.1970 C   0  0  0  0  0  0  0  0  0  0  0  0
   39.2040   23.2420   38.5600 N   0  0  0  0  0  0  0  0  0  0  0  0
   40.0520   22.6550   37.6790 C   0  0  0  0  0  0  0  0  0  0  0  0
   39.6860   22.5080   36.3850 N   0  0  0  0  0  0  0  0  0  0  0  0
   36.6080   23.9280   36.6030 H   0  0  0  0  0  0  0  0  0  0  0  0
   37.3760   24.1480   38.9590 H   0  0  0  0  0  0  0  0  0  0  0  0
   41.0250   22.2980   37.9910 H   0  0  0  0  0  0  0  0  0  0  0  0
   36.6660   25.3620   32.3450 O   0  0  0  0  0  0  0  0  0  0  0  0
   36.4040   27.1450   30.8670 C   0  0  2  0  0  3  0  0  0  0  0  0
   37.3910   26.3640   31.7130 C   0  0  1  0  0  3  0  0  0  0  0  0
   37.7110   27.4650   32.7330 C   0  0  0  0  0  3  0  0  0  0  0  0
   38.2670   27.0820   33.6060 H   0  0  0  0  0  0  0  0  0  0  0  0
   36.4420   27.8720   33.1010 O   0  0  0  0  0  0  0  0  0  0  0  0
   35.6570   27.9000   31.9670 C   0  0  0  0  0  3  0  0  0  0  0  0
   35.3710   28.9170   31.6720 H   0  0  0  0  0  0  0  0  0  0  0  0
   35.5970   26.2400   30.2000 O   0  0  0  0  0  0  0  0  0  0  0  0
   34.9210   26.7570   29.6820 H   0  0  0  0  0  0  0  0  0  0  0  0
  2  1  2  1  0  0  0
  2  5  1  0  0  0  0
  3  2  1  0  0  0  0
  4  3  1  0  0  0  0
  5  6  1  0  0  0  0
  6  9  1  0  0  0  0
  7  6  1  0  0  0  0
  8  6  1  0  0  0  0
  9 14  2  0  0  0  0
  9 10  1  0  0  0  0
 10 11  2  0  0  0  0
 11 12  1  0  0  0  0
 11 16  1  0  0  0  0
 13 17  1  0  0  0  0
 13 12  2  0  0  0  0
 14 13  1  0  0  0  0
 15 10  1  0  0  0  0
 18  2  1  0  0  0  0
 19 26  1  1  0  0  0
 19 20  1  0  0  0  0
 19 24  1  0  0  0  0
 20 18  1  1  0  0  0
 20 21  1  0  0  0  0
 21 23  1  0  0  0  0
 21 22  1  0  0  0  0
 24 23  1  0  0  0  0
 25 24  1  0  0  0  0
 27 26  1  0  0  0  0
M  END
>  <minimizedAffinity>
-4.26385927

$$$$

 OpenBabel03272504203D

 27 28  0  0  1  0  0  0  0  0999 V2000
   39.8210   23.0280   37.0460 O   0  0  0  0  0  0  0  0  0  0  0  0
   38.5540   23.7760   36.7500 P   0  0  2  0  0  0  0  0  0  0  0  0
   37.9040   24.3010   38.2460 O   0  0  0  0  0  0  0  0  0  0  0  0
   38.2590   23.7750   39.0040 H   0  0  0  0  0  0  0  0  0  0  0  0
   37.4320   22.7630   35.9830 O   0  0  0  0  0  0  0  0  0  0  0  0
   38.1010   22.0410   35.0190 C   0  0  0  0  0  0  0  0  0  0  0  0
   39.0470   22.5110   34.6650 H   0  0  0  0  0  0  0  0  0  0  0  0
   38.4270   21.0710   35.5000 H   0  0  0  0  0  0  0  0  0  0  0  0
   37.2230   21.6470   33.8810 C   0  0  0  0  0  0  0  0  0  0  0  0
   37.6060   22.0350   32.6070 C   0  0  0  0  0  0  0  0  0  0  0  0
   36.7990   21.6770   31.5350 C   0  0  0  0  0  0  0  0  0  0  0  0
   35.6760   20.9650   31.7870 N   0  0  0  0  0  0  0  0  0  0  0  0
   35.3170   20.5930   33.0410 C   0  0  0  0  0  0  0  0  0  0  0  0
   36.0930   20.9340   34.0950 N   0  0  0  0  0  0  0  0  0  0  0  0
   38.5020   22.6080   32.3810 H   0  0  0  0  0  0  0  0  0  0  0  0
   37.0060   21.9280   30.5130 H   0  0  0  0  0  0  0  0  0  0  0  0
   34.4140   20.0220   33.2200 H   0  0  0  0  0  0  0  0  0  0  0  0
   38.9010   25.1060   35.7770 O   0  0  0  0  0  0  0  0  0  0  0  0
   38.0960   27.2300   35.2590 C   0  0  2  0  0  3  0  0  0  0  0  0
   37.7550   25.7550   35.3350 C   0  0  1  0  0  3  0  0  0  0  0  0
   37.5880   25.5000   33.8310 C   0  0  0  0  0  3  0  0  0  0  0  0
   37.5360   24.4240   33.5900 H   0  0  0  0  0  0  0  0  0  0  0  0
   38.7480   26.0590   33.3300 O   0  0  0  0  0  0  0  0  0  0  0  0
   38.9930   27.2280   34.0200 C   0  0  0  0  0  3  0  0  0  0  0  0
   38.8690   28.1230   33.3980 H   0  0  0  0  0  0  0  0  0  0  0  0
   38.7820   27.5750   36.4110 O   0  0  0  0  0  0  0  0  0  0  0  0
   39.0450   28.5330   36.3360 H   0  0  0  0  0  0  0  0  0  0  0  0
  2  1  2  1  0  0  0
  2  3  1  0  0  0  0
  3  4  1  0  0  0  0
  5  2  1  0  0  0  0
  6  8  1  0  0  0  0
  6  5  1  0  0  0  0
  7  6  1  0  0  0  0
  9 14  1  0  0  0  0
  9  6  1  0  0  0  0
 10  9  2  0  0  0  0
 11 12  2  0  0  0  0
 11 10  1  0  0  0  0
 12 13  1  0  0  0  0
 13 17  1  0  0  0  0
 13 14  2  0  0  0  0
 15 10  1  0  0  0  0
 16 11  1  0  0  0  0
 18  2  1  0  0  0  0
 19 20  1  0  0  0  0
 19 26  1  1  0  0  0
 20 18  1  6  0  0  0
 21 20  1  0  0  0  0
 22 21  1  0  0  0  0
 23 21  1  0  0  0  0
 23 24  1  0  0  0  0
 24 19  1  0  0  0  0
 25 24  1  0  0  0  0
 27 26  1  0  0  0  0
M  END
>  <minimizedAffinity>
-4.22158909

$$$$

 OpenBabel03272504203D

 27 28  0  0  1  0  0  0  0  0999 V2000
   39.7360   23.6390   36.2910 O   0  0  0  0  0  0  0  0  0  0  0  0
   38.2520   23.7390   36.4850 P   0  0  2  0  0  0  0  0  0  0  0  0
   37.9570   23.8340   38.1700 O   0  0  0  0  0  0  0  0  0  0  0  0
   38.7220   23.4920   38.6950 H   0  0  0  0  0  0  0  0  0  0  0  0
   37.4790   22.3640   35.8640 O   0  0  0  0  0  0  0  0  0  0  0  0
   38.0900   22.0350   34.6730 C   0  0  0  0  0  0  0  0  0  0  0  0
   38.9110   22.7240   34.3700 H   0  0  0  0  0  0  0  0  0  0  0  0
   38.5960   21.0360   34.8270 H   0  0  0  0  0  0  0  0  0  0  0  0
   37.1160   21.8220   33.5660 C   0  0  0  0  0  0  0  0  0  0  0  0
   36.0940   20.9090   33.7720 C   0  0  0  0  0  0  0  0  0  0  0  0
   35.1770   20.6970   32.7510 C   0  0  0  0  0  0  0  0  0  0  0  0
   35.3270   21.3950   31.6000 N   0  0  0  0  0  0  0  0  0  0  0  0
   36.3330   22.2850   31.4150 C   0  0  0  0  0  0  0  0  0  0  0  0
   37.2330   22.5010   32.4010 N   0  0  0  0  0  0  0  0  0  0  0  0
   35.9540   20.3370   34.6860 H   0  0  0  0  0  0  0  0  0  0  0  0
   34.3530   20.0150   32.8110 H   0  0  0  0  0  0  0  0  0  0  0  0
   36.4340   22.8330   30.4860 H   0  0  0  0  0  0  0  0  0  0  0  0
   37.6770   25.1260   35.7230 O   0  0  0  0  0  0  0  0  0  0  0  0
   37.9760   26.3240   33.7480 C   0  0  2  0  0  3  0  0  0  0  0  0
   38.6590   25.7720   34.9840 C   0  0  1  0  0  3  0  0  0  0  0  0
   38.9890   27.1110   35.6580 C   0  0  0  0  0  3  0  0  0  0  0  0
   39.3190   26.9860   36.7030 H   0  0  0  0  0  0  0  0  0  0  0  0
   37.7670   27.7530   35.6020 O   0  0  0  0  0  0  0  0  0  0  0  0
   37.1970   27.4820   34.3750 C   0  0  0  0  0  3  0  0  0  0  0  0
   37.1440   28.3660   33.7260 H   0  0  0  0  0  0  0  0  0  0  0  0
   37.1480   25.3410   33.2360 O   0  0  0  0  0  0  0  0  0  0  0  0
   36.6660   25.7240   32.4530 H   0  0  0  0  0  0  0  0  0  0  0  0
  2  1  2  6  0  0  0
  2  3  1  0  0  0  0
  3  4  1  0  0  0  0
  5  2  1  0  0  0  0
  6  8  1  0  0  0  0
  6  5  1  0  0  0  0
  7  6  1  0  0  0  0
  9 10  1  0  0  0  0
  9  6  1  0  0  0  0
 10 15  1  0  0  0  0
 11 16  1  0  0  0  0
 11 10  2  0  0  0  0
 12 11  1  0  0  0  0
 13 12  2  0  0  0  0
 13 14  1  0  0  0  0
 14  9  2  0  0  0  0
 17 13  1  0  0  0  0
 18  2  1  0  0  0  0
 19 26  1  1  0  0  0
 19 24  1  0  0  0  0
 19 20  1  0  0  0  0
 20 21  1  0  0  0  0
 20 18  1  1  0  0  0
 21 22  1  0  0  0  0
 23 21  1  0  0  0  0
 24 23  1  0  0  0  0
 25 24  1  0  0  0  0
 27 26  1  0  0  0  0
M  END
>  <minimizedAffinity>
-4.20308304

$$$$

 OpenBabel03272504203D

 27 28  0  0  1  0  0  0  0  0999 V2000
   36.9270   26.3790   35.1410 O   0  0  0  0  0  0  0  0  0  0  0  0
   38.4140   26.4980   35.3070 P   0  0  2  0  0  0  0  0  0  0  0  0
   38.7120   27.8240   36.3520 O   0  0  0  0  0  0  0  0  0  0  0  0
   37.9400   28.4410   36.3890 H   0  0  0  0  0  0  0  0  0  0  0  0
   39.1570   26.7930   33.8120 O   0  0  0  0  0  0  0  0  0  0  0  0
   38.2750   26.4240   32.8200 C   0  0  0  0  0  0  0  0  0  0  0  0
   38.5420   25.4800   32.2920 H   0  0  0  0  0  0  0  0  0  0  0  0
   37.2880   26.2010   33.3230 H   0  0  0  0  0  0  0  0  0  0  0  0
   37.9920   27.5290   31.8610 C   0  0  0  0  0  0  0  0  0  0  0  0
   36.8770   28.3180   32.0950 C   0  0  0  0  0  0  0  0  0  0  0  0
   36.5990   29.3520   31.2110 C   0  0  0  0  0  0  0  0  0  0  0  0
   37.4330   29.5390   30.1600 N   0  0  0  0  0  0  0  0  0  0  0  0
   38.5210   28.7580   29.9460 C   0  0  0  0  0  0  0  0  0  0  0  0
   38.8040   27.7470   30.8000 N   0  0  0  0  0  0  0  0  0  0  0  0
   36.1940   28.1850   32.9300 H   0  0  0  0  0  0  0  0  0  0  0  0
   35.7630   30.0170   31.3030 H   0  0  0  0  0  0  0  0  0  0  0  0
   39.1740   28.9260   29.1000 H   0  0  0  0  0  0  0  0  0  0  0  0
   39.0180   25.0830   35.9910 O   0  0  0  0  0  0  0  0  0  0  0  0
   38.6570   22.8060   35.6490 C   0  0  2  0  0  3  0  0  0  0  0  0
   38.0430   24.1040   36.1360 C   0  0  1  0  0  3  0  0  0  0  0  0
   37.9230   23.7370   37.6210 C   0  0  0  0  0  3  0  0  0  0  0  0
   37.6850   24.6100   38.2530 H   0  0  0  0  0  0  0  0  0  0  0  0
   39.1960   23.2700   37.8890 O   0  0  0  0  0  0  0  0  0  0  0  0
   39.6120   22.5190   36.8090 C   0  0  0  0  0  3  0  0  0  0  0  0
   39.6960   21.4490   37.0420 H   0  0  0  0  0  0  0  0  0  0  0  0
   39.3230   23.0620   34.4630 O   0  0  0  0  0  0  0  0  0  0  0  0
   39.7640   22.2180   34.1720 H   0  0  0  0  0  0  0  0  0  0  0  0
  2  1  2  6  0  0  0
  2 18  1  0  0  0  0
  2  3  1  0  0  0  0
  3  4  1  0  0  0  0
  5  2  1  0  0  0  0
  6  8  1  0  0  0  0
  6  5  1  0  0  0  0
  7  6  1  0  0  0  0
  9 10  1  0  0  0  0
  9  6  1  0  0  0  0
 10 15  1  0  0  0  0
 11 16  1  0  0  0  0
 11 10  2  0  0  0  0
 12 11  1  0  0  0  0
 13 12  2  0  0  0  0
 13 14  1  0  0  0  0
 14  9  2  0  0  0  0
 17 13  1  0  0  0  0
 19 26  1  6  0  0  0
 19 20  1  0  0  0  0
 19 24  1  0  0  0  0
 20 18  1  1  0  0  0
 20 21  1  0  0  0  0
 21 23  1  0  0  0  0
 21 22  1  0  0  0  0
 24 25  1  0  0  0  0
 24 23  1  0  0  0  0
 27 26  1  0  0  0  0
M  END
>  <minimizedAffinity>
-4.20294237

$$$$

 OpenBabel03272504203D

 27 28  0  0  1  0  0  0  0  0999 V2000
   39.8920   26.7010   35.2330 O   0  0  0  0  0  0  0  0  0  0  0  0
   38.4440   26.6090   35.6140 P   0  0  2  0  0  0  0  0  0  0  0  0
   37.9050   28.1930   35.9840 O   0  0  0  0  0  0  0  0  0  0  0  0
   38.6600   28.7960   36.1970 H   0  0  0  0  0  0  0  0  0  0  0  0
   38.2510   25.6240   36.9800 O   0  0  0  0  0  0  0  0  0  0  0  0
   37.8840   24.3680   36.5500 C   0  0  0  0  0  0  0  0  0  0  0  0
   37.0460   23.9110   37.1240 H   0  0  0  0  0  0  0  0  0  0  0  0
   37.4830   24.4840   35.5000 H   0  0  0  0  0  0  0  0  0  0  0  0
   39.0430   23.4380   36.4340 C   0  0  0  0  0  0  0  0  0  0  0  0
   39.6340   22.9940   37.6060 C   0  0  0  0  0  0  0  0  0  0  0  0
   40.7150   22.1260   37.5160 C   0  0  0  0  0  0  0  0  0  0  0  0
   41.1400   21.7560   36.2850 N   0  0  0  0  0  0  0  0  0  0  0  0
   40.5480   22.2000   35.1480 C   0  0  0  0  0  0  0  0  0  0  0  0
   39.4950   23.0450   35.2200 N   0  0  0  0  0  0  0  0  0  0  0  0
   39.3110   23.2790   38.6040 H   0  0  0  0  0  0  0  0  0  0  0  0
   41.2400   21.7270   38.3610 H   0  0  0  0  0  0  0  0  0  0  0  0
   40.9040   21.8900   34.1730 H   0  0  0  0  0  0  0  0  0  0  0  0
   37.5610   25.9920   34.3200 O   0  0  0  0  0  0  0  0  0  0  0  0
   37.7080   24.9160   32.2580 C   0  0  2  0  0  3  0  0  0  0  0  0
   38.2720   26.0230   33.1270 C   0  0  1  0  0  3  0  0  0  0  0  0
   37.7890   27.2150   32.2900 C   0  0  0  0  0  3  0  0  0  0  0  0
   37.8950   28.1750   32.8240 H   0  0  0  0  0  0  0  0  0  0  0  0
   36.4550   26.8990   32.1110 O   0  0  0  0  0  0  0  0  0  0  0  0
   36.3650   25.5420   31.8770 C   0  0  0  0  0  3  0  0  0  0  0  0
   36.0580   25.3080   30.8500 H   0  0  0  0  0  0  0  0  0  0  0  0
   37.5640   23.7840   33.0400 O   0  0  0  0  0  0  0  0  0  0  0  0
   37.1490   23.0740   32.4770 H   0  0  0  0  0  0  0  0  0  0  0  0
  2  1  2  6  0  0  0
  2  3  1  0  0  0  0
  2  5  1  0  0  0  0
  3  4  1  0  0  0  0
  6  5  1  0  0  0  0
  6  7  1  0  0  0  0
  8  6  1  0  0  0  0
  9  6  1  0  0  0  0
  9 10  1  0  0  0  0
 10 15  1  0  0  0  0
 11 10  2  0  0  0  0
 11 16  1  0  0  0  0
 12 11  1  0  0  0  0
 13 14  1  0  0  0  0
 13 12  2  0  0  0  0
 14  9  2  0  0  0  0
 17 13  1  0  0  0  0
 18  2  1  0  0  0  0
 19 26  1  1  0  0  0
 19 20  1  0  0  0  0
 20 18  1  1  0  0  0
 21 22  1  0  0  0  0
 21 20  1  0  0  0  0
 23 21  1  0  0  0  0
 24 23  1  0  0  0  0
 24 19  1  0  0  0  0
 25 24  1  0  0  0  0
 27 26  1  0  0  0  0
M  END
>  <minimizedAffinity>
-4.19599009

$$$$

 OpenBabel03272504203D

 27 28  0  0  1  0  0  0  0  0999 V2000
   37.4050   21.8720   34.6520 O   0  0  0  0  0  0  0  0  0  0  0  0
   38.3500   22.8750   35.2450 P   0  0  2  0  0  0  0  0  0  0  0  0
   37.6670   23.4200   36.7190 O   0  0  0  0  0  0  0  0  0  0  0  0
   36.6930   23.2530   36.7550 H   0  0  0  0  0  0  0  0  0  0  0  0
   38.5440   24.1970   34.2020 O   0  0  0  0  0  0  0  0  0  0  0  0
   38.1970   23.7890   32.9320 C   0  0  0  0  0  0  0  0  0  0  0  0
   39.0610   23.6300   32.2470 H   0  0  0  0  0  0  0  0  0  0  0  0
   37.7200   22.7700   33.0320 H   0  0  0  0  0  0  0  0  0  0  0  0
   37.1580   24.6580   32.3120 C   0  0  0  0  0  0  0  0  0  0  0  0
   36.1370   24.0410   31.6070 C   0  0  0  0  0  0  0  0  0  0  0  0
   35.1590   24.8350   31.0230 C   0  0  0  0  0  0  0  0  0  0  0  0
   35.2510   26.1780   31.1700 N   0  0  0  0  0  0  0  0  0  0  0  0
   36.2580   26.7660   31.8640 C   0  0  0  0  0  0  0  0  0  0  0  0
   37.2170   26.0050   32.4390 N   0  0  0  0  0  0  0  0  0  0  0  0
   36.0430   22.9660   31.4750 H   0  0  0  0  0  0  0  0  0  0  0  0
   34.3300   24.4560   30.4590 H   0  0  0  0  0  0  0  0  0  0  0  0
   36.3110   27.8430   31.9690 H   0  0  0  0  0  0  0  0  0  0  0  0
   39.8360   22.1410   35.5400 O   0  0  0  0  0  0  0  0  0  0  0  0
   41.1630   22.3610   37.4420 C   0  0  2  0  0  3  0  0  0  0  0  0
   40.7480   23.0040   36.1330 C   0  0  1  0  0  3  0  0  0  0  0  0
   42.0940   22.8850   35.4040 C   0  0  0  0  0  3  0  0  0  0  0  0
   42.0080   23.1010   34.3260 H   0  0  0  0  0  0  0  0  0  0  0  0
   42.4000   21.5540   35.6150 O   0  0  0  0  0  0  0  0  0  0  0  0
   42.0500   21.2340   36.9100 C   0  0  0  0  0  3  0  0  0  0  0  0
   42.9190   21.0330   37.5490 H   0  0  0  0  0  0  0  0  0  0  0  0
   40.0250   21.8900   38.0720 O   0  0  0  0  0  0  0  0  0  0  0  0
   40.3070   21.4280   38.9080 H   0  0  0  0  0  0  0  0  0  0  0  0
  2  1  2  6  0  0  0
  2 18  1  0  0  0  0
  2  3  1  0  0  0  0
  3  4  1  0  0  0  0
  5  2  1  0  0  0  0
  6  8  1  0  0  0  0
  6  5  1  0  0  0  0
  7  6  1  0  0  0  0
  9 14  1  0  0  0  0
  9  6  1  0  0  0  0
 10  9  2  0  0  0  0
 11 12  2  0  0  0  0
 11 10  1  0  0  0  0
 12 13  1  0  0  0  0
 13 17  1  0  0  0  0
 13 14  2  0  0  0  0
 15 10  1  0  0  0  0
 16 11  1  0  0  0  0
 19 26  1  6  0  0  0
 20 18  1  6  0  0  0
 20 19  1  0  0  0  0
 21 23  1  0  0  0  0
 21 20  1  0  0  0  0
 22 21  1  0  0  0  0
 23 24  1  0  0  0  0
 24 19  1  0  0  0  0
 24 25  1  0  0  0  0
 26 27  1  0  0  0  0
M  END
>  <minimizedAffinity>
-4.1473031

$$$$

 OpenBabel03272504203D

 27 28  0  0  1  0  0  0  0  0999 V2000
   35.5800   24.0960   31.6050 O   0  0  0  0  0  0  0  0  0  0  0  0
   36.7600   25.0020   31.4120 P   0  0  2  0  0  0  0  0  0  0  0  0
   37.6240   24.4380   30.0430 O   0  0  0  0  0  0  0  0  0  0  0  0
   37.4100   23.4950   29.8380 H   0  0  0  0  0  0  0  0  0  0  0  0
   37.7750   24.9500   32.7680 O   0  0  0  0  0  0  0  0  0  0  0  0
   37.9750   23.6270   33.0980 C   0  0  0  0  0  0  0  0  0  0  0  0
   37.1340   22.9510   32.8230 H   0  0  0  0  0  0  0  0  0  0  0  0
   38.8490   23.2620   32.4820 H   0  0  0  0  0  0  0  0  0  0  0  0
   38.3850   23.4440   34.5190 C   0  0  0  0  0  0  0  0  0  0  0  0
   38.1260   24.4790   35.4040 C   0  0  0  0  0  0  0  0  0  0  0  0
   38.5010   24.3250   36.7330 C   0  0  0  0  0  0  0  0  0  0  0  0
   39.1030   23.1690   37.1000 N   0  0  0  0  0  0  0  0  0  0  0  0
   39.3480   22.1660   36.2200 C   0  0  0  0  0  0  0  0  0  0  0  0
   38.9880   22.3020   34.9230 N   0  0  0  0  0  0  0  0  0  0  0  0
   37.6460   25.4150   35.1320 H   0  0  0  0  0  0  0  0  0  0  0  0
   38.3460   25.0640   37.4930 H   0  0  0  0  0  0  0  0  0  0  0  0
   39.8300   21.2490   36.5360 H   0  0  0  0  0  0  0  0  0  0  0  0
   36.2240   26.5750   31.1430 O   0  0  0  0  0  0  0  0  0  0  0  0
   36.9920   28.6730   30.4840 C   0  0  2  0  0  3  0  0  0  0  0  0
   37.1860   27.5260   31.4560 C   0  0  1  0  0  3  0  0  0  0  0  0
   36.7620   28.2600   32.7360 C   0  0  0  0  0  3  0  0  0  0  0  0
   36.6140   27.5730   33.5860 H   0  0  0  0  0  0  0  0  0  0  0  0
   35.5620   28.8210   32.3420 O   0  0  0  0  0  0  0  0  0  0  0  0
   35.7080   29.2810   31.0500 C   0  0  0  0  0  3  0  0  0  0  0  0
   35.6850   30.3760   30.9830 H   0  0  0  0  0  0  0  0  0  0  0  0
   36.8170   28.1420   29.2180 O   0  0  0  0  0  0  0  0  0  0  0  0
   36.6430   28.8960   28.5910 H   0  0  0  0  0  0  0  0  0  0  0  0
  2  1  2  1  0  0  0
  2  5  1  0  0  0  0
  3  2  1  0  0  0  0
  4  3  1  0  0  0  0
  5  6  1  0  0  0  0
  6  9  1  0  0  0  0
  7  6  1  0  0  0  0
  8  6  1  0  0  0  0
  9 14  2  0  0  0  0
  9 10  1  0  0  0  0
 10 11  2  0  0  0  0
 11 12  1  0  0  0  0
 11 16  1  0  0  0  0
 13 17  1  0  0  0  0
 13 12  2  0  0  0  0
 14 13  1  0  0  0  0
 15 10  1  0  0  0  0
 18  2  1  0  0  0  0
 19 26  1  6  0  0  0
 19 24  1  0  0  0  0
 19 20  1  0  0  0  0
 20 18  1  6  0  0  0
 20 21  1  0  0  0  0
 21 22  1  0  0  0  0
 23 21  1  0  0  0  0
 24 23  1  0  0  0  0
 25 24  1  0  0  0  0
 27 26  1  0  0  0  0
M  END
>  <minimizedAffinity>
-4.12705803

$$$$
