REMARK  Name = 
REMARK  7 active torsions:
REMARK  status: ('A' for Active; 'I' for Inactive)
REMARK    1  A    between atoms: C_1  and  C_2
REMARK    2  A    between atoms: C_1  and  O_8
REMARK    3  A    between atoms: O_8  and  P_10
REMARK    4  A    between atoms: P_10  and  O_11
REMARK    5  A    between atoms: P_10  and  O_12
REMARK    6  A    between atoms: O_12  and  C_21
REMARK    7  A    between atoms: O_19  and  C_20
REMARK                            x       y       z     vdW  Elec       q    Type
REMARK                         _______ _______ _______ _____ _____    ______ ____
ROOT
ATOM      1  O   UNL     1      38.403  31.172  48.039  0.00  0.00    +0.000 OA
ATOM      2  P   UNL     1      38.017  31.709  49.386  0.00  0.00    +0.000 P 
ENDROOT
BRANCH   2   3
ATOM      3  O   UNL     1      38.815  30.759  50.568  0.00  0.00    +0.000 OA
ATOM      4  H   UNL     1      39.096  29.883  50.205  0.00  0.00    +0.000 HD
ENDBRANCH   2   3
BRANCH   2   5
ATOM      5  O   UNL     1      36.342  31.587  49.615  0.00  0.00    +0.000 OA
BRANCH   5   6
ATOM      6  C   UNL     1      36.062  30.302  50.025  0.00  0.00    +0.000 C 
ATOM      7  H   UNL     1      36.961  29.681  50.243  0.00  0.00    +0.000 HD
ATOM      8  H   UNL     1      35.523  30.382  51.015  0.00  0.00    +0.000 HD
BRANCH   6   9
ATOM      9  C   UNL     1      35.117  29.599  49.112  0.00  0.00    +0.000 A 
ATOM     10  C   UNL     1      34.671  30.284  47.993  0.00  0.00    +0.000 A 
ATOM     11  C   UNL     1      33.790  29.644  47.131  0.00  0.00    +0.000 A 
ATOM     12  N   UNL     1      33.408  28.379  47.427  0.00  0.00    +0.000 NA
ATOM     13  C   UNL     1      33.855  27.723  48.527  0.00  0.00    +0.000 A 
ATOM     14  N   UNL     1      34.714  28.334  49.375  0.00  0.00    +0.000 NA
ATOM     15  H   UNL     1      34.963  31.299  47.736  0.00  0.00    +0.000 HD
ATOM     16  H   UNL     1      33.388  30.086  46.241  0.00  0.00    +0.000 HD
ATOM     17  H   UNL     1      33.537  26.711  48.744  0.00  0.00    +0.000 HD
ENDBRANCH   6   9
ENDBRANCH   5   6
ENDBRANCH   2   5
BRANCH   2  18
ATOM     18  O   UNL     1      38.509  33.314  49.513  0.00  0.00    +0.000 OA
BRANCH  18  20
ATOM     19  C   UNL     1      40.639  33.309  48.570  0.00  0.00    +0.000 C 
ATOM     20  C   UNL     1      39.849  33.434  49.858  0.00  0.00    +0.000 C 
ATOM     21  C   UNL     1      40.157  34.908  50.153  0.00  0.00    +0.000 C 
ATOM     22  H   UNL     1      39.519  35.319  50.954  0.00  0.00    +0.000 HD
ATOM     23  O   UNL     1      39.862  35.496  48.938  0.00  0.00    +0.000 OA
ATOM     24  C   UNL     1      40.322  34.666  47.938  0.00  0.00    +0.000 C 
ATOM     25  H   UNL     1      41.171  35.093  47.388  0.00  0.00    +0.000 HD
BRANCH  19  26
ATOM     26  O   UNL     1      40.122  32.251  47.845  0.00  0.00    +0.000 OA
ATOM     27  H   UNL     1      40.612  32.203  46.979  0.00  0.00    +0.000 HD
ENDBRANCH  19  26
ENDBRANCH  18  20
ENDBRANCH   2  18
TORSDOF 7
