
     RDKit          3D

 38 40  0  0  0  0  0  0  0  0999 V2000
   37.9170   30.2792   48.1512 F   0  0  0  0  0  0  0  0  0  0  0  0
   36.9860   30.2284   47.1701 C   0  0  0  0  0  0  0  0  0  0  0  0
   37.2076   30.7352   45.9015 C   0  0  0  0  0  0  0  0  0  0  0  0
   36.2077   30.6421   44.9649 C   0  0  0  0  0  0  0  0  0  0  0  0
   34.9766   30.0615   45.2264 C   0  0  0  0  0  0  0  0  0  0  0  0
   34.7776   29.5604   46.5050 C   0  0  0  0  0  0  0  0  0  0  0  0
   35.7742   29.6414   47.4744 C   0  0  0  0  0  0  0  0  0  0  0  0
   39.6524   33.2717   44.9003 C   0  0  0  0  0  0  0  0  0  0  0  0
   40.8780   32.6228   45.0162 C   0  0  0  0  0  0  0  0  0  0  0  0
   40.8591   31.3045   45.4417 C   0  0  0  0  0  0  0  0  0  0  0  0
   39.6857   30.6760   45.7328 N   0  0  0  0  0  0  0  0  0  0  0  0
   38.5053   31.3545   45.6040 C   0  0  0  0  0  0  0  0  0  0  0  0
   38.5029   32.6422   45.1899 N   0  0  0  0  0  0  0  0  0  0  0  0
   35.5534   29.1431   48.7181 O   0  0  0  0  0  0  0  0  0  0  0  0
   35.7645   29.2056   51.2951 O   0  0  0  0  0  0  0  0  0  0  0  0
   35.1214   29.9341   50.1214 P   0  0  2  0  0  0  0  0  0  0  0  0
   33.4689   29.9837   50.4243 O   0  0  0  0  0  0  0  0  0  0  0  0
   35.7396   31.5326   50.1456 O   0  0  0  0  0  0  0  0  0  0  0  0
   36.4520   31.0625   43.9864 H   0  0  0  0  0  0  0  0  0  0  0  0
   34.2435   30.0202   44.4578 H   0  0  0  0  0  0  0  0  0  0  0  0
   33.8386   29.1012   46.7543 H   0  0  0  0  0  0  0  0  0  0  0  0
   39.6702   34.3008   44.5679 H   0  0  0  0  0  0  0  0  0  0  0  0
   41.8505   33.0689   44.7990 H   0  0  0  0  0  0  0  0  0  0  0  0
   41.7949   30.7524   45.5484 H   0  0  0  0  0  0  0  0  0  0  0  0
   33.0071   29.4877   49.6941 H   0  0  0  0  0  0  0  0  0  0  0  0
   38.0351   30.2492   50.1950 O   0  0  0  0  0  0  0  0  0  0  0  0
   37.4835   30.6250   51.4164 C   0  0  2  0  0  0  0  0  0  0  0  0
   36.5277   31.7820   51.2390 C   0  0  1  0  0  0  0  0  0  0  0  0
   37.5042   32.9116   51.0293 C   0  0  1  0  0  0  0  0  0  0  0  0
   37.7277   33.1400   49.9893 H   0  0  0  0  0  0  0  0  0  0  0  0
   38.6567   32.6111   51.7133 O   0  0  0  0  0  0  0  0  0  0  0  0
   38.5916   31.3178   52.1962 C   0  0  1  0  0  0  0  0  0  0  0  0
   38.2949   31.3435   53.2495 H   0  0  0  0  0  0  0  0  0  0  0  0
   37.9471   29.2875   49.9879 H   0  0  0  0  0  0  0  0  0  0  0  0
   37.0600   29.7850   51.9976 H   0  0  0  0  0  0  0  0  0  0  0  0
   35.9202   31.9056   52.1426 H   0  0  0  0  0  0  0  0  0  0  0  0
   37.0508   33.8103   51.5131 H   0  0  0  0  0  0  0  0  0  0  0  0
   39.5594   30.8277   51.9917 H   0  0  0  0  0  0  0  0  0  0  0  0
  2  7  2  0
  2  1  1  0
  3  2  1  0
  4  5  1  0
  4  3  2  0
  5  6  2  0
  6  7  1  0
  7 14  1  0
  8  9  2  0
  8 13  1  0
  9 10  1  0
 10 11  2  0
 12 11  1  0
 12  3  1  0
 13 12  2  0
 16 14  1  6
 16 18  1  0
 16 17  1  0
 16 15  2  0
  4 19  1  0
  5 20  1  0
  6 21  1  0
  8 22  1  0
  9 23  1  0
 10 24  1  0
 17 25  1  0
 26 27  1  0
 27 28  1  0
 28 29  1  0
 29 30  1  6
 29 31  1  0
 31 32  1  0
 32 33  1  1
 32 27  1  0
 26 34  1  0
 27 35  1  1
 28 36  1  1
 29 37  1  0
 32 38  1  0
 18 28  1  0
M  ISO  8  19  14  20  14  21  14  22  14  23  14  24  14  25   3  30  15
M  ISO  1  33  16
M  END
>  <DihAtoms>  (1) 
15,17,27,26

>  <DihDeg>  (1) 
120.92600873795269

$$$$
