
     RDKit          3D

 31 32  0  0  0  0  0  0  0  0999 V2000
   36.0620   30.3024   50.0254 C   0  0  0  0  0  0  0  0  0  0  0  0
   35.1167   29.5986   49.1122 C   0  0  0  0  0  0  0  0  0  0  0  0
   34.6710   30.2840   47.9933 C   0  0  0  0  0  0  0  0  0  0  0  0
   33.7900   29.6442   47.1314 C   0  0  0  0  0  0  0  0  0  0  0  0
   33.4085   28.3792   47.4267 N   0  0  0  0  0  0  0  0  0  0  0  0
   33.8551   27.7234   48.5267 C   0  0  0  0  0  0  0  0  0  0  0  0
   34.7136   28.3341   49.3753 N   0  0  0  0  0  0  0  0  0  0  0  0
   36.3416   31.5875   49.6148 O   0  0  0  0  0  0  0  0  0  0  0  0
   38.4034   31.1725   48.0387 O   0  0  0  0  0  0  0  0  0  0  0  0
   38.0171   31.7087   49.3855 P   0  0  2  0  0  0  0  0  0  0  0  0
   38.8150   30.7585   50.5678 O   0  0  0  0  0  0  0  0  0  0  0  0
   38.5091   33.3139   49.5131 O   0  0  0  0  0  0  0  0  0  0  0  0
   36.9608   29.6807   50.2433 H   0  0  0  0  0  0  0  0  0  0  0  0
   35.5233   30.3817   51.0148 H   0  0  0  0  0  0  0  0  0  0  0  0
   34.9634   31.2991   47.7363 H   0  0  0  0  0  0  0  0  0  0  0  0
   33.3876   30.0858   46.2411 H   0  0  0  0  0  0  0  0  0  0  0  0
   33.5366   26.7107   48.7439 H   0  0  0  0  0  0  0  0  0  0  0  0
   39.0964   29.8829   50.2045 H   0  0  0  0  0  0  0  0  0  0  0  0
   40.1013   33.4102   47.5207 O   0  0  0  0  0  0  0  0  0  0  0  0
   40.5492   34.0506   48.6624 C   0  0  2  0  0  0  0  0  0  0  0  0
   39.8488   33.4338   49.8577 C   0  0  1  0  0  0  0  0  0  0  0  0
   40.0101   34.6115   50.8281 C   0  0  1  0  0  0  0  0  0  0  0  0
   39.3915   34.4978   51.7343 H   0  0  0  0  0  0  0  0  0  0  0  0
   39.5595   35.6644   50.0541 O   0  0  0  0  0  0  0  0  0  0  0  0
   40.0341   35.4871   48.7721 C   0  0  1  0  0  0  0  0  0  0  0  0
   40.7858   36.2353   48.4887 H   0  0  0  0  0  0  0  0  0  0  0  0
   40.5271   33.8505   46.7357 H   0  0  0  0  0  0  0  0  0  0  0  0
   41.6518   34.0112   48.7627 H   0  0  0  0  0  0  0  0  0  0  0  0
   40.3137   32.5271   50.2396 H   0  0  0  0  0  0  0  0  0  0  0  0
   41.0937   34.6574   51.0460 H   0  0  0  0  0  0  0  0  0  0  0  0
   39.1338   35.5040   48.0923 H   0  0  0  0  0  0  0  0  0  0  0  0
  2  7  1  0
  2  1  1  0
  3  2  2  0
  4  5  2  0
  4  3  1  0
  5  6  1  0
  6  7  2  0
  8  1  1  0
  9 10  2  0
 10 12  1  6
 10  8  1  0
 10 11  1  0
  1 13  1  0
  1 14  1  0
  3 15  1  0
  4 16  1  0
  6 17  1  0
 11 18  1  0
 19 20  1  0
 20 21  1  0
 21 22  1  0
 22 23  1  1
 22 24  1  0
 24 25  1  0
 25 26  1  6
 25 20  1  0
 19 27  1  0
 20 28  1  1
 21 29  1  1
 22 30  1  0
 25 31  1  0
 12 21  1  0
M  ISO  8  13   8  14   8  15  14  16  14  17  14  18   3  23  15  26  16
M  END
>  <DihAtoms>  (1) 
9,11,20,19

>  <DihDeg>  (1) 
128.54830012322498

$$$$
