
 OpenBabel03272504393D

 42 44  0  0  1  0  0  0  0  0999 V2000
   37.6210   30.4020   48.5160 Cl  0  0  0  0  0  0  0  0  0  0  0  0
   36.4560   30.2690   47.1990 C   0  0  0  0  0  0  0  0  0  0  0  0
   36.8140   30.6770   45.9510 C   0  0  0  0  0  0  0  0  0  0  0  0
   35.9190   30.5780   44.9210 C   0  0  0  0  0  0  0  0  0  0  0  0
   34.6610   30.0620   45.1740 C   0  0  0  0  0  0  0  0  0  0  0  0
   34.3450   29.6580   46.4720 C   0  0  0  0  0  0  0  0  0  0  0  0
   35.2220   29.7480   47.5100 C   0  0  0  0  0  0  0  0  0  0  0  0
   36.2420   30.9170   43.9280 H   0  0  0  0  0  0  0  0  0  0  0  0
   34.0350   30.0290   44.2890 H   0  0  0  0  0  0  0  0  0  0  0  0
   33.3740   29.3060   46.4580 H   0  0  0  0  0  0  0  0  0  0  0  0
   39.8070   32.8450   45.9980 C   0  0  0  0  0  0  0  0  0  0  0  0
   40.6730   32.1230   45.1210 C   0  0  0  0  0  0  0  0  0  0  0  0
   40.1940   30.9280   44.5550 C   0  0  0  0  0  0  0  0  0  0  0  0
   38.9370   30.5130   44.8630 N   0  0  0  0  0  0  0  0  0  0  0  0
   38.1430   31.2210   45.6970 C   0  0  0  0  0  0  0  0  0  0  0  0
   38.5820   32.3660   46.2490 N   0  0  0  0  0  0  0  0  0  0  0  0
   40.1340   33.7520   46.4450 H   0  0  0  0  0  0  0  0  0  0  0  0
   41.6520   32.5300   44.9380 H   0  0  0  0  0  0  0  0  0  0  0  0
   41.0710   30.2440   43.7000 N   0  0  0  0  0  0  0  0  0  0  0  0
   42.0950   30.2970   43.8300 H   0  0  0  0  0  0  0  0  0  0  0  0
   40.6290   29.6780   42.9250 H   0  0  0  0  0  0  0  0  0  0  0  0
   34.8760   29.3310   48.8500 C   0  0  0  0  0  0  0  0  0  0  0  0
   34.3300   30.1980   49.3280 H   0  0  0  0  0  0  0  0  0  0  0  0
   35.8040   29.2500   49.4520 H   0  0  0  0  0  0  0  0  0  0  0  0
   34.0810   28.1220   49.0410 C   0  0  0  0  0  0  0  0  0  0  0  0
   34.0460   27.5470   48.0870 H   0  0  0  0  0  0  0  0  0  0  0  0
   34.5210   27.4280   49.7890 H   0  0  0  0  0  0  0  0  0  0  0  0
   32.8060   28.4060   49.4590 O   0  0  0  0  0  0  0  0  0  0  0  0
   32.2370   26.4130   47.8300 O   0  0  0  0  0  0  0  0  0  0  0  0
   31.6740   27.6590   48.4690 P   0  0  2  0  0  0  0  0  0  0  0  0
   31.2390   28.8200   47.2830 O   0  0  0  0  0  0  0  0  0  0  0  0
   30.8740   28.3750   46.4790 H   0  0  0  0  0  0  0  0  0  0  0  0
   30.2870   27.2530   49.2970 O   0  0  0  0  0  0  0  0  0  0  0  0
   28.6800   28.7200   50.1040 C   0  0  2  0  0  3  0  0  0  0  0  0
   29.1570   27.9350   48.8750 C   0  0  2  0  0  3  0  0  0  0  0  0
   28.0210   26.9390   48.7930 C   0  0  0  0  0  3  0  0  0  0  0  0
   27.0820   27.4450   48.4430 H   0  0  0  0  0  0  0  0  0  0  0  0
   27.7740   26.5750   50.1090 O   0  0  0  0  0  0  0  0  0  0  0  0
   28.2430   27.5460   50.9550 C   0  0  0  0  0  3  0  0  0  0  0  0
   27.5930   27.8330   51.7810 H   0  0  0  0  0  0  0  0  0  0  0  0
   27.5720   29.4900   49.8320 O   0  0  0  0  0  0  0  0  0  0  0  0
   27.7530   30.2180   49.1890 H   0  0  0  0  0  0  0  0  0  0  0  0
  2  7  1  0  0  0  0
  2  1  1  0  0  0  0
  3  2  2  0  0  0  0
  4  5  2  0  0  0  0
  4  3  1  0  0  0  0
  5  6  1  0  0  0  0
  6  7  2  0  0  0  0
  7 22  1  0  0  0  0
  8  4  1  0  0  0  0
  9  5  1  0  0  0  0
 10  6  1  0  0  0  0
 11 16  1  0  0  0  0
 11 17  1  0  0  0  0
 12 11  2  0  0  0  0
 13 14  2  0  0  0  0
 13 12  1  0  0  0  0
 14 15  1  0  0  0  0
 15  3  1  0  0  0  0
 15 16  2  0  0  0  0
 18 12  1  0  0  0  0
 19 20  1  0  0  0  0
 19 13  1  0  0  0  0
 21 19  1  0  0  0  0
 22 25  1  0  0  0  0
 22 23  1  0  0  0  0
 22 24  1  0  0  0  0
 25 28  1  0  0  0  0
 25 27  1  0  0  0  0
 26 25  1  0  0  0  0
 30 29  2  6  0  0  0
 30 33  1  0  0  0  0
 30 28  1  0  0  0  0
 31 30  1  0  0  0  0
 32 31  1  0  0  0  0
 34 41  1  6  0  0  0
 34 39  1  0  0  0  0
 35 33  1  1  0  0  0
 35 34  1  0  0  0  0
 36 35  1  0  0  0  0
 36 38  1  0  0  0  0
 37 36  1  0  0  0  0
 38 39  1  0  0  0  0
 39 40  1  0  0  0  0
 42 41  1  0  0  0  0
M  END
>  <minimizedAffinity>
-6.1808567

>  <minimizedRMSD>
0.672706127

$$$$
