
 OpenBabel03272504403D

 42 44  0  0  1  0  0  0  0  0999 V2000
   38.7410   23.3400   32.5580 Cl  0  0  0  0  0  0  0  0  0  0  0  0
   37.4020   24.2820   31.9040 C   0  0  0  0  0  0  0  0  0  0  0  0
   36.2130   23.6660   31.6610 C   0  0  0  0  0  0  0  0  0  0  0  0
   35.1660   24.3860   31.1540 C   0  0  0  0  0  0  0  0  0  0  0  0
   35.3420   25.7340   30.8980 C   0  0  0  0  0  0  0  0  0  0  0  0
   36.5820   26.3160   31.1650 C   0  0  0  0  0  0  0  0  0  0  0  0
   37.6350   25.6170   31.6700 C   0  0  0  0  0  0  0  0  0  0  0  0
   34.2220   23.8570   30.9690 H   0  0  0  0  0  0  0  0  0  0  0  0
   34.4510   26.2060   30.4990 H   0  0  0  0  0  0  0  0  0  0  0  0
   36.5150   27.3150   30.9120 H   0  0  0  0  0  0  0  0  0  0  0  0
   35.9160   20.0050   31.2470 C   0  0  0  0  0  0  0  0  0  0  0  0
   35.6930   19.6020   32.5990 C   0  0  0  0  0  0  0  0  0  0  0  0
   35.6550   20.5990   33.5900 C   0  0  0  0  0  0  0  0  0  0  0  0
   35.8310   21.8960   33.2230 N   0  0  0  0  0  0  0  0  0  0  0  0
   36.0390   22.2440   31.9330 C   0  0  0  0  0  0  0  0  0  0  0  0
   36.0790   21.3050   30.9710 N   0  0  0  0  0  0  0  0  0  0  0  0
   35.9510   19.2800   30.4720 H   0  0  0  0  0  0  0  0  0  0  0  0
   35.5660   18.5510   32.7940 H   0  0  0  0  0  0  0  0  0  0  0  0
   35.4360   20.1680   34.9070 N   0  0  0  0  0  0  0  0  0  0  0  0
   35.7520   19.2360   35.2230 H   0  0  0  0  0  0  0  0  0  0  0  0
   34.9370   20.8420   35.5470 H   0  0  0  0  0  0  0  0  0  0  0  0
   38.9150   26.2340   31.9370 C   0  0  0  0  0  0  0  0  0  0  0  0
   39.1710   26.8530   31.0250 H   0  0  0  0  0  0  0  0  0  0  0  0
   39.6990   25.4490   31.9410 H   0  0  0  0  0  0  0  0  0  0  0  0
   39.0740   27.0690   33.1220 C   0  0  0  0  0  0  0  0  0  0  0  0
   39.7780   27.9050   32.8950 H   0  0  0  0  0  0  0  0  0  0  0  0
   38.1280   27.5570   33.4390 H   0  0  0  0  0  0  0  0  0  0  0  0
   39.5370   26.3540   34.1980 O   0  0  0  0  0  0  0  0  0  0  0  0
   37.0190   26.2760   34.9740 O   0  0  0  0  0  0  0  0  0  0  0  0
   38.4390   26.4080   35.4670 P   0  0  2  0  0  0  0  0  0  0  0  0
   38.6860   27.9180   36.2460 O   0  0  0  0  0  0  0  0  0  0  0  0
   37.8780   28.1840   36.7500 H   0  0  0  0  0  0  0  0  0  0  0  0
   38.7250   25.2160   36.5950 O   0  0  0  0  0  0  0  0  0  0  0  0
   37.4240   23.3330   36.9720 C   0  0  2  0  0  3  0  0  0  0  0  0
   38.5460   23.9300   36.1140 C   0  0  2  0  0  3  0  0  0  0  0  0
   39.6910   23.0810   36.6240 C   0  0  0  0  0  3  0  0  0  0  0  0
   39.5940   22.0290   36.2490 H   0  0  0  0  0  0  0  0  0  0  0  0
   39.4920   23.0050   37.9950 O   0  0  0  0  0  0  0  0  0  0  0  0
   38.1750   23.2550   38.2860 C   0  0  0  0  0  3  0  0  0  0  0  0
   37.7000   22.5970   39.0140 H   0  0  0  0  0  0  0  0  0  0  0  0
   37.0980   22.0520   36.5880 O   0  0  0  0  0  0  0  0  0  0  0  0
   36.7000   22.0080   35.6830 H   0  0  0  0  0  0  0  0  0  0  0  0
  2  1  1  0  0  0  0
  3  2  2  0  0  0  0
  3 15  1  0  0  0  0
  4  3  1  0  0  0  0
  5  4  2  0  0  0  0
  5  6  1  0  0  0  0
  6  7  2  0  0  0  0
  7  2  1  0  0  0  0
  7 22  1  0  0  0  0
  8  4  1  0  0  0  0
  9  5  1  0  0  0  0
 10  6  1  0  0  0  0
 11 12  1  0  0  0  0
 12 18  1  0  0  0  0
 12 13  2  0  0  0  0
 13 19  1  0  0  0  0
 14 13  1  0  0  0  0
 15 14  2  0  0  0  0
 16 11  2  0  0  0  0
 16 15  1  0  0  0  0
 17 11  1  0  0  0  0
 19 20  1  0  0  0  0
 19 21  1  0  0  0  0
 22 24  1  0  0  0  0
 22 25  1  0  0  0  0
 23 22  1  0  0  0  0
 25 27  1  0  0  0  0
 25 28  1  0  0  0  0
 26 25  1  0  0  0  0
 28 30  1  0  0  0  0
 30 29  2  6  0  0  0
 30 31  1  0  0  0  0
 30 33  1  0  0  0  0
 31 32  1  0  0  0  0
 34 41  1  6  0  0  0
 34 39  1  0  0  0  0
 35 33  1  1  0  0  0
 35 36  1  0  0  0  0
 35 34  1  0  0  0  0
 36 38  1  0  0  0  0
 37 36  1  0  0  0  0
 38 39  1  0  0  0  0
 39 40  1  0  0  0  0
 42 41  1  0  0  0  0
M  END
>  <minimizedAffinity>
-6.25289917

$$$$

 OpenBabel03272504403D

 42 44  0  0  1  0  0  0  0  0999 V2000
   38.4030   26.8400   35.8560 Cl  0  0  0  0  0  0  0  0  0  0  0  0
   37.9000   25.8750   34.4690 C   0  0  0  0  0  0  0  0  0  0  0  0
   38.2680   24.5670   34.4010 C   0  0  0  0  0  0  0  0  0  0  0  0
   37.8840   23.8070   33.3300 C   0  0  0  0  0  0  0  0  0  0  0  0
   37.1250   24.3920   32.3320 C   0  0  0  0  0  0  0  0  0  0  0  0
   36.7750   25.7380   32.4510 C   0  0  0  0  0  0  0  0  0  0  0  0
   37.1470   26.5100   33.5090 C   0  0  0  0  0  0  0  0  0  0  0  0
   38.1990   22.7560   33.3080 H   0  0  0  0  0  0  0  0  0  0  0  0
   36.8770   23.7010   31.5330 H   0  0  0  0  0  0  0  0  0  0  0  0
   36.2160   25.9860   31.6180 H   0  0  0  0  0  0  0  0  0  0  0  0
   41.0960   23.1460   36.3090 C   0  0  0  0  0  0  0  0  0  0  0  0
   40.4480   22.8140   37.5380 C   0  0  0  0  0  0  0  0  0  0  0  0
   39.0750   23.0910   37.6580 C   0  0  0  0  0  0  0  0  0  0  0  0
   38.4250   23.6600   36.6080 N   0  0  0  0  0  0  0  0  0  0  0  0
   39.0690   23.9610   35.4580 C   0  0  0  0  0  0  0  0  0  0  0  0
   40.3830   23.7040   35.3240 N   0  0  0  0  0  0  0  0  0  0  0  0
   42.1330   22.9520   36.1820 H   0  0  0  0  0  0  0  0  0  0  0  0
   41.0450   22.3670   38.3150 H   0  0  0  0  0  0  0  0  0  0  0  0
   38.4700   22.7530   38.8780 N   0  0  0  0  0  0  0  0  0  0  0  0
   39.0070   22.7650   39.7620 H   0  0  0  0  0  0  0  0  0  0  0  0
   37.4490   22.4900   38.8420 H   0  0  0  0  0  0  0  0  0  0  0  0
   36.7810   27.9050   33.6130 C   0  0  0  0  0  0  0  0  0  0  0  0
   37.6760   28.5000   33.2620 H   0  0  0  0  0  0  0  0  0  0  0  0
   36.6990   28.1750   34.6850 H   0  0  0  0  0  0  0  0  0  0  0  0
   35.5980   28.3890   32.9100 C   0  0  0  0  0  0  0  0  0  0  0  0
   35.5300   27.8930   31.9130 H   0  0  0  0  0  0  0  0  0  0  0  0
   34.6500   28.1370   33.4310 H   0  0  0  0  0  0  0  0  0  0  0  0
   35.6170   29.7510   32.7490 O   0  0  0  0  0  0  0  0  0  0  0  0
   33.2900   29.4120   33.9390 O   0  0  0  0  0  0  0  0  0  0  0  0
   34.1720   30.4330   33.2620 P   0  0  2  0  0  0  0  0  0  0  0  0
   33.4170   31.0670   31.8570 O   0  0  0  0  0  0  0  0  0  0  0  0
   32.4420   31.1550   31.9960 H   0  0  0  0  0  0  0  0  0  0  0  0
   34.4150   31.7040   34.3110 O   0  0  0  0  0  0  0  0  0  0  0  0
   34.4870   32.5780   36.4590 C   0  0  2  0  0  3  0  0  0  0  0  0
   34.6980   31.3180   35.6110 C   0  0  2  0  0  3  0  0  0  0  0  0
   36.2020   31.2090   35.7440 C   0  0  0  0  0  3  0  0  0  0  0  0
   36.4790   30.8860   36.7820 H   0  0  0  0  0  0  0  0  0  0  0  0
   36.6620   32.5130   35.6270 O   0  0  0  0  0  0  0  0  0  0  0  0
   35.6540   33.3900   35.9340 C   0  0  0  0  0  3  0  0  0  0  0  0
   35.9140   34.2320   36.5750 H   0  0  0  0  0  0  0  0  0  0  0  0
   34.6950   32.3460   37.7990 O   0  0  0  0  0  0  0  0  0  0  0  0
   34.0310   31.7280   38.1930 H   0  0  0  0  0  0  0  0  0  0  0  0
  2  1  1  0  0  0  0
  3  2  1  0  0  0  0
  3 15  1  0  0  0  0
  4  3  2  0  0  0  0
  5  6  2  0  0  0  0
  5  4  1  0  0  0  0
  6  7  1  0  0  0  0
  7 22  1  0  0  0  0
  7  2  2  0  0  0  0
  8  4  1  0  0  0  0
  9  5  1  0  0  0  0
 10  6  1  0  0  0  0
 11 12  1  0  0  0  0
 12 13  2  0  0  0  0
 12 18  1  0  0  0  0
 13 19  1  0  0  0  0
 14 13  1  0  0  0  0
 15 14  2  0  0  0  0
 16 15  1  0  0  0  0
 16 11  2  0  0  0  0
 17 11  1  0  0  0  0
 19 20  1  0  0  0  0
 21 19  1  0  0  0  0
 22 24  1  0  0  0  0
 23 22  1  0  0  0  0
 25 27  1  0  0  0  0
 25 22  1  0  0  0  0
 26 25  1  0  0  0  0
 28 25  1  0  0  0  0
 28 30  1  0  0  0  0
 30 29  2  1  0  0  0
 30 33  1  0  0  0  0
 31 32  1  0  0  0  0
 31 30  1  0  0  0  0
 34 41  1  1  0  0  0
 35 33  1  6  0  0  0
 35 36  1  0  0  0  0
 35 34  1  0  0  0  0
 36 37  1  0  0  0  0
 38 36  1  0  0  0  0
 38 39  1  0  0  0  0
 39 34  1  0  0  0  0
 39 40  1  0  0  0  0
 41 42  1  0  0  0  0
M  END
>  <minimizedAffinity>
-5.97743225

$$$$

 OpenBabel03272504403D

 42 44  0  0  1  0  0  0  0  0999 V2000
   38.4150   26.8740   36.2750 Cl  0  0  0  0  0  0  0  0  0  0  0  0
   37.9270   26.0650   34.7860 C   0  0  0  0  0  0  0  0  0  0  0  0
   38.3200   24.7810   34.5670 C   0  0  0  0  0  0  0  0  0  0  0  0
   37.9480   24.1420   33.4170 C   0  0  0  0  0  0  0  0  0  0  0  0
   37.1740   24.8230   32.4940 C   0  0  0  0  0  0  0  0  0  0  0  0
   36.7980   26.1390   32.7670 C   0  0  0  0  0  0  0  0  0  0  0  0
   37.1580   26.7910   33.9060 C   0  0  0  0  0  0  0  0  0  0  0  0
   38.2840   23.1070   33.2730 H   0  0  0  0  0  0  0  0  0  0  0  0
   36.9380   24.2240   31.6210 H   0  0  0  0  0  0  0  0  0  0  0  0
   36.2310   26.4690   31.9690 H   0  0  0  0  0  0  0  0  0  0  0  0
   41.1610   23.1240   36.2540 C   0  0  0  0  0  0  0  0  0  0  0  0
   40.5500   22.7360   37.4860 C   0  0  0  0  0  0  0  0  0  0  0  0
   39.1950   23.0580   37.6830 C   0  0  0  0  0  0  0  0  0  0  0  0
   38.5280   23.7220   36.7010 N   0  0  0  0  0  0  0  0  0  0  0  0
   39.1370   24.0740   35.5470 C   0  0  0  0  0  0  0  0  0  0  0  0
   40.4320   23.7750   35.3390 N   0  0  0  0  0  0  0  0  0  0  0  0
   42.1830   22.8980   36.0700 H   0  0  0  0  0  0  0  0  0  0  0  0
   41.1580   22.2140   38.2040 H   0  0  0  0  0  0  0  0  0  0  0  0
   38.6270   22.6630   38.9030 N   0  0  0  0  0  0  0  0  0  0  0  0
   39.1990   22.5940   39.7610 H   0  0  0  0  0  0  0  0  0  0  0  0
   37.5940   22.4440   38.8940 H   0  0  0  0  0  0  0  0  0  0  0  0
   36.7640   28.1560   34.1710 C   0  0  0  0  0  0  0  0  0  0  0  0
   37.6990   28.7860   34.0760 H   0  0  0  0  0  0  0  0  0  0  0  0
   36.4990   28.2530   35.2440 H   0  0  0  0  0  0  0  0  0  0  0  0
   35.7120   28.7670   33.3670 C   0  0  0  0  0  0  0  0  0  0  0  0
   35.7700   28.3780   32.3230 H   0  0  0  0  0  0  0  0  0  0  0  0
   34.6910   28.5100   33.7210 H   0  0  0  0  0  0  0  0  0  0  0  0
   35.8000   30.1360   33.3560 O   0  0  0  0  0  0  0  0  0  0  0  0
   34.1710   32.0760   34.0840 O   0  0  0  0  0  0  0  0  0  0  0  0
   34.8350   30.8060   34.5550 P   0  0  2  0  0  0  0  0  0  0  0  0
   35.8720   31.1080   35.8890 O   0  0  0  0  0  0  0  0  0  0  0  0
   35.4890   31.8050   36.4760 H   0  0  0  0  0  0  0  0  0  0  0  0
   33.6560   29.7500   35.0740 O   0  0  0  0  0  0  0  0  0  0  0  0
   31.9900   29.8600   36.6840 C   0  0  2  0  0  3  0  0  0  0  0  0
   32.4240   30.3430   35.2960 C   0  0  2  0  0  3  0  0  0  0  0  0
   31.3960   29.5990   34.4700 C   0  0  0  0  0  3  0  0  0  0  0  0
   30.3810   30.0540   34.6090 H   0  0  0  0  0  0  0  0  0  0  0  0
   31.3210   28.3410   35.0490 O   0  0  0  0  0  0  0  0  0  0  0  0
   31.7660   28.4000   36.3450 C   0  0  0  0  0  3  0  0  0  0  0  0
   31.1730   27.8720   37.0930 H   0  0  0  0  0  0  0  0  0  0  0  0
   30.7840   30.4000   37.0710 O   0  0  0  0  0  0  0  0  0  0  0  0
   30.8230   31.3800   37.2050 H   0  0  0  0  0  0  0  0  0  0  0  0
  2  1  1  0  0  0  0
  3  2  1  0  0  0  0
  3 15  1  0  0  0  0
  4  3  2  0  0  0  0
  5  6  2  0  0  0  0
  5  4  1  0  0  0  0
  6  7  1  0  0  0  0
  7 22  1  0  0  0  0
  7  2  2  0  0  0  0
  8  4  1  0  0  0  0
  9  5  1  0  0  0  0
 10  6  1  0  0  0  0
 11 12  1  0  0  0  0
 12 13  2  0  0  0  0
 12 18  1  0  0  0  0
 13 19  1  0  0  0  0
 14 13  1  0  0  0  0
 15 14  2  0  0  0  0
 16 15  1  0  0  0  0
 16 11  2  0  0  0  0
 17 11  1  0  0  0  0
 19 20  1  0  0  0  0
 21 19  1  0  0  0  0
 22 24  1  0  0  0  0
 23 22  1  0  0  0  0
 25 27  1  0  0  0  0
 25 22  1  0  0  0  0
 26 25  1  0  0  0  0
 28 25  1  0  0  0  0
 28 30  1  0  0  0  0
 30 29  2  6  0  0  0
 30 33  1  0  0  0  0
 30 31  1  0  0  0  0
 31 32  1  0  0  0  0
 34 41  1  6  0  0  0
 35 33  1  6  0  0  0
 35 34  1  0  0  0  0
 36 37  1  0  0  0  0
 36 38  1  0  0  0  0
 36 35  1  0  0  0  0
 38 39  1  0  0  0  0
 39 34  1  0  0  0  0
 39 40  1  0  0  0  0
 41 42  1  0  0  0  0
M  END
>  <minimizedAffinity>
-5.9715538

$$$$

 OpenBabel03272504403D

 42 44  0  0  1  0  0  0  0  0999 V2000
   36.4030   27.6960   34.7300 Cl  0  0  0  0  0  0  0  0  0  0  0  0
   36.3210   28.5690   33.2010 C   0  0  0  0  0  0  0  0  0  0  0  0
   35.4790   29.6320   33.0870 C   0  0  0  0  0  0  0  0  0  0  0  0
   35.4070   30.3190   31.9060 C   0  0  0  0  0  0  0  0  0  0  0  0
   36.1980   29.9140   30.8470 C   0  0  0  0  0  0  0  0  0  0  0  0
   37.0450   28.8170   31.0160 C   0  0  0  0  0  0  0  0  0  0  0  0
   37.1310   28.1210   32.1830 C   0  0  0  0  0  0  0  0  0  0  0  0
   34.7160   31.1700   31.8500 H   0  0  0  0  0  0  0  0  0  0  0  0
   36.0610   30.5260   29.9620 H   0  0  0  0  0  0  0  0  0  0  0  0
   37.5450   28.6730   30.1240 H   0  0  0  0  0  0  0  0  0  0  0  0
   32.6320   30.0480   35.4070 C   0  0  0  0  0  0  0  0  0  0  0  0
   33.2060   30.9210   36.3800 C   0  0  0  0  0  0  0  0  0  0  0  0
   34.5400   31.3280   36.1990 C   0  0  0  0  0  0  0  0  0  0  0  0
   35.2230   30.8760   35.1130 N   0  0  0  0  0  0  0  0  0  0  0  0
   34.6490   30.0500   34.2110 C   0  0  0  0  0  0  0  0  0  0  0  0
   33.3740   29.6500   34.3660 N   0  0  0  0  0  0  0  0  0  0  0  0
   31.6260   29.7190   35.5110 H   0  0  0  0  0  0  0  0  0  0  0  0
   32.5880   31.2260   37.2070 H   0  0  0  0  0  0  0  0  0  0  0  0
   35.0730   32.1850   37.1730 N   0  0  0  0  0  0  0  0  0  0  0  0
   34.7470   32.1480   38.1530 H   0  0  0  0  0  0  0  0  0  0  0  0
   35.8170   32.8610   36.8520 H   0  0  0  0  0  0  0  0  0  0  0  0
   38.0090   26.9840   32.3410 C   0  0  0  0  0  0  0  0  0  0  0  0
   37.9810   26.4170   31.3630 H   0  0  0  0  0  0  0  0  0  0  0  0
   37.5540   26.2750   33.0620 H   0  0  0  0  0  0  0  0  0  0  0  0
   39.4040   27.2020   32.7080 C   0  0  0  0  0  0  0  0  0  0  0  0
   39.9490   27.6540   31.8460 H   0  0  0  0  0  0  0  0  0  0  0  0
   39.5250   27.9240   33.5450 H   0  0  0  0  0  0  0  0  0  0  0  0
   40.0240   26.0390   33.0890 O   0  0  0  0  0  0  0  0  0  0  0  0
   39.5760   27.0860   35.4660 O   0  0  0  0  0  0  0  0  0  0  0  0
   40.4180   26.0800   34.7210 P   0  0  2  0  0  0  0  0  0  0  0  0
   42.0830   26.4870   34.8000 O   0  0  0  0  0  0  0  0  0  0  0  0
   42.3040   26.8770   35.6810 H   0  0  0  0  0  0  0  0  0  0  0  0
   40.2370   24.5920   35.4470 O   0  0  0  0  0  0  0  0  0  0  0  0
   39.0950   23.2360   36.9430 C   0  0  2  0  0  3  0  0  0  0  0  0
   38.9470   24.3240   35.8730 C   0  0  2  0  0  3  0  0  0  0  0  0
   38.2690   23.4930   34.8040 C   0  0  0  0  0  3  0  0  0  0  0  0
   37.2130   23.2610   35.1020 H   0  0  0  0  0  0  0  0  0  0  0  0
   38.9360   22.2770   34.8260 O   0  0  0  0  0  0  0  0  0  0  0  0
   39.5470   22.1060   36.0420 C   0  0  0  0  0  3  0  0  0  0  0  0
   39.4530   21.1230   36.5050 H   0  0  0  0  0  0  0  0  0  0  0  0
   37.8860   22.8840   37.5000 O   0  0  0  0  0  0  0  0  0  0  0  0
   37.4690   23.6160   38.0180 H   0  0  0  0  0  0  0  0  0  0  0  0
  2  1  1  0  0  0  0
  3  2  1  0  0  0  0
  3 15  1  0  0  0  0
  4  3  2  0  0  0  0
  5  6  2  0  0  0  0
  5  4  1  0  0  0  0
  6  7  1  0  0  0  0
  7 22  1  0  0  0  0
  7  2  2  0  0  0  0
  8  4  1  0  0  0  0
  9  5  1  0  0  0  0
 10  6  1  0  0  0  0
 11 17  1  0  0  0  0
 11 12  1  0  0  0  0
 12 18  1  0  0  0  0
 13 12  2  0  0  0  0
 13 19  1  0  0  0  0
 14 13  1  0  0  0  0
 15 16  1  0  0  0  0
 15 14  2  0  0  0  0
 16 11  2  0  0  0  0
 19 20  1  0  0  0  0
 21 19  1  0  0  0  0
 22 25  1  0  0  0  0
 22 24  1  0  0  0  0
 23 22  1  0  0  0  0
 25 28  1  0  0  0  0
 25 27  1  0  0  0  0
 26 25  1  0  0  0  0
 28 30  1  0  0  0  0
 30 31  1  0  0  0  0
 30 33  1  0  0  0  0
 30 29  2  1  0  0  0
 31 32  1  0  0  0  0
 34 41  1  6  0  0  0
 35 33  1  6  0  0  0
 35 34  1  0  0  0  0
 36 38  1  0  0  0  0
 36 37  1  0  0  0  0
 36 35  1  0  0  0  0
 38 39  1  0  0  0  0
 39 40  1  0  0  0  0
 39 34  1  0  0  0  0
 41 42  1  0  0  0  0
M  END
>  <minimizedAffinity>
-5.81635141

$$$$

 OpenBabel03272504403D

 42 44  0  0  1  0  0  0  0  0999 V2000
   39.0840   26.7800   35.3520 Cl  0  0  0  0  0  0  0  0  0  0  0  0
   38.3050   25.7130   34.1850 C   0  0  0  0  0  0  0  0  0  0  0  0
   38.4620   24.3670   34.3070 C   0  0  0  0  0  0  0  0  0  0  0  0
   37.8620   23.5280   33.4080 C   0  0  0  0  0  0  0  0  0  0  0  0
   37.1030   24.0730   32.3870 C   0  0  0  0  0  0  0  0  0  0  0  0
   36.9740   25.4610   32.3080 C   0  0  0  0  0  0  0  0  0  0  0  0
   37.5630   26.3110   33.1930 C   0  0  0  0  0  0  0  0  0  0  0  0
   38.0110   22.4480   33.5360 H   0  0  0  0  0  0  0  0  0  0  0  0
   36.6760   23.3200   31.7340 H   0  0  0  0  0  0  0  0  0  0  0  0
   36.3780   25.6680   31.4900 H   0  0  0  0  0  0  0  0  0  0  0  0
   41.2930   23.0200   36.2640 C   0  0  0  0  0  0  0  0  0  0  0  0
   40.6480   22.7430   37.5090 C   0  0  0  0  0  0  0  0  0  0  0  0
   39.2760   23.0290   37.6210 C   0  0  0  0  0  0  0  0  0  0  0  0
   38.6240   23.5540   36.5500 N   0  0  0  0  0  0  0  0  0  0  0  0
   39.2650   23.8050   35.3860 C   0  0  0  0  0  0  0  0  0  0  0  0
   40.5780   23.5380   35.2580 N   0  0  0  0  0  0  0  0  0  0  0  0
   42.3290   22.8180   36.1420 H   0  0  0  0  0  0  0  0  0  0  0  0
   41.2470   22.3280   38.3010 H   0  0  0  0  0  0  0  0  0  0  0  0
   38.6750   22.7450   38.8570 N   0  0  0  0  0  0  0  0  0  0  0  0
   39.2150   22.7930   39.7370 H   0  0  0  0  0  0  0  0  0  0  0  0
   37.6530   22.4840   38.8350 H   0  0  0  0  0  0  0  0  0  0  0  0
   37.4240   27.7460   33.0930 C   0  0  0  0  0  0  0  0  0  0  0  0
   37.9430   28.0550   32.1370 H   0  0  0  0  0  0  0  0  0  0  0  0
   38.0390   28.2230   33.8830 H   0  0  0  0  0  0  0  0  0  0  0  0
   36.0910   28.3390   33.1080 C   0  0  0  0  0  0  0  0  0  0  0  0
   36.0740   29.2310   32.4370 H   0  0  0  0  0  0  0  0  0  0  0  0
   35.3080   27.6570   32.7120 H   0  0  0  0  0  0  0  0  0  0  0  0
   35.7040   28.7040   34.3720 O   0  0  0  0  0  0  0  0  0  0  0  0
   35.7470   31.0500   33.1720 O   0  0  0  0  0  0  0  0  0  0  0  0
   35.3200   30.3370   34.4320 P   0  0  2  0  0  0  0  0  0  0  0  0
   36.1340   30.9680   35.8050 O   0  0  0  0  0  0  0  0  0  0  0  0
   36.2610   31.9450   35.7150 H   0  0  0  0  0  0  0  0  0  0  0  0
   33.6900   30.5910   34.6610 O   0  0  0  0  0  0  0  0  0  0  0  0
   32.4420   29.4740   33.0560 C   0  0  2  0  0  3  0  0  0  0  0  0
   32.9150   29.4530   34.5150 C   0  0  2  0  0  3  0  0  0  0  0  0
   31.5820   29.7100   35.1840 C   0  0  0  0  0  3  0  0  0  0  0  0
   30.9220   28.8070   35.1010 H   0  0  0  0  0  0  0  0  0  0  0  0
   30.9770   30.6850   34.4040 O   0  0  0  0  0  0  0  0  0  0  0  0
   31.5210   30.6740   33.1450 C   0  0  0  0  0  3  0  0  0  0  0  0
   30.8260   30.7440   32.3090 H   0  0  0  0  0  0  0  0  0  0  0  0
   31.6810   28.3720   32.7380 O   0  0  0  0  0  0  0  0  0  0  0  0
   32.1920   27.5260   32.7680 H   0  0  0  0  0  0  0  0  0  0  0  0
  2  3  1  0  0  0  0
  2  1  1  0  0  0  0
  3 15  1  0  0  0  0
  4  8  1  0  0  0  0
  4  3  2  0  0  0  0
  5  4  1  0  0  0  0
  6  5  2  0  0  0  0
  6  7  1  0  0  0  0
  7  2  2  0  0  0  0
  9  5  1  0  0  0  0
 10  6  1  0  0  0  0
 11 12  1  0  0  0  0
 12 13  2  0  0  0  0
 12 18  1  0  0  0  0
 13 19  1  0  0  0  0
 14 13  1  0  0  0  0
 15 14  2  0  0  0  0
 16 15  1  0  0  0  0
 16 11  2  0  0  0  0
 17 11  1  0  0  0  0
 19 20  1  0  0  0  0
 21 19  1  0  0  0  0
 22 25  1  0  0  0  0
 22  7  1  0  0  0  0
 22 24  1  0  0  0  0
 23 22  1  0  0  0  0
 25 28  1  0  0  0  0
 26 25  1  0  0  0  0
 27 25  1  0  0  0  0
 28 30  1  0  0  0  0
 30 29  2  6  0  0  0
 30 33  1  0  0  0  0
 30 31  1  0  0  0  0
 32 31  1  0  0  0  0
 34 41  1  1  0  0  0
 34 39  1  0  0  0  0
 34 35  1  0  0  0  0
 35 33  1  6  0  0  0
 35 36  1  0  0  0  0
 37 36  1  0  0  0  0
 38 36  1  0  0  0  0
 39 38  1  0  0  0  0
 40 39  1  0  0  0  0
 41 42  1  0  0  0  0
M  END
>  <minimizedAffinity>
-5.78724861

$$$$

 OpenBabel03272504403D

 42 44  0  0  1  0  0  0  0  0999 V2000
   38.3910   26.8690   35.9710 Cl  0  0  0  0  0  0  0  0  0  0  0  0
   37.8930   25.9510   34.5500 C   0  0  0  0  0  0  0  0  0  0  0  0
   38.2740   24.6500   34.4330 C   0  0  0  0  0  0  0  0  0  0  0  0
   37.8930   23.9260   33.3360 C   0  0  0  0  0  0  0  0  0  0  0  0
   37.1240   24.5400   32.3630 C   0  0  0  0  0  0  0  0  0  0  0  0
   36.7610   25.8770   32.5330 C   0  0  0  0  0  0  0  0  0  0  0  0
   37.1290   26.6130   33.6170 C   0  0  0  0  0  0  0  0  0  0  0  0
   38.2190   22.8800   33.2730 H   0  0  0  0  0  0  0  0  0  0  0  0
   36.8810   23.8760   31.5400 H   0  0  0  0  0  0  0  0  0  0  0  0
   36.1960   26.1490   31.7120 H   0  0  0  0  0  0  0  0  0  0  0  0
   41.1220   23.1770   36.2710 C   0  0  0  0  0  0  0  0  0  0  0  0
   40.4860   22.8070   37.4960 C   0  0  0  0  0  0  0  0  0  0  0  0
   39.1130   23.0790   37.6360 C   0  0  0  0  0  0  0  0  0  0  0  0
   38.4530   23.6770   36.6100 N   0  0  0  0  0  0  0  0  0  0  0  0
   39.0860   24.0140   35.4640 C   0  0  0  0  0  0  0  0  0  0  0  0
   40.3980   23.7630   35.3090 N   0  0  0  0  0  0  0  0  0  0  0  0
   42.1580   22.9880   36.1290 H   0  0  0  0  0  0  0  0  0  0  0  0
   41.0910   22.3390   38.2530 H   0  0  0  0  0  0  0  0  0  0  0  0
   38.5210   22.7040   38.8520 N   0  0  0  0  0  0  0  0  0  0  0  0
   39.0660   22.6890   39.7300 H   0  0  0  0  0  0  0  0  0  0  0  0
   37.4990   22.4400   38.8170 H   0  0  0  0  0  0  0  0  0  0  0  0
   36.7490   27.9980   33.7750 C   0  0  0  0  0  0  0  0  0  0  0  0
   37.6930   28.6080   33.6520 H   0  0  0  0  0  0  0  0  0  0  0  0
   36.4650   28.1750   34.8320 H   0  0  0  0  0  0  0  0  0  0  0  0
   35.7190   28.5610   32.9080 C   0  0  0  0  0  0  0  0  0  0  0  0
   36.0010   28.3970   31.8410 H   0  0  0  0  0  0  0  0  0  0  0  0
   34.7310   28.0680   33.0320 H   0  0  0  0  0  0  0  0  0  0  0  0
   35.5300   29.9010   33.1360 O   0  0  0  0  0  0  0  0  0  0  0  0
   36.3640   32.2110   32.1780 O   0  0  0  0  0  0  0  0  0  0  0  0
   35.9780   30.8030   31.7930 P   0  0  2  0  0  0  0  0  0  0  0  0
   34.6230   30.7990   30.7410 O   0  0  0  0  0  0  0  0  0  0  0  0
   34.6590   31.5710   30.1250 H   0  0  0  0  0  0  0  0  0  0  0  0
   37.2480   30.1110   30.9670 O   0  0  0  0  0  0  0  0  0  0  0  0
   37.9230   28.7110   29.2450 C   0  0  2  0  0  3  0  0  0  0  0  0
   36.9820   29.8580   29.6310 C   0  0  2  0  0  3  0  0  0  0  0  0
   37.6270   30.9590   28.8150 C   0  0  0  0  0  3  0  0  0  0  0  0
   37.4280   30.8020   27.7230 H   0  0  0  0  0  0  0  0  0  0  0  0
   38.9920   30.7630   28.9740 O   0  0  0  0  0  0  0  0  0  0  0  0
   39.2340   29.4640   29.3400 C   0  0  0  0  0  3  0  0  0  0  0  0
   40.0580   28.9580   28.8360 H   0  0  0  0  0  0  0  0  0  0  0  0
   37.7510   28.3130   27.9380 O   0  0  0  0  0  0  0  0  0  0  0  0
   36.8640   27.9080   27.7700 H   0  0  0  0  0  0  0  0  0  0  0  0
  2  1  1  0  0  0  0
  3  2  1  0  0  0  0
  3 15  1  0  0  0  0
  4  3  2  0  0  0  0
  5  6  2  0  0  0  0
  5  4  1  0  0  0  0
  6  7  1  0  0  0  0
  7 22  1  0  0  0  0
  7  2  2  0  0  0  0
  8  4  1  0  0  0  0
  9  5  1  0  0  0  0
 10  6  1  0  0  0  0
 11 12  1  0  0  0  0
 12 13  2  0  0  0  0
 12 18  1  0  0  0  0
 13 19  1  0  0  0  0
 14 13  1  0  0  0  0
 15 14  2  0  0  0  0
 16 15  1  0  0  0  0
 16 11  2  0  0  0  0
 17 11  1  0  0  0  0
 19 20  1  0  0  0  0
 21 19  1  0  0  0  0
 22 24  1  0  0  0  0
 23 22  1  0  0  0  0
 25 27  1  0  0  0  0
 25 28  1  0  0  0  0
 25 22  1  0  0  0  0
 26 25  1  0  0  0  0
 30 29  2  1  0  0  0
 30 28  1  0  0  0  0
 31 30  1  0  0  0  0
 32 31  1  0  0  0  0
 33 30  1  0  0  0  0
 34 41  1  6  0  0  0
 34 39  1  0  0  0  0
 34 35  1  0  0  0  0
 35 33  1  1  0  0  0
 36 38  1  0  0  0  0
 36 35  1  0  0  0  0
 37 36  1  0  0  0  0
 38 39  1  0  0  0  0
 40 39  1  0  0  0  0
 42 41  1  0  0  0  0
M  END
>  <minimizedAffinity>
-5.6901412

$$$$

 OpenBabel03272504403D

 42 44  0  0  1  0  0  0  0  0999 V2000
   35.9970   29.5560   34.9430 Cl  0  0  0  0  0  0  0  0  0  0  0  0
   36.3160   28.2930   33.7540 C   0  0  0  0  0  0  0  0  0  0  0  0
   35.6510   28.3150   32.5670 C   0  0  0  0  0  0  0  0  0  0  0  0
   35.8900   27.3420   31.6360 C   0  0  0  0  0  0  0  0  0  0  0  0
   36.8090   26.3500   31.9250 C   0  0  0  0  0  0  0  0  0  0  0  0
   37.4630   26.3730   33.1580 C   0  0  0  0  0  0  0  0  0  0  0  0
   37.2390   27.3330   34.0970 C   0  0  0  0  0  0  0  0  0  0  0  0
   35.3350   27.3910   30.6890 H   0  0  0  0  0  0  0  0  0  0  0  0
   36.9200   25.6320   31.1200 H   0  0  0  0  0  0  0  0  0  0  0  0
   38.1000   25.5610   33.1850 H   0  0  0  0  0  0  0  0  0  0  0  0
   34.1000   31.4450   31.3590 C   0  0  0  0  0  0  0  0  0  0  0  0
   32.7530   31.2600   31.7940 C   0  0  0  0  0  0  0  0  0  0  0  0
   32.4360   30.0740   32.4800 C   0  0  0  0  0  0  0  0  0  0  0  0
   33.4180   29.1590   32.6990 N   0  0  0  0  0  0  0  0  0  0  0  0
   34.6840   29.3660   32.2730 C   0  0  0  0  0  0  0  0  0  0  0  0
   35.0070   30.4950   31.6150 N   0  0  0  0  0  0  0  0  0  0  0  0
   34.3770   32.3290   30.8370 H   0  0  0  0  0  0  0  0  0  0  0  0
   32.0440   32.0400   31.5740 H   0  0  0  0  0  0  0  0  0  0  0  0
   31.1030   29.9240   32.8920 N   0  0  0  0  0  0  0  0  0  0  0  0
   30.3280   30.3530   32.3600 H   0  0  0  0  0  0  0  0  0  0  0  0
   30.9410   29.3550   33.7670 H   0  0  0  0  0  0  0  0  0  0  0  0
   37.9210   27.3400   35.3720 C   0  0  0  0  0  0  0  0  0  0  0  0
   37.1750   27.7140   36.1340 H   0  0  0  0  0  0  0  0  0  0  0  0
   38.6960   28.1340   35.3610 H   0  0  0  0  0  0  0  0  0  0  0  0
   38.5150   26.1050   35.8720 C   0  0  0  0  0  0  0  0  0  0  0  0
   38.6810   25.4020   35.0220 H   0  0  0  0  0  0  0  0  0  0  0  0
   39.5160   26.2590   36.3280 H   0  0  0  0  0  0  0  0  0  0  0  0
   37.7290   25.5050   36.8240 O   0  0  0  0  0  0  0  0  0  0  0  0
   37.2450   22.9170   36.6940 O   0  0  0  0  0  0  0  0  0  0  0  0
   38.2590   23.9430   37.1360 P   0  0  2  0  0  0  0  0  0  0  0  0
   38.5250   23.8600   38.8300 O   0  0  0  0  0  0  0  0  0  0  0  0
   38.4860   22.9230   39.1420 H   0  0  0  0  0  0  0  0  0  0  0  0
   39.7110   23.6120   36.3900 O   0  0  0  0  0  0  0  0  0  0  0  0
   41.1550   22.0730   37.3540 C   0  0  2  0  0  3  0  0  0  0  0  0
   40.0240   22.2640   36.3360 C   0  0  2  0  0  3  0  0  0  0  0  0
   40.8210   22.0240   35.0710 C   0  0  0  0  0  3  0  0  0  0  0  0
   41.0880   20.9380   34.9780 H   0  0  0  0  0  0  0  0  0  0  0  0
   42.0230   22.6840   35.2800 O   0  0  0  0  0  0  0  0  0  0  0  0
   42.2350   22.8460   36.6250 C   0  0  0  0  0  3  0  0  0  0  0  0
   43.2390   22.6330   36.9930 H   0  0  0  0  0  0  0  0  0  0  0  0
   41.5570   20.7600   37.4470 O   0  0  0  0  0  0  0  0  0  0  0  0
   40.8570   20.1650   37.8150 H   0  0  0  0  0  0  0  0  0  0  0  0
  2  7  1  0  0  0  0
  2  1  1  0  0  0  0
  3  2  2  0  0  0  0
  4  5  2  0  0  0  0
  4  3  1  0  0  0  0
  5  6  1  0  0  0  0
  6 10  1  0  0  0  0
  6  7  2  0  0  0  0
  7 22  1  0  0  0  0
  8  4  1  0  0  0  0
  9  5  1  0  0  0  0
 11 16  2  0  0  0  0
 11 12  1  0  0  0  0
 12 13  2  0  0  0  0
 13 14  1  0  0  0  0
 13 19  1  0  0  0  0
 15  3  1  0  0  0  0
 15 14  2  0  0  0  0
 16 15  1  0  0  0  0
 17 11  1  0  0  0  0
 18 12  1  0  0  0  0
 19 21  1  0  0  0  0
 20 19  1  0  0  0  0
 22 25  1  0  0  0  0
 22 23  1  0  0  0  0
 24 22  1  0  0  0  0
 25 27  1  0  0  0  0
 25 28  1  0  0  0  0
 26 25  1  0  0  0  0
 28 30  1  0  0  0  0
 30 29  2  6  0  0  0
 30 31  1  0  0  0  0
 31 32  1  0  0  0  0
 33 30  1  0  0  0  0
 34 41  1  6  0  0  0
 35 33  1  6  0  0  0
 35 34  1  0  0  0  0
 36 38  1  0  0  0  0
 36 35  1  0  0  0  0
 37 36  1  0  0  0  0
 38 39  1  0  0  0  0
 39 40  1  0  0  0  0
 39 34  1  0  0  0  0
 41 42  1  0  0  0  0
M  END
>  <minimizedAffinity>
-5.63063192

$$$$

 OpenBabel03272504403D

 42 44  0  0  1  0  0  0  0  0999 V2000
   39.7990   26.5010   34.8520 Cl  0  0  0  0  0  0  0  0  0  0  0  0
   39.0760   25.3170   33.7640 C   0  0  0  0  0  0  0  0  0  0  0  0
   38.5680   24.1650   34.2800 C   0  0  0  0  0  0  0  0  0  0  0  0
   38.0030   23.2380   33.4460 C   0  0  0  0  0  0  0  0  0  0  0  0
   37.9630   23.4970   32.0880 C   0  0  0  0  0  0  0  0  0  0  0  0
   38.4990   24.6940   31.6120 C   0  0  0  0  0  0  0  0  0  0  0  0
   39.0630   25.6290   32.4250 C   0  0  0  0  0  0  0  0  0  0  0  0
   37.6040   22.3200   33.8960 H   0  0  0  0  0  0  0  0  0  0  0  0
   37.4950   22.6980   31.5220 H   0  0  0  0  0  0  0  0  0  0  0  0
   38.3740   24.7010   30.5860 H   0  0  0  0  0  0  0  0  0  0  0  0
   37.8590   24.2410   37.9060 C   0  0  0  0  0  0  0  0  0  0  0  0
   38.8310   23.3120   38.3870 C   0  0  0  0  0  0  0  0  0  0  0  0
   39.6840   22.7020   37.4500 C   0  0  0  0  0  0  0  0  0  0  0  0
   39.5480   23.0190   36.1350 N   0  0  0  0  0  0  0  0  0  0  0  0
   38.6170   23.9030   35.7130 C   0  0  0  0  0  0  0  0  0  0  0  0
   37.7920   24.4980   36.5940 N   0  0  0  0  0  0  0  0  0  0  0  0
   37.1970   24.7220   38.5850 H   0  0  0  0  0  0  0  0  0  0  0  0
   38.8620   23.1240   39.4470 H   0  0  0  0  0  0  0  0  0  0  0  0
   40.6260   21.7940   37.9570 N   0  0  0  0  0  0  0  0  0  0  0  0
   40.4320   21.2430   38.8090 H   0  0  0  0  0  0  0  0  0  0  0  0
   41.5330   21.7080   37.4230 H   0  0  0  0  0  0  0  0  0  0  0  0
   39.6190   26.8610   31.9140 C   0  0  0  0  0  0  0  0  0  0  0  0
   40.4560   26.5720   31.2110 H   0  0  0  0  0  0  0  0  0  0  0  0
   40.1460   27.3860   32.7370 H   0  0  0  0  0  0  0  0  0  0  0  0
   38.7470   27.8100   31.2300 C   0  0  0  0  0  0  0  0  0  0  0  0
   39.3340   28.7160   30.9480 H   0  0  0  0  0  0  0  0  0  0  0  0
   38.3390   27.4140   30.2750 H   0  0  0  0  0  0  0  0  0  0  0  0
   37.6750   28.1750   32.0030 O   0  0  0  0  0  0  0  0  0  0  0  0
   35.5600   26.6880   31.4900 O   0  0  0  0  0  0  0  0  0  0  0  0
   36.2380   27.9940   31.1550 P   0  0  2  0  0  0  0  0  0  0  0  0
   36.6540   28.0660   29.4910 O   0  0  0  0  0  0  0  0  0  0  0  0
   35.9630   27.6230   28.9410 H   0  0  0  0  0  0  0  0  0  0  0  0
   35.1720   29.2390   31.4530 O   0  0  0  0  0  0  0  0  0  0  0  0
   33.7330   29.4520   33.2600 C   0  0  2  0  0  3  0  0  0  0  0  0
   35.1680   29.6760   32.7670 C   0  0  2  0  0  3  0  0  0  0  0  0
   35.1640   31.1900   32.7520 C   0  0  0  0  0  3  0  0  0  0  0  0
   35.1720   31.5910   33.8000 H   0  0  0  0  0  0  0  0  0  0  0  0
   33.9240   31.5350   32.2340 O   0  0  0  0  0  0  0  0  0  0  0  0
   33.0450   30.4960   32.4050 C   0  0  0  0  0  3  0  0  0  0  0  0
   32.0460   30.7510   32.7590 H   0  0  0  0  0  0  0  0  0  0  0  0
   33.5740   29.8070   34.5800 O   0  0  0  0  0  0  0  0  0  0  0  0
   34.0890   29.2340   35.2010 H   0  0  0  0  0  0  0  0  0  0  0  0
  2  3  1  0  0  0  0
  2  1  1  0  0  0  0
  3 15  1  0  0  0  0
  4  8  1  0  0  0  0
  4  3  2  0  0  0  0
  5  4  1  0  0  0  0
  6  5  2  0  0  0  0
  6  7  1  0  0  0  0
  7  2  2  0  0  0  0
  9  5  1  0  0  0  0
 10  6  1  0  0  0  0
 11 12  1  0  0  0  0
 11 17  1  0  0  0  0
 12 18  1  0  0  0  0
 13 19  1  0  0  0  0
 13 12  2  0  0  0  0
 14 13  1  0  0  0  0
 15 14  2  0  0  0  0
 15 16  1  0  0  0  0
 16 11  2  0  0  0  0
 19 20  1  0  0  0  0
 21 19  1  0  0  0  0
 22  7  1  0  0  0  0
 22 24  1  0  0  0  0
 23 22  1  0  0  0  0
 25 22  1  0  0  0  0
 25 28  1  0  0  0  0
 26 25  1  0  0  0  0
 27 25  1  0  0  0  0
 30 33  1  0  0  0  0
 30 29  2  1  0  0  0
 30 28  1  0  0  0  0
 31 30  1  0  0  0  0
 32 31  1  0  0  0  0
 34 41  1  1  0  0  0
 35 33  1  6  0  0  0
 35 34  1  0  0  0  0
 36 35  1  0  0  0  0
 36 37  1  0  0  0  0
 38 39  1  0  0  0  0
 38 36  1  0  0  0  0
 39 40  1  0  0  0  0
 39 34  1  0  0  0  0
 41 42  1  0  0  0  0
M  END
>  <minimizedAffinity>
-5.62445021

$$$$

 OpenBabel03272504403D

 42 44  0  0  1  0  0  0  0  0999 V2000
   36.7450   28.9170   35.2840 Cl  0  0  0  0  0  0  0  0  0  0  0  0
   36.0270   29.3870   33.7440 C   0  0  0  0  0  0  0  0  0  0  0  0
   35.0580   30.3420   33.7260 C   0  0  0  0  0  0  0  0  0  0  0  0
   34.4940   30.7160   32.5380 C   0  0  0  0  0  0  0  0  0  0  0  0
   34.9240   30.1090   31.3720 C   0  0  0  0  0  0  0  0  0  0  0  0
   35.9210   29.1350   31.4460 C   0  0  0  0  0  0  0  0  0  0  0  0
   36.4950   28.7500   32.6180 C   0  0  0  0  0  0  0  0  0  0  0  0
   33.7140   31.4890   32.5610 H   0  0  0  0  0  0  0  0  0  0  0  0
   34.4110   30.4800   30.4910 H   0  0  0  0  0  0  0  0  0  0  0  0
   36.1020   28.8060   30.4830 H   0  0  0  0  0  0  0  0  0  0  0  0
   34.8250   32.5750   36.6620 C   0  0  0  0  0  0  0  0  0  0  0  0
   33.6530   32.0600   37.2960 C   0  0  0  0  0  0  0  0  0  0  0  0
   32.9970   30.9730   36.6910 C   0  0  0  0  0  0  0  0  0  0  0  0
   33.5000   30.4620   35.5360 N   0  0  0  0  0  0  0  0  0  0  0  0
   34.6120   30.9740   34.9630 C   0  0  0  0  0  0  0  0  0  0  0  0
   35.2540   32.0130   35.5260 N   0  0  0  0  0  0  0  0  0  0  0  0
   35.3470   33.3960   37.0900 H   0  0  0  0  0  0  0  0  0  0  0  0
   33.3290   32.5310   38.2080 H   0  0  0  0  0  0  0  0  0  0  0  0
   31.8490   30.4930   37.3400 N   0  0  0  0  0  0  0  0  0  0  0  0
   31.2490   31.1220   37.9000 H   0  0  0  0  0  0  0  0  0  0  0  0
   31.6370   29.4660   37.2240 H   0  0  0  0  0  0  0  0  0  0  0  0
   37.5230   27.7350   32.6780 C   0  0  0  0  0  0  0  0  0  0  0  0
   38.3090   28.1130   33.3970 H   0  0  0  0  0  0  0  0  0  0  0  0
   38.0560   27.7050   31.7060 H   0  0  0  0  0  0  0  0  0  0  0  0
   37.1630   26.3740   33.0620 C   0  0  0  0  0  0  0  0  0  0  0  0
   36.4790   26.4050   33.9420 H   0  0  0  0  0  0  0  0  0  0  0  0
   36.6000   25.8340   32.2700 H   0  0  0  0  0  0  0  0  0  0  0  0
   38.2660   25.6140   33.3590 O   0  0  0  0  0  0  0  0  0  0  0  0
   37.3880   25.9840   35.8160 O   0  0  0  0  0  0  0  0  0  0  0  0
   38.6220   25.6930   34.9970 P   0  0  2  0  0  0  0  0  0  0  0  0
   39.7880   26.9400   35.1720 O   0  0  0  0  0  0  0  0  0  0  0  0
   39.7840   27.2920   36.0960 H   0  0  0  0  0  0  0  0  0  0  0  0
   39.3130   24.2850   35.5580 O   0  0  0  0  0  0  0  0  0  0  0  0
   38.7660   23.4180   37.6390 C   0  0  2  0  0  3  0  0  0  0  0  0
   38.4150   23.4100   36.1460 C   0  0  2  0  0  3  0  0  0  0  0  0
   38.8610   22.0000   35.8200 C   0  0  0  0  0  3  0  0  0  0  0  0
   38.1540   21.2540   36.2680 H   0  0  0  0  0  0  0  0  0  0  0  0
   40.0550   21.8390   36.5090 O   0  0  0  0  0  0  0  0  0  0  0  0
   40.1150   22.7330   37.5470 C   0  0  0  0  0  3  0  0  0  0  0  0
   40.4680   22.3500   38.5050 H   0  0  0  0  0  0  0  0  0  0  0  0
   37.9270   22.6140   38.3760 O   0  0  0  0  0  0  0  0  0  0  0  0
   36.9930   22.9400   38.3910 H   0  0  0  0  0  0  0  0  0  0  0  0
  2  1  1  0  0  0  0
  3  2  1  0  0  0  0
  3 15  1  0  0  0  0
  4  8  1  0  0  0  0
  4  3  2  0  0  0  0
  5  6  2  0  0  0  0
  5  4  1  0  0  0  0
  6  7  1  0  0  0  0
  7 22  1  0  0  0  0
  7  2  2  0  0  0  0
  9  5  1  0  0  0  0
 10  6  1  0  0  0  0
 11 17  1  0  0  0  0
 11 12  1  0  0  0  0
 12 18  1  0  0  0  0
 13 12  2  0  0  0  0
 13 19  1  0  0  0  0
 14 13  1  0  0  0  0
 15 16  1  0  0  0  0
 15 14  2  0  0  0  0
 16 11  2  0  0  0  0
 19 20  1  0  0  0  0
 21 19  1  0  0  0  0
 22 25  1  0  0  0  0
 22 23  1  0  0  0  0
 24 22  1  0  0  0  0
 25 28  1  0  0  0  0
 25 26  1  0  0  0  0
 27 25  1  0  0  0  0
 28 30  1  0  0  0  0
 30 31  1  0  0  0  0
 30 33  1  0  0  0  0
 30 29  2  1  0  0  0
 31 32  1  0  0  0  0
 34 41  1  1  0  0  0
 35 33  1  6  0  0  0
 35 34  1  0  0  0  0
 36 35  1  0  0  0  0
 36 37  1  0  0  0  0
 36 38  1  0  0  0  0
 38 39  1  0  0  0  0
 39 34  1  0  0  0  0
 39 40  1  0  0  0  0
 41 42  1  0  0  0  0
M  END
>  <minimizedAffinity>
-5.56319618

$$$$
