
     RDKit          3D

 38 40  0  0  0  0  0  0  0  0999 V2000
   35.9676   29.6279   48.8674 N   0  0  0  0  0  0  0  0  0  0  0  0
   36.5710   28.8529   49.9237 C   0  0  0  0  0  0  0  0  0  0  0  0
   37.0475   29.5668   51.1084 C   0  0  0  0  0  0  0  0  0  0  0  0
   37.4183   30.9882   50.9800 C   0  0  0  0  0  0  0  0  0  0  0  0
   36.8166   31.6915   49.7809 C   0  0  0  0  0  0  0  0  0  0  0  0
   36.8404   30.7528   48.5929 C   0  0  1  0  0  0  0  0  0  0  0  0
   34.7367   29.3271   48.2227 C   0  0  0  0  0  0  0  0  0  0  0  0
   34.2547   30.0082   47.0942 C   0  0  0  0  0  0  0  0  0  0  0  0
   33.0334   29.6155   46.5580 C   0  0  0  0  0  0  0  0  0  0  0  0
   32.3777   28.5844   47.1694 N   0  0  0  0  0  0  0  0  0  0  0  0
   32.8717   27.9609   48.2441 C   0  0  0  0  0  0  0  0  0  0  0  0
   34.0518   28.3293   48.7745 N   0  0  0  0  0  0  0  0  0  0  0  0
   38.1825   30.3504   48.4699 O   0  0  0  0  0  0  0  0  0  0  0  0
   35.8467   28.0453   50.1860 H   0  0  0  0  0  0  0  0  0  0  0  0
   37.4356   28.3182   49.4567 H   0  0  0  0  0  0  0  0  0  0  0  0
   36.2581   29.4672   51.8989 H   0  0  0  0  0  0  0  0  0  0  0  0
   37.9211   29.0224   51.5442 H   0  0  0  0  0  0  0  0  0  0  0  0
   37.0783   31.5703   51.8623 H   0  0  0  0  0  0  0  0  0  0  0  0
   38.5232   31.1427   50.9468 H   0  0  0  0  0  0  0  0  0  0  0  0
   37.4474   32.5799   49.5783 H   0  0  0  0  0  0  0  0  0  0  0  0
   35.7958   32.0571   49.9428 H   0  0  0  0  0  0  0  0  0  0  0  0
   36.5852   31.2722   47.6558 H   0  0  0  0  0  0  0  0  0  0  0  0
   34.8461   30.7955   46.6993 H   0  0  0  0  0  0  0  0  0  0  0  0
   32.6499   30.1258   45.6948 H   0  0  0  0  0  0  0  0  0  0  0  0
   32.2706   27.1448   48.6630 H   0  0  0  0  0  0  0  0  0  0  0  0
   39.5246   32.4849   48.6627 O   0  0  0  0  0  0  0  0  0  0  0  0
   39.3750   32.0936   47.3481 C   0  0  2  0  0  0  0  0  0  0  0  0
   38.6968   30.7485   47.2251 C   0  0  1  0  0  0  0  0  0  0  0  0
   39.8108   29.8433   46.8055 C   0  0  1  0  0  0  0  0  0  0  0  0
   39.7394   28.8789   47.3867 H   0  0  0  0  0  0  0  0  0  0  0  0
   40.9961   30.5046   47.1181 O   0  0  0  0  0  0  0  0  0  0  0  0
   40.7428   31.8102   46.7527 C   0  0  2  0  0  0  0  0  0  0  0  0
   41.4354   32.5493   47.2072 H   0  0  0  0  0  0  0  0  0  0  0  0
   39.2641   33.4365   48.8310 H   0  0  0  0  0  0  0  0  0  0  0  0
   38.8106   32.8237   46.7321 H   0  0  0  0  0  0  0  0  0  0  0  0
   37.8938   30.7816   46.4434 H   0  0  0  0  0  0  0  0  0  0  0  0
   39.7957   29.6260   45.7185 H   0  0  0  0  0  0  0  0  0  0  0  0
   40.7018   31.8605   45.6411 H   0  0  0  0  0  0  0  0  0  0  0  0
  1  2  1  0
  2  3  1  0
  4  3  1  0
  5  4  1  0
  6  1  1  0
  6  5  1  0
  7 12  1  0
  7  1  1  0
  8  7  2  0
  9  8  1  0
  9 10  2  0
 10 11  1  0
 11 12  2  0
 13  6  1  0
  2 14  1  0
  2 15  1  0
  3 16  1  0
  3 17  1  0
  4 18  1  0
  4 19  1  0
  5 20  1  0
  5 21  1  0
  6 22  1  6
  8 23  1  0
  9 24  1  0
 11 25  1  0
 26 27  1  0
 27 28  1  0
 28 29  1  0
 29 30  1  1
 29 31  1  0
 31 32  1  0
 32 33  1  1
 32 27  1  0
 26 34  1  0
 27 35  1  6
 28 36  1  6
 29 37  1  0
 32 38  1  0
 13 28  1  0
M  ISO  8  14  13  15  13  16  13  17  13  18  13  19  13  20  13  21  13
M  ISO  6  22  13  23  14  24  14  25  14  30  15  33  16
M  END
>  <DihAtoms>  (1) 
5,12,27,26

>  <DihDeg>  (1) 
123.07988826586138

$$$$
