
     RDKit          3D

 33 35  0  0  0  0  0  0  0  0999 V2000
   36.9836   31.4124   48.5494 N   0  0  0  0  0  0  0  0  0  0  0  0
   37.1605   32.1605   49.6572 C   0  0  0  0  0  0  0  0  0  0  0  0
   38.1544   33.1465   49.6688 C   0  0  0  0  0  0  0  0  0  0  0  0
   38.8702   33.2534   48.5120 C   0  0  0  0  0  0  0  0  0  0  0  0
   39.7634   34.1525   48.5476 O   0  0  0  0  0  0  0  0  0  0  0  0
   38.7155   32.5261   47.4022 N   0  0  0  0  0  0  0  0  0  0  0  0
   37.7429   31.5914   47.4492 C   0  0  0  0  0  0  0  0  0  0  0  0
   37.5866   30.8937   46.3994 O   0  0  0  0  0  0  0  0  0  0  0  0
   36.1718   29.2507   49.2980 C   0  0  0  0  0  0  0  0  0  0  0  0
   35.9922   30.3974   48.4782 C   0  0  0  0  0  0  0  0  0  0  0  0
   34.8722   30.4438   47.6746 C   0  0  0  0  0  0  0  0  0  0  0  0
   34.0047   29.3971   47.7089 N   0  0  0  0  0  0  0  0  0  0  0  0
   34.1864   28.3218   48.4869 C   0  0  0  0  0  0  0  0  0  0  0  0
   35.2772   28.2467   49.2876 N   0  0  0  0  0  0  0  0  0  0  0  0
   33.2723   27.2788   48.4869 O   0  0  0  0  0  0  0  0  0  0  0  0
   36.5358   32.0042   50.5448 H   0  0  0  0  0  0  0  0  0  0  0  0
   38.3195   33.7618   50.5425 H   0  0  0  0  0  0  0  0  0  0  0  0
   39.3134   32.6772   46.5555 H   0  0  0  0  0  0  0  0  0  0  0  0
   37.0571   29.2129   49.9338 H   0  0  0  0  0  0  0  0  0  0  0  0
   34.7458   31.3214   47.0548 H   0  0  0  0  0  0  0  0  0  0  0  0
   35.5522   25.0952   48.7873 O   0  0  0  0  0  0  0  0  0  0  0  0
   34.1818   25.0421   48.5711 C   0  0  2  0  0  0  0  0  0  0  0  0
   33.4640   26.1602   49.2981 C   0  0  2  0  0  0  0  0  0  0  0  0
   32.1874   25.4821   49.6986 C   0  0  1  0  0  0  0  0  0  0  0  0
   31.7129   25.9582   50.5890 H   0  0  0  0  0  0  0  0  0  0  0  0
   32.4989   24.1546   49.9477 O   0  0  0  0  0  0  0  0  0  0  0  0
   33.5568   23.8120   49.1267 C   0  0  1  0  0  0  0  0  0  0  0  0
   33.2244   23.1235   48.3118 H   0  0  0  0  0  0  0  0  0  0  0  0
   35.9301   24.2323   48.4825 H   0  0  0  0  0  0  0  0  0  0  0  0
   33.9083   25.1178   47.5095 H   0  0  0  0  0  0  0  0  0  0  0  0
   34.0184   26.4581   50.2124 H   0  0  0  0  0  0  0  0  0  0  0  0
   31.4043   25.4988   48.9129 H   0  0  0  0  0  0  0  0  0  0  0  0
   34.2998   23.2771   49.7520 H   0  0  0  0  0  0  0  0  0  0  0  0
  1  2  1  0
  2  3  2  0
  4  5  2  0
  4  3  1  0
  6  7  1  0
  6  4  1  0
  7  1  1  0
  8  7  2  0
 10  1  1  0
 10  9  2  0
 11 12  2  0
 11 10  1  0
 12 13  1  0
 13 15  1  0
 13 14  2  0
 14  9  1  0
  2 16  1  0
  3 17  1  0
  6 18  1  0
  9 19  1  0
 11 20  1  0
 21 22  1  0
 22 23  1  0
 23 24  1  0
 24 25  1  1
 24 26  1  0
 26 27  1  0
 27 28  1  6
 27 22  1  0
 21 29  1  0
 22 30  1  6
 23 31  1  1
 24 32  1  0
 27 33  1  0
 15 23  1  0
M  ISO  7  16  14  17  14  18   9  19  14  20  14  25  15  28  16
M  END
>  <DihAtoms>  (1) 
12,14,22,21

>  <DihDeg>  (1) 
-123.54310058586486

$$$$
