
 OpenBabel03272500043D

 29 31  0  0  1  0  0  0  0  0999 V2000
   36.1140   29.2280   49.3250 C   0  0  0  0  0  0  0  0  0  0  0  0
   35.9180   30.3690   48.5010 C   0  0  0  0  0  0  0  0  0  0  0  0
   34.7580   30.4350   47.7600 C   0  0  0  0  0  0  0  0  0  0  0  0
   33.8680   29.4100   47.8540 N   0  0  0  0  0  0  0  0  0  0  0  0
   34.0650   28.3400   48.6340 C   0  0  0  0  0  0  0  0  0  0  0  0
   35.1960   28.2470   49.3760 N   0  0  0  0  0  0  0  0  0  0  0  0
   37.0310   29.1750   49.9130 H   0  0  0  0  0  0  0  0  0  0  0  0
   34.6200   31.3080   47.1360 H   0  0  0  0  0  0  0  0  0  0  0  0
   36.9370   31.3590   48.5060 N   0  0  0  0  0  0  0  0  0  0  0  0
   37.2150   32.0910   49.6040 C   0  0  0  0  0  0  0  0  0  0  0  0
   38.2310   33.0540   49.5490 C   0  0  0  0  0  0  0  0  0  0  0  0
   38.8590   33.1560   48.3420 C   0  0  0  0  0  0  0  0  0  0  0  0
   39.7740   34.0340   48.3180 O   0  0  0  0  0  0  0  0  0  0  0  0
   38.6030   32.4440   47.2410 N   0  0  0  0  0  0  0  0  0  0  0  0
   37.6150   31.5320   47.3530 C   0  0  0  0  0  0  0  0  0  0  0  0
   37.3630   30.8510   46.3120 O   0  0  0  0  0  0  0  0  0  0  0  0
   36.6560   31.9400   50.5360 H   0  0  0  0  0  0  0  0  0  0  0  0
   38.4760   33.6550   50.4130 H   0  0  0  0  0  0  0  0  0  0  0  0
   39.1390   32.5900   46.3530 H   0  0  0  0  0  0  0  0  0  0  0  0
   33.1270   27.3200   48.6970 O   0  0  0  0  0  0  0  0  0  0  0  0
   30.8570   27.7370   47.9820 C   0  0  2  0  0  3  0  0  0  0  0  0
   32.2080   27.1300   47.6640 C   0  0  2  0  0  3  0  0  0  0  0  0
   31.8430   25.6930   47.4420 C   0  0  0  0  0  3  0  0  0  0  0  0
   32.5770   25.1620   46.7900 H   0  0  0  0  0  0  0  0  0  0  0  0
   30.5760   25.6830   46.8790 O   0  0  0  0  0  0  0  0  0  0  0  0
   29.8970   26.7870   47.3570 C   0  0  0  0  0  3  0  0  0  0  0  0
   29.0990   26.4860   48.0790 H   0  0  0  0  0  0  0  0  0  0  0  0
   30.7480   29.0250   47.4760 O   0  0  0  0  0  0  0  0  0  0  0  0
   29.7910   29.2750   47.5150 H   0  0  0  0  0  0  0  0  0  0  0  0
  1  6  1  0  0  0  0
  1  7  1  0  0  0  0
  2  9  1  0  0  0  0
  2  1  2  0  0  0  0
  3  4  2  0  0  0  0
  3  2  1  0  0  0  0
  4  5  1  0  0  0  0
  5 20  1  0  0  0  0
  5  6  2  0  0  0  0
  8  3  1  0  0  0  0
  9 10  1  0  0  0  0
 10 17  1  0  0  0  0
 11 10  2  0  0  0  0
 11 18  1  0  0  0  0
 12 11  1  0  0  0  0
 13 12  2  0  0  0  0
 14 15  1  0  0  0  0
 14 12  1  0  0  0  0
 15  9  1  0  0  0  0
 16 15  2  0  0  0  0
 19 14  1  0  0  0  0
 21 28  1  6  0  0  0
 22 21  1  0  0  0  0
 22 20  1  1  0  0  0
 23 22  1  0  0  0  0
 24 23  1  0  0  0  0
 25 26  1  0  0  0  0
 25 23  1  0  0  0  0
 26 21  1  0  0  0  0
 26 27  1  0  0  0  0
 28 29  1  0  0  0  0
M  END
>  <minimizedAffinity>
-5.595397

>  <minimizedRMSD>
2.36975312

$$$$
