
 OpenBabel03272502583D

 34 36  0  0  1  0  0  0  0  0999 V2000
   36.9340   30.5610   48.4270 N   0  0  0  0  0  0  0  0  0  0  0  0
   37.8750   30.0310   49.3840 C   0  0  0  0  0  0  0  0  0  0  0  0
   38.4300   30.9490   50.3770 C   0  0  0  0  0  0  0  0  0  0  0  0
   38.4850   32.3880   50.0620 C   0  0  0  0  0  0  0  0  0  0  0  0
   37.5320   32.8330   48.9720 C   0  0  0  0  0  0  0  0  0  0  0  0
   37.4990   31.7810   47.8840 C   0  0  1  0  0  0  0  0  0  0  0  0
   37.3880   29.1460   49.8590 H   0  0  0  0  0  0  0  0  0  0  0  0
   38.7160   29.6030   48.7830 H   0  0  0  0  0  0  0  0  0  0  0  0
   37.8490   30.8070   51.3260 H   0  0  0  0  0  0  0  0  0  0  0  0
   39.4620   30.6180   50.6530 H   0  0  0  0  0  0  0  0  0  0  0  0
   38.2220   33.0010   50.9490 H   0  0  0  0  0  0  0  0  0  0  0  0
   39.5100   32.7270   49.7770 H   0  0  0  0  0  0  0  0  0  0  0  0
   37.9250   33.7870   48.5690 H   0  0  0  0  0  0  0  0  0  0  0  0
   36.5130   33.0320   49.3240 H   0  0  0  0  0  0  0  0  0  0  0  0
   36.9660   32.1350   46.9880 H   0  0  0  0  0  0  0  0  0  0  0  0
   35.6810   29.9790   48.0920 C   0  0  0  0  0  0  0  0  0  0  0  0
   35.0700   30.1020   46.8340 C   0  0  0  0  0  0  0  0  0  0  0  0
   33.8410   29.4830   46.6340 C   0  0  0  0  0  0  0  0  0  0  0  0
   33.3060   28.7890   47.6820 N   0  0  0  0  0  0  0  0  0  0  0  0
   33.9210   28.6960   48.8660 C   0  0  0  0  0  0  0  0  0  0  0  0
   35.1100   29.2900   49.0760 N   0  0  0  0  0  0  0  0  0  0  0  0
   35.5750   30.6650   46.0900 H   0  0  0  0  0  0  0  0  0  0  0  0
   33.3600   29.5670   45.6780 H   0  0  0  0  0  0  0  0  0  0  0  0
   33.4100   28.1170   49.6450 H   0  0  0  0  0  0  0  0  0  0  0  0
   38.8410   31.6040   47.5030 O   0  0  0  0  0  0  0  0  0  0  0  0
   39.5510   32.9910   45.6880 C   0  0  2  0  0  3  0  0  0  0  0  0
   38.9620   31.6630   46.1040 C   0  0  1  0  0  3  0  0  0  0  0  0
   39.9790   30.6750   45.6250 C   0  0  0  0  0  3  0  0  0  0  0  0
   40.1390   29.8960   46.4240 H   0  0  0  0  0  0  0  0  0  0  0  0
   41.1540   31.3920   45.4110 O   0  0  0  0  0  0  0  0  0  0  0  0
   40.7170   32.5570   44.8180 C   0  0  0  0  0  3  0  0  0  0  0  0
   41.4540   33.3870   44.8550 H   0  0  0  0  0  0  0  0  0  0  0  0
   40.0300   33.7110   46.7630 O   0  0  0  0  0  0  0  0  0  0  0  0
   39.7590   34.6740   46.7560 H   0  0  0  0  0  0  0  0  0  0  0  0
  1  2  1  0  0  0  0
  2  7  1  0  0  0  0
  2  3  1  0  0  0  0
  3 10  1  0  0  0  0
  3  9  1  0  0  0  0
  4  3  1  0  0  0  0
  4 11  1  0  0  0  0
  5 14  1  0  0  0  0
  5  4  1  0  0  0  0
  6 15  1  6  0  0  0
  6  1  1  0  0  0  0
  6  5  1  0  0  0  0
  8  2  1  0  0  0  0
 12  4  1  0  0  0  0
 13  5  1  0  0  0  0
 16  1  1  0  0  0  0
 16 21  1  0  0  0  0
 17 16  2  0  0  0  0
 18 17  1  0  0  0  0
 18 19  2  0  0  0  0
 19 20  1  0  0  0  0
 20 21  2  0  0  0  0
 20 24  1  0  0  0  0
 22 17  1  0  0  0  0
 23 18  1  0  0  0  0
 25  6  1  0  0  0  0
 26 27  1  0  0  0  0
 26 33  1  1  0  0  0
 27 25  1  1  0  0  0
 28 27  1  0  0  0  0
 28 29  1  0  0  0  0
 30 28  1  0  0  0  0
 31 32  1  0  0  0  0
 31 30  1  0  0  0  0
 31 26  1  0  0  0  0
 34 33  1  0  0  0  0
M  END
>  <minimizedAffinity>
-5.34608936

>  <minimizedRMSD>
2.17828488

$$$$
