
 OpenBabel03272502583D

 34 36  0  0  1  0  0  0  0  0999 V2000
   35.7500   29.6380   48.7760 N   0  0  0  0  0  0  0  0  0  0  0  0
   36.6450   28.8580   49.5940 C   0  0  0  0  0  0  0  0  0  0  0  0
   37.1960   29.4860   50.7940 C   0  0  0  0  0  0  0  0  0  0  0  0
   37.3010   30.9560   50.8430 C   0  0  0  0  0  0  0  0  0  0  0  0
   36.3940   31.6860   49.8740 C   0  0  0  0  0  0  0  0  0  0  0  0
   36.3640   30.9330   48.5600 C   0  0  1  0  0  0  0  0  0  0  0  0
   36.1200   27.9010   49.8270 H   0  0  0  0  0  0  0  0  0  0  0  0
   37.4920   28.5610   48.9250 H   0  0  0  0  0  0  0  0  0  0  0  0
   36.5830   29.1360   51.6670 H   0  0  0  0  0  0  0  0  0  0  0  0
   38.2100   29.0630   51.0040 H   0  0  0  0  0  0  0  0  0  0  0  0
   37.0280   31.3420   51.8470 H   0  0  0  0  0  0  0  0  0  0  0  0
   38.3430   31.3190   50.6730 H   0  0  0  0  0  0  0  0  0  0  0  0
   36.8250   32.6950   49.7260 H   0  0  0  0  0  0  0  0  0  0  0  0
   35.3710   31.8280   50.2410 H   0  0  0  0  0  0  0  0  0  0  0  0
   35.8690   31.5130   47.7670 H   0  0  0  0  0  0  0  0  0  0  0  0
   34.4920   29.1980   48.2800 C   0  0  0  0  0  0  0  0  0  0  0  0
   33.9370   29.6220   47.0620 C   0  0  0  0  0  0  0  0  0  0  0  0
   32.6960   29.1170   46.6900 C   0  0  0  0  0  0  0  0  0  0  0  0
   32.0950   28.2320   47.5410 N   0  0  0  0  0  0  0  0  0  0  0  0
   32.6580   27.8530   48.6930 C   0  0  0  0  0  0  0  0  0  0  0  0
   33.8570   28.3340   49.0670 N   0  0  0  0  0  0  0  0  0  0  0  0
   34.4910   30.3140   46.4780 H   0  0  0  0  0  0  0  0  0  0  0  0
   32.2570   29.4300   45.7630 H   0  0  0  0  0  0  0  0  0  0  0  0
   32.0960   27.1390   49.3070 H   0  0  0  0  0  0  0  0  0  0  0  0
   37.7120   30.8090   48.1780 O   0  0  0  0  0  0  0  0  0  0  0  0
   38.6710   32.6480   46.9870 C   0  0  2  0  0  3  0  0  0  0  0  0
   37.9060   31.3480   46.8950 C   0  0  1  0  0  3  0  0  0  0  0  0
   38.8140   30.4740   46.0920 C   0  0  0  0  0  3  0  0  0  0  0  0
   38.8400   29.4460   46.5560 H   0  0  0  0  0  0  0  0  0  0  0  0
   40.0770   31.0580   46.1500 O   0  0  0  0  0  0  0  0  0  0  0  0
   39.8150   32.4060   46.0180 C   0  0  0  0  0  3  0  0  0  0  0  0
   40.6460   33.0620   46.3530 H   0  0  0  0  0  0  0  0  0  0  0  0
   39.1830   32.8650   48.2500 O   0  0  0  0  0  0  0  0  0  0  0  0
   39.0340   33.7950   48.5890 H   0  0  0  0  0  0  0  0  0  0  0  0
  1  2  1  0  0  0  0
  2  7  1  0  0  0  0
  2  3  1  0  0  0  0
  3  4  1  0  0  0  0
  3 10  1  0  0  0  0
  3  9  1  0  0  0  0
  4 11  1  0  0  0  0
  5 14  1  0  0  0  0
  5  4  1  0  0  0  0
  6 15  1  6  0  0  0
  6  1  1  0  0  0  0
  6  5  1  0  0  0  0
  8  2  1  0  0  0  0
 12  4  1  0  0  0  0
 13  5  1  0  0  0  0
 16  1  1  0  0  0  0
 16 21  1  0  0  0  0
 17 16  2  0  0  0  0
 18 17  1  0  0  0  0
 18 19  2  0  0  0  0
 19 20  1  0  0  0  0
 20 21  2  0  0  0  0
 20 24  1  0  0  0  0
 22 17  1  0  0  0  0
 23 18  1  0  0  0  0
 25  6  1  0  0  0  0
 26 33  1  1  0  0  0
 27 26  1  0  0  0  0
 27 25  1  1  0  0  0
 28 30  1  0  0  0  0
 28 29  1  0  0  0  0
 28 27  1  0  0  0  0
 31 30  1  0  0  0  0
 31 32  1  0  0  0  0
 31 26  1  0  0  0  0
 33 34  1  0  0  0  0
M  END
>  <minimizedAffinity>
-5.41703892

>  <minimizedRMSD>
0.961682618

$$$$
