REMARK  Name = 
REMARK  4 active torsions:
REMARK  status: ('A' for Active; 'I' for Inactive)
REMARK    1  A    between atoms: N_1  and  C_7
REMARK    2  A    between atoms: C_6  and  O_13
REMARK    3  A    between atoms: O_13  and  C_28
REMARK    4  A    between atoms: O_26  and  C_27
REMARK                            x       y       z     vdW  Elec       q    Type
REMARK                         _______ _______ _______ _____ _____    ______ ____
ROOT
ATOM      1  N   UNL     1      35.968  29.628  48.867  0.00  0.00    +0.000 N 
ATOM      2  C   UNL     1      36.571  28.853  49.924  0.00  0.00    +0.000 C 
ATOM      3  C   UNL     1      37.047  29.567  51.108  0.00  0.00    +0.000 C 
ATOM      4  C   UNL     1      37.418  30.988  50.980  0.00  0.00    +0.000 C 
ATOM      5  C   UNL     1      36.817  31.692  49.781  0.00  0.00    +0.000 C 
ATOM      6  C   UNL     1      36.840  30.753  48.593  0.00  0.00    +0.000 C 
ATOM      7  H   UNL     1      35.847  28.045  50.186  0.00  0.00    +0.000 HD
ATOM      8  H   UNL     1      37.436  28.318  49.457  0.00  0.00    +0.000 HD
ATOM      9  H   UNL     1      36.258  29.467  51.899  0.00  0.00    +0.000 HD
ATOM     10  H   UNL     1      37.921  29.022  51.544  0.00  0.00    +0.000 HD
ATOM     11  H   UNL     1      37.078  31.570  51.862  0.00  0.00    +0.000 HD
ATOM     12  H   UNL     1      38.523  31.143  50.947  0.00  0.00    +0.000 HD
ATOM     13  H   UNL     1      37.447  32.580  49.578  0.00  0.00    +0.000 HD
ATOM     14  H   UNL     1      35.796  32.057  49.943  0.00  0.00    +0.000 HD
ATOM     15  H   UNL     1      36.585  31.272  47.656  0.00  0.00    +0.000 HD
ENDROOT
BRANCH   1  16
ATOM     16  C   UNL     1      34.737  29.327  48.223  0.00  0.00    +0.000 A 
ATOM     17  C   UNL     1      34.255  30.008  47.094  0.00  0.00    +0.000 A 
ATOM     18  C   UNL     1      33.033  29.616  46.558  0.00  0.00    +0.000 A 
ATOM     19  N   UNL     1      32.378  28.584  47.169  0.00  0.00    +0.000 NA
ATOM     20  C   UNL     1      32.872  27.961  48.244  0.00  0.00    +0.000 A 
ATOM     21  N   UNL     1      34.052  28.329  48.775  0.00  0.00    +0.000 NA
ATOM     22  H   UNL     1      34.846  30.796  46.699  0.00  0.00    +0.000 HD
ATOM     23  H   UNL     1      32.650  30.126  45.695  0.00  0.00    +0.000 HD
ATOM     24  H   UNL     1      32.271  27.145  48.663  0.00  0.00    +0.000 HD
ENDBRANCH   1  16
BRANCH   6  25
ATOM     25  O   UNL     1      38.182  30.350  48.470  0.00  0.00    +0.000 OA
BRANCH  25  27
ATOM     26  C   UNL     1      38.364  32.200  46.965  0.00  0.00    +0.000 C 
ATOM     27  C   UNL     1      38.697  30.748  47.225  0.00  0.00    +0.000 C 
ATOM     28  C   UNL     1      40.192  30.741  47.250  0.00  0.00    +0.000 C 
ATOM     29  H   UNL     1      40.542  30.098  48.108  0.00  0.00    +0.000 HD
ATOM     30  O   UNL     1      40.590  32.061  47.448  0.00  0.00    +0.000 OA
ATOM     31  C   UNL     1      39.730  32.781  46.645  0.00  0.00    +0.000 C 
ATOM     32  H   UNL     1      39.672  33.861  46.898  0.00  0.00    +0.000 HD
BRANCH  26  33
ATOM     33  O   UNL     1      37.854  32.828  48.082  0.00  0.00    +0.000 OA
ATOM     34  H   UNL     1      37.043  33.383  47.896  0.00  0.00    +0.000 HD
ENDBRANCH  26  33
ENDBRANCH  25  27
ENDBRANCH   6  25
TORSDOF 4
