
 OpenBabel03272502583D

 34 36  0  0  1  0  0  0  0  0999 V2000
   36.5080   30.0820   48.4520 N   0  0  0  0  0  0  0  0  0  0  0  0
   37.5320   29.4810   49.2710 C   0  0  0  0  0  0  0  0  0  0  0  0
   38.2090   30.3300   50.2520 C   0  0  0  0  0  0  0  0  0  0  0  0
   38.2610   31.7840   50.0170 C   0  0  0  0  0  0  0  0  0  0  0  0
   37.2080   32.3080   49.0620 C   0  0  0  0  0  0  0  0  0  0  0  0
   37.0390   31.3240   47.9240 C   0  0  1  0  0  0  0  0  0  0  0  0
   37.0800   28.5770   49.7430 H   0  0  0  0  0  0  0  0  0  0  0  0
   38.2970   29.0780   48.5600 H   0  0  0  0  0  0  0  0  0  0  0  0
   37.7280   30.1390   51.2470 H   0  0  0  0  0  0  0  0  0  0  0  0
   39.2570   29.9670   50.3960 H   0  0  0  0  0  0  0  0  0  0  0  0
   38.1060   32.3470   50.9610 H   0  0  0  0  0  0  0  0  0  0  0  0
   39.2570   32.1240   49.6450 H   0  0  0  0  0  0  0  0  0  0  0  0
   37.5760   33.2790   48.6750 H   0  0  0  0  0  0  0  0  0  0  0  0
   36.2360   32.5010   49.5310 H   0  0  0  0  0  0  0  0  0  0  0  0
   36.4220   31.7390   47.1120 H   0  0  0  0  0  0  0  0  0  0  0  0
   35.2150   29.5400   48.2190 C   0  0  0  0  0  0  0  0  0  0  0  0
   34.4040   29.8870   47.1270 C   0  0  0  0  0  0  0  0  0  0  0  0
   33.1560   29.2840   47.0130 C   0  0  0  0  0  0  0  0  0  0  0  0
   32.8000   28.3840   47.9770 N   0  0  0  0  0  0  0  0  0  0  0  0
   33.6030   28.0800   49.0030 C   0  0  0  0  0  0  0  0  0  0  0  0
   34.8120   28.6560   49.1280 N   0  0  0  0  0  0  0  0  0  0  0  0
   34.7800   30.5990   46.4350 H   0  0  0  0  0  0  0  0  0  0  0  0
   32.5240   29.5380   46.1840 H   0  0  0  0  0  0  0  0  0  0  0  0
   33.2260   27.3470   49.7260 H   0  0  0  0  0  0  0  0  0  0  0  0
   38.3300   31.1510   47.3930 O   0  0  0  0  0  0  0  0  0  0  0  0
   37.9370   31.8150   45.1290 C   0  0  2  0  0  3  0  0  0  0  0  0
   38.2530   30.6770   46.0730 C   0  0  1  0  0  3  0  0  0  0  0  0
   39.5940   30.2110   45.6050 C   0  0  0  0  0  3  0  0  0  0  0  0
   40.2490   30.0170   46.5020 H   0  0  0  0  0  0  0  0  0  0  0  0
   40.1270   31.2430   44.8370 O   0  0  0  0  0  0  0  0  0  0  0  0
   39.0480   31.6870   44.1020 C   0  0  0  0  0  3  0  0  0  0  0  0
   39.1820   32.7000   43.6670 H   0  0  0  0  0  0  0  0  0  0  0  0
   38.0300   33.0460   45.7460 O   0  0  0  0  0  0  0  0  0  0  0  0
   37.2610   33.6550   45.5460 H   0  0  0  0  0  0  0  0  0  0  0  0
  1  2  1  0  0  0  0
  2  7  1  0  0  0  0
  2  3  1  0  0  0  0
  3 10  1  0  0  0  0
  3  9  1  0  0  0  0
  4  3  1  0  0  0  0
  4 11  1  0  0  0  0
  5 14  1  0  0  0  0
  5  4  1  0  0  0  0
  6 15  1  6  0  0  0
  6  1  1  0  0  0  0
  6  5  1  0  0  0  0
  8  2  1  0  0  0  0
 12  4  1  0  0  0  0
 13  5  1  0  0  0  0
 16  1  1  0  0  0  0
 16 21  1  0  0  0  0
 17 16  2  0  0  0  0
 18 17  1  0  0  0  0
 18 19  2  0  0  0  0
 19 20  1  0  0  0  0
 20 21  2  0  0  0  0
 20 24  1  0  0  0  0
 22 17  1  0  0  0  0
 23 18  1  0  0  0  0
 25  6  1  0  0  0  0
 26 33  1  1  0  0  0
 26 27  1  0  0  0  0
 27 25  1  1  0  0  0
 28 27  1  0  0  0  0
 28 29  1  0  0  0  0
 30 28  1  0  0  0  0
 31 30  1  0  0  0  0
 31 26  1  0  0  0  0
 32 31  1  0  0  0  0
 34 33  1  0  0  0  0
M  END
>  <minimizedAffinity>
-4.61937571

>  <minimizedRMSD>
1.51230359

$$$$
