
 OpenBabel03272500043D

 29 31  0  0  1  0  0  0  0  0999 V2000
   35.8780   29.0780   49.3060 C   0  0  0  0  0  0  0  0  0  0  0  0
   35.7390   30.2480   48.5120 C   0  0  0  0  0  0  0  0  0  0  0  0
   34.6510   30.3290   47.6690 C   0  0  0  0  0  0  0  0  0  0  0  0
   33.7740   29.2900   47.6410 N   0  0  0  0  0  0  0  0  0  0  0  0
   33.9160   28.1920   48.3940 C   0  0  0  0  0  0  0  0  0  0  0  0
   34.9740   28.0840   49.2340 N   0  0  0  0  0  0  0  0  0  0  0  0
   36.7370   29.0130   49.9730 H   0  0  0  0  0  0  0  0  0  0  0  0
   34.5570   31.2240   47.0690 H   0  0  0  0  0  0  0  0  0  0  0  0
   36.7370   31.2510   48.6490 N   0  0  0  0  0  0  0  0  0  0  0  0
   36.8020   32.0480   49.7340 C   0  0  0  0  0  0  0  0  0  0  0  0
   37.8070   33.0200   49.8140 C   0  0  0  0  0  0  0  0  0  0  0  0
   38.6520   33.0600   48.7430 C   0  0  0  0  0  0  0  0  0  0  0  0
   39.5530   33.9470   48.8390 O   0  0  0  0  0  0  0  0  0  0  0  0
   38.6090   32.2830   47.6570 N   0  0  0  0  0  0  0  0  0  0  0  0
   37.6190   31.3660   47.6360 C   0  0  0  0  0  0  0  0  0  0  0  0
   37.5690   30.6220   46.6080 O   0  0  0  0  0  0  0  0  0  0  0  0
   36.0780   31.9440   50.5520 H   0  0  0  0  0  0  0  0  0  0  0  0
   37.8850   33.6730   50.6710 H   0  0  0  0  0  0  0  0  0  0  0  0
   39.3010   32.3850   46.8780 H   0  0  0  0  0  0  0  0  0  0  0  0
   32.9930   27.1590   48.3300 O   0  0  0  0  0  0  0  0  0  0  0  0
   32.7380   26.5370   46.0090 C   0  0  2  0  0  3  0  0  0  0  0  0
   33.1430   26.1220   47.4090 C   0  0  2  0  0  3  0  0  0  0  0  0
   32.2220   24.9630   47.6510 C   0  0  0  0  0  3  0  0  0  0  0  0
   32.6230   24.2510   48.4110 H   0  0  0  0  0  0  0  0  0  0  0  0
   32.0330   24.3380   46.4300 O   0  0  0  0  0  0  0  0  0  0  0  0
   32.1290   25.3030   45.4460 C   0  0  0  0  0  3  0  0  0  0  0  0
   31.1290   25.5160   44.9940 H   0  0  0  0  0  0  0  0  0  0  0  0
   33.8320   26.9810   45.2780 O   0  0  0  0  0  0  0  0  0  0  0  0
   33.5520   27.0210   44.3290 H   0  0  0  0  0  0  0  0  0  0  0  0
  1  7  1  0  0  0  0
  2  9  1  0  0  0  0
  2  1  2  0  0  0  0
  3  2  1  0  0  0  0
  4  3  2  0  0  0  0
  4  5  1  0  0  0  0
  5  6  2  0  0  0  0
  6  1  1  0  0  0  0
  8  3  1  0  0  0  0
  9 10  1  0  0  0  0
 10 11  2  0  0  0  0
 10 17  1  0  0  0  0
 11 18  1  0  0  0  0
 12 13  2  0  0  0  0
 12 11  1  0  0  0  0
 14 12  1  0  0  0  0
 15 14  1  0  0  0  0
 15  9  1  0  0  0  0
 16 15  2  0  0  0  0
 19 14  1  0  0  0  0
 20  5  1  0  0  0  0
 21 28  1  6  0  0  0
 21 22  1  0  0  0  0
 22 23  1  0  0  0  0
 22 20  1  1  0  0  0
 23 24  1  0  0  0  0
 25 23  1  0  0  0  0
 26 21  1  0  0  0  0
 26 25  1  0  0  0  0
 27 26  1  0  0  0  0
 29 28  1  0  0  0  0
M  END
>  <minimizedAffinity>
-4.98901987

>  <minimizedRMSD>
1.8555243

$$$$
