
 OpenBabel03272502583D

 34 36  0  0  1  0  0  0  0  0999 V2000
   37.0210   30.6210   48.3130 N   0  0  0  0  0  0  0  0  0  0  0  0
   37.9500   30.1150   49.2940 C   0  0  0  0  0  0  0  0  0  0  0  0
   38.5190   31.0640   50.2490 C   0  0  0  0  0  0  0  0  0  0  0  0
   38.6000   32.4880   49.8740 C   0  0  0  0  0  0  0  0  0  0  0  0
   37.6580   32.9030   48.7630 C   0  0  0  0  0  0  0  0  0  0  0  0
   37.6090   31.8060   47.7200 C   0  0  1  0  0  0  0  0  0  0  0  0
   37.4470   29.2590   49.8050 H   0  0  0  0  0  0  0  0  0  0  0  0
   38.7850   29.6470   48.7140 H   0  0  0  0  0  0  0  0  0  0  0  0
   37.9340   30.9730   51.2020 H   0  0  0  0  0  0  0  0  0  0  0  0
   39.5440   30.7270   50.5420 H   0  0  0  0  0  0  0  0  0  0  0  0
   38.3460   33.1420   50.7340 H   0  0  0  0  0  0  0  0  0  0  0  0
   39.6320   32.7960   49.5780 H   0  0  0  0  0  0  0  0  0  0  0  0
   38.0680   33.8320   48.3210 H   0  0  0  0  0  0  0  0  0  0  0  0
   36.6420   33.1340   49.1030 H   0  0  0  0  0  0  0  0  0  0  0  0
   37.0840   32.1310   46.8080 H   0  0  0  0  0  0  0  0  0  0  0  0
   35.7590   30.0470   47.9990 C   0  0  0  0  0  0  0  0  0  0  0  0
   35.1340   30.1630   46.7470 C   0  0  0  0  0  0  0  0  0  0  0  0
   33.8970   29.5530   46.5680 C   0  0  0  0  0  0  0  0  0  0  0  0
   33.3680   28.8740   47.6290 N   0  0  0  0  0  0  0  0  0  0  0  0
   33.9960   28.7880   48.8060 C   0  0  0  0  0  0  0  0  0  0  0  0
   35.1930   29.3720   48.9960 N   0  0  0  0  0  0  0  0  0  0  0  0
   35.6340   30.7140   45.9910 H   0  0  0  0  0  0  0  0  0  0  0  0
   33.4050   29.6320   45.6170 H   0  0  0  0  0  0  0  0  0  0  0  0
   33.4900   28.2210   49.5970 H   0  0  0  0  0  0  0  0  0  0  0  0
   38.9490   31.5900   47.3510 O   0  0  0  0  0  0  0  0  0  0  0  0
   40.5400   31.9030   45.5930 C   0  0  2  0  0  3  0  0  0  0  0  0
   39.2980   32.4260   46.2770 C   0  0  1  0  0  3  0  0  0  0  0  0
   38.2610   32.3560   45.2010 C   0  0  0  0  0  3  0  0  0  0  0  0
   37.3040   31.9480   45.6380 H   0  0  0  0  0  0  0  0  0  0  0  0
   38.7560   31.4840   44.2330 O   0  0  0  0  0  0  0  0  0  0  0  0
   40.0890   31.8240   44.1450 C   0  0  0  0  0  3  0  0  0  0  0  0
   40.7230   31.0470   43.6680 H   0  0  0  0  0  0  0  0  0  0  0  0
   40.8850   30.6410   46.0300 O   0  0  0  0  0  0  0  0  0  0  0  0
   41.8590   30.5380   46.2350 H   0  0  0  0  0  0  0  0  0  0  0  0
  1  2  1  0  0  0  0
  2  7  1  0  0  0  0
  2  3  1  0  0  0  0
  3 10  1  0  0  0  0
  3  9  1  0  0  0  0
  4  3  1  0  0  0  0
  4 11  1  0  0  0  0
  5 14  1  0  0  0  0
  5  4  1  0  0  0  0
  6 15  1  6  0  0  0
  6  1  1  0  0  0  0
  6  5  1  0  0  0  0
  8  2  1  0  0  0  0
 12  4  1  0  0  0  0
 13  5  1  0  0  0  0
 16  1  1  0  0  0  0
 16 21  1  0  0  0  0
 17 16  2  0  0  0  0
 18 17  1  0  0  0  0
 18 19  2  0  0  0  0
 19 20  1  0  0  0  0
 20 21  2  0  0  0  0
 20 24  1  0  0  0  0
 22 17  1  0  0  0  0
 23 18  1  0  0  0  0
 25  6  1  0  0  0  0
 26 33  1  1  0  0  0
 26 27  1  0  0  0  0
 27 25  1  1  0  0  0
 28 29  1  0  0  0  0
 28 27  1  0  0  0  0
 30 28  1  0  0  0  0
 31 30  1  0  0  0  0
 31 26  1  0  0  0  0
 32 31  1  0  0  0  0
 33 34  1  0  0  0  0
M  END
>  <minimizedAffinity>
-5.44683456

>  <minimizedRMSD>
2.17157555

$$$$
