
 OpenBabel03272502583D

 34 36  0  0  1  0  0  0  0  0999 V2000
   37.1530   30.7590   48.2270 N   0  0  0  0  0  0  0  0  0  0  0  0
   38.0550   30.2710   49.2420 C   0  0  0  0  0  0  0  0  0  0  0  0
   38.5880   31.2350   50.2030 C   0  0  0  0  0  0  0  0  0  0  0  0
   38.6720   32.6550   49.8140 C   0  0  0  0  0  0  0  0  0  0  0  0
   37.7610   33.0510   48.6700 C   0  0  0  0  0  0  0  0  0  0  0  0
   37.7500   31.9420   47.6390 C   0  0  1  0  0  0  0  0  0  0  0  0
   37.5420   29.4170   49.7460 H   0  0  0  0  0  0  0  0  0  0  0  0
   38.9100   29.8020   48.6920 H   0  0  0  0  0  0  0  0  0  0  0  0
   37.9750   31.1500   51.1380 H   0  0  0  0  0  0  0  0  0  0  0  0
   39.6070   30.9090   50.5300 H   0  0  0  0  0  0  0  0  0  0  0  0
   38.3870   33.3170   50.6580 H   0  0  0  0  0  0  0  0  0  0  0  0
   39.7090   32.9670   49.5460 H   0  0  0  0  0  0  0  0  0  0  0  0
   38.1780   33.9770   48.2300 H   0  0  0  0  0  0  0  0  0  0  0  0
   36.7330   33.2790   48.9770 H   0  0  0  0  0  0  0  0  0  0  0  0
   37.2520   32.2530   46.7080 H   0  0  0  0  0  0  0  0  0  0  0  0
   35.9050   30.1730   47.8810 C   0  0  0  0  0  0  0  0  0  0  0  0
   35.3750   30.1650   46.5820 C   0  0  0  0  0  0  0  0  0  0  0  0
   34.1410   29.5580   46.3750 C   0  0  0  0  0  0  0  0  0  0  0  0
   33.5220   29.0020   47.4600 N   0  0  0  0  0  0  0  0  0  0  0  0
   34.0620   29.0310   48.6830 C   0  0  0  0  0  0  0  0  0  0  0  0
   35.2540   29.6150   48.8990 N   0  0  0  0  0  0  0  0  0  0  0  0
   35.9400   30.6260   45.8110 H   0  0  0  0  0  0  0  0  0  0  0  0
   33.7210   29.5430   45.3880 H   0  0  0  0  0  0  0  0  0  0  0  0
   33.4870   28.5580   49.4880 H   0  0  0  0  0  0  0  0  0  0  0  0
   39.1020   31.7310   47.3130 O   0  0  0  0  0  0  0  0  0  0  0  0
   40.6570   31.8850   45.5010 C   0  0  2  0  0  3  0  0  0  0  0  0
   39.4560   32.4940   46.1880 C   0  0  1  0  0  3  0  0  0  0  0  0
   38.3890   32.4100   45.1420 C   0  0  0  0  0  3  0  0  0  0  0  0
   37.4280   32.0650   45.6240 H   0  0  0  0  0  0  0  0  0  0  0  0
   38.8220   31.4690   44.2110 O   0  0  0  0  0  0  0  0  0  0  0  0
   40.1650   31.7480   44.0720 C   0  0  0  0  0  3  0  0  0  0  0  0
   40.7540   30.9230   43.6210 H   0  0  0  0  0  0  0  0  0  0  0  0
   40.9630   30.6350   45.9980 O   0  0  0  0  0  0  0  0  0  0  0  0
   41.9380   30.5040   46.1830 H   0  0  0  0  0  0  0  0  0  0  0  0
  1  2  1  0  0  0  0
  2  7  1  0  0  0  0
  2  3  1  0  0  0  0
  3 10  1  0  0  0  0
  3  9  1  0  0  0  0
  4  3  1  0  0  0  0
  4 11  1  0  0  0  0
  5 14  1  0  0  0  0
  5  4  1  0  0  0  0
  6 15  1  6  0  0  0
  6  1  1  0  0  0  0
  6  5  1  0  0  0  0
  8  2  1  0  0  0  0
 12  4  1  0  0  0  0
 13  5  1  0  0  0  0
 16  1  1  0  0  0  0
 16 21  1  0  0  0  0
 17 16  2  0  0  0  0
 18 17  1  0  0  0  0
 18 19  2  0  0  0  0
 19 20  1  0  0  0  0
 20 21  2  0  0  0  0
 20 24  1  0  0  0  0
 22 17  1  0  0  0  0
 23 18  1  0  0  0  0
 25  6  1  0  0  0  0
 26 33  1  1  0  0  0
 26 27  1  0  0  0  0
 27 25  1  1  0  0  0
 28 29  1  0  0  0  0
 28 27  1  0  0  0  0
 30 28  1  0  0  0  0
 31 30  1  0  0  0  0
 31 26  1  0  0  0  0
 32 31  1  0  0  0  0
 33 34  1  0  0  0  0
M  END
>  <minimizedAffinity>
-5.4531002

>  <minimizedRMSD>
2.23019981

$$$$
