REMARK  Name = 
REMARK  4 active torsions:
REMARK  status: ('A' for Active; 'I' for Inactive)
REMARK    1  A    between atoms: C_1  and  C_3
REMARK    2  A    between atoms: C_1  and  C_9
REMARK    3  A    between atoms: C_12  and  C_14
REMARK    4  A    between atoms: C_14  and  C_21
REMARK                            x       y       z     vdW  Elec       q    Type
REMARK                         _______ _______ _______ _____ _____    ______ ____
ROOT
ATOM      1  C   UNL     1      35.919  29.580  49.909  0.00  0.00    +0.000 A 
ATOM      2  C   UNL     1      34.688  29.883  50.386  0.00  0.00    +0.000 A 
ATOM      3  C   UNL     1      33.757  29.041  49.779  0.00  0.00    +0.000 A 
ATOM      4  C   UNL     1      34.528  28.230  48.917  0.00  0.00    +0.000 A 
ATOM      5  O   UNL     1      35.751  28.617  49.065  0.00  0.00    +0.000 OA
ATOM      6  H   UNL     1      34.421  30.637  51.114  0.00  0.00    +0.000 HD
ATOM      7  H   UNL     1      32.697  28.989  49.908  0.00  0.00    +0.000 HD
ENDROOT
BRANCH   1   8
ATOM      8  C   UNL     1      37.121  30.268  50.333  0.00  0.00    +0.000 C 
ATOM      9  O   UNL     1      37.510  30.134  51.501  0.00  0.00    +0.000 OA
BRANCH   8  10
ATOM     10  C   UNL     1      37.799  31.084  49.334  0.00  0.00    +0.000 A 
ATOM     11  C   UNL     1      38.109  32.394  49.701  0.00  0.00    +0.000 A 
ATOM     12  C   UNL     1      38.754  33.207  48.781  0.00  0.00    +0.000 A 
ATOM     13  N   UNL     1      39.049  32.664  47.554  0.00  0.00    +0.000 NA
ATOM     14  C   UNL     1      38.743  31.408  47.224  0.00  0.00    +0.000 A 
ATOM     15  N   UNL     1      38.118  30.612  48.107  0.00  0.00    +0.000 NA
ATOM     16  H   UNL     1      37.849  32.765  50.686  0.00  0.00    +0.000 HD
ATOM     17  H   UNL     1      38.993  34.217  49.063  0.00  0.00    +0.000 HD
ATOM     18  H   UNL     1      39.020  31.077  46.231  0.00  0.00    +0.000 HD
ENDBRANCH   8  10
ENDBRANCH   1   8
BRANCH   4  19
ATOM     19  C   UNL     1      33.967  27.179  48.058  0.00  0.00    +0.000 C 
ATOM     20  O   UNL     1      32.742  26.890  48.147  0.00  0.00    +0.000 OA
BRANCH  19  21
ATOM     21  C   UNL     1      34.896  26.521  47.131  0.00  0.00    +0.000 C 
ATOM     22  C   UNL     1      34.200  26.041  45.857  0.00  0.00    +0.000 C 
ATOM     23  C   UNL     1      35.320  25.229  45.232  0.00  0.00    +0.000 C 
ATOM     24  C   UNL     1      36.203  24.764  46.398  0.00  0.00    +0.000 C 
ATOM     25  C   UNL     1      35.391  25.185  47.631  0.00  0.00    +0.000 C 
ENDBRANCH  19  21
ENDBRANCH   4  19
TORSDOF 4
