
     RDKit          3D

 31 32  0  0  0  0  0  0  0  0999 V2000
   35.9507   30.7935   49.6287 C   0  0  0  0  0  0  0  0  0  0  0  0
   36.2254   29.9007   50.6488 C   0  0  0  0  0  0  0  0  0  0  0  0
   37.4973   29.8921   51.1961 C   0  0  0  0  0  0  0  0  0  0  0  0
   38.4382   30.7613   50.7146 N   0  0  0  0  0  0  0  0  0  0  0  0
   38.1248   31.6231   49.7095 C   0  0  0  0  0  0  0  0  0  0  0  0
   36.8825   31.6463   49.1601 N   0  0  0  0  0  0  0  0  0  0  0  0
   35.1394   29.0772   51.0226 N   0  0  0  0  0  0  0  0  0  0  0  0
   34.7340   30.9421   48.9631 O   0  0  0  0  0  0  0  0  0  0  0  0
   35.5217   30.0880   46.5485 O   0  0  0  0  0  0  0  0  0  0  0  0
   34.3773   30.0763   47.5130 P   0  0  1  0  0  0  0  0  0  0  0  0
   33.9907   28.4948   47.9908 O   0  0  0  0  0  0  0  0  0  0  0  0
   33.0849   30.8257   46.7163 O   0  0  0  0  0  0  0  0  0  0  0  0
   37.6674   29.1944   51.9744 H   0  0  0  0  0  0  0  0  0  0  0  0
   38.8902   32.3150   49.3333 H   0  0  0  0  0  0  0  0  0  0  0  0
   35.2665   28.2156   50.4273 H   0  0  0  0  0  0  0  0  0  0  0  0
   34.3850   29.2913   51.7350 H   0  0  0  0  0  0  0  0  0  0  0  0
   33.4814   28.4680   48.8191 H   0  0  0  0  0  0  0  0  0  0  0  0
   32.1639   29.8956   46.2306 C   0  0  0  0  0  0  0  0  0  0  0  0
   32.4929   28.4882   46.6957 C   0  0  0  0  0  0  0  0  0  0  0  0
   31.6797   27.6704   45.6905 C   0  0  0  0  0  0  0  0  0  0  0  0
   31.9107   28.4111   44.3924 C   0  0  0  0  0  0  0  0  0  0  0  0
   32.3980   29.7855   44.7348 C   0  0  0  0  0  0  0  0  0  0  0  0
   31.1176   30.1701   46.4318 H   0  0  0  0  0  0  0  0  0  0  0  0
   32.1824   28.2792   47.7310 H   0  0  0  0  0  0  0  0  0  0  0  0
   33.5522   28.2984   46.4756 H   0  0  0  0  0  0  0  0  0  0  0  0
   30.6122   27.8101   45.9886 H   0  0  0  0  0  0  0  0  0  0  0  0
   31.9578   26.6150   45.6690 H   0  0  0  0  0  0  0  0  0  0  0  0
   30.9915   28.4784   43.7871 H   0  0  0  0  0  0  0  0  0  0  0  0
   32.6711   27.8338   43.7925 H   0  0  0  0  0  0  0  0  0  0  0  0
   31.8730   30.5870   44.1772 H   0  0  0  0  0  0  0  0  0  0  0  0
   33.4954   29.8048   44.5807 H   0  0  0  0  0  0  0  0  0  0  0  0
  1  2  2  0
  2  7  1  0
  2  3  1  0
  4  3  2  0
  5  4  1  0
  6  1  1  0
  6  5  2  0
  8  1  1  0
  9 10  2  0
 10 11  1  1
 10  8  1  0
 12 10  1  0
  3 13  1  0
  5 14  1  0
  7 15  1  0
  7 16  1  0
 11 17  1  0
 18 19  1  0
 19 20  1  0
 20 21  1  0
 21 22  1  0
 22 18  1  0
 18 23  1  0
 19 24  1  0
 19 25  1  0
 20 26  1  0
 20 27  1  0
 21 28  1  0
 21 29  1  0
 22 30  1  0
 22 31  1  0
 12 18  1  0
M  ISO  3  13  14  14  14  17   3
M  END
>  <DihAtoms>  (1) 
9,11,17,18

>  <DihDeg>  (1) 
-128.18969751829874

$$$$
