
     RDKit          3D

 38 40  0  0  0  0  0  0  0  0999 V2000
   36.9839   31.5661   48.6618 C   0  0  1  0  0  0  0  0  0  0  0  0
   36.2183   30.9167   47.6236 C   0  0  0  0  0  0  0  0  0  0  0  0
   37.1757   30.1244   48.4457 C   0  0  2  0  0  0  0  0  0  0  0  0
   38.1426   32.4612   48.3183 C   0  0  0  0  0  0  0  0  0  0  0  0
   38.5240   33.3835   49.3184 C   0  0  0  0  0  0  0  0  0  0  0  0
   39.5905   34.1832   48.9883 C   0  0  0  0  0  0  0  0  0  0  0  0
   40.1965   34.0548   47.7780 N   0  0  0  0  0  0  0  0  0  0  0  0
   39.8006   33.1578   46.8469 C   0  0  0  0  0  0  0  0  0  0  0  0
   38.7375   32.3418   47.1403 N   0  0  0  0  0  0  0  0  0  0  0  0
   40.4219   32.9919   45.6026 N   0  0  0  0  0  0  0  0  0  0  0  0
   36.6028   29.3046   49.4259 O   0  0  0  0  0  0  0  0  0  0  0  0
   34.6226   27.6800   49.7131 O   0  0  0  0  0  0  0  0  0  0  0  0
   35.0258   28.9410   49.0211 P   0  0  1  0  0  0  0  0  0  0  0  0
   33.9855   30.1362   49.7464 O   0  0  0  0  0  0  0  0  0  0  0  0
   34.8249   28.9637   47.3838 O   0  0  0  0  0  0  0  0  0  0  0  0
   36.5427   31.8229   49.6863 H   0  0  0  0  0  0  0  0  0  0  0  0
   35.1886   31.1771   47.7802 H   0  0  0  0  0  0  0  0  0  0  0  0
   36.5354   31.1369   46.5811 H   0  0  0  0  0  0  0  0  0  0  0  0
   37.8468   29.5783   47.7980 H   0  0  0  0  0  0  0  0  0  0  0  0
   38.0448   33.4875   50.2809 H   0  0  0  0  0  0  0  0  0  0  0  0
   39.9525   34.9184   49.6901 H   0  0  0  0  0  0  0  0  0  0  0  0
   40.5115   33.7118   44.8490 H   0  0  0  0  0  0  0  0  0  0  0  0
   40.9075   32.1612   45.1712 H   0  0  0  0  0  0  0  0  0  0  0  0
   34.3534   30.3839   50.6315 H   0  0  0  0  0  0  0  0  0  0  0  0
   34.8392   27.8295   46.6751 C   0  0  0  0  0  0  0  0  0  0  0  0
   35.7489   28.0392   45.4772 C   0  0  0  0  0  0  0  0  0  0  0  0
   35.5813   26.7028   44.7886 C   0  0  0  0  0  0  0  0  0  0  0  0
   34.1449   26.3319   45.0388 C   0  0  0  0  0  0  0  0  0  0  0  0
   33.5920   27.3668   46.0176 C   0  0  0  0  0  0  0  0  0  0  0  0
   35.2506   26.9924   47.2547 H   0  0  0  0  0  0  0  0  0  0  0  0
   36.7960   28.2296   45.7786 H   0  0  0  0  0  0  0  0  0  0  0  0
   35.3066   28.8643   44.8721 H   0  0  0  0  0  0  0  0  0  0  0  0
   35.8178   26.7772   43.7044 H   0  0  0  0  0  0  0  0  0  0  0  0
   36.2923   26.0130   45.3239 H   0  0  0  0  0  0  0  0  0  0  0  0
   34.0401   25.3152   45.4726 H   0  0  0  0  0  0  0  0  0  0  0  0
   33.6241   26.3604   44.0536 H   0  0  0  0  0  0  0  0  0  0  0  0
   32.8790   26.8598   46.6965 H   0  0  0  0  0  0  0  0  0  0  0  0
   33.0928   28.1297   45.4037 H   0  0  0  0  0  0  0  0  0  0  0  0
  2  3  1  0
  2  1  1  0
  3  1  1  0
  3 11  1  0
  4  1  1  0
  4  5  2  0
  6  5  1  0
  7  6  2  0
  8  9  2  0
  8  7  1  0
  9  4  1  0
 10  8  1  0
 13 11  1  6
 13 12  2  0
 13 14  1  0
 15 13  1  0
  1 16  1  1
  2 17  1  0
  2 18  1  0
  3 19  1  6
  5 20  1  0
  6 21  1  0
 10 22  1  0
 10 23  1  0
 14 24  1  0
 25 26  1  0
 26 27  1  0
 27 28  1  0
 28 29  1  0
 29 25  1  0
 25 30  1  0
 26 31  1  0
 26 32  1  0
 27 33  1  0
 27 34  1  0
 28 35  1  0
 28 36  1  0
 29 37  1  0
 29 38  1  0
 15 25  1  0
M  ISO  7  16  13  17  13  18  13  19  13  20  14  21  14  24   3
M  END
>  <DihAtoms>  (1) 
12,14,24,25

>  <DihDeg>  (1) 
-117.717990795972

$$$$
