
 OpenBabel03272510313D

 28 30  0  0  0  0  0  0  0  0999 V2000
   37.3340   31.0830   49.4590 C   0  0  0  0  0  0  0  0  0  0  0  0
   38.3510   32.0200   49.4640 C   0  0  0  0  0  0  0  0  0  0  0  0
   38.7580   32.4800   48.2070 C   0  0  0  0  0  0  0  0  0  0  0  0
   38.1520   31.9970   47.0840 N   0  0  0  0  0  0  0  0  0  0  0  0
   37.1640   31.0820   47.1250 C   0  0  0  0  0  0  0  0  0  0  0  0
   36.7420   30.6120   48.3440 N   0  0  0  0  0  0  0  0  0  0  0  0
   38.7880   32.3610   50.3950 H   0  0  0  0  0  0  0  0  0  0  0  0
   39.5510   33.2150   48.1550 H   0  0  0  0  0  0  0  0  0  0  0  0
   36.8570   30.5950   50.7990 C   0  0  0  0  0  0  0  0  0  0  0  0
   35.9940   29.4670   50.9470 C   0  0  0  0  0  0  0  0  0  0  0  0
   37.4790   29.2290   51.1720 C   0  0  0  0  0  0  0  0  0  0  0  0
   37.1180   31.3440   51.5890 H   0  0  0  0  0  0  0  0  0  0  0  0
   35.3430   29.4370   51.8670 H   0  0  0  0  0  0  0  0  0  0  0  0
   35.4770   29.0430   50.0850 H   0  0  0  0  0  0  0  0  0  0  0  0
   37.8060   29.0600   52.1960 H   0  0  0  0  0  0  0  0  0  0  0  0
   37.9640   28.6510   50.3830 H   0  0  0  0  0  0  0  0  0  0  0  0
   36.5060   30.5640   45.9340 C   0  0  0  0  0  0  0  0  0  0  0  0
   35.6090   31.1570   45.6240 H   0  0  0  0  0  0  0  0  0  0  0  0
   36.1670   29.5400   46.0580 H   0  0  0  0  0  0  0  0  0  0  0  0
   37.3880   31.4310   43.7600 C   0  0  0  0  0  0  0  0  0  0  0  0
   36.4890   32.2960   43.5960 O   0  0  0  0  0  0  0  0  0  0  0  0
   37.4980   30.5620   44.8720 N   0  0  0  0  0  0  0  0  0  0  0  0
   38.2960   29.8840   44.9750 H   0  0  0  0  0  0  0  0  0  0  0  0
   38.4510   31.2830   42.7040 C   0  0  0  0  0  3  0  0  0  0  0  0
   39.5920   32.2210   43.0690 C   0  0  0  0  0  2  0  0  0  0  0  0
   40.6220   31.3000   43.7210 C   0  0  0  0  0  2  0  0  0  0  0  0
   40.5140   30.0940   42.8000 C   0  0  0  0  0  2  0  0  0  0  0  0
   39.0330   29.8990   42.7020 C   0  0  0  0  0  2  0  0  0  0  0  0
  1  2  1  0  0  0  0
  1  9  1  0  0  0  0
  2  7  1  0  0  0  0
  3  2  2  0  0  0  0
  4  5  2  0  0  0  0
  4  3  1  0  0  0  0
  5  6  1  0  0  0  0
  6  1  2  0  0  0  0
  8  3  1  0  0  0  0
  9 10  1  0  0  0  0
  9 11  1  0  0  0  0
  9 12  1  0  0  0  0
 10 11  1  0  0  0  0
 10 13  1  0  0  0  0
 11 15  1  0  0  0  0
 14 10  1  0  0  0  0
 16 11  1  0  0  0  0
 17 19  1  0  0  0  0
 17  5  1  0  0  0  0
 18 17  1  0  0  0  0
 20 22  1  0  0  0  0
 21 20  2  0  0  0  0
 22 23  1  0  0  0  0
 22 17  1  0  0  0  0
 24 25  1  0  0  0  0
 24 20  1  0  0  0  0
 25 26  1  0  0  0  0
 27 26  1  0  0  0  0
 28 24  1  0  0  0  0
 28 27  1  0  0  0  0
M  END
>  <minimizedAffinity>
-4.99728632

>  <minimizedRMSD>
3.08786631

$$$$
