REMARK  Name = 
REMARK  4 active torsions:
REMARK  status: ('A' for Active; 'I' for Inactive)
REMARK    1  A    between atoms: C_1  and  C_16
REMARK    2  A    between atoms: C_4  and  C_8
REMARK    3  A    between atoms: C_18  and  C_20
REMARK    4  A    between atoms: C_20  and  C_29
REMARK                            x       y       z     vdW  Elec       q    Type
REMARK                         _______ _______ _______ _____ _____    ______ ____
ROOT
ATOM      1  C   UNL     1      37.679  31.296  48.199  0.00  0.00    +0.000 A 
ATOM      2  C   UNL     1      38.531  32.307  48.091  0.00  0.00    +0.000 A 
ATOM      3  C   UNL     1      38.926  32.712  46.867  0.00  0.00    +0.000 A 
ATOM      4  C   UNL     1      38.415  32.042  45.782  0.00  0.00    +0.000 A 
ATOM      5  S   UNL     1      37.334  30.794  46.577  0.00  0.00    +0.000 S 
ATOM      6  H   UNL     1      38.890  32.786  49.001  0.00  0.00    +0.000 HD
ATOM      7  H   UNL     1      39.610  33.516  46.622  0.00  0.00    +0.000 HD
ENDROOT
BRANCH   4  10
ATOM      8 CL   UNL     1      41.155  31.228  44.717  0.00  0.00    +0.000 Cl
ATOM      9  C   UNL     1      39.780  31.826  43.803  0.00  0.00    +0.000 A 
ATOM     10  C   UNL     1      38.587  32.169  44.355  0.00  0.00    +0.000 A 
ATOM     11  C   UNL     1      37.514  32.630  43.691  0.00  0.00    +0.000 A 
ATOM     12  C   UNL     1      37.600  32.784  42.297  0.00  0.00    +0.000 A 
ATOM     13  C   UNL     1      38.773  32.456  41.682  0.00  0.00    +0.000 A 
ATOM     14 CL   UNL     1      38.956  32.619  39.951  0.00  0.00    +0.000 Cl
ATOM     15  C   UNL     1      39.852  31.982  42.424  0.00  0.00    +0.000 A 
ATOM     16  H   UNL     1      36.556  32.905  44.142  0.00  0.00    +0.000 HD
ATOM     17  H   UNL     1      36.749  33.154  41.735  0.00  0.00    +0.000 HD
ATOM     18  H   UNL     1      40.784  31.726  41.907  0.00  0.00    +0.000 HD
ENDBRANCH   4  10
BRANCH   1  21
ATOM     19  C   UNL     1      37.154  29.922  51.679  0.00  0.00    +0.000 A 
ATOM     20  C   UNL     1      37.793  30.556  50.592  0.00  0.00    +0.000 A 
ATOM     21  C   UNL     1      37.081  30.646  49.386  0.00  0.00    +0.000 A 
ATOM     22  N   UNL     1      35.852  30.135  49.326  0.00  0.00    +0.000 NA
ATOM     23  C   UNL     1      35.260  29.538  50.365  0.00  0.00    +0.000 A 
ATOM     24  N   UNL     1      35.909  29.434  51.528  0.00  0.00    +0.000 NA
ATOM     25  H   UNL     1      37.711  29.857  52.606  0.00  0.00    +0.000 HD
ATOM     26  H   UNL     1      38.788  30.965  50.654  0.00  0.00    +0.000 HD
BRANCH  23  27
ATOM     27  C   UNL     1      33.918  29.015  50.193  0.00  0.00    +0.000 C 
ATOM     28  O   UNL     1      33.671  28.291  49.202  0.00  0.00    +0.000 OA
BRANCH  27  29
ATOM     29  C   UNL     1      32.797  29.284  51.124  0.00  0.00    +0.000 C 
ATOM     30  C   UNL     1      33.308  30.171  52.240  0.00  0.00    +0.000 C 
ATOM     31  C   UNL     1      33.319  31.568  51.653  0.00  0.00    +0.000 C 
ATOM     32  C   UNL     1      32.562  31.477  50.326  0.00  0.00    +0.000 C 
ATOM     33  C   UNL     1      31.760  30.203  50.493  0.00  0.00    +0.000 C 
ENDBRANCH  27  29
ENDBRANCH  23  27
ENDBRANCH   1  21
TORSDOF 4
