
 OpenBabel03262521063D

 38 40  0  0  1  0  0  0  0  0999 V2000
   36.8910   31.0440   48.7070 C   0  0  2  0  0  0  0  0  0  0  0  0
   37.9710   30.6190   49.6240 C   0  0  0  0  0  0  0  0  0  0  0  0
   37.6010   29.3940   50.4300 C   0  0  0  0  0  0  0  0  0  0  0  0
   36.3210   29.5600   51.2060 C   0  0  0  0  0  0  0  0  0  0  0  0
   35.2720   30.3370   50.4670 C   0  0  0  0  0  0  0  0  0  0  0  0
   35.5670   30.4030   48.9750 C   0  0  2  0  0  0  0  0  0  0  0  0
   36.7010   32.1590   48.8060 H   0  0  0  0  0  0  0  0  0  0  0  0
   38.1190   31.4330   50.4140 H   0  0  0  0  0  0  0  0  0  0  0  0
   38.9570   30.4050   49.2680 H   0  0  0  0  0  0  0  0  0  0  0  0
   37.6140   28.5160   49.7610 H   0  0  0  0  0  0  0  0  0  0  0  0
   38.4190   29.2410   51.1740 H   0  0  0  0  0  0  0  0  0  0  0  0
   36.4880   29.9330   52.2370 H   0  0  0  0  0  0  0  0  0  0  0  0
   35.9100   28.5160   51.3380 H   0  0  0  0  0  0  0  0  0  0  0  0
   34.2790   29.9710   50.6940 H   0  0  0  0  0  0  0  0  0  0  0  0
   35.3130   31.3980   50.8350 H   0  0  0  0  0  0  0  0  0  0  0  0
   34.7780   31.0910   48.5530 H   0  0  0  0  0  0  0  0  0  0  0  0
   37.2110   30.8430   47.2850 C   0  0  0  0  0  0  0  0  0  0  0  0
   38.5880   30.7550   46.9860 C   0  0  0  0  0  0  0  0  0  0  0  0
   38.9160   30.5380   45.6500 C   0  0  0  0  0  0  0  0  0  0  0  0
   37.9270   30.4240   44.7200 N   0  0  0  0  0  0  0  0  0  0  0  0
   36.6140   30.5180   45.0580 C   0  0  0  0  0  0  0  0  0  0  0  0
   36.3020   30.7210   46.3110 N   0  0  0  0  0  0  0  0  0  0  0  0
   39.5360   30.8120   47.4850 H   0  0  0  0  0  0  0  0  0  0  0  0
   39.8710   30.4320   45.1590 H   0  0  0  0  0  0  0  0  0  0  0  0
   35.8210   30.4310   44.3360 H   0  0  0  0  0  0  0  0  0  0  0  0
   35.3080   29.1290   48.4530 N   0  0  0  0  0  0  0  0  0  0  0  0
   36.0650   28.6830   47.8810 H   0  0  0  0  0  0  0  0  0  0  0  0
   33.7810   28.9000   47.7450 S   0  0  0  0  0  0  0  0  0  0  0  0
   32.8420   28.4540   48.8520 O   0  0  0  0  0  0  0  0  0  0  0  0
   32.5710   27.5050   48.9680 H   0  0  0  0  0  0  0  0  0  0  0  0
   33.2270   30.1440   47.1140 O   0  0  0  0  0  0  0  0  0  0  0  0
   33.6270   30.7100   46.4040 H   0  0  0  0  0  0  0  0  0  0  0  0
   33.7840   27.6680   46.6150 O   0  0  0  0  0  0  0  0  0  0  0  0
   32.9870   26.6860   47.1340 C   0  0  0  0  0  0  0  0  0  0  0  0
   31.8240   26.2760   46.2860 C   0  0  0  0  0  0  0  0  0  0  0  0
   31.5130   24.8710   46.8040 C   0  0  0  0  0  0  0  0  0  0  0  0
   32.8870   24.2700   46.9160 C   0  0  0  0  0  0  0  0  0  0  0  0
   33.7900   25.3940   47.3160 C   0  0  0  0  0  0  0  0  0  0  0  0
  1  7  1  1  0  0  0
  1  6  1  0  0  0  0
  1  2  1  0  0  0  0
  2  8  1  0  0  0  0
  2  3  1  0  0  0  0
  3 11  1  0  0  0  0
  3  4  1  0  0  0  0
  4 13  1  0  0  0  0
  4 12  1  0  0  0  0
  5 14  1  0  0  0  0
  5 15  1  0  0  0  0
  5  4  1  0  0  0  0
  6 16  1  6  0  0  0
  6  5  1  0  0  0  0
  9  2  1  0  0  0  0
 10  3  1  0  0  0  0
 17  1  1  0  0  0  0
 18 17  1  0  0  0  0
 18 23  1  0  0  0  0
 19 18  2  0  0  0  0
 20 21  2  0  0  0  0
 20 19  1  0  0  0  0
 21 22  1  0  0  0  0
 22 17  2  0  0  0  0
 24 19  1  0  0  0  0
 25 21  1  0  0  0  0
 26  6  1  0  0  0  0
 27 26  1  0  0  0  0
 28 26  1  0  0  0  0
 28 29  1  0  0  0  0
 29 30  1  0  0  0  0
 31 28  1  0  0  0  0
 32 31  1  0  0  0  0
 33 34  1  0  0  0  0
 33 28  1  0  0  0  0
 34 38  1  0  0  0  0
 35 36  1  0  0  0  0
 35 34  1  0  0  0  0
 36 37  1  0  0  0  0
 37 38  1  0  0  0  0
M  END
>  <minimizedAffinity>
-5.1887641

>  <minimizedRMSD>
6.10226917

$$$$
