
 OpenBabel03262522033D

 35 38  0  0  1  0  0  0  0  0999 V2000
   34.5170   29.0070   48.8720 C   0  0  2  0  0  0  0  0  0  0  0  0
   35.2050   28.3090   49.9980 C   0  0  0  0  0  0  0  0  0  0  0  0
   36.3550   29.1020   50.4080 N   0  0  0  0  0  0  0  0  0  0  0  0
   37.3200   29.8580   51.1570 C   0  0  0  0  0  0  0  0  0  0  0  0
   37.5780   30.0750   52.3590 O   0  0  0  0  0  0  0  0  0  0  0  0
   37.9980   30.3650   49.9660 C   0  0  1  0  0  0  0  0  0  0  0  0
   37.1710   29.3370   49.2420 C   0  0  2  0  0  0  0  0  0  0  0  0
   35.8770   30.0120   48.1520 S   0  0  0  0  0  0  0  0  0  0  0  0
   34.4940   28.2630   50.8580 H   0  0  0  0  0  0  0  0  0  0  0  0
   35.4860   27.2730   49.7410 H   0  0  0  0  0  0  0  0  0  0  0  0
   39.0690   30.1390   49.8000 H   0  0  0  0  0  0  0  0  0  0  0  0
   37.7020   28.4540   48.8450 H   0  0  0  0  0  0  0  0  0  0  0  0
   33.3160   29.8070   49.2420 C   0  0  0  0  0  0  0  0  0  0  0  0
   33.5430   30.9100   49.1400 H   0  0  0  0  0  0  0  0  0  0  0  0
   33.1830   29.6820   50.3560 H   0  0  0  0  0  0  0  0  0  0  0  0
   32.3880   29.5720   48.7250 H   0  0  0  0  0  0  0  0  0  0  0  0
   34.2020   27.9620   47.7930 C   0  0  0  0  0  0  0  0  0  0  0  0
   35.1290   27.5070   47.4470 H   0  0  0  0  0  0  0  0  0  0  0  0
   33.5600   27.2180   48.3100 H   0  0  0  0  0  0  0  0  0  0  0  0
   33.4000   28.4970   46.6510 C   0  0  0  0  0  0  0  0  0  0  0  0
   33.8270   29.9660   46.5060 C   0  0  0  0  0  0  0  0  0  0  0  0
   32.6120   30.6870   45.9550 C   0  0  0  0  0  0  0  0  0  0  0  0
   31.5630   29.6060   45.7570 C   0  0  0  0  0  0  0  0  0  0  0  0
   31.9400   28.6580   46.9000 C   0  0  0  0  0  0  0  0  0  0  0  0
   37.7380   31.7790   49.6360 C   0  0  0  0  0  0  0  0  0  0  0  0
   36.7210   32.2670   50.2090 O   0  0  0  0  0  0  0  0  0  0  0  0
   38.5710   32.5430   48.7420 C   0  0  0  0  0  0  0  0  0  0  0  0
   39.0840   33.7420   49.2160 C   0  0  0  0  0  0  0  0  0  0  0  0
   39.9040   34.4940   48.3290 C   0  0  0  0  0  0  0  0  0  0  0  0
   40.1300   33.9950   47.0880 N   0  0  0  0  0  0  0  0  0  0  0  0
   39.6180   32.8380   46.6730 C   0  0  0  0  0  0  0  0  0  0  0  0
   38.8380   32.1090   47.4990 N   0  0  0  0  0  0  0  0  0  0  0  0
   38.9300   34.1710   50.1850 H   0  0  0  0  0  0  0  0  0  0  0  0
   40.3300   35.4430   48.6550 H   0  0  0  0  0  0  0  0  0  0  0  0
   39.7800   32.4130   45.6900 H   0  0  0  0  0  0  0  0  0  0  0  0
  1 17  1  6  0  0  0
  1 13  1  0  0  0  0
  1  2  1  0  0  0  0
  2  3  1  0  0  0  0
  2  9  1  0  0  0  0
  3  4  1  0  0  0  0
  4  5  2  0  0  0  0
  6 11  1  6  0  0  0
  6  4  1  0  0  0  0
  7 12  1  6  0  0  0
  7  6  1  0  0  0  0
  7  3  1  0  0  0  0
  8  1  1  0  0  0  0
  8  7  1  0  0  0  0
 10  2  1  0  0  0  0
 13 15  1  0  0  0  0
 14 13  1  0  0  0  0
 16 13  1  0  0  0  0
 17 19  1  0  0  0  0
 18 17  1  0  0  0  0
 20 24  1  0  0  0  0
 20 17  1  0  0  0  0
 21 20  1  0  0  0  0
 22 21  1  0  0  0  0
 23 22  1  0  0  0  0
 23 24  1  0  0  0  0
 25  6  1  0  0  0  0
 25 26  2  0  0  0  0
 27 28  1  0  0  0  0
 27 25  1  0  0  0  0
 28 33  1  0  0  0  0
 29 34  1  0  0  0  0
 29 28  2  0  0  0  0
 30 29  1  0  0  0  0
 31 30  2  0  0  0  0
 31 32  1  0  0  0  0
 32 27  2  0  0  0  0
 35 31  1  0  0  0  0
M  END
>  <minimizedAffinity>
-5.19029522

>  <minimizedRMSD>
0.224597722

$$$$
