
 OpenBabel03272510113D

 24 26  0  0  0  0  0  0  0  0999 V2000
   37.0550   27.4540   34.1260 C   0  0  0  0  0  0  0  0  0  0  0  0
   37.6750   27.6760   35.3270 C   0  0  0  0  0  0  0  0  0  0  0  0
   38.4560   26.7470   35.9770 C   0  0  0  0  0  0  0  0  0  0  0  0
   38.6500   25.5140   35.4260 C   0  0  0  0  0  0  0  0  0  0  0  0
   38.0150   25.2910   34.1990 C   0  0  0  0  0  0  0  0  0  0  0  0
   37.2570   26.2320   33.5960 N   0  0  0  0  0  0  0  0  0  0  0  0
   37.5420   28.6460   35.7940 H   0  0  0  0  0  0  0  0  0  0  0  0
   38.9540   26.9050   36.9270 H   0  0  0  0  0  0  0  0  0  0  0  0
   38.0750   24.3600   33.6360 H   0  0  0  0  0  0  0  0  0  0  0  0
   35.3690   29.3280   34.0970 C   0  0  0  0  0  0  0  0  0  0  0  0
   36.2400   28.4450   33.4620 C   0  0  0  0  0  0  0  0  0  0  0  0
   36.3240   28.5320   32.0690 C   0  0  0  0  0  0  0  0  0  0  0  0
   35.5530   29.4710   31.4300 N   0  0  0  0  0  0  0  0  0  0  0  0
   34.7340   30.2950   32.0890 C   0  0  0  0  0  0  0  0  0  0  0  0
   34.6390   30.2270   33.4250 N   0  0  0  0  0  0  0  0  0  0  0  0
   35.3270   29.2370   35.1610 H   0  0  0  0  0  0  0  0  0  0  0  0
   36.9570   27.9110   31.4630 H   0  0  0  0  0  0  0  0  0  0  0  0
   34.1880   30.9820   31.4580 H   0  0  0  0  0  0  0  0  0  0  0  0
   39.3930   24.4490   35.9160 O   0  0  0  0  0  0  0  0  0  0  0  0
   38.8830   23.2630   36.4390 C   0  0  0  0  0  3  0  0  0  0  0  0
   37.5130   23.5020   37.0520 C   0  0  0  0  0  2  0  0  0  0  0  0
   37.6780   23.2100   38.5290 C   0  0  0  0  0  2  0  0  0  0  0  0
   39.1400   23.5600   38.7380 C   0  0  0  0  0  2  0  0  0  0  0  0
   39.7680   22.8070   37.5880 C   0  0  0  0  0  2  0  0  0  0  0  0
  1  2  1  0  0  0  0
  2  7  1  0  0  0  0
  2  3  2  0  0  0  0
  3  8  1  0  0  0  0
  4 19  1  0  0  0  0
  4  3  1  0  0  0  0
  5  4  2  0  0  0  0
  6  1  2  0  0  0  0
  6  5  1  0  0  0  0
  9  5  1  0  0  0  0
 10 16  1  0  0  0  0
 11 10  1  0  0  0  0
 11  1  1  0  0  0  0
 12 11  2  0  0  0  0
 13 12  1  0  0  0  0
 13 14  2  0  0  0  0
 14 15  1  0  0  0  0
 15 10  2  0  0  0  0
 17 12  1  0  0  0  0
 18 14  1  0  0  0  0
 19 20  1  0  0  0  0
 20 21  1  0  0  0  0
 20 24  1  0  0  0  0
 21 22  1  0  0  0  0
 22 23  1  0  0  0  0
 24 23  1  0  0  0  0
M  END
>  <minimizedAffinity>
-5.05680323

$$$$

 OpenBabel03272510113D

 24 26  0  0  0  0  0  0  0  0999 V2000
   36.8090   27.7460   33.6480 C   0  0  0  0  0  0  0  0  0  0  0  0
   37.3530   27.9800   34.8830 C   0  0  0  0  0  0  0  0  0  0  0  0
   38.0430   27.0390   35.6140 C   0  0  0  0  0  0  0  0  0  0  0  0
   38.2180   25.7810   35.1150 C   0  0  0  0  0  0  0  0  0  0  0  0
   37.6610   25.5470   33.8530 C   0  0  0  0  0  0  0  0  0  0  0  0
   36.9910   26.4990   33.1690 N   0  0  0  0  0  0  0  0  0  0  0  0
   37.2320   28.9690   35.3110 H   0  0  0  0  0  0  0  0  0  0  0  0
   38.4790   27.2060   36.5920 H   0  0  0  0  0  0  0  0  0  0  0  0
   37.7170   24.5960   33.3230 H   0  0  0  0  0  0  0  0  0  0  0  0
   36.3360   29.0960   31.5720 C   0  0  0  0  0  0  0  0  0  0  0  0
   36.0890   28.7490   32.8990 C   0  0  0  0  0  0  0  0  0  0  0  0
   35.0580   29.4340   33.5490 C   0  0  0  0  0  0  0  0  0  0  0  0
   34.3670   30.3890   32.8440 N   0  0  0  0  0  0  0  0  0  0  0  0
   34.6460   30.6820   31.5700 C   0  0  0  0  0  0  0  0  0  0  0  0
   35.6320   30.0360   30.9300 N   0  0  0  0  0  0  0  0  0  0  0  0
   37.1290   28.5540   31.1030 H   0  0  0  0  0  0  0  0  0  0  0  0
   34.7670   29.2610   34.5680 H   0  0  0  0  0  0  0  0  0  0  0  0
   34.0230   31.4530   31.1420 H   0  0  0  0  0  0  0  0  0  0  0  0
   38.8760   24.7020   35.6880 O   0  0  0  0  0  0  0  0  0  0  0  0
   38.2820   23.6650   36.4040 C   0  0  0  0  0  3  0  0  0  0  0  0
   37.9470   24.1200   37.8140 C   0  0  0  0  0  2  0  0  0  0  0  0
   38.8020   23.2650   38.7260 C   0  0  0  0  0  2  0  0  0  0  0  0
   39.9950   22.9790   37.8310 C   0  0  0  0  0  2  0  0  0  0  0  0
   39.2900   22.5380   36.5690 C   0  0  0  0  0  2  0  0  0  0  0  0
  1  2  1  0  0  0  0
  2  7  1  0  0  0  0
  2  3  2  0  0  0  0
  3  8  1  0  0  0  0
  4  3  1  0  0  0  0
  4 19  1  0  0  0  0
  5  4  2  0  0  0  0
  6  1  2  0  0  0  0
  6  5  1  0  0  0  0
  9  5  1  0  0  0  0
 10 11  1  0  0  0  0
 11 12  2  0  0  0  0
 11  1  1  0  0  0  0
 12 17  1  0  0  0  0
 13 12  1  0  0  0  0
 14 13  2  0  0  0  0
 15 14  1  0  0  0  0
 15 10  2  0  0  0  0
 16 10  1  0  0  0  0
 18 14  1  0  0  0  0
 19 20  1  0  0  0  0
 20 24  1  0  0  0  0
 20 21  1  0  0  0  0
 21 22  1  0  0  0  0
 23 22  1  0  0  0  0
 24 23  1  0  0  0  0
M  END
>  <minimizedAffinity>
-4.95288181

$$$$

 OpenBabel03272510113D

 24 26  0  0  0  0  0  0  0  0999 V2000
   38.1430   27.3810   32.6300 C   0  0  0  0  0  0  0  0  0  0  0  0
   39.3540   27.1460   33.2230 C   0  0  0  0  0  0  0  0  0  0  0  0
   39.5080   26.6490   34.4980 C   0  0  0  0  0  0  0  0  0  0  0  0
   38.4090   26.3590   35.2540 C   0  0  0  0  0  0  0  0  0  0  0  0
   37.1730   26.6000   34.6440 C   0  0  0  0  0  0  0  0  0  0  0  0
   37.0680   27.0880   33.3900 N   0  0  0  0  0  0  0  0  0  0  0  0
   40.2490   27.3660   32.6510 H   0  0  0  0  0  0  0  0  0  0  0  0
   40.4580   26.4580   34.9830 H   0  0  0  0  0  0  0  0  0  0  0  0
   36.2080   26.4190   35.1170 H   0  0  0  0  0  0  0  0  0  0  0  0
   37.0330   28.8100   30.8740 C   0  0  0  0  0  0  0  0  0  0  0  0
   38.0060   27.9030   31.2910 C   0  0  0  0  0  0  0  0  0  0  0  0
   38.9180   27.4690   30.3240 C   0  0  0  0  0  0  0  0  0  0  0  0
   38.7960   27.9600   29.0480 N   0  0  0  0  0  0  0  0  0  0  0  0
   37.8430   28.8300   28.7040 C   0  0  0  0  0  0  0  0  0  0  0  0
   36.9580   29.2580   29.6150 N   0  0  0  0  0  0  0  0  0  0  0  0
   36.3500   29.1230   31.6360 H   0  0  0  0  0  0  0  0  0  0  0  0
   39.7140   26.7730   30.5150 H   0  0  0  0  0  0  0  0  0  0  0  0
   37.8660   29.1320   27.6660 H   0  0  0  0  0  0  0  0  0  0  0  0
   38.3500   25.8560   36.5460 O   0  0  0  0  0  0  0  0  0  0  0  0
   37.7500   24.6600   36.9350 C   0  0  0  0  0  3  0  0  0  0  0  0
   37.9690   24.4170   38.4190 C   0  0  0  0  0  2  0  0  0  0  0  0
   38.8080   23.1580   38.5000 C   0  0  0  0  0  2  0  0  0  0  0  0
   39.5740   23.2290   37.1910 C   0  0  0  0  0  2  0  0  0  0  0  0
   38.4430   23.5060   36.2270 C   0  0  0  0  0  2  0  0  0  0  0  0
  1  2  2  0  0  0  0
  1  6  1  0  0  0  0
  2  3  1  0  0  0  0
  3  8  1  0  0  0  0
  3  4  2  0  0  0  0
  4 19  1  0  0  0  0
  5  9  1  0  0  0  0
  5  4  1  0  0  0  0
  6  5  2  0  0  0  0
  7  2  1  0  0  0  0
 10 11  1  0  0  0  0
 10 16  1  0  0  0  0
 11  1  1  0  0  0  0
 12 17  1  0  0  0  0
 12 11  2  0  0  0  0
 13 12  1  0  0  0  0
 14 13  2  0  0  0  0
 14 15  1  0  0  0  0
 15 10  2  0  0  0  0
 18 14  1  0  0  0  0
 19 20  1  0  0  0  0
 20 21  1  0  0  0  0
 21 22  1  0  0  0  0
 23 22  1  0  0  0  0
 24 20  1  0  0  0  0
 24 23  1  0  0  0  0
M  END
>  <minimizedAffinity>
-4.83364534

$$$$

 OpenBabel03272510113D

 24 26  0  0  0  0  0  0  0  0999 V2000
   36.2980   26.4570   31.3780 C   0  0  0  0  0  0  0  0  0  0  0  0
   35.2390   25.7160   30.9280 C   0  0  0  0  0  0  0  0  0  0  0  0
   35.1290   24.3510   31.0790 C   0  0  0  0  0  0  0  0  0  0  0  0
   36.1180   23.6540   31.7110 C   0  0  0  0  0  0  0  0  0  0  0  0
   37.1990   24.4150   32.1690 C   0  0  0  0  0  0  0  0  0  0  0  0
   37.2660   25.7530   32.0000 N   0  0  0  0  0  0  0  0  0  0  0  0
   34.4340   26.2380   30.4210 H   0  0  0  0  0  0  0  0  0  0  0  0
   34.2990   23.7490   30.7300 H   0  0  0  0  0  0  0  0  0  0  0  0
   38.0620   24.0040   32.6910 H   0  0  0  0  0  0  0  0  0  0  0  0
   36.0620   28.8370   32.1740 C   0  0  0  0  0  0  0  0  0  0  0  0
   36.3910   27.8880   31.2080 C   0  0  0  0  0  0  0  0  0  0  0  0
   36.8480   28.3710   29.9780 C   0  0  0  0  0  0  0  0  0  0  0  0
   36.9400   29.7300   29.8080 N   0  0  0  0  0  0  0  0  0  0  0  0
   36.6110   30.5970   30.7700 C   0  0  0  0  0  0  0  0  0  0  0  0
   36.1700   30.1540   31.9570 N   0  0  0  0  0  0  0  0  0  0  0  0
   35.7160   28.4370   33.1030 H   0  0  0  0  0  0  0  0  0  0  0  0
   37.1340   27.7460   29.1540 H   0  0  0  0  0  0  0  0  0  0  0  0
   36.7330   31.6360   30.4970 H   0  0  0  0  0  0  0  0  0  0  0  0
   36.1970   22.2910   31.9620 O   0  0  0  0  0  0  0  0  0  0  0  0
   35.5760   21.2840   31.2270 C   0  0  0  0  0  3  0  0  0  0  0  0
   34.5950   20.5200   32.1010 C   0  0  0  0  0  2  0  0  0  0  0  0
   35.1380   19.1070   32.1740 C   0  0  0  0  0  2  0  0  0  0  0  0
   36.6270   19.3540   32.0100 C   0  0  0  0  0  2  0  0  0  0  0  0
   36.6220   20.2640   30.8030 C   0  0  0  0  0  2  0  0  0  0  0  0
  1  6  1  0  0  0  0
  2  3  1  0  0  0  0
  2  1  2  0  0  0  0
  3  4  2  0  0  0  0
  4 19  1  0  0  0  0
  4  5  1  0  0  0  0
  5  9  1  0  0  0  0
  6  5  2  0  0  0  0
  7  2  1  0  0  0  0
  8  3  1  0  0  0  0
 10 16  1  0  0  0  0
 11  1  1  0  0  0  0
 11 10  2  0  0  0  0
 12 11  1  0  0  0  0
 13 12  2  0  0  0  0
 13 14  1  0  0  0  0
 14 15  2  0  0  0  0
 15 10  1  0  0  0  0
 17 12  1  0  0  0  0
 18 14  1  0  0  0  0
 20 19  1  0  0  0  0
 20 21  1  0  0  0  0
 21 22  1  0  0  0  0
 23 22  1  0  0  0  0
 24 20  1  0  0  0  0
 24 23  1  0  0  0  0
M  END
>  <minimizedAffinity>
-4.75745392

$$$$

 OpenBabel03272510113D

 24 26  0  0  0  0  0  0  0  0999 V2000
   38.5120   25.4540   35.4820 C   0  0  0  0  0  0  0  0  0  0  0  0
   38.4530   26.7100   36.0210 C   0  0  0  0  0  0  0  0  0  0  0  0
   37.7800   27.7670   35.4500 C   0  0  0  0  0  0  0  0  0  0  0  0
   37.1160   27.5950   34.2700 C   0  0  0  0  0  0  0  0  0  0  0  0
   37.1780   26.3080   33.7220 C   0  0  0  0  0  0  0  0  0  0  0  0
   37.8510   25.3000   34.3170 N   0  0  0  0  0  0  0  0  0  0  0  0
   38.9700   26.8840   36.9590 H   0  0  0  0  0  0  0  0  0  0  0  0
   37.7230   28.7680   35.8620 H   0  0  0  0  0  0  0  0  0  0  0  0
   36.7000   26.0150   32.7880 H   0  0  0  0  0  0  0  0  0  0  0  0
   40.3900   23.7770   35.6060 C   0  0  0  0  0  0  0  0  0  0  0  0
   39.2240   24.3600   36.0990 C   0  0  0  0  0  0  0  0  0  0  0  0
   38.7120   23.8360   37.2900 C   0  0  0  0  0  0  0  0  0  0  0  0
   39.3830   22.7970   37.8850 N   0  0  0  0  0  0  0  0  0  0  0  0
   40.4990   22.2750   37.3670 C   0  0  0  0  0  0  0  0  0  0  0  0
   41.0070   22.7630   36.2260 N   0  0  0  0  0  0  0  0  0  0  0  0
   40.7570   24.1990   34.6950 H   0  0  0  0  0  0  0  0  0  0  0  0
   37.8230   24.1960   37.7740 H   0  0  0  0  0  0  0  0  0  0  0  0
   40.9200   21.4620   37.9410 H   0  0  0  0  0  0  0  0  0  0  0  0
   36.3860   28.5210   33.5390 O   0  0  0  0  0  0  0  0  0  0  0  0
   35.2010   29.1350   33.9410 C   0  0  0  0  0  3  0  0  0  0  0  0
   34.3230   29.4290   32.7370 C   0  0  0  0  0  2  0  0  0  0  0  0
   34.2130   30.9390   32.6790 C   0  0  0  0  0  2  0  0  0  0  0  0
   35.5310   31.3550   33.3070 C   0  0  0  0  0  2  0  0  0  0  0  0
   35.5280   30.4910   34.5470 C   0  0  0  0  0  2  0  0  0  0  0  0
  1  2  1  0  0  0  0
  1 11  1  0  0  0  0
  2  7  1  0  0  0  0
  3  8  1  0  0  0  0
  3  2  2  0  0  0  0
  4  3  1  0  0  0  0
  5  4  2  0  0  0  0
  5  6  1  0  0  0  0
  6  1  2  0  0  0  0
  9  5  1  0  0  0  0
 10 11  2  0  0  0  0
 10 15  1  0  0  0  0
 11 12  1  0  0  0  0
 12 17  1  0  0  0  0
 12 13  2  0  0  0  0
 14 13  1  0  0  0  0
 14 18  1  0  0  0  0
 15 14  2  0  0  0  0
 16 10  1  0  0  0  0
 19 20  1  0  0  0  0
 19  4  1  0  0  0  0
 20 24  1  0  0  0  0
 21 20  1  0  0  0  0
 22 21  1  0  0  0  0
 22 23  1  0  0  0  0
 23 24  1  0  0  0  0
M  END
>  <minimizedAffinity>
-4.69556952

$$$$

 OpenBabel03272510113D

 24 26  0  0  0  0  0  0  0  0999 V2000
   38.6020   25.3070   35.4640 C   0  0  0  0  0  0  0  0  0  0  0  0
   38.5840   26.5430   36.0520 C   0  0  0  0  0  0  0  0  0  0  0  0
   37.8950   27.6260   35.5550 C   0  0  0  0  0  0  0  0  0  0  0  0
   37.1710   27.5040   34.4050 C   0  0  0  0  0  0  0  0  0  0  0  0
   37.1910   26.2390   33.8060 C   0  0  0  0  0  0  0  0  0  0  0  0
   37.8820   25.2030   34.3290 N   0  0  0  0  0  0  0  0  0  0  0  0
   39.1500   26.6760   36.9680 H   0  0  0  0  0  0  0  0  0  0  0  0
   37.8690   28.6110   36.0070 H   0  0  0  0  0  0  0  0  0  0  0  0
   36.6640   25.9850   32.8870 H   0  0  0  0  0  0  0  0  0  0  0  0
   40.3910   23.5330   35.3730 C   0  0  0  0  0  0  0  0  0  0  0  0
   39.3330   24.1840   36.0040 C   0  0  0  0  0  0  0  0  0  0  0  0
   38.9560   23.7040   37.2620 C   0  0  0  0  0  0  0  0  0  0  0  0
   39.6460   22.6380   37.7830 N   0  0  0  0  0  0  0  0  0  0  0  0
   40.6550   22.0500   37.1340 C   0  0  0  0  0  0  0  0  0  0  0  0
   41.0320   22.4960   35.9260 N   0  0  0  0  0  0  0  0  0  0  0  0
   40.6560   23.9230   34.4130 H   0  0  0  0  0  0  0  0  0  0  0  0
   38.1590   24.1170   37.8510 H   0  0  0  0  0  0  0  0  0  0  0  0
   41.1060   21.2230   37.6630 H   0  0  0  0  0  0  0  0  0  0  0  0
   36.4150   28.4640   33.7460 O   0  0  0  0  0  0  0  0  0  0  0  0
   35.9270   28.3740   32.4450 C   0  0  0  0  0  3  0  0  0  0  0  0
   36.9400   28.9350   31.4610 C   0  0  0  0  0  2  0  0  0  0  0  0
   36.2680   30.1400   30.8360 C   0  0  0  0  0  2  0  0  0  0  0  0
   35.3470   30.5800   31.9590 C   0  0  0  0  0  2  0  0  0  0  0  0
   34.6990   29.2620   32.3140 C   0  0  0  0  0  2  0  0  0  0  0  0
  1 11  1  0  0  0  0
  1  2  1  0  0  0  0
  2  7  1  0  0  0  0
  3  8  1  0  0  0  0
  3  2  2  0  0  0  0
  4  3  1  0  0  0  0
  5  6  1  0  0  0  0
  5  4  2  0  0  0  0
  6  1  2  0  0  0  0
  9  5  1  0  0  0  0
 10 15  2  0  0  0  0
 10 11  1  0  0  0  0
 11 12  2  0  0  0  0
 12 13  1  0  0  0  0
 12 17  1  0  0  0  0
 14 18  1  0  0  0  0
 14 13  2  0  0  0  0
 15 14  1  0  0  0  0
 16 10  1  0  0  0  0
 19  4  1  0  0  0  0
 20 19  1  0  0  0  0
 21 20  1  0  0  0  0
 22 21  1  0  0  0  0
 22 23  1  0  0  0  0
 23 24  1  0  0  0  0
 24 20  1  0  0  0  0
M  END
>  <minimizedAffinity>
-4.64282942

$$$$

 OpenBabel03272510113D

 24 26  0  0  0  0  0  0  0  0999 V2000
   36.4010   26.6820   30.9660 C   0  0  0  0  0  0  0  0  0  0  0  0
   37.3720   25.8460   31.4500 C   0  0  0  0  0  0  0  0  0  0  0  0
   37.1670   24.5200   31.7580 C   0  0  0  0  0  0  0  0  0  0  0  0
   35.9330   23.9630   31.5860 C   0  0  0  0  0  0  0  0  0  0  0  0
   34.9440   24.8200   31.0910 C   0  0  0  0  0  0  0  0  0  0  0  0
   35.1890   26.1160   30.8020 N   0  0  0  0  0  0  0  0  0  0  0  0
   38.3650   26.2560   31.6000 H   0  0  0  0  0  0  0  0  0  0  0  0
   37.9220   23.8440   32.1420 H   0  0  0  0  0  0  0  0  0  0  0  0
   33.9130   24.5240   30.9010 H   0  0  0  0  0  0  0  0  0  0  0  0
   37.1810   28.5440   29.4560 C   0  0  0  0  0  0  0  0  0  0  0  0
   36.6400   28.0710   30.6500 C   0  0  0  0  0  0  0  0  0  0  0  0
   36.3040   29.0270   31.6130 C   0  0  0  0  0  0  0  0  0  0  0  0
   36.5270   30.3500   31.3200 N   0  0  0  0  0  0  0  0  0  0  0  0
   37.0490   30.7480   30.1570 C   0  0  0  0  0  0  0  0  0  0  0  0
   37.3780   29.8470   29.2200 N   0  0  0  0  0  0  0  0  0  0  0  0
   37.4270   27.7890   28.7400 H   0  0  0  0  0  0  0  0  0  0  0  0
   35.8800   28.7940   32.5720 H   0  0  0  0  0  0  0  0  0  0  0  0
   37.1690   31.8180   30.0640 H   0  0  0  0  0  0  0  0  0  0  0  0
   35.5240   22.6600   31.8340 O   0  0  0  0  0  0  0  0  0  0  0  0
   36.3540   21.5460   31.9420 C   0  0  0  0  0  3  0  0  0  0  0  0
   35.6150   20.2920   31.5030 C   0  0  0  0  0  2  0  0  0  0  0  0
   35.5310   19.4220   32.7400 C   0  0  0  0  0  2  0  0  0  0  0  0
   35.5260   20.4690   33.8390 C   0  0  0  0  0  2  0  0  0  0  0  0
   36.6960   21.3230   33.4070 C   0  0  0  0  0  2  0  0  0  0  0  0
  1  2  1  0  0  0  0
  2  7  1  0  0  0  0
  2  3  2  0  0  0  0
  3  8  1  0  0  0  0
  4  3  1  0  0  0  0
  4 19  1  0  0  0  0
  5  4  2  0  0  0  0
  6  1  2  0  0  0  0
  6  5  1  0  0  0  0
  9  5  1  0  0  0  0
 10 11  1  0  0  0  0
 11  1  1  0  0  0  0
 11 12  2  0  0  0  0
 12 17  1  0  0  0  0
 13 12  1  0  0  0  0
 14 13  2  0  0  0  0
 15 10  2  0  0  0  0
 15 14  1  0  0  0  0
 16 10  1  0  0  0  0
 18 14  1  0  0  0  0
 19 20  1  0  0  0  0
 20 24  1  0  0  0  0
 21 20  1  0  0  0  0
 21 22  1  0  0  0  0
 22 23  1  0  0  0  0
 24 23  1  0  0  0  0
M  END
>  <minimizedAffinity>
-4.59914875

$$$$

 OpenBabel03272510113D

 24 26  0  0  0  0  0  0  0  0999 V2000
   36.5570   27.3110   32.7090 C   0  0  0  0  0  0  0  0  0  0  0  0
   36.9200   27.4950   34.0160 C   0  0  0  0  0  0  0  0  0  0  0  0
   36.5120   28.5580   34.7900 C   0  0  0  0  0  0  0  0  0  0  0  0
   35.6940   29.5140   34.2590 C   0  0  0  0  0  0  0  0  0  0  0  0
   35.3260   29.3220   32.9220 C   0  0  0  0  0  0  0  0  0  0  0  0
   35.7490   28.2630   32.2000 N   0  0  0  0  0  0  0  0  0  0  0  0
   37.5700   26.7540   34.4700 H   0  0  0  0  0  0  0  0  0  0  0  0
   36.7890   28.7200   35.8250 H   0  0  0  0  0  0  0  0  0  0  0  0
   34.6800   29.9960   32.3610 H   0  0  0  0  0  0  0  0  0  0  0  0
   38.2660   26.0430   31.3580 C   0  0  0  0  0  0  0  0  0  0  0  0
   36.9970   26.1870   31.9160 C   0  0  0  0  0  0  0  0  0  0  0  0
   36.0850   25.1540   31.6840 C   0  0  0  0  0  0  0  0  0  0  0  0
   36.4950   24.0810   30.9320 N   0  0  0  0  0  0  0  0  0  0  0  0
   37.7260   23.9940   30.4200 C   0  0  0  0  0  0  0  0  0  0  0  0
   38.6160   24.9740   30.6310 N   0  0  0  0  0  0  0  0  0  0  0  0
   38.9410   26.8480   31.5530 H   0  0  0  0  0  0  0  0  0  0  0  0
   35.0780   25.1430   32.0580 H   0  0  0  0  0  0  0  0  0  0  0  0
   37.9100   23.0940   29.8500 H   0  0  0  0  0  0  0  0  0  0  0  0
   35.1770   30.6500   34.8650 O   0  0  0  0  0  0  0  0  0  0  0  0
   35.7460   31.3450   35.9290 C   0  0  0  0  0  3  0  0  0  0  0  0
   34.6640   31.8550   36.8670 C   0  0  0  0  0  2  0  0  0  0  0  0
   34.7560   33.3650   36.8020 C   0  0  0  0  0  2  0  0  0  0  0  0
   35.2900   33.5690   35.3960 C   0  0  0  0  0  2  0  0  0  0  0  0
   36.4390   32.5880   35.3950 C   0  0  0  0  0  2  0  0  0  0  0  0
  1  2  1  0  0  0  0
  2  7  1  0  0  0  0
  2  3  2  0  0  0  0
  3  8  1  0  0  0  0
  4  3  1  0  0  0  0
  4 19  1  0  0  0  0
  5  4  2  0  0  0  0
  6  1  2  0  0  0  0
  6  5  1  0  0  0  0
  9  5  1  0  0  0  0
 10 16  1  0  0  0  0
 10 11  1  0  0  0  0
 11  1  1  0  0  0  0
 12 11  2  0  0  0  0
 12 17  1  0  0  0  0
 13 12  1  0  0  0  0
 14 15  1  0  0  0  0
 14 13  2  0  0  0  0
 15 10  2  0  0  0  0
 18 14  1  0  0  0  0
 19 20  1  0  0  0  0
 20 21  1  0  0  0  0
 22 21  1  0  0  0  0
 23 22  1  0  0  0  0
 24 23  1  0  0  0  0
 24 20  1  0  0  0  0
M  END
>  <minimizedAffinity>
-4.5112009

$$$$

 OpenBabel03272510113D

 24 26  0  0  0  0  0  0  0  0999 V2000
   35.7030   29.4020   33.9220 C   0  0  0  0  0  0  0  0  0  0  0  0
   35.4070   29.1280   32.6140 C   0  0  0  0  0  0  0  0  0  0  0  0
   35.8170   27.9950   31.9480 C   0  0  0  0  0  0  0  0  0  0  0  0
   36.5690   27.0580   32.5970 C   0  0  0  0  0  0  0  0  0  0  0  0
   36.8690   27.3410   33.9340 C   0  0  0  0  0  0  0  0  0  0  0  0
   36.4460   28.4670   34.5480 N   0  0  0  0  0  0  0  0  0  0  0  0
   34.8110   29.8520   32.0670 H   0  0  0  0  0  0  0  0  0  0  0  0
   35.5930   27.7620   30.9140 H   0  0  0  0  0  0  0  0  0  0  0  0
   37.4580   26.6930   34.5820 H   0  0  0  0  0  0  0  0  0  0  0  0
   34.1610   31.3720   34.2340 C   0  0  0  0  0  0  0  0  0  0  0  0
   35.2620   30.5980   34.5990 C   0  0  0  0  0  0  0  0  0  0  0  0
   35.9910   31.0250   35.7140 C   0  0  0  0  0  0  0  0  0  0  0  0
   35.5780   32.1610   36.3640 N   0  0  0  0  0  0  0  0  0  0  0  0
   34.5130   32.8660   35.9700 C   0  0  0  0  0  0  0  0  0  0  0  0
   33.8010   32.4730   34.9040 N   0  0  0  0  0  0  0  0  0  0  0  0
   33.6240   31.0200   33.3790 H   0  0  0  0  0  0  0  0  0  0  0  0
   36.8570   30.5190   36.0970 H   0  0  0  0  0  0  0  0  0  0  0  0
   34.3040   33.7370   36.5750 H   0  0  0  0  0  0  0  0  0  0  0  0
   37.0760   25.8610   32.1110 O   0  0  0  0  0  0  0  0  0  0  0  0
   36.5830   25.1410   31.0250 C   0  0  0  0  0  3  0  0  0  0  0  0
   35.3600   24.3370   31.4350 C   0  0  0  0  0  2  0  0  0  0  0  0
   35.7590   22.8860   31.2650 C   0  0  0  0  0  2  0  0  0  0  0  0
   37.2560   22.9600   31.5050 C   0  0  0  0  0  2  0  0  0  0  0  0
   37.6210   24.1140   30.6000 C   0  0  0  0  0  2  0  0  0  0  0  0
  1  6  1  0  0  0  0
  1 11  1  0  0  0  0
  2  1  2  0  0  0  0
  3  4  2  0  0  0  0
  3  2  1  0  0  0  0
  4  5  1  0  0  0  0
  5  6  2  0  0  0  0
  5  9  1  0  0  0  0
  7  2  1  0  0  0  0
  8  3  1  0  0  0  0
 10 11  2  0  0  0  0
 10 15  1  0  0  0  0
 11 12  1  0  0  0  0
 12 17  1  0  0  0  0
 12 13  2  0  0  0  0
 14 13  1  0  0  0  0
 14 18  1  0  0  0  0
 15 14  2  0  0  0  0
 16 10  1  0  0  0  0
 19  4  1  0  0  0  0
 20 21  1  0  0  0  0
 20 19  1  0  0  0  0
 22 21  1  0  0  0  0
 22 23  1  0  0  0  0
 24 20  1  0  0  0  0
 24 23  1  0  0  0  0
M  END
>  <minimizedAffinity>
-4.45527506

$$$$
