REMARK  Name = 
REMARK  3 active torsions:
REMARK  status: ('A' for Active; 'I' for Inactive)
REMARK    1  A    between atoms: C_1  and  C_7
REMARK    2  A    between atoms: C_8  and  O_10
REMARK    3  A    between atoms: O_10  and  C_18
REMARK                            x       y       z     vdW  Elec       q    Type
REMARK                         _______ _______ _______ _____ _____    ______ ____
ROOT
ATOM      1  C   UNL     1      36.639  31.038  50.498  0.00  0.00    +0.000 C 
ATOM      2  C   UNL     1      36.144  29.687  50.665  0.00  0.00    +0.000 C 
ATOM      3  C   UNL     1      37.349  30.102  51.483  0.00  0.00    +0.000 C 
ATOM      4  H   UNL     1      36.203  31.925  51.031  0.00  0.00    +0.000 HD
ATOM      5  H   UNL     1      35.192  29.522  51.186  0.00  0.00    +0.000 HD
ATOM      6  H   UNL     1      37.139  30.235  52.560  0.00  0.00    +0.000 HD
ATOM      7  H   UNL     1      38.336  29.723  51.236  0.00  0.00    +0.000 HD
ENDROOT
BRANCH   1   8
ATOM      8  C   UNL     1      37.522  31.399  49.326  0.00  0.00    +0.000 A 
ATOM      9  C   UNL     1      38.146  32.645  49.407  0.00  0.00    +0.000 A 
ATOM     10  C   UNL     1      38.942  32.987  48.304  0.00  0.00    +0.000 A 
ATOM     11  N   UNL     1      39.070  32.122  47.238  0.00  0.00    +0.000 NA
ATOM     12  C   UNL     1      38.430  30.915  47.225  0.00  0.00    +0.000 A 
ATOM     13  N   UNL     1      37.649  30.548  48.277  0.00  0.00    +0.000 NA
ATOM     14  H   UNL     1      38.019  33.292  50.261  0.00  0.00    +0.000 HD
ATOM     15  H   UNL     1      39.451  33.935  48.304  0.00  0.00    +0.000 HD
ATOM     16  H   UNL     1      38.578  30.296  46.361  0.00  0.00    +0.000 HD
ENDBRANCH   1   8
BRANCH   2  17
ATOM     17  O   UNL     1      36.385  28.744  49.656  0.00  0.00    +0.000 OA
BRANCH  17  18
ATOM     18  C   UNL     1      35.297  27.886  49.656  0.00  0.00    +0.000 C 
ATOM     19  C   UNL     1      34.241  28.245  48.630  0.00  0.00    +0.000 C 
ATOM     20  C   UNL     1      33.337  27.011  48.764  0.00  0.00    +0.000 C 
ATOM     21  C   UNL     1      34.292  25.854  49.062  0.00  0.00    +0.000 C 
ATOM     22  C   UNL     1      35.673  26.486  49.180  0.00  0.00    +0.000 C 
ENDBRANCH  17  18
ENDBRANCH   2  17
TORSDOF 3
