
 OpenBabel03262521013D

 33 35  0  0  1  0  0  0  0  0999 V2000
   39.8900   33.0750   45.9400 N   0  0  0  0  0  0  0  0  0  0  0  0
   38.5800   32.5290   46.1190 C   0  0  1  0  0  0  0  0  0  0  0  0
   37.9780   32.2050   44.7720 C   0  0  0  0  0  0  0  0  0  0  0  0
   38.8710   31.2340   44.1280 N   0  0  0  0  0  0  0  0  0  0  0  0
   40.0890   31.9900   43.8070 C   0  0  0  0  0  0  0  0  0  0  0  0
   40.7640   32.2820   45.1420 C   0  0  2  0  0  0  0  0  0  0  0  0
   40.3060   33.5040   46.7700 H   0  0  0  0  0  0  0  0  0  0  0  0
   37.9500   33.2550   46.6380 H   0  0  0  0  0  0  0  0  0  0  0  0
   37.0040   31.7020   44.8950 H   0  0  0  0  0  0  0  0  0  0  0  0
   37.9180   33.0770   44.1030 H   0  0  0  0  0  0  0  0  0  0  0  0
   39.0660   30.4330   44.7420 H   0  0  0  0  0  0  0  0  0  0  0  0
   40.7890   31.3610   43.1960 H   0  0  0  0  0  0  0  0  0  0  0  0
   39.8220   32.9190   43.3020 H   0  0  0  0  0  0  0  0  0  0  0  0
   41.6730   32.8490   44.9340 H   0  0  0  0  0  0  0  0  0  0  0  0
   41.1240   31.0110   45.7380 N   0  0  0  0  0  0  0  0  0  0  0  0
   42.1220   31.0630   46.1020 H   0  0  0  0  0  0  0  0  0  0  0  0
   41.1680   30.2260   45.0210 H   0  0  0  0  0  0  0  0  0  0  0  0
   38.6180   30.9540   47.0550 S   0  0  0  0  0  0  0  0  0  0  0  0
   35.8960   31.2110   50.0390 C   0  0  0  0  0  0  0  0  0  0  0  0
   37.0710   31.3760   49.3240 C   0  0  0  0  0  0  0  0  0  0  0  0
   37.1760   30.8220   48.0790 C   0  0  0  0  0  0  0  0  0  0  0  0
   36.0980   30.1120   47.5740 N   0  0  0  0  0  0  0  0  0  0  0  0
   34.9890   29.9810   48.3000 C   0  0  0  0  0  0  0  0  0  0  0  0
   34.8720   30.5210   49.5260 N   0  0  0  0  0  0  0  0  0  0  0  0
   35.8340   31.6580   51.0250 H   0  0  0  0  0  0  0  0  0  0  0  0
   37.8870   31.9250   49.7300 H   0  0  0  0  0  0  0  0  0  0  0  0
   33.8500   29.2380   47.7800 C   0  0  0  0  0  0  0  0  0  0  0  0
   33.1340   29.6940   46.8400 O   0  0  0  0  0  0  0  0  0  0  0  0
   33.5020   27.8970   48.3620 C   0  0  0  0  0  3  0  0  0  0  0  0
   33.8510   26.8560   47.3250 C   0  0  0  0  0  2  0  0  0  0  0  0
   32.8030   25.8080   47.5310 C   0  0  0  0  0  2  0  0  0  0  0  0
   31.6120   26.4500   48.1650 C   0  0  0  0  0  2  0  0  0  0  0  0
   32.0350   27.8130   48.6310 C   0  0  0  0  0  2  0  0  0  0  0  0
  1  2  1  0  0  0  0
  1  7  1  0  0  0  0
  2  8  1  1  0  0  0
  2 18  1  0  0  0  0
  3  9  1  0  0  0  0
  3  2  1  0  0  0  0
  4 11  1  0  0  0  0
  4  3  1  0  0  0  0
  5  4  1  0  0  0  0
  5  6  1  0  0  0  0
  6 14  1  6  0  0  0
  6 15  1  0  0  0  0
  6  1  1  0  0  0  0
 10  3  1  0  0  0  0
 12  5  1  0  0  0  0
 13  5  1  0  0  0  0
 15 16  1  0  0  0  0
 17 15  1  0  0  0  0
 18 21  1  0  0  0  0
 19 25  1  0  0  0  0
 20 26  1  0  0  0  0
 20 19  2  0  0  0  0
 21 20  1  0  0  0  0
 22 21  2  0  0  0  0
 22 23  1  0  0  0  0
 23 24  2  0  0  0  0
 24 19  1  0  0  0  0
 27 23  1  0  0  0  0
 27 29  1  0  0  0  0
 28 27  2  0  0  0  0
 29 33  1  0  0  0  0
 30 31  1  0  0  0  0
 30 29  1  0  0  0  0
 31 32  1  0  0  0  0
 32 33  1  0  0  0  0
M  END
>  <minimizedAffinity>
-5.78965139

>  <minimizedRMSD>
2.91128254

$$$$
