
 OpenBabel03272508023D

 24 26  0  0  0  0  0  0  0  0999 V2000
   37.6710   30.7160   46.6280 C   0  0  0  0  0  0  0  0  0  0  0  0
   37.9670   30.9760   47.9910 C   0  0  0  0  0  0  0  0  0  0  0  0
   36.9280   30.8750   48.9140 C   0  0  0  0  0  0  0  0  0  0  0  0
   35.6830   30.5310   48.4570 N   0  0  0  0  0  0  0  0  0  0  0  0
   35.4330   30.2900   47.1590 C   0  0  0  0  0  0  0  0  0  0  0  0
   36.4380   30.3870   46.2540 N   0  0  0  0  0  0  0  0  0  0  0  0
   38.9480   31.2420   48.3170 H   0  0  0  0  0  0  0  0  0  0  0  0
   34.4240   30.0220   46.8490 H   0  0  0  0  0  0  0  0  0  0  0  0
   38.7600   30.8230   45.6650 C   0  0  0  0  0  0  0  0  0  0  0  0
   40.0340   31.2610   45.8840 C   0  0  0  0  0  0  0  0  0  0  0  0
   40.7680   31.2090   44.6990 C   0  0  0  0  0  0  0  0  0  0  0  0
   39.8790   30.7240   43.7790 N   0  0  0  0  0  0  0  0  0  0  0  0
   38.7220   30.5090   44.3680 N   0  0  0  0  0  0  0  0  0  0  0  0
   40.4650   31.6130   46.8270 H   0  0  0  0  0  0  0  0  0  0  0  0
   41.7950   31.4760   44.5050 H   0  0  0  0  0  0  0  0  0  0  0  0
   40.2450   30.5070   42.3720 C   0  0  0  0  0  3  0  0  0  0  0  0
   39.0800   29.9210   41.6040 C   0  0  0  0  0  2  0  0  0  0  0  0
   39.2990   28.4250   41.8650 C   0  0  0  0  0  2  0  0  0  0  0  0
   40.7700   28.3190   41.4990 C   0  0  0  0  0  2  0  0  0  0  0  0
   41.3590   29.5130   42.2100 C   0  0  0  0  0  2  0  0  0  0  0  0
   37.2190   31.1430   50.3520 C   0  0  0  0  0  0  0  0  0  0  0  0
   36.7050   32.4060   50.6060 F   0  0  0  0  0  0  0  0  0  0  0  0
   36.5970   30.2500   51.1980 F   0  0  0  0  0  0  0  0  0  0  0  0
   38.5700   31.1800   50.6120 F   0  0  0  0  0  0  0  0  0  0  0  0
  1  2  1  0  0  0  0
  2  7  1  0  0  0  0
  2  3  2  0  0  0  0
  3 21  1  0  0  0  0
  4  3  1  0  0  0  0
  5  4  2  0  0  0  0
  6  1  2  0  0  0  0
  6  5  1  0  0  0  0
  8  5  1  0  0  0  0
  9 10  1  0  0  0  0
  9  1  1  0  0  0  0
 10 14  1  0  0  0  0
 11 10  2  0  0  0  0
 12 13  1  0  0  0  0
 12 11  1  0  0  0  0
 13  9  2  0  0  0  0
 15 11  1  0  0  0  0
 16 12  1  0  0  0  0
 17 18  1  0  0  0  0
 17 16  1  0  0  0  0
 19 18  1  0  0  0  0
 19 20  1  0  0  0  0
 20 16  1  0  0  0  0
 21 22  1  0  0  0  0
 21 24  1  0  0  0  0
 21 23  1  0  0  0  0
M  END
>  <minimizedAffinity>
-5.8331008

>  <minimizedRMSD>
1.32432115

$$$$
