
 OpenBabel03272500573D

 31 33  0  0  0  0  0  0  0  0999 V2000
   38.1840   31.9000   47.3920 C   0  0  0  0  0  0  0  0  0  0  0  0
   38.7910   32.7480   48.2720 C   0  0  0  0  0  0  0  0  0  0  0  0
   38.3970   32.8470   49.6020 C   0  0  0  0  0  0  0  0  0  0  0  0
   37.3010   32.0090   50.0460 C   0  0  0  0  0  0  0  0  0  0  0  0
   36.7410   31.1890   49.1210 C   0  0  0  0  0  0  0  0  0  0  0  0
   37.1250   31.1000   47.8380 C   0  0  0  0  0  0  0  0  0  0  0  0
   39.6270   33.4000   47.9720 H   0  0  0  0  0  0  0  0  0  0  0  0
   38.9260   33.5510   50.2600 H   0  0  0  0  0  0  0  0  0  0  0  0
   37.1090   32.1910   51.0850 H   0  0  0  0  0  0  0  0  0  0  0  0
   35.9810   30.6500   49.6640 H   0  0  0  0  0  0  0  0  0  0  0  0
   39.9400   31.1840   45.8460 C   0  0  0  0  0  0  0  0  0  0  0  0
   38.7240   31.8900   46.0490 C   0  0  0  0  0  0  0  0  0  0  0  0
   38.2050   32.4750   44.9220 C   0  0  0  0  0  0  0  0  0  0  0  0
   38.8340   32.3610   43.7390 N   0  0  0  0  0  0  0  0  0  0  0  0
   39.9590   31.7030   43.5670 C   0  0  0  0  0  0  0  0  0  0  0  0
   40.5020   31.1200   44.6230 N   0  0  0  0  0  0  0  0  0  0  0  0
   40.3970   30.7060   46.6800 H   0  0  0  0  0  0  0  0  0  0  0  0
   37.2770   33.0150   45.0780 H   0  0  0  0  0  0  0  0  0  0  0  0
   40.4560   31.6170   42.6090 H   0  0  0  0  0  0  0  0  0  0  0  0
   35.0910   30.0600   47.2750 C   0  0  0  0  0  0  0  0  0  0  0  0
   34.6220   30.6240   48.3420 O   0  0  0  0  0  0  0  0  0  0  0  0
   36.4900   30.2640   46.9550 N   0  0  0  0  0  0  0  0  0  0  0  0
   36.9450   29.8240   46.1520 H   0  0  0  0  0  0  0  0  0  0  0  0
   34.2590   29.2970   46.4990 O   0  0  0  0  0  0  0  0  0  0  0  0
   32.8760   29.4280   46.4580 C   0  0  0  0  0  0  0  0  0  0  0  0
   32.2930   30.5060   45.9770 O   0  0  0  0  0  0  0  0  0  0  0  0
   31.9470   28.3640   46.9250 C   0  0  0  0  0  3  0  0  0  0  0  0
   32.1110   27.0910   46.1200 C   0  0  0  0  0  2  0  0  0  0  0  0
   31.7190   25.9710   47.0600 C   0  0  0  0  0  2  0  0  0  0  0  0
   31.3670   26.6560   48.3800 C   0  0  0  0  0  2  0  0  0  0  0  0
   32.3090   27.8630   48.2990 C   0  0  0  0  0  2  0  0  0  0  0  0
  1  6  2  0  0  0  0
  1  2  1  0  0  0  0
  2  3  2  0  0  0  0
  3  4  1  0  0  0  0
  3  8  1  0  0  0  0
  4  9  1  0  0  0  0
  5 10  1  0  0  0  0
  5  4  2  0  0  0  0
  6  5  1  0  0  0  0
  7  2  1  0  0  0  0
 11 12  1  0  0  0  0
 11 17  1  0  0  0  0
 12  1  1  0  0  0  0
 13 18  1  0  0  0  0
 13 12  2  0  0  0  0
 14 13  1  0  0  0  0
 15 14  2  0  0  0  0
 15 16  1  0  0  0  0
 16 11  2  0  0  0  0
 19 15  1  0  0  0  0
 20 21  2  0  0  0  0
 22 20  1  0  0  0  0
 22  6  1  0  0  0  0
 23 22  1  0  0  0  0
 24 20  1  0  0  0  0
 25 24  1  0  0  0  0
 25 27  1  0  0  0  0
 26 25  2  0  0  0  0
 27 31  1  0  0  0  0
 28 27  1  0  0  0  0
 28 29  1  0  0  0  0
 29 30  1  0  0  0  0
 31 30  1  0  0  0  0
M  END
>  <minimizedAffinity>
-5.79684305

>  <minimizedRMSD>
1.3053931

$$$$
