
 OpenBabel03272503493D

 33 35  0  0  1  0  0  0  0  0999 V2000
   33.1020   27.3140   45.8910 C   0  0  1  0  0  0  0  0  0  0  0  0
   33.9120   27.4650   47.1980 C   0  0  2  0  0  0  0  0  0  0  0  0
   33.8050   26.2360   47.7710 O   0  0  0  0  0  0  0  0  0  0  0  0
   34.0550   25.3490   46.7370 C   0  0  0  0  0  0  0  0  0  0  0  0
   33.4560   25.9290   45.4760 C   0  0  2  0  0  0  0  0  0  0  0  0
   33.4870   28.0470   45.1500 H   0  0  0  0  0  0  0  0  0  0  0  0
   34.9290   27.7690   46.8640 H   0  0  0  0  0  0  0  0  0  0  0  0
   35.1260   25.0810   46.6400 H   0  0  0  0  0  0  0  0  0  0  0  0
   33.5130   24.4100   46.9820 H   0  0  0  0  0  0  0  0  0  0  0  0
   32.6110   25.3170   45.1030 H   0  0  0  0  0  0  0  0  0  0  0  0
   31.7570   27.5170   46.1290 O   0  0  0  0  0  0  0  0  0  0  0  0
   31.3770   28.0990   45.4060 H   0  0  0  0  0  0  0  0  0  0  0  0
   33.3240   28.5090   47.8480 O   0  0  0  0  0  0  0  0  0  0  0  0
   35.3520   29.8100   46.7700 O   0  0  0  0  0  0  0  0  0  0  0  0
   34.0970   29.9860   47.6100 P   0  0  1  0  0  0  0  0  0  0  0  0
   33.1030   31.0250   46.7150 O   0  0  0  0  0  0  0  0  0  0  0  0
   32.2710   31.2160   47.2120 H   0  0  0  0  0  0  0  0  0  0  0  0
   34.4130   30.6350   49.1530 O   0  0  0  0  0  0  0  0  0  0  0  0
   35.6370   30.5130   49.7730 C   0  0  0  0  0  0  0  0  0  0  0  0
   35.9590   29.4940   50.6970 C   0  0  0  0  0  0  0  0  0  0  0  0
   37.2380   29.4970   51.2450 C   0  0  0  0  0  0  0  0  0  0  0  0
   38.1080   30.4780   50.8630 N   0  0  0  0  0  0  0  0  0  0  0  0
   37.7650   31.4460   49.9700 C   0  0  0  0  0  0  0  0  0  0  0  0
   36.5190   31.4610   49.4230 N   0  0  0  0  0  0  0  0  0  0  0  0
   35.1900   28.7680   50.9260 H   0  0  0  0  0  0  0  0  0  0  0  0
   37.4950   28.7260   51.9490 H   0  0  0  0  0  0  0  0  0  0  0  0
   38.4920   32.1960   49.7050 H   0  0  0  0  0  0  0  0  0  0  0  0
   34.4230   25.9590   44.4710 O   0  0  0  0  0  0  0  0  0  0  0  0
   35.0010   24.7170   44.2390 C   0  0  0  0  0  3  0  0  0  0  0  0
   34.1840   23.9460   43.2390 C   0  0  0  0  0  2  0  0  0  0  0  0
   35.0560   23.6790   42.0560 C   0  0  0  0  0  2  0  0  0  0  0  0
   36.4730   24.0170   42.4320 C   0  0  0  0  0  2  0  0  0  0  0  0
   36.3990   24.8280   43.6940 C   0  0  0  0  0  2  0  0  0  0  0  0
  1  6  1  6  0  0  0
  1 11  1  0  0  0  0
  1  2  1  0  0  0  0
  2  7  1  6  0  0  0
  2  3  1  0  0  0  0
  2 13  1  0  0  0  0
  4  9  1  0  0  0  0
  4  3  1  0  0  0  0
  5 10  1  6  0  0  0
  5  1  1  0  0  0  0
  5  4  1  0  0  0  0
  8  4  1  0  0  0  0
 12 11  1  0  0  0  0
 15 14  2  6  0  0  0
 15 13  1  0  0  0  0
 15 18  1  0  0  0  0
 16 17  1  0  0  0  0
 16 15  1  0  0  0  0
 18 19  1  0  0  0  0
 19 20  1  0  0  0  0
 20 25  1  0  0  0  0
 20 21  2  0  0  0  0
 21 26  1  0  0  0  0
 22 21  1  0  0  0  0
 23 22  2  0  0  0  0
 24 19  2  0  0  0  0
 24 23  1  0  0  0  0
 27 23  1  0  0  0  0
 28  5  1  0  0  0  0
 29 28  1  0  0  0  0
 30 29  1  0  0  0  0
 31 32  1  0  0  0  0
 31 30  1  0  0  0  0
 32 33  1  0  0  0  0
 33 29  1  0  0  0  0
M  END
>  <minimizedAffinity>
-4.07541275

>  <minimizedRMSD>
1.15645874

$$$$
