
 OpenBabel03272503053D

 28 30  0  0  0  0  0  0  0  0999 V2000
   38.1110   30.2070   47.2540 F   0  0  0  0  0  0  0  0  0  0  0  0
   38.3550   31.4100   47.8340 C   0  0  0  0  0  0  0  0  0  0  0  0
   37.6520   31.7990   48.9370 C   0  0  0  0  0  0  0  0  0  0  0  0
   37.9480   33.0240   49.4710 C   0  0  0  0  0  0  0  0  0  0  0  0
   38.9070   33.8430   48.9410 C   0  0  0  0  0  0  0  0  0  0  0  0
   39.6100   33.4320   47.8220 C   0  0  0  0  0  0  0  0  0  0  0  0
   39.3260   32.2000   47.2670 C   0  0  0  0  0  0  0  0  0  0  0  0
   37.3930   33.3380   50.3460 H   0  0  0  0  0  0  0  0  0  0  0  0
   39.1340   34.8120   49.3720 H   0  0  0  0  0  0  0  0  0  0  0  0
   40.3890   34.0400   47.3480 H   0  0  0  0  0  0  0  0  0  0  0  0
   35.8100   29.2970   51.1120 C   0  0  0  0  0  0  0  0  0  0  0  0
   36.8020   30.1760   50.6390 C   0  0  0  0  0  0  0  0  0  0  0  0
   36.6350   30.8720   49.4590 C   0  0  0  0  0  0  0  0  0  0  0  0
   35.4740   30.6640   48.7860 N   0  0  0  0  0  0  0  0  0  0  0  0
   34.5290   29.8170   49.2500 C   0  0  0  0  0  0  0  0  0  0  0  0
   34.6910   29.1510   50.3820 N   0  0  0  0  0  0  0  0  0  0  0  0
   36.0210   28.7910   52.0460 H   0  0  0  0  0  0  0  0  0  0  0  0
   37.7180   30.3260   51.1920 H   0  0  0  0  0  0  0  0  0  0  0  0
   33.6400   29.7340   48.6220 H   0  0  0  0  0  0  0  0  0  0  0  0
   39.4310   32.1200   44.8650 C   0  0  0  0  0  0  0  0  0  0  0  0
   38.3560   32.7880   44.9750 O   0  0  0  0  0  0  0  0  0  0  0  0
   40.0360   31.7390   46.1050 N   0  0  0  0  0  0  0  0  0  0  0  0
   40.9050   31.1820   46.1140 H   0  0  0  0  0  0  0  0  0  0  0  0
   40.1310   31.6910   43.6260 C   0  0  0  0  0  3  0  0  0  0  0  0
   39.5410   32.2910   42.3920 C   0  0  0  0  0  2  0  0  0  0  0  0
   39.0930   31.1250   41.5140 C   0  0  0  0  0  2  0  0  0  0  0  0
   39.9240   29.9530   42.0060 C   0  0  0  0  0  2  0  0  0  0  0  0
   39.9350   30.2050   43.4930 C   0  0  0  0  0  2  0  0  0  0  0  0
  1  2  1  0  0  0  0
  2  3  1  0  0  0  0
  3 13  1  0  0  0  0
  3  4  2  0  0  0  0
  4  8  1  0  0  0  0
  5  9  1  0  0  0  0
  5  4  1  0  0  0  0
  6  5  2  0  0  0  0
  7  6  1  0  0  0  0
  7  2  2  0  0  0  0
 10  6  1  0  0  0  0
 11 17  1  0  0  0  0
 12 11  1  0  0  0  0
 12 18  1  0  0  0  0
 13 12  2  0  0  0  0
 14 15  2  0  0  0  0
 14 13  1  0  0  0  0
 15 16  1  0  0  0  0
 16 11  2  0  0  0  0
 19 15  1  0  0  0  0
 20 21  2  0  0  0  0
 20 22  1  0  0  0  0
 22 23  1  0  0  0  0
 22  7  1  0  0  0  0
 24 20  1  0  0  0  0
 25 24  1  0  0  0  0
 26 27  1  0  0  0  0
 26 25  1  0  0  0  0
 27 28  1  0  0  0  0
 28 24  1  0  0  0  0
M  END
>  <minimizedAffinity>
-6.34596443

>  <minimizedRMSD>
1.32998836

$$$$
