REMARK  Name = 
REMARK  3 active torsions:
REMARK  status: ('A' for Active; 'I' for Inactive)
REMARK    1  A    between atoms: C_1  and  C_7
REMARK    2  A    between atoms: C_6  and  N_15
REMARK    3  A    between atoms: C_13  and  C_30
REMARK                            x       y       z     vdW  Elec       q    Type
REMARK                         _______ _______ _______ _____ _____    ______ ____
ROOT
ATOM      1  C   UNL     1      36.078  30.686  49.065  0.00  0.00    +0.000 C 
ATOM      2  C   UNL     1      37.004  31.647  49.743  0.00  0.00    +0.000 C 
ATOM      3  C   UNL     1      38.036  30.960  50.609  0.00  0.00    +0.000 C 
ATOM      4  C   UNL     1      37.373  30.053  51.639  0.00  0.00    +0.000 C 
ATOM      5  C   UNL     1      36.120  29.376  51.146  0.00  0.00    +0.000 C 
ATOM      6  C   UNL     1      36.189  29.306  49.610  0.00  0.00    +0.000 C 
ATOM      7  H   UNL     1      34.988  30.956  49.155  0.00  0.00    +0.000 HD
ATOM      8  H   UNL     1      36.340  32.189  50.497  0.00  0.00    +0.000 HD
ATOM      9  H   UNL     1      37.439  32.428  49.150  0.00  0.00    +0.000 HD
ATOM     10  H   UNL     1      38.817  30.432  50.051  0.00  0.00    +0.000 HD
ATOM     11  H   UNL     1      38.524  31.770  51.189  0.00  0.00    +0.000 HD
ATOM     12  H   UNL     1      37.237  30.540  52.618  0.00  0.00    +0.000 HD
ATOM     13  H   UNL     1      38.115  29.229  51.826  0.00  0.00    +0.000 HD
ATOM     14  H   UNL     1      36.027  28.346  51.545  0.00  0.00    +0.000 HD
ATOM     15  H   UNL     1      35.260  29.972  51.466  0.00  0.00    +0.000 HD
ATOM     16  H   UNL     1      37.162  28.901  49.480  0.00  0.00    +0.000 HD
ENDROOT
BRANCH   1  17
ATOM     17  C   UNL     1      36.323  30.646  47.597  0.00  0.00    +0.000 A 
ATOM     18  C   UNL     1      37.582  31.110  47.182  0.00  0.00    +0.000 A 
ATOM     19  C   UNL     1      37.830  31.078  45.805  0.00  0.00    +0.000 A 
ATOM     20  N   UNL     1      36.855  30.605  44.959  0.00  0.00    +0.000 NA
ATOM     21  C   UNL     1      35.641  30.163  45.423  0.00  0.00    +0.000 A 
ATOM     22  N   UNL     1      35.394  30.191  46.745  0.00  0.00    +0.000 NA
ATOM     23  H   UNL     1      38.417  31.489  47.733  0.00  0.00    +0.000 HD
ATOM     24  H   UNL     1      38.741  31.398  45.335  0.00  0.00    +0.000 HD
ATOM     25  H   UNL     1      34.929  29.807  44.705  0.00  0.00    +0.000 HD
ENDBRANCH   1  17
BRANCH   6  28
ATOM     26  C   UNL     1      33.935  28.202  49.244  0.00  0.00    +0.000 C 
ATOM     27  O   UNL     1      33.119  28.866  49.943  0.00  0.00    +0.000 OA
ATOM     28  N   UNL     1      35.327  28.349  49.019  0.00  0.00    +0.000 N 
ATOM     29  H   UNL     1      35.641  27.608  48.314  0.00  0.00    +0.000 HD
BRANCH  26  30
ATOM     30  C   UNL     1      33.081  27.137  48.644  0.00  0.00    +0.000 C 
ATOM     31  C   UNL     1      32.428  26.276  49.668  0.00  0.00    +0.000 C 
ATOM     32  C   UNL     1      30.930  26.400  49.403  0.00  0.00    +0.000 C 
ATOM     33  C   UNL     1      30.908  26.605  47.906  0.00  0.00    +0.000 C 
ATOM     34  C   UNL     1      31.983  27.692  47.766  0.00  0.00    +0.000 C 
ENDBRANCH  26  30
ENDBRANCH   6  28
TORSDOF 3
