
     RDKit          3D

 37 39  0  0  0  0  0  0  0  0999 V2000
   38.4562   30.4478   47.3092 F   0  0  0  0  0  0  0  0  0  0  0  0
   38.7532   31.6804   47.7963 C   0  0  0  0  0  0  0  0  0  0  0  0
   38.2407   32.0896   48.9928 C   0  0  0  0  0  0  0  0  0  0  0  0
   38.5801   33.3426   49.4245 C   0  0  0  0  0  0  0  0  0  0  0  0
   39.3975   34.1712   48.7057 C   0  0  0  0  0  0  0  0  0  0  0  0
   39.9079   33.7383   47.4938 C   0  0  0  0  0  0  0  0  0  0  0  0
   39.5777   32.4772   47.0401 C   0  0  0  0  0  0  0  0  0  0  0  0
   36.9195   29.5954   51.5259 C   0  0  0  0  0  0  0  0  0  0  0  0
   37.7775   30.4851   50.8553 C   0  0  0  0  0  0  0  0  0  0  0  0
   37.3681   31.1525   49.7179 C   0  0  0  0  0  0  0  0  0  0  0  0
   36.1046   30.9048   49.2874 N   0  0  0  0  0  0  0  0  0  0  0  0
   35.2892   30.0482   49.9394 C   0  0  0  0  0  0  0  0  0  0  0  0
   35.6837   29.4103   51.0285 N   0  0  0  0  0  0  0  0  0  0  0  0
   39.1888   32.1662   44.6864 C   0  0  0  0  0  0  0  0  0  0  0  0
   38.0747   32.7001   44.9826 O   0  0  0  0  0  0  0  0  0  0  0  0
   40.0886   31.9932   45.7860 N   0  0  0  0  0  0  0  0  0  0  0  0
   38.1765   33.6737   50.3740 H   0  0  0  0  0  0  0  0  0  0  0  0
   39.6603   35.1631   49.0573 H   0  0  0  0  0  0  0  0  0  0  0  0
   40.5672   34.3524   46.8705 H   0  0  0  0  0  0  0  0  0  0  0  0
   37.3199   29.1145   52.4090 H   0  0  0  0  0  0  0  0  0  0  0  0
   38.7798   30.6667   51.2168 H   0  0  0  0  0  0  0  0  0  0  0  0
   34.2980   29.9324   49.4969 H   0  0  0  0  0  0  0  0  0  0  0  0
   41.0123   31.5545   45.6429 H   0  0  0  0  0  0  0  0  0  0  0  0
   39.6697   31.7042   43.3583 C   0  0  0  0  0  0  0  0  0  0  0  0
   40.6804   32.6267   42.7571 C   0  0  0  0  0  0  0  0  0  0  0  0
   40.1015   33.0950   41.4250 C   0  0  0  0  0  0  0  0  0  0  0  0
   39.0825   32.0266   41.0695 C   0  0  0  0  0  0  0  0  0  0  0  0
   38.4919   31.7234   42.4232 C   0  0  0  0  0  0  0  0  0  0  0  0
   40.0754   30.6607   43.4955 H   0  0  0  0  0  0  0  0  0  0  0  0
   40.9333   33.4882   43.4075 H   0  0  0  0  0  0  0  0  0  0  0  0
   41.6089   32.0604   42.5695 H   0  0  0  0  0  0  0  0  0  0  0  0
   40.8555   33.2677   40.6579 H   0  0  0  0  0  0  0  0  0  0  0  0
   39.5125   34.0315   41.6080 H   0  0  0  0  0  0  0  0  0  0  0  0
   38.2505   32.4707   40.4596 H   0  0  0  0  0  0  0  0  0  0  0  0
   39.5027   31.1538   40.5679 H   0  0  0  0  0  0  0  0  0  0  0  0
   37.8753   30.8256   42.4537 H   0  0  0  0  0  0  0  0  0  0  0  0
   37.8846   32.6109   42.7132 H   0  0  0  0  0  0  0  0  0  0  0  0
  1  2  1  0
  2  3  2  0
  3  4  1  0
  3 10  1  0
  5  4  2  0
  6  5  1  0
  7  6  2  0
  7  2  1  0
  9  8  2  0
 10  9  1  0
 11 10  2  0
 11 12  1  0
 12 13  2  0
 13  8  1  0
 14 15  2  0
 14 16  1  0
 16  7  1  0
  4 17  1  0
  5 18  1  0
  6 19  1  0
  8 20  1  0
  9 21  1  0
 12 22  1  0
 16 23  1  0
 24 25  1  0
 25 26  1  0
 26 27  1  0
 27 28  1  0
 28 24  1  0
 24 29  1  0
 25 30  1  0
 25 31  1  0
 26 32  1  0
 26 33  1  0
 27 34  1  0
 27 35  1  0
 28 36  1  0
 28 37  1  0
 14 24  1  0
M  ISO  6  17  14  18  14  19  14  20  14  21  14  22  14
M  END
>  <DihAtoms>  (1) 
14,13,23,24

>  <DihDeg>  (1) 
-0.0020061507635978147

$$$$
