
 OpenBabel03262520323D

 19 20  0  0  0  0  0  0  0  0999 V2000
   36.3020   30.4760   49.8900 C   0  0  0  0  0  0  0  0  0  0  0  0
   35.8490   29.4740   49.2130 C   0  0  0  0  0  0  0  0  0  0  0  0
   38.3530   33.4100   49.1010 C   0  0  0  0  0  0  0  0  0  0  0  0
   39.0800   32.9380   47.9720 C   0  0  0  0  0  0  0  0  0  0  0  0
   38.8460   31.6170   47.5090 C   0  0  0  0  0  0  0  0  0  0  0  0
   37.9140   30.8960   48.2120 N   0  0  0  0  0  0  0  0  0  0  0  0
   37.2550   31.3810   49.2660 C   0  0  0  0  0  0  0  0  0  0  0  0
   37.4720   32.6280   49.7090 N   0  0  0  0  0  0  0  0  0  0  0  0
   38.5820   34.4250   49.3990 H   0  0  0  0  0  0  0  0  0  0  0  0
   39.8170   33.5030   47.4150 H   0  0  0  0  0  0  0  0  0  0  0  0
   39.3620   31.2130   46.6700 H   0  0  0  0  0  0  0  0  0  0  0  0
   34.9110   28.4600   49.6450 C   0  0  0  0  0  0  0  0  0  0  0  0
   35.4300   27.5000   49.8530 H   0  0  0  0  0  0  0  0  0  0  0  0
   34.5090   28.7900   50.6480 H   0  0  0  0  0  0  0  0  0  0  0  0
   33.7060   28.2250   48.7880 C   0  0  0  0  0  0  0  0  0  0  0  0
   33.8470   29.2550   47.6480 C   0  0  0  0  0  0  0  0  0  0  0  0
   33.1650   28.6600   46.4590 C   0  0  0  0  0  0  0  0  0  0  0  0
   32.8850   27.2270   46.8040 C   0  0  0  0  0  0  0  0  0  0  0  0
   33.8730   26.9520   47.9460 C   0  0  0  0  0  0  0  0  0  0  0  0
  2 12  1  0  0  0  0
  2  1  2  0  0  0  0
  3  9  1  0  0  0  0
  3  8  1  0  0  0  0
  4  3  2  0  0  0  0
  5  4  1  0  0  0  0
  5  6  2  0  0  0  0
  6  7  1  0  0  0  0
  7  8  2  0  0  0  0
  7  1  1  0  0  0  0
 10  4  1  0  0  0  0
 11  5  1  0  0  0  0
 12 13  1  0  0  0  0
 12 14  1  0  0  0  0
 15 12  1  0  0  0  0
 16 15  1  0  0  0  0
 17 18  1  0  0  0  0
 17 16  1  0  0  0  0
 18 19  1  0  0  0  0
 19 15  1  0  0  0  0
M  END
>  <minimizedAffinity>
-4.69676781

>  <minimizedRMSD>
3.14405107

$$$$
