
 OpenBabel03272510313D

 28 30  0  0  0  0  0  0  0  0999 V2000
   37.2990   31.4510   49.4630 C   0  0  0  0  0  0  0  0  0  0  0  0
   37.6760   32.7510   49.7500 C   0  0  0  0  0  0  0  0  0  0  0  0
   38.2430   33.4670   48.6910 C   0  0  0  0  0  0  0  0  0  0  0  0
   38.3880   32.8670   47.4740 N   0  0  0  0  0  0  0  0  0  0  0  0
   38.0070   31.5960   47.2370 C   0  0  0  0  0  0  0  0  0  0  0  0
   37.4480   30.8680   48.2570 N   0  0  0  0  0  0  0  0  0  0  0  0
   37.5310   33.1650   50.7410 H   0  0  0  0  0  0  0  0  0  0  0  0
   38.5550   34.4880   48.8630 H   0  0  0  0  0  0  0  0  0  0  0  0
   36.6590   30.6710   50.5770 C   0  0  0  0  0  0  0  0  0  0  0  0
   36.6840   29.2440   50.6330 C   0  0  0  0  0  0  0  0  0  0  0  0
   37.7110   29.9820   51.4780 C   0  0  0  0  0  0  0  0  0  0  0  0
   36.0300   31.3530   51.2040 H   0  0  0  0  0  0  0  0  0  0  0  0
   35.8490   28.7390   51.1970 H   0  0  0  0  0  0  0  0  0  0  0  0
   36.9830   28.6570   49.7640 H   0  0  0  0  0  0  0  0  0  0  0  0
   37.5610   29.9790   52.5570 H   0  0  0  0  0  0  0  0  0  0  0  0
   38.7340   29.9040   51.1080 H   0  0  0  0  0  0  0  0  0  0  0  0
   38.1520   30.9480   45.9420 C   0  0  0  0  0  0  0  0  0  0  0  0
   37.4500   31.3390   45.1630 H   0  0  0  0  0  0  0  0  0  0  0  0
   37.9840   29.8760   45.9920 H   0  0  0  0  0  0  0  0  0  0  0  0
   39.8520   32.0000   44.4390 C   0  0  0  0  0  0  0  0  0  0  0  0
   39.0280   32.6860   43.7790 O   0  0  0  0  0  0  0  0  0  0  0  0
   39.5290   31.1480   45.5220 N   0  0  0  0  0  0  0  0  0  0  0  0
   40.2660   30.6280   46.0630 H   0  0  0  0  0  0  0  0  0  0  0  0
   41.3100   32.0690   44.0720 C   0  0  0  0  0  3  0  0  0  0  0  0
   41.9850   33.0190   45.0510 C   0  0  0  0  0  2  0  0  0  0  0  0
   42.6540   32.0840   46.0560 C   0  0  0  0  0  2  0  0  0  0  0  0
   43.1770   31.0130   45.1110 C   0  0  0  0  0  2  0  0  0  0  0  0
   41.9850   30.7400   44.2480 C   0  0  0  0  0  2  0  0  0  0  0  0
  1  2  1  0  0  0  0
  1  9  1  0  0  0  0
  2  7  1  0  0  0  0
  3  8  1  0  0  0  0
  3  2  2  0  0  0  0
  4  3  1  0  0  0  0
  5  4  2  0  0  0  0
  5  6  1  0  0  0  0
  6  1  2  0  0  0  0
  9 10  1  0  0  0  0
  9 12  1  0  0  0  0
  9 11  1  0  0  0  0
 10 13  1  0  0  0  0
 10 11  1  0  0  0  0
 11 15  1  0  0  0  0
 14 10  1  0  0  0  0
 16 11  1  0  0  0  0
 17 19  1  0  0  0  0
 17  5  1  0  0  0  0
 18 17  1  0  0  0  0
 20 22  1  0  0  0  0
 21 20  2  0  0  0  0
 22 17  1  0  0  0  0
 22 23  1  0  0  0  0
 24 28  1  0  0  0  0
 24 20  1  0  0  0  0
 24 25  1  0  0  0  0
 25 26  1  0  0  0  0
 27 26  1  0  0  0  0
 28 27  1  0  0  0  0
M  END
>  <minimizedAffinity>
4.72786856

>  <minimizedRMSD>
1.08362484

$$$$
