
 OpenBabel03272507163D

 22 24  0  0  1  0  0  0  0  0999 V2000
   36.7090   31.2730   50.3480 C   0  0  1  0  0  0  0  0  0  0  0  0
   36.2210   29.9100   50.3770 C   0  0  2  0  0  0  0  0  0  0  0  0
   37.3690   30.2660   51.2970 C   0  0  0  0  0  0  0  0  0  0  0  0
   36.2320   32.1120   50.9220 H   0  0  0  0  0  0  0  0  0  0  0  0
   35.2410   29.6970   50.8240 H   0  0  0  0  0  0  0  0  0  0  0  0
   37.0930   30.3110   52.3670 H   0  0  0  0  0  0  0  0  0  0  0  0
   38.3740   29.9150   51.0820 H   0  0  0  0  0  0  0  0  0  0  0  0
   37.6570   31.7330   49.2650 C   0  0  0  0  0  0  0  0  0  0  0  0
   38.2200   32.9950   49.4560 C   0  0  0  0  0  0  0  0  0  0  0  0
   39.0770   33.4290   48.4340 C   0  0  0  0  0  0  0  0  0  0  0  0
   39.3170   32.6300   47.3360 N   0  0  0  0  0  0  0  0  0  0  0  0
   38.7320   31.4010   47.2130 C   0  0  0  0  0  0  0  0  0  0  0  0
   37.8940   30.9470   48.1840 N   0  0  0  0  0  0  0  0  0  0  0  0
   38.0050   33.5890   50.3320 H   0  0  0  0  0  0  0  0  0  0  0  0
   39.5440   34.3940   48.5210 H   0  0  0  0  0  0  0  0  0  0  0  0
   38.9670   30.8370   46.3310 H   0  0  0  0  0  0  0  0  0  0  0  0
   36.5330   29.0520   49.3130 O   0  0  0  0  0  0  0  0  0  0  0  0
   35.3290   28.5330   48.8640 C   0  0  0  0  0  3  0  0  0  0  0  0
   34.1980   28.6680   49.8630 C   0  0  0  0  0  2  0  0  0  0  0  0
   33.0310   28.2070   48.9800 C   0  0  0  0  0  2  0  0  0  0  0  0
   33.3790   28.7040   47.5770 C   0  0  0  0  0  2  0  0  0  0  0  0
   34.7590   29.3370   47.6990 C   0  0  0  0  0  2  0  0  0  0  0  0
  1  2  1  0  0  0  0
  1  4  1  1  0  0  0
  1  3  1  0  0  0  0
  2  5  1  1  0  0  0
  2  3  1  0  0  0  0
  3  6  1  0  0  0  0
  7  3  1  0  0  0  0
  8  9  1  0  0  0  0
  8  1  1  0  0  0  0
  9 14  1  0  0  0  0
 10 15  1  0  0  0  0
 10  9  2  0  0  0  0
 11 10  1  0  0  0  0
 12 11  2  0  0  0  0
 12 13  1  0  0  0  0
 13  8  2  0  0  0  0
 16 12  1  0  0  0  0
 17  2  1  0  0  0  0
 18 17  1  0  0  0  0
 18 19  1  0  0  0  0
 20 19  1  0  0  0  0
 21 22  1  0  0  0  0
 21 20  1  0  0  0  0
 22 18  1  0  0  0  0
M  END
>  <minimizedAffinity>
-5.16731691

>  <minimizedRMSD>
0.957496762

$$$$
