
 OpenBabel03272503503D

 33 35  0  0  1  0  0  0  0  0999 V2000
   33.1800   27.3170   45.8680 C   0  0  1  0  0  0  0  0  0  0  0  0
   33.9190   27.4650   47.2170 C   0  0  2  0  0  0  0  0  0  0  0  0
   33.7720   26.2380   47.7860 O   0  0  0  0  0  0  0  0  0  0  0  0
   34.0710   25.3470   46.7680 C   0  0  0  0  0  0  0  0  0  0  0  0
   33.5470   25.9280   45.4750 C   0  0  2  0  0  0  0  0  0  0  0  0
   33.6100   28.0460   45.1480 H   0  0  0  0  0  0  0  0  0  0  0  0
   34.9550   27.7610   46.9390 H   0  0  0  0  0  0  0  0  0  0  0  0
   35.1440   25.0710   46.7310 H   0  0  0  0  0  0  0  0  0  0  0  0
   33.5090   24.4130   46.9850 H   0  0  0  0  0  0  0  0  0  0  0  0
   32.7190   25.3220   45.0580 H   0  0  0  0  0  0  0  0  0  0  0  0
   31.8250   27.5300   46.0310 O   0  0  0  0  0  0  0  0  0  0  0  0
   31.4910   28.1130   45.2880 H   0  0  0  0  0  0  0  0  0  0  0  0
   33.3030   28.5140   47.8320 O   0  0  0  0  0  0  0  0  0  0  0  0
   35.3450   29.8150   46.7780 O   0  0  0  0  0  0  0  0  0  0  0  0
   34.0860   29.9900   47.6150 P   0  0  1  0  0  0  0  0  0  0  0  0
   33.1030   31.0450   46.7270 O   0  0  0  0  0  0  0  0  0  0  0  0
   32.2700   31.2360   47.2220 H   0  0  0  0  0  0  0  0  0  0  0  0
   34.3990   30.6190   49.1670 O   0  0  0  0  0  0  0  0  0  0  0  0
   35.6260   30.5030   49.7820 C   0  0  0  0  0  0  0  0  0  0  0  0
   35.9570   29.4840   50.7030 C   0  0  0  0  0  0  0  0  0  0  0  0
   37.2380   29.4930   51.2450 C   0  0  0  0  0  0  0  0  0  0  0  0
   38.1020   30.4780   50.8610 N   0  0  0  0  0  0  0  0  0  0  0  0
   37.7510   31.4460   49.9700 C   0  0  0  0  0  0  0  0  0  0  0  0
   36.5020   31.4540   49.4280 N   0  0  0  0  0  0  0  0  0  0  0  0
   35.1920   28.7540   50.9340 H   0  0  0  0  0  0  0  0  0  0  0  0
   37.5020   28.7220   51.9480 H   0  0  0  0  0  0  0  0  0  0  0  0
   38.4730   32.1990   49.7030 H   0  0  0  0  0  0  0  0  0  0  0  0
   34.5670   25.9490   44.5250 O   0  0  0  0  0  0  0  0  0  0  0  0
   34.1030   25.7530   43.2300 C   0  0  0  0  0  3  0  0  0  0  0  0
   35.2250   25.2830   42.3440 C   0  0  0  0  0  2  0  0  0  0  0  0
   34.8520   23.9320   41.8270 C   0  0  0  0  0  2  0  0  0  0  0  0
   33.4010   23.6920   42.1420 C   0  0  0  0  0  2  0  0  0  0  0  0
   33.0100   24.7220   43.1630 C   0  0  0  0  0  2  0  0  0  0  0  0
  1  6  1  6  0  0  0
  1 11  1  0  0  0  0
  1  2  1  0  0  0  0
  2  7  1  6  0  0  0
  2  3  1  0  0  0  0
  2 13  1  0  0  0  0
  4  9  1  0  0  0  0
  4  3  1  0  0  0  0
  5 10  1  6  0  0  0
  5  1  1  0  0  0  0
  5  4  1  0  0  0  0
  8  4  1  0  0  0  0
 12 11  1  0  0  0  0
 15 14  2  6  0  0  0
 15 13  1  0  0  0  0
 15 18  1  0  0  0  0
 16 17  1  0  0  0  0
 16 15  1  0  0  0  0
 18 19  1  0  0  0  0
 19 20  1  0  0  0  0
 20 25  1  0  0  0  0
 20 21  2  0  0  0  0
 21 26  1  0  0  0  0
 22 21  1  0  0  0  0
 23 22  2  0  0  0  0
 24 19  2  0  0  0  0
 24 23  1  0  0  0  0
 27 23  1  0  0  0  0
 28  5  1  0  0  0  0
 29 28  1  0  0  0  0
 30 29  1  0  0  0  0
 31 32  1  0  0  0  0
 31 30  1  0  0  0  0
 32 33  1  0  0  0  0
 33 29  1  0  0  0  0
M  END
>  <minimizedAffinity>
-3.91592574

>  <minimizedRMSD>
0.446245968

$$$$
