
 OpenBabel03272500583D

 31 33  0  0  0  0  0  0  0  0999 V2000
   38.1790   31.8980   47.4120 C   0  0  0  0  0  0  0  0  0  0  0  0
   38.7020   32.7780   48.3140 C   0  0  0  0  0  0  0  0  0  0  0  0
   38.2530   32.8530   49.6280 C   0  0  0  0  0  0  0  0  0  0  0  0
   37.1910   31.9530   50.0300 C   0  0  0  0  0  0  0  0  0  0  0  0
   36.7150   31.1040   49.0860 C   0  0  0  0  0  0  0  0  0  0  0  0
   37.1510   31.0380   47.8180 C   0  0  0  0  0  0  0  0  0  0  0  0
   39.5110   33.4770   48.0450 H   0  0  0  0  0  0  0  0  0  0  0  0
   38.7160   33.5850   50.3050 H   0  0  0  0  0  0  0  0  0  0  0  0
   36.9500   32.1230   51.0620 H   0  0  0  0  0  0  0  0  0  0  0  0
   35.9660   30.5210   49.6010 H   0  0  0  0  0  0  0  0  0  0  0  0
   40.0180   31.2620   45.9290 C   0  0  0  0  0  0  0  0  0  0  0  0
   38.7690   31.9210   46.0900 C   0  0  0  0  0  0  0  0  0  0  0  0
   38.2710   32.4950   44.9490 C   0  0  0  0  0  0  0  0  0  0  0  0
   38.9490   32.4150   43.7900 N   0  0  0  0  0  0  0  0  0  0  0  0
   40.1030   31.8030   43.6560 C   0  0  0  0  0  0  0  0  0  0  0  0
   40.6280   31.2310   44.7270 N   0  0  0  0  0  0  0  0  0  0  0  0
   40.4610   30.7950   46.7760 H   0  0  0  0  0  0  0  0  0  0  0  0
   37.3170   32.9980   45.0740 H   0  0  0  0  0  0  0  0  0  0  0  0
   40.6390   31.7440   42.7170 H   0  0  0  0  0  0  0  0  0  0  0  0
   35.1640   30.0290   47.0640 C   0  0  0  0  0  0  0  0  0  0  0  0
   34.5880   30.6740   48.0280 O   0  0  0  0  0  0  0  0  0  0  0  0
   36.5990   30.1680   46.9130 N   0  0  0  0  0  0  0  0  0  0  0  0
   37.1340   29.6630   46.2020 H   0  0  0  0  0  0  0  0  0  0  0  0
   34.4060   29.2450   46.2350 O   0  0  0  0  0  0  0  0  0  0  0  0
   33.1900   29.6250   45.6810 C   0  0  0  0  0  0  0  0  0  0  0  0
   33.1220   30.3250   44.5680 O   0  0  0  0  0  0  0  0  0  0  0  0
   31.8770   29.2590   46.2770 C   0  0  0  0  0  3  0  0  0  0  0  0
   30.9820   28.5720   45.2660 C   0  0  0  0  0  2  0  0  0  0  0  0
   30.0860   27.6640   46.0820 C   0  0  0  0  0  2  0  0  0  0  0  0
   30.5250   27.8560   47.5330 C   0  0  0  0  0  2  0  0  0  0  0  0
   32.0100   28.1680   47.3080 C   0  0  0  0  0  2  0  0  0  0  0  0
  1  6  2  0  0  0  0
  1  2  1  0  0  0  0
  2  3  2  0  0  0  0
  3  4  1  0  0  0  0
  3  8  1  0  0  0  0
  4  9  1  0  0  0  0
  5 10  1  0  0  0  0
  5  4  2  0  0  0  0
  6  5  1  0  0  0  0
  7  2  1  0  0  0  0
 11 12  1  0  0  0  0
 11 17  1  0  0  0  0
 12  1  1  0  0  0  0
 13 18  1  0  0  0  0
 13 12  2  0  0  0  0
 14 13  1  0  0  0  0
 15 14  2  0  0  0  0
 15 16  1  0  0  0  0
 16 11  2  0  0  0  0
 19 15  1  0  0  0  0
 20 21  2  0  0  0  0
 22 20  1  0  0  0  0
 22  6  1  0  0  0  0
 23 22  1  0  0  0  0
 24 20  1  0  0  0  0
 25 24  1  0  0  0  0
 25 27  1  0  0  0  0
 26 25  2  0  0  0  0
 27 31  1  0  0  0  0
 28 29  1  0  0  0  0
 28 27  1  0  0  0  0
 29 30  1  0  0  0  0
 31 30  1  0  0  0  0
M  END
>  <minimizedAffinity>
-5.44830751

>  <minimizedRMSD>
1.0910151

$$$$
