
 OpenBabel03272504573D

 29 31  0  0  1  0  0  0  0  0999 V2000
   37.2130   31.9070   48.9460 C   0  0  1  0  0  0  0  0  0  0  0  0
   36.2900   31.0610   48.2270 C   0  0  0  0  0  0  0  0  0  0  0  0
   37.3180   30.4510   49.1180 C   0  0  2  0  0  0  0  0  0  0  0  0
   36.9250   32.4640   49.9030 H   0  0  0  0  0  0  0  0  0  0  0  0
   35.3020   31.4300   48.4260 H   0  0  0  0  0  0  0  0  0  0  0  0
   36.4710   30.9660   47.1340 H   0  0  0  0  0  0  0  0  0  0  0  0
   37.8730   29.7010   48.5720 H   0  0  0  0  0  0  0  0  0  0  0  0
   38.3490   32.5870   48.2310 C   0  0  0  0  0  0  0  0  0  0  0  0
   38.9650   33.6490   48.9290 C   0  0  0  0  0  0  0  0  0  0  0  0
   40.0060   34.2490   48.2640 C   0  0  0  0  0  0  0  0  0  0  0  0
   40.3760   33.8120   47.0310 N   0  0  0  0  0  0  0  0  0  0  0  0
   39.7600   32.7900   46.3960 C   0  0  0  0  0  0  0  0  0  0  0  0
   38.7130   32.1670   47.0290 N   0  0  0  0  0  0  0  0  0  0  0  0
   40.1350   32.3080   45.1360 N   0  0  0  0  0  0  0  0  0  0  0  0
   38.6750   33.9980   49.9100 H   0  0  0  0  0  0  0  0  0  0  0  0
   40.5380   35.0700   48.7190 H   0  0  0  0  0  0  0  0  0  0  0  0
   40.1360   32.8450   44.2380 H   0  0  0  0  0  0  0  0  0  0  0  0
   40.4780   31.3600   44.8250 H   0  0  0  0  0  0  0  0  0  0  0  0
   36.8500   29.9720   50.3470 O   0  0  0  0  0  0  0  0  0  0  0  0
   34.8280   28.8710   51.5050 O   0  0  0  0  0  0  0  0  0  0  0  0
   35.3000   29.3800   50.1820 P   0  0  1  0  0  0  0  0  0  0  0  0
   34.2320   30.7220   49.8750 O   0  0  0  0  0  0  0  0  0  0  0  0
   34.5400   31.5030   50.4000 H   0  0  0  0  0  0  0  0  0  0  0  0
   35.2140   28.3150   48.9250 O   0  0  0  0  0  0  0  0  0  0  0  0
   34.0720   28.1420   48.2490 C   0  0  0  0  0  3  0  0  0  0  0  0
   33.9470   26.6670   47.9150 C   0  0  0  0  0  2  0  0  0  0  0  0
   32.6620   26.6910   47.1180 C   0  0  0  0  0  2  0  0  0  0  0  0
   32.7110   27.9960   46.3710 C   0  0  0  0  0  2  0  0  0  0  0  0
   33.9200   28.7600   46.9080 C   0  0  0  0  0  2  0  0  0  0  0  0
  1  3  1  0  0  0  0
  1  4  1  1  0  0  0
  2  5  1  0  0  0  0
  2  1  1  0  0  0  0
  2  3  1  0  0  0  0
  3  7  1  6  0  0  0
  3 19  1  0  0  0  0
  6  2  1  0  0  0  0
  8  9  1  0  0  0  0
  8  1  1  0  0  0  0
  9 15  1  0  0  0  0
 10 16  1  0  0  0  0
 10  9  2  0  0  0  0
 11 10  1  0  0  0  0
 12 13  1  0  0  0  0
 12 11  2  0  0  0  0
 13  8  2  0  0  0  0
 14 12  1  0  0  0  0
 17 14  1  0  0  0  0
 18 14  1  0  0  0  0
 21 19  1  0  0  0  0
 21 20  2  1  0  0  0
 22 21  1  0  0  0  0
 22 23  1  0  0  0  0
 24 21  1  0  0  0  0
 25 24  1  0  0  0  0
 26 25  1  0  0  0  0
 27 26  1  0  0  0  0
 28 29  1  0  0  0  0
 28 27  1  0  0  0  0
 29 25  1  0  0  0  0
M  END
>  <minimizedAffinity>
-4.65229034

>  <minimizedRMSD>
1.57031417

$$$$
