
 OpenBabel03272503053D

 28 30  0  0  0  0  0  0  0  0999 V2000
   38.5070   30.4390   47.3170 F   0  0  0  0  0  0  0  0  0  0  0  0
   38.7720   31.6760   47.8100 C   0  0  0  0  0  0  0  0  0  0  0  0
   38.1970   32.0910   48.9760 C   0  0  0  0  0  0  0  0  0  0  0  0
   38.5070   33.3490   49.4150 C   0  0  0  0  0  0  0  0  0  0  0  0
   39.3570   34.1770   48.7330 C   0  0  0  0  0  0  0  0  0  0  0  0
   39.9310   33.7380   47.5520 C   0  0  0  0  0  0  0  0  0  0  0  0
   39.6310   32.4720   47.0910 C   0  0  0  0  0  0  0  0  0  0  0  0
   38.0530   33.6850   50.3400 H   0  0  0  0  0  0  0  0  0  0  0  0
   39.5950   35.1730   49.0900 H   0  0  0  0  0  0  0  0  0  0  0  0
   40.6180   34.3510   46.9580 H   0  0  0  0  0  0  0  0  0  0  0  0
   36.7750   29.5760   51.4330 C   0  0  0  0  0  0  0  0  0  0  0  0
   37.6630   30.4650   50.7990 C   0  0  0  0  0  0  0  0  0  0  0  0
   37.2930   31.1540   49.6620 C   0  0  0  0  0  0  0  0  0  0  0  0
   36.0400   30.9290   49.1920 N   0  0  0  0  0  0  0  0  0  0  0  0
   35.1950   30.0730   49.8080 C   0  0  0  0  0  0  0  0  0  0  0  0
   35.5520   29.4140   50.8990 N   0  0  0  0  0  0  0  0  0  0  0  0
   37.1450   29.0770   52.3190 H   0  0  0  0  0  0  0  0  0  0  0  0
   38.6560   30.6290   51.1920 H   0  0  0  0  0  0  0  0  0  0  0  0
   34.2160   29.9760   49.3370 H   0  0  0  0  0  0  0  0  0  0  0  0
   39.4060   32.2240   44.7090 C   0  0  0  0  0  0  0  0  0  0  0  0
   38.3030   32.8150   44.9330 O   0  0  0  0  0  0  0  0  0  0  0  0
   40.2080   31.9820   45.8690 N   0  0  0  0  0  0  0  0  0  0  0  0
   41.1140   31.4950   45.7860 H   0  0  0  0  0  0  0  0  0  0  0  0
   39.9600   31.7590   43.4110 C   0  0  0  0  0  3  0  0  0  0  0  0
   39.3730   32.4800   42.2400 C   0  0  0  0  0  2  0  0  0  0  0  0
   38.7190   31.4190   41.3600 C   0  0  0  0  0  2  0  0  0  0  0  0
   39.4200   30.1300   41.7550 C   0  0  0  0  0  2  0  0  0  0  0  0
   39.5620   30.3180   43.2440 C   0  0  0  0  0  2  0  0  0  0  0  0
  1  2  1  0  0  0  0
  2  3  1  0  0  0  0
  3  4  2  0  0  0  0
  3 13  1  0  0  0  0
  4  8  1  0  0  0  0
  5  9  1  0  0  0  0
  5  4  1  0  0  0  0
  6  5  2  0  0  0  0
  7  6  1  0  0  0  0
  7  2  2  0  0  0  0
 10  6  1  0  0  0  0
 11 17  1  0  0  0  0
 12 18  1  0  0  0  0
 12 11  2  0  0  0  0
 13 12  1  0  0  0  0
 14 13  2  0  0  0  0
 14 15  1  0  0  0  0
 15 16  2  0  0  0  0
 16 11  1  0  0  0  0
 19 15  1  0  0  0  0
 20 21  2  0  0  0  0
 20 22  1  0  0  0  0
 22  7  1  0  0  0  0
 23 22  1  0  0  0  0
 24 20  1  0  0  0  0
 25 24  1  0  0  0  0
 26 27  1  0  0  0  0
 26 25  1  0  0  0  0
 27 28  1  0  0  0  0
 28 24  1  0  0  0  0
M  END
>  <minimizedAffinity>
-6.3637538

>  <minimizedRMSD>
0.215121537

$$$$
