
     RDKit          3D

 34 36  0  0  0  0  0  0  0  0999 V2000
   37.1214   30.2683   50.3328 C   0  0  0  0  0  0  0  0  0  0  0  0
   37.5098   30.1343   51.5007 O   0  0  0  0  0  0  0  0  0  0  0  0
   37.7989   31.0844   49.3335 C   0  0  0  0  0  0  0  0  0  0  0  0
   38.1090   32.3944   49.7007 C   0  0  0  0  0  0  0  0  0  0  0  0
   38.7538   33.2074   48.7814 C   0  0  0  0  0  0  0  0  0  0  0  0
   39.0489   32.6638   47.5543 N   0  0  0  0  0  0  0  0  0  0  0  0
   38.7432   31.4076   47.2235 C   0  0  0  0  0  0  0  0  0  0  0  0
   38.1183   30.6116   48.1072 N   0  0  0  0  0  0  0  0  0  0  0  0
   35.9192   29.5800   49.9087 C   0  0  0  0  0  0  0  0  0  0  0  0
   34.6882   29.8825   50.3864 C   0  0  0  0  0  0  0  0  0  0  0  0
   33.7565   29.0414   49.7792 C   0  0  0  0  0  0  0  0  0  0  0  0
   34.5281   28.2305   48.9173 C   0  0  0  0  0  0  0  0  0  0  0  0
   35.7510   28.6171   49.0649 O   0  0  0  0  0  0  0  0  0  0  0  0
   33.9667   27.1792   48.0584 C   0  0  0  0  0  0  0  0  0  0  0  0
   32.7421   26.8896   48.1470 O   0  0  0  0  0  0  0  0  0  0  0  0
   37.8491   32.7649   50.6860 H   0  0  0  0  0  0  0  0  0  0  0  0
   38.9930   34.2165   49.0633 H   0  0  0  0  0  0  0  0  0  0  0  0
   39.0195   31.0766   46.2313 H   0  0  0  0  0  0  0  0  0  0  0  0
   34.4209   30.6370   51.1137 H   0  0  0  0  0  0  0  0  0  0  0  0
   32.6965   28.9893   49.9076 H   0  0  0  0  0  0  0  0  0  0  0  0
   34.8962   26.5208   47.1313 C   0  0  0  0  0  0  0  0  0  0  0  0
   34.9636   27.2299   45.7780 C   0  0  0  0  0  0  0  0  0  0  0  0
   35.7867   26.2257   44.9923 C   0  0  0  0  0  0  0  0  0  0  0  0
   35.5313   24.8636   45.6535 C   0  0  0  0  0  0  0  0  0  0  0  0
   34.4084   25.1746   46.6530 C   0  0  0  0  0  0  0  0  0  0  0  0
   35.9016   26.4152   47.5354 H   0  0  0  0  0  0  0  0  0  0  0  0
   33.9808   27.2854   45.3033 H   0  0  0  0  0  0  0  0  0  0  0  0
   35.4584   28.2103   45.8588 H   0  0  0  0  0  0  0  0  0  0  0  0
   35.4867   26.2011   43.9226 H   0  0  0  0  0  0  0  0  0  0  0  0
   36.8502   26.5199   45.1116 H   0  0  0  0  0  0  0  0  0  0  0  0
   36.4098   24.5943   46.2819 H   0  0  0  0  0  0  0  0  0  0  0  0
   35.2548   24.0919   44.9289 H   0  0  0  0  0  0  0  0  0  0  0  0
   33.4800   25.2387   46.0489 H   0  0  0  0  0  0  0  0  0  0  0  0
   34.3769   24.4219   47.4587 H   0  0  0  0  0  0  0  0  0  0  0  0
  1  2  2  0
  3  4  2  0
  3  1  1  0
  5  4  1  0
  6  5  2  0
  7  6  1  0
  7  8  2  0
  8  3  1  0
  9  1  1  0
  9 10  2  0
 11 10  1  0
 12 13  1  0
 12 11  2  0
 13  9  1  0
 14 15  2  0
 14 12  1  0
  4 16  1  0
  5 17  1  0
  7 18  1  0
 10 19  1  0
 11 20  1  0
 21 22  1  0
 22 23  1  0
 23 24  1  0
 24 25  1  0
 25 21  1  0
 21 26  1  0
 22 27  1  0
 22 28  1  0
 23 29  1  0
 23 30  1  0
 24 31  1  0
 24 32  1  0
 25 33  1  0
 25 34  1  0
 14 21  1  0
M  ISO  5  16  14  17  14  18  14  19  14  20  14
M  END
>  <DihAtoms>  (1) 
14,13,20,21

>  <DihDeg>  (1) 
120.06935117760167

$$$$
