
 OpenBabel03272504183D

 22 23  0  0  0  0  0  0  0  0999 V2000
   35.9690   30.7680   49.4290 C   0  0  0  0  0  0  0  0  0  0  0  0
   36.2380   29.9760   50.5310 C   0  0  0  0  0  0  0  0  0  0  0  0
   37.4960   30.0460   51.1040 C   0  0  0  0  0  0  0  0  0  0  0  0
   38.4290   30.8920   50.5680 N   0  0  0  0  0  0  0  0  0  0  0  0
   38.1210   31.6530   49.4830 C   0  0  0  0  0  0  0  0  0  0  0  0
   36.8930   31.5970   48.9070 N   0  0  0  0  0  0  0  0  0  0  0  0
   37.6630   29.4240   51.9450 H   0  0  0  0  0  0  0  0  0  0  0  0
   38.8800   32.3270   49.0640 H   0  0  0  0  0  0  0  0  0  0  0  0
   35.1620   29.1620   50.9530 N   0  0  0  0  0  0  0  0  0  0  0  0
   35.3230   28.2550   50.4390 H   0  0  0  0  0  0  0  0  0  0  0  0
   34.3860   29.4200   51.6260 H   0  0  0  0  0  0  0  0  0  0  0  0
   34.7650   30.8270   48.7260 O   0  0  0  0  0  0  0  0  0  0  0  0
   35.4990   29.9520   46.3020 O   0  0  0  0  0  0  0  0  0  0  0  0
   34.4540   29.8120   47.3650 P   0  0  1  0  0  0  0  0  0  0  0  0
   34.3930   28.2260   47.9640 O   0  0  0  0  0  0  0  0  0  0  0  0
   33.9620   28.1710   48.8340 H   0  0  0  0  0  0  0  0  0  0  0  0
   32.9910   30.2710   46.6470 O   0  0  0  0  0  0  0  0  0  0  0  0
   32.3780   29.2030   45.9900 C   0  0  0  0  0  3  0  0  0  0  0  0
   32.0820   28.0560   46.9410 C   0  0  0  0  0  2  0  0  0  0  0  0
   31.8830   26.9160   45.9410 C   0  0  0  0  0  2  0  0  0  0  0  0
   32.9790   27.1620   44.9290 C   0  0  0  0  0  2  0  0  0  0  0  0
   33.4260   28.5840   45.0830 C   0  0  0  0  0  2  0  0  0  0  0  0
  1  2  1  0  0  0  0
  2  9  1  0  0  0  0
  2  3  2  0  0  0  0
  3  7  1  0  0  0  0
  4  3  1  0  0  0  0
  5  4  2  0  0  0  0
  6  1  2  0  0  0  0
  6  5  1  0  0  0  0
  8  5  1  0  0  0  0
  9 11  1  0  0  0  0
 10  9  1  0  0  0  0
 12  1  1  0  0  0  0
 14 13  2  6  0  0  0
 14 15  1  0  0  0  0
 14 12  1  0  0  0  0
 15 16  1  0  0  0  0
 17 14  1  0  0  0  0
 18 17  1  0  0  0  0
 18 19  1  0  0  0  0
 20 19  1  0  0  0  0
 21 22  1  0  0  0  0
 21 20  1  0  0  0  0
 22 18  1  0  0  0  0
M  END
>  <minimizedAffinity>
-3.74728417

>  <minimizedRMSD>
0.689721167

$$$$
