
 OpenBabel03272507273D

 35 37  0  0  1  0  0  0  0  0999 V2000
   36.7150   29.5470   49.8730 C   0  0  0  0  0  0  0  0  0  0  0  0
   37.6120   30.2000   49.0140 C   0  0  0  0  0  0  0  0  0  0  0  0
   37.1690   30.5250   47.7230 C   0  0  0  0  0  0  0  0  0  0  0  0
   35.9220   30.1930   47.3860 N   0  0  0  0  0  0  0  0  0  0  0  0
   35.0820   29.5650   48.2330 C   0  0  0  0  0  0  0  0  0  0  0  0
   35.4820   29.2490   49.4620 N   0  0  0  0  0  0  0  0  0  0  0  0
   38.0320   31.1780   46.8250 N   0  0  0  0  0  0  0  0  0  0  0  0
   39.1250   32.0850   47.1930 C   0  0  0  0  0  0  0  0  0  0  0  0
   39.6130   32.7140   45.9320 C   0  0  0  0  0  0  0  0  0  0  0  0
   38.4860   32.4880   44.9900 C   0  0  0  0  0  0  0  0  0  0  0  0
   38.0410   31.1070   45.3920 C   0  0  2  0  0  0  0  0  0  0  0  0
   36.9950   29.2710   50.8770 H   0  0  0  0  0  0  0  0  0  0  0  0
   38.6080   30.4400   49.3490 H   0  0  0  0  0  0  0  0  0  0  0  0
   34.0920   29.3440   47.8550 H   0  0  0  0  0  0  0  0  0  0  0  0
   39.9390   31.4120   47.5610 H   0  0  0  0  0  0  0  0  0  0  0  0
   38.8310   32.7850   47.9710 H   0  0  0  0  0  0  0  0  0  0  0  0
   39.6720   33.8230   46.1420 H   0  0  0  0  0  0  0  0  0  0  0  0
   40.5740   32.3670   45.5530 H   0  0  0  0  0  0  0  0  0  0  0  0
   38.8210   32.4370   43.9210 H   0  0  0  0  0  0  0  0  0  0  0  0
   37.6710   33.2210   45.1170 H   0  0  0  0  0  0  0  0  0  0  0  0
   36.7850   30.6790   44.7110 C   0  0  0  0  0  0  0  0  0  0  0  0
   35.7370   31.2580   45.4050 F   0  0  0  0  0  0  0  0  0  0  0  0
   36.5580   29.3330   44.6760 F   0  0  0  0  0  0  0  0  0  0  0  0
   36.7990   31.2750   43.4570 F   0  0  0  0  0  0  0  0  0  0  0  0
   39.1070   30.1430   45.0430 C   0  0  0  0  0  0  0  0  0  0  0  0
   38.9410   29.2560   45.6890 H   0  0  0  0  0  0  0  0  0  0  0  0
   40.0780   30.5650   45.4450 H   0  0  0  0  0  0  0  0  0  0  0  0
   39.2260   30.1470   43.8110 O   0  0  0  0  0  0  0  0  0  0  0  0
   39.4960   29.2770   42.8150 C   0  0  0  0  0  0  0  0  0  0  0  0
   38.4540   29.0890   42.1350 O   0  0  0  0  0  0  0  0  0  0  0  0
   40.3970   28.4030   42.0800 C   0  0  0  0  0  3  0  0  0  0  0  0
   39.7360   28.0660   40.7460 C   0  0  0  0  0  2  0  0  0  0  0  0
   40.9790   27.5750   39.9910 C   0  0  0  0  0  2  0  0  0  0  0  0
   41.8600   28.7950   40.1690 C   0  0  0  0  0  2  0  0  0  0  0  0
   41.6920   29.0670   41.6690 C   0  0  0  0  0  2  0  0  0  0  0  0
  1 12  1  0  0  0  0
  2 13  1  0  0  0  0
  2  1  2  0  0  0  0
  3  2  1  0  0  0  0
  4  3  2  0  0  0  0
  4  5  1  0  0  0  0
  5  6  2  0  0  0  0
  6  1  1  0  0  0  0
  7  8  1  0  0  0  0
  7  3  1  0  0  0  0
  8 15  1  0  0  0  0
  8 16  1  0  0  0  0
  9 17  1  0  0  0  0
  9  8  1  0  0  0  0
 10 20  1  0  0  0  0
 10 11  1  0  0  0  0
 10  9  1  0  0  0  0
 11 21  1  6  0  0  0
 11  7  1  0  0  0  0
 14  5  1  0  0  0  0
 18  9  1  0  0  0  0
 19 10  1  0  0  0  0
 21 22  1  0  0  0  0
 23 21  1  0  0  0  0
 24 21  1  0  0  0  0
 25 11  1  0  0  0  0
 25 27  1  0  0  0  0
 25 26  1  0  0  0  0
 28 25  1  0  0  0  0
 29 28  1  0  0  0  0
 30 29  2  0  0  0  0
 31 29  1  0  0  0  0
 32 31  1  0  0  0  0
 33 34  1  0  0  0  0
 33 32  1  0  0  0  0
 34 35  1  0  0  0  0
 35 31  1  0  0  0  0
M  END
>  <minimizedAffinity>
-4.77992916

>  <minimizedRMSD>
1.6205225

$$$$
