
 OpenBabel03262520323D

 19 20  0  0  0  0  0  0  0  0999 V2000
   35.2120   28.6310   49.0320 C   0  0  0  0  0  3  0  0  0  0  0  0
   34.6600   29.0280   47.9340 C   0  0  0  0  0  3  0  0  0  0  0  0
   37.4710   30.2500   51.4230 C   0  0  0  0  0  0  0  0  0  0  0  0
   38.3230   30.9750   50.5430 C   0  0  0  0  0  0  0  0  0  0  0  0
   38.0980   30.8890   49.1450 C   0  0  0  0  0  0  0  0  0  0  0  0
   37.0510   30.0920   48.7580 N   0  0  0  0  0  0  0  0  0  0  0  0
   36.2770   29.4290   49.6190 C   0  0  0  0  0  0  0  0  0  0  0  0
   36.4840   29.5060   50.9430 N   0  0  0  0  0  0  0  0  0  0  0  0
   37.7000   30.3610   52.4750 H   0  0  0  0  0  0  0  0  0  0  0  0
   39.1510   31.6050   50.8450 H   0  0  0  0  0  0  0  0  0  0  0  0
   38.7060   31.4110   48.4430 H   0  0  0  0  0  0  0  0  0  0  0  0
   33.6010   28.3830   47.1880 C   0  0  0  0  0  0  0  0  0  0  0  0
   32.8210   29.1160   46.8900 H   0  0  0  0  0  0  0  0  0  0  0  0
   34.0520   28.0350   46.2120 H   0  0  0  0  0  0  0  0  0  0  0  0
   32.9700   27.1690   47.7940 C   0  0  0  0  0  3  0  0  0  0  0  0
   31.7210   27.7130   48.5170 C   0  0  0  0  0  2  0  0  0  0  0  0
   30.7210   26.6040   48.5190 C   0  0  0  0  0  2  0  0  0  0  0  0
   31.2530   25.5520   47.5920 C   0  0  0  0  0  2  0  0  0  0  0  0
   32.2490   26.3350   46.7250 C   0  0  0  0  0  2  0  0  0  0  0  0
  1  7  1  0  0  0  0
  2  1  2  0  0  0  0
  3  9  1  0  0  0  0
  4 10  1  0  0  0  0
  4  3  2  0  0  0  0
  5  4  1  0  0  0  0
  6  5  2  0  0  0  0
  6  7  1  0  0  0  0
  7  8  2  0  0  0  0
  8  3  1  0  0  0  0
 11  5  1  0  0  0  0
 12 15  1  0  0  0  0
 12  2  1  0  0  0  0
 13 12  1  0  0  0  0
 14 12  1  0  0  0  0
 15 16  1  0  0  0  0
 16 17  1  0  0  0  0
 18 17  1  0  0  0  0
 19 18  1  0  0  0  0
 19 15  1  0  0  0  0
M  END
>  <minimizedAffinity>
-4.22866583

>  <minimizedRMSD>
1.24842298

$$$$
