
 OpenBabel03262520323D

 19 20  0  0  0  0  0  0  0  0999 V2000
   35.2220   28.6620   48.9980 C   0  0  0  0  0  3  0  0  0  0  0  0
   34.6260   29.1070   47.9430 C   0  0  0  0  0  3  0  0  0  0  0  0
   37.4790   30.2500   51.4120 C   0  0  0  0  0  0  0  0  0  0  0  0
   38.3360   30.9810   50.5420 C   0  0  0  0  0  0  0  0  0  0  0  0
   38.1160   30.9090   49.1430 C   0  0  0  0  0  0  0  0  0  0  0  0
   37.0680   30.1190   48.7450 N   0  0  0  0  0  0  0  0  0  0  0  0
   36.2880   29.4510   49.5970 C   0  0  0  0  0  0  0  0  0  0  0  0
   36.4910   29.5140   50.9220 N   0  0  0  0  0  0  0  0  0  0  0  0
   37.7040   30.3510   52.4660 H   0  0  0  0  0  0  0  0  0  0  0  0
   39.1650   31.6050   50.8530 H   0  0  0  0  0  0  0  0  0  0  0  0
   38.7280   31.4350   48.4470 H   0  0  0  0  0  0  0  0  0  0  0  0
   33.5580   28.4810   47.1950 C   0  0  0  0  0  0  0  0  0  0  0  0
   32.7600   29.2140   46.9490 H   0  0  0  0  0  0  0  0  0  0  0  0
   33.9890   28.1820   46.1940 H   0  0  0  0  0  0  0  0  0  0  0  0
   32.9580   27.2320   47.7620 C   0  0  0  0  0  3  0  0  0  0  0  0
   31.7310   27.7270   48.5550 C   0  0  0  0  0  2  0  0  0  0  0  0
   30.7400   26.6090   48.5360 C   0  0  0  0  0  2  0  0  0  0  0  0
   31.2470   25.6100   47.5390 C   0  0  0  0  0  2  0  0  0  0  0  0
   32.2060   26.4440   46.6790 C   0  0  0  0  0  2  0  0  0  0  0  0
  1  7  1  0  0  0  0
  2  1  2  0  0  0  0
  3  9  1  0  0  0  0
  4 10  1  0  0  0  0
  4  3  2  0  0  0  0
  5  4  1  0  0  0  0
  6  5  2  0  0  0  0
  6  7  1  0  0  0  0
  7  8  2  0  0  0  0
  8  3  1  0  0  0  0
 11  5  1  0  0  0  0
 12 15  1  0  0  0  0
 12  2  1  0  0  0  0
 13 12  1  0  0  0  0
 14 12  1  0  0  0  0
 15 16  1  0  0  0  0
 17 16  1  0  0  0  0
 18 17  1  0  0  0  0
 19 18  1  0  0  0  0
 19 15  1  0  0  0  0
M  END
>  <minimizedAffinity>
-4.22999859

>  <minimizedRMSD>
1.57302189

$$$$
