
 OpenBabel03272504573D

 29 31  0  0  1  0  0  0  0  0999 V2000
   37.0060   31.5450   48.6410 C   0  0  1  0  0  0  0  0  0  0  0  0
   36.2720   30.8630   47.6010 C   0  0  0  0  0  0  0  0  0  0  0  0
   37.2260   30.1020   48.4580 C   0  0  2  0  0  0  0  0  0  0  0  0
   36.5400   31.8150   49.6500 H   0  0  0  0  0  0  0  0  0  0  0  0
   35.2360   31.1090   47.7300 H   0  0  0  0  0  0  0  0  0  0  0  0
   36.6070   31.0680   46.5600 H   0  0  0  0  0  0  0  0  0  0  0  0
   37.9190   29.5550   47.8340 H   0  0  0  0  0  0  0  0  0  0  0  0
   38.1570   32.4520   48.3030 C   0  0  0  0  0  0  0  0  0  0  0  0
   38.5150   33.3870   49.3000 C   0  0  0  0  0  0  0  0  0  0  0  0
   39.5740   34.1980   48.9750 C   0  0  0  0  0  0  0  0  0  0  0  0
   40.1960   34.0680   47.7730 N   0  0  0  0  0  0  0  0  0  0  0  0
   39.8220   33.1590   46.8450 C   0  0  0  0  0  0  0  0  0  0  0  0
   38.7660   32.3320   47.1320 N   0  0  0  0  0  0  0  0  0  0  0  0
   40.4600   32.9910   45.6090 N   0  0  0  0  0  0  0  0  0  0  0  0
   38.0240   33.4920   50.2560 H   0  0  0  0  0  0  0  0  0  0  0  0
   39.9200   34.9430   49.6760 H   0  0  0  0  0  0  0  0  0  0  0  0
   40.5480   33.7070   44.8510 H   0  0  0  0  0  0  0  0  0  0  0  0
   40.9600   32.1630   45.1890 H   0  0  0  0  0  0  0  0  0  0  0  0
   36.6460   29.2930   49.4420 O   0  0  0  0  0  0  0  0  0  0  0  0
   34.6260   27.7220   49.7560 O   0  0  0  0  0  0  0  0  0  0  0  0
   35.0540   28.9720   49.0580 P   0  0  1  0  0  0  0  0  0  0  0  0
   34.0560   30.1950   49.7950 O   0  0  0  0  0  0  0  0  0  0  0  0
   34.4410   30.4330   50.6760 H   0  0  0  0  0  0  0  0  0  0  0  0
   34.8330   28.9990   47.4230 O   0  0  0  0  0  0  0  0  0  0  0  0
   33.9090   28.2240   46.8430 C   0  0  0  0  0  3  0  0  0  0  0  0
   34.1040   28.3120   45.3390 C   0  0  0  0  0  2  0  0  0  0  0  0
   32.9540   27.4440   44.8790 C   0  0  0  0  0  2  0  0  0  0  0  0
   31.8590   27.7170   45.8730 C   0  0  0  0  0  2  0  0  0  0  0  0
   32.4750   28.5800   46.9740 C   0  0  0  0  0  2  0  0  0  0  0  0
  1  4  1  1  0  0  0
  2  5  1  0  0  0  0
  2  3  1  0  0  0  0
  2  1  1  0  0  0  0
  3  7  1  6  0  0  0
  3  1  1  0  0  0  0
  3 19  1  0  0  0  0
  6  2  1  0  0  0  0
  8  1  1  0  0  0  0
  8  9  1  0  0  0  0
  9 15  1  0  0  0  0
 10  9  2  0  0  0  0
 10 16  1  0  0  0  0
 11 10  1  0  0  0  0
 12 13  1  0  0  0  0
 12 11  2  0  0  0  0
 13  8  2  0  0  0  0
 14 12  1  0  0  0  0
 17 14  1  0  0  0  0
 18 14  1  0  0  0  0
 21 19  1  0  0  0  0
 21 20  2  1  0  0  0
 21 22  1  0  0  0  0
 22 23  1  0  0  0  0
 24 21  1  0  0  0  0
 25 29  1  0  0  0  0
 25 24  1  0  0  0  0
 26 25  1  0  0  0  0
 27 26  1  0  0  0  0
 27 28  1  0  0  0  0
 28 29  1  0  0  0  0
M  END
>  <minimizedAffinity>
-4.57925463

>  <minimizedRMSD>
1.06806922

$$$$
