
 OpenBabel03262521073D

 38 40  0  0  1  0  0  0  0  0999 V2000
   38.6340   26.2660   34.2690 C   0  0  2  0  0  0  0  0  0  0  0  0
   37.9910   27.2980   35.1110 C   0  0  0  0  0  0  0  0  0  0  0  0
   36.6420   27.7260   34.5770 C   0  0  0  0  0  0  0  0  0  0  0  0
   36.6950   28.2040   33.1500 C   0  0  0  0  0  0  0  0  0  0  0  0
   37.6450   27.4210   32.2930 C   0  0  0  0  0  0  0  0  0  0  0  0
   38.0020   26.0840   32.9260 C   0  0  2  0  0  0  0  0  0  0  0  0
   39.7120   26.5460   34.0500 H   0  0  0  0  0  0  0  0  0  0  0  0
   38.6200   28.2520   35.0620 H   0  0  0  0  0  0  0  0  0  0  0  0
   37.8150   27.1410   36.1550 H   0  0  0  0  0  0  0  0  0  0  0  0
   35.9190   26.9110   34.7540 H   0  0  0  0  0  0  0  0  0  0  0  0
   36.3100   28.5900   35.2000 H   0  0  0  0  0  0  0  0  0  0  0  0
   36.8430   29.3010   33.0680 H   0  0  0  0  0  0  0  0  0  0  0  0
   35.6630   28.0200   32.7300 H   0  0  0  0  0  0  0  0  0  0  0  0
   37.2790   27.3340   31.2780 H   0  0  0  0  0  0  0  0  0  0  0  0
   38.6070   28.0010   32.2360 H   0  0  0  0  0  0  0  0  0  0  0  0
   38.7910   25.6430   32.2490 H   0  0  0  0  0  0  0  0  0  0  0  0
   38.7140   24.9450   34.9130 C   0  0  0  0  0  0  0  0  0  0  0  0
   38.2020   24.8860   36.2270 C   0  0  0  0  0  0  0  0  0  0  0  0
   38.2420   23.6400   36.8490 C   0  0  0  0  0  0  0  0  0  0  0  0
   38.7570   22.5680   36.1850 N   0  0  0  0  0  0  0  0  0  0  0  0
   39.2400   22.6760   34.9190 C   0  0  0  0  0  0  0  0  0  0  0  0
   39.2040   23.8440   34.3320 N   0  0  0  0  0  0  0  0  0  0  0  0
   37.7660   25.5340   36.9620 H   0  0  0  0  0  0  0  0  0  0  0  0
   37.9230   23.3220   37.8300 H   0  0  0  0  0  0  0  0  0  0  0  0
   39.6510   21.8410   34.3800 H   0  0  0  0  0  0  0  0  0  0  0  0
   36.8730   25.2650   32.8090 N   0  0  0  0  0  0  0  0  0  0  0  0
   36.5740   24.7360   33.6630 H   0  0  0  0  0  0  0  0  0  0  0  0
   36.7860   24.2930   31.4180 S   0  0  0  0  0  0  0  0  0  0  0  0
   35.3290   24.2640   30.9890 O   0  0  0  0  0  0  0  0  0  0  0  0
   34.7370   23.4880   31.1730 H   0  0  0  0  0  0  0  0  0  0  0  0
   37.6150   24.8110   30.2800 O   0  0  0  0  0  0  0  0  0  0  0  0
   38.5880   25.0000   30.2570 H   0  0  0  0  0  0  0  0  0  0  0  0
   37.2110   22.7050   31.7260 O   0  0  0  0  0  0  0  0  0  0  0  0
   36.0470   22.0670   32.0580 C   0  0  0  0  0  3  0  0  0  0  0  0
   35.6470   20.9370   31.1620 C   0  0  0  0  0  2  0  0  0  0  0  0
   34.7260   20.1110   32.0610 C   0  0  0  0  0  2  0  0  0  0  0  0
   35.4890   20.0930   33.3570 C   0  0  0  0  0  2  0  0  0  0  0  0
   36.1750   21.4200   33.4410 C   0  0  0  0  0  2  0  0  0  0  0  0
  1  7  1  6  0  0  0
  1 17  1  0  0  0  0
  1  2  1  0  0  0  0
  2  9  1  0  0  0  0
  3 10  1  0  0  0  0
  3  2  1  0  0  0  0
  3 11  1  0  0  0  0
  4  3  1  0  0  0  0
  5  6  1  0  0  0  0
  5  4  1  0  0  0  0
  6 16  1  6  0  0  0
  6  1  1  0  0  0  0
  8  2  1  0  0  0  0
 12  4  1  0  0  0  0
 13  4  1  0  0  0  0
 14  5  1  0  0  0  0
 15  5  1  0  0  0  0
 17 18  1  0  0  0  0
 18 19  2  0  0  0  0
 18 23  1  0  0  0  0
 19 24  1  0  0  0  0
 20 19  1  0  0  0  0
 21 20  2  0  0  0  0
 22 17  2  0  0  0  0
 22 21  1  0  0  0  0
 25 21  1  0  0  0  0
 26  6  1  0  0  0  0
 26 27  1  0  0  0  0
 28 33  1  0  0  0  0
 28 26  1  0  0  0  0
 29 30  1  0  0  0  0
 29 28  1  0  0  0  0
 31 28  1  0  0  0  0
 32 31  1  0  0  0  0
 33 34  1  0  0  0  0
 34 38  1  0  0  0  0
 35 34  1  0  0  0  0
 35 36  1  0  0  0  0
 36 37  1  0  0  0  0
 37 38  1  0  0  0  0
M  END
>  <minimizedAffinity>
-5.58224535

$$$$

 OpenBabel03262521073D

 38 40  0  0  1  0  0  0  0  0999 V2000
   38.6540   26.1320   34.4610 C   0  0  2  0  0  0  0  0  0  0  0  0
   38.0380   27.2910   35.1420 C   0  0  0  0  0  0  0  0  0  0  0  0
   36.7920   27.7840   34.4410 C   0  0  0  0  0  0  0  0  0  0  0  0
   37.0220   28.1190   32.9910 C   0  0  0  0  0  0  0  0  0  0  0  0
   37.9680   27.1780   32.3030 C   0  0  0  0  0  0  0  0  0  0  0  0
   38.1340   25.8800   33.0810 C   0  0  2  0  0  0  0  0  0  0  0  0
   39.7700   26.2940   34.3270 H   0  0  0  0  0  0  0  0  0  0  0  0
   38.7590   28.1770   35.0760 H   0  0  0  0  0  0  0  0  0  0  0  0
   37.7540   27.2490   36.1730 H   0  0  0  0  0  0  0  0  0  0  0  0
   35.9800   27.0560   34.6130 H   0  0  0  0  0  0  0  0  0  0  0  0
   36.4890   28.7290   34.9520 H   0  0  0  0  0  0  0  0  0  0  0  0
   37.2840   29.1860   32.8310 H   0  0  0  0  0  0  0  0  0  0  0  0
   36.0210   27.9880   32.4860 H   0  0  0  0  0  0  0  0  0  0  0  0
   37.6900   27.0280   31.2690 H   0  0  0  0  0  0  0  0  0  0  0  0
   38.9820   27.6630   32.2940 H   0  0  0  0  0  0  0  0  0  0  0  0
   38.9350   25.3100   32.5270 H   0  0  0  0  0  0  0  0  0  0  0  0
   38.5460   24.8760   35.2190 C   0  0  0  0  0  0  0  0  0  0  0  0
   37.9120   24.9850   36.4760 C   0  0  0  0  0  0  0  0  0  0  0  0
   37.7740   23.8060   37.2020 C   0  0  0  0  0  0  0  0  0  0  0  0
   38.2410   22.6340   36.6870 N   0  0  0  0  0  0  0  0  0  0  0  0
   38.8470   22.5800   35.4710 C   0  0  0  0  0  0  0  0  0  0  0  0
   38.9780   23.6850   34.7860 N   0  0  0  0  0  0  0  0  0  0  0  0
   37.4750   25.7360   37.1050 H   0  0  0  0  0  0  0  0  0  0  0  0
   37.3360   23.6110   38.1690 H   0  0  0  0  0  0  0  0  0  0  0  0
   39.2220   21.6640   35.0500 H   0  0  0  0  0  0  0  0  0  0  0  0
   36.9460   25.1560   32.9210 N   0  0  0  0  0  0  0  0  0  0  0  0
   36.4270   24.8880   33.7920 H   0  0  0  0  0  0  0  0  0  0  0  0
   36.9860   23.8750   31.8060 S   0  0  0  0  0  0  0  0  0  0  0  0
   37.0140   24.4960   30.4200 O   0  0  0  0  0  0  0  0  0  0  0  0
   36.2060   24.5420   29.8440 H   0  0  0  0  0  0  0  0  0  0  0  0
   38.1880   22.9910   31.9630 O   0  0  0  0  0  0  0  0  0  0  0  0
   38.4880   22.4890   32.7640 H   0  0  0  0  0  0  0  0  0  0  0  0
   35.6040   22.9360   31.8680 O   0  0  0  0  0  0  0  0  0  0  0  0
   36.0250   21.6770   32.1960 C   0  0  0  0  0  3  0  0  0  0  0  0
   35.5240   21.1430   33.5010 C   0  0  0  0  0  2  0  0  0  0  0  0
   35.6530   19.6310   33.3120 C   0  0  0  0  0  2  0  0  0  0  0  0
   35.1150   19.4430   31.9200 C   0  0  0  0  0  2  0  0  0  0  0  0
   35.5240   20.6650   31.1600 C   0  0  0  0  0  2  0  0  0  0  0  0
  1  7  1  6  0  0  0
  1  2  1  0  0  0  0
  1 17  1  0  0  0  0
  2  9  1  0  0  0  0
  3 10  1  0  0  0  0
  3 11  1  0  0  0  0
  3  2  1  0  0  0  0
  4  3  1  0  0  0  0
  5  4  1  0  0  0  0
  5  6  1  0  0  0  0
  6 16  1  6  0  0  0
  6  1  1  0  0  0  0
  8  2  1  0  0  0  0
 12  4  1  0  0  0  0
 13  4  1  0  0  0  0
 14  5  1  0  0  0  0
 15  5  1  0  0  0  0
 17 18  1  0  0  0  0
 18 23  1  0  0  0  0
 18 19  2  0  0  0  0
 19 24  1  0  0  0  0
 20 19  1  0  0  0  0
 21 20  2  0  0  0  0
 22 17  2  0  0  0  0
 22 21  1  0  0  0  0
 25 21  1  0  0  0  0
 26  6  1  0  0  0  0
 26 27  1  0  0  0  0
 28 33  1  0  0  0  0
 28 31  1  0  0  0  0
 28 26  1  0  0  0  0
 29 28  1  0  0  0  0
 30 29  1  0  0  0  0
 31 32  1  0  0  0  0
 33 34  1  0  0  0  0
 34 35  1  0  0  0  0
 36 35  1  0  0  0  0
 37 36  1  0  0  0  0
 38 37  1  0  0  0  0
 38 34  1  0  0  0  0
M  END
>  <minimizedAffinity>
-5.41630554

$$$$

 OpenBabel03262521073D

 38 40  0  0  1  0  0  0  0  0999 V2000
   38.8450   26.3820   34.7720 C   0  0  2  0  0  0  0  0  0  0  0  0
   38.0310   27.4550   35.3810 C   0  0  0  0  0  0  0  0  0  0  0  0
   36.7470   27.7130   34.6240 C   0  0  0  0  0  0  0  0  0  0  0  0
   36.9710   28.0200   33.1660 C   0  0  0  0  0  0  0  0  0  0  0  0
   38.0770   27.2140   32.5500 C   0  0  0  0  0  0  0  0  0  0  0  0
   38.4200   25.9930   33.3920 C   0  0  2  0  0  0  0  0  0  0  0  0
   39.9250   26.7150   34.6620 H   0  0  0  0  0  0  0  0  0  0  0  0
   38.6040   28.4410   35.2930 H   0  0  0  0  0  0  0  0  0  0  0  0
   37.7200   27.4110   36.4040 H   0  0  0  0  0  0  0  0  0  0  0  0
   36.0550   26.8730   34.8080 H   0  0  0  0  0  0  0  0  0  0  0  0
   36.2810   28.6170   35.0820 H   0  0  0  0  0  0  0  0  0  0  0  0
   37.0650   29.1070   32.9650 H   0  0  0  0  0  0  0  0  0  0  0  0
   36.0210   27.7090   32.6410 H   0  0  0  0  0  0  0  0  0  0  0  0
   37.8620   26.9790   31.5160 H   0  0  0  0  0  0  0  0  0  0  0  0
   39.0010   27.8540   32.5460 H   0  0  0  0  0  0  0  0  0  0  0  0
   39.3200   25.5360   32.8870 H   0  0  0  0  0  0  0  0  0  0  0  0
   38.9110   25.1570   35.5840 C   0  0  0  0  0  0  0  0  0  0  0  0
   38.1000   25.1590   36.7400 C   0  0  0  0  0  0  0  0  0  0  0  0
   38.1250   24.0010   37.5130 C   0  0  0  0  0  0  0  0  0  0  0  0
   38.9060   22.9510   37.1350 N   0  0  0  0  0  0  0  0  0  0  0  0
   39.6720   22.9980   36.0130 C   0  0  0  0  0  0  0  0  0  0  0  0
   39.6500   24.0830   35.2840 N   0  0  0  0  0  0  0  0  0  0  0  0
   37.4260   25.8100   37.2610 H   0  0  0  0  0  0  0  0  0  0  0  0
   37.6110   23.7410   38.4260 H   0  0  0  0  0  0  0  0  0  0  0  0
   40.2950   22.1790   35.6990 H   0  0  0  0  0  0  0  0  0  0  0  0
   37.3680   25.0820   33.2330 N   0  0  0  0  0  0  0  0  0  0  0  0
   36.7770   24.8810   34.0760 H   0  0  0  0  0  0  0  0  0  0  0  0
   37.7220   23.6610   32.3730 S   0  0  0  0  0  0  0  0  0  0  0  0
   37.0600   23.7910   31.0120 O   0  0  0  0  0  0  0  0  0  0  0  0
   36.2100   23.3270   30.7890 H   0  0  0  0  0  0  0  0  0  0  0  0
   39.1930   23.4390   32.1750 O   0  0  0  0  0  0  0  0  0  0  0  0
   39.9070   23.3700   32.8600 H   0  0  0  0  0  0  0  0  0  0  0  0
   37.0550   22.3040   33.0860 O   0  0  0  0  0  0  0  0  0  0  0  0
   36.4710   21.5990   32.0690 C   0  0  0  0  0  3  0  0  0  0  0  0
   37.1400   20.3110   31.7040 C   0  0  0  0  0  2  0  0  0  0  0  0
   36.0120   19.5330   31.0260 C   0  0  0  0  0  2  0  0  0  0  0  0
   34.8540   19.7930   31.9490 C   0  0  0  0  0  2  0  0  0  0  0  0
   35.0500   21.1850   32.4620 C   0  0  0  0  0  2  0  0  0  0  0  0
  1  7  1  6  0  0  0
  1  2  1  0  0  0  0
  1 17  1  0  0  0  0
  2  9  1  0  0  0  0
  3 10  1  0  0  0  0
  3 11  1  0  0  0  0
  3  2  1  0  0  0  0
  4  3  1  0  0  0  0
  5  4  1  0  0  0  0
  5  6  1  0  0  0  0
  6 16  1  6  0  0  0
  6  1  1  0  0  0  0
  8  2  1  0  0  0  0
 12  4  1  0  0  0  0
 13  4  1  0  0  0  0
 14  5  1  0  0  0  0
 15  5  1  0  0  0  0
 17 18  1  0  0  0  0
 18 23  1  0  0  0  0
 18 19  2  0  0  0  0
 19 24  1  0  0  0  0
 20 19  1  0  0  0  0
 21 20  2  0  0  0  0
 22 17  2  0  0  0  0
 22 21  1  0  0  0  0
 25 21  1  0  0  0  0
 26  6  1  0  0  0  0
 26 27  1  0  0  0  0
 28 33  1  0  0  0  0
 28 26  1  0  0  0  0
 29 28  1  0  0  0  0
 30 29  1  0  0  0  0
 31 28  1  0  0  0  0
 31 32  1  0  0  0  0
 34 38  1  0  0  0  0
 34 33  1  0  0  0  0
 35 34  1  0  0  0  0
 36 35  1  0  0  0  0
 36 37  1  0  0  0  0
 37 38  1  0  0  0  0
M  END
>  <minimizedAffinity>
-5.24589014

$$$$

 OpenBabel03262521073D

 38 40  0  0  1  0  0  0  0  0999 V2000
   37.7560   26.7590   34.1380 C   0  0  2  0  0  0  0  0  0  0  0  0
   38.9830   27.1960   34.8370 C   0  0  0  0  0  0  0  0  0  0  0  0
   40.0680   26.1420   34.8230 C   0  0  0  0  0  0  0  0  0  0  0  0
   39.6160   24.8200   35.3840 C   0  0  0  0  0  0  0  0  0  0  0  0
   38.2020   24.4700   35.0220 C   0  0  0  0  0  0  0  0  0  0  0  0
   37.7030   25.2940   33.8430 C   0  0  2  0  0  0  0  0  0  0  0  0
   36.8400   26.9620   34.7770 H   0  0  0  0  0  0  0  0  0  0  0  0
   38.7420   27.3270   35.9480 H   0  0  0  0  0  0  0  0  0  0  0  0
   39.4950   28.0950   34.5620 H   0  0  0  0  0  0  0  0  0  0  0  0
   40.4860   26.0820   33.8030 H   0  0  0  0  0  0  0  0  0  0  0  0
   40.8870   26.5160   35.4830 H   0  0  0  0  0  0  0  0  0  0  0  0
   39.8210   24.7200   36.4690 H   0  0  0  0  0  0  0  0  0  0  0  0
   40.2710   24.0420   34.8930 H   0  0  0  0  0  0  0  0  0  0  0  0
   38.0840   23.4040   34.8840 H   0  0  0  0  0  0  0  0  0  0  0  0
   37.5490   24.7540   35.8930 H   0  0  0  0  0  0  0  0  0  0  0  0
   36.6130   25.0190   33.7380 H   0  0  0  0  0  0  0  0  0  0  0  0
   37.5040   27.4810   32.8810 C   0  0  0  0  0  0  0  0  0  0  0  0
   36.2360   28.0940   32.7840 C   0  0  0  0  0  0  0  0  0  0  0  0
   35.9810   28.8060   31.6150 C   0  0  0  0  0  0  0  0  0  0  0  0
   36.9350   28.8770   30.6450 N   0  0  0  0  0  0  0  0  0  0  0  0
   38.1420   28.2670   30.7830 C   0  0  0  0  0  0  0  0  0  0  0  0
   38.3840   27.5990   31.8810 N   0  0  0  0  0  0  0  0  0  0  0  0
   35.3330   28.1930   33.3560 H   0  0  0  0  0  0  0  0  0  0  0  0
   35.1130   29.3580   31.2910 H   0  0  0  0  0  0  0  0  0  0  0  0
   38.9070   28.3130   30.0280 H   0  0  0  0  0  0  0  0  0  0  0  0
   38.3510   24.8030   32.7020 N   0  0  0  0  0  0  0  0  0  0  0  0
   39.1350   25.3790   32.3120 H   0  0  0  0  0  0  0  0  0  0  0  0
   37.3520   24.2010   31.4670 S   0  0  0  0  0  0  0  0  0  0  0  0
   35.9220   24.5410   31.8490 O   0  0  0  0  0  0  0  0  0  0  0  0
   35.3010   23.8680   32.2340 H   0  0  0  0  0  0  0  0  0  0  0  0
   37.6480   24.7980   30.1230 O   0  0  0  0  0  0  0  0  0  0  0  0
   38.5030   24.8030   29.6210 H   0  0  0  0  0  0  0  0  0  0  0  0
   37.4190   22.5350   31.3520 O   0  0  0  0  0  0  0  0  0  0  0  0
   36.2490   22.0780   31.8960 C   0  0  0  0  0  3  0  0  0  0  0  0
   35.5310   21.0300   31.1060 C   0  0  0  0  0  2  0  0  0  0  0  0
   34.6690   20.3460   32.1680 C   0  0  0  0  0  2  0  0  0  0  0  0
   35.6380   20.2010   33.3100 C   0  0  0  0  0  2  0  0  0  0  0  0
   36.5200   21.4080   33.2470 C   0  0  0  0  0  2  0  0  0  0  0  0
  1  7  1  1  0  0  0
  1  2  1  0  0  0  0
  2  8  1  0  0  0  0
  3  2  1  0  0  0  0
  3  4  1  0  0  0  0
  3 11  1  0  0  0  0
  4 12  1  0  0  0  0
  5  4  1  0  0  0  0
  5 15  1  0  0  0  0
  6 16  1  6  0  0  0
  6  1  1  0  0  0  0
  6  5  1  0  0  0  0
  9  2  1  0  0  0  0
 10  3  1  0  0  0  0
 13  4  1  0  0  0  0
 14  5  1  0  0  0  0
 17  1  1  0  0  0  0
 18 17  1  0  0  0  0
 18 23  1  0  0  0  0
 19 18  2  0  0  0  0
 20 21  2  0  0  0  0
 20 19  1  0  0  0  0
 21 22  1  0  0  0  0
 22 17  2  0  0  0  0
 24 19  1  0  0  0  0
 25 21  1  0  0  0  0
 26  6  1  0  0  0  0
 27 26  1  0  0  0  0
 28 29  1  0  0  0  0
 28 26  1  0  0  0  0
 29 30  1  0  0  0  0
 31 28  1  0  0  0  0
 32 31  1  0  0  0  0
 33 28  1  0  0  0  0
 33 34  1  0  0  0  0
 34 38  1  0  0  0  0
 35 34  1  0  0  0  0
 35 36  1  0  0  0  0
 36 37  1  0  0  0  0
 38 37  1  0  0  0  0
M  END
>  <minimizedAffinity>
-5.17356348

$$$$

 OpenBabel03262521073D

 38 40  0  0  1  0  0  0  0  0999 V2000
   37.8810   25.1290   33.8960 C   0  0  2  0  0  0  0  0  0  0  0  0
   38.5290   26.3190   33.3040 C   0  0  0  0  0  0  0  0  0  0  0  0
   39.5820   26.9190   34.2090 C   0  0  0  0  0  0  0  0  0  0  0  0
   39.0600   27.2620   35.5790 C   0  0  0  0  0  0  0  0  0  0  0  0
   38.0730   26.2640   36.1080 C   0  0  0  0  0  0  0  0  0  0  0  0
   38.1490   24.9430   35.3550 C   0  0  2  0  0  0  0  0  0  0  0  0
   36.7510   25.2080   33.8140 H   0  0  0  0  0  0  0  0  0  0  0  0
   37.7460   27.1490   33.2070 H   0  0  0  0  0  0  0  0  0  0  0  0
   39.0040   26.2810   32.3460 H   0  0  0  0  0  0  0  0  0  0  0  0
   40.4620   26.2530   34.2130 H   0  0  0  0  0  0  0  0  0  0  0  0
   39.9070   27.8750   33.7330 H   0  0  0  0  0  0  0  0  0  0  0  0
   38.6980   28.3080   35.6530 H   0  0  0  0  0  0  0  0  0  0  0  0
   39.9560   27.2170   36.2650 H   0  0  0  0  0  0  0  0  0  0  0  0
   38.1610   26.1540   37.1810 H   0  0  0  0  0  0  0  0  0  0  0  0
   37.0420   26.6700   35.9130 H   0  0  0  0  0  0  0  0  0  0  0  0
   37.3010   24.3240   35.7690 H   0  0  0  0  0  0  0  0  0  0  0  0
   38.2190   23.8720   33.2120 C   0  0  0  0  0  0  0  0  0  0  0  0
   39.0250   24.0120   32.0610 C   0  0  0  0  0  0  0  0  0  0  0  0
   39.3810   22.8340   31.4090 C   0  0  0  0  0  0  0  0  0  0  0  0
   38.9500   21.6360   31.8930 N   0  0  0  0  0  0  0  0  0  0  0  0
   38.1730   21.5520   33.0060 C   0  0  0  0  0  0  0  0  0  0  0  0
   37.8380   22.6560   33.6200 N   0  0  0  0  0  0  0  0  0  0  0  0
   39.4810   24.7860   31.4750 H   0  0  0  0  0  0  0  0  0  0  0  0
   39.9770   22.6590   30.5270 H   0  0  0  0  0  0  0  0  0  0  0  0
   37.8240   20.6150   33.4020 H   0  0  0  0  0  0  0  0  0  0  0  0
   39.3350   24.3150   35.7570 N   0  0  0  0  0  0  0  0  0  0  0  0
   40.0080   24.0360   35.0030 H   0  0  0  0  0  0  0  0  0  0  0  0
   39.1840   23.0980   36.9330 S   0  0  0  0  0  0  0  0  0  0  0  0
   38.2720   23.6430   38.0190 O   0  0  0  0  0  0  0  0  0  0  0  0
   38.6220   23.9840   38.8840 H   0  0  0  0  0  0  0  0  0  0  0  0
   38.5930   21.8270   36.3980 O   0  0  0  0  0  0  0  0  0  0  0  0
   38.9140   21.2600   35.6500 H   0  0  0  0  0  0  0  0  0  0  0  0
   40.6400   22.7530   37.6790 O   0  0  0  0  0  0  0  0  0  0  0  0
   41.5100   22.4430   36.6700 C   0  0  0  0  0  3  0  0  0  0  0  0
   42.7500   23.2780   36.6010 C   0  0  0  0  0  2  0  0  0  0  0  0
   43.7150   22.3770   35.8310 C   0  0  0  0  0  2  0  0  0  0  0  0
   43.4840   21.0420   36.4840 C   0  0  0  0  0  2  0  0  0  0  0  0
   42.0320   21.0130   36.8420 C   0  0  0  0  0  2  0  0  0  0  0  0
  1  7  1  6  0  0  0
  1  6  1  0  0  0  0
  2  1  1  0  0  0  0
  2  3  1  0  0  0  0
  3 10  1  0  0  0  0
  3  4  1  0  0  0  0
  4 12  1  0  0  0  0
  4  5  1  0  0  0  0
  4 13  1  0  0  0  0
  5 14  1  0  0  0  0
  6 26  1  0  0  0  0
  6 16  1  1  0  0  0
  6  5  1  0  0  0  0
  8  2  1  0  0  0  0
  9  2  1  0  0  0  0
 11  3  1  0  0  0  0
 15  5  1  0  0  0  0
 17 22  1  0  0  0  0
 17  1  1  0  0  0  0
 18 17  2  0  0  0  0
 19 20  2  0  0  0  0
 19 18  1  0  0  0  0
 20 21  1  0  0  0  0
 21 25  1  0  0  0  0
 21 22  2  0  0  0  0
 23 18  1  0  0  0  0
 24 19  1  0  0  0  0
 26 28  1  0  0  0  0
 27 26  1  0  0  0  0
 28 33  1  0  0  0  0
 28 29  1  0  0  0  0
 29 30  1  0  0  0  0
 31 28  1  0  0  0  0
 32 31  1  0  0  0  0
 34 38  1  0  0  0  0
 34 33  1  0  0  0  0
 35 34  1  0  0  0  0
 36 37  1  0  0  0  0
 36 35  1  0  0  0  0
 37 38  1  0  0  0  0
M  END
>  <minimizedAffinity>
-5.00654507

$$$$

 OpenBabel03262521073D

 38 40  0  0  1  0  0  0  0  0999 V2000
   39.3100   26.3610   34.7040 C   0  0  2  0  0  0  0  0  0  0  0  0
   38.5780   27.3320   35.5450 C   0  0  0  0  0  0  0  0  0  0  0  0
   37.1530   27.5450   35.0830 C   0  0  0  0  0  0  0  0  0  0  0  0
   37.0550   27.9590   33.6380 C   0  0  0  0  0  0  0  0  0  0  0  0
   38.0550   27.2750   32.7520 C   0  0  0  0  0  0  0  0  0  0  0  0
   38.6330   26.0310   33.4120 C   0  0  2  0  0  0  0  0  0  0  0  0
   40.3230   26.7770   34.4050 H   0  0  0  0  0  0  0  0  0  0  0  0
   39.0630   28.3610   35.4200 H   0  0  0  0  0  0  0  0  0  0  0  0
   38.4880   27.2020   36.6030 H   0  0  0  0  0  0  0  0  0  0  0  0
   36.5640   26.6480   35.3370 H   0  0  0  0  0  0  0  0  0  0  0  0
   36.7400   28.3830   35.6930 H   0  0  0  0  0  0  0  0  0  0  0  0
   37.0430   29.0600   33.5050 H   0  0  0  0  0  0  0  0  0  0  0  0
   36.0370   27.6150   33.2930 H   0  0  0  0  0  0  0  0  0  0  0  0
   37.6470   27.0910   31.7680 H   0  0  0  0  0  0  0  0  0  0  0  0
   38.9210   27.9790   32.6120 H   0  0  0  0  0  0  0  0  0  0  0  0
   39.4350   25.6720   32.7030 H   0  0  0  0  0  0  0  0  0  0  0  0
   39.6120   25.0960   35.3910 C   0  0  0  0  0  0  0  0  0  0  0  0
   40.8900   24.5590   35.1250 C   0  0  0  0  0  0  0  0  0  0  0  0
   41.2110   23.3740   35.7830 C   0  0  0  0  0  0  0  0  0  0  0  0
   40.3070   22.8020   36.6270 N   0  0  0  0  0  0  0  0  0  0  0  0
   39.0870   23.3580   36.8500 C   0  0  0  0  0  0  0  0  0  0  0  0
   38.7830   24.4700   36.2340 N   0  0  0  0  0  0  0  0  0  0  0  0
   41.7580   24.7750   34.5330 H   0  0  0  0  0  0  0  0  0  0  0  0
   42.1020   22.7650   35.7620 H   0  0  0  0  0  0  0  0  0  0  0  0
   38.3610   22.9200   37.5120 H   0  0  0  0  0  0  0  0  0  0  0  0
   37.6250   25.0590   33.3990 N   0  0  0  0  0  0  0  0  0  0  0  0
   37.1130   24.8880   34.2980 H   0  0  0  0  0  0  0  0  0  0  0  0
   37.9920   23.6010   32.6090 S   0  0  0  0  0  0  0  0  0  0  0  0
   39.1240   23.8950   31.6400 O   0  0  0  0  0  0  0  0  0  0  0  0
   38.9720   24.0080   30.6650 H   0  0  0  0  0  0  0  0  0  0  0  0
   38.4290   22.5130   33.5460 O   0  0  0  0  0  0  0  0  0  0  0  0
   37.9450   22.1330   34.3240 H   0  0  0  0  0  0  0  0  0  0  0  0
   36.7180   23.0440   31.6800 O   0  0  0  0  0  0  0  0  0  0  0  0
   36.5170   21.7470   32.0660 C   0  0  0  0  0  3  0  0  0  0  0  0
   35.1060   21.3800   32.4020 C   0  0  0  0  0  2  0  0  0  0  0  0
   35.1040   19.8620   32.2150 C   0  0  0  0  0  2  0  0  0  0  0  0
   35.8630   19.7050   30.9260 C   0  0  0  0  0  2  0  0  0  0  0  0
   36.8900   20.7920   30.9270 C   0  0  0  0  0  2  0  0  0  0  0  0
  1  7  1  6  0  0  0
  1 17  1  0  0  0  0
  1  2  1  0  0  0  0
  2  9  1  0  0  0  0
  3 10  1  0  0  0  0
  3  2  1  0  0  0  0
  3 11  1  0  0  0  0
  4  3  1  0  0  0  0
  5  6  1  0  0  0  0
  5  4  1  0  0  0  0
  6 16  1  6  0  0  0
  6  1  1  0  0  0  0
  8  2  1  0  0  0  0
 12  4  1  0  0  0  0
 13  4  1  0  0  0  0
 14  5  1  0  0  0  0
 15  5  1  0  0  0  0
 17 22  1  0  0  0  0
 18 17  2  0  0  0  0
 18 19  1  0  0  0  0
 19 20  2  0  0  0  0
 20 21  1  0  0  0  0
 21 25  1  0  0  0  0
 22 21  2  0  0  0  0
 23 18  1  0  0  0  0
 24 19  1  0  0  0  0
 26  6  1  0  0  0  0
 26 27  1  0  0  0  0
 28 26  1  0  0  0  0
 28 31  1  0  0  0  0
 29 28  1  0  0  0  0
 30 29  1  0  0  0  0
 31 32  1  0  0  0  0
 33 34  1  0  0  0  0
 33 28  1  0  0  0  0
 34 35  1  0  0  0  0
 36 35  1  0  0  0  0
 37 38  1  0  0  0  0
 37 36  1  0  0  0  0
 38 34  1  0  0  0  0
M  END
>  <minimizedAffinity>
-5.00099707

$$$$

 OpenBabel03262521073D

 38 40  0  0  1  0  0  0  0  0999 V2000
   36.3510   26.6530   31.8900 C   0  0  2  0  0  0  0  0  0  0  0  0
   36.3810   27.5010   30.6790 C   0  0  0  0  0  0  0  0  0  0  0  0
   37.0080   28.8540   30.9320 C   0  0  0  0  0  0  0  0  0  0  0  0
   36.3520   29.6100   32.0580 C   0  0  0  0  0  0  0  0  0  0  0  0
   35.9340   28.7330   33.2010 C   0  0  0  0  0  0  0  0  0  0  0  0
   36.6390   27.3840   33.1620 C   0  0  2  0  0  0  0  0  0  0  0  0
   35.3190   26.2040   32.0370 H   0  0  0  0  0  0  0  0  0  0  0  0
   35.3040   27.7490   30.3820 H   0  0  0  0  0  0  0  0  0  0  0  0
   36.8430   27.1690   29.7730 H   0  0  0  0  0  0  0  0  0  0  0  0
   38.0970   28.7200   31.0510 H   0  0  0  0  0  0  0  0  0  0  0  0
   36.8590   29.4550   30.0030 H   0  0  0  0  0  0  0  0  0  0  0  0
   35.5400   30.2820   31.7100 H   0  0  0  0  0  0  0  0  0  0  0  0
   37.1480   30.3020   32.4620 H   0  0  0  0  0  0  0  0  0  0  0  0
   36.0370   29.2450   34.1480 H   0  0  0  0  0  0  0  0  0  0  0  0
   34.8390   28.5100   33.0750 H   0  0  0  0  0  0  0  0  0  0  0  0
   36.1700   26.7870   33.9970 H   0  0  0  0  0  0  0  0  0  0  0  0
   37.2560   25.4950   31.8210 C   0  0  0  0  0  0  0  0  0  0  0  0
   36.6420   24.2400   32.0240 C   0  0  0  0  0  0  0  0  0  0  0  0
   37.4720   23.1250   31.9380 C   0  0  0  0  0  0  0  0  0  0  0  0
   38.7980   23.2880   31.6720 N   0  0  0  0  0  0  0  0  0  0  0  0
   39.3440   24.5180   31.4850 C   0  0  0  0  0  0  0  0  0  0  0  0
   38.5670   25.5670   31.5650 N   0  0  0  0  0  0  0  0  0  0  0  0
   35.6750   23.8320   32.2460 H   0  0  0  0  0  0  0  0  0  0  0  0
   37.2650   22.0720   32.0480 H   0  0  0  0  0  0  0  0  0  0  0  0
   40.3890   24.6650   31.2750 H   0  0  0  0  0  0  0  0  0  0  0  0
   37.9700   27.6110   33.5330 N   0  0  0  0  0  0  0  0  0  0  0  0
   38.7070   27.4260   32.8100 H   0  0  0  0  0  0  0  0  0  0  0  0
   38.4400   27.0270   35.0570 S   0  0  0  0  0  0  0  0  0  0  0  0
   39.9040   26.6350   34.9490 O   0  0  0  0  0  0  0  0  0  0  0  0
   40.1940   25.6890   34.8570 H   0  0  0  0  0  0  0  0  0  0  0  0
   38.2920   28.0420   36.1520 O   0  0  0  0  0  0  0  0  0  0  0  0
   37.4790   28.5340   36.4360 H   0  0  0  0  0  0  0  0  0  0  0  0
   37.6170   25.6360   35.4860 O   0  0  0  0  0  0  0  0  0  0  0  0
   38.5250   24.8580   36.1500 C   0  0  0  0  0  3  0  0  0  0  0  0
   38.1220   24.4160   37.5220 C   0  0  0  0  0  2  0  0  0  0  0  0
   38.9880   23.1750   37.7390 C   0  0  0  0  0  2  0  0  0  0  0  0
   38.8560   22.4670   36.4180 C   0  0  0  0  0  2  0  0  0  0  0  0
   38.7560   23.5480   35.3890 C   0  0  0  0  0  2  0  0  0  0  0  0
  1  7  1  1  0  0  0
  1  6  1  0  0  0  0
  2  3  1  0  0  0  0
  2  1  1  0  0  0  0
  3 10  1  0  0  0  0
  3  4  1  0  0  0  0
  4 13  1  0  0  0  0
  4  5  1  0  0  0  0
  5 14  1  0  0  0  0
  6  5  1  0  0  0  0
  6 26  1  0  0  0  0
  6 16  1  1  0  0  0
  8  2  1  0  0  0  0
  9  2  1  0  0  0  0
 11  3  1  0  0  0  0
 12  4  1  0  0  0  0
 15  5  1  0  0  0  0
 17  1  1  0  0  0  0
 17 18  1  0  0  0  0
 18 23  1  0  0  0  0
 19 18  2  0  0  0  0
 19 24  1  0  0  0  0
 20 19  1  0  0  0  0
 21 22  1  0  0  0  0
 21 20  2  0  0  0  0
 22 17  2  0  0  0  0
 25 21  1  0  0  0  0
 26 28  1  0  0  0  0
 27 26  1  0  0  0  0
 28 33  1  0  0  0  0
 28 31  1  0  0  0  0
 29 28  1  0  0  0  0
 30 29  1  0  0  0  0
 31 32  1  0  0  0  0
 33 34  1  0  0  0  0
 34 35  1  0  0  0  0
 35 36  1  0  0  0  0
 37 36  1  0  0  0  0
 38 34  1  0  0  0  0
 38 37  1  0  0  0  0
M  END
>  <minimizedAffinity>
-4.95657587

$$$$

 OpenBabel03262521073D

 38 40  0  0  1  0  0  0  0  0999 V2000
   40.0500   26.4400   34.8430 C   0  0  2  0  0  0  0  0  0  0  0  0
   41.2960   26.8780   34.1790 C   0  0  0  0  0  0  0  0  0  0  0  0
   41.9880   25.7530   33.4400 C   0  0  0  0  0  0  0  0  0  0  0  0
   42.2780   24.5610   34.3140 C   0  0  0  0  0  0  0  0  0  0  0  0
   41.1910   24.2720   35.3090 C   0  0  0  0  0  0  0  0  0  0  0  0
   39.8850   24.9570   34.9300 C   0  0  2  0  0  0  0  0  0  0  0  0
   40.0250   26.8000   35.9200 H   0  0  0  0  0  0  0  0  0  0  0  0
   42.0510   27.1820   34.9840 H   0  0  0  0  0  0  0  0  0  0  0  0
   41.3050   27.6870   33.4790 H   0  0  0  0  0  0  0  0  0  0  0  0
   41.4050   25.5180   32.5330 H   0  0  0  0  0  0  0  0  0  0  0  0
   42.9710   26.1530   33.0950 H   0  0  0  0  0  0  0  0  0  0  0  0
   43.2860   24.6010   34.7760 H   0  0  0  0  0  0  0  0  0  0  0  0
   42.3130   23.6750   33.6160 H   0  0  0  0  0  0  0  0  0  0  0  0
   41.0870   23.2090   35.4790 H   0  0  0  0  0  0  0  0  0  0  0  0
   41.5010   24.7250   36.2910 H   0  0  0  0  0  0  0  0  0  0  0  0
   39.1890   24.7530   35.7950 H   0  0  0  0  0  0  0  0  0  0  0  0
   38.8310   26.9940   34.2350 C   0  0  0  0  0  0  0  0  0  0  0  0
   37.8330   27.3980   35.1490 C   0  0  0  0  0  0  0  0  0  0  0  0
   36.6790   27.9500   34.5990 C   0  0  0  0  0  0  0  0  0  0  0  0
   36.5650   28.0720   33.2470 N   0  0  0  0  0  0  0  0  0  0  0  0
   37.5530   27.6670   32.4070 C   0  0  0  0  0  0  0  0  0  0  0  0
   38.6390   27.1490   32.9200 N   0  0  0  0  0  0  0  0  0  0  0  0
   37.6560   27.4140   36.2070 H   0  0  0  0  0  0  0  0  0  0  0  0
   35.7820   28.3330   35.0600 H   0  0  0  0  0  0  0  0  0  0  0  0
   37.4800   27.7550   31.3370 H   0  0  0  0  0  0  0  0  0  0  0  0
   39.3680   24.2620   33.8290 N   0  0  0  0  0  0  0  0  0  0  0  0
   38.9360   24.8320   33.0630 H   0  0  0  0  0  0  0  0  0  0  0  0
   38.4360   22.8850   34.1760 S   0  0  0  0  0  0  0  0  0  0  0  0
   39.3040   21.6750   33.8720 O   0  0  0  0  0  0  0  0  0  0  0  0
   39.1970   21.1400   33.0420 H   0  0  0  0  0  0  0  0  0  0  0  0
   37.9930   22.8140   35.6070 O   0  0  0  0  0  0  0  0  0  0  0  0
   37.4650   23.4740   36.1260 H   0  0  0  0  0  0  0  0  0  0  0  0
   37.0980   22.7570   33.1810 O   0  0  0  0  0  0  0  0  0  0  0  0
   36.9010   21.4160   32.9940 C   0  0  0  0  0  3  0  0  0  0  0  0
   35.8290   20.7940   33.8320 C   0  0  0  0  0  2  0  0  0  0  0  0
   35.4640   19.5440   33.0290 C   0  0  0  0  0  2  0  0  0  0  0  0
   35.4030   20.0830   31.6250 C   0  0  0  0  0  2  0  0  0  0  0  0
   36.4560   21.1440   31.5540 C   0  0  0  0  0  2  0  0  0  0  0  0
  1  6  1  0  0  0  0
  1  7  1  1  0  0  0
  2  1  1  0  0  0  0
  2  8  1  0  0  0  0
  3  2  1  0  0  0  0
  3  4  1  0  0  0  0
  4 12  1  0  0  0  0
  4  5  1  0  0  0  0
  5 14  1  0  0  0  0
  5 15  1  0  0  0  0
  6  5  1  0  0  0  0
  6 16  1  1  0  0  0
  9  2  1  0  0  0  0
 10  3  1  0  0  0  0
 11  3  1  0  0  0  0
 13  4  1  0  0  0  0
 17  1  1  0  0  0  0
 17 18  1  0  0  0  0
 18 23  1  0  0  0  0
 19 24  1  0  0  0  0
 19 18  2  0  0  0  0
 20 19  1  0  0  0  0
 21 22  1  0  0  0  0
 21 20  2  0  0  0  0
 22 17  2  0  0  0  0
 25 21  1  0  0  0  0
 26 28  1  0  0  0  0
 26  6  1  0  0  0  0
 27 26  1  0  0  0  0
 28 31  1  0  0  0  0
 29 28  1  0  0  0  0
 30 29  1  0  0  0  0
 31 32  1  0  0  0  0
 33 28  1  0  0  0  0
 34 33  1  0  0  0  0
 34 35  1  0  0  0  0
 36 35  1  0  0  0  0
 37 36  1  0  0  0  0
 38 37  1  0  0  0  0
 38 34  1  0  0  0  0
M  END
>  <minimizedAffinity>
-4.90578175

$$$$

 OpenBabel03262521073D

 38 40  0  0  1  0  0  0  0  0999 V2000
   38.0170   21.5580   33.3570 C   0  0  2  0  0  0  0  0  0  0  0  0
   39.1240   20.8330   32.6970 C   0  0  0  0  0  0  0  0  0  0  0  0
   39.4930   21.4290   31.3570 C   0  0  0  0  0  0  0  0  0  0  0  0
   38.3250   21.5290   30.4110 C   0  0  0  0  0  0  0  0  0  0  0  0
   37.0390   21.9020   31.0890 C   0  0  0  0  0  0  0  0  0  0  0  0
   37.2830   22.5070   32.4650 C   0  0  2  0  0  0  0  0  0  0  0  0
   37.2260   20.8300   33.7230 H   0  0  0  0  0  0  0  0  0  0  0  0
   38.7650   19.7780   32.4380 H   0  0  0  0  0  0  0  0  0  0  0  0
   40.0670   20.6870   33.1810 H   0  0  0  0  0  0  0  0  0  0  0  0
   40.0170   22.3850   31.5300 H   0  0  0  0  0  0  0  0  0  0  0  0
   40.2340   20.7370   30.8910 H   0  0  0  0  0  0  0  0  0  0  0  0
   38.2250   20.6400   29.7550 H   0  0  0  0  0  0  0  0  0  0  0  0
   38.5730   22.3790   29.7110 H   0  0  0  0  0  0  0  0  0  0  0  0
   36.4220   22.5190   30.4490 H   0  0  0  0  0  0  0  0  0  0  0  0
   36.4620   20.9530   31.2680 H   0  0  0  0  0  0  0  0  0  0  0  0
   36.2530   22.6440   32.9070 H   0  0  0  0  0  0  0  0  0  0  0  0
   38.4300   22.2980   34.5590 C   0  0  0  0  0  0  0  0  0  0  0  0
   37.5160   22.2560   35.6340 C   0  0  0  0  0  0  0  0  0  0  0  0
   37.8950   22.9280   36.7930 C   0  0  0  0  0  0  0  0  0  0  0  0
   39.0930   23.5760   36.8390 N   0  0  0  0  0  0  0  0  0  0  0  0
   39.9390   23.5890   35.7760 C   0  0  0  0  0  0  0  0  0  0  0  0
   39.5860   22.9590   34.6860 N   0  0  0  0  0  0  0  0  0  0  0  0
   36.5490   21.8530   35.8670 H   0  0  0  0  0  0  0  0  0  0  0  0
   37.3960   23.0510   37.7420 H   0  0  0  0  0  0  0  0  0  0  0  0
   40.8880   24.0960   35.7940 H   0  0  0  0  0  0  0  0  0  0  0  0
   37.8030   23.7900   32.2570 N   0  0  0  0  0  0  0  0  0  0  0  0
   38.4870   24.1500   32.9650 H   0  0  0  0  0  0  0  0  0  0  0  0
   36.6910   24.9920   31.8060 S   0  0  0  0  0  0  0  0  0  0  0  0
   37.1550   25.5440   30.4690 O   0  0  0  0  0  0  0  0  0  0  0  0
   37.6320   26.4130   30.3900 H   0  0  0  0  0  0  0  0  0  0  0  0
   35.2900   24.4770   31.6550 O   0  0  0  0  0  0  0  0  0  0  0  0
   34.7260   24.0090   32.3230 H   0  0  0  0  0  0  0  0  0  0  0  0
   36.6880   26.2840   32.8660 O   0  0  0  0  0  0  0  0  0  0  0  0
   37.7700   26.0980   33.6820 C   0  0  0  0  0  3  0  0  0  0  0  0
   38.9280   27.0160   33.4470 C   0  0  0  0  0  2  0  0  0  0  0  0
   39.6630   26.9730   34.7870 C   0  0  0  0  0  2  0  0  0  0  0  0
   38.5280   27.0810   35.7690 C   0  0  0  0  0  2  0  0  0  0  0  0
   37.3810   26.3530   35.1420 C   0  0  0  0  0  2  0  0  0  0  0  0
  1  7  1  1  0  0  0
  1 17  1  0  0  0  0
  2  9  1  0  0  0  0
  2  1  1  0  0  0  0
  3 10  1  0  0  0  0
  3  2  1  0  0  0  0
  4  5  1  0  0  0  0
  4  3  1  0  0  0  0
  5 15  1  0  0  0  0
  5  6  1  0  0  0  0
  6 16  1  1  0  0  0
  6  1  1  0  0  0  0
  8  2  1  0  0  0  0
 11  3  1  0  0  0  0
 12  4  1  0  0  0  0
 13  4  1  0  0  0  0
 14  5  1  0  0  0  0
 17 22  2  0  0  0  0
 17 18  1  0  0  0  0
 18 23  1  0  0  0  0
 18 19  2  0  0  0  0
 19 20  1  0  0  0  0
 19 24  1  0  0  0  0
 21 25  1  0  0  0  0
 21 20  2  0  0  0  0
 22 21  1  0  0  0  0
 26  6  1  0  0  0  0
 26 27  1  0  0  0  0
 28 26  1  0  0  0  0
 28 33  1  0  0  0  0
 29 28  1  0  0  0  0
 30 29  1  0  0  0  0
 31 28  1  0  0  0  0
 31 32  1  0  0  0  0
 33 34  1  0  0  0  0
 34 38  1  0  0  0  0
 35 34  1  0  0  0  0
 35 36  1  0  0  0  0
 36 37  1  0  0  0  0
 38 37  1  0  0  0  0
M  END
>  <minimizedAffinity>
-4.90269995

$$$$
