
 OpenBabel03272504173D

 22 23  0  0  0  0  0  0  0  0999 V2000
   35.9500   30.7400   49.3630 C   0  0  0  0  0  0  0  0  0  0  0  0
   36.1990   29.9620   50.4800 C   0  0  0  0  0  0  0  0  0  0  0  0
   37.4470   30.0370   51.0730 C   0  0  0  0  0  0  0  0  0  0  0  0
   38.3910   30.8730   50.5420 N   0  0  0  0  0  0  0  0  0  0  0  0
   38.1030   31.6210   49.4410 C   0  0  0  0  0  0  0  0  0  0  0  0
   36.8840   31.5600   48.8450 N   0  0  0  0  0  0  0  0  0  0  0  0
   37.5980   29.4260   51.9250 H   0  0  0  0  0  0  0  0  0  0  0  0
   38.8700   32.2870   49.0250 H   0  0  0  0  0  0  0  0  0  0  0  0
   35.1130   29.1570   50.8950 N   0  0  0  0  0  0  0  0  0  0  0  0
   35.2810   28.2420   50.3960 H   0  0  0  0  0  0  0  0  0  0  0  0
   34.3280   29.4260   51.5520 H   0  0  0  0  0  0  0  0  0  0  0  0
   34.7580   30.7920   48.6400 O   0  0  0  0  0  0  0  0  0  0  0  0
   35.4970   29.9370   46.2090 O   0  0  0  0  0  0  0  0  0  0  0  0
   34.4690   29.7630   47.2840 P   0  0  1  0  0  0  0  0  0  0  0  0
   34.4710   28.1770   47.8870 O   0  0  0  0  0  0  0  0  0  0  0  0
   34.0530   28.1090   48.7620 H   0  0  0  0  0  0  0  0  0  0  0  0
   32.9830   30.1670   46.5810 O   0  0  0  0  0  0  0  0  0  0  0  0
   32.2260   29.0340   46.2780 C   0  0  0  0  0  3  0  0  0  0  0  0
   32.4940   28.5420   44.8670 C   0  0  0  0  0  2  0  0  0  0  0  0
   31.2640   27.6610   44.6450 C   0  0  0  0  0  2  0  0  0  0  0  0
   30.1510   28.4790   45.2600 C   0  0  0  0  0  2  0  0  0  0  0  0
   30.7800   29.4860   46.1740 C   0  0  0  0  0  2  0  0  0  0  0  0
  1  2  1  0  0  0  0
  2  9  1  0  0  0  0
  2  3  2  0  0  0  0
  3  7  1  0  0  0  0
  4  3  1  0  0  0  0
  5  4  2  0  0  0  0
  6  1  2  0  0  0  0
  6  5  1  0  0  0  0
  8  5  1  0  0  0  0
  9 11  1  0  0  0  0
 10  9  1  0  0  0  0
 12  1  1  0  0  0  0
 14 13  2  6  0  0  0
 14 15  1  0  0  0  0
 14 12  1  0  0  0  0
 15 16  1  0  0  0  0
 17 14  1  0  0  0  0
 18 17  1  0  0  0  0
 19 18  1  0  0  0  0
 20 19  1  0  0  0  0
 20 21  1  0  0  0  0
 21 22  1  0  0  0  0
 22 18  1  0  0  0  0
M  END
>  <minimizedAffinity>
-3.7520535

>  <minimizedRMSD>
0.883619785

$$$$
