
 OpenBabel03272503053D

 28 30  0  0  0  0  0  0  0  0999 V2000
   38.2640   30.3720   47.3300 F   0  0  0  0  0  0  0  0  0  0  0  0
   38.5940   31.5930   47.8230 C   0  0  0  0  0  0  0  0  0  0  0  0
   38.1040   32.0050   49.0280 C   0  0  0  0  0  0  0  0  0  0  0  0
   38.4760   33.2470   49.4660 C   0  0  0  0  0  0  0  0  0  0  0  0
   39.3050   34.0620   48.7440 C   0  0  0  0  0  0  0  0  0  0  0  0
   39.7930   33.6260   47.5240 C   0  0  0  0  0  0  0  0  0  0  0  0
   39.4290   32.3770   47.0640 C   0  0  0  0  0  0  0  0  0  0  0  0
   38.0900   33.5800   50.4210 H   0  0  0  0  0  0  0  0  0  0  0  0
   39.5930   35.0450   49.1000 H   0  0  0  0  0  0  0  0  0  0  0  0
   40.4590   34.2300   46.8970 H   0  0  0  0  0  0  0  0  0  0  0  0
   36.7480   29.5320   51.5640 C   0  0  0  0  0  0  0  0  0  0  0  0
   37.6200   30.4070   50.8900 C   0  0  0  0  0  0  0  0  0  0  0  0
   37.2180   31.0820   49.7550 C   0  0  0  0  0  0  0  0  0  0  0  0
   35.9490   30.8570   49.3280 N   0  0  0  0  0  0  0  0  0  0  0  0
   35.1210   30.0140   49.9820 C   0  0  0  0  0  0  0  0  0  0  0  0
   35.5080   29.3680   51.0700 N   0  0  0  0  0  0  0  0  0  0  0  0
   37.1430   29.0430   52.4450 H   0  0  0  0  0  0  0  0  0  0  0  0
   38.6260   30.5720   51.2490 H   0  0  0  0  0  0  0  0  0  0  0  0
   34.1260   29.9150   49.5430 H   0  0  0  0  0  0  0  0  0  0  0  0
   38.9990   32.0700   44.7170 C   0  0  0  0  0  0  0  0  0  0  0  0
   37.8930   32.6100   45.0330 O   0  0  0  0  0  0  0  0  0  0  0  0
   39.9160   31.8910   45.8010 N   0  0  0  0  0  0  0  0  0  0  0  0
   40.8340   31.4480   45.6420 H   0  0  0  0  0  0  0  0  0  0  0  0
   39.4550   31.6060   43.3800 C   0  0  0  0  0  3  0  0  0  0  0  0
   38.4990   30.6500   42.7440 C   0  0  0  0  0  2  0  0  0  0  0  0
   39.2740   29.3580   42.5040 C   0  0  0  0  0  2  0  0  0  0  0  0
   40.7280   29.7970   42.4910 C   0  0  0  0  0  2  0  0  0  0  0  0
   40.7290   30.8350   43.5840 C   0  0  0  0  0  2  0  0  0  0  0  0
  1  2  1  0  0  0  0
  2  3  1  0  0  0  0
  3  4  2  0  0  0  0
  3 13  1  0  0  0  0
  4  8  1  0  0  0  0
  5  9  1  0  0  0  0
  5  4  1  0  0  0  0
  6  5  2  0  0  0  0
  7  6  1  0  0  0  0
  7  2  2  0  0  0  0
 10  6  1  0  0  0  0
 11 17  1  0  0  0  0
 12 18  1  0  0  0  0
 12 11  2  0  0  0  0
 13 12  1  0  0  0  0
 14 13  2  0  0  0  0
 14 15  1  0  0  0  0
 15 16  2  0  0  0  0
 16 11  1  0  0  0  0
 19 15  1  0  0  0  0
 20 21  2  0  0  0  0
 20 22  1  0  0  0  0
 22  7  1  0  0  0  0
 23 22  1  0  0  0  0
 24 28  1  0  0  0  0
 24 20  1  0  0  0  0
 25 24  1  0  0  0  0
 26 25  1  0  0  0  0
 27 26  1  0  0  0  0
 27 28  1  0  0  0  0
M  END
>  <minimizedAffinity>
-6.52169991

>  <minimizedRMSD>
0.70460099

$$$$
