REMARK  Name = 
REMARK  5 active torsions:
REMARK  status: ('A' for Active; 'I' for Inactive)
REMARK    1  A    between atoms: C_1  and  C_8
REMARK    2  A    between atoms: C_6  and  N_15
REMARK    3  A    between atoms: C_13  and  O_16
REMARK    4  A    between atoms: O_16  and  C_17
REMARK    5  A    between atoms: C_17  and  C_27
REMARK                            x       y       z     vdW  Elec       q    Type
REMARK                         _______ _______ _______ _____ _____    ______ ____
ROOT
ATOM      1  C   UNL     1      38.110  31.888  47.413  0.00  0.00    +0.000 A 
ATOM      2  C   UNL     1      38.577  32.790  48.324  0.00  0.00    +0.000 A 
ATOM      3  C   UNL     1      38.081  32.862  49.621  0.00  0.00    +0.000 A 
ATOM      4  C   UNL     1      37.031  31.935  49.995  0.00  0.00    +0.000 A 
ATOM      5  C   UNL     1      36.612  31.065  49.042  0.00  0.00    +0.000 A 
ATOM      6  C   UNL     1      37.094  31.002  47.791  0.00  0.00    +0.000 A 
ATOM      7  H   UNL     1      39.374  33.509  48.077  0.00  0.00    +0.000 HD
ATOM      8  H   UNL     1      38.499  33.612  50.307  0.00  0.00    +0.000 HD
ATOM      9  H   UNL     1      36.750  32.106  51.016  0.00  0.00    +0.000 HD
ATOM     10  H   UNL     1      35.863  30.465  49.536  0.00  0.00    +0.000 HD
ENDROOT
BRANCH   1  12
ATOM     11  C   UNL     1      40.003  31.268  45.992  0.00  0.00    +0.000 A 
ATOM     12  C   UNL     1      38.745  31.917  46.112  0.00  0.00    +0.000 A 
ATOM     13  C   UNL     1      38.282  32.490  44.955  0.00  0.00    +0.000 A 
ATOM     14  N   UNL     1      38.999  32.417  43.820  0.00  0.00    +0.000 NA
ATOM     15  C   UNL     1      40.162  31.813  43.724  0.00  0.00    +0.000 A 
ATOM     16  N   UNL     1      40.654  31.243  44.812  0.00  0.00    +0.000 NA
ATOM     17  H   UNL     1      40.421  30.802  46.853  0.00  0.00    +0.000 HD
ATOM     18  H   UNL     1      37.321  32.986  45.048  0.00  0.00    +0.000 HD
ATOM     19  H   UNL     1      40.730  31.760  42.804  0.00  0.00    +0.000 HD
ENDBRANCH   1  12
BRANCH   6  22
ATOM     20  C   UNL     1      35.157  29.970  46.943  0.00  0.00    +0.000 C 
ATOM     21  O   UNL     1      34.523  30.636  47.855  0.00  0.00    +0.000 OA
ATOM     22  N   UNL     1      36.598  30.110  46.875  0.00  0.00    +0.000 N 
ATOM     23  H   UNL     1      37.175  29.590  46.209  0.00  0.00    +0.000 HD
BRANCH  20  24
ATOM     24  O   UNL     1      34.451  29.165  46.089  0.00  0.00    +0.000 OA
BRANCH  24  25
ATOM     25  C   UNL     1      33.364  29.579  45.329  0.00  0.00    +0.000 C 
ATOM     26  O   UNL     1      33.366  30.723  44.677  0.00  0.00    +0.000 OA
BRANCH  25  27
ATOM     27  C   UNL     1      32.129  28.765  45.170  0.00  0.00    +0.000 C 
ATOM     28  C   UNL     1      31.105  29.097  46.237  0.00  0.00    +0.000 C 
ATOM     29  C   UNL     1      29.761  28.808  45.601  0.00  0.00    +0.000 C 
ATOM     30  C   UNL     1      30.076  28.341  44.181  0.00  0.00    +0.000 C 
ATOM     31  C   UNL     1      31.361  29.141  43.930  0.00  0.00    +0.000 C 
ENDBRANCH  25  27
ENDBRANCH  24  25
ENDBRANCH  20  24
ENDBRANCH   6  22
TORSDOF 5
