
 OpenBabel03272500583D

 31 33  0  0  0  0  0  0  0  0999 V2000
   38.2240   31.9150   47.3950 C   0  0  0  0  0  0  0  0  0  0  0  0
   38.8090   32.7570   48.2950 C   0  0  0  0  0  0  0  0  0  0  0  0
   38.3900   32.8390   49.6190 C   0  0  0  0  0  0  0  0  0  0  0  0
   37.2910   31.9890   50.0320 C   0  0  0  0  0  0  0  0  0  0  0  0
   36.7540   31.1760   49.0880 C   0  0  0  0  0  0  0  0  0  0  0  0
   37.1620   31.1040   47.8120 C   0  0  0  0  0  0  0  0  0  0  0  0
   39.6470   33.4170   48.0180 H   0  0  0  0  0  0  0  0  0  0  0  0
   38.9020   33.5380   50.2940 H   0  0  0  0  0  0  0  0  0  0  0  0
   37.0790   32.1590   51.0700 H   0  0  0  0  0  0  0  0  0  0  0  0
   35.9870   30.6260   49.6110 H   0  0  0  0  0  0  0  0  0  0  0  0
   40.0270   31.2500   45.8800 C   0  0  0  0  0  0  0  0  0  0  0  0
   38.7900   31.9240   46.0620 C   0  0  0  0  0  0  0  0  0  0  0  0
   38.2770   32.4980   44.9270 C   0  0  0  0  0  0  0  0  0  0  0  0
   38.9310   32.4030   43.7560 N   0  0  0  0  0  0  0  0  0  0  0  0
   40.0760   31.7770   43.6030 C   0  0  0  0  0  0  0  0  0  0  0  0
   40.6140   31.2040   44.6680 N   0  0  0  0  0  0  0  0  0  0  0  0
   40.4810   30.7810   46.7220 H   0  0  0  0  0  0  0  0  0  0  0  0
   37.3320   33.0130   45.0670 H   0  0  0  0  0  0  0  0  0  0  0  0
   40.5930   31.7070   42.6550 H   0  0  0  0  0  0  0  0  0  0  0  0
   35.1430   30.0680   47.1910 C   0  0  0  0  0  0  0  0  0  0  0  0
   34.6470   30.6250   48.2500 O   0  0  0  0  0  0  0  0  0  0  0  0
   36.5490   30.2740   46.9080 N   0  0  0  0  0  0  0  0  0  0  0  0
   37.0240   29.8390   46.1130 H   0  0  0  0  0  0  0  0  0  0  0  0
   34.3300   29.3110   46.3900 O   0  0  0  0  0  0  0  0  0  0  0  0
   32.9410   29.3440   46.4160 C   0  0  0  0  0  0  0  0  0  0  0  0
   32.2630   30.4020   46.0220 O   0  0  0  0  0  0  0  0  0  0  0  0
   32.1110   28.1940   46.8630 C   0  0  0  0  0  3  0  0  0  0  0  0
   32.3370   27.8850   48.3310 C   0  0  0  0  0  2  0  0  0  0  0  0
   31.0370   27.2750   48.8120 C   0  0  0  0  0  2  0  0  0  0  0  0
   30.1100   27.2820   47.5970 C   0  0  0  0  0  2  0  0  0  0  0  0
   30.6430   28.5290   46.8800 C   0  0  0  0  0  2  0  0  0  0  0  0
  1  6  2  0  0  0  0
  1  2  1  0  0  0  0
  2  3  2  0  0  0  0
  3  4  1  0  0  0  0
  3  8  1  0  0  0  0
  4  9  1  0  0  0  0
  5 10  1  0  0  0  0
  5  4  2  0  0  0  0
  6  5  1  0  0  0  0
  7  2  1  0  0  0  0
 11 12  1  0  0  0  0
 11 17  1  0  0  0  0
 12  1  1  0  0  0  0
 13 18  1  0  0  0  0
 13 12  2  0  0  0  0
 14 13  1  0  0  0  0
 15 14  2  0  0  0  0
 15 16  1  0  0  0  0
 16 11  2  0  0  0  0
 19 15  1  0  0  0  0
 20 21  2  0  0  0  0
 22 20  1  0  0  0  0
 22  6  1  0  0  0  0
 23 22  1  0  0  0  0
 24 25  1  0  0  0  0
 24 20  1  0  0  0  0
 25 27  1  0  0  0  0
 26 25  2  0  0  0  0
 27 31  1  0  0  0  0
 27 28  1  0  0  0  0
 28 29  1  0  0  0  0
 30 29  1  0  0  0  0
 31 30  1  0  0  0  0
M  END
>  <minimizedAffinity>
-5.94837236

>  <minimizedRMSD>
1.31000566

$$$$
