REMARK  Name = 
REMARK  3 active torsions:
REMARK  status: ('A' for Active; 'I' for Inactive)
REMARK    1  A    between atoms: C_1  and  C_7
REMARK    2  A    between atoms: C_3  and  C_12
REMARK    3  A    between atoms: N_10  and  C_20
REMARK                            x       y       z     vdW  Elec       q    Type
REMARK                         _______ _______ _______ _____ _____    ______ ____
ROOT
ATOM      1  C   UNL     1      37.922  30.872  46.733  0.00  0.00    +0.000 A 
ATOM      2  C   UNL     1      38.057  31.037  48.136  0.00  0.00    +0.000 A 
ATOM      3  C   UNL     1      36.934  30.813  48.929  0.00  0.00    +0.000 A 
ATOM      4  N   UNL     1      35.765  30.448  48.314  0.00  0.00    +0.000 NA
ATOM      5  C   UNL     1      35.668  30.300  46.982  0.00  0.00    +0.000 A 
ATOM      6  N   UNL     1      36.756  30.516  46.203  0.00  0.00    +0.000 NA
ATOM      7  H   UNL     1      38.982  31.322  48.587  0.00  0.00    +0.000 HD
ATOM      8  H   UNL     1      34.714  30.009  46.544  0.00  0.00    +0.000 HD
ENDROOT
BRANCH   1   9
ATOM      9  C   UNL     1      39.099  31.107  45.906  0.00  0.00    +0.000 A 
ATOM     10  C   UNL     1      39.922  32.197  45.908  0.00  0.00    +0.000 A 
ATOM     11  C   UNL     1      40.936  32.031  44.964  0.00  0.00    +0.000 A 
ATOM     12  N   UNL     1      40.678  30.807  44.411  0.00  0.00    +0.000 N 
ATOM     13  N   UNL     1      39.606  30.294  44.977  0.00  0.00    +0.000 NA
ATOM     14  H   UNL     1      39.842  33.091  46.533  0.00  0.00    +0.000 HD
ATOM     15  H   UNL     1      41.752  32.685  44.698  0.00  0.00    +0.000 HD
BRANCH  12  16
ATOM     16  C   UNL     1      41.520  30.230  43.353  0.00  0.00    +0.000 C 
ATOM     17  C   UNL     1      41.745  31.235  42.246  0.00  0.00    +0.000 C 
ATOM     18  C   UNL     1      40.512  30.971  41.373  0.00  0.00    +0.000 C 
ATOM     19  C   UNL     1      40.607  29.459  41.255  0.00  0.00    +0.000 C 
ATOM     20  C   UNL     1      40.879  29.049  42.682  0.00  0.00    +0.000 C 
ENDBRANCH  12  16
ENDBRANCH   1   9
BRANCH   3  21
ATOM     21  C   UNL     1      37.055  30.980  50.407  0.00  0.00    +0.000 C 
ATOM     22  F   UNL     1      36.560  32.246  50.680  0.00  0.00    +0.000 F 
ATOM     23  F   UNL     1      36.302  30.064  51.110  0.00  0.00    +0.000 F 
ATOM     24  F   UNL     1      38.365  30.941  50.829  0.00  0.00    +0.000 F 
ENDBRANCH   3  21
TORSDOF 3
