
 OpenBabel03272510313D

 28 30  0  0  0  0  0  0  0  0999 V2000
   37.3360   31.0830   49.4580 C   0  0  0  0  0  0  0  0  0  0  0  0
   38.3520   32.0220   49.4630 C   0  0  0  0  0  0  0  0  0  0  0  0
   38.7570   32.4830   48.2060 C   0  0  0  0  0  0  0  0  0  0  0  0
   38.1520   32.0000   47.0830 N   0  0  0  0  0  0  0  0  0  0  0  0
   37.1640   31.0830   47.1240 C   0  0  0  0  0  0  0  0  0  0  0  0
   36.7450   30.6120   48.3430 N   0  0  0  0  0  0  0  0  0  0  0  0
   38.7890   32.3630   50.3940 H   0  0  0  0  0  0  0  0  0  0  0  0
   39.5490   33.2190   48.1540 H   0  0  0  0  0  0  0  0  0  0  0  0
   36.8600   30.5950   50.7980 C   0  0  0  0  0  0  0  0  0  0  0  0
   35.9960   29.4680   50.9460 C   0  0  0  0  0  0  0  0  0  0  0  0
   37.4810   29.2270   51.1680 C   0  0  0  0  0  0  0  0  0  0  0  0
   37.1240   31.3420   51.5890 H   0  0  0  0  0  0  0  0  0  0  0  0
   35.3470   29.4380   51.8670 H   0  0  0  0  0  0  0  0  0  0  0  0
   35.4760   29.0460   50.0850 H   0  0  0  0  0  0  0  0  0  0  0  0
   37.8100   29.0560   52.1920 H   0  0  0  0  0  0  0  0  0  0  0  0
   37.9630   28.6490   50.3770 H   0  0  0  0  0  0  0  0  0  0  0  0
   36.5070   30.5650   45.9340 C   0  0  0  0  0  0  0  0  0  0  0  0
   35.6090   31.1570   45.6230 H   0  0  0  0  0  0  0  0  0  0  0  0
   36.1680   29.5410   46.0580 H   0  0  0  0  0  0  0  0  0  0  0  0
   37.3890   31.4320   43.7590 C   0  0  0  0  0  0  0  0  0  0  0  0
   36.4890   32.2960   43.5950 O   0  0  0  0  0  0  0  0  0  0  0  0
   37.4990   30.5630   44.8710 N   0  0  0  0  0  0  0  0  0  0  0  0
   38.2970   29.8850   44.9740 H   0  0  0  0  0  0  0  0  0  0  0  0
   38.4510   31.2820   42.7040 C   0  0  0  0  0  0  0  0  0  0  0  0
   39.5930   32.2210   43.0670 C   0  0  0  0  0  0  0  0  0  0  0  0
   40.6220   31.3010   43.7200 C   0  0  0  0  0  0  0  0  0  0  0  0
   40.5140   30.0930   42.7990 C   0  0  0  0  0  0  0  0  0  0  0  0
   39.0330   29.8990   42.7010 C   0  0  0  0  0  0  0  0  0  0  0  0
  1  2  1  0  0  0  0
  1  9  1  0  0  0  0
  2  7  1  0  0  0  0
  3  2  2  0  0  0  0
  4  5  2  0  0  0  0
  4  3  1  0  0  0  0
  5  6  1  0  0  0  0
  6  1  2  0  0  0  0
  8  3  1  0  0  0  0
  9 10  1  0  0  0  0
  9 11  1  0  0  0  0
  9 12  1  0  0  0  0
 10 11  1  0  0  0  0
 10 13  1  0  0  0  0
 11 15  1  0  0  0  0
 14 10  1  0  0  0  0
 16 11  1  0  0  0  0
 17 19  1  0  0  0  0
 17  5  1  0  0  0  0
 18 17  1  0  0  0  0
 20 22  1  0  0  0  0
 21 20  2  0  0  0  0
 22 23  1  0  0  0  0
 22 17  1  0  0  0  0
 24 25  1  0  0  0  0
 24 20  1  0  0  0  0
 25 26  1  0  0  0  0
 27 26  1  0  0  0  0
 28 24  1  0  0  0  0
 28 27  1  0  0  0  0
M  END
>  <minimizedAffinity>
-4.99793005

>  <minimizedRMSD>
3.06505609

$$$$
