
 OpenBabel03272503063D

 28 30  0  0  0  0  0  0  0  0999 V2000
   38.0690   30.0790   47.2210 F   0  0  0  0  0  0  0  0  0  0  0  0
   38.5080   31.3140   47.5760 C   0  0  0  0  0  0  0  0  0  0  0  0
   38.1950   31.8320   48.8000 C   0  0  0  0  0  0  0  0  0  0  0  0
   38.6680   33.0810   49.0930 C   0  0  0  0  0  0  0  0  0  0  0  0
   39.4280   33.8030   48.2140 C   0  0  0  0  0  0  0  0  0  0  0  0
   39.7360   33.2620   46.9770 C   0  0  0  0  0  0  0  0  0  0  0  0
   39.2670   32.0030   46.6610 C   0  0  0  0  0  0  0  0  0  0  0  0
   38.4230   33.4970   50.0630 H   0  0  0  0  0  0  0  0  0  0  0  0
   39.7980   34.7930   48.4560 H   0  0  0  0  0  0  0  0  0  0  0  0
   40.3380   33.7880   46.2280 H   0  0  0  0  0  0  0  0  0  0  0  0
   37.0530   29.7000   51.7220 C   0  0  0  0  0  0  0  0  0  0  0  0
   37.8630   30.4870   50.8830 C   0  0  0  0  0  0  0  0  0  0  0  0
   37.3750   31.0040   49.7000 C   0  0  0  0  0  0  0  0  0  0  0  0
   36.0840   30.7150   49.3940 N   0  0  0  0  0  0  0  0  0  0  0  0
   35.3160   29.9580   50.2070 C   0  0  0  0  0  0  0  0  0  0  0  0
   35.7860   29.4640   51.3410 N   0  0  0  0  0  0  0  0  0  0  0  0
   37.5150   29.3350   52.6310 H   0  0  0  0  0  0  0  0  0  0  0  0
   38.8880   30.7060   51.1470 H   0  0  0  0  0  0  0  0  0  0  0  0
   34.2960   29.7940   49.8540 H   0  0  0  0  0  0  0  0  0  0  0  0
   38.5470   31.6030   44.4010 C   0  0  0  0  0  0  0  0  0  0  0  0
   37.5300   32.2500   44.8010 O   0  0  0  0  0  0  0  0  0  0  0  0
   39.5670   31.4080   45.3870 N   0  0  0  0  0  0  0  0  0  0  0  0
   40.4230   30.8820   45.1560 H   0  0  0  0  0  0  0  0  0  0  0  0
   38.8090   31.0290   43.0550 C   0  0  0  0  0  3  0  0  0  0  0  0
   39.3910   29.6540   43.1170 C   0  0  0  0  0  2  0  0  0  0  0  0
   40.7390   29.7220   42.4040 C   0  0  0  0  0  2  0  0  0  0  0  0
   40.6190   30.9420   41.5070 C   0  0  0  0  0  2  0  0  0  0  0  0
   39.8550   31.8870   42.3970 C   0  0  0  0  0  2  0  0  0  0  0  0
  1  2  1  0  0  0  0
  2  3  1  0  0  0  0
  3  4  2  0  0  0  0
  3 13  1  0  0  0  0
  4  8  1  0  0  0  0
  5  9  1  0  0  0  0
  5  4  1  0  0  0  0
  6  5  2  0  0  0  0
  7  6  1  0  0  0  0
  7  2  2  0  0  0  0
 10  6  1  0  0  0  0
 11 17  1  0  0  0  0
 12 18  1  0  0  0  0
 12 11  2  0  0  0  0
 13 12  1  0  0  0  0
 14 13  2  0  0  0  0
 14 15  1  0  0  0  0
 15 16  2  0  0  0  0
 16 11  1  0  0  0  0
 19 15  1  0  0  0  0
 20 21  2  0  0  0  0
 20 22  1  0  0  0  0
 22  7  1  0  0  0  0
 23 22  1  0  0  0  0
 24 25  1  0  0  0  0
 24 20  1  0  0  0  0
 26 25  1  0  0  0  0
 27 28  1  0  0  0  0
 27 26  1  0  0  0  0
 28 24  1  0  0  0  0
M  END
>  <minimizedAffinity>
-6.20688629

>  <minimizedRMSD>
1.0058614

$$$$
