REMARK  Name = 
REMARK  5 active torsions:
REMARK  status: ('A' for Active; 'I' for Inactive)
REMARK    1  A    between atoms: C_2  and  S_8
REMARK    2  A    between atoms: C_6  and  N_7
REMARK    3  A    between atoms: S_8  and  C_11
REMARK    4  A    between atoms: C_13  and  C_15
REMARK    5  A    between atoms: C_15  and  C_29
REMARK                            x       y       z     vdW  Elec       q    Type
REMARK                         _______ _______ _______ _____ _____    ______ ____
ROOT
ATOM      1  N   UNL     1      39.585  32.876  46.286  0.00  0.00    +0.000 NA
ATOM      2  C   UNL     1      38.266  32.364  46.075  0.00  0.00    +0.000 C 
ATOM      3  C   UNL     1      37.934  32.411  44.602  0.00  0.00    +0.000 C 
ATOM      4  N   UNL     1      38.935  31.588  43.913  0.00  0.00    +0.000 NA
ATOM      5  C   UNL     1      40.191  32.343  44.024  0.00  0.00    +0.000 C 
ATOM      6  C   UNL     1      40.597  32.265  45.491  0.00  0.00    +0.000 C 
ATOM      7  H   UNL     1      39.833  33.068  47.259  0.00  0.00    +0.000 HD
ATOM      8  H   UNL     1      37.547  32.968  46.633  0.00  0.00    +0.000 HD
ATOM      9  H   UNL     1      36.955  31.939  44.412  0.00  0.00    +0.000 HD
ATOM     10  H   UNL     1      38.001  33.423  44.175  0.00  0.00    +0.000 HD
ATOM     11  H   UNL     1      39.011  30.653  44.331  0.00  0.00    +0.000 HD
ATOM     12  H   UNL     1      40.996  31.852  43.416  0.00  0.00    +0.000 HD
ATOM     13  H   UNL     1      40.024  33.379  43.728  0.00  0.00    +0.000 HD
ATOM     14  H   UNL     1      41.528  32.823  45.605  0.00  0.00    +0.000 HD
ENDROOT
BRANCH   6  15
ATOM     15  N   UNL     1      40.839  30.871  45.805  0.00  0.00    +0.000 NA
ATOM     16  H   UNL     1      41.748  30.785  46.349  0.00  0.00    +0.000 HD
ATOM     17  H   UNL     1      41.021  30.286  44.935  0.00  0.00    +0.000 HD
ENDBRANCH   6  15
BRANCH   2  18
ATOM     18  S   UNL     1      38.127  30.607  46.576  0.00  0.00    +0.000 S 
BRANCH  18  21
ATOM     19  C   UNL     1      37.895  30.934  50.603  0.00  0.00    +0.000 A 
ATOM     20  C   UNL     1      38.352  31.083  49.304  0.00  0.00    +0.000 A 
ATOM     21  C   UNL     1      37.657  30.498  48.283  0.00  0.00    +0.000 A 
ATOM     22  N   UNL     1      36.514  29.774  48.585  0.00  0.00    +0.000 NA
ATOM     23  C   UNL     1      36.115  29.660  49.850  0.00  0.00    +0.000 A 
ATOM     24  N   UNL     1      36.789  30.230  50.865  0.00  0.00    +0.000 NA
ATOM     25  H   UNL     1      38.462  31.406  51.399  0.00  0.00    +0.000 HD
ATOM     26  H   UNL     1      39.232  31.643  49.094  0.00  0.00    +0.000 HD
BRANCH  23  27
ATOM     27  C   UNL     1      34.916  28.902  50.180  0.00  0.00    +0.000 C 
ATOM     28  O   UNL     1      34.497  27.967  49.436  0.00  0.00    +0.000 OA
BRANCH  27  29
ATOM     29  C   UNL     1      34.146  29.226  51.429  0.00  0.00    +0.000 C 
ATOM     30  C   UNL     1      32.682  29.252  51.057  0.00  0.00    +0.000 C 
ATOM     31  C   UNL     1      32.124  30.315  51.950  0.00  0.00    +0.000 C 
ATOM     32  C   UNL     1      33.233  31.241  52.331  0.00  0.00    +0.000 C 
ATOM     33  C   UNL     1      34.522  30.581  51.933  0.00  0.00    +0.000 C 
ENDBRANCH  27  29
ENDBRANCH  23  27
ENDBRANCH  18  21
ENDBRANCH   2  18
TORSDOF 5
