
 OpenBabel03272509313D

 34 36  0  0  1  0  0  0  0  0999 V2000
   36.5380   30.8330   48.8710 C   0  0  2  0  0  0  0  0  0  0  0  0
   37.4540   31.5240   49.8340 C   0  0  0  0  0  0  0  0  0  0  0  0
   38.0830   30.5770   50.8310 C   0  0  0  0  0  0  0  0  0  0  0  0
   37.0200   29.7910   51.5890 C   0  0  0  0  0  0  0  0  0  0  0  0
   35.8090   29.4410   50.7630 C   0  0  0  0  0  0  0  0  0  0  0  0
   36.2270   29.4370   49.2820 C   0  0  1  0  0  0  0  0  0  0  0  0
   35.5380   31.3370   48.7450 H   0  0  0  0  0  0  0  0  0  0  0  0
   36.7560   32.1620   50.4730 H   0  0  0  0  0  0  0  0  0  0  0  0
   38.1700   32.2160   49.4360 H   0  0  0  0  0  0  0  0  0  0  0  0
   38.8480   29.9160   50.4080 H   0  0  0  0  0  0  0  0  0  0  0  0
   38.5750   31.2250   51.5850 H   0  0  0  0  0  0  0  0  0  0  0  0
   36.7580   30.2440   52.5580 H   0  0  0  0  0  0  0  0  0  0  0  0
   37.5080   28.8120   51.8500 H   0  0  0  0  0  0  0  0  0  0  0  0
   35.4110   28.4390   51.0230 H   0  0  0  0  0  0  0  0  0  0  0  0
   35.0400   30.1980   50.9440 H   0  0  0  0  0  0  0  0  0  0  0  0
   37.0970   28.8300   49.3300 H   0  0  0  0  0  0  0  0  0  0  0  0
   37.1130   30.8150   47.4980 C   0  0  0  0  0  0  0  0  0  0  0  0
   38.4970   31.0400   47.4200 C   0  0  0  0  0  0  0  0  0  0  0  0
   39.0550   31.0250   46.1370 C   0  0  0  0  0  0  0  0  0  0  0  0
   38.2390   30.7960   45.0540 N   0  0  0  0  0  0  0  0  0  0  0  0
   36.8900   30.5820   45.1920 C   0  0  0  0  0  0  0  0  0  0  0  0
   36.3460   30.5950   46.4220 N   0  0  0  0  0  0  0  0  0  0  0  0
   39.2320   31.2180   48.1770 H   0  0  0  0  0  0  0  0  0  0  0  0
   40.0940   31.1800   45.9140 H   0  0  0  0  0  0  0  0  0  0  0  0
   36.3170   30.4090   44.3030 H   0  0  0  0  0  0  0  0  0  0  0  0
   33.9910   28.4150   48.6580 C   0  0  0  0  0  0  0  0  0  0  0  0
   33.2150   28.6960   49.6150 O   0  0  0  0  0  0  0  0  0  0  0  0
   35.3520   28.7320   48.4190 N   0  0  0  0  0  0  0  0  0  0  0  0
   35.6300   28.3480   47.4590 H   0  0  0  0  0  0  0  0  0  0  0  0
   33.1270   27.6140   47.7440 C   0  0  0  0  0  3  0  0  0  0  0  0
   33.8170   26.4110   47.2050 C   0  0  0  0  0  2  0  0  0  0  0  0
   32.9520   25.2270   47.6290 C   0  0  0  0  0  2  0  0  0  0  0  0
   31.5740   25.8470   47.6250 C   0  0  0  0  0  2  0  0  0  0  0  0
   31.8560   27.1370   48.4070 C   0  0  0  0  0  2  0  0  0  0  0  0
  1  7  1  6  0  0  0
  1  6  1  0  0  0  0
  1  2  1  0  0  0  0
  2  8  1  0  0  0  0
  2  3  1  0  0  0  0
  3 11  1  0  0  0  0
  3  4  1  0  0  0  0
  4 13  1  0  0  0  0
  4 12  1  0  0  0  0
  5 15  1  0  0  0  0
  5 14  1  0  0  0  0
  5  4  1  0  0  0  0
  6 16  1  6  0  0  0
  6  5  1  0  0  0  0
  9  2  1  0  0  0  0
 10  3  1  0  0  0  0
 17  1  1  0  0  0  0
 18 17  1  0  0  0  0
 18 23  1  0  0  0  0
 19 18  2  0  0  0  0
 20 21  2  0  0  0  0
 20 19  1  0  0  0  0
 21 22  1  0  0  0  0
 22 17  2  0  0  0  0
 24 19  1  0  0  0  0
 25 21  1  0  0  0  0
 26 27  2  0  0  0  0
 28 26  1  0  0  0  0
 28  6  1  0  0  0  0
 29 28  1  0  0  0  0
 30 34  1  0  0  0  0
 30 26  1  0  0  0  0
 31 32  1  0  0  0  0
 31 30  1  0  0  0  0
 33 32  1  0  0  0  0
 33 34  1  0  0  0  0
M  END
>  <minimizedAffinity>
-6.06901836

>  <minimizedRMSD>
1.14309573

$$$$
