
     RDKit          3D

 30 31  0  0  0  0  0  0  0  0999 V2000
   37.3703   30.1841   51.4344 C   0  0  0  0  0  0  0  0  0  0  0  0
   38.1336   30.6756   50.3387 C   0  0  0  0  0  0  0  0  0  0  0  0
   37.6976   30.3976   49.0179 C   0  0  0  0  0  0  0  0  0  0  0  0
   36.5472   29.6594   48.9143 N   0  0  0  0  0  0  0  0  0  0  0  0
   35.8611   29.2176   49.9698 C   0  0  0  0  0  0  0  0  0  0  0  0
   36.2680   29.4770   51.2216 N   0  0  0  0  0  0  0  0  0  0  0  0
   34.6624   28.4486   49.6734 C   0  0  0  0  0  0  0  0  0  0  0  0
   34.4924   27.9828   48.4809 C   0  0  0  0  0  0  0  0  0  0  0  0
   33.3864   27.1944   47.9839 C   0  0  0  0  0  0  0  0  0  0  0  0
   37.7607   30.4333   52.4118 H   0  0  0  0  0  0  0  0  0  0  0  0
   39.0436   31.2595   50.4173 H   0  0  0  0  0  0  0  0  0  0  0  0
   38.2319   30.7417   48.1625 H   0  0  0  0  0  0  0  0  0  0  0  0
   33.9225   28.2671   50.4169 H   0  0  0  0  0  0  0  0  0  0  0  0
   35.2315   28.1528   47.6805 H   0  0  0  0  0  0  0  0  0  0  0  0
   32.9389   27.6595   47.0804 H   0  0  0  0  0  0  0  0  0  0  0  0
   33.8180   26.2168   47.6173 H   0  0  0  0  0  0  0  0  0  0  0  0
   32.3139   26.8180   48.9595 C   0  0  0  0  0  0  0  0  0  0  0  0
   31.1410   27.7572   48.6125 C   0  0  0  0  0  0  0  0  0  0  0  0
   29.8932   27.0274   48.9901 C   0  0  0  0  0  0  0  0  0  0  0  0
   30.3014   25.6141   49.2811 C   0  0  0  0  0  0  0  0  0  0  0  0
   31.6497   25.4931   48.5584 C   0  0  0  0  0  0  0  0  0  0  0  0
   32.5810   26.8374   50.0092 H   0  0  0  0  0  0  0  0  0  0  0  0
   31.2686   28.7488   49.0800 H   0  0  0  0  0  0  0  0  0  0  0  0
   31.1169   27.8810   47.5104 H   0  0  0  0  0  0  0  0  0  0  0  0
   29.3702   27.5261   49.8397 H   0  0  0  0  0  0  0  0  0  0  0  0
   29.1406   27.0056   48.1538 H   0  0  0  0  0  0  0  0  0  0  0  0
   30.5212   25.5255   50.3734 H   0  0  0  0  0  0  0  0  0  0  0  0
   29.5634   24.8910   48.9097 H   0  0  0  0  0  0  0  0  0  0  0  0
   31.5070   25.4928   47.4683 H   0  0  0  0  0  0  0  0  0  0  0  0
   32.1477   24.6136   48.9518 H   0  0  0  0  0  0  0  0  0  0  0  0
  2  1  2  0
  3  2  1  0
  4  3  2  0
  4  5  1  0
  5  6  2  0
  6  1  1  0
  7  5  1  0
  8  7  2  0
  9  8  1  0
  1 10  1  0
  2 11  1  0
  3 12  1  0
  7 13  1  0
  8 14  1  0
  9 15  1  0
  9 16  1  0
 17 18  1  0
 18 19  1  0
 19 20  1  0
 20 21  1  0
 21 17  1  0
 17 22  1  0
 18 23  1  0
 18 24  1  0
 19 25  1  0
 19 26  1  0
 20 27  1  0
 20 28  1  0
 21 29  1  0
 21 30  1  0
  9 17  1  0
M  ISO  5  10  14  11  14  12  14  15   8  16   8
M  END
>  <DihAtoms>  (1) 
7,8,16,17

>  <DihDeg>  (1) 
179.40645608169527

$$$$
