
     RDKit          3D

 37 39  0  0  0  0  0  0  0  0999 V2000
   37.4661   31.4251   49.3813 C   0  0  0  0  0  0  0  0  0  0  0  0
   37.8687   32.7104   49.6958 C   0  0  0  0  0  0  0  0  0  0  0  0
   38.6903   33.3375   48.7533 C   0  0  0  0  0  0  0  0  0  0  0  0
   39.0383   32.6713   47.6140 N   0  0  0  0  0  0  0  0  0  0  0  0
   38.6226   31.4166   47.3468 C   0  0  0  0  0  0  0  0  0  0  0  0
   37.8158   30.7759   48.2533 N   0  0  0  0  0  0  0  0  0  0  0  0
   36.5575   30.7410   50.3644 C   0  0  0  0  0  0  0  0  0  0  0  0
   36.4661   29.3203   50.4711 C   0  0  0  0  0  0  0  0  0  0  0  0
   37.3505   30.0294   51.4849 C   0  0  0  0  0  0  0  0  0  0  0  0
   38.9827   30.6987   46.1329 C   0  0  0  0  0  0  0  0  0  0  0  0
   41.0469   31.5567   45.0102 C   0  0  0  0  0  0  0  0  0  0  0  0
   40.4437   32.2839   44.1784 O   0  0  0  0  0  0  0  0  0  0  0  0
   40.4297   30.7721   46.0126 N   0  0  0  0  0  0  0  0  0  0  0  0
   37.5542   33.1799   50.6199 H   0  0  0  0  0  0  0  0  0  0  0  0
   39.0335   34.3444   48.9512 H   0  0  0  0  0  0  0  0  0  0  0  0
   35.8650   31.4909   50.8245 H   0  0  0  0  0  0  0  0  0  0  0  0
   35.4991   28.8974   50.8672 H   0  0  0  0  0  0  0  0  0  0  0  0
   36.8918   28.6736   49.7019 H   0  0  0  0  0  0  0  0  0  0  0  0
   36.9844   30.0868   52.5090 H   0  0  0  0  0  0  0  0  0  0  0  0
   38.4185   29.8668   51.3370 H   0  0  0  0  0  0  0  0  0  0  0  0
   38.4977   31.1070   45.2096 H   0  0  0  0  0  0  0  0  0  0  0  0
   38.7166   29.6470   46.1773 H   0  0  0  0  0  0  0  0  0  0  0  0
   40.9878   30.2128   46.7079 H   0  0  0  0  0  0  0  0  0  0  0  0
   42.5499   31.4944   44.9613 C   0  0  0  0  0  0  0  0  0  0  0  0
   43.0625   32.9183   44.8068 C   0  0  0  0  0  0  0  0  0  0  0  0
   43.4853   33.3052   46.2228 C   0  0  0  0  0  0  0  0  0  0  0  0
   44.1351   32.0028   46.6668 C   0  0  0  0  0  0  0  0  0  0  0  0
   43.1207   30.9831   46.2520 C   0  0  0  0  0  0  0  0  0  0  0  0
   42.9042   30.9021   44.0884 H   0  0  0  0  0  0  0  0  0  0  0  0
   42.2681   33.6335   44.5083 H   0  0  0  0  0  0  0  0  0  0  0  0
   43.8896   33.0170   44.1034 H   0  0  0  0  0  0  0  0  0  0  0  0
   44.1698   34.1571   46.2537 H   0  0  0  0  0  0  0  0  0  0  0  0
   42.5358   33.4671   46.7995 H   0  0  0  0  0  0  0  0  0  0  0  0
   45.0358   31.8370   46.0614 H   0  0  0  0  0  0  0  0  0  0  0  0
   44.3575   32.0099   47.7531 H   0  0  0  0  0  0  0  0  0  0  0  0
   43.5323   29.9595   46.1620 H   0  0  0  0  0  0  0  0  0  0  0  0
   42.2763   30.9348   46.9928 H   0  0  0  0  0  0  0  0  0  0  0  0
  1  2  2  0
  1  7  1  0
  3  2  1  0
  4  3  2  0
  5  4  1  0
  5  6  2  0
  6  1  1  0
  7  8  1  0
  7  9  1  0
  8  9  1  0
 10  5  1  0
 11 13  1  0
 12 11  2  0
 13 10  1  0
  2 14  1  0
  3 15  1  0
  7 16  1  0
  8 17  1  0
  8 18  1  0
  9 19  1  0
  9 20  1  0
 10 21  1  0
 10 22  1  0
 13 23  1  0
 24 25  1  0
 25 26  1  0
 26 27  1  0
 27 28  1  0
 28 24  1  0
 24 29  1  0
 25 30  1  0
 25 31  1  0
 26 32  1  0
 26 33  1  0
 27 34  1  0
 27 35  1  0
 28 36  1  0
 28 37  1  0
 11 24  1  0
M  ISO  8  14  14  15  14  16  13  17  13  18  13  19  13  20  13  21   8
M  ISO  1  22   8
M  END
>  <DihAtoms>  (1) 
12,10,23,24

>  <DihDeg>  (1) 
60.000744701624384

$$$$
