
 OpenBabel03262522043D

 35 38  0  0  1  0  0  0  0  0999 V2000
   37.0980   24.8260   31.4470 C   0  0  2  0  0  0  0  0  0  0  0  0
   37.8300   23.7910   30.6600 C   0  0  0  0  0  0  0  0  0  0  0  0
   38.2490   22.7260   31.5600 N   0  0  0  0  0  0  0  0  0  0  0  0
   38.4740   21.4570   32.1940 C   0  0  0  0  0  0  0  0  0  0  0  0
   38.3380   20.2520   31.9000 O   0  0  0  0  0  0  0  0  0  0  0  0
   38.9690   22.0500   33.4350 C   0  0  1  0  0  0  0  0  0  0  0  0
   39.0010   23.3250   32.6360 C   0  0  2  0  0  0  0  0  0  0  0  0
   37.7820   24.5830   33.1360 S   0  0  0  0  0  0  0  0  0  0  0  0
   37.1160   23.3550   29.9190 H   0  0  0  0  0  0  0  0  0  0  0  0
   38.6790   24.2150   30.0960 H   0  0  0  0  0  0  0  0  0  0  0  0
   39.9940   21.8250   33.7850 H   0  0  0  0  0  0  0  0  0  0  0  0
   39.9950   23.7210   32.3620 H   0  0  0  0  0  0  0  0  0  0  0  0
   35.6100   24.7520   31.3910 C   0  0  0  0  0  0  0  0  0  0  0  0
   35.2050   24.4090   32.3890 H   0  0  0  0  0  0  0  0  0  0  0  0
   35.3620   23.8860   30.7090 H   0  0  0  0  0  0  0  0  0  0  0  0
   35.0840   25.6470   31.0660 H   0  0  0  0  0  0  0  0  0  0  0  0
   37.6220   26.2020   31.0170 C   0  0  0  0  0  0  0  0  0  0  0  0
   38.5490   26.4180   31.5450 H   0  0  0  0  0  0  0  0  0  0  0  0
   37.7970   26.1010   29.9250 H   0  0  0  0  0  0  0  0  0  0  0  0
   36.6290   27.3070   31.1890 C   0  0  0  0  0  3  0  0  0  0  0  0
   36.8940   28.2780   30.0290 C   0  0  0  0  0  2  0  0  0  0  0  0
   36.5040   29.6470   30.5500 C   0  0  0  0  0  2  0  0  0  0  0  0
   35.9850   29.4040   31.9570 C   0  0  0  0  0  2  0  0  0  0  0  0
   36.8530   28.2060   32.3560 C   0  0  0  0  0  2  0  0  0  0  0  0
   38.0380   22.0060   34.5790 C   0  0  0  0  0  0  0  0  0  0  0  0
   36.8910   21.5520   34.2980 O   0  0  0  0  0  0  0  0  0  0  0  0
   38.4020   22.4390   35.9040 C   0  0  0  0  0  0  0  0  0  0  0  0
   39.7190   22.2470   36.2990 C   0  0  0  0  0  0  0  0  0  0  0  0
   40.0730   22.6750   37.6100 C   0  0  0  0  0  0  0  0  0  0  0  0
   39.1090   23.2370   38.3820 N   0  0  0  0  0  0  0  0  0  0  0  0
   37.8560   23.4020   37.9630 C   0  0  0  0  0  0  0  0  0  0  0  0
   37.5000   23.0040   36.7240 N   0  0  0  0  0  0  0  0  0  0  0  0
   40.5080   21.8090   35.7230 H   0  0  0  0  0  0  0  0  0  0  0  0
   41.0950   22.5450   37.9660 H   0  0  0  0  0  0  0  0  0  0  0  0
   37.0660   23.8470   38.5550 H   0  0  0  0  0  0  0  0  0  0  0  0
  1 17  1  6  0  0  0
  1  8  1  0  0  0  0
  2  1  1  0  0  0  0
  2  3  1  0  0  0  0
  3  4  1  0  0  0  0
  3  7  1  0  0  0  0
  4  6  1  0  0  0  0
  5  4  2  0  0  0  0
  6 11  1  1  0  0  0
  6 25  1  0  0  0  0
  7 12  1  6  0  0  0
  7  8  1  0  0  0  0
  7  6  1  0  0  0  0
  9  2  1  0  0  0  0
 10  2  1  0  0  0  0
 13  1  1  0  0  0  0
 13 14  1  0  0  0  0
 15 13  1  0  0  0  0
 16 13  1  0  0  0  0
 17 20  1  0  0  0  0
 17 18  1  0  0  0  0
 19 17  1  0  0  0  0
 20 24  1  0  0  0  0
 21 22  1  0  0  0  0
 21 20  1  0  0  0  0
 22 23  1  0  0  0  0
 23 24  1  0  0  0  0
 25 27  1  0  0  0  0
 26 25  2  0  0  0  0
 27 28  2  0  0  0  0
 27 32  1  0  0  0  0
 28 29  1  0  0  0  0
 29 34  1  0  0  0  0
 29 30  2  0  0  0  0
 31 30  1  0  0  0  0
 31 35  1  0  0  0  0
 32 31  2  0  0  0  0
 33 28  1  0  0  0  0
M  END
>  <minimizedAffinity>
-5.36336231

$$$$

 OpenBabel03262522043D

 35 38  0  0  1  0  0  0  0  0999 V2000
   38.3580   25.9610   35.2440 C   0  0  2  0  0  0  0  0  0  0  0  0
   38.0550   25.2990   36.5460 C   0  0  0  0  0  0  0  0  0  0  0  0
   38.7860   24.0420   36.6150 N   0  0  0  0  0  0  0  0  0  0  0  0
   39.6370   22.9540   37.0120 C   0  0  0  0  0  0  0  0  0  0  0  0
   40.2560   22.6060   38.0380 O   0  0  0  0  0  0  0  0  0  0  0  0
   39.5620   22.2880   35.7130 C   0  0  1  0  0  0  0  0  0  0  0  0
   38.4540   23.2710   35.4420 C   0  0  2  0  0  0  0  0  0  0  0  0
   38.8290   24.5340   34.1850 S   0  0  0  0  0  0  0  0  0  0  0  0
   38.4310   25.9610   37.3630 H   0  0  0  0  0  0  0  0  0  0  0  0
   36.9710   25.1570   36.7030 H   0  0  0  0  0  0  0  0  0  0  0  0
   39.1520   21.2630   35.6390 H   0  0  0  0  0  0  0  0  0  0  0  0
   37.4250   22.8700   35.4100 H   0  0  0  0  0  0  0  0  0  0  0  0
   39.3890   27.0370   35.2870 C   0  0  0  0  0  0  0  0  0  0  0  0
   40.3310   26.6870   34.7700 H   0  0  0  0  0  0  0  0  0  0  0  0
   39.7120   27.1210   36.3660 H   0  0  0  0  0  0  0  0  0  0  0  0
   39.0980   28.0130   34.9050 H   0  0  0  0  0  0  0  0  0  0  0  0
   37.0340   26.4570   34.6480 C   0  0  0  0  0  0  0  0  0  0  0  0
   36.5480   25.6410   34.1150 H   0  0  0  0  0  0  0  0  0  0  0  0
   36.4360   26.7710   35.5300 H   0  0  0  0  0  0  0  0  0  0  0  0
   37.1780   27.6640   33.7790 C   0  0  0  0  0  3  0  0  0  0  0  0
   36.1070   28.6510   34.2700 C   0  0  0  0  0  2  0  0  0  0  0  0
   35.7210   29.4670   33.0520 C   0  0  0  0  0  2  0  0  0  0  0  0
   36.6130   28.9590   31.9320 C   0  0  0  0  0  2  0  0  0  0  0  0
   36.7640   27.4950   32.3570 C   0  0  0  0  0  2  0  0  0  0  0  0
   40.7670   22.3970   34.8700 C   0  0  0  0  0  0  0  0  0  0  0  0
   40.6820   21.7920   33.7620 O   0  0  0  0  0  0  0  0  0  0  0  0
   41.9400   23.1320   35.2680 C   0  0  0  0  0  0  0  0  0  0  0  0
   42.9640   22.4200   35.8770 C   0  0  0  0  0  0  0  0  0  0  0  0
   44.1210   23.1500   36.2700 C   0  0  0  0  0  0  0  0  0  0  0  0
   44.1480   24.4850   36.0260 N   0  0  0  0  0  0  0  0  0  0  0  0
   43.1420   25.1300   35.4390 C   0  0  0  0  0  0  0  0  0  0  0  0
   42.0370   24.4560   35.0580 N   0  0  0  0  0  0  0  0  0  0  0  0
   42.9830   21.3700   36.0870 H   0  0  0  0  0  0  0  0  0  0  0  0
   44.9510   22.6350   36.7520 H   0  0  0  0  0  0  0  0  0  0  0  0
   43.1350   26.1930   35.2310 H   0  0  0  0  0  0  0  0  0  0  0  0
  1 17  1  6  0  0  0
  1 13  1  0  0  0  0
  1  2  1  0  0  0  0
  2  3  1  0  0  0  0
  2 10  1  0  0  0  0
  2  9  1  0  0  0  0
  3  4  1  0  0  0  0
  4  5  2  0  0  0  0
  6 11  1  1  0  0  0
  6  4  1  0  0  0  0
  7 12  1  6  0  0  0
  7  6  1  0  0  0  0
  7  3  1  0  0  0  0
  8  1  1  0  0  0  0
  8  7  1  0  0  0  0
 13 15  1  0  0  0  0
 14 13  1  0  0  0  0
 16 13  1  0  0  0  0
 17 19  1  0  0  0  0
 18 17  1  0  0  0  0
 20 21  1  0  0  0  0
 20 17  1  0  0  0  0
 22 21  1  0  0  0  0
 23 24  1  0  0  0  0
 23 22  1  0  0  0  0
 24 20  1  0  0  0  0
 25 27  1  0  0  0  0
 25  6  1  0  0  0  0
 26 25  2  0  0  0  0
 27 28  1  0  0  0  0
 28 33  1  0  0  0  0
 28 29  2  0  0  0  0
 29 34  1  0  0  0  0
 30 29  1  0  0  0  0
 31 30  2  0  0  0  0
 32 27  2  0  0  0  0
 32 31  1  0  0  0  0
 35 31  1  0  0  0  0
M  END
>  <minimizedAffinity>
-5.27430248

$$$$

 OpenBabel03262522043D

 35 38  0  0  1  0  0  0  0  0999 V2000
   36.8000   27.5970   32.2270 C   0  0  2  0  0  0  0  0  0  0  0  0
   38.1790   27.6790   31.6630 C   0  0  0  0  0  0  0  0  0  0  0  0
   39.0300   26.7250   32.3610 N   0  0  0  0  0  0  0  0  0  0  0  0
   39.9380   25.6620   32.6910 C   0  0  0  0  0  0  0  0  0  0  0  0
   40.7330   24.9170   32.0830 O   0  0  0  0  0  0  0  0  0  0  0  0
   39.6290   25.7050   34.1190 C   0  0  1  0  0  0  0  0  0  0  0  0
   38.9270   26.9920   33.7750 C   0  0  2  0  0  0  0  0  0  0  0  0
   37.1120   26.9470   33.9180 S   0  0  0  0  0  0  0  0  0  0  0  0
   38.1290   27.3750   30.5900 H   0  0  0  0  0  0  0  0  0  0  0  0
   38.5890   28.7040   31.7010 H   0  0  0  0  0  0  0  0  0  0  0  0
   40.4290   25.9220   34.8530 H   0  0  0  0  0  0  0  0  0  0  0  0
   39.4000   27.9280   34.1200 H   0  0  0  0  0  0  0  0  0  0  0  0
   35.8270   26.7820   31.4460 C   0  0  0  0  0  0  0  0  0  0  0  0
   35.5860   25.8300   32.0070 H   0  0  0  0  0  0  0  0  0  0  0  0
   36.3860   26.4040   30.5410 H   0  0  0  0  0  0  0  0  0  0  0  0
   34.9070   27.2740   31.1390 H   0  0  0  0  0  0  0  0  0  0  0  0
   36.2990   29.0290   32.4560 C   0  0  0  0  0  0  0  0  0  0  0  0
   37.1510   29.7010   32.5480 H   0  0  0  0  0  0  0  0  0  0  0  0
   35.7040   29.2600   31.5480 H   0  0  0  0  0  0  0  0  0  0  0  0
   35.3710   29.1650   33.6190 C   0  0  0  0  0  3  0  0  0  0  0  0
   33.9780   29.3770   33.0080 C   0  0  0  0  0  2  0  0  0  0  0  0
   33.2190   30.2210   34.0130 C   0  0  0  0  0  2  0  0  0  0  0  0
   34.1780   30.4140   35.1760 C   0  0  0  0  0  2  0  0  0  0  0  0
   35.5120   30.4120   34.4210 C   0  0  0  0  0  2  0  0  0  0  0  0
   38.7870   24.6040   34.6230 C   0  0  0  0  0  0  0  0  0  0  0  0
   38.0560   24.0640   33.7420 O   0  0  0  0  0  0  0  0  0  0  0  0
   38.7960   24.1740   35.9990 C   0  0  0  0  0  0  0  0  0  0  0  0
   39.7910   23.2860   36.3840 C   0  0  0  0  0  0  0  0  0  0  0  0
   39.7950   22.8640   37.7430 C   0  0  0  0  0  0  0  0  0  0  0  0
   38.8330   23.3520   38.5670 N   0  0  0  0  0  0  0  0  0  0  0  0
   37.8960   24.2030   38.1560 C   0  0  0  0  0  0  0  0  0  0  0  0
   37.8750   24.6160   36.8720 N   0  0  0  0  0  0  0  0  0  0  0  0
   40.5650   22.8790   35.7670 H   0  0  0  0  0  0  0  0  0  0  0  0
   40.5550   22.1670   38.0930 H   0  0  0  0  0  0  0  0  0  0  0  0
   37.1170   24.6100   38.7900 H   0  0  0  0  0  0  0  0  0  0  0  0
  1 13  1  6  0  0  0
  1 17  1  0  0  0  0
  1  8  1  0  0  0  0
  2 10  1  0  0  0  0
  2  1  1  0  0  0  0
  2  3  1  0  0  0  0
  3  4  1  0  0  0  0
  3  7  1  0  0  0  0
  4  6  1  0  0  0  0
  5  4  2  0  0  0  0
  6 25  1  0  0  0  0
  6 11  1  1  0  0  0
  7  8  1  0  0  0  0
  7  6  1  0  0  0  0
  7 12  1  1  0  0  0
  9  2  1  0  0  0  0
 13 14  1  0  0  0  0
 15 13  1  0  0  0  0
 16 13  1  0  0  0  0
 17 18  1  0  0  0  0
 17 20  1  0  0  0  0
 19 17  1  0  0  0  0
 20 24  1  0  0  0  0
 21 20  1  0  0  0  0
 21 22  1  0  0  0  0
 22 23  1  0  0  0  0
 24 23  1  0  0  0  0
 25 27  1  0  0  0  0
 26 25  2  0  0  0  0
 27 28  2  0  0  0  0
 27 32  1  0  0  0  0
 28 29  1  0  0  0  0
 29 34  1  0  0  0  0
 29 30  2  0  0  0  0
 31 30  1  0  0  0  0
 31 35  1  0  0  0  0
 32 31  2  0  0  0  0
 33 28  1  0  0  0  0
M  END
>  <minimizedAffinity>
-5.21496582

$$$$

 OpenBabel03262522043D

 35 38  0  0  1  0  0  0  0  0999 V2000
   37.6890   22.9230   31.1680 C   0  0  2  0  0  0  0  0  0  0  0  0
   37.2870   24.3170   30.8170 C   0  0  0  0  0  0  0  0  0  0  0  0
   37.7110   25.2110   31.8860 N   0  0  0  0  0  0  0  0  0  0  0  0
   38.3020   26.2750   32.6480 C   0  0  0  0  0  0  0  0  0  0  0  0
   38.8600   27.3660   32.4140 O   0  0  0  0  0  0  0  0  0  0  0  0
   38.0300   25.6390   33.9360 C   0  0  1  0  0  0  0  0  0  0  0  0
   37.1690   24.7080   33.1250 C   0  0  2  0  0  0  0  0  0  0  0  0
   37.7810   22.9970   33.0020 S   0  0  0  0  0  0  0  0  0  0  0  0
   37.8340   24.6070   29.8880 H   0  0  0  0  0  0  0  0  0  0  0  0
   36.2060   24.4030   30.6100 H   0  0  0  0  0  0  0  0  0  0  0  0
   37.3930   26.1510   34.6830 H   0  0  0  0  0  0  0  0  0  0  0  0
   36.0760   24.8060   33.2430 H   0  0  0  0  0  0  0  0  0  0  0  0
   38.9400   22.4280   30.5280 C   0  0  0  0  0  0  0  0  0  0  0  0
   39.7580   22.3370   31.3030 H   0  0  0  0  0  0  0  0  0  0  0  0
   39.3120   23.2670   29.8700 H   0  0  0  0  0  0  0  0  0  0  0  0
   38.8690   21.5060   29.9550 H   0  0  0  0  0  0  0  0  0  0  0  0
   36.4940   22.0030   30.8830 C   0  0  0  0  0  0  0  0  0  0  0  0
   35.5830   22.5970   30.8310 H   0  0  0  0  0  0  0  0  0  0  0  0
   36.7290   21.5440   29.9000 H   0  0  0  0  0  0  0  0  0  0  0  0
   36.3530   20.8780   31.8570 C   0  0  0  0  0  3  0  0  0  0  0  0
   36.7630   19.6150   31.0840 C   0  0  0  0  0  2  0  0  0  0  0  0
   35.9670   18.4850   31.7040 C   0  0  0  0  0  2  0  0  0  0  0  0
   35.1780   19.1260   32.8340 C   0  0  0  0  0  2  0  0  0  0  0  0
   34.9590   20.5230   32.2430 C   0  0  0  0  0  2  0  0  0  0  0  0
   39.1980   25.0440   34.6130 C   0  0  0  0  0  0  0  0  0  0  0  0
   40.2830   25.1560   33.9710 O   0  0  0  0  0  0  0  0  0  0  0  0
   39.1150   24.3930   35.8960 C   0  0  0  0  0  0  0  0  0  0  0  0
   38.1010   24.7990   36.7530 C   0  0  0  0  0  0  0  0  0  0  0  0
   38.0230   24.1550   38.0200 C   0  0  0  0  0  0  0  0  0  0  0  0
   38.9380   23.1940   38.3060 N   0  0  0  0  0  0  0  0  0  0  0  0
   39.8960   22.8350   37.4540 C   0  0  0  0  0  0  0  0  0  0  0  0
   39.9860   23.4330   36.2470 N   0  0  0  0  0  0  0  0  0  0  0  0
   37.3610   25.5500   36.5660 H   0  0  0  0  0  0  0  0  0  0  0  0
   37.2450   24.4390   38.7270 H   0  0  0  0  0  0  0  0  0  0  0  0
   40.6400   22.0730   37.6530 H   0  0  0  0  0  0  0  0  0  0  0  0
  1 13  1  6  0  0  0
  1  8  1  0  0  0  0
  2  1  1  0  0  0  0
  2  3  1  0  0  0  0
  3  4  1  0  0  0  0
  3  7  1  0  0  0  0
  4  6  1  0  0  0  0
  5  4  2  0  0  0  0
  6 25  1  0  0  0  0
  6 11  1  1  0  0  0
  7 12  1  1  0  0  0
  7  6  1  0  0  0  0
  8  7  1  0  0  0  0
  9  2  1  0  0  0  0
 10  2  1  0  0  0  0
 13 14  1  0  0  0  0
 15 13  1  0  0  0  0
 16 13  1  0  0  0  0
 17  1  1  0  0  0  0
 17 20  1  0  0  0  0
 18 17  1  0  0  0  0
 19 17  1  0  0  0  0
 20 24  1  0  0  0  0
 21 22  1  0  0  0  0
 21 20  1  0  0  0  0
 22 23  1  0  0  0  0
 24 23  1  0  0  0  0
 25 27  1  0  0  0  0
 26 25  2  0  0  0  0
 27 32  2  0  0  0  0
 27 28  1  0  0  0  0
 28 29  2  0  0  0  0
 29 30  1  0  0  0  0
 29 34  1  0  0  0  0
 31 35  1  0  0  0  0
 31 30  2  0  0  0  0
 32 31  1  0  0  0  0
 33 28  1  0  0  0  0
M  END
>  <minimizedAffinity>
-5.20161295

$$$$

 OpenBabel03262522043D

 35 38  0  0  1  0  0  0  0  0999 V2000
   38.9440   23.6360   36.0300 C   0  0  2  0  0  0  0  0  0  0  0  0
   38.2380   24.7740   36.6880 C   0  0  0  0  0  0  0  0  0  0  0  0
   38.0490   25.8370   35.7120 N   0  0  0  0  0  0  0  0  0  0  0  0
   37.4940   26.8490   34.8560 C   0  0  0  0  0  0  0  0  0  0  0  0
   36.4090   27.4540   34.7410 O   0  0  0  0  0  0  0  0  0  0  0  0
   38.7130   26.9860   34.0600 C   0  0  1  0  0  0  0  0  0  0  0  0
   39.3380   26.1570   35.1500 C   0  0  2  0  0  0  0  0  0  0  0  0
   39.8320   24.4750   34.6560 S   0  0  0  0  0  0  0  0  0  0  0  0
   37.2290   24.4140   37.0050 H   0  0  0  0  0  0  0  0  0  0  0  0
   38.7640   25.1290   37.5910 H   0  0  0  0  0  0  0  0  0  0  0  0
   39.2350   27.9610   34.0110 H   0  0  0  0  0  0  0  0  0  0  0  0
   40.0410   26.6700   35.8290 H   0  0  0  0  0  0  0  0  0  0  0  0
   38.0790   22.5090   35.5800 C   0  0  0  0  0  0  0  0  0  0  0  0
   38.0280   22.4910   34.4510 H   0  0  0  0  0  0  0  0  0  0  0  0
   37.0240   22.7830   35.8730 H   0  0  0  0  0  0  0  0  0  0  0  0
   38.3270   21.5180   35.9540 H   0  0  0  0  0  0  0  0  0  0  0  0
   40.0590   23.1650   36.9730 C   0  0  0  0  0  0  0  0  0  0  0  0
   40.3160   23.9690   37.6610 H   0  0  0  0  0  0  0  0  0  0  0  0
   39.6150   22.3020   37.5140 H   0  0  0  0  0  0  0  0  0  0  0  0
   41.2690   22.6470   36.2650 C   0  0  0  0  0  3  0  0  0  0  0  0
   41.5080   21.2420   36.8400 C   0  0  0  0  0  2  0  0  0  0  0  0
   43.0050   21.0190   36.7530 C   0  0  0  0  0  2  0  0  0  0  0  0
   43.5560   22.2700   36.0890 C   0  0  0  0  0  2  0  0  0  0  0  0
   42.5580   23.3090   36.6120 C   0  0  0  0  0  2  0  0  0  0  0  0
   38.6660   26.3870   32.7130 C   0  0  0  0  0  0  0  0  0  0  0  0
   39.7480   26.4810   32.0650 O   0  0  0  0  0  0  0  0  0  0  0  0
   37.4920   25.7440   32.1800 C   0  0  0  0  0  0  0  0  0  0  0  0
   36.5910   26.5370   31.4810 C   0  0  0  0  0  0  0  0  0  0  0  0
   35.4320   25.8990   30.9580 C   0  0  0  0  0  0  0  0  0  0  0  0
   35.2830   24.5670   31.1740 N   0  0  0  0  0  0  0  0  0  0  0  0
   36.1720   23.8430   31.8500 C   0  0  0  0  0  0  0  0  0  0  0  0
   37.2780   24.4290   32.3550 N   0  0  0  0  0  0  0  0  0  0  0  0
   36.6720   27.5880   31.2890 H   0  0  0  0  0  0  0  0  0  0  0  0
   34.6960   26.4790   30.4020 H   0  0  0  0  0  0  0  0  0  0  0  0
   36.0800   22.7800   32.0390 H   0  0  0  0  0  0  0  0  0  0  0  0
  1 13  1  6  0  0  0
  1  2  1  0  0  0  0
  1 17  1  0  0  0  0
  2  9  1  0  0  0  0
  2 10  1  0  0  0  0
  3  2  1  0  0  0  0
  4  3  1  0  0  0  0
  5  4  2  0  0  0  0
  6 11  1  6  0  0  0
  6  4  1  0  0  0  0
  6  7  1  0  0  0  0
  7  3  1  0  0  0  0
  7 12  1  1  0  0  0
  8  7  1  0  0  0  0
  8  1  1  0  0  0  0
 13 15  1  0  0  0  0
 13 16  1  0  0  0  0
 14 13  1  0  0  0  0
 17 19  1  0  0  0  0
 17 18  1  0  0  0  0
 20 24  1  0  0  0  0
 20 21  1  0  0  0  0
 20 17  1  0  0  0  0
 22 21  1  0  0  0  0
 23 24  1  0  0  0  0
 23 22  1  0  0  0  0
 25  6  1  0  0  0  0
 26 25  2  0  0  0  0
 27 32  1  0  0  0  0
 27 25  1  0  0  0  0
 28 27  2  0  0  0  0
 29 30  2  0  0  0  0
 29 28  1  0  0  0  0
 30 31  1  0  0  0  0
 31 35  1  0  0  0  0
 31 32  2  0  0  0  0
 33 28  1  0  0  0  0
 34 29  1  0  0  0  0
M  END
>  <minimizedAffinity>
-5.19832706

$$$$

 OpenBabel03262522043D

 35 38  0  0  1  0  0  0  0  0999 V2000
   39.3450   23.4200   33.9840 C   0  0  2  0  0  0  0  0  0  0  0  0
   39.0670   22.5080   32.8370 C   0  0  0  0  0  0  0  0  0  0  0  0
   38.5690   23.2980   31.7190 N   0  0  0  0  0  0  0  0  0  0  0  0
   38.3700   23.9040   30.4320 C   0  0  0  0  0  0  0  0  0  0  0  0
   38.7830   23.7330   29.2670 O   0  0  0  0  0  0  0  0  0  0  0  0
   37.4300   24.9030   30.9360 C   0  0  1  0  0  0  0  0  0  0  0  0
   37.4380   24.0620   32.1850 C   0  0  2  0  0  0  0  0  0  0  0  0
   38.2250   24.8350   33.6340 S   0  0  0  0  0  0  0  0  0  0  0  0
   40.0330   22.0420   32.5270 H   0  0  0  0  0  0  0  0  0  0  0  0
   38.3740   21.6910   33.1070 H   0  0  0  0  0  0  0  0  0  0  0  0
   36.3970   24.9410   30.5410 H   0  0  0  0  0  0  0  0  0  0  0  0
   36.5260   23.4800   32.4030 H   0  0  0  0  0  0  0  0  0  0  0  0
   40.7700   23.8180   34.1660 C   0  0  0  0  0  0  0  0  0  0  0  0
   40.9000   24.9090   33.9000 H   0  0  0  0  0  0  0  0  0  0  0  0
   41.3510   23.2930   33.3530 H   0  0  0  0  0  0  0  0  0  0  0  0
   41.2180   23.6170   35.1360 H   0  0  0  0  0  0  0  0  0  0  0  0
   38.7620   22.7760   35.2490 C   0  0  0  0  0  0  0  0  0  0  0  0
   37.7570   22.4140   35.0420 H   0  0  0  0  0  0  0  0  0  0  0  0
   39.4520   21.9360   35.4730 H   0  0  0  0  0  0  0  0  0  0  0  0
   38.7800   23.6720   36.4460 C   0  0  0  0  0  3  0  0  0  0  0  0
   39.5750   22.9080   37.5160 C   0  0  0  0  0  2  0  0  0  0  0  0
   39.0060   23.3660   38.8450 C   0  0  0  0  0  2  0  0  0  0  0  0
   37.9540   24.4040   38.4920 C   0  0  0  0  0  2  0  0  0  0  0  0
   37.4770   23.8500   37.1450 C   0  0  0  0  0  2  0  0  0  0  0  0
   37.9600   26.2750   31.0560 C   0  0  0  0  0  0  0  0  0  0  0  0
   39.2230   26.3460   31.0520 O   0  0  0  0  0  0  0  0  0  0  0  0
   37.1140   27.4370   31.1660 C   0  0  0  0  0  0  0  0  0  0  0  0
   37.2790   28.4380   30.2180 C   0  0  0  0  0  0  0  0  0  0  0  0
   36.4430   29.5840   30.3310 C   0  0  0  0  0  0  0  0  0  0  0  0
   35.5470   29.6240   31.3490 N   0  0  0  0  0  0  0  0  0  0  0  0
   35.4220   28.6410   32.2380 C   0  0  0  0  0  0  0  0  0  0  0  0
   36.2040   27.5450   32.1480 N   0  0  0  0  0  0  0  0  0  0  0  0
   37.9710   28.4450   29.4010 H   0  0  0  0  0  0  0  0  0  0  0  0
   36.5340   30.3960   29.6110 H   0  0  0  0  0  0  0  0  0  0  0  0
   34.7170   28.6440   33.0600 H   0  0  0  0  0  0  0  0  0  0  0  0
  1 13  1  1  0  0  0
  1 17  1  0  0  0  0
  2 10  1  0  0  0  0
  2  1  1  0  0  0  0
  3  7  1  0  0  0  0
  3  2  1  0  0  0  0
  4  6  1  0  0  0  0
  4  3  1  0  0  0  0
  5  4  2  0  0  0  0
  6 11  1  6  0  0  0
  6 25  1  0  0  0  0
  6  7  1  0  0  0  0
  7 12  1  1  0  0  0
  7  8  1  0  0  0  0
  8  1  1  0  0  0  0
  9  2  1  0  0  0  0
 13 16  1  0  0  0  0
 14 13  1  0  0  0  0
 15 13  1  0  0  0  0
 17 19  1  0  0  0  0
 17 20  1  0  0  0  0
 18 17  1  0  0  0  0
 20 24  1  0  0  0  0
 20 21  1  0  0  0  0
 21 22  1  0  0  0  0
 23 22  1  0  0  0  0
 24 23  1  0  0  0  0
 25 27  1  0  0  0  0
 26 25  2  0  0  0  0
 27 32  1  0  0  0  0
 28 29  1  0  0  0  0
 28 27  2  0  0  0  0
 29 30  2  0  0  0  0
 30 31  1  0  0  0  0
 31 35  1  0  0  0  0
 32 31  2  0  0  0  0
 33 28  1  0  0  0  0
 34 29  1  0  0  0  0
M  END
>  <minimizedAffinity>
-5.0351305

$$$$

 OpenBabel03262522043D

 35 38  0  0  1  0  0  0  0  0999 V2000
   38.8090   26.4370   34.6150 C   0  0  2  0  0  0  0  0  0  0  0  0
   39.8810   26.7240   33.6170 C   0  0  0  0  0  0  0  0  0  0  0  0
   39.2610   26.9860   32.3250 N   0  0  0  0  0  0  0  0  0  0  0  0
   38.8550   27.5700   31.0770 C   0  0  0  0  0  0  0  0  0  0  0  0
   39.2130   28.5220   30.3540 O   0  0  0  0  0  0  0  0  0  0  0  0
   37.7690   26.6150   30.8670 C   0  0  1  0  0  0  0  0  0  0  0  0
   38.4080   25.8670   32.0070 C   0  0  2  0  0  0  0  0  0  0  0  0
   37.4400   25.8310   33.5490 S   0  0  0  0  0  0  0  0  0  0  0  0
   40.4110   27.6520   33.9390 H   0  0  0  0  0  0  0  0  0  0  0  0
   40.6290   25.9140   33.5590 H   0  0  0  0  0  0  0  0  0  0  0  0
   37.7680   25.9640   29.9720 H   0  0  0  0  0  0  0  0  0  0  0  0
   38.9280   24.9250   31.7600 H   0  0  0  0  0  0  0  0  0  0  0  0
   38.4210   27.5760   35.4950 C   0  0  0  0  0  0  0  0  0  0  0  0
   37.3870   27.9390   35.2180 H   0  0  0  0  0  0  0  0  0  0  0  0
   39.0790   28.4440   35.1970 H   0  0  0  0  0  0  0  0  0  0  0  0
   38.4810   27.4110   36.5680 H   0  0  0  0  0  0  0  0  0  0  0  0
   39.2370   25.2050   35.4240 C   0  0  0  0  0  0  0  0  0  0  0  0
   39.8600   24.5620   34.8030 H   0  0  0  0  0  0  0  0  0  0  0  0
   39.8160   25.6220   36.2750 H   0  0  0  0  0  0  0  0  0  0  0  0
   38.0940   24.4460   36.0170 C   0  0  0  0  0  3  0  0  0  0  0  0
   38.2310   24.6240   37.5360 C   0  0  0  0  0  2  0  0  0  0  0  0
   37.6410   23.3670   38.1460 C   0  0  0  0  0  2  0  0  0  0  0  0
   37.1460   22.5470   36.9660 C   0  0  0  0  0  2  0  0  0  0  0  0
   38.1720   22.9620   35.9060 C   0  0  0  0  0  2  0  0  0  0  0  0
   36.4080   27.1360   31.0960 C   0  0  0  0  0  0  0  0  0  0  0  0
   35.4920   26.2710   30.9700 O   0  0  0  0  0  0  0  0  0  0  0  0
   36.1400   28.5100   31.4360 C   0  0  0  0  0  0  0  0  0  0  0  0
   35.9220   28.8060   32.7750 C   0  0  0  0  0  0  0  0  0  0  0  0
   35.6570   30.1640   33.1070 C   0  0  0  0  0  0  0  0  0  0  0  0
   35.6320   31.0750   32.1010 N   0  0  0  0  0  0  0  0  0  0  0  0
   35.8470   30.7480   30.8280 C   0  0  0  0  0  0  0  0  0  0  0  0
   36.1010   29.4660   30.4930 N   0  0  0  0  0  0  0  0  0  0  0  0
   35.9320   28.1190   33.5970 H   0  0  0  0  0  0  0  0  0  0  0  0
   35.4790   30.4450   34.1440 H   0  0  0  0  0  0  0  0  0  0  0  0
   35.8340   31.4520   30.0050 H   0  0  0  0  0  0  0  0  0  0  0  0
  1 17  1  1  0  0  0
  1 13  1  0  0  0  0
  2  9  1  0  0  0  0
  2  1  1  0  0  0  0
  3  2  1  0  0  0  0
  4  3  1  0  0  0  0
  5  4  2  0  0  0  0
  6 11  1  6  0  0  0
  6  4  1  0  0  0  0
  6 25  1  0  0  0  0
  6  7  1  0  0  0  0
  7 12  1  6  0  0  0
  7  3  1  0  0  0  0
  7  8  1  0  0  0  0
  8  1  1  0  0  0  0
 10  2  1  0  0  0  0
 13 16  1  0  0  0  0
 14 13  1  0  0  0  0
 15 13  1  0  0  0  0
 17 20  1  0  0  0  0
 17 19  1  0  0  0  0
 18 17  1  0  0  0  0
 20 21  1  0  0  0  0
 21 22  1  0  0  0  0
 23 22  1  0  0  0  0
 24 20  1  0  0  0  0
 24 23  1  0  0  0  0
 25 27  1  0  0  0  0
 26 25  2  0  0  0  0
 27 28  1  0  0  0  0
 28 29  2  0  0  0  0
 28 33  1  0  0  0  0
 29 34  1  0  0  0  0
 30 29  1  0  0  0  0
 31 30  2  0  0  0  0
 32 31  1  0  0  0  0
 32 27  2  0  0  0  0
 35 31  1  0  0  0  0
M  END
>  <minimizedAffinity>
-5.00183344

$$$$

 OpenBabel03262522043D

 35 38  0  0  1  0  0  0  0  0999 V2000
   38.5310   25.4460   34.3060 C   0  0  2  0  0  0  0  0  0  0  0  0
   37.3850   26.2170   33.7430 C   0  0  0  0  0  0  0  0  0  0  0  0
   36.8870   25.5250   32.5630 N   0  0  0  0  0  0  0  0  0  0  0  0
   36.0640   24.8620   31.5910 C   0  0  0  0  0  0  0  0  0  0  0  0
   34.8440   24.6900   31.3910 O   0  0  0  0  0  0  0  0  0  0  0  0
   37.2000   24.3850   30.8040 C   0  0  1  0  0  0  0  0  0  0  0  0
   37.9980   25.3300   31.6620 C   0  0  2  0  0  0  0  0  0  0  0  0
   39.1450   24.5350   32.8320 S   0  0  0  0  0  0  0  0  0  0  0  0
   36.5700   26.2260   34.5070 H   0  0  0  0  0  0  0  0  0  0  0  0
   37.6500   27.2670   33.5270 H   0  0  0  0  0  0  0  0  0  0  0  0
   37.3080   24.6890   29.7460 H   0  0  0  0  0  0  0  0  0  0  0  0
   38.3840   26.2440   31.1760 H   0  0  0  0  0  0  0  0  0  0  0  0
   38.2130   24.5620   35.4630 C   0  0  0  0  0  0  0  0  0  0  0  0
   38.2740   23.4780   35.1460 H   0  0  0  0  0  0  0  0  0  0  0  0
   37.1120   24.7000   35.6730 H   0  0  0  0  0  0  0  0  0  0  0  0
   38.7900   24.7140   36.3730 H   0  0  0  0  0  0  0  0  0  0  0  0
   39.6530   26.4410   34.6330 C   0  0  0  0  0  0  0  0  0  0  0  0
   39.2760   27.4580   34.5360 H   0  0  0  0  0  0  0  0  0  0  0  0
   39.9240   26.2130   35.6860 H   0  0  0  0  0  0  0  0  0  0  0  0
   40.8920   26.2410   33.8220 C   0  0  0  0  0  3  0  0  0  0  0  0
   41.9650   25.7830   34.8210 C   0  0  0  0  0  2  0  0  0  0  0  0
   43.2810   26.2810   34.2590 C   0  0  0  0  0  2  0  0  0  0  0  0
   42.9230   26.9540   32.9440 C   0  0  0  0  0  2  0  0  0  0  0  0
   41.5260   27.4790   33.2880 C   0  0  0  0  0  2  0  0  0  0  0  0
   37.5090   22.9480   30.9350 C   0  0  0  0  0  0  0  0  0  0  0  0
   38.5210   22.5720   30.2750 O   0  0  0  0  0  0  0  0  0  0  0  0
   36.7310   22.0480   31.7470 C   0  0  0  0  0  0  0  0  0  0  0  0
   35.7160   21.3370   31.1200 C   0  0  0  0  0  0  0  0  0  0  0  0
   34.9490   20.4500   31.9270 C   0  0  0  0  0  0  0  0  0  0  0  0
   35.2550   20.3590   33.2450 N   0  0  0  0  0  0  0  0  0  0  0  0
   36.2370   21.0600   33.8080 C   0  0  0  0  0  0  0  0  0  0  0  0
   36.9770   21.9060   33.0600 N   0  0  0  0  0  0  0  0  0  0  0  0
   35.4430   21.3810   30.0860 H   0  0  0  0  0  0  0  0  0  0  0  0
   34.1420   19.8710   31.4800 H   0  0  0  0  0  0  0  0  0  0  0  0
   36.5050   21.0080   34.8560 H   0  0  0  0  0  0  0  0  0  0  0  0
  1 17  1  1  0  0  0
  1 13  1  0  0  0  0
  2  1  1  0  0  0  0
  2  9  1  0  0  0  0
  3  2  1  0  0  0  0
  4  3  1  0  0  0  0
  5  4  2  0  0  0  0
  6 11  1  6  0  0  0
  6 25  1  0  0  0  0
  6  4  1  0  0  0  0
  6  7  1  0  0  0  0
  7 12  1  6  0  0  0
  7  3  1  0  0  0  0
  7  8  1  0  0  0  0
  8  1  1  0  0  0  0
 10  2  1  0  0  0  0
 13 15  1  0  0  0  0
 13 16  1  0  0  0  0
 14 13  1  0  0  0  0
 17 19  1  0  0  0  0
 18 17  1  0  0  0  0
 20 17  1  0  0  0  0
 20 21  1  0  0  0  0
 22 21  1  0  0  0  0
 23 24  1  0  0  0  0
 23 22  1  0  0  0  0
 24 20  1  0  0  0  0
 25 27  1  0  0  0  0
 26 25  2  0  0  0  0
 27 32  1  0  0  0  0
 28 27  2  0  0  0  0
 28 29  1  0  0  0  0
 29 30  2  0  0  0  0
 30 31  1  0  0  0  0
 31 35  1  0  0  0  0
 32 31  2  0  0  0  0
 33 28  1  0  0  0  0
 34 29  1  0  0  0  0
M  END
>  <minimizedAffinity>
-4.99923611

$$$$

 OpenBabel03262522043D

 35 38  0  0  1  0  0  0  0  0999 V2000
   39.3970   24.7200   33.7370 C   0  0  2  0  0  0  0  0  0  0  0  0
   38.1310   23.9350   33.6470 C   0  0  0  0  0  0  0  0  0  0  0  0
   37.2170   24.6200   32.7430 N   0  0  0  0  0  0  0  0  0  0  0  0
   36.3140   24.9520   31.6760 C   0  0  0  0  0  0  0  0  0  0  0  0
   35.6670   24.3400   30.8030 O   0  0  0  0  0  0  0  0  0  0  0  0
   36.3760   26.3890   31.9360 C   0  0  1  0  0  0  0  0  0  0  0  0
   37.0670   25.9770   33.2080 C   0  0  2  0  0  0  0  0  0  0  0  0
   38.8330   26.4150   33.3060 S   0  0  0  0  0  0  0  0  0  0  0  0
   38.3740   22.9410   33.2030 H   0  0  0  0  0  0  0  0  0  0  0  0
   37.6760   23.7560   34.6370 H   0  0  0  0  0  0  0  0  0  0  0  0
   35.4550   26.9450   32.1970 H   0  0  0  0  0  0  0  0  0  0  0  0
   36.5020   26.1000   34.1490 H   0  0  0  0  0  0  0  0  0  0  0  0
   40.5230   24.2330   32.8910 C   0  0  0  0  0  0  0  0  0  0  0  0
   40.7080   24.9590   32.0440 H   0  0  0  0  0  0  0  0  0  0  0  0
   40.1420   23.3150   32.3550 H   0  0  0  0  0  0  0  0  0  0  0  0
   41.4590   24.0090   33.3980 H   0  0  0  0  0  0  0  0  0  0  0  0
   39.7890   24.8130   35.2180 C   0  0  0  0  0  0  0  0  0  0  0  0
   40.8110   24.4590   35.3460 H   0  0  0  0  0  0  0  0  0  0  0  0
   39.7070   25.8940   35.4560 H   0  0  0  0  0  0  0  0  0  0  0  0
   38.8490   24.1020   36.1370 C   0  0  0  0  0  3  0  0  0  0  0  0
   38.2140   25.2010   37.0020 C   0  0  0  0  0  2  0  0  0  0  0  0
   37.8950   24.5390   38.3280 C   0  0  0  0  0  2  0  0  0  0  0  0
   38.3070   23.0860   38.1570 C   0  0  0  0  0  2  0  0  0  0  0  0
   39.4820   23.2570   37.1880 C   0  0  0  0  0  2  0  0  0  0  0  0
   37.1680   27.1780   30.9740 C   0  0  0  0  0  0  0  0  0  0  0  0
   38.0380   26.5080   30.3440 O   0  0  0  0  0  0  0  0  0  0  0  0
   36.9710   28.5900   30.7650 C   0  0  0  0  0  0  0  0  0  0  0  0
   36.4550   29.3270   31.8230 C   0  0  0  0  0  0  0  0  0  0  0  0
   36.2600   30.7200   31.6110 C   0  0  0  0  0  0  0  0  0  0  0  0
   36.5870   31.2350   30.3980 N   0  0  0  0  0  0  0  0  0  0  0  0
   37.0790   30.4920   29.4100 C   0  0  0  0  0  0  0  0  0  0  0  0
   37.2720   29.1680   29.5900 N   0  0  0  0  0  0  0  0  0  0  0  0
   36.1850   28.9610   32.7920 H   0  0  0  0  0  0  0  0  0  0  0  0
   35.8570   31.3410   32.4110 H   0  0  0  0  0  0  0  0  0  0  0  0
   37.3500   30.8730   28.4320 H   0  0  0  0  0  0  0  0  0  0  0  0
  1 13  1  6  0  0  0
  1 17  1  0  0  0  0
  2  1  1  0  0  0  0
  2 10  1  0  0  0  0
  3  7  1  0  0  0  0
  3  2  1  0  0  0  0
  4  6  1  0  0  0  0
  4  3  1  0  0  0  0
  5  4  2  0  0  0  0
  6 11  1  1  0  0  0
  6  7  1  0  0  0  0
  7  8  1  0  0  0  0
  7 12  1  1  0  0  0
  8  1  1  0  0  0  0
  9  2  1  0  0  0  0
 13 16  1  0  0  0  0
 14 13  1  0  0  0  0
 15 13  1  0  0  0  0
 17 18  1  0  0  0  0
 17 19  1  0  0  0  0
 17 20  1  0  0  0  0
 20 21  1  0  0  0  0
 20 24  1  0  0  0  0
 21 22  1  0  0  0  0
 23 22  1  0  0  0  0
 24 23  1  0  0  0  0
 25  6  1  0  0  0  0
 26 25  2  0  0  0  0
 27 25  1  0  0  0  0
 27 28  1  0  0  0  0
 28 33  1  0  0  0  0
 29 28  2  0  0  0  0
 29 34  1  0  0  0  0
 30 29  1  0  0  0  0
 31 32  1  0  0  0  0
 31 30  2  0  0  0  0
 32 27  2  0  0  0  0
 35 31  1  0  0  0  0
M  END
>  <minimizedAffinity>
-4.96565104

$$$$
