
 OpenBabel03272504183D

 22 23  0  0  0  0  0  0  0  0999 V2000
   35.9780   30.7710   49.4150 C   0  0  0  0  0  0  0  0  0  0  0  0
   36.2480   29.9940   50.5270 C   0  0  0  0  0  0  0  0  0  0  0  0
   37.5070   30.0720   51.0980 C   0  0  0  0  0  0  0  0  0  0  0  0
   38.4390   30.9100   50.5500 N   0  0  0  0  0  0  0  0  0  0  0  0
   38.1300   31.6570   49.4550 C   0  0  0  0  0  0  0  0  0  0  0  0
   36.9010   31.5940   48.8810 N   0  0  0  0  0  0  0  0  0  0  0  0
   37.6740   29.4610   51.9470 H   0  0  0  0  0  0  0  0  0  0  0  0
   38.8880   32.3260   49.0260 H   0  0  0  0  0  0  0  0  0  0  0  0
   35.1720   29.1860   50.9610 N   0  0  0  0  0  0  0  0  0  0  0  0
   35.3330   28.2720   50.4590 H   0  0  0  0  0  0  0  0  0  0  0  0
   34.3970   29.4530   51.6310 H   0  0  0  0  0  0  0  0  0  0  0  0
   34.7730   30.8210   48.7130 O   0  0  0  0  0  0  0  0  0  0  0  0
   35.4740   29.9200   46.2880 O   0  0  0  0  0  0  0  0  0  0  0  0
   34.4550   29.7770   47.3750 P   0  0  1  0  0  0  0  0  0  0  0  0
   34.4390   28.2000   48.0010 O   0  0  0  0  0  0  0  0  0  0  0  0
   34.0280   28.1510   48.8810 H   0  0  0  0  0  0  0  0  0  0  0  0
   32.9680   30.1940   46.6810 O   0  0  0  0  0  0  0  0  0  0  0  0
   32.2880   29.0740   46.1990 C   0  0  0  0  0  3  0  0  0  0  0  0
   32.1250   28.0130   47.2730 C   0  0  0  0  0  2  0  0  0  0  0  0
   31.8140   26.7900   46.4080 C   0  0  0  0  0  2  0  0  0  0  0  0
   32.7720   26.9500   45.2490 C   0  0  0  0  0  2  0  0  0  0  0  0
   33.2210   28.3790   45.2240 C   0  0  0  0  0  2  0  0  0  0  0  0
  1  2  1  0  0  0  0
  2  9  1  0  0  0  0
  2  3  2  0  0  0  0
  3  7  1  0  0  0  0
  4  3  1  0  0  0  0
  5  4  2  0  0  0  0
  6  1  2  0  0  0  0
  6  5  1  0  0  0  0
  8  5  1  0  0  0  0
  9 11  1  0  0  0  0
 10  9  1  0  0  0  0
 12  1  1  0  0  0  0
 14 13  2  6  0  0  0
 14 15  1  0  0  0  0
 14 12  1  0  0  0  0
 15 16  1  0  0  0  0
 17 14  1  0  0  0  0
 18 17  1  0  0  0  0
 18 19  1  0  0  0  0
 20 19  1  0  0  0  0
 21 20  1  0  0  0  0
 22 21  1  0  0  0  0
 22 18  1  0  0  0  0
M  END
>  <minimizedAffinity>
-3.7712822

>  <minimizedRMSD>
0.662234426

$$$$
