REMARK  Name = 
REMARK  8 active torsions:
REMARK  status: ('A' for Active; 'I' for Inactive)
REMARK    1  A    between atoms: P_2  and  O_3
REMARK    2  A    between atoms: P_2  and  O_4
REMARK    3  A    between atoms: P_2  and  O_11
REMARK    4  A    between atoms: O_4  and  C_5
REMARK    5  A    between atoms: O_11  and  C_13
REMARK    6  A    between atoms: C_12  and  O_17
REMARK    7  A    between atoms: C_16  and  O_18
REMARK    8  A    between atoms: O_18  and  C_29
REMARK                            x       y       z     vdW  Elec       q    Type
REMARK                         _______ _______ _______ _____ _____    ______ ____
ROOT
ATOM      1  C   UNL     1      33.086  27.335  45.876  0.00  0.00    +0.000 C 
ATOM      2  C   UNL     1      33.921  27.477  47.168  0.00  0.00    +0.000 C 
ATOM      3  O   UNL     1      33.835  26.241  47.729  0.00  0.00    +0.000 OA
ATOM      4  C   UNL     1      34.070  25.368  46.680  0.00  0.00    +0.000 C 
ATOM      5  C   UNL     1      33.442  25.957  45.438  0.00  0.00    +0.000 C 
ATOM      6  H   UNL     1      33.450  28.079  45.136  0.00  0.00    +0.000 HD
ATOM      7  H   UNL     1      34.929  27.793  46.817  0.00  0.00    +0.000 HD
ATOM      8  H   UNL     1      35.141  25.109  46.559  0.00  0.00    +0.000 HD
ATOM      9  H   UNL     1      33.540  24.422  46.925  0.00  0.00    +0.000 HD
ATOM     10  H   UNL     1      32.594  25.343  45.075  0.00  0.00    +0.000 HD
ENDROOT
BRANCH   1  11
ATOM     11  O   UNL     1      31.744  27.525  46.143  0.00  0.00    +0.000 OA
ATOM     12  H   UNL     1      31.346  28.112  45.435  0.00  0.00    +0.000 HD
ENDBRANCH   1  11
BRANCH   2  13
ATOM     13  O   UNL     1      33.338  28.509  47.842  0.00  0.00    +0.000 OA
BRANCH  13  15
ATOM     14  O   UNL     1      35.356  29.831  46.769  0.00  0.00    +0.000 OA
ATOM     15  P   UNL     1      34.101  29.993  47.613  0.00  0.00    +0.000 P 
BRANCH  15  16
ATOM     16  O   UNL     1      33.099  31.032  46.727  0.00  0.00    +0.000 OA
ATOM     17  H   UNL     1      32.266  31.214  47.226  0.00  0.00    +0.000 HD
ENDBRANCH  15  16
BRANCH  15  18
ATOM     18  O   UNL     1      34.416  30.633  49.160  0.00  0.00    +0.000 OA
BRANCH  18  19
ATOM     19  C   UNL     1      35.640  30.511  49.779  0.00  0.00    +0.000 A 
ATOM     20  C   UNL     1      35.962  29.491  50.702  0.00  0.00    +0.000 A 
ATOM     21  C   UNL     1      37.242  29.494  51.249  0.00  0.00    +0.000 A 
ATOM     22  N   UNL     1      38.112  30.474  50.867  0.00  0.00    +0.000 NA
ATOM     23  C   UNL     1      37.769  31.443  49.974  0.00  0.00    +0.000 A 
ATOM     24  N   UNL     1      36.522  31.458  49.428  0.00  0.00    +0.000 NA
ATOM     25  H   UNL     1      35.193  28.765  50.931  0.00  0.00    +0.000 HD
ATOM     26  H   UNL     1      37.499  28.722  51.953  0.00  0.00    +0.000 HD
ATOM     27  H   UNL     1      38.496  32.192  49.709  0.00  0.00    +0.000 HD
ENDBRANCH  18  19
ENDBRANCH  15  18
ENDBRANCH  13  15
ENDBRANCH   2  13
BRANCH   5  28
ATOM     28  O   UNL     1      34.388  26.006  44.414  0.00  0.00    +0.000 OA
BRANCH  28  29
ATOM     29  C   UNL     1      33.999  25.296  43.285  0.00  0.00    +0.000 C 
ATOM     30  C   UNL     1      32.540  24.940  43.375  0.00  0.00    +0.000 C 
ATOM     31  C   UNL     1      31.847  25.592  42.223  0.00  0.00    +0.000 C 
ATOM     32  C   UNL     1      32.895  26.096  41.269  0.00  0.00    +0.000 C 
ATOM     33  C   UNL     1      34.197  26.082  42.018  0.00  0.00    +0.000 C 
ENDBRANCH  28  29
ENDBRANCH   5  28
TORSDOF 8
