
 OpenBabel03272503053D

 28 30  0  0  0  0  0  0  0  0999 V2000
   38.5090   30.4410   47.3160 F   0  0  0  0  0  0  0  0  0  0  0  0
   38.7740   31.6780   47.8090 C   0  0  0  0  0  0  0  0  0  0  0  0
   38.1980   32.0930   48.9750 C   0  0  0  0  0  0  0  0  0  0  0  0
   38.5080   33.3510   49.4150 C   0  0  0  0  0  0  0  0  0  0  0  0
   39.3570   34.1790   48.7330 C   0  0  0  0  0  0  0  0  0  0  0  0
   39.9320   33.7400   47.5530 C   0  0  0  0  0  0  0  0  0  0  0  0
   39.6320   32.4740   47.0910 C   0  0  0  0  0  0  0  0  0  0  0  0
   38.0530   33.6860   50.3400 H   0  0  0  0  0  0  0  0  0  0  0  0
   39.5960   35.1740   49.0900 H   0  0  0  0  0  0  0  0  0  0  0  0
   40.6190   34.3540   46.9590 H   0  0  0  0  0  0  0  0  0  0  0  0
   36.7760   29.5750   51.4300 C   0  0  0  0  0  0  0  0  0  0  0  0
   37.6650   30.4640   50.7970 C   0  0  0  0  0  0  0  0  0  0  0  0
   37.2940   31.1550   49.6610 C   0  0  0  0  0  0  0  0  0  0  0  0
   36.0400   30.9320   49.1920 N   0  0  0  0  0  0  0  0  0  0  0  0
   35.1960   30.0750   49.8080 C   0  0  0  0  0  0  0  0  0  0  0  0
   35.5530   29.4150   50.8970 N   0  0  0  0  0  0  0  0  0  0  0  0
   37.1470   29.0740   52.3150 H   0  0  0  0  0  0  0  0  0  0  0  0
   38.6590   30.6270   51.1890 H   0  0  0  0  0  0  0  0  0  0  0  0
   34.2160   29.9800   49.3380 H   0  0  0  0  0  0  0  0  0  0  0  0
   39.4060   32.2260   44.7090 C   0  0  0  0  0  0  0  0  0  0  0  0
   38.3030   32.8150   44.9330 O   0  0  0  0  0  0  0  0  0  0  0  0
   40.2100   31.9840   45.8690 N   0  0  0  0  0  0  0  0  0  0  0  0
   41.1170   31.4990   45.7860 H   0  0  0  0  0  0  0  0  0  0  0  0
   39.9610   31.7610   43.4110 C   0  0  0  0  0  3  0  0  0  0  0  0
   39.3720   32.4800   42.2410 C   0  0  0  0  0  2  0  0  0  0  0  0
   38.7210   31.4170   41.3610 C   0  0  0  0  0  2  0  0  0  0  0  0
   39.4230   30.1300   41.7560 C   0  0  0  0  0  2  0  0  0  0  0  0
   39.5660   30.3190   43.2450 C   0  0  0  0  0  2  0  0  0  0  0  0
  1  2  1  0  0  0  0
  2  3  1  0  0  0  0
  3  4  2  0  0  0  0
  3 13  1  0  0  0  0
  4  8  1  0  0  0  0
  5  9  1  0  0  0  0
  5  4  1  0  0  0  0
  6  5  2  0  0  0  0
  7  6  1  0  0  0  0
  7  2  2  0  0  0  0
 10  6  1  0  0  0  0
 11 17  1  0  0  0  0
 12 18  1  0  0  0  0
 12 11  2  0  0  0  0
 13 12  1  0  0  0  0
 14 13  2  0  0  0  0
 14 15  1  0  0  0  0
 15 16  2  0  0  0  0
 16 11  1  0  0  0  0
 19 15  1  0  0  0  0
 20 21  2  0  0  0  0
 20 22  1  0  0  0  0
 22  7  1  0  0  0  0
 23 22  1  0  0  0  0
 24 20  1  0  0  0  0
 25 24  1  0  0  0  0
 26 27  1  0  0  0  0
 26 25  1  0  0  0  0
 27 28  1  0  0  0  0
 28 24  1  0  0  0  0
M  END
>  <minimizedAffinity>
-6.36685658

>  <minimizedRMSD>
0.577726901

$$$$
