
 OpenBabel03262520323D

 19 20  0  0  0  0  0  0  0  0999 V2000
   34.7290   28.3920   49.6840 C   0  0  0  0  0  3  0  0  0  0  0  0
   34.4810   28.0750   48.4570 C   0  0  0  0  0  3  0  0  0  0  0  0
   37.3650   30.2240   51.4550 C   0  0  0  0  0  0  0  0  0  0  0  0
   38.1350   30.7140   50.3640 C   0  0  0  0  0  0  0  0  0  0  0  0
   37.7280   30.4020   49.0410 C   0  0  0  0  0  0  0  0  0  0  0  0
   36.5960   29.6330   48.9330 N   0  0  0  0  0  0  0  0  0  0  0  0
   35.9040   29.1950   49.9860 C   0  0  0  0  0  0  0  0  0  0  0  0
   36.2840   29.4860   51.2390 N   0  0  0  0  0  0  0  0  0  0  0  0
   37.7340   30.5000   52.4350 H   0  0  0  0  0  0  0  0  0  0  0  0
   39.0290   31.3210   50.4450 H   0  0  0  0  0  0  0  0  0  0  0  0
   38.2670   30.7430   48.1890 H   0  0  0  0  0  0  0  0  0  0  0  0
   33.3820   27.2850   47.9470 C   0  0  0  0  0  0  0  0  0  0  0  0
   33.4420   27.1840   46.8430 H   0  0  0  0  0  0  0  0  0  0  0  0
   33.5240   26.2340   48.3370 H   0  0  0  0  0  0  0  0  0  0  0  0
   31.9980   27.6810   48.3590 C   0  0  0  0  0  3  0  0  0  0  0  0
   31.3880   28.3000   47.0840 C   0  0  0  0  0  2  0  0  0  0  0  0
   29.9140   28.0680   47.1680 C   0  0  0  0  0  2  0  0  0  0  0  0
   29.7020   27.1060   48.3000 C   0  0  0  0  0  2  0  0  0  0  0  0
   31.0820   26.4530   48.4560 C   0  0  0  0  0  2  0  0  0  0  0  0
  1  7  1  0  0  0  0
  2  1  2  0  0  0  0
  3  9  1  0  0  0  0
  4 10  1  0  0  0  0
  4  3  2  0  0  0  0
  5  4  1  0  0  0  0
  6  5  2  0  0  0  0
  6  7  1  0  0  0  0
  7  8  2  0  0  0  0
  8  3  1  0  0  0  0
 11  5  1  0  0  0  0
 12 14  1  0  0  0  0
 12 15  1  0  0  0  0
 12  2  1  0  0  0  0
 13 12  1  0  0  0  0
 15 19  1  0  0  0  0
 16 17  1  0  0  0  0
 16 15  1  0  0  0  0
 17 18  1  0  0  0  0
 18 19  1  0  0  0  0
M  END
>  <minimizedAffinity>
-4.69409609

>  <minimizedRMSD>
0.974074304

$$$$
