
 OpenBabel03272504573D

 29 31  0  0  1  0  0  0  0  0999 V2000
   37.0160   31.5490   48.6010 C   0  0  1  0  0  0  0  0  0  0  0  0
   36.3230   30.8110   47.5720 C   0  0  0  0  0  0  0  0  0  0  0  0
   37.2590   30.1030   48.4900 C   0  0  2  0  0  0  0  0  0  0  0  0
   36.5170   31.8580   49.5830 H   0  0  0  0  0  0  0  0  0  0  0  0
   35.2800   31.0490   47.6590 H   0  0  0  0  0  0  0  0  0  0  0  0
   36.6870   30.9740   46.5330 H   0  0  0  0  0  0  0  0  0  0  0  0
   37.9780   29.5380   47.9130 H   0  0  0  0  0  0  0  0  0  0  0  0
   38.1660   32.4560   48.2560 C   0  0  0  0  0  0  0  0  0  0  0  0
   38.5260   33.3950   49.2490 C   0  0  0  0  0  0  0  0  0  0  0  0
   39.5830   34.2060   48.9180 C   0  0  0  0  0  0  0  0  0  0  0  0
   40.2030   34.0720   47.7150 N   0  0  0  0  0  0  0  0  0  0  0  0
   39.8270   33.1580   46.7920 C   0  0  0  0  0  0  0  0  0  0  0  0
   38.7720   32.3310   47.0850 N   0  0  0  0  0  0  0  0  0  0  0  0
   40.4610   32.9860   45.5550 N   0  0  0  0  0  0  0  0  0  0  0  0
   38.0370   33.5040   50.2060 H   0  0  0  0  0  0  0  0  0  0  0  0
   39.9300   34.9540   49.6140 H   0  0  0  0  0  0  0  0  0  0  0  0
   40.5470   33.6980   44.7930 H   0  0  0  0  0  0  0  0  0  0  0  0
   40.9610   32.1570   45.1370 H   0  0  0  0  0  0  0  0  0  0  0  0
   36.6600   29.3320   49.4930 O   0  0  0  0  0  0  0  0  0  0  0  0
   34.5110   28.0160   50.0350 O   0  0  0  0  0  0  0  0  0  0  0  0
   35.0470   29.0890   49.1440 P   0  0  1  0  0  0  0  0  0  0  0  0
   34.1600   30.5000   49.6510 O   0  0  0  0  0  0  0  0  0  0  0  0
   34.5640   30.8490   50.4860 H   0  0  0  0  0  0  0  0  0  0  0  0
   34.8290   28.8600   47.5250 O   0  0  0  0  0  0  0  0  0  0  0  0
   33.9340   27.9750   47.0720 C   0  0  0  0  0  3  0  0  0  0  0  0
   32.5480   28.4990   47.4050 C   0  0  0  0  0  2  0  0  0  0  0  0
   31.7070   27.3560   46.8830 C   0  0  0  0  0  2  0  0  0  0  0  0
   32.5270   26.1280   47.1710 C   0  0  0  0  0  2  0  0  0  0  0  0
   33.8850   26.6180   47.6700 C   0  0  0  0  0  2  0  0  0  0  0  0
  1  4  1  1  0  0  0
  2  5  1  0  0  0  0
  2  3  1  0  0  0  0
  2  1  1  0  0  0  0
  3  7  1  6  0  0  0
  3  1  1  0  0  0  0
  3 19  1  0  0  0  0
  6  2  1  0  0  0  0
  8  1  1  0  0  0  0
  8  9  1  0  0  0  0
  9 15  1  0  0  0  0
 10  9  2  0  0  0  0
 10 16  1  0  0  0  0
 11 10  1  0  0  0  0
 12 13  1  0  0  0  0
 12 11  2  0  0  0  0
 13  8  2  0  0  0  0
 14 12  1  0  0  0  0
 17 14  1  0  0  0  0
 18 14  1  0  0  0  0
 21 19  1  0  0  0  0
 21 22  1  0  0  0  0
 21 20  2  1  0  0  0
 22 23  1  0  0  0  0
 24 21  1  0  0  0  0
 25 26  1  0  0  0  0
 25 24  1  0  0  0  0
 25 29  1  0  0  0  0
 27 28  1  0  0  0  0
 27 26  1  0  0  0  0
 28 29  1  0  0  0  0
M  END
>  <minimizedAffinity>
-4.84662771

>  <minimizedRMSD>
1.01879203

$$$$
