
 OpenBabel03272503213D

 33 36  0  0  0  0  0  0  0  0999 V2000
   37.0130   27.2190   33.0890 C   0  0  0  0  0  0  0  0  0  0  0  0
   36.5020   28.0890   32.2270 C   0  0  0  0  0  0  0  0  0  0  0  0
   35.8570   29.1790   32.6900 C   0  0  0  0  0  0  0  0  0  0  0  0
   35.7640   29.3290   34.0520 C   0  0  0  0  0  0  0  0  0  0  0  0
   36.6400   27.8400   34.6630 S   0  0  0  0  0  0  0  0  0  0  0  0
   36.6200   27.8970   31.1610 H   0  0  0  0  0  0  0  0  0  0  0  0
   35.3930   29.9700   32.1140 H   0  0  0  0  0  0  0  0  0  0  0  0
   32.7180   29.2760   34.2130 Cl  0  0  0  0  0  0  0  0  0  0  0  0
   33.8200   30.3670   35.0360 C   0  0  0  0  0  0  0  0  0  0  0  0
   35.1720   30.3260   34.9110 C   0  0  0  0  0  0  0  0  0  0  0  0
   36.0460   31.1420   35.5230 C   0  0  0  0  0  0  0  0  0  0  0  0
   35.5500   32.1420   36.3760 C   0  0  0  0  0  0  0  0  0  0  0  0
   34.1990   32.2360   36.5440 C   0  0  0  0  0  0  0  0  0  0  0  0
   33.5070   33.4530   37.5910 Cl  0  0  0  0  0  0  0  0  0  0  0  0
   33.3420   31.3600   35.8830 C   0  0  0  0  0  0  0  0  0  0  0  0
   37.1340   31.1030   35.4170 H   0  0  0  0  0  0  0  0  0  0  0  0
   36.2330   32.8150   36.8830 H   0  0  0  0  0  0  0  0  0  0  0  0
   32.2600   31.4560   36.0340 H   0  0  0  0  0  0  0  0  0  0  0  0
   38.5040   24.1320   31.5000 C   0  0  0  0  0  0  0  0  0  0  0  0
   37.7700   25.3320   31.6220 C   0  0  0  0  0  0  0  0  0  0  0  0
   37.7580   25.9580   32.8780 C   0  0  0  0  0  0  0  0  0  0  0  0
   38.4300   25.3970   33.8820 N   0  0  0  0  0  0  0  0  0  0  0  0
   39.1210   24.2610   33.7500 C   0  0  0  0  0  0  0  0  0  0  0  0
   39.1540   23.6370   32.5690 N   0  0  0  0  0  0  0  0  0  0  0  0
   38.5080   23.6560   30.5270 H   0  0  0  0  0  0  0  0  0  0  0  0
   37.2300   25.7750   30.8010 H   0  0  0  0  0  0  0  0  0  0  0  0
   39.8190   23.7350   34.9080 C   0  0  0  0  0  0  0  0  0  0  0  0
   40.7560   24.3990   35.4060 O   0  0  0  0  0  0  0  0  0  0  0  0
   39.4960   22.4410   35.5540 C   0  0  0  0  0  3  0  0  0  0  0  0
   39.9970   22.4840   36.9830 C   0  0  0  0  0  2  0  0  0  0  0  0
   38.9440   23.2660   37.7410 C   0  0  0  0  0  2  0  0  0  0  0  0
   37.7530   23.4070   36.7910 C   0  0  0  0  0  2  0  0  0  0  0  0
   37.9990   22.2960   35.7900 C   0  0  0  0  0  2  0  0  0  0  0  0
  1  5  1  0  0  0  0
  2  3  1  0  0  0  0
  2  1  2  0  0  0  0
  3  4  2  0  0  0  0
  4  5  1  0  0  0  0
  4 10  1  0  0  0  0
  6  2  1  0  0  0  0
  7  3  1  0  0  0  0
  8  9  1  0  0  0  0
  9 15  1  0  0  0  0
 10  9  2  0  0  0  0
 10 11  1  0  0  0  0
 11 12  2  0  0  0  0
 12 13  1  0  0  0  0
 12 17  1  0  0  0  0
 13 14  1  0  0  0  0
 15 18  1  0  0  0  0
 15 13  2  0  0  0  0
 16 11  1  0  0  0  0
 19 20  2  0  0  0  0
 19 24  1  0  0  0  0
 20 21  1  0  0  0  0
 21  1  1  0  0  0  0
 21 22  2  0  0  0  0
 23 22  1  0  0  0  0
 23 27  1  0  0  0  0
 24 23  2  0  0  0  0
 25 19  1  0  0  0  0
 26 20  1  0  0  0  0
 27 28  2  0  0  0  0
 27 29  1  0  0  0  0
 29 33  1  0  0  0  0
 29 30  1  0  0  0  0
 30 31  1  0  0  0  0
 32 31  1  0  0  0  0
 33 32  1  0  0  0  0
M  END
>  <minimizedAffinity>
-6.12796021

$$$$

 OpenBabel03272503213D

 33 36  0  0  0  0  0  0  0  0999 V2000
   37.5170   27.1830   34.5440 C   0  0  0  0  0  0  0  0  0  0  0  0
   38.2510   27.5060   35.6010 C   0  0  0  0  0  0  0  0  0  0  0  0
   39.1100   26.6010   36.1120 C   0  0  0  0  0  0  0  0  0  0  0  0
   39.1780   25.3730   35.4990 C   0  0  0  0  0  0  0  0  0  0  0  0
   37.9550   25.5540   34.1460 S   0  0  0  0  0  0  0  0  0  0  0  0
   38.1390   28.5010   36.0300 H   0  0  0  0  0  0  0  0  0  0  0  0
   39.7700   26.7190   36.9640 H   0  0  0  0  0  0  0  0  0  0  0  0
   38.0210   23.4700   37.5840 Cl  0  0  0  0  0  0  0  0  0  0  0  0
   39.4970   23.2770   36.6520 C   0  0  0  0  0  0  0  0  0  0  0  0
   39.9460   24.1760   35.7370 C   0  0  0  0  0  0  0  0  0  0  0  0
   41.0680   24.0650   35.0070 C   0  0  0  0  0  0  0  0  0  0  0  0
   41.8740   22.9270   35.1810 C   0  0  0  0  0  0  0  0  0  0  0  0
   41.4780   21.9860   36.0860 C   0  0  0  0  0  0  0  0  0  0  0  0
   42.4270   20.5430   36.3560 Cl  0  0  0  0  0  0  0  0  0  0  0  0
   40.3030   22.1570   36.8140 C   0  0  0  0  0  0  0  0  0  0  0  0
   41.4240   24.7930   34.2720 H   0  0  0  0  0  0  0  0  0  0  0  0
   42.7860   22.8100   34.6040 H   0  0  0  0  0  0  0  0  0  0  0  0
   40.0060   21.3870   37.5360 H   0  0  0  0  0  0  0  0  0  0  0  0
   35.4330   28.6040   31.7320 C   0  0  0  0  0  0  0  0  0  0  0  0
   36.4200   27.8370   32.3870 C   0  0  0  0  0  0  0  0  0  0  0  0
   36.5110   27.9540   33.7820 C   0  0  0  0  0  0  0  0  0  0  0  0
   35.6720   28.7740   34.4140 N   0  0  0  0  0  0  0  0  0  0  0  0
   34.7420   29.4940   33.7790 C   0  0  0  0  0  0  0  0  0  0  0  0
   34.6280   29.4080   32.4510 N   0  0  0  0  0  0  0  0  0  0  0  0
   35.3700   28.5080   30.6550 H   0  0  0  0  0  0  0  0  0  0  0  0
   37.0930   27.1770   31.8640 H   0  0  0  0  0  0  0  0  0  0  0  0
   33.8780   30.3570   34.5630 C   0  0  0  0  0  0  0  0  0  0  0  0
   32.9690   29.8420   35.2530 O   0  0  0  0  0  0  0  0  0  0  0  0
   33.9970   31.8340   34.6030 C   0  0  0  0  0  3  0  0  0  0  0  0
   33.4750   32.3170   35.9400 C   0  0  0  0  0  2  0  0  0  0  0  0
   34.6120   32.0750   36.9120 C   0  0  0  0  0  2  0  0  0  0  0  0
   35.8320   31.7220   36.0580 C   0  0  0  0  0  2  0  0  0  0  0  0
   35.4520   32.2710   34.6990 C   0  0  0  0  0  2  0  0  0  0  0  0
  1  2  2  0  0  0  0
  2  6  1  0  0  0  0
  2  3  1  0  0  0  0
  3  7  1  0  0  0  0
  4 10  1  0  0  0  0
  4  3  2  0  0  0  0
  5  1  1  0  0  0  0
  5  4  1  0  0  0  0
  9 15  1  0  0  0  0
  9  8  1  0  0  0  0
 10  9  2  0  0  0  0
 11 12  2  0  0  0  0
 11 10  1  0  0  0  0
 12 13  1  0  0  0  0
 13 14  1  0  0  0  0
 13 15  2  0  0  0  0
 15 18  1  0  0  0  0
 16 11  1  0  0  0  0
 17 12  1  0  0  0  0
 19 20  2  0  0  0  0
 19 24  1  0  0  0  0
 20 21  1  0  0  0  0
 21 22  2  0  0  0  0
 21  1  1  0  0  0  0
 23 22  1  0  0  0  0
 23 27  1  0  0  0  0
 24 23  2  0  0  0  0
 25 19  1  0  0  0  0
 26 20  1  0  0  0  0
 27 29  1  0  0  0  0
 27 28  2  0  0  0  0
 29 33  1  0  0  0  0
 29 30  1  0  0  0  0
 30 31  1  0  0  0  0
 32 31  1  0  0  0  0
 33 32  1  0  0  0  0
M  END
>  <minimizedAffinity>
-6.10910416

$$$$

 OpenBabel03272503213D

 33 36  0  0  0  0  0  0  0  0999 V2000
   37.3090   27.1770   33.0410 C   0  0  0  0  0  0  0  0  0  0  0  0
   36.7700   28.0110   32.1610 C   0  0  0  0  0  0  0  0  0  0  0  0
   36.0410   29.0560   32.6000 C   0  0  0  0  0  0  0  0  0  0  0  0
   35.8950   29.2020   33.9590 C   0  0  0  0  0  0  0  0  0  0  0  0
   36.8470   27.7740   34.6010 S   0  0  0  0  0  0  0  0  0  0  0  0
   36.9340   27.8260   31.1000 H   0  0  0  0  0  0  0  0  0  0  0  0
   35.5440   29.8150   32.0080 H   0  0  0  0  0  0  0  0  0  0  0  0
   32.8510   29.1800   33.7560 Cl  0  0  0  0  0  0  0  0  0  0  0  0
   33.8550   30.2110   34.7620 C   0  0  0  0  0  0  0  0  0  0  0  0
   35.2120   30.1580   34.7950 C   0  0  0  0  0  0  0  0  0  0  0  0
   36.0130   30.9290   35.5500 C   0  0  0  0  0  0  0  0  0  0  0  0
   35.4270   31.8880   36.3920 C   0  0  0  0  0  0  0  0  0  0  0  0
   34.0660   31.9910   36.4050 C   0  0  0  0  0  0  0  0  0  0  0  0
   33.2630   33.1590   37.4280 Cl  0  0  0  0  0  0  0  0  0  0  0  0
   33.2870   31.1630   35.6010 C   0  0  0  0  0  0  0  0  0  0  0  0
   37.1060   30.8820   35.5710 H   0  0  0  0  0  0  0  0  0  0  0  0
   36.0490   32.5240   37.0130 H   0  0  0  0  0  0  0  0  0  0  0  0
   32.1960   31.2650   35.6280 H   0  0  0  0  0  0  0  0  0  0  0  0
   40.1820   24.8650   32.2210 C   0  0  0  0  0  0  0  0  0  0  0  0
   39.4530   26.0640   32.3680 C   0  0  0  0  0  0  0  0  0  0  0  0
   38.1410   25.9670   32.8580 C   0  0  0  0  0  0  0  0  0  0  0  0
   37.6540   24.7640   33.1570 N   0  0  0  0  0  0  0  0  0  0  0  0
   38.3580   23.6370   33.0130 C   0  0  0  0  0  0  0  0  0  0  0  0
   39.6100   23.6920   32.5480 N   0  0  0  0  0  0  0  0  0  0  0  0
   41.1940   24.9490   31.8430 H   0  0  0  0  0  0  0  0  0  0  0  0
   39.8590   27.0310   32.1220 H   0  0  0  0  0  0  0  0  0  0  0  0
   37.7330   22.3770   33.3680 C   0  0  0  0  0  0  0  0  0  0  0  0
   37.3840   22.1860   34.5550 O   0  0  0  0  0  0  0  0  0  0  0  0
   37.4740   21.2790   32.4070 C   0  0  0  0  0  3  0  0  0  0  0  0
   36.2630   20.5050   32.8840 C   0  0  0  0  0  2  0  0  0  0  0  0
   35.0730   21.3360   32.4460 C   0  0  0  0  0  2  0  0  0  0  0  0
   35.6260   22.4060   31.5020 C   0  0  0  0  0  2  0  0  0  0  0  0
   36.9550   21.8150   31.0790 C   0  0  0  0  0  2  0  0  0  0  0  0
  1  5  1  0  0  0  0
  2  3  1  0  0  0  0
  2  1  2  0  0  0  0
  3  4  2  0  0  0  0
  4  5  1  0  0  0  0
  4 10  1  0  0  0  0
  6  2  1  0  0  0  0
  7  3  1  0  0  0  0
  8  9  1  0  0  0  0
  9 10  2  0  0  0  0
  9 15  1  0  0  0  0
 10 11  1  0  0  0  0
 11 16  1  0  0  0  0
 11 12  2  0  0  0  0
 12 13  1  0  0  0  0
 12 17  1  0  0  0  0
 13 14  1  0  0  0  0
 15 18  1  0  0  0  0
 15 13  2  0  0  0  0
 19 20  2  0  0  0  0
 19 24  1  0  0  0  0
 20 21  1  0  0  0  0
 21  1  1  0  0  0  0
 21 22  2  0  0  0  0
 23 22  1  0  0  0  0
 23 27  1  0  0  0  0
 24 23  2  0  0  0  0
 25 19  1  0  0  0  0
 26 20  1  0  0  0  0
 27 28  2  0  0  0  0
 29 30  1  0  0  0  0
 29 27  1  0  0  0  0
 31 30  1  0  0  0  0
 32 31  1  0  0  0  0
 33 32  1  0  0  0  0
 33 29  1  0  0  0  0
M  END
>  <minimizedAffinity>
-5.94513083

$$$$

 OpenBabel03272503213D

 33 36  0  0  0  0  0  0  0  0999 V2000
   36.8340   27.3190   33.3710 C   0  0  0  0  0  0  0  0  0  0  0  0
   37.0060   26.2900   32.5520 C   0  0  0  0  0  0  0  0  0  0  0  0
   37.7280   25.2280   32.9640 C   0  0  0  0  0  0  0  0  0  0  0  0
   38.2540   25.2730   34.2330 C   0  0  0  0  0  0  0  0  0  0  0  0
   37.6760   26.9070   34.8280 S   0  0  0  0  0  0  0  0  0  0  0  0
   36.5560   26.3320   31.5610 H   0  0  0  0  0  0  0  0  0  0  0  0
   37.9520   24.3230   32.4130 H   0  0  0  0  0  0  0  0  0  0  0  0
   41.2490   25.8490   34.2380 Cl  0  0  0  0  0  0  0  0  0  0  0  0
   40.4010   24.5560   35.0690 C   0  0  0  0  0  0  0  0  0  0  0  0
   39.0570   24.3660   35.0160 C   0  0  0  0  0  0  0  0  0  0  0  0
   38.3730   23.3910   35.6370 C   0  0  0  0  0  0  0  0  0  0  0  0
   39.0820   22.4640   36.4190 C   0  0  0  0  0  0  0  0  0  0  0  0
   40.4370   22.6010   36.5130 C   0  0  0  0  0  0  0  0  0  0  0  0
   41.3870   21.4880   37.4700 Cl  0  0  0  0  0  0  0  0  0  0  0  0
   41.0910   23.6340   35.8470 C   0  0  0  0  0  0  0  0  0  0  0  0
   37.2900   23.2430   35.5890 H   0  0  0  0  0  0  0  0  0  0  0  0
   38.5560   21.6660   36.9320 H   0  0  0  0  0  0  0  0  0  0  0  0
   42.1800   23.7220   35.9380 H   0  0  0  0  0  0  0  0  0  0  0  0
   35.2080   30.3630   31.8350 C   0  0  0  0  0  0  0  0  0  0  0  0
   35.9130   29.1430   31.9190 C   0  0  0  0  0  0  0  0  0  0  0  0
   36.1070   28.5950   33.1960 C   0  0  0  0  0  0  0  0  0  0  0  0
   35.6220   29.2440   34.2540 N   0  0  0  0  0  0  0  0  0  0  0  0
   34.9560   30.3990   34.1580 C   0  0  0  0  0  0  0  0  0  0  0  0
   34.7540   30.9500   32.9580 N   0  0  0  0  0  0  0  0  0  0  0  0
   35.0630   30.7790   30.8450 H   0  0  0  0  0  0  0  0  0  0  0  0
   36.3000   28.6290   31.0550 H   0  0  0  0  0  0  0  0  0  0  0  0
   34.4700   31.0240   35.3730 C   0  0  0  0  0  0  0  0  0  0  0  0
   33.2410   31.0200   35.6090 O   0  0  0  0  0  0  0  0  0  0  0  0
   35.3430   31.6810   36.3740 C   0  0  0  0  0  3  0  0  0  0  0  0
   36.4080   32.4640   35.6360 C   0  0  0  0  0  2  0  0  0  0  0  0
   35.7230   33.7460   35.2090 C   0  0  0  0  0  2  0  0  0  0  0  0
   34.3820   33.7770   35.9460 C   0  0  0  0  0  2  0  0  0  0  0  0
   34.6150   32.8110   37.0890 C   0  0  0  0  0  2  0  0  0  0  0  0
  1  5  1  0  0  0  0
  2  3  1  0  0  0  0
  2  1  2  0  0  0  0
  3  4  2  0  0  0  0
  4  5  1  0  0  0  0
  4 10  1  0  0  0  0
  6  2  1  0  0  0  0
  7  3  1  0  0  0  0
  8  9  1  0  0  0  0
  9 15  1  0  0  0  0
 10  9  2  0  0  0  0
 10 11  1  0  0  0  0
 11 12  2  0  0  0  0
 12 13  1  0  0  0  0
 12 17  1  0  0  0  0
 13 14  1  0  0  0  0
 15 18  1  0  0  0  0
 15 13  2  0  0  0  0
 16 11  1  0  0  0  0
 19 20  2  0  0  0  0
 19 24  1  0  0  0  0
 20 21  1  0  0  0  0
 21  1  1  0  0  0  0
 21 22  2  0  0  0  0
 23 22  1  0  0  0  0
 23 27  1  0  0  0  0
 24 23  2  0  0  0  0
 25 19  1  0  0  0  0
 26 20  1  0  0  0  0
 27 28  2  0  0  0  0
 27 29  1  0  0  0  0
 29 33  1  0  0  0  0
 30 29  1  0  0  0  0
 31 30  1  0  0  0  0
 31 32  1  0  0  0  0
 32 33  1  0  0  0  0
M  END
>  <minimizedAffinity>
-5.92579842

$$$$

 OpenBabel03272503213D

 33 36  0  0  0  0  0  0  0  0999 V2000
   36.4970   27.3830   32.6850 C   0  0  0  0  0  0  0  0  0  0  0  0
   37.1990   26.6890   33.5710 C   0  0  0  0  0  0  0  0  0  0  0  0
   37.3950   25.3700   33.3740 C   0  0  0  0  0  0  0  0  0  0  0  0
   36.8450   24.8090   32.2470 C   0  0  0  0  0  0  0  0  0  0  0  0
   36.0270   26.2490   31.4630 S   0  0  0  0  0  0  0  0  0  0  0  0
   37.6020   27.2090   34.4400 H   0  0  0  0  0  0  0  0  0  0  0  0
   37.9420   24.6780   34.0040 H   0  0  0  0  0  0  0  0  0  0  0  0
   39.4820   23.8610   31.0400 Cl  0  0  0  0  0  0  0  0  0  0  0  0
   37.9670   22.9790   31.1420 C   0  0  0  0  0  0  0  0  0  0  0  0
   36.8310   23.4740   31.6980 C   0  0  0  0  0  0  0  0  0  0  0  0
   35.6550   22.8320   31.7930 C   0  0  0  0  0  0  0  0  0  0  0  0
   35.5560   21.5280   31.2810 C   0  0  0  0  0  0  0  0  0  0  0  0
   36.6640   20.9730   30.7090 C   0  0  0  0  0  0  0  0  0  0  0  0
   36.6200   19.3540   30.0510 Cl  0  0  0  0  0  0  0  0  0  0  0  0
   37.8570   21.6880   30.6400 C   0  0  0  0  0  0  0  0  0  0  0  0
   34.7430   23.2370   32.2420 H   0  0  0  0  0  0  0  0  0  0  0  0
   34.6190   20.9850   31.3450 H   0  0  0  0  0  0  0  0  0  0  0  0
   38.7330   21.2210   30.1750 H   0  0  0  0  0  0  0  0  0  0  0  0
   36.0320   30.9540   31.5410 C   0  0  0  0  0  0  0  0  0  0  0  0
   36.4170   29.5960   31.5100 C   0  0  0  0  0  0  0  0  0  0  0  0
   36.1270   28.8150   32.6380 C   0  0  0  0  0  0  0  0  0  0  0  0
   35.5090   29.3840   33.6720 N   0  0  0  0  0  0  0  0  0  0  0  0
   35.1500   30.6710   33.6870 C   0  0  0  0  0  0  0  0  0  0  0  0
   35.4110   31.4450   32.6300 N   0  0  0  0  0  0  0  0  0  0  0  0
   36.2600   31.5500   30.6660 H   0  0  0  0  0  0  0  0  0  0  0  0
   36.9170   29.1480   30.6660 H   0  0  0  0  0  0  0  0  0  0  0  0
   34.4810   31.1920   34.8640 C   0  0  0  0  0  0  0  0  0  0  0  0
   33.2490   31.4060   34.8180 O   0  0  0  0  0  0  0  0  0  0  0  0
   35.1680   31.4970   36.1410 C   0  0  0  0  0  3  0  0  0  0  0  0
   36.4720   32.1990   35.8240 C   0  0  0  0  0  2  0  0  0  0  0  0
   36.0840   33.6370   35.5460 C   0  0  0  0  0  2  0  0  0  0  0  0
   34.6220   33.7730   35.9780 C   0  0  0  0  0  2  0  0  0  0  0  0
   34.4450   32.5930   36.9120 C   0  0  0  0  0  2  0  0  0  0  0  0
  1  2  2  0  0  0  0
  2  6  1  0  0  0  0
  3  2  1  0  0  0  0
  3  7  1  0  0  0  0
  4  3  2  0  0  0  0
  5  4  1  0  0  0  0
  5  1  1  0  0  0  0
  8  9  1  0  0  0  0
  9 10  1  0  0  0  0
 10 11  2  0  0  0  0
 10  4  1  0  0  0  0
 11 16  1  0  0  0  0
 12 17  1  0  0  0  0
 12 11  1  0  0  0  0
 13 12  2  0  0  0  0
 14 13  1  0  0  0  0
 15 13  1  0  0  0  0
 15  9  2  0  0  0  0
 18 15  1  0  0  0  0
 19 24  1  0  0  0  0
 20 19  2  0  0  0  0
 20 21  1  0  0  0  0
 21  1  1  0  0  0  0
 21 22  2  0  0  0  0
 22 23  1  0  0  0  0
 23 27  1  0  0  0  0
 24 23  2  0  0  0  0
 25 19  1  0  0  0  0
 26 20  1  0  0  0  0
 27 29  1  0  0  0  0
 28 27  2  0  0  0  0
 29 33  1  0  0  0  0
 30 29  1  0  0  0  0
 31 30  1  0  0  0  0
 31 32  1  0  0  0  0
 32 33  1  0  0  0  0
M  END
>  <minimizedAffinity>
-5.77534437

$$$$

 OpenBabel03272503213D

 33 36  0  0  0  0  0  0  0  0999 V2000
   36.7580   27.2850   32.8080 C   0  0  0  0  0  0  0  0  0  0  0  0
   36.9500   26.1740   32.1080 C   0  0  0  0  0  0  0  0  0  0  0  0
   37.6210   25.1470   32.6680 C   0  0  0  0  0  0  0  0  0  0  0  0
   38.0770   25.3130   33.9530 C   0  0  0  0  0  0  0  0  0  0  0  0
   37.5080   27.0100   34.3450 S   0  0  0  0  0  0  0  0  0  0  0  0
   36.5560   26.1220   31.0940 H   0  0  0  0  0  0  0  0  0  0  0  0
   37.8520   24.1860   32.2250 H   0  0  0  0  0  0  0  0  0  0  0  0
   41.1030   25.2990   33.5700 Cl  0  0  0  0  0  0  0  0  0  0  0  0
   40.1660   24.4160   34.7640 C   0  0  0  0  0  0  0  0  0  0  0  0
   38.8130   24.4760   34.8700 C   0  0  0  0  0  0  0  0  0  0  0  0
   38.0610   23.8160   35.7670 C   0  0  0  0  0  0  0  0  0  0  0  0
   38.7020   22.9780   36.6950 C   0  0  0  0  0  0  0  0  0  0  0  0
   40.0610   22.8750   36.6420 C   0  0  0  0  0  0  0  0  0  0  0  0
   40.9300   21.8540   37.7640 Cl  0  0  0  0  0  0  0  0  0  0  0  0
   40.7870   23.5850   35.6880 C   0  0  0  0  0  0  0  0  0  0  0  0
   36.9710   23.8690   35.8460 H   0  0  0  0  0  0  0  0  0  0  0  0
   38.1200   22.4340   37.4320 H   0  0  0  0  0  0  0  0  0  0  0  0
   41.8790   23.4840   35.6650 H   0  0  0  0  0  0  0  0  0  0  0  0
   35.4770   30.2950   30.9170 C   0  0  0  0  0  0  0  0  0  0  0  0
   36.1590   29.0850   31.1680 C   0  0  0  0  0  0  0  0  0  0  0  0
   36.0730   28.5500   32.4630 C   0  0  0  0  0  0  0  0  0  0  0  0
   35.3610   29.2020   33.3810 N   0  0  0  0  0  0  0  0  0  0  0  0
   34.7200   30.3470   33.1270 C   0  0  0  0  0  0  0  0  0  0  0  0
   34.7810   30.8850   31.9060 N   0  0  0  0  0  0  0  0  0  0  0  0
   35.5500   30.7000   29.9150 H   0  0  0  0  0  0  0  0  0  0  0  0
   36.7320   28.5680   30.4160 H   0  0  0  0  0  0  0  0  0  0  0  0
   33.9720   30.9760   34.1990 C   0  0  0  0  0  0  0  0  0  0  0  0
   33.0910   30.3150   34.7940 O   0  0  0  0  0  0  0  0  0  0  0  0
   34.1790   32.3740   34.6460 C   0  0  0  0  0  3  0  0  0  0  0  0
   33.7280   32.4840   36.0880 C   0  0  0  0  0  2  0  0  0  0  0  0
   34.8780   31.9220   36.9000 C   0  0  0  0  0  2  0  0  0  0  0  0
   36.0480   31.7650   35.9270 C   0  0  0  0  0  2  0  0  0  0  0  0
   35.6600   32.6950   34.7950 C   0  0  0  0  0  2  0  0  0  0  0  0
  1  5  1  0  0  0  0
  2  3  1  0  0  0  0
  2  1  2  0  0  0  0
  3  4  2  0  0  0  0
  4  5  1  0  0  0  0
  4 10  1  0  0  0  0
  6  2  1  0  0  0  0
  7  3  1  0  0  0  0
  8  9  1  0  0  0  0
  9 10  2  0  0  0  0
  9 15  1  0  0  0  0
 10 11  1  0  0  0  0
 11 16  1  0  0  0  0
 11 12  2  0  0  0  0
 12 17  1  0  0  0  0
 13 12  1  0  0  0  0
 13 14  1  0  0  0  0
 15 13  2  0  0  0  0
 18 15  1  0  0  0  0
 19 20  2  0  0  0  0
 19 24  1  0  0  0  0
 20 21  1  0  0  0  0
 21  1  1  0  0  0  0
 21 22  2  0  0  0  0
 23 22  1  0  0  0  0
 23 27  1  0  0  0  0
 24 23  2  0  0  0  0
 25 19  1  0  0  0  0
 26 20  1  0  0  0  0
 27 29  1  0  0  0  0
 27 28  2  0  0  0  0
 29 33  1  0  0  0  0
 29 30  1  0  0  0  0
 30 31  1  0  0  0  0
 32 31  1  0  0  0  0
 33 32  1  0  0  0  0
M  END
>  <minimizedAffinity>
-5.69192934

$$$$

 OpenBabel03272503213D

 33 36  0  0  0  0  0  0  0  0999 V2000
   37.5740   25.7910   33.1210 C   0  0  0  0  0  0  0  0  0  0  0  0
   37.1460   26.8760   33.7540 C   0  0  0  0  0  0  0  0  0  0  0  0
   36.9950   28.0260   33.0670 C   0  0  0  0  0  0  0  0  0  0  0  0
   37.2990   28.0100   31.7280 C   0  0  0  0  0  0  0  0  0  0  0  0
   37.8170   26.2700   31.4740 S   0  0  0  0  0  0  0  0  0  0  0  0
   36.9260   26.8060   34.8190 H   0  0  0  0  0  0  0  0  0  0  0  0
   36.6570   28.9850   33.4430 H   0  0  0  0  0  0  0  0  0  0  0  0
   35.9290   30.6360   32.4570 Cl  0  0  0  0  0  0  0  0  0  0  0  0
   36.6780   30.2010   30.9290 C   0  0  0  0  0  0  0  0  0  0  0  0
   37.2700   29.0040   30.6820 C   0  0  0  0  0  0  0  0  0  0  0  0
   37.8510   28.6340   29.5290 C   0  0  0  0  0  0  0  0  0  0  0  0
   37.8640   29.5450   28.4590 C   0  0  0  0  0  0  0  0  0  0  0  0
   37.2850   30.7670   28.6440 C   0  0  0  0  0  0  0  0  0  0  0  0
   37.2630   31.9540   27.3610 Cl  0  0  0  0  0  0  0  0  0  0  0  0
   36.6980   31.0930   29.8640 C   0  0  0  0  0  0  0  0  0  0  0  0
   38.3270   27.6680   29.3370 H   0  0  0  0  0  0  0  0  0  0  0  0
   38.3270   29.2740   27.5160 H   0  0  0  0  0  0  0  0  0  0  0  0
   36.2380   32.0810   29.9870 H   0  0  0  0  0  0  0  0  0  0  0  0
   38.5030   22.8470   35.3000 C   0  0  0  0  0  0  0  0  0  0  0  0
   38.2820   24.1870   34.9140 C   0  0  0  0  0  0  0  0  0  0  0  0
   37.8300   24.4170   33.6050 C   0  0  0  0  0  0  0  0  0  0  0  0
   37.6350   23.3730   32.8000 N   0  0  0  0  0  0  0  0  0  0  0  0
   37.8480   22.1090   33.1810 C   0  0  0  0  0  0  0  0  0  0  0  0
   38.2780   21.8540   34.4200 N   0  0  0  0  0  0  0  0  0  0  0  0
   38.8510   22.6790   36.3120 H   0  0  0  0  0  0  0  0  0  0  0  0
   38.4440   25.0220   35.5750 H   0  0  0  0  0  0  0  0  0  0  0  0
   37.6030   21.0450   32.2260 C   0  0  0  0  0  0  0  0  0  0  0  0
   38.5190   20.2280   31.9810 O   0  0  0  0  0  0  0  0  0  0  0  0
   36.3230   20.8560   31.5050 C   0  0  0  0  0  3  0  0  0  0  0  0
   36.2100   19.3980   31.1110 C   0  0  0  0  0  2  0  0  0  0  0  0
   35.7490   18.6900   32.3690 C   0  0  0  0  0  2  0  0  0  0  0  0
   35.3520   19.7910   33.3550 C   0  0  0  0  0  2  0  0  0  0  0  0
   35.1320   20.9820   32.4450 C   0  0  0  0  0  2  0  0  0  0  0  0
  1 21  1  0  0  0  0
  1  2  2  0  0  0  0
  2  6  1  0  0  0  0
  3  7  1  0  0  0  0
  3  2  1  0  0  0  0
  4  3  2  0  0  0  0
  5  4  1  0  0  0  0
  5  1  1  0  0  0  0
  9  8  1  0  0  0  0
 10  9  1  0  0  0  0
 10  4  1  0  0  0  0
 11 10  2  0  0  0  0
 12 13  2  0  0  0  0
 12 11  1  0  0  0  0
 13 15  1  0  0  0  0
 14 13  1  0  0  0  0
 15 18  1  0  0  0  0
 15  9  2  0  0  0  0
 16 11  1  0  0  0  0
 17 12  1  0  0  0  0
 19 25  1  0  0  0  0
 20 19  1  0  0  0  0
 20 26  1  0  0  0  0
 21 20  2  0  0  0  0
 22 23  2  0  0  0  0
 22 21  1  0  0  0  0
 23 24  1  0  0  0  0
 24 19  2  0  0  0  0
 27 23  1  0  0  0  0
 28 27  2  0  0  0  0
 29 27  1  0  0  0  0
 29 33  1  0  0  0  0
 30 29  1  0  0  0  0
 30 31  1  0  0  0  0
 31 32  1  0  0  0  0
 33 32  1  0  0  0  0
M  END
>  <minimizedAffinity>
-5.6848917

$$$$

 OpenBabel03272503213D

 33 36  0  0  0  0  0  0  0  0999 V2000
   36.5670   27.7260   32.9070 C   0  0  0  0  0  0  0  0  0  0  0  0
   36.0960   28.6940   32.1320 C   0  0  0  0  0  0  0  0  0  0  0  0
   35.5730   29.8000   32.6990 C   0  0  0  0  0  0  0  0  0  0  0  0
   35.5570   29.8620   34.0710 C   0  0  0  0  0  0  0  0  0  0  0  0
   36.3250   28.2650   34.5360 S   0  0  0  0  0  0  0  0  0  0  0  0
   36.1460   28.5680   31.0510 H   0  0  0  0  0  0  0  0  0  0  0  0
   35.1540   30.6670   32.2010 H   0  0  0  0  0  0  0  0  0  0  0  0
   32.6840   29.5050   35.0330 Cl  0  0  0  0  0  0  0  0  0  0  0  0
   33.8280   30.7530   35.5010 C   0  0  0  0  0  0  0  0  0  0  0  0
   35.0970   30.8430   35.0240 C   0  0  0  0  0  0  0  0  0  0  0  0
   35.9990   31.7820   35.3550 C   0  0  0  0  0  0  0  0  0  0  0  0
   35.6290   32.7750   36.2770 C   0  0  0  0  0  0  0  0  0  0  0  0
   34.3670   32.7400   36.7940 C   0  0  0  0  0  0  0  0  0  0  0  0
   33.8340   33.9410   37.9470 Cl  0  0  0  0  0  0  0  0  0  0  0  0
   33.4750   31.7410   36.4120 C   0  0  0  0  0  0  0  0  0  0  0  0
   37.0200   31.8490   34.9670 H   0  0  0  0  0  0  0  0  0  0  0  0
   36.3380   33.5450   36.5640 H   0  0  0  0  0  0  0  0  0  0  0  0
   32.4660   31.7340   36.8400 H   0  0  0  0  0  0  0  0  0  0  0  0
   38.0960   24.8370   31.0120 C   0  0  0  0  0  0  0  0  0  0  0  0
   37.5080   26.0980   31.2480 C   0  0  0  0  0  0  0  0  0  0  0  0
   37.1860   26.4240   32.5740 C   0  0  0  0  0  0  0  0  0  0  0  0
   37.4490   25.5390   33.5350 N   0  0  0  0  0  0  0  0  0  0  0  0
   38.0080   24.3480   33.2950 C   0  0  0  0  0  0  0  0  0  0  0  0
   38.3260   24.0050   32.0440 N   0  0  0  0  0  0  0  0  0  0  0  0
   38.3410   24.5940   29.9850 H   0  0  0  0  0  0  0  0  0  0  0  0
   37.3000   26.8050   30.4610 H   0  0  0  0  0  0  0  0  0  0  0  0
   38.2510   23.4580   34.4140 C   0  0  0  0  0  0  0  0  0  0  0  0
   37.7560   22.3080   34.3940 O   0  0  0  0  0  0  0  0  0  0  0  0
   39.0590   23.8200   35.6020 C   0  0  0  0  0  3  0  0  0  0  0  0
   39.5880   22.5450   36.2250 C   0  0  0  0  0  2  0  0  0  0  0  0
   40.7830   22.1640   35.3750 C   0  0  0  0  0  2  0  0  0  0  0  0
   41.0630   23.3670   34.4720 C   0  0  0  0  0  2  0  0  0  0  0  0
   40.3630   24.4950   35.2020 C   0  0  0  0  0  2  0  0  0  0  0  0
  1  5  1  0  0  0  0
  2  3  1  0  0  0  0
  2  1  2  0  0  0  0
  3  4  2  0  0  0  0
  4  5  1  0  0  0  0
  4 10  1  0  0  0  0
  6  2  1  0  0  0  0
  7  3  1  0  0  0  0
  8  9  1  0  0  0  0
  9 15  1  0  0  0  0
 10 11  1  0  0  0  0
 10  9  2  0  0  0  0
 11 12  2  0  0  0  0
 12 17  1  0  0  0  0
 12 13  1  0  0  0  0
 13 14  1  0  0  0  0
 15 13  2  0  0  0  0
 15 18  1  0  0  0  0
 16 11  1  0  0  0  0
 19 20  2  0  0  0  0
 19 24  1  0  0  0  0
 20 21  1  0  0  0  0
 21  1  1  0  0  0  0
 21 22  2  0  0  0  0
 23 22  1  0  0  0  0
 23 27  1  0  0  0  0
 24 23  2  0  0  0  0
 25 19  1  0  0  0  0
 26 20  1  0  0  0  0
 27 29  1  0  0  0  0
 28 27  2  0  0  0  0
 29 30  1  0  0  0  0
 31 30  1  0  0  0  0
 32 33  1  0  0  0  0
 32 31  1  0  0  0  0
 33 29  1  0  0  0  0
M  END
>  <minimizedAffinity>
-5.673522

$$$$

 OpenBabel03272503213D

 33 36  0  0  0  0  0  0  0  0999 V2000
   36.6120   27.7400   33.5670 C   0  0  0  0  0  0  0  0  0  0  0  0
   36.6780   26.6780   32.7740 C   0  0  0  0  0  0  0  0  0  0  0  0
   37.3540   25.5860   33.1850 C   0  0  0  0  0  0  0  0  0  0  0  0
   37.9490   25.6370   34.4220 C   0  0  0  0  0  0  0  0  0  0  0  0
   37.5040   27.3210   34.9920 S   0  0  0  0  0  0  0  0  0  0  0  0
   36.1790   26.7180   31.8070 H   0  0  0  0  0  0  0  0  0  0  0  0
   37.4940   24.6520   32.6530 H   0  0  0  0  0  0  0  0  0  0  0  0
   40.8790   25.4120   33.6060 Cl  0  0  0  0  0  0  0  0  0  0  0  0
   40.0510   24.5480   34.8920 C   0  0  0  0  0  0  0  0  0  0  0  0
   38.7360   24.7060   35.1930 C   0  0  0  0  0  0  0  0  0  0  0  0
   38.0680   24.0640   36.1660 C   0  0  0  0  0  0  0  0  0  0  0  0
   38.7630   23.1390   36.9630 C   0  0  0  0  0  0  0  0  0  0  0  0
   40.0880   22.9350   36.7100 C   0  0  0  0  0  0  0  0  0  0  0  0
   41.0200   21.8010   37.6590 Cl  0  0  0  0  0  0  0  0  0  0  0  0
   40.7270   23.6310   35.6870 C   0  0  0  0  0  0  0  0  0  0  0  0
   37.0080   24.1960   36.4040 H   0  0  0  0  0  0  0  0  0  0  0  0
   38.2480   22.6070   37.7560 H   0  0  0  0  0  0  0  0  0  0  0  0
   41.7930   23.4490   35.5030 H   0  0  0  0  0  0  0  0  0  0  0  0
   35.3340   30.9580   32.0550 C   0  0  0  0  0  0  0  0  0  0  0  0
   35.9850   29.7090   32.1460 C   0  0  0  0  0  0  0  0  0  0  0  0
   35.9550   29.0530   33.3870 C   0  0  0  0  0  0  0  0  0  0  0  0
   35.3230   29.6340   34.4050 N   0  0  0  0  0  0  0  0  0  0  0  0
   34.7100   30.8180   34.3020 C   0  0  0  0  0  0  0  0  0  0  0  0
   34.7190   31.4700   33.1360 N   0  0  0  0  0  0  0  0  0  0  0  0
   35.3620   31.4560   31.0930 H   0  0  0  0  0  0  0  0  0  0  0  0
   36.4930   29.2500   31.3140 H   0  0  0  0  0  0  0  0  0  0  0  0
   34.0500   31.3620   35.4740 C   0  0  0  0  0  0  0  0  0  0  0  0
   34.7250   31.5750   36.5070 O   0  0  0  0  0  0  0  0  0  0  0  0
   32.6060   31.6890   35.5360 C   0  0  0  0  0  3  0  0  0  0  0  0
   31.8390   30.5900   34.8290 C   0  0  0  0  0  2  0  0  0  0  0  0
   31.7550   29.4630   35.8390 C   0  0  0  0  0  2  0  0  0  0  0  0
   32.2290   30.0500   37.1700 C   0  0  0  0  0  2  0  0  0  0  0  0
   32.0640   31.5390   36.9500 C   0  0  0  0  0  2  0  0  0  0  0  0
  1  5  1  0  0  0  0
  2  3  1  0  0  0  0
  2  1  2  0  0  0  0
  3  4  2  0  0  0  0
  4  5  1  0  0  0  0
  4 10  1  0  0  0  0
  6  2  1  0  0  0  0
  7  3  1  0  0  0  0
  8  9  1  0  0  0  0
  9 10  2  0  0  0  0
  9 15  1  0  0  0  0
 10 11  1  0  0  0  0
 11 16  1  0  0  0  0
 11 12  2  0  0  0  0
 12 17  1  0  0  0  0
 13 12  1  0  0  0  0
 13 14  1  0  0  0  0
 15 13  2  0  0  0  0
 18 15  1  0  0  0  0
 19 20  2  0  0  0  0
 19 24  1  0  0  0  0
 20 21  1  0  0  0  0
 21  1  1  0  0  0  0
 21 22  2  0  0  0  0
 23 22  1  0  0  0  0
 23 27  1  0  0  0  0
 24 23  2  0  0  0  0
 25 19  1  0  0  0  0
 26 20  1  0  0  0  0
 27 29  1  0  0  0  0
 27 28  2  0  0  0  0
 29 33  1  0  0  0  0
 30 29  1  0  0  0  0
 30 31  1  0  0  0  0
 31 32  1  0  0  0  0
 33 32  1  0  0  0  0
M  END
>  <minimizedAffinity>
-5.67339373

$$$$
