
 OpenBabel03272507273D

 35 37  0  0  1  0  0  0  0  0999 V2000
   36.7570   29.9370   49.3350 C   0  0  0  0  0  0  0  0  0  0  0  0
   37.7490   30.6130   48.6070 C   0  0  0  0  0  0  0  0  0  0  0  0
   37.4990   30.8910   47.2540 C   0  0  0  0  0  0  0  0  0  0  0  0
   36.3340   30.4980   46.7380 N   0  0  0  0  0  0  0  0  0  0  0  0
   35.4000   29.8490   47.4610 C   0  0  0  0  0  0  0  0  0  0  0  0
   35.6170   29.5760   48.7460 N   0  0  0  0  0  0  0  0  0  0  0  0
   38.4630   31.5650   46.4840 N   0  0  0  0  0  0  0  0  0  0  0  0
   39.4470   32.5280   46.9920 C   0  0  0  0  0  0  0  0  0  0  0  0
   40.0990   33.1530   45.8050 C   0  0  0  0  0  0  0  0  0  0  0  0
   39.1430   32.8570   44.7070 C   0  0  0  0  0  0  0  0  0  0  0  0
   38.6980   31.4660   45.0720 C   0  0  2  0  0  0  0  0  0  0  0  0
   36.8890   29.6940   50.3760 H   0  0  0  0  0  0  0  0  0  0  0  0
   38.6690   30.9040   49.0860 H   0  0  0  0  0  0  0  0  0  0  0  0
   34.4910   29.5770   46.9410 H   0  0  0  0  0  0  0  0  0  0  0  0
   40.2210   31.8990   47.4990 H   0  0  0  0  0  0  0  0  0  0  0  0
   39.0070   33.2290   47.6960 H   0  0  0  0  0  0  0  0  0  0  0  0
   40.0780   34.2670   45.9920 H   0  0  0  0  0  0  0  0  0  0  0  0
   41.1210   32.8420   45.5880 H   0  0  0  0  0  0  0  0  0  0  0  0
   39.6410   32.8000   43.7040 H   0  0  0  0  0  0  0  0  0  0  0  0
   38.2870   33.5550   44.6870 H   0  0  0  0  0  0  0  0  0  0  0  0
   37.5820   30.9690   44.2170 C   0  0  0  0  0  0  0  0  0  0  0  0
   36.4320   31.6080   44.6480 F   0  0  0  0  0  0  0  0  0  0  0  0
   37.3460   29.6250   44.2700 F   0  0  0  0  0  0  0  0  0  0  0  0
   37.8330   31.4400   42.9350 F   0  0  0  0  0  0  0  0  0  0  0  0
   39.8430   30.5440   44.9180 C   0  0  0  0  0  0  0  0  0  0  0  0
   39.5020   29.5630   45.3050 H   0  0  0  0  0  0  0  0  0  0  0  0
   40.6220   30.8550   45.6800 H   0  0  0  0  0  0  0  0  0  0  0  0
   40.3540   30.7640   43.8110 O   0  0  0  0  0  0  0  0  0  0  0  0
   40.6940   30.0820   42.6970 C   0  0  0  0  0  0  0  0  0  0  0  0
   40.6780   30.8640   41.7120 O   0  0  0  0  0  0  0  0  0  0  0  0
   41.0870   28.8650   42.0040 C   0  0  0  0  0  3  0  0  0  0  0  0
   39.8180   28.0810   41.6820 C   0  0  0  0  0  2  0  0  0  0  0  0
   40.3910   27.1510   40.6030 C   0  0  0  0  0  2  0  0  0  0  0  0
   40.9500   28.1990   39.6620 C   0  0  0  0  0  2  0  0  0  0  0  0
   41.7000   29.1080   40.6440 C   0  0  0  0  0  2  0  0  0  0  0  0
  1 12  1  0  0  0  0
  2 13  1  0  0  0  0
  2  1  2  0  0  0  0
  3  2  1  0  0  0  0
  4  3  2  0  0  0  0
  4  5  1  0  0  0  0
  5  6  2  0  0  0  0
  6  1  1  0  0  0  0
  7  8  1  0  0  0  0
  7  3  1  0  0  0  0
  8 15  1  0  0  0  0
  8 16  1  0  0  0  0
  9 17  1  0  0  0  0
  9  8  1  0  0  0  0
 10 11  1  0  0  0  0
 10  9  1  0  0  0  0
 11 21  1  6  0  0  0
 11  7  1  0  0  0  0
 14  5  1  0  0  0  0
 18  9  1  0  0  0  0
 19 10  1  0  0  0  0
 20 10  1  0  0  0  0
 21 23  1  0  0  0  0
 21 22  1  0  0  0  0
 24 21  1  0  0  0  0
 25 11  1  0  0  0  0
 25 26  1  0  0  0  0
 25 27  1  0  0  0  0
 28 25  1  0  0  0  0
 29 28  1  0  0  0  0
 30 29  2  0  0  0  0
 31 29  1  0  0  0  0
 32 31  1  0  0  0  0
 33 32  1  0  0  0  0
 34 33  1  0  0  0  0
 34 35  1  0  0  0  0
 35 31  1  0  0  0  0
M  END
>  <minimizedAffinity>
-5.15398741

>  <minimizedRMSD>
1.05117059

$$$$
