
 OpenBabel03272506523D

 30 32  0  0  1  0  0  0  0  0999 V2000
   34.5690   30.2900   49.1230 C   0  0  1  0  0  0  0  0  0  0  0  0
   34.2380   30.3030   47.6970 C   0  0  0  0  0  0  0  0  0  0  0  0
   34.4000   29.0090   46.9470 C   0  0  0  0  0  0  0  0  0  0  0  0
   34.0440   27.7790   47.7000 C   0  0  1  0  0  0  0  0  0  0  0  0
   34.3720   27.7530   49.1500 C   0  0  0  0  0  0  0  0  0  0  0  0
   34.0880   29.0610   49.8240 C   0  0  0  0  0  0  0  0  0  0  0  0
   33.9830   31.1270   49.6230 H   0  0  0  0  0  0  0  0  0  0  0  0
   33.1100   30.4650   47.6540 H   0  0  0  0  0  0  0  0  0  0  0  0
   34.6220   31.1060   47.0850 H   0  0  0  0  0  0  0  0  0  0  0  0
   33.8230   29.0790   46.0250 H   0  0  0  0  0  0  0  0  0  0  0  0
   35.4760   28.9490   46.6650 H   0  0  0  0  0  0  0  0  0  0  0  0
   34.6290   26.9370   47.2370 H   0  0  0  0  0  0  0  0  0  0  0  0
   33.7480   26.9950   49.6570 H   0  0  0  0  0  0  0  0  0  0  0  0
   35.4330   27.4620   49.3250 H   0  0  0  0  0  0  0  0  0  0  0  0
   34.3250   28.9850   50.8750 H   0  0  0  0  0  0  0  0  0  0  0  0
   32.9530   29.1440   49.7950 H   0  0  0  0  0  0  0  0  0  0  0  0
   36.8270   31.3520   48.5800 C   0  0  0  0  0  0  0  0  0  0  0  0
   35.9710   30.6450   49.4600 C   0  0  0  0  0  0  0  0  0  0  0  0
   36.4980   30.2880   50.6860 C   0  0  0  0  0  0  0  0  0  0  0  0
   37.7800   30.6190   50.9930 N   0  0  0  0  0  0  0  0  0  0  0  0
   38.5650   31.2980   50.1180 C   0  0  0  0  0  0  0  0  0  0  0  0
   38.0750   31.6610   48.9100 N   0  0  0  0  0  0  0  0  0  0  0  0
   36.4700   31.6570   47.6090 H   0  0  0  0  0  0  0  0  0  0  0  0
   35.9970   29.7540   51.4750 H   0  0  0  0  0  0  0  0  0  0  0  0
   39.5800   31.5480   50.3890 H   0  0  0  0  0  0  0  0  0  0  0  0
   32.5990   27.4310   47.3950 C   0  0  0  0  0  0  0  0  0  0  0  0
   31.7710   27.6280   48.6420 C   0  0  0  0  0  0  0  0  0  0  0  0
   30.3470   27.8830   48.1370 C   0  0  0  0  0  0  0  0  0  0  0  0
   30.5920   28.6900   46.9050 C   0  0  0  0  0  0  0  0  0  0  0  0
   31.9690   28.3770   46.4090 C   0  0  0  0  0  0  0  0  0  0  0  0
  1 18  1  0  0  0  0
  1  7  1  1  0  0  0
  1  6  1  0  0  0  0
  2  1  1  0  0  0  0
  3  2  1  0  0  0  0
  3  4  1  0  0  0  0
  4 12  1  6  0  0  0
  4  5  1  0  0  0  0
  5 14  1  0  0  0  0
  5 13  1  0  0  0  0
  5  6  1  0  0  0  0
  6 15  1  0  0  0  0
  8  2  1  0  0  0  0
  9  2  1  0  0  0  0
 10  3  1  0  0  0  0
 11  3  1  0  0  0  0
 16  6  1  0  0  0  0
 17 22  2  0  0  0  0
 17 18  1  0  0  0  0
 18 19  2  0  0  0  0
 19 20  1  0  0  0  0
 19 24  1  0  0  0  0
 21 25  1  0  0  0  0
 21 20  2  0  0  0  0
 22 21  1  0  0  0  0
 23 17  1  0  0  0  0
 26  4  1  0  0  0  0
 26 27  1  0  0  0  0
 28 27  1  0  0  0  0
 29 28  1  0  0  0  0
 30 29  1  0  0  0  0
 30 26  1  0  0  0  0
M  END
>  <minimizedAffinity>
-5.18929625

>  <minimizedRMSD>
0.520184219

$$$$
