
 OpenBabel03272508273D

 34 37  0  0  1  0  0  0  0  0999 V2000
   34.0000   28.9870   47.3540 C   0  0  2  0  0  0  0  0  0  0  0  0
   34.7430   28.2350   48.4490 C   0  0  2  0  0  0  0  0  0  0  0  0
   33.8430   28.0720   49.4580 O   0  0  0  0  0  0  0  0  0  0  0  0
   32.5670   28.1250   48.9730 C   0  0  0  0  0  0  0  0  0  0  0  0
   32.6360   28.3030   47.4720 C   0  0  1  0  0  0  0  0  0  0  0  0
   33.9310   30.0590   47.5560 H   0  0  0  0  0  0  0  0  0  0  0  0
   35.0480   27.2430   48.0610 H   0  0  0  0  0  0  0  0  0  0  0  0
   32.0680   27.1430   49.1680 H   0  0  0  0  0  0  0  0  0  0  0  0
   31.9080   28.8770   49.4520 H   0  0  0  0  0  0  0  0  0  0  0  0
   32.7150   27.3160   46.9560 H   0  0  0  0  0  0  0  0  0  0  0  0
   35.7970   30.5200   49.0510 C   0  0  1  0  0  0  0  0  0  0  0  0
   35.8960   29.0920   48.8650 C   0  0  1  0  0  0  0  0  0  0  0  0
   36.0340   29.6020   50.2610 C   0  0  0  0  0  0  0  0  0  0  0  0
   34.8930   31.1290   49.2300 H   0  0  0  0  0  0  0  0  0  0  0  0
   36.8670   28.7310   48.4190 H   0  0  0  0  0  0  0  0  0  0  0  0
   37.0330   29.6210   50.7490 H   0  0  0  0  0  0  0  0  0  0  0  0
   35.2240   29.4540   50.9950 H   0  0  0  0  0  0  0  0  0  0  0  0
   36.9870   31.4310   48.7990 C   0  0  0  0  0  0  0  0  0  0  0  0
   37.1860   32.4920   49.6840 C   0  0  0  0  0  0  0  0  0  0  0  0
   38.2700   33.3090   49.3960 C   0  0  0  0  0  0  0  0  0  0  0  0
   39.0690   33.0580   48.3040 N   0  0  0  0  0  0  0  0  0  0  0  0
   38.8370   32.0200   47.4750 C   0  0  0  0  0  0  0  0  0  0  0  0
   37.7830   31.1930   47.7250 N   0  0  0  0  0  0  0  0  0  0  0  0
   36.5430   32.6600   50.5260 H   0  0  0  0  0  0  0  0  0  0  0  0
   38.5060   34.1620   50.0290 H   0  0  0  0  0  0  0  0  0  0  0  0
   39.4950   31.8650   46.6320 H   0  0  0  0  0  0  0  0  0  0  0  0
   34.5390   28.8100   46.0960 O   0  0  0  0  0  0  0  0  0  0  0  0
   34.3480   27.8530   45.8510 H   0  0  0  0  0  0  0  0  0  0  0  0
   31.6250   29.0730   46.9760 O   0  0  0  0  0  0  0  0  0  0  0  0
   30.6280   28.3900   46.3310 C   0  0  0  0  0  3  0  0  0  0  0  0
   31.2060   27.2660   45.4670 C   0  0  0  0  0  2  0  0  0  0  0  0
   31.2040   27.8710   44.0660 C   0  0  0  0  0  2  0  0  0  0  0  0
   29.8190   28.5300   44.0850 C   0  0  0  0  0  2  0  0  0  0  0  0
   29.9390   29.3470   45.3770 C   0  0  0  0  0  2  0  0  0  0  0  0
  1  5  1  0  0  0  0
  1  6  1  1  0  0  0
  1  2  1  0  0  0  0
  2  7  1  6  0  0  0
  2 12  1  0  0  0  0
  2  3  1  0  0  0  0
  4  8  1  0  0  0  0
  4  9  1  0  0  0  0
  4  3  1  0  0  0  0
  5 10  1  6  0  0  0
  5  4  1  0  0  0  0
 11 14  1  6  0  0  0
 11 13  1  0  0  0  0
 12 15  1  6  0  0  0
 12 11  1  0  0  0  0
 12 13  1  0  0  0  0
 13 16  1  0  0  0  0
 13 17  1  0  0  0  0
 18 11  1  0  0  0  0
 18 19  1  0  0  0  0
 19 24  1  0  0  0  0
 20 19  2  0  0  0  0
 20 25  1  0  0  0  0
 21 20  1  0  0  0  0
 22 23  1  0  0  0  0
 22 21  2  0  0  0  0
 23 18  2  0  0  0  0
 26 22  1  0  0  0  0
 27  1  1  0  0  0  0
 28 27  1  0  0  0  0
 29  5  1  0  0  0  0
 30 29  1  0  0  0  0
 31 30  1  0  0  0  0
 32 33  1  0  0  0  0
 32 31  1  0  0  0  0
 33 34  1  0  0  0  0
 34 30  1  0  0  0  0
M  END
>  <minimizedAffinity>
-4.72359657

>  <minimizedRMSD>
0.430052757

$$$$
