
 OpenBabel03272508183D

 21 23  0  0  0  0  0  0  0  0999 V2000
   39.0510   24.0640   36.3470 C   0  0  0  0  0  0  0  0  0  0  0  0
   38.8200   25.0100   35.3450 C   0  0  0  0  0  0  0  0  0  0  0  0
   39.8520   25.1880   34.4350 C   0  0  0  0  0  0  0  0  0  0  0  0
   40.9940   24.4660   34.5470 N   0  0  0  0  0  0  0  0  0  0  0  0
   41.1910   23.5500   35.5350 C   0  0  0  0  0  0  0  0  0  0  0  0
   40.2070   23.3610   36.4280 N   0  0  0  0  0  0  0  0  0  0  0  0
   39.9520   25.8300   33.5920 H   0  0  0  0  0  0  0  0  0  0  0  0
   42.0940   22.9670   35.6380 H   0  0  0  0  0  0  0  0  0  0  0  0
   37.9000   23.7920   37.2790 C   0  0  0  0  0  0  0  0  0  0  0  0
   38.0940   23.1290   38.5460 C   0  0  0  0  0  0  0  0  0  0  0  0
   38.0240   24.6340   38.5640 C   0  0  0  0  0  0  0  0  0  0  0  0
   36.9140   23.9470   36.8040 H   0  0  0  0  0  0  0  0  0  0  0  0
   37.2520   22.5640   39.0150 H   0  0  0  0  0  0  0  0  0  0  0  0
   39.1170   22.6950   38.7330 H   0  0  0  0  0  0  0  0  0  0  0  0
   38.9660   25.1750   38.7200 H   0  0  0  0  0  0  0  0  0  0  0  0
   37.1160   25.1510   38.8500 H   0  0  0  0  0  0  0  0  0  0  0  0
   37.6400   25.8720   35.1230 C   0  0  0  0  0  3  0  0  0  0  0  0
   37.9180   27.2740   35.6100 C   0  0  0  0  0  2  0  0  0  0  0  0
   37.0670   28.1450   34.7270 C   0  0  0  0  0  2  0  0  0  0  0  0
   37.3720   27.5070   33.3670 C   0  0  0  0  0  2  0  0  0  0  0  0
   37.2670   26.0250   33.6900 C   0  0  0  0  0  2  0  0  0  0  0  0
  1  6  1  0  0  0  0
  1  9  1  0  0  0  0
  2  1  2  0  0  0  0
  3  4  2  0  0  0  0
  3  2  1  0  0  0  0
  4  5  1  0  0  0  0
  5  8  1  0  0  0  0
  5  6  2  0  0  0  0
  7  3  1  0  0  0  0
  9 10  1  0  0  0  0
  9 11  1  0  0  0  0
 10 11  1  0  0  0  0
 10 14  1  0  0  0  0
 10 13  1  0  0  0  0
 11 15  1  0  0  0  0
 11 16  1  0  0  0  0
 12  9  1  0  0  0  0
 17  2  1  0  0  0  0
 17 18  1  0  0  0  0
 19 18  1  0  0  0  0
 20 21  1  0  0  0  0
 20 19  1  0  0  0  0
 21 17  1  0  0  0  0
M  END
>  <minimizedAffinity>
-4.1756258

$$$$

 OpenBabel03272508183D

 21 23  0  0  0  0  0  0  0  0999 V2000
   36.5670   27.3390   31.6730 C   0  0  0  0  0  0  0  0  0  0  0  0
   37.2970   26.6490   32.6450 C   0  0  0  0  0  0  0  0  0  0  0  0
   37.0580   25.2850   32.7250 C   0  0  0  0  0  0  0  0  0  0  0  0
   36.1630   24.6990   31.8910 N   0  0  0  0  0  0  0  0  0  0  0  0
   35.4660   25.3970   30.9530 C   0  0  0  0  0  0  0  0  0  0  0  0
   35.6800   26.7180   30.8570 N   0  0  0  0  0  0  0  0  0  0  0  0
   37.4570   24.5310   33.3590 H   0  0  0  0  0  0  0  0  0  0  0  0
   34.7510   24.9440   30.2810 H   0  0  0  0  0  0  0  0  0  0  0  0
   36.8930   28.8000   31.5110 C   0  0  0  0  0  0  0  0  0  0  0  0
   36.0290   29.6890   30.7760 C   0  0  0  0  0  0  0  0  0  0  0  0
   35.8810   29.6750   32.2750 C   0  0  0  0  0  0  0  0  0  0  0  0
   37.9290   29.0470   31.8120 H   0  0  0  0  0  0  0  0  0  0  0  0
   36.4480   30.6110   30.3040 H   0  0  0  0  0  0  0  0  0  0  0  0
   35.1830   29.2100   30.2070 H   0  0  0  0  0  0  0  0  0  0  0  0
   34.9940   29.1760   32.6840 H   0  0  0  0  0  0  0  0  0  0  0  0
   36.3300   30.4450   32.8920 H   0  0  0  0  0  0  0  0  0  0  0  0
   38.2780   27.1660   33.6230 C   0  0  0  0  0  3  0  0  0  0  0  0
   37.6060   27.4280   34.9490 C   0  0  0  0  0  2  0  0  0  0  0  0
   38.6970   27.2160   35.9620 C   0  0  0  0  0  2  0  0  0  0  0  0
   39.3040   25.9180   35.4170 C   0  0  0  0  0  2  0  0  0  0  0  0
   39.3830   26.2160   33.9280 C   0  0  0  0  0  2  0  0  0  0  0  0
  1  2  1  0  0  0  0
  2  3  2  0  0  0  0
  2 17  1  0  0  0  0
  3  7  1  0  0  0  0
  4  3  1  0  0  0  0
  5  4  2  0  0  0  0
  6  5  1  0  0  0  0
  6  1  2  0  0  0  0
  8  5  1  0  0  0  0
  9  1  1  0  0  0  0
  9 12  1  0  0  0  0
  9 11  1  0  0  0  0
 10  9  1  0  0  0  0
 10 11  1  0  0  0  0
 11 15  1  0  0  0  0
 11 16  1  0  0  0  0
 13 10  1  0  0  0  0
 14 10  1  0  0  0  0
 17 21  1  0  0  0  0
 17 18  1  0  0  0  0
 18 19  1  0  0  0  0
 20 19  1  0  0  0  0
 21 20  1  0  0  0  0
M  END
>  <minimizedAffinity>
-4.10390043

$$$$

 OpenBabel03272508183D

 21 23  0  0  0  0  0  0  0  0999 V2000
   38.1960   23.4660   36.0370 C   0  0  0  0  0  0  0  0  0  0  0  0
   38.7970   24.2700   35.0650 C   0  0  0  0  0  0  0  0  0  0  0  0
   38.7450   23.7870   33.7660 C   0  0  0  0  0  0  0  0  0  0  0  0
   38.1370   22.6040   33.5020 N   0  0  0  0  0  0  0  0  0  0  0  0
   37.5590   21.8410   34.4700 C   0  0  0  0  0  0  0  0  0  0  0  0
   37.5980   22.2880   35.7350 N   0  0  0  0  0  0  0  0  0  0  0  0
   39.1160   24.1770   32.8490 H   0  0  0  0  0  0  0  0  0  0  0  0
   37.0710   20.8970   34.2750 H   0  0  0  0  0  0  0  0  0  0  0  0
   38.1590   24.0290   37.4340 C   0  0  0  0  0  0  0  0  0  0  0  0
   37.7050   23.2420   38.5530 C   0  0  0  0  0  0  0  0  0  0  0  0
   39.1920   23.3270   38.3350 C   0  0  0  0  0  0  0  0  0  0  0  0
   38.2980   25.1260   37.4600 H   0  0  0  0  0  0  0  0  0  0  0  0
   37.2830   23.7480   39.4560 H   0  0  0  0  0  0  0  0  0  0  0  0
   37.2410   22.2440   38.3100 H   0  0  0  0  0  0  0  0  0  0  0  0
   39.6890   22.4360   37.9300 H   0  0  0  0  0  0  0  0  0  0  0  0
   39.8100   24.0010   38.9180 H   0  0  0  0  0  0  0  0  0  0  0  0
   39.5050   25.5590   35.2210 C   0  0  0  0  0  3  0  0  0  0  0  0
   40.9300   25.4340   34.7380 C   0  0  0  0  0  2  0  0  0  0  0  0
   41.2770   26.8160   34.2560 C   0  0  0  0  0  2  0  0  0  0  0  0
   40.0050   27.1380   33.4650 C   0  0  0  0  0  2  0  0  0  0  0  0
   38.9190   26.6690   34.4200 C   0  0  0  0  0  2  0  0  0  0  0  0
  1  9  1  0  0  0  0
  2 17  1  0  0  0  0
  2  1  2  0  0  0  0
  3  2  1  0  0  0  0
  4  3  2  0  0  0  0
  4  5  1  0  0  0  0
  5  6  2  0  0  0  0
  6  1  1  0  0  0  0
  7  3  1  0  0  0  0
  8  5  1  0  0  0  0
  9 12  1  0  0  0  0
  9 11  1  0  0  0  0
  9 10  1  0  0  0  0
 10 13  1  0  0  0  0
 11 10  1  0  0  0  0
 11 16  1  0  0  0  0
 14 10  1  0  0  0  0
 15 11  1  0  0  0  0
 18 17  1  0  0  0  0
 19 18  1  0  0  0  0
 20 19  1  0  0  0  0
 20 21  1  0  0  0  0
 21 17  1  0  0  0  0
M  END
>  <minimizedAffinity>
-4.06923151

$$$$

 OpenBabel03272508183D

 21 23  0  0  0  0  0  0  0  0999 V2000
   36.0270   27.3770   32.1580 C   0  0  0  0  0  0  0  0  0  0  0  0
   36.6740   27.4620   33.3940 C   0  0  0  0  0  0  0  0  0  0  0  0
   36.2840   28.5150   34.2080 C   0  0  0  0  0  0  0  0  0  0  0  0
   35.3300   29.3840   33.7910 N   0  0  0  0  0  0  0  0  0  0  0  0
   34.7160   29.2760   32.5800 C   0  0  0  0  0  0  0  0  0  0  0  0
   35.0770   28.2650   31.7750 N   0  0  0  0  0  0  0  0  0  0  0  0
   36.6030   28.8200   35.1760 H   0  0  0  0  0  0  0  0  0  0  0  0
   33.9540   29.9590   32.2340 H   0  0  0  0  0  0  0  0  0  0  0  0
   36.3700   26.1810   31.3110 C   0  0  0  0  0  0  0  0  0  0  0  0
   36.1140   24.8360   31.7640 C   0  0  0  0  0  0  0  0  0  0  0  0
   35.0940   25.4540   30.8450 C   0  0  0  0  0  0  0  0  0  0  0  0
   37.0130   26.4340   30.4470 H   0  0  0  0  0  0  0  0  0  0  0  0
   36.7230   23.9880   31.3680 H   0  0  0  0  0  0  0  0  0  0  0  0
   35.7860   24.7220   32.8360 H   0  0  0  0  0  0  0  0  0  0  0  0
   34.1440   25.7700   31.2940 H   0  0  0  0  0  0  0  0  0  0  0  0
   35.0730   25.2190   29.7870 H   0  0  0  0  0  0  0  0  0  0  0  0
   37.7360   26.6010   33.9580 C   0  0  0  0  0  3  0  0  0  0  0  0
   39.0970   27.1610   33.6180 C   0  0  0  0  0  2  0  0  0  0  0  0
   39.9710   26.7200   34.7590 C   0  0  0  0  0  2  0  0  0  0  0  0
   39.0460   27.0540   35.9340 C   0  0  0  0  0  2  0  0  0  0  0  0
   37.7130   26.5110   35.4430 C   0  0  0  0  0  2  0  0  0  0  0  0
  1  2  1  0  0  0  0
  2 17  1  0  0  0  0
  2  3  2  0  0  0  0
  3  7  1  0  0  0  0
  4  3  1  0  0  0  0
  5  4  2  0  0  0  0
  6  1  2  0  0  0  0
  6  5  1  0  0  0  0
  8  5  1  0  0  0  0
  9 10  1  0  0  0  0
  9  1  1  0  0  0  0
 10 14  1  0  0  0  0
 11 15  1  0  0  0  0
 11  9  1  0  0  0  0
 11 10  1  0  0  0  0
 12  9  1  0  0  0  0
 13 10  1  0  0  0  0
 16 11  1  0  0  0  0
 17 21  1  0  0  0  0
 18 17  1  0  0  0  0
 18 19  1  0  0  0  0
 19 20  1  0  0  0  0
 21 20  1  0  0  0  0
M  END
>  <minimizedAffinity>
-4.06035614

$$$$

 OpenBabel03272508183D

 21 23  0  0  0  0  0  0  0  0999 V2000
   37.9080   24.7500   33.7630 C   0  0  0  0  0  0  0  0  0  0  0  0
   38.2730   23.8630   34.7800 C   0  0  0  0  0  0  0  0  0  0  0  0
   37.9780   22.5280   34.5510 C   0  0  0  0  0  0  0  0  0  0  0  0
   37.3720   22.1500   33.3980 N   0  0  0  0  0  0  0  0  0  0  0  0
   37.0280   23.0370   32.4240 C   0  0  0  0  0  0  0  0  0  0  0  0
   37.3030   24.3350   32.6230 N   0  0  0  0  0  0  0  0  0  0  0  0
   38.1330   21.6560   35.1400 H   0  0  0  0  0  0  0  0  0  0  0  0
   36.5460   22.7520   31.5000 H   0  0  0  0  0  0  0  0  0  0  0  0
   38.3150   26.1870   33.9580 C   0  0  0  0  0  0  0  0  0  0  0  0
   37.7510   27.2460   33.1580 C   0  0  0  0  0  0  0  0  0  0  0  0
   37.1430   27.0170   34.5170 C   0  0  0  0  0  0  0  0  0  0  0  0
   39.2120   26.2980   34.5950 H   0  0  0  0  0  0  0  0  0  0  0  0
   38.3250   28.1910   32.9990 H   0  0  0  0  0  0  0  0  0  0  0  0
   37.1100   26.9300   32.2870 H   0  0  0  0  0  0  0  0  0  0  0  0
   36.1570   26.5360   34.5480 H   0  0  0  0  0  0  0  0  0  0  0  0
   37.4010   27.6440   35.3620 H   0  0  0  0  0  0  0  0  0  0  0  0
   38.9130   24.1440   36.0830 C   0  0  0  0  0  3  0  0  0  0  0  0
   38.0350   23.6590   37.2120 C   0  0  0  0  0  2  0  0  0  0  0  0
   39.0040   23.3110   38.3080 C   0  0  0  0  0  2  0  0  0  0  0  0
   40.0510   22.5470   37.4910 C   0  0  0  0  0  2  0  0  0  0  0  0
   40.2140   23.4480   36.2770 C   0  0  0  0  0  2  0  0  0  0  0  0
  1  9  1  0  0  0  0
  1  2  1  0  0  0  0
  2 17  1  0  0  0  0
  3  2  2  0  0  0  0
  3  7  1  0  0  0  0
  4  3  1  0  0  0  0
  5  6  1  0  0  0  0
  5  4  2  0  0  0  0
  6  1  2  0  0  0  0
  8  5  1  0  0  0  0
  9 11  1  0  0  0  0
  9 12  1  0  0  0  0
 10  9  1  0  0  0  0
 10 11  1  0  0  0  0
 11 15  1  0  0  0  0
 11 16  1  0  0  0  0
 13 10  1  0  0  0  0
 14 10  1  0  0  0  0
 17 21  1  0  0  0  0
 17 18  1  0  0  0  0
 18 19  1  0  0  0  0
 20 19  1  0  0  0  0
 21 20  1  0  0  0  0
M  END
>  <minimizedAffinity>
-4.02898502

$$$$

 OpenBabel03272508183D

 21 23  0  0  0  0  0  0  0  0999 V2000
   37.0730   27.7390   33.5640 C   0  0  0  0  0  0  0  0  0  0  0  0
   36.1180   28.7490   33.4180 C   0  0  0  0  0  0  0  0  0  0  0  0
   36.0740   29.3610   32.1740 C   0  0  0  0  0  0  0  0  0  0  0  0
   36.9220   28.9710   31.1900 N   0  0  0  0  0  0  0  0  0  0  0  0
   37.8420   27.9830   31.3610 C   0  0  0  0  0  0  0  0  0  0  0  0
   37.9050   27.3760   32.5560 N   0  0  0  0  0  0  0  0  0  0  0  0
   35.4660   30.1450   31.7900 H   0  0  0  0  0  0  0  0  0  0  0  0
   38.5240   27.6610   30.5880 H   0  0  0  0  0  0  0  0  0  0  0  0
   37.0620   27.0000   34.8760 C   0  0  0  0  0  0  0  0  0  0  0  0
   38.0860   26.0420   35.2120 C   0  0  0  0  0  0  0  0  0  0  0  0
   38.2470   27.4350   35.7600 C   0  0  0  0  0  0  0  0  0  0  0  0
   36.1070   27.1080   35.4230 H   0  0  0  0  0  0  0  0  0  0  0  0
   37.8650   25.2210   35.9370 H   0  0  0  0  0  0  0  0  0  0  0  0
   38.8030   25.7650   34.3890 H   0  0  0  0  0  0  0  0  0  0  0  0
   39.0140   28.0680   35.2960 H   0  0  0  0  0  0  0  0  0  0  0  0
   37.9800   27.6730   36.7830 H   0  0  0  0  0  0  0  0  0  0  0  0
   35.1560   29.2800   34.4070 C   0  0  0  0  0  3  0  0  0  0  0  0
   35.6760   30.5660   35.0020 C   0  0  0  0  0  2  0  0  0  0  0  0
   34.4340   31.3380   35.3520 C   0  0  0  0  0  2  0  0  0  0  0  0
   33.6240   31.1150   34.0700 C   0  0  0  0  0  2  0  0  0  0  0  0
   33.8290   29.6280   33.8300 C   0  0  0  0  0  2  0  0  0  0  0  0
  1  9  1  0  0  0  0
  2  1  1  0  0  0  0
  2 17  1  0  0  0  0
  3  2  2  0  0  0  0
  4  5  2  0  0  0  0
  4  3  1  0  0  0  0
  5  6  1  0  0  0  0
  6  1  2  0  0  0  0
  7  3  1  0  0  0  0
  8  5  1  0  0  0  0
  9 10  1  0  0  0  0
  9 12  1  0  0  0  0
  9 11  1  0  0  0  0
 10 11  1  0  0  0  0
 10 13  1  0  0  0  0
 11 16  1  0  0  0  0
 14 10  1  0  0  0  0
 15 11  1  0  0  0  0
 17 18  1  0  0  0  0
 18 19  1  0  0  0  0
 20 19  1  0  0  0  0
 21 20  1  0  0  0  0
 21 17  1  0  0  0  0
M  END
>  <minimizedAffinity>
-4.01430082

$$$$

 OpenBabel03272508183D

 21 23  0  0  0  0  0  0  0  0999 V2000
   35.8620   29.2480   33.2610 C   0  0  0  0  0  0  0  0  0  0  0  0
   36.6620   28.1090   33.3910 C   0  0  0  0  0  0  0  0  0  0  0  0
   37.2850   27.6740   32.2310 C   0  0  0  0  0  0  0  0  0  0  0  0
   37.1020   28.3420   31.0650 N   0  0  0  0  0  0  0  0  0  0  0  0
   36.3160   29.4500   30.9680 C   0  0  0  0  0  0  0  0  0  0  0  0
   35.7030   29.8900   32.0770 N   0  0  0  0  0  0  0  0  0  0  0  0
   37.9310   26.8510   32.0380 H   0  0  0  0  0  0  0  0  0  0  0  0
   36.1610   29.9940   30.0480 H   0  0  0  0  0  0  0  0  0  0  0  0
   35.2640   29.7870   34.5330 C   0  0  0  0  0  0  0  0  0  0  0  0
   34.3340   30.8890   34.5220 C   0  0  0  0  0  0  0  0  0  0  0  0
   33.7500   29.5020   34.5900 C   0  0  0  0  0  0  0  0  0  0  0  0
   35.7670   29.4070   35.4420 H   0  0  0  0  0  0  0  0  0  0  0  0
   34.2300   31.5410   35.4240 H   0  0  0  0  0  0  0  0  0  0  0  0
   34.1950   31.4190   33.5380 H   0  0  0  0  0  0  0  0  0  0  0  0
   33.2780   29.1150   33.6790 H   0  0  0  0  0  0  0  0  0  0  0  0
   33.4090   29.0810   35.5280 H   0  0  0  0  0  0  0  0  0  0  0  0
   36.9270   27.2820   34.5870 C   0  0  0  0  0  3  0  0  0  0  0  0
   37.4410   25.9220   34.1780 C   0  0  0  0  0  2  0  0  0  0  0  0
   38.3200   25.5020   35.3240 C   0  0  0  0  0  2  0  0  0  0  0  0
   39.0900   26.8070   35.5480 C   0  0  0  0  0  2  0  0  0  0  0  0
   37.9750   27.8390   35.4850 C   0  0  0  0  0  2  0  0  0  0  0  0
  1  2  1  0  0  0  0
  1  9  1  0  0  0  0
  2 17  1  0  0  0  0
  3  2  2  0  0  0  0
  4  3  1  0  0  0  0
  5  4  2  0  0  0  0
  5  6  1  0  0  0  0
  6  1  2  0  0  0  0
  7  3  1  0  0  0  0
  8  5  1  0  0  0  0
  9 11  1  0  0  0  0
  9 12  1  0  0  0  0
 10  9  1  0  0  0  0
 10 11  1  0  0  0  0
 10 13  1  0  0  0  0
 11 16  1  0  0  0  0
 14 10  1  0  0  0  0
 15 11  1  0  0  0  0
 17 21  1  0  0  0  0
 18 17  1  0  0  0  0
 18 19  1  0  0  0  0
 19 20  1  0  0  0  0
 21 20  1  0  0  0  0
M  END
>  <minimizedAffinity>
-3.99838018

$$$$

 OpenBabel03272508183D

 21 23  0  0  0  0  0  0  0  0999 V2000
   38.1520   24.8790   35.2250 C   0  0  0  0  0  0  0  0  0  0  0  0
   38.0510   24.1240   34.0520 C   0  0  0  0  0  0  0  0  0  0  0  0
   37.9710   22.7510   34.2250 C   0  0  0  0  0  0  0  0  0  0  0  0
   37.9920   22.2160   35.4710 N   0  0  0  0  0  0  0  0  0  0  0  0
   38.0910   22.9770   36.5960 C   0  0  0  0  0  0  0  0  0  0  0  0
   38.1700   24.3090   36.4540 N   0  0  0  0  0  0  0  0  0  0  0  0
   37.8950   21.9510   33.5280 H   0  0  0  0  0  0  0  0  0  0  0  0
   38.1080   22.5670   37.5950 H   0  0  0  0  0  0  0  0  0  0  0  0
   38.1380   26.3750   35.0530 C   0  0  0  0  0  0  0  0  0  0  0  0
   38.4990   27.2620   36.1310 C   0  0  0  0  0  0  0  0  0  0  0  0
   39.5670   26.9480   35.1170 C   0  0  0  0  0  0  0  0  0  0  0  0
   37.6290   26.6980   34.1260 H   0  0  0  0  0  0  0  0  0  0  0  0
   38.0960   28.3040   36.1550 H   0  0  0  0  0  0  0  0  0  0  0  0
   38.6450   26.7890   37.1430 H   0  0  0  0  0  0  0  0  0  0  0  0
   40.3670   26.2660   35.4310 H   0  0  0  0  0  0  0  0  0  0  0  0
   39.8080   27.6410   34.3200 H   0  0  0  0  0  0  0  0  0  0  0  0
   38.0390   24.5760   32.6450 C   0  0  0  0  0  3  0  0  0  0  0  0
   38.6430   23.5190   31.7520 C   0  0  0  0  0  2  0  0  0  0  0  0
   37.9450   23.7090   30.4330 C   0  0  0  0  0  2  0  0  0  0  0  0
   36.5020   23.8610   30.9260 C   0  0  0  0  0  2  0  0  0  0  0  0
   36.6740   24.8120   32.0990 C   0  0  0  0  0  2  0  0  0  0  0  0
  1  6  1  0  0  0  0
  2  3  1  0  0  0  0
  2  1  2  0  0  0  0
  3  4  2  0  0  0  0
  4  5  1  0  0  0  0
  5  8  1  0  0  0  0
  6  5  2  0  0  0  0
  7  3  1  0  0  0  0
  9 11  1  0  0  0  0
  9  1  1  0  0  0  0
  9 10  1  0  0  0  0
 10 13  1  0  0  0  0
 10 14  1  0  0  0  0
 11 15  1  0  0  0  0
 11 10  1  0  0  0  0
 12  9  1  0  0  0  0
 16 11  1  0  0  0  0
 17  2  1  0  0  0  0
 18 17  1  0  0  0  0
 19 20  1  0  0  0  0
 19 18  1  0  0  0  0
 20 21  1  0  0  0  0
 21 17  1  0  0  0  0
M  END
>  <minimizedAffinity>
-3.99791074

$$$$

 OpenBabel03272508183D

 21 23  0  0  0  0  0  0  0  0999 V2000
   36.8610   23.6170   31.0560 C   0  0  0  0  0  0  0  0  0  0  0  0
   36.6610   22.2500   31.2640 C   0  0  0  0  0  0  0  0  0  0  0  0
   37.6440   21.4130   30.7560 C   0  0  0  0  0  0  0  0  0  0  0  0
   38.7140   21.9330   30.1050 N   0  0  0  0  0  0  0  0  0  0  0  0
   38.8810   23.2710   29.9160 C   0  0  0  0  0  0  0  0  0  0  0  0
   37.9440   24.1000   30.3990 N   0  0  0  0  0  0  0  0  0  0  0  0
   37.7470   20.3540   30.7620 H   0  0  0  0  0  0  0  0  0  0  0  0
   39.7280   23.7000   29.4000 H   0  0  0  0  0  0  0  0  0  0  0  0
   35.8530   24.5390   31.6910 C   0  0  0  0  0  0  0  0  0  0  0  0
   35.7770   25.9340   31.3360 C   0  0  0  0  0  0  0  0  0  0  0  0
   34.8070   25.0030   30.6580 C   0  0  0  0  0  0  0  0  0  0  0  0
   35.3580   24.0940   32.5740 H   0  0  0  0  0  0  0  0  0  0  0  0
   35.3640   26.6740   32.0650 H   0  0  0  0  0  0  0  0  0  0  0  0
   36.6010   26.3300   30.6780 H   0  0  0  0  0  0  0  0  0  0  0  0
   35.0010   24.7620   29.6050 H   0  0  0  0  0  0  0  0  0  0  0  0
   33.7800   24.9190   30.9920 H   0  0  0  0  0  0  0  0  0  0  0  0
   35.5400   21.5570   31.9330 C   0  0  0  0  0  3  0  0  0  0  0  0
   35.1470   20.3250   31.1530 C   0  0  0  0  0  2  0  0  0  0  0  0
   34.6110   19.3850   32.1970 C   0  0  0  0  0  2  0  0  0  0  0  0
   35.6890   19.5550   33.2730 C   0  0  0  0  0  2  0  0  0  0  0  0
   35.8640   21.0650   33.3000 C   0  0  0  0  0  2  0  0  0  0  0  0
  1  2  1  0  0  0  0
  1  9  1  0  0  0  0
  2 17  1  0  0  0  0
  3  7  1  0  0  0  0
  3  2  2  0  0  0  0
  4  3  1  0  0  0  0
  5  4  2  0  0  0  0
  5  6  1  0  0  0  0
  6  1  2  0  0  0  0
  8  5  1  0  0  0  0
  9 12  1  0  0  0  0
 10  9  1  0  0  0  0
 10 13  1  0  0  0  0
 11 16  1  0  0  0  0
 11 10  1  0  0  0  0
 11  9  1  0  0  0  0
 14 10  1  0  0  0  0
 15 11  1  0  0  0  0
 17 21  1  0  0  0  0
 18 17  1  0  0  0  0
 18 19  1  0  0  0  0
 19 20  1  0  0  0  0
 20 21  1  0  0  0  0
M  END
>  <minimizedAffinity>
-3.96768975

$$$$
