REMARK  Name = 
REMARK  2 active torsions:
REMARK  status: ('A' for Active; 'I' for Inactive)
REMARK    1  A    between atoms: C_1  and  C_7
REMARK    2  A    between atoms: C_5  and  C_17
REMARK                            x       y       z     vdW  Elec       q    Type
REMARK                         _______ _______ _______ _____ _____    ______ ____
ROOT
ATOM      1  C   UNL     1      37.008  31.155  49.246  0.00  0.00    +0.000 A 
ATOM      2  C   UNL     1      37.319  32.445  49.721  0.00  0.00    +0.000 A 
ATOM      3  C   UNL     1      38.305  33.111  49.014  0.00  0.00    +0.000 A 
ATOM      4  N   UNL     1      38.907  32.539  47.947  0.00  0.00    +0.000 NA
ATOM      5  C   UNL     1      38.581  31.293  47.516  0.00  0.00    +0.000 A 
ATOM      6  N   UNL     1      37.616  30.596  48.180  0.00  0.00    +0.000 NA
ATOM      7  H   UNL     1      36.791  32.812  50.569  0.00  0.00    +0.000 HD
ATOM      8  H   UNL     1      38.575  34.106  49.348  0.00  0.00    +0.000 HD
ENDROOT
BRANCH   1   9
ATOM      9  C   UNL     1      35.922  30.395  49.968  0.00  0.00    +0.000 C 
ATOM     10  C   UNL     1      35.810  28.944  49.848  0.00  0.00    +0.000 C 
ATOM     11  C   UNL     1      36.466  29.510  51.080  0.00  0.00    +0.000 C 
ATOM     12  H   UNL     1      35.059  31.025  50.231  0.00  0.00    +0.000 HD
ATOM     13  H   UNL     1      36.543  28.385  49.197  0.00  0.00    +0.000 HD
ATOM     14  H   UNL     1      34.812  28.462  49.926  0.00  0.00    +0.000 HD
ATOM     15  H   UNL     1      35.879  29.551  52.015  0.00  0.00    +0.000 HD
ATOM     16  H   UNL     1      37.545  29.442  51.226  0.00  0.00    +0.000 HD
ENDBRANCH   1   9
BRANCH   5  17
ATOM     17  C   UNL     1      39.217  30.630  46.350  0.00  0.00    +0.000 C 
ATOM     18  C   UNL     1      39.096  31.439  45.086  0.00  0.00    +0.000 C 
ATOM     19  C   UNL     1      38.817  30.504  43.962  0.00  0.00    +0.000 C 
ATOM     20  C   UNL     1      38.821  29.117  44.559  0.00  0.00    +0.000 C 
ATOM     21  C   UNL     1      38.627  29.292  46.051  0.00  0.00    +0.000 C 
ENDBRANCH   5  17
TORSDOF 2
