
 OpenBabel03272502113D

 22 24  0  0  0  0  0  0  0  0999 V2000
   38.3610   32.1950   48.9140 C   0  0  0  0  0  0  0  0  0  0  0  0
   38.7130   33.3780   49.5300 C   0  0  0  0  0  0  0  0  0  0  0  0
   39.5580   34.3380   48.9450 C   0  0  0  0  0  0  0  0  0  0  0  0
   40.0400   34.0550   47.6990 N   0  0  0  0  0  0  0  0  0  0  0  0
   39.6920   32.9000   47.1020 C   0  0  0  0  0  0  0  0  0  0  0  0
   38.8890   32.0060   47.6810 N   0  0  0  0  0  0  0  0  0  0  0  0
   38.3440   33.6290   50.5200 H   0  0  0  0  0  0  0  0  0  0  0  0
   39.8000   35.2470   49.4740 H   0  0  0  0  0  0  0  0  0  0  0  0
   37.7610   30.5900   50.7400 C   0  0  0  0  0  0  0  0  0  0  0  0
   37.4970   31.2340   49.5340 C   0  0  0  0  0  0  0  0  0  0  0  0
   36.3010   30.9080   48.8940 C   0  0  0  0  0  0  0  0  0  0  0  0
   35.4640   30.0030   49.4550 N   0  0  0  0  0  0  0  0  0  0  0  0
   35.7650   29.3990   50.6380 C   0  0  0  0  0  0  0  0  0  0  0  0
   36.9160   29.7010   51.2710 N   0  0  0  0  0  0  0  0  0  0  0  0
   38.6880   30.8400   51.2410 H   0  0  0  0  0  0  0  0  0  0  0  0
   36.0610   31.3910   47.9480 H   0  0  0  0  0  0  0  0  0  0  0  0
   35.0780   28.6740   51.0710 H   0  0  0  0  0  0  0  0  0  0  0  0
   40.2340   32.6360   45.7620 C   0  0  0  0  0  0  0  0  0  0  0  0
   39.3830   33.0980   44.6260 C   0  0  0  0  0  0  0  0  0  0  0  0
   39.7720   32.1680   43.4770 C   0  0  0  0  0  0  0  0  0  0  0  0
   40.6330   31.0920   44.0800 C   0  0  0  0  0  0  0  0  0  0  0  0
   40.1780   31.1170   45.5430 C   0  0  0  0  0  0  0  0  0  0  0  0
  1  2  1  0  0  0  0
  1 10  1  0  0  0  0
  2  7  1  0  0  0  0
  3  8  1  0  0  0  0
  3  2  2  0  0  0  0
  4  3  1  0  0  0  0
  5  6  1  0  0  0  0
  5  4  2  0  0  0  0
  6  1  2  0  0  0  0
  9 15  1  0  0  0  0
  9 14  1  0  0  0  0
 10  9  2  0  0  0  0
 11 12  2  0  0  0  0
 11 10  1  0  0  0  0
 12 13  1  0  0  0  0
 13 17  1  0  0  0  0
 13 14  2  0  0  0  0
 16 11  1  0  0  0  0
 18  5  1  0  0  0  0
 19 18  1  0  0  0  0
 20 21  1  0  0  0  0
 20 19  1  0  0  0  0
 21 22  1  0  0  0  0
 22 18  1  0  0  0  0
M  END
>  <minimizedAffinity>
-5.99857855

>  <minimizedRMSD>
0.825036049

$$$$
