REMARK  Name = 
REMARK  2 active torsions:
REMARK  status: ('A' for Active; 'I' for Inactive)
REMARK    1  A    between atoms: C_1  and  C_7
REMARK    2  A    between atoms: C_3  and  C_26
REMARK                            x       y       z     vdW  Elec       q    Type
REMARK                         _______ _______ _______ _____ _____    ______ ____
ROOT
ATOM      1  C   UNL     1      35.522  30.308  49.737  0.00  0.00    +0.000 C 
ATOM      2  C   UNL     1      36.493  31.163  48.946  0.00  0.00    +0.000 C 
ATOM      3  C   UNL     1      37.928  30.778  49.159  0.00  0.00    +0.000 C 
ATOM      4  C   UNL     1      38.301  30.804  50.617  0.00  0.00    +0.000 C 
ATOM      5  C   UNL     1      37.292  30.130  51.502  0.00  0.00    +0.000 C 
ATOM      6  C   UNL     1      36.200  29.424  50.727  0.00  0.00    +0.000 C 
ATOM      7  H   UNL     1      34.769  30.982  50.193  0.00  0.00    +0.000 HD
ATOM      8  H   UNL     1      36.401  32.215  49.284  0.00  0.00    +0.000 HD
ATOM      9  H   UNL     1      36.276  31.142  47.863  0.00  0.00    +0.000 HD
ATOM     10  H   UNL     1      38.084  29.752  48.735  0.00  0.00    +0.000 HD
ATOM     11  H   UNL     1      38.548  31.489  48.609  0.00  0.00    +0.000 HD
ATOM     12  H   UNL     1      38.318  31.888  50.903  0.00  0.00    +0.000 HD
ATOM     13  H   UNL     1      39.321  30.413  50.731  0.00  0.00    +0.000 HD
ATOM     14  H   UNL     1      36.783  30.842  52.184  0.00  0.00    +0.000 HD
ATOM     15  H   UNL     1      37.799  29.369  52.128  0.00  0.00    +0.000 HD
ATOM     16  H   UNL     1      35.484  29.048  51.465  0.00  0.00    +0.000 HD
ATOM     17  H   UNL     1      36.703  28.592  50.162  0.00  0.00    +0.000 HD
ENDROOT
BRANCH   1  18
ATOM     18  C   UNL     1      34.756  29.429  48.799  0.00  0.00    +0.000 A 
ATOM     19  C   UNL     1      34.218  30.070  47.668  0.00  0.00    +0.000 A 
ATOM     20  C   UNL     1      33.486  29.256  46.785  0.00  0.00    +0.000 A 
ATOM     21  N   UNL     1      33.332  27.913  47.055  0.00  0.00    +0.000 NA
ATOM     22  C   UNL     1      33.882  27.348  48.175  0.00  0.00    +0.000 A 
ATOM     23  N   UNL     1      34.577  28.105  49.021  0.00  0.00    +0.000 NA
ATOM     24  H   UNL     1      34.299  31.099  47.406  0.00  0.00    +0.000 HD
ATOM     25  H   UNL     1      33.777  26.314  48.405  0.00  0.00    +0.000 HD
BRANCH  20  26
ATOM     26  C   UNL     1      32.852  29.727  45.562  0.00  0.00    +0.000 C 
ATOM     27  C   UNL     1      31.429  30.252  45.793  0.00  0.00    +0.000 C 
ATOM     28  C   UNL     1      31.123  30.639  44.339  0.00  0.00    +0.000 C 
ATOM     29  C   UNL     1      31.630  29.427  43.594  0.00  0.00    +0.000 C 
ATOM     30  C   UNL     1      32.590  28.697  44.514  0.00  0.00    +0.000 C 
ENDBRANCH  20  26
ENDBRANCH   1  18
TORSDOF 2
