
 OpenBabel03272500403D

 21 23  0  0  1  0  0  0  0  0999 V2000
   38.3220   26.4490   34.5600 C   0  0  1  0  0  0  0  0  0  0  0  0
   38.1080   27.1560   35.8190 C   0  0  0  0  0  0  0  0  0  0  0  0
   37.7360   25.6960   35.7410 C   0  0  2  0  0  0  0  0  0  0  0  0
   39.3540   26.1290   34.2940 H   0  0  0  0  0  0  0  0  0  0  0  0
   38.9620   27.4990   36.4280 H   0  0  0  0  0  0  0  0  0  0  0  0
   37.2680   27.9110   35.8790 H   0  0  0  0  0  0  0  0  0  0  0  0
   36.6490   25.4510   35.7270 H   0  0  0  0  0  0  0  0  0  0  0  0
   37.3510   26.6020   33.4120 C   0  0  0  0  0  0  0  0  0  0  0  0
   36.7770   27.8700   33.2100 C   0  0  0  0  0  0  0  0  0  0  0  0
   35.8750   27.9510   32.1630 C   0  0  0  0  0  0  0  0  0  0  0  0
   35.5910   26.8660   31.4110 N   0  0  0  0  0  0  0  0  0  0  0  0
   36.1600   25.6590   31.6300 C   0  0  0  0  0  0  0  0  0  0  0  0
   37.0570   25.5300   32.6520 N   0  0  0  0  0  0  0  0  0  0  0  0
   37.0840   28.6630   33.8800 H   0  0  0  0  0  0  0  0  0  0  0  0
   35.4280   28.9180   31.9970 H   0  0  0  0  0  0  0  0  0  0  0  0
   35.8880   24.8310   30.9910 H   0  0  0  0  0  0  0  0  0  0  0  0
   38.6590   24.8090   36.4960 C   0  0  0  0  0  3  0  0  0  0  0  0
   37.9920   24.4400   37.8050 C   0  0  0  0  0  2  0  0  0  0  0  0
   38.9150   23.3180   38.2860 C   0  0  0  0  0  2  0  0  0  0  0  0
   39.4880   22.7010   37.0230 C   0  0  0  0  0  2  0  0  0  0  0  0
   38.9010   23.4700   35.8560 C   0  0  0  0  0  2  0  0  0  0  0  0
  1  4  1  6  0  0  0
  1  3  1  0  0  0  0
  1  2  1  0  0  0  0
  2  6  1  0  0  0  0
  2  5  1  0  0  0  0
  3  7  1  6  0  0  0
  3  2  1  0  0  0  0
  3 17  1  0  0  0  0
  8  1  1  0  0  0  0
  9  8  1  0  0  0  0
  9 14  1  0  0  0  0
 10  9  2  0  0  0  0
 11 12  2  0  0  0  0
 11 10  1  0  0  0  0
 12 13  1  0  0  0  0
 13  8  2  0  0  0  0
 15 10  1  0  0  0  0
 16 12  1  0  0  0  0
 17 18  1  0  0  0  0
 18 19  1  0  0  0  0
 20 19  1  0  0  0  0
 21 17  1  0  0  0  0
 21 20  1  0  0  0  0
M  END
>  <minimizedAffinity>
-4.56543541

$$$$

 OpenBabel03272500403D

 21 23  0  0  1  0  0  0  0  0999 V2000
   38.3220   26.5580   34.5730 C   0  0  1  0  0  0  0  0  0  0  0  0
   38.1740   27.2210   35.8640 C   0  0  0  0  0  0  0  0  0  0  0  0
   37.7390   25.7820   35.7410 C   0  0  2  0  0  0  0  0  0  0  0  0
   39.3320   26.2070   34.2630 H   0  0  0  0  0  0  0  0  0  0  0  0
   39.0600   27.5040   36.4600 H   0  0  0  0  0  0  0  0  0  0  0  0
   37.3700   28.0070   35.9800 H   0  0  0  0  0  0  0  0  0  0  0  0
   36.6430   25.5830   35.7500 H   0  0  0  0  0  0  0  0  0  0  0  0
   37.3260   26.7970   33.4620 C   0  0  0  0  0  0  0  0  0  0  0  0
   37.1190   25.7570   32.5380 C   0  0  0  0  0  0  0  0  0  0  0  0
   36.2170   26.0360   31.5250 C   0  0  0  0  0  0  0  0  0  0  0  0
   35.6000   27.2360   31.4620 N   0  0  0  0  0  0  0  0  0  0  0  0
   35.8210   28.2170   32.3660 C   0  0  0  0  0  0  0  0  0  0  0  0
   36.7020   27.9880   33.3840 N   0  0  0  0  0  0  0  0  0  0  0  0
   37.6740   24.8410   32.6950 H   0  0  0  0  0  0  0  0  0  0  0  0
   36.0490   25.2460   30.8110 H   0  0  0  0  0  0  0  0  0  0  0  0
   35.2940   29.1540   32.2560 H   0  0  0  0  0  0  0  0  0  0  0  0
   38.6450   24.8280   36.4310 C   0  0  0  0  0  3  0  0  0  0  0  0
   38.0330   24.4860   37.7740 C   0  0  0  0  0  2  0  0  0  0  0  0
   38.9080   23.3000   38.1890 C   0  0  0  0  0  2  0  0  0  0  0  0
   39.3650   22.6650   36.8890 C   0  0  0  0  0  2  0  0  0  0  0  0
   38.7620   23.4840   35.7650 C   0  0  0  0  0  2  0  0  0  0  0  0
  1  4  1  6  0  0  0
  1  3  1  0  0  0  0
  1  2  1  0  0  0  0
  2  6  1  0  0  0  0
  2  5  1  0  0  0  0
  3  7  1  6  0  0  0
  3  2  1  0  0  0  0
  3 17  1  0  0  0  0
  8  1  1  0  0  0  0
  9 14  1  0  0  0  0
  9  8  2  0  0  0  0
 10  9  1  0  0  0  0
 11 10  2  0  0  0  0
 11 12  1  0  0  0  0
 12 13  2  0  0  0  0
 13  8  1  0  0  0  0
 15 10  1  0  0  0  0
 16 12  1  0  0  0  0
 17 18  1  0  0  0  0
 18 19  1  0  0  0  0
 20 19  1  0  0  0  0
 21 17  1  0  0  0  0
 21 20  1  0  0  0  0
M  END
>  <minimizedAffinity>
-4.42099857

$$$$

 OpenBabel03272500403D

 21 23  0  0  1  0  0  0  0  0999 V2000
   37.6940   25.8730   35.7920 C   0  0  1  0  0  0  0  0  0  0  0  0
   38.3930   27.0990   35.4220 C   0  0  0  0  0  0  0  0  0  0  0  0
   38.1230   26.0740   34.3490 C   0  0  2  0  0  0  0  0  0  0  0  0
   36.5910   25.9090   35.9400 H   0  0  0  0  0  0  0  0  0  0  0  0
   37.8720   28.0730   35.4290 H   0  0  0  0  0  0  0  0  0  0  0  0
   39.4630   27.2360   35.7620 H   0  0  0  0  0  0  0  0  0  0  0  0
   38.9970   25.4950   33.9710 H   0  0  0  0  0  0  0  0  0  0  0  0
   38.4250   24.7430   36.4780 C   0  0  0  0  0  0  0  0  0  0  0  0
   37.9930   24.3750   37.7650 C   0  0  0  0  0  0  0  0  0  0  0  0
   38.7130   23.3530   38.3610 C   0  0  0  0  0  0  0  0  0  0  0  0
   39.7510   22.7750   37.7190 N   0  0  0  0  0  0  0  0  0  0  0  0
   40.1420   23.1510   36.4810 C   0  0  0  0  0  0  0  0  0  0  0  0
   39.4630   24.1560   35.8520 N   0  0  0  0  0  0  0  0  0  0  0  0
   37.1490   24.9140   38.1750 H   0  0  0  0  0  0  0  0  0  0  0  0
   38.3910   23.0610   39.3480 H   0  0  0  0  0  0  0  0  0  0  0  0
   40.9820   22.6470   36.0250 H   0  0  0  0  0  0  0  0  0  0  0  0
   37.0690   26.4870   33.3870 C   0  0  0  0  0  3  0  0  0  0  0  0
   37.6120   27.6310   32.5560 C   0  0  0  0  0  2  0  0  0  0  0  0
   36.5500   27.7100   31.4570 C   0  0  0  0  0  2  0  0  0  0  0  0
   35.9960   26.3030   31.3320 C   0  0  0  0  0  2  0  0  0  0  0  0
   36.7300   25.4520   32.3490 C   0  0  0  0  0  2  0  0  0  0  0  0
  1  4  1  1  0  0  0
  1  8  1  0  0  0  0
  2  5  1  0  0  0  0
  2  6  1  0  0  0  0
  2  1  1  0  0  0  0
  3  7  1  6  0  0  0
  3  2  1  0  0  0  0
  3  1  1  0  0  0  0
  8  9  1  0  0  0  0
  9 14  1  0  0  0  0
  9 10  2  0  0  0  0
 10 15  1  0  0  0  0
 11 10  1  0  0  0  0
 12 11  2  0  0  0  0
 13  8  2  0  0  0  0
 13 12  1  0  0  0  0
 16 12  1  0  0  0  0
 17  3  1  0  0  0  0
 18 17  1  0  0  0  0
 19 18  1  0  0  0  0
 20 19  1  0  0  0  0
 20 21  1  0  0  0  0
 21 17  1  0  0  0  0
M  END
>  <minimizedAffinity>
-4.41338444

$$$$

 OpenBabel03272500403D

 21 23  0  0  1  0  0  0  0  0999 V2000
   38.0290   26.6010   34.2510 C   0  0  1  0  0  0  0  0  0  0  0  0
   38.9100   27.0310   35.3310 C   0  0  0  0  0  0  0  0  0  0  0  0
   37.7690   26.1020   35.6610 C   0  0  2  0  0  0  0  0  0  0  0  0
   38.3820   25.8080   33.5550 H   0  0  0  0  0  0  0  0  0  0  0  0
   39.9600   26.6900   35.3760 H   0  0  0  0  0  0  0  0  0  0  0  0
   38.8410   28.1010   35.6920 H   0  0  0  0  0  0  0  0  0  0  0  0
   36.9120   26.5350   36.2270 H   0  0  0  0  0  0  0  0  0  0  0  0
   36.9400   27.5110   33.7320 C   0  0  0  0  0  0  0  0  0  0  0  0
   36.4950   27.3060   32.4130 C   0  0  0  0  0  0  0  0  0  0  0  0
   35.5160   28.1830   31.9760 C   0  0  0  0  0  0  0  0  0  0  0  0
   35.0470   29.1540   32.7900 N   0  0  0  0  0  0  0  0  0  0  0  0
   35.4950   29.3250   34.0540 C   0  0  0  0  0  0  0  0  0  0  0  0
   36.4610   28.4840   34.5290 N   0  0  0  0  0  0  0  0  0  0  0  0
   36.9490   26.4950   31.8600 H   0  0  0  0  0  0  0  0  0  0  0  0
   35.1650   28.0360   30.9670 H   0  0  0  0  0  0  0  0  0  0  0  0
   35.0770   30.1230   34.6510 H   0  0  0  0  0  0  0  0  0  0  0  0
   38.2050   24.7170   35.9740 C   0  0  0  0  0  3  0  0  0  0  0  0
   39.6920   24.6190   35.7030 C   0  0  0  0  0  2  0  0  0  0  0  0
   40.0100   23.2710   36.3540 C   0  0  0  0  0  2  0  0  0  0  0  0
   38.9860   23.1100   37.4630 C   0  0  0  0  0  2  0  0  0  0  0  0
   38.1060   24.3440   37.4280 C   0  0  0  0  0  2  0  0  0  0  0  0
  1  4  1  6  0  0  0
  1  2  1  0  0  0  0
  1  3  1  0  0  0  0
  2  5  1  0  0  0  0
  2  3  1  0  0  0  0
  2  6  1  0  0  0  0
  3 17  1  0  0  0  0
  3  7  1  1  0  0  0
  8  1  1  0  0  0  0
  8 13  1  0  0  0  0
  9  8  2  0  0  0  0
 10  9  1  0  0  0  0
 10 11  2  0  0  0  0
 11 12  1  0  0  0  0
 12 13  2  0  0  0  0
 12 16  1  0  0  0  0
 14  9  1  0  0  0  0
 15 10  1  0  0  0  0
 17 21  1  0  0  0  0
 18 17  1  0  0  0  0
 18 19  1  0  0  0  0
 19 20  1  0  0  0  0
 21 20  1  0  0  0  0
M  END
>  <minimizedAffinity>
-4.2159934

$$$$

 OpenBabel03272500403D

 21 23  0  0  1  0  0  0  0  0999 V2000
   35.6030   29.6180   33.2310 C   0  0  1  0  0  0  0  0  0  0  0  0
   34.2450   29.9280   32.7950 C   0  0  0  0  0  0  0  0  0  0  0  0
   34.5070   29.7640   34.2710 C   0  0  2  0  0  0  0  0  0  0  0  0
   36.3570   30.4370   33.2580 H   0  0  0  0  0  0  0  0  0  0  0  0
   34.0010   30.9130   32.3610 H   0  0  0  0  0  0  0  0  0  0  0  0
   33.6480   29.1220   32.2740 H   0  0  0  0  0  0  0  0  0  0  0  0
   34.1110   28.8420   34.7560 H   0  0  0  0  0  0  0  0  0  0  0  0
   36.1460   28.2120   33.1320 C   0  0  0  0  0  0  0  0  0  0  0  0
   36.9410   27.7440   34.1930 C   0  0  0  0  0  0  0  0  0  0  0  0
   37.4350   26.4600   34.0420 C   0  0  0  0  0  0  0  0  0  0  0  0
   37.1520   25.7370   32.9370 N   0  0  0  0  0  0  0  0  0  0  0  0
   36.3830   26.2150   31.9320 C   0  0  0  0  0  0  0  0  0  0  0  0
   35.8730   27.4770   32.0360 N   0  0  0  0  0  0  0  0  0  0  0  0
   37.0970   28.4180   35.0260 H   0  0  0  0  0  0  0  0  0  0  0  0
   38.0460   26.0890   34.8500 H   0  0  0  0  0  0  0  0  0  0  0  0
   36.1970   25.5840   31.0750 H   0  0  0  0  0  0  0  0  0  0  0  0
   34.4640   31.0430   35.0260 C   0  0  0  0  0  3  0  0  0  0  0  0
   33.3000   30.9800   35.9930 C   0  0  0  0  0  2  0  0  0  0  0  0
   33.5940   32.2020   36.8670 C   0  0  0  0  0  2  0  0  0  0  0  0
   35.1010   32.3740   36.8240 C   0  0  0  0  0  2  0  0  0  0  0  0
   35.6410   31.2720   35.9350 C   0  0  0  0  0  2  0  0  0  0  0  0
  1  4  1  6  0  0  0
  1  3  1  0  0  0  0
  2  1  1  0  0  0  0
  2  3  1  0  0  0  0
  3  7  1  1  0  0  0
  3 17  1  0  0  0  0
  5  2  1  0  0  0  0
  6  2  1  0  0  0  0
  8  1  1  0  0  0  0
  8  9  1  0  0  0  0
  9 14  1  0  0  0  0
 10  9  2  0  0  0  0
 10 15  1  0  0  0  0
 11 10  1  0  0  0  0
 12 13  1  0  0  0  0
 12 11  2  0  0  0  0
 13  8  2  0  0  0  0
 16 12  1  0  0  0  0
 17 21  1  0  0  0  0
 17 18  1  0  0  0  0
 18 19  1  0  0  0  0
 20 19  1  0  0  0  0
 21 20  1  0  0  0  0
M  END
>  <minimizedAffinity>
-4.13042402

$$$$

 OpenBabel03272500403D

 21 23  0  0  1  0  0  0  0  0999 V2000
   38.4570   26.1280   34.7800 C   0  0  1  0  0  0  0  0  0  0  0  0
   38.9570   27.1980   35.6370 C   0  0  0  0  0  0  0  0  0  0  0  0
   39.9410   26.4520   34.7710 C   0  0  2  0  0  0  0  0  0  0  0  0
   37.9350   26.3980   33.8350 H   0  0  0  0  0  0  0  0  0  0  0  0
   38.6980   28.2530   35.4340 H   0  0  0  0  0  0  0  0  0  0  0  0
   38.9980   27.0230   36.7530 H   0  0  0  0  0  0  0  0  0  0  0  0
   40.6390   25.7530   35.2860 H   0  0  0  0  0  0  0  0  0  0  0  0
   38.1510   24.7620   35.3480 C   0  0  0  0  0  0  0  0  0  0  0  0
   38.2210   23.6630   34.4730 C   0  0  0  0  0  0  0  0  0  0  0  0
   37.9050   22.4370   35.0350 C   0  0  0  0  0  0  0  0  0  0  0  0
   37.5590   22.3450   36.3380 N   0  0  0  0  0  0  0  0  0  0  0  0
   37.5010   23.4210   37.1540 C   0  0  0  0  0  0  0  0  0  0  0  0
   37.8040   24.6510   36.6440 N   0  0  0  0  0  0  0  0  0  0  0  0
   38.5100   23.8640   33.4500 H   0  0  0  0  0  0  0  0  0  0  0  0
   37.9560   21.5860   34.3750 H   0  0  0  0  0  0  0  0  0  0  0  0
   37.2150   23.2760   38.1860 H   0  0  0  0  0  0  0  0  0  0  0  0
   40.4450   27.2520   33.6250 C   0  0  0  0  0  3  0  0  0  0  0  0
   41.9590   27.2610   33.6880 C   0  0  0  0  0  2  0  0  0  0  0  0
   42.2950   27.8390   32.3110 C   0  0  0  0  0  2  0  0  0  0  0  0
   41.1410   27.4340   31.4130 C   0  0  0  0  0  2  0  0  0  0  0  0
   40.1720   26.6480   32.2740 C   0  0  0  0  0  2  0  0  0  0  0  0
  1  4  1  6  0  0  0
  1  8  1  0  0  0  0
  1  2  1  0  0  0  0
  2  6  1  0  0  0  0
  3  1  1  0  0  0  0
  3  7  1  1  0  0  0
  3  2  1  0  0  0  0
  5  2  1  0  0  0  0
  8 13  1  0  0  0  0
  9 10  1  0  0  0  0
  9  8  2  0  0  0  0
 10 11  2  0  0  0  0
 11 12  1  0  0  0  0
 12 16  1  0  0  0  0
 13 12  2  0  0  0  0
 14  9  1  0  0  0  0
 15 10  1  0  0  0  0
 17 18  1  0  0  0  0
 17  3  1  0  0  0  0
 19 18  1  0  0  0  0
 20 21  1  0  0  0  0
 20 19  1  0  0  0  0
 21 17  1  0  0  0  0
M  END
>  <minimizedAffinity>
-4.08499575

$$$$

 OpenBabel03272500403D

 21 23  0  0  1  0  0  0  0  0999 V2000
   36.6190   24.2230   30.8200 C   0  0  1  0  0  0  0  0  0  0  0  0
   37.7870   23.3470   30.8120 C   0  0  0  0  0  0  0  0  0  0  0  0
   36.6690   23.0450   31.7780 C   0  0  2  0  0  0  0  0  0  0  0  0
   35.8590   24.1110   30.0140 H   0  0  0  0  0  0  0  0  0  0  0  0
   37.9940   22.6890   29.9500 H   0  0  0  0  0  0  0  0  0  0  0  0
   38.7580   23.7390   31.2360 H   0  0  0  0  0  0  0  0  0  0  0  0
   36.8630   23.2480   32.8560 H   0  0  0  0  0  0  0  0  0  0  0  0
   36.6600   25.5600   31.5200 C   0  0  0  0  0  0  0  0  0  0  0  0
   35.5970   26.4510   31.2840 C   0  0  0  0  0  0  0  0  0  0  0  0
   35.6950   27.6740   31.9270 C   0  0  0  0  0  0  0  0  0  0  0  0
   36.7540   27.9540   32.7180 N   0  0  0  0  0  0  0  0  0  0  0  0
   37.7600   27.0750   32.9260 C   0  0  0  0  0  0  0  0  0  0  0  0
   37.7080   25.8560   32.3120 N   0  0  0  0  0  0  0  0  0  0  0  0
   34.8050   26.1120   30.6290 H   0  0  0  0  0  0  0  0  0  0  0  0
   34.8860   28.3650   31.7550 H   0  0  0  0  0  0  0  0  0  0  0  0
   38.5780   27.3640   33.5710 H   0  0  0  0  0  0  0  0  0  0  0  0
   35.8740   21.8450   31.4080 C   0  0  0  0  0  3  0  0  0  0  0  0
   36.8380   20.7070   31.1410 C   0  0  0  0  0  2  0  0  0  0  0  0
   35.8690   19.5240   31.0870 C   0  0  0  0  0  2  0  0  0  0  0  0
   34.7040   19.9170   31.9760 C   0  0  0  0  0  2  0  0  0  0  0  0
   35.0130   21.3010   32.5140 C   0  0  0  0  0  2  0  0  0  0  0  0
  1  4  1  6  0  0  0
  1  8  1  0  0  0  0
  1  3  1  0  0  0  0
  2  1  1  0  0  0  0
  2  6  1  0  0  0  0
  2  3  1  0  0  0  0
  3  7  1  1  0  0  0
  5  2  1  0  0  0  0
  8 13  1  0  0  0  0
  9  8  2  0  0  0  0
  9 10  1  0  0  0  0
 10 11  2  0  0  0  0
 11 12  1  0  0  0  0
 12 16  1  0  0  0  0
 13 12  2  0  0  0  0
 14  9  1  0  0  0  0
 15 10  1  0  0  0  0
 17  3  1  0  0  0  0
 17 21  1  0  0  0  0
 18 17  1  0  0  0  0
 19 18  1  0  0  0  0
 19 20  1  0  0  0  0
 20 21  1  0  0  0  0
M  END
>  <minimizedAffinity>
-4.06125832

$$$$

 OpenBabel03272500403D

 21 23  0  0  1  0  0  0  0  0999 V2000
   37.8900   25.7850   35.7260 C   0  0  1  0  0  0  0  0  0  0  0  0
   38.4940   27.1030   35.8920 C   0  0  0  0  0  0  0  0  0  0  0  0
   38.0380   26.6890   34.5150 C   0  0  2  0  0  0  0  0  0  0  0  0
   36.8350   25.6350   36.0460 H   0  0  0  0  0  0  0  0  0  0  0  0
   37.9730   27.8980   36.4540 H   0  0  0  0  0  0  0  0  0  0  0  0
   39.6070   27.1680   36.0810 H   0  0  0  0  0  0  0  0  0  0  0  0
   38.8310   26.4500   33.7700 H   0  0  0  0  0  0  0  0  0  0  0  0
   38.7490   24.5450   35.6510 C   0  0  0  0  0  0  0  0  0  0  0  0
   38.1160   23.3020   35.8290 C   0  0  0  0  0  0  0  0  0  0  0  0
   38.9510   22.1980   35.7780 C   0  0  0  0  0  0  0  0  0  0  0  0
   40.2770   22.3460   35.5700 N   0  0  0  0  0  0  0  0  0  0  0  0
   40.8570   23.5560   35.4020 C   0  0  0  0  0  0  0  0  0  0  0  0
   40.0740   24.6740   35.4440 N   0  0  0  0  0  0  0  0  0  0  0  0
   37.0460   23.3130   35.9900 H   0  0  0  0  0  0  0  0  0  0  0  0
   38.4760   21.2390   35.9130 H   0  0  0  0  0  0  0  0  0  0  0  0
   41.9250   23.6030   35.2400 H   0  0  0  0  0  0  0  0  0  0  0  0
   36.8170   27.4000   34.0560 C   0  0  0  0  0  3  0  0  0  0  0  0
   36.7040   28.6930   34.8390 C   0  0  0  0  0  2  0  0  0  0  0  0
   35.6110   29.4100   34.0430 C   0  0  0  0  0  2  0  0  0  0  0  0
   35.7340   28.8800   32.6260 C   0  0  0  0  0  2  0  0  0  0  0  0
   36.8710   27.8780   32.6310 C   0  0  0  0  0  2  0  0  0  0  0  0
  1  2  1  0  0  0  0
  1  4  1  1  0  0  0
  2  6  1  0  0  0  0
  2  5  1  0  0  0  0
  3  7  1  6  0  0  0
  3  1  1  0  0  0  0
  3  2  1  0  0  0  0
  8  1  1  0  0  0  0
  8  9  1  0  0  0  0
  9 14  1  0  0  0  0
 10  9  2  0  0  0  0
 10 15  1  0  0  0  0
 11 10  1  0  0  0  0
 12 13  1  0  0  0  0
 12 11  2  0  0  0  0
 13  8  2  0  0  0  0
 16 12  1  0  0  0  0
 17  3  1  0  0  0  0
 17 18  1  0  0  0  0
 19 18  1  0  0  0  0
 20 21  1  0  0  0  0
 20 19  1  0  0  0  0
 21 17  1  0  0  0  0
M  END
>  <minimizedAffinity>
-4.01661015

$$$$

 OpenBabel03272500403D

 21 23  0  0  1  0  0  0  0  0999 V2000
   38.3260   23.9070   36.1340 C   0  0  1  0  0  0  0  0  0  0  0  0
   38.1560   24.9900   37.0980 C   0  0  0  0  0  0  0  0  0  0  0  0
   38.6390   25.3310   35.7100 C   0  0  2  0  0  0  0  0  0  0  0  0
   37.4240   23.4820   35.6410 H   0  0  0  0  0  0  0  0  0  0  0  0
   37.1500   25.2860   37.4450 H   0  0  0  0  0  0  0  0  0  0  0  0
   38.8950   25.0770   37.9490 H   0  0  0  0  0  0  0  0  0  0  0  0
   39.7080   25.6300   35.6060 H   0  0  0  0  0  0  0  0  0  0  0  0
   39.5470   23.0180   36.1770 C   0  0  0  0  0  0  0  0  0  0  0  0
   40.0230   22.6280   37.4420 C   0  0  0  0  0  0  0  0  0  0  0  0
   41.1590   21.8350   37.4280 C   0  0  0  0  0  0  0  0  0  0  0  0
   41.7400   21.4840   36.2610 N   0  0  0  0  0  0  0  0  0  0  0  0
   41.2580   21.8750   35.0600 C   0  0  0  0  0  0  0  0  0  0  0  0
   40.1390   22.6570   35.0230 N   0  0  0  0  0  0  0  0  0  0  0  0
   39.4710   22.9740   38.3050 H   0  0  0  0  0  0  0  0  0  0  0  0
   41.5340   21.5290   38.3910 H   0  0  0  0  0  0  0  0  0  0  0  0
   41.7730   21.5580   34.1640 H   0  0  0  0  0  0  0  0  0  0  0  0
   37.6190   26.0240   34.8820 C   0  0  0  0  0  3  0  0  0  0  0  0
   37.5310   27.4630   35.3490 C   0  0  0  0  0  2  0  0  0  0  0  0
   36.6970   28.0750   34.2210 C   0  0  0  0  0  2  0  0  0  0  0  0
   37.0020   27.2350   32.9950 C   0  0  0  0  0  2  0  0  0  0  0  0
   37.9850   26.1670   33.4300 C   0  0  0  0  0  2  0  0  0  0  0  0
  1  4  1  6  0  0  0
  1  8  1  0  0  0  0
  1  2  1  0  0  0  0
  2  5  1  0  0  0  0
  2  6  1  0  0  0  0
  3  7  1  6  0  0  0
  3  1  1  0  0  0  0
  3  2  1  0  0  0  0
  8  9  1  0  0  0  0
  9 14  1  0  0  0  0
 10  9  2  0  0  0  0
 10 15  1  0  0  0  0
 11 10  1  0  0  0  0
 12 11  2  0  0  0  0
 13 12  1  0  0  0  0
 13  8  2  0  0  0  0
 16 12  1  0  0  0  0
 17 18  1  0  0  0  0
 17  3  1  0  0  0  0
 19 18  1  0  0  0  0
 20 21  1  0  0  0  0
 20 19  1  0  0  0  0
 21 17  1  0  0  0  0
M  END
>  <minimizedAffinity>
-4.00849724

$$$$
