
     RDKit          3D

 41 44  0  0  0  0  0  0  0  0999 V2000
   35.8221   29.1380   49.8037 C   0  0  0  0  0  0  0  0  0  0  0  0
   34.8036   29.6592   50.5694 C   0  0  0  0  0  0  0  0  0  0  0  0
   33.6029   29.1216   50.0880 C   0  0  0  0  0  0  0  0  0  0  0  0
   33.9709   28.2976   49.0485 C   0  0  0  0  0  0  0  0  0  0  0  0
   35.2790   28.3377   48.9165 O   0  0  0  0  0  0  0  0  0  0  0  0
   37.2192   29.4824   50.0267 C   0  0  0  0  0  0  0  0  0  0  0  0
   37.8613   28.8713   50.8884 O   0  0  0  0  0  0  0  0  0  0  0  0
   37.7673   30.5304   49.2134 C   0  0  0  0  0  0  0  0  0  0  0  0
   38.1126   31.7104   49.8519 C   0  0  0  0  0  0  0  0  0  0  0  0
   38.6471   32.7515   49.0882 C   0  0  0  0  0  0  0  0  0  0  0  0
   38.8036   32.5508   47.7357 N   0  0  0  0  0  0  0  0  0  0  0  0
   38.4583   31.3963   47.1542 C   0  0  0  0  0  0  0  0  0  0  0  0
   37.9452   30.3925   47.8787 N   0  0  0  0  0  0  0  0  0  0  0  0
   33.0627   27.5018   48.2231 C   0  0  0  0  0  0  0  0  0  0  0  0
   31.8391   27.4210   48.5724 O   0  0  0  0  0  0  0  0  0  0  0  0
   33.5745   26.7965   47.0002 C   0  0  1  0  0  0  0  0  0  0  0  0
   33.7810   25.2686   47.3101 C   0  0  0  0  0  0  0  0  0  0  0  0
   32.7725   25.7646   46.3408 C   0  0  2  0  0  0  0  0  0  0  0  0
   34.8823   30.3645   51.4060 H   0  0  0  0  0  0  0  0  0  0  0  0
   32.5979   29.3089   50.4501 H   0  0  0  0  0  0  0  0  0  0  0  0
   38.0004   31.8993   50.9217 H   0  0  0  0  0  0  0  0  0  0  0  0
   38.9228   33.6767   49.5602 H   0  0  0  0  0  0  0  0  0  0  0  0
   38.5932   31.2653   46.0821 H   0  0  0  0  0  0  0  0  0  0  0  0
   34.5658   27.1792   46.6770 H   0  0  0  0  0  0  0  0  0  0  0  0
   33.3769   24.8902   48.2597 H   0  0  0  0  0  0  0  0  0  0  0  0
   34.6994   24.7907   46.9891 H   0  0  0  0  0  0  0  0  0  0  0  0
   31.7090   25.6925   46.6019 H   0  0  0  0  0  0  0  0  0  0  0  0
   33.0506   25.6079   44.8449 C   0  0  0  0  0  0  0  0  0  0  0  0
   32.8123   24.1848   44.3915 C   0  0  0  0  0  0  0  0  0  0  0  0
   33.6364   24.1833   43.0969 C   0  0  0  0  0  0  0  0  0  0  0  0
   34.9704   24.6796   43.6697 C   0  0  0  0  0  0  0  0  0  0  0  0
   34.5192   25.8203   44.5590 C   0  0  0  0  0  0  0  0  0  0  0  0
   32.4471   26.2687   44.2234 H   0  0  0  0  0  0  0  0  0  0  0  0
   31.7680   23.9393   44.2105 H   0  0  0  0  0  0  0  0  0  0  0  0
   33.3563   23.4517   45.0421 H   0  0  0  0  0  0  0  0  0  0  0  0
   33.7100   23.1821   42.6581 H   0  0  0  0  0  0  0  0  0  0  0  0
   33.2550   24.9237   42.3725 H   0  0  0  0  0  0  0  0  0  0  0  0
   35.6850   24.9597   42.8964 H   0  0  0  0  0  0  0  0  0  0  0  0
   35.3067   23.8443   44.3297 H   0  0  0  0  0  0  0  0  0  0  0  0
   35.0601   25.8128   45.5144 H   0  0  0  0  0  0  0  0  0  0  0  0
   34.6883   26.7641   44.0032 H   0  0  0  0  0  0  0  0  0  0  0  0
  1  6  1  0
  1  2  2  0
  3  2  1  0
  4  3  2  0
  5  4  1  0
  5  1  1  0
  6  7  2  0
  8  9  2  0
  8  6  1  0
 10  9  1  0
 11 10  2  0
 12 11  1  0
 12 13  2  0
 13  8  1  0
 14 15  2  0
 14  4  1  0
 16 17  1  0
 16 14  1  0
 18 16  1  0
 18 17  1  0
  2 19  1  0
  3 20  1  0
  9 21  1  0
 10 22  1  0
 12 23  1  0
 16 24  1  6
 17 25  1  0
 17 26  1  0
 18 27  1  1
 28 29  1  0
 29 30  1  0
 30 31  1  0
 31 32  1  0
 32 28  1  0
 28 33  1  0
 29 34  1  0
 29 35  1  0
 30 36  1  0
 30 37  1  0
 31 38  1  0
 31 39  1  0
 32 40  1  0
 32 41  1  0
 18 28  1  0
M  ISO  8  19  14  20  14  21  14  22  14  23  14  24  13  25  13  26  13
M  ISO  1  27  13
M  END
>  <DihAtoms>  (1) 
15,17,27,28

>  <DihDeg>  (1) 
-59.99849337091179

$$$$
