REMARK  Name = 
REMARK  2 active torsions:
REMARK  status: ('A' for Active; 'I' for Inactive)
REMARK    1  A    between atoms: C_5  and  C_7
REMARK    2  A    between atoms: C_12  and  C_20
REMARK                            x       y       z     vdW  Elec       q    Type
REMARK                         _______ _______ _______ _____ _____    ______ ____
ROOT
ATOM      1  C   UNL     1      36.082  30.131  48.596  0.00  0.00    +0.000 A 
ATOM      2  C   UNL     1      35.274  29.962  47.494  0.00  0.00    +0.000 A 
ATOM      3  C   UNL     1      34.295  28.978  47.513  0.00  0.00    +0.000 A 
ATOM      4  C   UNL     1      34.150  28.193  48.627  0.00  0.00    +0.000 A 
ATOM      5  C   UNL     1      34.962  28.359  49.741  0.00  0.00    +0.000 A 
ATOM      6  C   UNL     1      35.959  29.343  49.752  0.00  0.00    +0.000 A 
ATOM      7  H   UNL     1      35.375  30.574  46.606  0.00  0.00    +0.000 HD
ATOM      8  H   UNL     1      33.653  28.828  46.666  0.00  0.00    +0.000 HD
ATOM      9  H   UNL     1      33.364  27.428  48.598  0.00  0.00    +0.000 HD
ATOM     10  H   UNL     1      34.779  27.698  50.572  0.00  0.00    +0.000 HD
ENDROOT
BRANCH   1  15
ATOM     11  C   UNL     1      38.006  33.106  49.486  0.00  0.00    +0.000 A 
ATOM     12  C   UNL     1      38.969  33.212  48.487  0.00  0.00    +0.000 A 
ATOM     13  C   UNL     1      38.953  32.218  47.465  0.00  0.00    +0.000 A 
ATOM     14  N   UNL     1      38.016  31.238  47.522  0.00  0.00    +0.000 NA
ATOM     15  C   UNL     1      37.096  31.177  48.518  0.00  0.00    +0.000 A 
ATOM     16  N   UNL     1      37.122  32.118  49.471  0.00  0.00    +0.000 NA
ATOM     17  H   UNL     1      38.066  33.885  50.231  0.00  0.00    +0.000 HD
ATOM     18  H   UNL     1      39.751  33.951  48.360  0.00  0.00    +0.000 HD
ATOM     19  H   UNL     1      39.629  32.168  46.635  0.00  0.00    +0.000 HD
ENDBRANCH   1  15
BRANCH   6  20
ATOM     20  C   UNL     1      36.814  29.518  50.930  0.00  0.00    +0.000 C 
ATOM     21  C   UNL     1      36.860  28.362  51.870  0.00  0.00    +0.000 C 
ATOM     22  C   UNL     1      38.331  28.118  52.221  0.00  0.00    +0.000 C 
ATOM     23  C   UNL     1      39.016  28.515  50.938  0.00  0.00    +0.000 C 
ATOM     24  C   UNL     1      38.261  29.737  50.519  0.00  0.00    +0.000 C 
ENDBRANCH   6  20
TORSDOF 2
