
 OpenBabel03272506323D

 36 38  0  0  1  0  0  0  0  0999 V2000
   38.1380   26.4800   35.3480 C   0  0  1  0  0  0  0  0  0  0  0  0
   39.4000   27.0350   34.9050 C   0  0  0  0  0  0  0  0  0  0  0  0
   39.6440   27.0710   33.4080 C   0  0  0  0  0  0  0  0  0  0  0  0
   38.4540   27.3930   32.5750 C   0  0  0  0  0  0  0  0  0  0  0  0
   37.1430   26.8720   33.0220 C   0  0  0  0  0  0  0  0  0  0  0  0
   36.9760   26.9420   34.5030 C   0  0  2  0  0  0  0  0  0  0  0  0
   37.8840   26.9180   36.3640 H   0  0  0  0  0  0  0  0  0  0  0  0
   40.3160   26.6670   35.3560 H   0  0  0  0  0  0  0  0  0  0  0  0
   39.3730   28.1340   35.1770 H   0  0  0  0  0  0  0  0  0  0  0  0
   40.4200   27.8350   33.1860 H   0  0  0  0  0  0  0  0  0  0  0  0
   40.1000   26.1020   33.0920 H   0  0  0  0  0  0  0  0  0  0  0  0
   38.6500   26.9210   31.5680 H   0  0  0  0  0  0  0  0  0  0  0  0
   38.3940   28.4830   32.3780 H   0  0  0  0  0  0  0  0  0  0  0  0
   36.3520   27.5060   32.5840 H   0  0  0  0  0  0  0  0  0  0  0  0
   36.9290   25.8250   32.6890 H   0  0  0  0  0  0  0  0  0  0  0  0
   36.0330   26.4690   34.7560 H   0  0  0  0  0  0  0  0  0  0  0  0
   38.4270   24.0450   34.6170 C   0  0  0  0  0  0  0  0  0  0  0  0
   38.1030   25.0290   35.6000 C   0  0  0  0  0  0  0  0  0  0  0  0
   37.7430   24.5250   36.8340 C   0  0  0  0  0  0  0  0  0  0  0  0
   37.7130   23.1730   37.0560 N   0  0  0  0  0  0  0  0  0  0  0  0
   38.0280   22.3040   36.0880 C   0  0  0  0  0  0  0  0  0  0  0  0
   38.3890   22.7460   34.8570 N   0  0  0  0  0  0  0  0  0  0  0  0
   38.7120   24.4100   33.6380 H   0  0  0  0  0  0  0  0  0  0  0  0
   37.4800   25.1590   37.6500 H   0  0  0  0  0  0  0  0  0  0  0  0
   38.0050   21.2370   36.2610 H   0  0  0  0  0  0  0  0  0  0  0  0
   36.8280   28.4330   34.8200 C   0  0  0  0  0  0  0  0  0  0  0  0
   36.7780   28.6130   35.9140 H   0  0  0  0  0  0  0  0  0  0  0  0
   37.6880   29.0060   34.4170 H   0  0  0  0  0  0  0  0  0  0  0  0
   35.5710   29.0190   34.2340 C   0  0  0  0  0  0  0  0  0  0  0  0
   35.5570   28.7800   33.1460 H   0  0  0  0  0  0  0  0  0  0  0  0
   34.7230   28.4730   34.7010 H   0  0  0  0  0  0  0  0  0  0  0  0
   35.3530   30.4630   34.3970 C   0  0  0  0  0  3  0  0  0  0  0  0
   36.1510   30.8900   35.6410 C   0  0  0  0  0  2  0  0  0  0  0  0
   35.2680   31.7850   36.4450 C   0  0  0  0  0  2  0  0  0  0  0  0
   34.1950   32.2100   35.4450 C   0  0  0  0  0  2  0  0  0  0  0  0
   33.9470   30.8510   34.7750 C   0  0  0  0  0  2  0  0  0  0  0  0
  1 18  1  0  0  0  0
  1  7  1  1  0  0  0
  2  9  1  0  0  0  0
  2  1  1  0  0  0  0
  2  8  1  0  0  0  0
  3  2  1  0  0  0  0
  4  5  1  0  0  0  0
  4  3  1  0  0  0  0
  5  6  1  0  0  0  0
  6 16  1  1  0  0  0
  6 26  1  0  0  0  0
  6  1  1  0  0  0  0
 10  3  1  0  0  0  0
 11  3  1  0  0  0  0
 12  4  1  0  0  0  0
 13  4  1  0  0  0  0
 14  5  1  0  0  0  0
 15  5  1  0  0  0  0
 17 22  2  0  0  0  0
 17 18  1  0  0  0  0
 18 19  2  0  0  0  0
 19 20  1  0  0  0  0
 19 24  1  0  0  0  0
 21 25  1  0  0  0  0
 21 20  2  0  0  0  0
 22 21  1  0  0  0  0
 23 17  1  0  0  0  0
 26 27  1  0  0  0  0
 28 26  1  0  0  0  0
 29 32  1  0  0  0  0
 29 31  1  0  0  0  0
 29 26  1  0  0  0  0
 30 29  1  0  0  0  0
 32 36  1  0  0  0  0
 32 33  1  0  0  0  0
 33 34  1  0  0  0  0
 35 34  1  0  0  0  0
 36 35  1  0  0  0  0
M  END
>  <minimizedAffinity>
-5.33939314

$$$$

 OpenBabel03272506323D

 36 38  0  0  1  0  0  0  0  0999 V2000
   37.4010   26.8600   33.5350 C   0  0  1  0  0  0  0  0  0  0  0  0
   38.6100   26.6530   32.7650 C   0  0  0  0  0  0  0  0  0  0  0  0
   39.9100   27.1180   33.3920 C   0  0  0  0  0  0  0  0  0  0  0  0
   40.0210   26.9080   34.8610 C   0  0  0  0  0  0  0  0  0  0  0  0
   38.7940   27.0760   35.6720 C   0  0  0  0  0  0  0  0  0  0  0  0
   37.5840   26.5260   34.9960 C   0  0  2  0  0  0  0  0  0  0  0  0
   36.6260   26.0970   33.2100 H   0  0  0  0  0  0  0  0  0  0  0  0
   38.6310   26.9860   31.7320 H   0  0  0  0  0  0  0  0  0  0  0  0
   38.7540   25.5320   32.7020 H   0  0  0  0  0  0  0  0  0  0  0  0
   40.7570   26.5780   32.9160 H   0  0  0  0  0  0  0  0  0  0  0  0
   40.0750   28.1910   33.1310 H   0  0  0  0  0  0  0  0  0  0  0  0
   40.7470   27.6930   35.2270 H   0  0  0  0  0  0  0  0  0  0  0  0
   40.5070   25.9360   35.0840 H   0  0  0  0  0  0  0  0  0  0  0  0
   38.9200   26.5050   36.6090 H   0  0  0  0  0  0  0  0  0  0  0  0
   38.5860   28.1340   35.9720 H   0  0  0  0  0  0  0  0  0  0  0  0
   36.7210   26.7600   35.6110 H   0  0  0  0  0  0  0  0  0  0  0  0
   35.9670   28.8090   34.3660 C   0  0  0  0  0  0  0  0  0  0  0  0
   36.7000   28.1410   33.3390 C   0  0  0  0  0  0  0  0  0  0  0  0
   36.7130   28.7840   32.1170 C   0  0  0  0  0  0  0  0  0  0  0  0
   36.0580   29.9750   31.9460 N   0  0  0  0  0  0  0  0  0  0  0  0
   35.3860   30.5480   32.9530 C   0  0  0  0  0  0  0  0  0  0  0  0
   35.3420   29.9580   34.1750 N   0  0  0  0  0  0  0  0  0  0  0  0
   35.9370   28.3290   35.3360 H   0  0  0  0  0  0  0  0  0  0  0  0
   37.2280   28.3860   31.2720 H   0  0  0  0  0  0  0  0  0  0  0  0
   34.8680   31.4870   32.8200 H   0  0  0  0  0  0  0  0  0  0  0  0
   37.7600   25.0050   35.0320 C   0  0  0  0  0  0  0  0  0  0  0  0
   36.9080   24.4850   34.5460 H   0  0  0  0  0  0  0  0  0  0  0  0
   38.6890   24.7070   34.5050 H   0  0  0  0  0  0  0  0  0  0  0  0
   37.8380   24.4730   36.4380 C   0  0  0  0  0  0  0  0  0  0  0  0
   38.3690   25.2290   37.0610 H   0  0  0  0  0  0  0  0  0  0  0  0
   36.7920   24.4170   36.8100 H   0  0  0  0  0  0  0  0  0  0  0  0
   38.4840   23.1680   36.6370 C   0  0  0  0  0  3  0  0  0  0  0  0
   39.1940   23.2330   38.0000 C   0  0  0  0  0  2  0  0  0  0  0  0
   40.5510   22.6390   37.8180 C   0  0  0  0  0  2  0  0  0  0  0  0
   40.4170   21.8500   36.5170 C   0  0  0  0  0  2  0  0  0  0  0  0
   39.6260   22.8790   35.6980 C   0  0  0  0  0  2  0  0  0  0  0  0
  1  7  1  6  0  0  0
  1  6  1  0  0  0  0
  2  3  1  0  0  0  0
  2  1  1  0  0  0  0
  3  4  1  0  0  0  0
  4 13  1  0  0  0  0
  4 12  1  0  0  0  0
  4  5  1  0  0  0  0
  5 15  1  0  0  0  0
  5 14  1  0  0  0  0
  6 26  1  0  0  0  0
  6 16  1  1  0  0  0
  6  5  1  0  0  0  0
  8  2  1  0  0  0  0
  9  2  1  0  0  0  0
 10  3  1  0  0  0  0
 11  3  1  0  0  0  0
 17 23  1  0  0  0  0
 18  1  1  0  0  0  0
 18 17  2  0  0  0  0
 19 18  1  0  0  0  0
 20 19  2  0  0  0  0
 20 21  1  0  0  0  0
 21 22  2  0  0  0  0
 22 17  1  0  0  0  0
 24 19  1  0  0  0  0
 25 21  1  0  0  0  0
 26 29  1  0  0  0  0
 27 26  1  0  0  0  0
 28 26  1  0  0  0  0
 29 32  1  0  0  0  0
 29 31  1  0  0  0  0
 29 30  1  0  0  0  0
 32 33  1  0  0  0  0
 34 33  1  0  0  0  0
 35 34  1  0  0  0  0
 36 35  1  0  0  0  0
 36 32  1  0  0  0  0
M  END
>  <minimizedAffinity>
-5.23355675

$$$$

 OpenBabel03272506323D

 36 38  0  0  1  0  0  0  0  0999 V2000
   38.5030   23.4310   35.6670 C   0  0  1  0  0  0  0  0  0  0  0  0
   38.4920   23.7850   37.0710 C   0  0  0  0  0  0  0  0  0  0  0  0
   39.3870   22.9750   37.9890 C   0  0  0  0  0  0  0  0  0  0  0  0
   40.7050   22.5880   37.4170 C   0  0  0  0  0  0  0  0  0  0  0  0
   40.7570   22.2570   35.9760 C   0  0  0  0  0  0  0  0  0  0  0  0
   39.8940   23.1540   35.1530 C   0  0  2  0  0  0  0  0  0  0  0  0
   38.2000   24.3400   35.0590 H   0  0  0  0  0  0  0  0  0  0  0  0
   37.5360   23.8760   37.5770 H   0  0  0  0  0  0  0  0  0  0  0  0
   38.9450   24.8210   37.1380 H   0  0  0  0  0  0  0  0  0  0  0  0
   39.5860   23.5600   38.9130 H   0  0  0  0  0  0  0  0  0  0  0  0
   38.8260   22.0740   38.3390 H   0  0  0  0  0  0  0  0  0  0  0  0
   41.0120   21.6490   37.9650 H   0  0  0  0  0  0  0  0  0  0  0  0
   41.4810   23.3390   37.6730 H   0  0  0  0  0  0  0  0  0  0  0  0
   41.7930   22.4050   35.6250 H   0  0  0  0  0  0  0  0  0  0  0  0
   40.4920   21.1940   35.7420 H   0  0  0  0  0  0  0  0  0  0  0  0
   39.9220   22.7960   34.1290 H   0  0  0  0  0  0  0  0  0  0  0  0
   36.6370   21.7400   36.1190 C   0  0  0  0  0  0  0  0  0  0  0  0
   37.5340   22.4090   35.2330 C   0  0  0  0  0  0  0  0  0  0  0  0
   37.4370   22.0320   33.9090 C   0  0  0  0  0  0  0  0  0  0  0  0
   36.5330   21.0810   33.5160 N   0  0  0  0  0  0  0  0  0  0  0  0
   35.7200   20.4890   34.4010 C   0  0  0  0  0  0  0  0  0  0  0  0
   35.7730   20.8240   35.7150 N   0  0  0  0  0  0  0  0  0  0  0  0
   36.6890   22.0140   37.1650 H   0  0  0  0  0  0  0  0  0  0  0  0
   38.0530   22.4610   33.1500 H   0  0  0  0  0  0  0  0  0  0  0  0
   35.0060   19.7380   34.0940 H   0  0  0  0  0  0  0  0  0  0  0  0
   40.5980   24.5140   35.1720 C   0  0  0  0  0  0  0  0  0  0  0  0
   40.1990   25.1670   35.9760 H   0  0  0  0  0  0  0  0  0  0  0  0
   41.6870   24.3880   35.3420 H   0  0  0  0  0  0  0  0  0  0  0  0
   40.4180   25.2670   33.8810 C   0  0  0  0  0  0  0  0  0  0  0  0
   41.4290   25.5450   33.5030 H   0  0  0  0  0  0  0  0  0  0  0  0
   39.9820   24.5470   33.1560 H   0  0  0  0  0  0  0  0  0  0  0  0
   39.5830   26.4760   33.9100 C   0  0  0  0  0  3  0  0  0  0  0  0
   39.5330   26.9400   35.3760 C   0  0  0  0  0  2  0  0  0  0  0  0
   38.1140   27.2900   35.6780 C   0  0  0  0  0  2  0  0  0  0  0  0
   37.4910   27.4590   34.2940 C   0  0  0  0  0  2  0  0  0  0  0  0
   38.1270   26.2460   33.6010 C   0  0  0  0  0  2  0  0  0  0  0  0
  1  7  1  6  0  0  0
  1  2  1  0  0  0  0
  2  9  1  0  0  0  0
  2  8  1  0  0  0  0
  2  3  1  0  0  0  0
  3 11  1  0  0  0  0
  3 10  1  0  0  0  0
  4 13  1  0  0  0  0
  4 12  1  0  0  0  0
  4  3  1  0  0  0  0
  5  4  1  0  0  0  0
  6 16  1  6  0  0  0
  6 26  1  0  0  0  0
  6  1  1  0  0  0  0
  6  5  1  0  0  0  0
 14  5  1  0  0  0  0
 15  5  1  0  0  0  0
 17 23  1  0  0  0  0
 18  1  1  0  0  0  0
 18 17  2  0  0  0  0
 19 18  1  0  0  0  0
 20 19  2  0  0  0  0
 20 21  1  0  0  0  0
 21 22  2  0  0  0  0
 22 17  1  0  0  0  0
 24 19  1  0  0  0  0
 25 21  1  0  0  0  0
 26 28  1  0  0  0  0
 26 27  1  0  0  0  0
 29 32  1  0  0  0  0
 29 26  1  0  0  0  0
 30 29  1  0  0  0  0
 31 29  1  0  0  0  0
 32 33  1  0  0  0  0
 33 34  1  0  0  0  0
 35 34  1  0  0  0  0
 36 32  1  0  0  0  0
 36 35  1  0  0  0  0
M  END
>  <minimizedAffinity>
-4.99210167

$$$$

 OpenBabel03272506323D

 36 38  0  0  1  0  0  0  0  0999 V2000
   39.6870   23.3090   35.3410 C   0  0  1  0  0  0  0  0  0  0  0  0
   40.3630   22.5530   36.3760 C   0  0  0  0  0  0  0  0  0  0  0  0
   40.0140   22.8940   37.8120 C   0  0  0  0  0  0  0  0  0  0  0  0
   38.5830   23.2180   38.0610 C   0  0  0  0  0  0  0  0  0  0  0  0
   37.8540   23.9570   37.0060 C   0  0  0  0  0  0  0  0  0  0  0  0
   38.2190   23.5010   35.6340 C   0  0  2  0  0  0  0  0  0  0  0  0
   39.6630   22.6860   34.3920 H   0  0  0  0  0  0  0  0  0  0  0  0
   41.4440   22.4690   36.3350 H   0  0  0  0  0  0  0  0  0  0  0  0
   39.9940   21.4870   36.2790 H   0  0  0  0  0  0  0  0  0  0  0  0
   40.2760   22.0330   38.4640 H   0  0  0  0  0  0  0  0  0  0  0  0
   40.6760   23.7240   38.1580 H   0  0  0  0  0  0  0  0  0  0  0  0
   38.5760   23.8860   38.9720 H   0  0  0  0  0  0  0  0  0  0  0  0
   38.0200   22.3110   38.3620 H   0  0  0  0  0  0  0  0  0  0  0  0
   36.7750   23.7580   37.1290 H   0  0  0  0  0  0  0  0  0  0  0  0
   37.9780   25.0690   37.0570 H   0  0  0  0  0  0  0  0  0  0  0  0
   37.7100   24.1420   34.9220 H   0  0  0  0  0  0  0  0  0  0  0  0
   41.7390   24.7990   35.0030 C   0  0  0  0  0  0  0  0  0  0  0  0
   40.3370   24.5550   34.8980 C   0  0  0  0  0  0  0  0  0  0  0  0
   39.6040   25.5850   34.3440 C   0  0  0  0  0  0  0  0  0  0  0  0
   40.2180   26.7400   33.9360 N   0  0  0  0  0  0  0  0  0  0  0  0
   41.5400   26.9050   34.0640 C   0  0  0  0  0  0  0  0  0  0  0  0
   42.3080   25.9230   34.6020 N   0  0  0  0  0  0  0  0  0  0  0  0
   42.3410   24.0090   35.4350 H   0  0  0  0  0  0  0  0  0  0  0  0
   38.5470   25.5230   34.2120 H   0  0  0  0  0  0  0  0  0  0  0  0
   42.0270   27.8160   33.7430 H   0  0  0  0  0  0  0  0  0  0  0  0
   37.6050   22.1050   35.4980 C   0  0  0  0  0  0  0  0  0  0  0  0
   38.1260   21.3670   36.1450 H   0  0  0  0  0  0  0  0  0  0  0  0
   36.5350   22.1190   35.7890 H   0  0  0  0  0  0  0  0  0  0  0  0
   37.6940   21.5760   34.0920 C   0  0  0  0  0  0  0  0  0  0  0  0
   38.6010   22.0170   33.6170 H   0  0  0  0  0  0  0  0  0  0  0  0
   37.8670   20.4820   34.1780 H   0  0  0  0  0  0  0  0  0  0  0  0
   36.5450   21.8070   33.2050 C   0  0  0  0  0  3  0  0  0  0  0  0
   35.5540   20.6580   33.4620 C   0  0  0  0  0  2  0  0  0  0  0  0
   35.0790   20.1810   32.1300 C   0  0  0  0  0  2  0  0  0  0  0  0
   35.4370   21.3340   31.1950 C   0  0  0  0  0  2  0  0  0  0  0  0
   36.8390   21.6480   31.7360 C   0  0  0  0  0  2  0  0  0  0  0  0
  1  7  1  6  0  0  0
  1  6  1  0  0  0  0
  1  2  1  0  0  0  0
  2  3  1  0  0  0  0
  3  4  1  0  0  0  0
  3 11  1  0  0  0  0
  3 10  1  0  0  0  0
  4 13  1  0  0  0  0
  4 12  1  0  0  0  0
  5 15  1  0  0  0  0
  5 14  1  0  0  0  0
  5  4  1  0  0  0  0
  6 16  1  6  0  0  0
  6  5  1  0  0  0  0
  8  2  1  0  0  0  0
  9  2  1  0  0  0  0
 17 23  1  0  0  0  0
 18 17  1  0  0  0  0
 18  1  1  0  0  0  0
 19 18  2  0  0  0  0
 20 21  2  0  0  0  0
 20 19  1  0  0  0  0
 21 22  1  0  0  0  0
 22 17  2  0  0  0  0
 24 19  1  0  0  0  0
 25 21  1  0  0  0  0
 26  6  1  0  0  0  0
 26 28  1  0  0  0  0
 26 27  1  0  0  0  0
 29 31  1  0  0  0  0
 29 26  1  0  0  0  0
 30 29  1  0  0  0  0
 32 33  1  0  0  0  0
 32 29  1  0  0  0  0
 34 33  1  0  0  0  0
 35 36  1  0  0  0  0
 35 34  1  0  0  0  0
 36 32  1  0  0  0  0
M  END
>  <minimizedAffinity>
-4.87580395

$$$$

 OpenBabel03272506323D

 36 38  0  0  1  0  0  0  0  0999 V2000
   34.3030   30.0070   34.8030 C   0  0  1  0  0  0  0  0  0  0  0  0
   33.2440   29.6060   33.9010 C   0  0  0  0  0  0  0  0  0  0  0  0
   33.1910   30.3020   32.5540 C   0  0  0  0  0  0  0  0  0  0  0  0
   34.5120   30.5900   31.9320 C   0  0  0  0  0  0  0  0  0  0  0  0
   35.6250   30.9670   32.8310 C   0  0  0  0  0  0  0  0  0  0  0  0
   35.6270   30.1790   34.0980 C   0  0  2  0  0  0  0  0  0  0  0  0
   34.5210   29.1500   35.5150 H   0  0  0  0  0  0  0  0  0  0  0  0
   32.2250   29.5820   34.2740 H   0  0  0  0  0  0  0  0  0  0  0  0
   33.4640   28.5330   33.6150 H   0  0  0  0  0  0  0  0  0  0  0  0
   32.6210   29.6680   31.8400 H   0  0  0  0  0  0  0  0  0  0  0  0
   32.5850   31.2350   32.6520 H   0  0  0  0  0  0  0  0  0  0  0  0
   34.3420   31.4790   31.2550 H   0  0  0  0  0  0  0  0  0  0  0  0
   34.8170   29.7650   31.2560 H   0  0  0  0  0  0  0  0  0  0  0  0
   36.5750   30.7410   32.3170 H   0  0  0  0  0  0  0  0  0  0  0  0
   35.6560   32.0560   33.0890 H   0  0  0  0  0  0  0  0  0  0  0  0
   36.4160   30.5690   34.7330 H   0  0  0  0  0  0  0  0  0  0  0  0
   35.0120   31.8830   36.3920 C   0  0  0  0  0  0  0  0  0  0  0  0
   34.0090   31.1250   35.7170 C   0  0  0  0  0  0  0  0  0  0  0  0
   32.7090   31.5100   35.9800 C   0  0  0  0  0  0  0  0  0  0  0  0
   32.4470   32.5510   36.8320 N   0  0  0  0  0  0  0  0  0  0  0  0
   33.4370   33.2200   37.4350 C   0  0  0  0  0  0  0  0  0  0  0  0
   34.7320   32.8820   37.2110 N   0  0  0  0  0  0  0  0  0  0  0  0
   36.0420   31.6040   36.2070 H   0  0  0  0  0  0  0  0  0  0  0  0
   31.8720   31.0220   35.5350 H   0  0  0  0  0  0  0  0  0  0  0  0
   33.2320   34.0410   38.1080 H   0  0  0  0  0  0  0  0  0  0  0  0
   36.0410   28.7630   33.6880 C   0  0  0  0  0  0  0  0  0  0  0  0
   35.1590   28.1450   33.4150 H   0  0  0  0  0  0  0  0  0  0  0  0
   36.7230   28.7920   32.8140 H   0  0  0  0  0  0  0  0  0  0  0  0
   36.7460   28.0310   34.7980 C   0  0  0  0  0  0  0  0  0  0  0  0
   37.2900   28.7840   35.4130 H   0  0  0  0  0  0  0  0  0  0  0  0
   35.9510   27.5940   35.4410 H   0  0  0  0  0  0  0  0  0  0  0  0
   37.6890   26.9680   34.4210 C   0  0  0  0  0  3  0  0  0  0  0  0
   38.8560   27.0420   35.4220 C   0  0  0  0  0  2  0  0  0  0  0  0
   40.1180   26.9200   34.6350 C   0  0  0  0  0  2  0  0  0  0  0  0
   39.6490   26.3310   33.3070 C   0  0  0  0  0  2  0  0  0  0  0  0
   38.3880   27.1830   33.1040 C   0  0  0  0  0  2  0  0  0  0  0  0
  1  7  1  1  0  0  0
  1 18  1  0  0  0  0
  2  8  1  0  0  0  0
  2  1  1  0  0  0  0
  3 11  1  0  0  0  0
  3  2  1  0  0  0  0
  4  3  1  0  0  0  0
  4  5  1  0  0  0  0
  5 15  1  0  0  0  0
  5  6  1  0  0  0  0
  6 16  1  1  0  0  0
  6  1  1  0  0  0  0
  9  2  1  0  0  0  0
 10  3  1  0  0  0  0
 12  4  1  0  0  0  0
 13  4  1  0  0  0  0
 14  5  1  0  0  0  0
 17 22  1  0  0  0  0
 18 19  1  0  0  0  0
 18 17  2  0  0  0  0
 19 20  2  0  0  0  0
 20 21  1  0  0  0  0
 21 25  1  0  0  0  0
 22 21  2  0  0  0  0
 23 17  1  0  0  0  0
 24 19  1  0  0  0  0
 26  6  1  0  0  0  0
 26 29  1  0  0  0  0
 27 26  1  0  0  0  0
 28 26  1  0  0  0  0
 29 30  1  0  0  0  0
 29 31  1  0  0  0  0
 32 29  1  0  0  0  0
 32 33  1  0  0  0  0
 34 33  1  0  0  0  0
 35 34  1  0  0  0  0
 36 35  1  0  0  0  0
 36 32  1  0  0  0  0
M  END
>  <minimizedAffinity>
-4.82435369

$$$$

 OpenBabel03272506323D

 36 38  0  0  1  0  0  0  0  0999 V2000
   37.0570   26.9600   32.4850 C   0  0  1  0  0  0  0  0  0  0  0  0
   38.4620   27.3110   32.4620 C   0  0  0  0  0  0  0  0  0  0  0  0
   39.0400   27.7330   31.1240 C   0  0  0  0  0  0  0  0  0  0  0  0
   38.1400   28.5560   30.2710 C   0  0  0  0  0  0  0  0  0  0  0  0
   36.6940   28.2460   30.3020 C   0  0  0  0  0  0  0  0  0  0  0  0
   36.2120   27.9090   31.6730 C   0  0  2  0  0  0  0  0  0  0  0  0
   36.6590   27.1220   33.5360 H   0  0  0  0  0  0  0  0  0  0  0  0
   39.1770   26.6220   32.9010 H   0  0  0  0  0  0  0  0  0  0  0  0
   38.5610   28.2530   33.0810 H   0  0  0  0  0  0  0  0  0  0  0  0
   39.9650   28.3250   31.2980 H   0  0  0  0  0  0  0  0  0  0  0  0
   39.3850   26.8230   30.5750 H   0  0  0  0  0  0  0  0  0  0  0  0
   38.4770   28.3730   29.2080 H   0  0  0  0  0  0  0  0  0  0  0  0
   38.3120   29.6380   30.4470 H   0  0  0  0  0  0  0  0  0  0  0  0
   36.1410   29.1480   29.9850 H   0  0  0  0  0  0  0  0  0  0  0  0
   36.3870   27.4260   29.6050 H   0  0  0  0  0  0  0  0  0  0  0  0
   35.1700   27.6160   31.5990 H   0  0  0  0  0  0  0  0  0  0  0  0
   35.6330   25.1340   31.3970 C   0  0  0  0  0  0  0  0  0  0  0  0
   36.7210   25.5490   32.2230 C   0  0  0  0  0  0  0  0  0  0  0  0
   37.4590   24.5230   32.7770 C   0  0  0  0  0  0  0  0  0  0  0  0
   37.1370   23.2150   32.5270 N   0  0  0  0  0  0  0  0  0  0  0  0
   36.1010   22.8930   31.7420 C   0  0  0  0  0  0  0  0  0  0  0  0
   35.3420   23.8640   31.1720 N   0  0  0  0  0  0  0  0  0  0  0  0
   35.0340   25.9160   30.9490 H   0  0  0  0  0  0  0  0  0  0  0  0
   38.2980   24.7050   33.4110 H   0  0  0  0  0  0  0  0  0  0  0  0
   35.8450   21.8620   31.5430 H   0  0  0  0  0  0  0  0  0  0  0  0
   36.2510   29.2310   32.4480 C   0  0  0  0  0  0  0  0  0  0  0  0
   37.2940   29.5620   32.6340 H   0  0  0  0  0  0  0  0  0  0  0  0
   35.7330   30.0310   31.8810 H   0  0  0  0  0  0  0  0  0  0  0  0
   35.5910   29.1210   33.7960 C   0  0  0  0  0  0  0  0  0  0  0  0
   34.6780   28.4930   33.6800 H   0  0  0  0  0  0  0  0  0  0  0  0
   36.2970   28.5590   34.4450 H   0  0  0  0  0  0  0  0  0  0  0  0
   35.2150   30.3700   34.4730 C   0  0  0  0  0  3  0  0  0  0  0  0
   35.4530   31.5060   33.4620 C   0  0  0  0  0  2  0  0  0  0  0  0
   36.1400   32.6100   34.1950 C   0  0  0  0  0  2  0  0  0  0  0  0
   35.8690   32.2810   35.6610 C   0  0  0  0  0  2  0  0  0  0  0  0
   36.1170   30.7670   35.6130 C   0  0  0  0  0  2  0  0  0  0  0  0
  1  7  1  1  0  0  0
  2  1  1  0  0  0  0
  2  8  1  0  0  0  0
  2  9  1  0  0  0  0
  3 10  1  0  0  0  0
  3  2  1  0  0  0  0
  4  5  1  0  0  0  0
  4 13  1  0  0  0  0
  4  3  1  0  0  0  0
  5  6  1  0  0  0  0
  6 16  1  6  0  0  0
  6 26  1  0  0  0  0
  6  1  1  0  0  0  0
 11  3  1  0  0  0  0
 12  4  1  0  0  0  0
 14  5  1  0  0  0  0
 15  5  1  0  0  0  0
 17 18  1  0  0  0  0
 18  1  1  0  0  0  0
 18 19  2  0  0  0  0
 19 24  1  0  0  0  0
 20 19  1  0  0  0  0
 21 20  2  0  0  0  0
 22 17  2  0  0  0  0
 22 21  1  0  0  0  0
 23 17  1  0  0  0  0
 25 21  1  0  0  0  0
 26 27  1  0  0  0  0
 26 29  1  0  0  0  0
 28 26  1  0  0  0  0
 29 31  1  0  0  0  0
 29 32  1  0  0  0  0
 30 29  1  0  0  0  0
 32 36  1  0  0  0  0
 33 34  1  0  0  0  0
 33 32  1  0  0  0  0
 34 35  1  0  0  0  0
 36 35  1  0  0  0  0
M  END
>  <minimizedAffinity>
-4.77830839

$$$$

 OpenBabel03272506323D

 36 38  0  0  1  0  0  0  0  0999 V2000
   35.8570   29.6660   33.0370 C   0  0  1  0  0  0  0  0  0  0  0  0
   35.0610   30.3670   32.0510 C   0  0  0  0  0  0  0  0  0  0  0  0
   33.5550   30.3030   32.2150 C   0  0  0  0  0  0  0  0  0  0  0  0
   33.0620   30.3580   33.6180 C   0  0  0  0  0  0  0  0  0  0  0  0
   33.8730   29.6830   34.6560 C   0  0  0  0  0  0  0  0  0  0  0  0
   35.3380   29.8620   34.4410 C   0  0  2  0  0  0  0  0  0  0  0  0
   36.8820   30.1510   33.0910 H   0  0  0  0  0  0  0  0  0  0  0  0
   35.2630   30.1880   30.9990 H   0  0  0  0  0  0  0  0  0  0  0  0
   35.2780   31.4680   32.1970 H   0  0  0  0  0  0  0  0  0  0  0  0
   33.0940   31.1540   31.6680 H   0  0  0  0  0  0  0  0  0  0  0  0
   33.1720   29.3910   31.6950 H   0  0  0  0  0  0  0  0  0  0  0  0
   32.0620   29.8320   33.6110 H   0  0  0  0  0  0  0  0  0  0  0  0
   32.8380   31.4030   33.9150 H   0  0  0  0  0  0  0  0  0  0  0  0
   33.6370   30.1440   35.6310 H   0  0  0  0  0  0  0  0  0  0  0  0
   33.6600   28.5890   34.7630 H   0  0  0  0  0  0  0  0  0  0  0  0
   35.8600   29.2740   35.1890 H   0  0  0  0  0  0  0  0  0  0  0  0
   35.8660   27.6060   31.5200 C   0  0  0  0  0  0  0  0  0  0  0  0
   36.1760   28.2560   32.7530 C   0  0  0  0  0  0  0  0  0  0  0  0
   36.8090   27.4630   33.6880 C   0  0  0  0  0  0  0  0  0  0  0  0
   37.1010   26.1530   33.4130 N   0  0  0  0  0  0  0  0  0  0  0  0
   36.7810   25.6040   32.2350 C   0  0  0  0  0  0  0  0  0  0  0  0
   36.1580   26.3390   31.2790 N   0  0  0  0  0  0  0  0  0  0  0  0
   35.3680   28.2020   30.7660 H   0  0  0  0  0  0  0  0  0  0  0  0
   37.0940   27.8340   34.6470 H   0  0  0  0  0  0  0  0  0  0  0  0
   37.0100   24.5700   32.0150 H   0  0  0  0  0  0  0  0  0  0  0  0
   35.6130   31.3350   34.7590 C   0  0  0  0  0  0  0  0  0  0  0  0
   36.6140   31.6500   34.3950 H   0  0  0  0  0  0  0  0  0  0  0  0
   34.8540   31.9860   34.2800 H   0  0  0  0  0  0  0  0  0  0  0  0
   35.5910   31.6130   36.2380 C   0  0  0  0  0  0  0  0  0  0  0  0
   35.3910   30.6510   36.7640 H   0  0  0  0  0  0  0  0  0  0  0  0
   36.6200   31.9310   36.5130 H   0  0  0  0  0  0  0  0  0  0  0  0
   34.6370   32.6190   36.7270 C   0  0  0  0  0  3  0  0  0  0  0  0
   33.4630   31.8440   37.3510 C   0  0  0  0  0  2  0  0  0  0  0  0
   32.2060   32.4900   36.8740 C   0  0  0  0  0  2  0  0  0  0  0  0
   32.6770   33.8570   36.3830 C   0  0  0  0  0  2  0  0  0  0  0  0
   33.9510   33.4160   35.6480 C   0  0  0  0  0  2  0  0  0  0  0  0
  1  7  1  6  0  0  0
  1  6  1  0  0  0  0
  2  9  1  0  0  0  0
  2  3  1  0  0  0  0
  2  1  1  0  0  0  0
  3  4  1  0  0  0  0
  4 13  1  0  0  0  0
  4  5  1  0  0  0  0
  5 15  1  0  0  0  0
  5 14  1  0  0  0  0
  6  5  1  0  0  0  0
  6 26  1  0  0  0  0
  6 16  1  1  0  0  0
  8  2  1  0  0  0  0
 10  3  1  0  0  0  0
 11  3  1  0  0  0  0
 12  4  1  0  0  0  0
 17 18  1  0  0  0  0
 18  1  1  0  0  0  0
 18 19  2  0  0  0  0
 19 24  1  0  0  0  0
 20 19  1  0  0  0  0
 21 20  2  0  0  0  0
 22 17  2  0  0  0  0
 22 21  1  0  0  0  0
 23 17  1  0  0  0  0
 25 21  1  0  0  0  0
 26 29  1  0  0  0  0
 27 26  1  0  0  0  0
 28 26  1  0  0  0  0
 29 31  1  0  0  0  0
 29 32  1  0  0  0  0
 29 30  1  0  0  0  0
 32 33  1  0  0  0  0
 34 33  1  0  0  0  0
 35 34  1  0  0  0  0
 36 35  1  0  0  0  0
 36 32  1  0  0  0  0
M  END
>  <minimizedAffinity>
-4.6614933

$$$$

 OpenBabel03272506323D

 36 38  0  0  1  0  0  0  0  0999 V2000
   38.5690   24.5700   34.6200 C   0  0  1  0  0  0  0  0  0  0  0  0
   37.7930   25.7640   34.3550 C   0  0  0  0  0  0  0  0  0  0  0  0
   38.5320   27.0870   34.4080 C   0  0  0  0  0  0  0  0  0  0  0  0
   39.9160   27.0670   33.8620 C   0  0  0  0  0  0  0  0  0  0  0  0
   40.7220   25.8460   34.0830 C   0  0  0  0  0  0  0  0  0  0  0  0
   39.9170   24.5980   33.9430 C   0  0  2  0  0  0  0  0  0  0  0  0
   38.0650   23.6880   34.1140 H   0  0  0  0  0  0  0  0  0  0  0  0
   36.8640   25.9100   34.8980 H   0  0  0  0  0  0  0  0  0  0  0  0
   37.4780   25.7010   33.2700 H   0  0  0  0  0  0  0  0  0  0  0  0
   37.9590   27.8460   33.8320 H   0  0  0  0  0  0  0  0  0  0  0  0
   38.5250   27.4650   35.4590 H   0  0  0  0  0  0  0  0  0  0  0  0
   40.4640   27.9030   34.3890 H   0  0  0  0  0  0  0  0  0  0  0  0
   39.9200   27.3490   32.7890 H   0  0  0  0  0  0  0  0  0  0  0  0
   41.5060   25.8060   33.3060 H   0  0  0  0  0  0  0  0  0  0  0  0
   41.2520   25.8200   35.0690 H   0  0  0  0  0  0  0  0  0  0  0  0
   40.5550   23.7580   34.1990 H   0  0  0  0  0  0  0  0  0  0  0  0
   39.6600   23.2450   36.5170 C   0  0  0  0  0  0  0  0  0  0  0  0
   38.6580   24.1340   36.0250 C   0  0  0  0  0  0  0  0  0  0  0  0
   37.7510   24.5720   36.9690 C   0  0  0  0  0  0  0  0  0  0  0  0
   37.8430   24.1590   38.2720 N   0  0  0  0  0  0  0  0  0  0  0  0
   38.8090   23.3210   38.6670 C   0  0  0  0  0  0  0  0  0  0  0  0
   39.7270   22.8600   37.7800 N   0  0  0  0  0  0  0  0  0  0  0  0
   40.3860   22.8830   35.7990 H   0  0  0  0  0  0  0  0  0  0  0  0
   36.9560   25.2400   36.7240 H   0  0  0  0  0  0  0  0  0  0  0  0
   38.8840   22.9930   39.6950 H   0  0  0  0  0  0  0  0  0  0  0  0
   39.6090   24.4850   32.4470 C   0  0  0  0  0  0  0  0  0  0  0  0
   38.7770   25.1590   32.1520 H   0  0  0  0  0  0  0  0  0  0  0  0
   40.4990   24.7550   31.8430 H   0  0  0  0  0  0  0  0  0  0  0  0
   39.1890   23.0940   32.0540 C   0  0  0  0  0  0  0  0  0  0  0  0
   39.9980   22.6580   31.4240 H   0  0  0  0  0  0  0  0  0  0  0  0
   39.1490   22.5020   32.9940 H   0  0  0  0  0  0  0  0  0  0  0  0
   37.9120   22.9440   31.3430 C   0  0  0  0  0  3  0  0  0  0  0  0
   37.4780   24.3580   30.9170 C   0  0  0  0  0  2  0  0  0  0  0  0
   36.0240   24.4830   31.2290 C   0  0  0  0  0  2  0  0  0  0  0  0
   35.5710   23.0330   31.3860 C   0  0  0  0  0  2  0  0  0  0  0  0
   36.7570   22.5040   32.2040 C   0  0  0  0  0  2  0  0  0  0  0  0
  1  7  1  6  0  0  0
  1 18  1  0  0  0  0
  2  3  1  0  0  0  0
  2  1  1  0  0  0  0
  2  8  1  0  0  0  0
  3 11  1  0  0  0  0
  4  5  1  0  0  0  0
  4 12  1  0  0  0  0
  4  3  1  0  0  0  0
  5 15  1  0  0  0  0
  6  5  1  0  0  0  0
  6 16  1  1  0  0  0
  6  1  1  0  0  0  0
  9  2  1  0  0  0  0
 10  3  1  0  0  0  0
 13  4  1  0  0  0  0
 14  5  1  0  0  0  0
 17 22  1  0  0  0  0
 18 17  2  0  0  0  0
 18 19  1  0  0  0  0
 19 20  2  0  0  0  0
 20 21  1  0  0  0  0
 21 25  1  0  0  0  0
 22 21  2  0  0  0  0
 23 17  1  0  0  0  0
 24 19  1  0  0  0  0
 26  6  1  0  0  0  0
 27 26  1  0  0  0  0
 28 26  1  0  0  0  0
 29 26  1  0  0  0  0
 29 31  1  0  0  0  0
 30 29  1  0  0  0  0
 32 29  1  0  0  0  0
 32 36  1  0  0  0  0
 33 34  1  0  0  0  0
 33 32  1  0  0  0  0
 34 35  1  0  0  0  0
 35 36  1  0  0  0  0
M  END
>  <minimizedAffinity>
-4.65530682

$$$$

 OpenBabel03272506323D

 36 38  0  0  1  0  0  0  0  0999 V2000
   38.5640   26.5320   35.3900 C   0  0  1  0  0  0  0  0  0  0  0  0
   39.7090   27.1300   34.7370 C   0  0  0  0  0  0  0  0  0  0  0  0
   39.7830   26.9970   33.2280 C   0  0  0  0  0  0  0  0  0  0  0  0
   38.4840   27.1100   32.5120 C   0  0  0  0  0  0  0  0  0  0  0  0
   37.2870   26.5420   33.1710 C   0  0  0  0  0  0  0  0  0  0  0  0
   37.2770   26.7840   34.6430 C   0  0  2  0  0  0  0  0  0  0  0  0
   38.3810   27.0720   36.3720 H   0  0  0  0  0  0  0  0  0  0  0  0
   40.7010   26.9000   35.1140 H   0  0  0  0  0  0  0  0  0  0  0  0
   39.6060   28.2480   34.8810 H   0  0  0  0  0  0  0  0  0  0  0  0
   40.4530   27.7890   32.8260 H   0  0  0  0  0  0  0  0  0  0  0  0
   40.2950   26.0370   32.9730 H   0  0  0  0  0  0  0  0  0  0  0  0
   38.6140   26.5330   31.5500 H   0  0  0  0  0  0  0  0  0  0  0  0
   38.2970   28.1580   32.1990 H   0  0  0  0  0  0  0  0  0  0  0  0
   36.3950   27.0480   32.7610 H   0  0  0  0  0  0  0  0  0  0  0  0
   37.1410   25.4470   32.9890 H   0  0  0  0  0  0  0  0  0  0  0  0
   36.4180   26.2700   35.0610 H   0  0  0  0  0  0  0  0  0  0  0  0
   37.7320   24.4400   36.6070 C   0  0  0  0  0  0  0  0  0  0  0  0
   38.6980   25.1260   35.8100 C   0  0  0  0  0  0  0  0  0  0  0  0
   39.7980   24.3730   35.4490 C   0  0  0  0  0  0  0  0  0  0  0  0
   39.9130   23.0670   35.8460 N   0  0  0  0  0  0  0  0  0  0  0  0
   38.9680   22.4840   36.5950 C   0  0  0  0  0  0  0  0  0  0  0  0
   37.8670   23.1790   36.9780 N   0  0  0  0  0  0  0  0  0  0  0  0
   36.8580   25.0050   36.9070 H   0  0  0  0  0  0  0  0  0  0  0  0
   40.5880   24.7720   34.8530 H   0  0  0  0  0  0  0  0  0  0  0  0
   39.0570   21.4530   36.9090 H   0  0  0  0  0  0  0  0  0  0  0  0
   37.0200   28.2860   34.8010 C   0  0  0  0  0  0  0  0  0  0  0  0
   37.0220   28.5890   35.8690 H   0  0  0  0  0  0  0  0  0  0  0  0
   37.8010   28.8730   34.2760 H   0  0  0  0  0  0  0  0  0  0  0  0
   35.6830   28.6970   34.2450 C   0  0  0  0  0  0  0  0  0  0  0  0
   35.3140   27.8700   33.5940 H   0  0  0  0  0  0  0  0  0  0  0  0
   34.9910   28.7670   35.1110 H   0  0  0  0  0  0  0  0  0  0  0  0
   35.6190   29.9530   33.4830 C   0  0  0  0  0  3  0  0  0  0  0  0
   34.1270   30.2680   33.2800 C   0  0  0  0  0  2  0  0  0  0  0  0
   33.9550   30.6840   31.8580 C   0  0  0  0  0  2  0  0  0  0  0  0
   35.3750   31.0350   31.4200 C   0  0  0  0  0  2  0  0  0  0  0  0
   36.1180   29.8570   32.0650 C   0  0  0  0  0  2  0  0  0  0  0  0
  1 18  1  0  0  0  0
  1  7  1  1  0  0  0
  2  9  1  0  0  0  0
  2  8  1  0  0  0  0
  2  1  1  0  0  0  0
  3  2  1  0  0  0  0
  4  5  1  0  0  0  0
  4  3  1  0  0  0  0
  5  6  1  0  0  0  0
  6 26  1  0  0  0  0
  6 16  1  1  0  0  0
  6  1  1  0  0  0  0
 10  3  1  0  0  0  0
 11  3  1  0  0  0  0
 12  4  1  0  0  0  0
 13  4  1  0  0  0  0
 14  5  1  0  0  0  0
 15  5  1  0  0  0  0
 17 23  1  0  0  0  0
 17 22  1  0  0  0  0
 18 17  2  0  0  0  0
 19 18  1  0  0  0  0
 19 20  2  0  0  0  0
 20 21  1  0  0  0  0
 21 25  1  0  0  0  0
 21 22  2  0  0  0  0
 24 19  1  0  0  0  0
 26 27  1  0  0  0  0
 28 26  1  0  0  0  0
 29 26  1  0  0  0  0
 29 31  1  0  0  0  0
 30 29  1  0  0  0  0
 32 29  1  0  0  0  0
 33 32  1  0  0  0  0
 34 33  1  0  0  0  0
 35 34  1  0  0  0  0
 35 36  1  0  0  0  0
 36 32  1  0  0  0  0
M  END
>  <minimizedAffinity>
-4.65289927

$$$$
