
 OpenBabel03272508163D

 27 29  0  0  0  0  0  0  0  0999 V2000
   32.7960   27.4860   48.1850 Cl  0  0  0  0  0  0  0  0  0  0  0  0
   33.4370   27.8880   46.6350 C   0  0  0  0  0  0  0  0  0  0  0  0
   32.9840   27.0650   45.6440 C   0  0  0  0  0  0  0  0  0  0  0  0
   33.4420   27.2980   44.3220 C   0  0  0  0  0  0  0  0  0  0  0  0
   34.3100   28.3140   44.0410 C   0  0  0  0  0  0  0  0  0  0  0  0
   34.7460   29.1220   45.0580 C   0  0  0  0  0  0  0  0  0  0  0  0
   35.8490   30.4240   44.7460 Cl  0  0  0  0  0  0  0  0  0  0  0  0
   34.3120   28.9060   46.3260 C   0  0  0  0  0  0  0  0  0  0  0  0
   33.1430   26.7030   43.4710 H   0  0  0  0  0  0  0  0  0  0  0  0
   34.6790   28.5170   43.0410 H   0  0  0  0  0  0  0  0  0  0  0  0
   32.6140   24.6460   45.9120 C   0  0  0  0  0  0  0  0  0  0  0  0
   32.0610   25.9220   45.7040 C   0  0  0  0  0  0  0  0  0  0  0  0
   30.6750   26.0370   45.5680 C   0  0  0  0  0  0  0  0  0  0  0  0
   29.9500   24.8840   45.6460 N   0  0  0  0  0  0  0  0  0  0  0  0
   30.5190   23.6720   45.8470 C   0  0  0  0  0  0  0  0  0  0  0  0
   31.8710   23.5520   45.9810 N   0  0  0  0  0  0  0  0  0  0  0  0
   33.6900   24.5590   46.0180 H   0  0  0  0  0  0  0  0  0  0  0  0
   30.2700   27.0040   45.4110 H   0  0  0  0  0  0  0  0  0  0  0  0
   29.9040   22.7780   45.9030 H   0  0  0  0  0  0  0  0  0  0  0  0
   34.7240   29.7230   47.4840 C   0  0  0  0  0  0  0  0  0  0  0  0
   34.1090   30.6670   48.0170 O   0  0  0  0  0  0  0  0  0  0  0  0
   35.9170   29.5850   48.2210 O   0  0  0  0  0  0  0  0  0  0  0  0
   36.5990   30.6130   48.8320 C   0  0  0  0  0  3  0  0  0  0  0  0
   37.7130   31.2070   48.0030 C   0  0  0  0  0  2  0  0  0  0  0  0
   38.4750   31.9810   49.0710 C   0  0  0  0  0  2  0  0  0  0  0  0
   38.3580   31.1120   50.3210 C   0  0  0  0  0  2  0  0  0  0  0  0
   37.3390   30.0610   50.0300 C   0  0  0  0  0  2  0  0  0  0  0  0
  2  1  1  0  0  0  0
  3 12  1  0  0  0  0
  3  2  2  0  0  0  0
  4  3  1  0  0  0  0
  5  4  2  0  0  0  0
  5  6  1  0  0  0  0
  6  8  2  0  0  0  0
  7  6  1  0  0  0  0
  8  2  1  0  0  0  0
  8 20  1  0  0  0  0
  9  4  1  0  0  0  0
 10  5  1  0  0  0  0
 11 16  1  0  0  0  0
 11 17  1  0  0  0  0
 12 11  2  0  0  0  0
 13 14  2  0  0  0  0
 13 12  1  0  0  0  0
 14 15  1  0  0  0  0
 15 19  1  0  0  0  0
 15 16  2  0  0  0  0
 18 13  1  0  0  0  0
 20 21  2  0  0  0  0
 20 22  1  0  0  0  0
 22 23  1  0  0  0  0
 23 27  1  0  0  0  0
 24 23  1  0  0  0  0
 24 25  1  0  0  0  0
 25 26  1  0  0  0  0
 27 26  1  0  0  0  0
M  END
>  <minimizedAffinity>
-4.33364677

>  <minimizedRMSD>
6.02036858

$$$$
