
 OpenBabel03262521513D

 18 19  0  0  0  0  0  0  0  0999 V2000
   38.0830   31.5290   49.2490 C   0  0  0  0  0  0  0  0  0  0  0  0
   38.4430   32.8270   49.6150 C   0  0  0  0  0  0  0  0  0  0  0  0
   39.1190   33.6320   48.6920 C   0  0  0  0  0  0  0  0  0  0  0  0
   39.3990   33.1100   47.4700 N   0  0  0  0  0  0  0  0  0  0  0  0
   39.0320   31.8470   47.1560 C   0  0  0  0  0  0  0  0  0  0  0  0
   38.3910   31.0860   48.0320 N   0  0  0  0  0  0  0  0  0  0  0  0
   38.2470   33.2730   50.5530 H   0  0  0  0  0  0  0  0  0  0  0  0
   39.4100   34.6510   48.9600 H   0  0  0  0  0  0  0  0  0  0  0  0
   39.2450   31.4040   46.1840 H   0  0  0  0  0  0  0  0  0  0  0  0
   37.2260   30.6450   50.5510 S   0  0  0  0  0  0  0  0  0  0  0  0
   36.6240   29.1010   49.8000 C   0  0  0  0  0  0  0  0  0  0  0  0
   36.7740   28.2840   50.5170 H   0  0  0  0  0  0  0  0  0  0  0  0
   37.1710   28.9110   48.8570 H   0  0  0  0  0  0  0  0  0  0  0  0
   35.1560   29.2650   49.4560 C   0  0  0  0  0  0  0  0  0  0  0  0
   34.4420   27.9670   49.2660 C   0  0  0  0  0  0  0  0  0  0  0  0
   33.3140   28.3270   48.3350 C   0  0  0  0  0  0  0  0  0  0  0  0
   34.0060   29.2260   47.3340 C   0  0  0  0  0  0  0  0  0  0  0  0
   34.9260   30.0530   48.2130 C   0  0  0  0  0  0  0  0  0  0  0  0
  1  2  1  0  0  0  0
  1 10  1  0  0  0  0
  2  7  1  0  0  0  0
  3  8  1  0  0  0  0
  3  2  2  0  0  0  0
  4  3  1  0  0  0  0
  5  4  2  0  0  0  0
  5  6  1  0  0  0  0
  6  1  2  0  0  0  0
  9  5  1  0  0  0  0
 11 12  1  0  0  0  0
 11 10  1  0  0  0  0
 13 11  1  0  0  0  0
 14 11  1  0  0  0  0
 15 14  1  0  0  0  0
 16 15  1  0  0  0  0
 17 18  1  0  0  0  0
 17 16  1  0  0  0  0
 18 14  1  0  0  0  0
M  END
>  <minimizedAffinity>
-4.48019028

>  <minimizedRMSD>
2.54676723

$$$$
