
 OpenBabel03272509393D

 26 28  0  0  1  0  0  0  0  0999 V2000
   38.1470   24.6250   34.0860 C   0  0  0  0  0  0  0  0  0  0  0  0
   37.9820   25.8570   33.4310 C   0  0  0  0  0  0  0  0  0  0  0  0
   37.9050   27.0630   34.1620 C   0  0  0  0  0  0  0  0  0  0  0  0
   37.9990   27.0160   35.5720 C   0  0  0  0  0  0  0  0  0  0  0  0
   38.1620   25.7680   36.1810 C   0  0  0  0  0  0  0  0  0  0  0  0
   38.2320   24.6210   35.4410 C   0  0  0  0  0  0  0  0  0  0  0  0
   37.9130   25.8780   32.3540 H   0  0  0  0  0  0  0  0  0  0  0  0
   37.7780   27.9650   33.5800 H   0  0  0  0  0  0  0  0  0  0  0  0
   37.9320   27.9780   36.0610 H   0  0  0  0  0  0  0  0  0  0  0  0
   38.2160   25.9130   37.2490 H   0  0  0  0  0  0  0  0  0  0  0  0
   38.4190   23.4690   36.3070 C   0  0  0  0  0  3  0  0  0  0  0  0
   39.9120   23.3850   36.5770 C   0  0  0  0  0  2  0  0  0  0  0  0
   39.8830   22.6340   37.9100 C   0  0  0  0  0  2  0  0  0  0  0  0
   38.8990   23.4970   38.6640 C   0  0  0  0  0  2  0  0  0  0  0  0
   37.8020   23.7470   37.6950 C   0  0  0  0  0  2  0  0  0  0  0  0
   38.2150   23.4380   33.2760 C   0  0  2  0  0  3  0  0  0  0  0  0
   39.3850   23.2110   32.7830 O   0  0  0  0  0  1  0  0  0  0  0  0
   35.5240   21.9550   31.3520 C   0  0  0  0  0  0  0  0  0  0  0  0
   35.0830   20.9030   32.1380 C   0  0  0  0  0  0  0  0  0  0  0  0
   35.7020   20.6960   33.3520 C   0  0  0  0  0  0  0  0  0  0  0  0
   36.7300   21.5090   33.7750 N   0  0  0  0  0  0  0  0  0  0  0  0
   37.1250   22.5160   32.9790 C   0  0  0  0  0  0  0  0  0  0  0  0
   36.5160   22.6980   31.8170 N   0  0  0  0  0  0  0  0  0  0  0  0
   35.0680   22.1510   30.4010 H   0  0  0  0  0  0  0  0  0  0  0  0
   34.2800   20.2870   31.7800 H   0  0  0  0  0  0  0  0  0  0  0  0
   35.3810   19.8820   33.9900 H   0  0  0  0  0  0  0  0  0  0  0  0
  1  6  1  0  0  0  0
  2  1  2  0  0  0  0
  2  3  1  0  0  0  0
  3  4  2  0  0  0  0
  4  9  1  0  0  0  0
  4  5  1  0  0  0  0
  5 10  1  0  0  0  0
  6  5  2  0  0  0  0
  6 11  1  0  0  0  0
  7  2  1  0  0  0  0
  8  3  1  0  0  0  0
 11 12  1  0  0  0  0
 11 15  1  0  0  0  0
 12 13  1  0  0  0  0
 13 14  1  0  0  0  0
 15 14  1  0  0  0  0
 16 17  1  6  0  0  0
 16  1  1  0  0  0  0
 18 23  2  0  0  0  0
 18 19  1  0  0  0  0
 19 20  2  0  0  0  0
 20 21  1  0  0  0  0
 20 26  1  0  0  0  0
 22 16  1  0  0  0  0
 22 21  2  0  0  0  0
 23 22  1  0  0  0  0
 24 18  1  0  0  0  0
 25 19  1  0  0  0  0
M  END
>  <minimizedAffinity>
-5.35938501

$$$$

 OpenBabel03272509393D

 26 28  0  0  1  0  0  0  0  0999 V2000
   39.5380   24.0210   35.7430 C   0  0  0  0  0  0  0  0  0  0  0  0
   40.8670   23.5670   35.6790 C   0  0  0  0  0  0  0  0  0  0  0  0
   41.8970   24.4010   35.1910 C   0  0  0  0  0  0  0  0  0  0  0  0
   41.5730   25.7100   34.7650 C   0  0  0  0  0  0  0  0  0  0  0  0
   40.2390   26.1190   34.8460 C   0  0  0  0  0  0  0  0  0  0  0  0
   39.2680   25.2830   35.3230 C   0  0  0  0  0  0  0  0  0  0  0  0
   41.0990   22.5660   36.0090 H   0  0  0  0  0  0  0  0  0  0  0  0
   42.8900   23.9730   35.1770 H   0  0  0  0  0  0  0  0  0  0  0  0
   42.4130   26.2880   34.4060 H   0  0  0  0  0  0  0  0  0  0  0  0
   40.1690   27.1330   34.4850 H   0  0  0  0  0  0  0  0  0  0  0  0
   37.9770   25.9510   35.3200 C   0  0  0  0  0  3  0  0  0  0  0  0
   38.2640   27.4200   35.5830 C   0  0  0  0  0  2  0  0  0  0  0  0
   37.0240   28.0370   34.9310 C   0  0  0  0  0  2  0  0  0  0  0  0
   37.0820   27.3560   33.5840 C   0  0  0  0  0  2  0  0  0  0  0  0
   37.3780   25.9350   33.8960 C   0  0  0  0  0  2  0  0  0  0  0  0
   38.5430   23.1140   36.2490 C   0  0  1  0  0  3  0  0  0  0  0  0
   38.4790   23.0780   37.5360 O   0  0  0  0  0  1  0  0  0  0  0  0
   35.7690   20.8650   35.6260 C   0  0  0  0  0  0  0  0  0  0  0  0
   35.7870   20.6760   34.2530 C   0  0  0  0  0  0  0  0  0  0  0  0
   36.7660   21.3140   33.5230 C   0  0  0  0  0  0  0  0  0  0  0  0
   37.7010   22.1180   34.1350 N   0  0  0  0  0  0  0  0  0  0  0  0
   37.6440   22.2740   35.4670 C   0  0  0  0  0  0  0  0  0  0  0  0
   36.6960   21.6510   36.1510 N   0  0  0  0  0  0  0  0  0  0  0  0
   35.0240   20.3860   36.2310 H   0  0  0  0  0  0  0  0  0  0  0  0
   35.0430   20.0430   33.8060 H   0  0  0  0  0  0  0  0  0  0  0  0
   36.8060   21.1860   32.4480 H   0  0  0  0  0  0  0  0  0  0  0  0
  1 16  1  0  0  0  0
  2  1  1  0  0  0  0
  2  7  1  0  0  0  0
  3  2  2  0  0  0  0
  4  5  2  0  0  0  0
  4  3  1  0  0  0  0
  5  6  1  0  0  0  0
  6  1  2  0  0  0  0
  8  3  1  0  0  0  0
  9  4  1  0  0  0  0
 10  5  1  0  0  0  0
 11  6  1  0  0  0  0
 11 12  1  0  0  0  0
 13 12  1  0  0  0  0
 14 15  1  0  0  0  0
 14 13  1  0  0  0  0
 15 11  1  0  0  0  0
 16 17  1  6  0  0  0
 18 23  1  0  0  0  0
 18 24  1  0  0  0  0
 19 18  2  0  0  0  0
 20 21  2  0  0  0  0
 20 19  1  0  0  0  0
 21 22  1  0  0  0  0
 22 23  2  0  0  0  0
 22 16  1  0  0  0  0
 25 19  1  0  0  0  0
 26 20  1  0  0  0  0
M  END
>  <minimizedAffinity>
-5.33316278

$$$$

 OpenBabel03272509393D

 26 28  0  0  1  0  0  0  0  0999 V2000
   36.1790   26.7450   31.8020 C   0  0  0  0  0  0  0  0  0  0  0  0
   35.5740   25.7390   31.0290 C   0  0  0  0  0  0  0  0  0  0  0  0
   35.8880   24.3780   31.2340 C   0  0  0  0  0  0  0  0  0  0  0  0
   36.8260   24.0360   32.2350 C   0  0  0  0  0  0  0  0  0  0  0  0
   37.4040   25.0680   32.9790 C   0  0  0  0  0  0  0  0  0  0  0  0
   37.0750   26.3760   32.7520 C   0  0  0  0  0  0  0  0  0  0  0  0
   34.8580   26.0160   30.2690 H   0  0  0  0  0  0  0  0  0  0  0  0
   35.3760   23.6700   30.5960 H   0  0  0  0  0  0  0  0  0  0  0  0
   37.0140   22.9760   32.3330 H   0  0  0  0  0  0  0  0  0  0  0  0
   38.0880   24.6360   33.6910 H   0  0  0  0  0  0  0  0  0  0  0  0
   37.7980   27.2460   33.6650 C   0  0  0  0  0  3  0  0  0  0  0  0
   37.4500   26.7670   35.0640 C   0  0  0  0  0  2  0  0  0  0  0  0
   38.6860   27.2700   35.8150 C   0  0  0  0  0  2  0  0  0  0  0  0
   39.7680   26.6950   34.9300 C   0  0  0  0  0  2  0  0  0  0  0  0
   39.3160   26.9910   33.5470 C   0  0  0  0  0  2  0  0  0  0  0  0
   35.8100   28.1100   31.5340 C   0  0  1  0  0  3  0  0  0  0  0  0
   34.8620   28.5500   32.2890 O   0  0  0  0  0  1  0  0  0  0  0  0
   36.6020   31.2500   29.9050 C   0  0  0  0  0  0  0  0  0  0  0  0
   37.3980   30.8840   28.8310 C   0  0  0  0  0  0  0  0  0  0  0  0
   37.6640   29.5450   28.6460 C   0  0  0  0  0  0  0  0  0  0  0  0
   37.1560   28.5930   29.5030 N   0  0  0  0  0  0  0  0  0  0  0  0
   36.3910   28.9940   30.5310 C   0  0  0  0  0  0  0  0  0  0  0  0
   36.1470   30.2860   30.6900 N   0  0  0  0  0  0  0  0  0  0  0  0
   36.3710   32.2820   30.0830 H   0  0  0  0  0  0  0  0  0  0  0  0
   37.7790   31.6500   28.1820 H   0  0  0  0  0  0  0  0  0  0  0  0
   38.2830   29.2270   27.8170 H   0  0  0  0  0  0  0  0  0  0  0  0
  1  6  1  0  0  0  0
  2  3  1  0  0  0  0
  2  1  2  0  0  0  0
  3  4  2  0  0  0  0
  4  9  1  0  0  0  0
  4  5  1  0  0  0  0
  5 10  1  0  0  0  0
  6  5  2  0  0  0  0
  6 11  1  0  0  0  0
  7  2  1  0  0  0  0
  8  3  1  0  0  0  0
 11 12  1  0  0  0  0
 12 13  1  0  0  0  0
 14 13  1  0  0  0  0
 15 11  1  0  0  0  0
 15 14  1  0  0  0  0
 16  1  1  0  0  0  0
 16 17  1  1  0  0  0
 18 24  1  0  0  0  0
 18 23  1  0  0  0  0
 19 18  2  0  0  0  0
 20 19  1  0  0  0  0
 20 21  2  0  0  0  0
 21 22  1  0  0  0  0
 22 23  2  0  0  0  0
 22 16  1  0  0  0  0
 25 19  1  0  0  0  0
 26 20  1  0  0  0  0
M  END
>  <minimizedAffinity>
-5.22931814

$$$$

 OpenBabel03272509393D

 26 28  0  0  1  0  0  0  0  0999 V2000
   37.4790   24.0690   32.7690 C   0  0  0  0  0  0  0  0  0  0  0  0
   37.3140   25.4380   32.4930 C   0  0  0  0  0  0  0  0  0  0  0  0
   36.2500   25.8930   31.6840 C   0  0  0  0  0  0  0  0  0  0  0  0
   35.3420   24.9470   31.1530 C   0  0  0  0  0  0  0  0  0  0  0  0
   35.5440   23.5970   31.4530 C   0  0  0  0  0  0  0  0  0  0  0  0
   36.5880   23.1930   32.2390 C   0  0  0  0  0  0  0  0  0  0  0  0
   38.0140   26.1470   32.9060 H   0  0  0  0  0  0  0  0  0  0  0  0
   36.1970   26.9600   31.5230 H   0  0  0  0  0  0  0  0  0  0  0  0
   34.5550   25.3700   30.5450 H   0  0  0  0  0  0  0  0  0  0  0  0
   34.7700   23.0200   30.9730 H   0  0  0  0  0  0  0  0  0  0  0  0
   36.5640   21.7510   32.4120 C   0  0  0  0  0  3  0  0  0  0  0  0
   35.1010   21.3450   32.3510 C   0  0  0  0  0  2  0  0  0  0  0  0
   35.2630   19.8920   31.8980 C   0  0  0  0  0  2  0  0  0  0  0  0
   36.1710   20.0980   30.7080 C   0  0  0  0  0  2  0  0  0  0  0  0
   37.1960   21.0610   31.1830 C   0  0  0  0  0  2  0  0  0  0  0  0
   38.5880   23.6810   33.5990 C   0  0  2  0  0  3  0  0  0  0  0  0
   39.6480   23.3650   32.9350 O   0  0  0  0  0  1  0  0  0  0  0  0
   39.6710   22.5730   36.8760 C   0  0  0  0  0  0  0  0  0  0  0  0
   38.9130   23.3270   37.7570 C   0  0  0  0  0  0  0  0  0  0  0  0
   38.0070   24.2230   37.2320 C   0  0  0  0  0  0  0  0  0  0  0  0
   37.8560   24.3680   35.8710 N   0  0  0  0  0  0  0  0  0  0  0  0
   38.6130   23.6170   35.0550 C   0  0  0  0  0  0  0  0  0  0  0  0
   39.4770   22.7620   35.5800 N   0  0  0  0  0  0  0  0  0  0  0  0
   40.3870   21.8640   37.2430 H   0  0  0  0  0  0  0  0  0  0  0  0
   39.0550   23.1910   38.8130 H   0  0  0  0  0  0  0  0  0  0  0  0
   37.4000   24.8270   37.8950 H   0  0  0  0  0  0  0  0  0  0  0  0
  1 16  1  0  0  0  0
  2  1  1  0  0  0  0
  2  7  1  0  0  0  0
  3  2  2  0  0  0  0
  4  5  2  0  0  0  0
  4  3  1  0  0  0  0
  5  6  1  0  0  0  0
  6 11  1  0  0  0  0
  6  1  2  0  0  0  0
  8  3  1  0  0  0  0
  9  4  1  0  0  0  0
 10  5  1  0  0  0  0
 12 11  1  0  0  0  0
 13 12  1  0  0  0  0
 14 15  1  0  0  0  0
 14 13  1  0  0  0  0
 15 11  1  0  0  0  0
 16 17  1  6  0  0  0
 16 22  1  0  0  0  0
 18 24  1  0  0  0  0
 18 19  1  0  0  0  0
 19 25  1  0  0  0  0
 20 19  2  0  0  0  0
 20 26  1  0  0  0  0
 21 20  1  0  0  0  0
 22 23  1  0  0  0  0
 22 21  2  0  0  0  0
 23 18  2  0  0  0  0
M  END
>  <minimizedAffinity>
-5.16581631

$$$$

 OpenBabel03272509393D

 26 28  0  0  1  0  0  0  0  0999 V2000
   37.7890   23.4790   33.2910 C   0  0  0  0  0  0  0  0  0  0  0  0
   37.1490   22.2580   33.0180 C   0  0  0  0  0  0  0  0  0  0  0  0
   36.0770   22.1890   32.1010 C   0  0  0  0  0  0  0  0  0  0  0  0
   35.6530   23.3730   31.4550 C   0  0  0  0  0  0  0  0  0  0  0  0
   36.3180   24.5650   31.7570 C   0  0  0  0  0  0  0  0  0  0  0  0
   37.3520   24.5930   32.6510 C   0  0  0  0  0  0  0  0  0  0  0  0
   37.4840   21.3630   33.5190 H   0  0  0  0  0  0  0  0  0  0  0  0
   35.6420   21.2110   31.9500 H   0  0  0  0  0  0  0  0  0  0  0  0
   34.8290   23.2420   30.7680 H   0  0  0  0  0  0  0  0  0  0  0  0
   35.8730   25.3610   31.1810 H   0  0  0  0  0  0  0  0  0  0  0  0
   37.8800   25.9420   32.7730 C   0  0  0  0  0  3  0  0  0  0  0  0
   37.4990   26.6600   31.4890 C   0  0  0  0  0  2  0  0  0  0  0  0
   37.5090   28.1030   31.9970 C   0  0  0  0  0  2  0  0  0  0  0  0
   36.6280   27.9490   33.2150 C   0  0  0  0  0  2  0  0  0  0  0  0
   37.1160   26.7100   33.8740 C   0  0  0  0  0  2  0  0  0  0  0  0
   38.8720   23.4720   34.2390 C   0  0  2  0  0  3  0  0  0  0  0  0
   40.0400   23.4460   33.6930 O   0  0  0  0  0  1  0  0  0  0  0  0
   39.8180   22.7710   37.6670 C   0  0  0  0  0  0  0  0  0  0  0  0
   38.8460   23.4040   38.4240 C   0  0  0  0  0  0  0  0  0  0  0  0
   37.8420   24.0750   37.7610 C   0  0  0  0  0  0  0  0  0  0  0  0
   37.8010   24.1170   36.3850 N   0  0  0  0  0  0  0  0  0  0  0  0
   38.7650   23.4900   35.6930 C   0  0  0  0  0  0  0  0  0  0  0  0
   39.7210   22.8500   36.3490 N   0  0  0  0  0  0  0  0  0  0  0  0
   40.6170   22.2370   38.1440 H   0  0  0  0  0  0  0  0  0  0  0  0
   38.9060   23.3540   39.4950 H   0  0  0  0  0  0  0  0  0  0  0  0
   37.0670   24.5810   38.3240 H   0  0  0  0  0  0  0  0  0  0  0  0
  1 16  1  0  0  0  0
  2  1  1  0  0  0  0
  2  7  1  0  0  0  0
  3  2  2  0  0  0  0
  4  5  2  0  0  0  0
  4  3  1  0  0  0  0
  5  6  1  0  0  0  0
  6 11  1  0  0  0  0
  6  1  2  0  0  0  0
  8  3  1  0  0  0  0
  9  4  1  0  0  0  0
 10  5  1  0  0  0  0
 11 15  1  0  0  0  0
 12 13  1  0  0  0  0
 12 11  1  0  0  0  0
 13 14  1  0  0  0  0
 14 15  1  0  0  0  0
 16 17  1  1  0  0  0
 16 22  1  0  0  0  0
 18 24  1  0  0  0  0
 18 19  1  0  0  0  0
 19 25  1  0  0  0  0
 20 26  1  0  0  0  0
 20 19  2  0  0  0  0
 21 20  1  0  0  0  0
 22 23  1  0  0  0  0
 22 21  2  0  0  0  0
 23 18  2  0  0  0  0
M  END
>  <minimizedAffinity>
-5.06566095

$$$$

 OpenBabel03272509393D

 26 28  0  0  1  0  0  0  0  0999 V2000
   37.1890   25.1830   32.5470 C   0  0  0  0  0  0  0  0  0  0  0  0
   36.6760   23.9730   32.0500 C   0  0  0  0  0  0  0  0  0  0  0  0
   35.5640   23.9590   31.1800 C   0  0  0  0  0  0  0  0  0  0  0  0
   34.9680   25.1870   30.8110 C   0  0  0  0  0  0  0  0  0  0  0  0
   35.5110   26.3660   31.3300 C   0  0  0  0  0  0  0  0  0  0  0  0
   36.5900   26.3410   32.1700 C   0  0  0  0  0  0  0  0  0  0  0  0
   37.1420   23.0430   32.3400 H   0  0  0  0  0  0  0  0  0  0  0  0
   35.2340   22.9850   30.8450 H   0  0  0  0  0  0  0  0  0  0  0  0
   34.1230   25.0960   30.1440 H   0  0  0  0  0  0  0  0  0  0  0  0
   34.9440   27.2010   30.9500 H   0  0  0  0  0  0  0  0  0  0  0  0
   36.9670   27.6910   32.5510 C   0  0  0  0  0  3  0  0  0  0  0  0
   36.2660   28.6160   31.5700 C   0  0  0  0  0  2  0  0  0  0  0  0
   36.2020   29.8850   32.4230 C   0  0  0  0  0  2  0  0  0  0  0  0
   35.5950   29.3110   33.6820 C   0  0  0  0  0  2  0  0  0  0  0  0
   36.3420   28.0500   33.9170 C   0  0  0  0  0  2  0  0  0  0  0  0
   38.3240   25.1180   33.4300 C   0  0  1  0  0  3  0  0  0  0  0  0
   39.4170   25.5550   32.9050 O   0  0  0  0  0  1  0  0  0  0  0  0
   38.9670   22.7940   36.1360 C   0  0  0  0  0  0  0  0  0  0  0  0
   38.5420   23.4660   37.2700 C   0  0  0  0  0  0  0  0  0  0  0  0
   38.0160   24.7300   37.1160 C   0  0  0  0  0  0  0  0  0  0  0  0
   37.9130   25.3130   35.8730 N   0  0  0  0  0  0  0  0  0  0  0  0
   38.3390   24.6240   34.8020 C   0  0  0  0  0  0  0  0  0  0  0  0
   38.8410   23.4100   34.9710 N   0  0  0  0  0  0  0  0  0  0  0  0
   39.3820   21.8070   36.2120 H   0  0  0  0  0  0  0  0  0  0  0  0
   38.6360   22.9850   38.2260 H   0  0  0  0  0  0  0  0  0  0  0  0
   37.6750   25.2820   37.9840 H   0  0  0  0  0  0  0  0  0  0  0  0
  1 16  1  0  0  0  0
  2  7  1  0  0  0  0
  2  1  2  0  0  0  0
  3  2  1  0  0  0  0
  4  3  2  0  0  0  0
  4  5  1  0  0  0  0
  5  6  2  0  0  0  0
  6  1  1  0  0  0  0
  6 11  1  0  0  0  0
  8  3  1  0  0  0  0
  9  4  1  0  0  0  0
 10  5  1  0  0  0  0
 11 15  1  0  0  0  0
 12 13  1  0  0  0  0
 12 11  1  0  0  0  0
 13 14  1  0  0  0  0
 14 15  1  0  0  0  0
 16 17  1  1  0  0  0
 16 22  1  0  0  0  0
 18 24  1  0  0  0  0
 18 19  1  0  0  0  0
 19 25  1  0  0  0  0
 20 19  2  0  0  0  0
 20 26  1  0  0  0  0
 21 20  1  0  0  0  0
 22 23  1  0  0  0  0
 22 21  2  0  0  0  0
 23 18  2  0  0  0  0
M  END
>  <minimizedAffinity>
-5.05541658

$$$$

 OpenBabel03272509393D

 26 28  0  0  1  0  0  0  0  0999 V2000
   38.9790   24.4210   35.9590 C   0  0  0  0  0  0  0  0  0  0  0  0
   38.2890   25.6450   35.9810 C   0  0  0  0  0  0  0  0  0  0  0  0
   38.8640   26.8120   35.4320 C   0  0  0  0  0  0  0  0  0  0  0  0
   40.1520   26.7330   34.8530 C   0  0  0  0  0  0  0  0  0  0  0  0
   40.8010   25.4950   34.8550 C   0  0  0  0  0  0  0  0  0  0  0  0
   40.2130   24.3860   35.3970 C   0  0  0  0  0  0  0  0  0  0  0  0
   37.3070   25.6900   36.4250 H   0  0  0  0  0  0  0  0  0  0  0  0
   38.2660   27.7100   35.4900 H   0  0  0  0  0  0  0  0  0  0  0  0
   40.5250   27.6660   34.4540 H   0  0  0  0  0  0  0  0  0  0  0  0
   41.7620   25.6120   34.3790 H   0  0  0  0  0  0  0  0  0  0  0  0
   41.0840   23.2310   35.2550 C   0  0  0  0  0  3  0  0  0  0  0  0
   42.0900   23.5920   34.1750 C   0  0  0  0  0  2  0  0  0  0  0  0
   43.2360   22.6630   34.5800 C   0  0  0  0  0  2  0  0  0  0  0  0
   43.3470   23.0220   36.0430 C   0  0  0  0  0  2  0  0  0  0  0  0
   41.9440   23.0590   36.5260 C   0  0  0  0  0  2  0  0  0  0  0  0
   38.3300   23.2750   36.5400 C   0  0  2  0  0  3  0  0  0  0  0  0
   38.6320   23.0790   37.7790 O   0  0  0  0  0  1  0  0  0  0  0  0
   36.8880   21.3850   33.8030 C   0  0  0  0  0  0  0  0  0  0  0  0
   35.8600   20.6660   34.3910 C   0  0  0  0  0  0  0  0  0  0  0  0
   35.6420   20.8310   35.7420 C   0  0  0  0  0  0  0  0  0  0  0  0
   36.4210   21.6860   36.4900 N   0  0  0  0  0  0  0  0  0  0  0  0
   37.4070   22.3610   35.8780 C   0  0  0  0  0  0  0  0  0  0  0  0
   37.6000   22.1890   34.5790 N   0  0  0  0  0  0  0  0  0  0  0  0
   37.0910   21.2860   32.7550 H   0  0  0  0  0  0  0  0  0  0  0  0
   35.2710   20.0070   33.7810 H   0  0  0  0  0  0  0  0  0  0  0  0
   34.8470   20.2830   36.2310 H   0  0  0  0  0  0  0  0  0  0  0  0
  1  2  1  0  0  0  0
  1 16  1  0  0  0  0
  2  7  1  0  0  0  0
  3  8  1  0  0  0  0
  3  2  2  0  0  0  0
  4  5  2  0  0  0  0
  4  3  1  0  0  0  0
  5  6  1  0  0  0  0
  6  1  2  0  0  0  0
  9  4  1  0  0  0  0
 10  5  1  0  0  0  0
 11  6  1  0  0  0  0
 11 15  1  0  0  0  0
 12 13  1  0  0  0  0
 12 11  1  0  0  0  0
 13 14  1  0  0  0  0
 14 15  1  0  0  0  0
 16 17  1  6  0  0  0
 18 19  2  0  0  0  0
 18 23  1  0  0  0  0
 19 20  1  0  0  0  0
 20 26  1  0  0  0  0
 20 21  2  0  0  0  0
 22 21  1  0  0  0  0
 22 16  1  0  0  0  0
 23 22  2  0  0  0  0
 24 18  1  0  0  0  0
 25 19  1  0  0  0  0
M  END
>  <minimizedAffinity>
-5.02490664

$$$$

 OpenBabel03272509393D

 26 28  0  0  1  0  0  0  0  0999 V2000
   38.6770   23.7940   35.9610 C   0  0  0  0  0  0  0  0  0  0  0  0
   37.7050   24.2900   36.8470 C   0  0  0  0  0  0  0  0  0  0  0  0
   37.8250   24.0950   38.2410 C   0  0  0  0  0  0  0  0  0  0  0  0
   38.9460   23.3900   38.7380 C   0  0  0  0  0  0  0  0  0  0  0  0
   39.8870   22.9140   37.8210 C   0  0  0  0  0  0  0  0  0  0  0  0
   39.7370   23.1220   36.4780 C   0  0  0  0  0  0  0  0  0  0  0  0
   36.8560   24.8270   36.4530 H   0  0  0  0  0  0  0  0  0  0  0  0
   37.0340   24.5090   38.8500 H   0  0  0  0  0  0  0  0  0  0  0  0
   38.9690   23.2800   39.8130 H   0  0  0  0  0  0  0  0  0  0  0  0
   40.6680   22.4060   38.3640 H   0  0  0  0  0  0  0  0  0  0  0  0
   40.8540   22.5460   35.7480 C   0  0  0  0  0  3  0  0  0  0  0  0
   41.9050   23.6390   35.6580 C   0  0  0  0  0  2  0  0  0  0  0  0
   43.1550   22.7710   35.4960 C   0  0  0  0  0  2  0  0  0  0  0  0
   42.9610   21.8290   36.6600 C   0  0  0  0  0  2  0  0  0  0  0  0
   41.5280   21.4450   36.5960 C   0  0  0  0  0  2  0  0  0  0  0  0
   38.4850   24.0300   34.5550 C   0  0  1  0  0  3  0  0  0  0  0  0
   39.0190   25.1260   34.1340 O   0  0  0  0  0  1  0  0  0  0  0  0
   36.7820   23.1410   31.4810 C   0  0  0  0  0  0  0  0  0  0  0  0
   36.4720   21.8000   31.6400 C   0  0  0  0  0  0  0  0  0  0  0  0
   36.8380   21.1840   32.8170 C   0  0  0  0  0  0  0  0  0  0  0  0
   37.4930   21.8780   33.8100 N   0  0  0  0  0  0  0  0  0  0  0  0
   37.7730   23.1760   33.6120 C   0  0  0  0  0  0  0  0  0  0  0  0
   37.4120   23.7490   32.4740 N   0  0  0  0  0  0  0  0  0  0  0  0
   36.5140   23.6580   30.5800 H   0  0  0  0  0  0  0  0  0  0  0  0
   35.9620   21.2870   30.8460 H   0  0  0  0  0  0  0  0  0  0  0  0
   36.6110   20.1370   32.9710 H   0  0  0  0  0  0  0  0  0  0  0  0
  1  6  2  0  0  0  0
  1  2  1  0  0  0  0
  2  3  2  0  0  0  0
  3  4  1  0  0  0  0
  3  8  1  0  0  0  0
  4  9  1  0  0  0  0
  5 10  1  0  0  0  0
  5  4  2  0  0  0  0
  6  5  1  0  0  0  0
  7  2  1  0  0  0  0
 11  6  1  0  0  0  0
 11 15  1  0  0  0  0
 12 11  1  0  0  0  0
 13 12  1  0  0  0  0
 13 14  1  0  0  0  0
 15 14  1  0  0  0  0
 16 17  1  6  0  0  0
 16  1  1  0  0  0  0
 18 19  2  0  0  0  0
 18 23  1  0  0  0  0
 19 20  1  0  0  0  0
 20 26  1  0  0  0  0
 20 21  2  0  0  0  0
 22 21  1  0  0  0  0
 22 16  1  0  0  0  0
 23 22  2  0  0  0  0
 24 18  1  0  0  0  0
 25 19  1  0  0  0  0
M  END
>  <minimizedAffinity>
-5.02448225

$$$$

 OpenBabel03272509393D

 26 28  0  0  1  0  0  0  0  0999 V2000
   38.5130   23.6220   36.0540 C   0  0  0  0  0  0  0  0  0  0  0  0
   37.5580   24.0890   36.9730 C   0  0  0  0  0  0  0  0  0  0  0  0
   37.7820   23.9960   38.3640 C   0  0  0  0  0  0  0  0  0  0  0  0
   38.9900   23.4220   38.8250 C   0  0  0  0  0  0  0  0  0  0  0  0
   39.9110   22.9700   37.8760 C   0  0  0  0  0  0  0  0  0  0  0  0
   39.6590   23.0770   36.5360 C   0  0  0  0  0  0  0  0  0  0  0  0
   36.6420   24.5260   36.6060 H   0  0  0  0  0  0  0  0  0  0  0  0
   36.9970   24.3790   39.0000 H   0  0  0  0  0  0  0  0  0  0  0  0
   39.0900   23.3850   39.9010 H   0  0  0  0  0  0  0  0  0  0  0  0
   40.7670   22.5670   38.3940 H   0  0  0  0  0  0  0  0  0  0  0  0
   40.7750   22.5530   35.7670 C   0  0  0  0  0  3  0  0  0  0  0  0
   41.7610   23.7000   35.6220 C   0  0  0  0  0  2  0  0  0  0  0  0
   43.0490   22.8980   35.4180 C   0  0  0  0  0  2  0  0  0  0  0  0
   42.9530   21.9630   36.6000 C   0  0  0  0  0  2  0  0  0  0  0  0
   41.5420   21.5020   36.5990 C   0  0  0  0  0  2  0  0  0  0  0  0
   38.2140   23.7500   34.6520 C   0  0  2  0  0  3  0  0  0  0  0  0
   37.9190   22.6330   34.0800 O   0  0  0  0  0  1  0  0  0  0  0  0
   39.4610   26.9180   33.4100 C   0  0  0  0  0  0  0  0  0  0  0  0
   38.5140   27.3160   32.4800 C   0  0  0  0  0  0  0  0  0  0  0  0
   37.4220   26.4990   32.2760 C   0  0  0  0  0  0  0  0  0  0  0  0
   37.2730   25.3210   32.9740 N   0  0  0  0  0  0  0  0  0  0  0  0
   38.2180   24.9760   33.8640 C   0  0  0  0  0  0  0  0  0  0  0  0
   39.2580   25.7750   34.0460 N   0  0  0  0  0  0  0  0  0  0  0  0
   40.3250   27.5250   33.5990 H   0  0  0  0  0  0  0  0  0  0  0  0
   38.6590   28.2390   31.9520 H   0  0  0  0  0  0  0  0  0  0  0  0
   36.6640   26.7820   31.5560 H   0  0  0  0  0  0  0  0  0  0  0  0
  1  6  2  0  0  0  0
  1  2  1  0  0  0  0
  2  3  2  0  0  0  0
  3  4  1  0  0  0  0
  3  8  1  0  0  0  0
  4  9  1  0  0  0  0
  5 10  1  0  0  0  0
  5  4  2  0  0  0  0
  6  5  1  0  0  0  0
  7  2  1  0  0  0  0
 11  6  1  0  0  0  0
 11 15  1  0  0  0  0
 12 11  1  0  0  0  0
 13 12  1  0  0  0  0
 13 14  1  0  0  0  0
 15 14  1  0  0  0  0
 16 17  1  6  0  0  0
 16  1  1  0  0  0  0
 18 24  1  0  0  0  0
 18 23  1  0  0  0  0
 19 18  2  0  0  0  0
 20 19  1  0  0  0  0
 20 21  2  0  0  0  0
 21 22  1  0  0  0  0
 22 23  2  0  0  0  0
 22 16  1  0  0  0  0
 25 19  1  0  0  0  0
 26 20  1  0  0  0  0
M  END
>  <minimizedAffinity>
-5.01225567

$$$$
