
     RDKit          3D

 42 44  0  0  0  0  0  0  0  0999 V2000
   38.1624   31.2336   44.9216 C   0  0  0  0  0  0  0  0  0  0  0  0
   37.3378   30.9468   45.9706 C   0  0  0  0  0  0  0  0  0  0  0  0
   36.1000   30.3613   45.7312 C   0  0  0  0  0  0  0  0  0  0  0  0
   35.6517   30.0508   44.4609 C   0  0  0  0  0  0  0  0  0  0  0  0
   36.4686   30.3342   43.3787 C   0  0  0  0  0  0  0  0  0  0  0  0
   37.6788   30.9084   43.6512 C   0  0  0  0  0  0  0  0  0  0  0  0
   38.6914   32.7715   48.8598 C   0  0  0  0  0  0  0  0  0  0  0  0
   38.3118   32.4386   47.5642 C   0  0  0  0  0  0  0  0  0  0  0  0
   37.6987   31.2572   47.3107 C   0  0  0  0  0  0  0  0  0  0  0  0
   37.4767   30.4358   48.3788 N   0  0  0  0  0  0  0  0  0  0  0  0
   37.8338   30.7485   49.6244 C   0  0  0  0  0  0  0  0  0  0  0  0
   38.4420   31.9156   49.8557 N   0  0  0  0  0  0  0  0  0  0  0  0
   37.4623   29.7865   50.6961 C   0  0  0  0  0  0  0  0  0  0  0  0
   37.7224   30.2975   51.9598 F   0  0  0  0  0  0  0  0  0  0  0  0
   36.0218   29.6433   50.6994 F   0  0  0  0  0  0  0  0  0  0  0  0
   37.8970   28.5547   50.5735 F   0  0  0  0  0  0  0  0  0  0  0  0
   39.7295   31.9248   45.0994 S   0  0  0  0  0  0  0  0  0  0  0  0
   39.6846   33.3959   44.8873 O   0  0  0  0  0  0  0  0  0  0  0  0
   40.2902   31.6001   43.7424 O   0  0  0  0  0  0  0  0  0  0  0  0
   41.1343   31.2531   45.7432 C   0  0  0  0  0  0  0  0  0  0  0  0
   35.4541   30.1373   46.5883 H   0  0  0  0  0  0  0  0  0  0  0  0
   34.6736   29.5968   44.3757 H   0  0  0  0  0  0  0  0  0  0  0  0
   36.0881   30.0802   42.4002 H   0  0  0  0  0  0  0  0  0  0  0  0
   38.2304   31.0861   42.7198 H   0  0  0  0  0  0  0  0  0  0  0  0
   39.1826   33.6542   49.2278 H   0  0  0  0  0  0  0  0  0  0  0  0
   38.5877   33.2913   46.9920 H   0  0  0  0  0  0  0  0  0  0  0  0
   40.9122   31.0471   46.8443 H   0  0  0  0  0  0  0  0  0  0  0  0
   41.8358   32.1114   45.8342 H   0  0  0  0  0  0  0  0  0  0  0  0
   41.8676   30.0688   45.3085 C   0  0  0  0  0  0  0  0  0  0  0  0
   40.8762   29.0936   44.6932 C   0  0  0  0  0  0  0  0  0  0  0  0
   41.2219   29.1191   43.2401 C   0  0  0  0  0  0  0  0  0  0  0  0
   42.7538   29.1517   43.2722 C   0  0  0  0  0  0  0  0  0  0  0  0
   42.9465   30.2610   44.3129 C   0  0  0  0  0  0  0  0  0  0  0  0
   42.2663   29.5213   46.2112 H   0  0  0  0  0  0  0  0  0  0  0  0
   40.9876   28.0621   45.0564 H   0  0  0  0  0  0  0  0  0  0  0  0
   39.8227   29.4527   44.7968 H   0  0  0  0  0  0  0  0  0  0  0  0
   40.8542   28.2578   42.6710 H   0  0  0  0  0  0  0  0  0  0  0  0
   40.9299   30.0431   42.7152 H   0  0  0  0  0  0  0  0  0  0  0  0
   43.1905   29.4290   42.3012 H   0  0  0  0  0  0  0  0  0  0  0  0
   43.0690   28.1739   43.6723 H   0  0  0  0  0  0  0  0  0  0  0  0
   43.9459   30.0777   44.7521 H   0  0  0  0  0  0  0  0  0  0  0  0
   42.9236   31.2179   43.7590 H   0  0  0  0  0  0  0  0  0  0  0  0
  1 17  1  0
  1  2  1  0
  2  9  1  0
  3  2  2  0
  4  3  1  0
  5  6  1  0
  5  4  2  0
  6  1  2  0
  7 12  2  0
  8  7  1  0
  9  8  2  0
  9 10  1  0
 10 11  2  0
 11 12  1  0
 11 13  1  0
 13 15  1  0
 13 14  1  0
 16 13  1  0
 17 20  1  0
 18 17  2  0
 19 17  2  0
  3 21  1  0
  4 22  1  0
  5 23  1  0
  6 24  1  0
  7 25  1  0
  8 26  1  0
 20 27  1  0
 20 28  1  0
 29 30  1  0
 30 31  1  0
 31 32  1  0
 32 33  1  0
 33 29  1  0
 29 34  1  0
 30 35  1  0
 30 36  1  0
 31 37  1  0
 31 38  1  0
 32 39  1  0
 32 40  1  0
 33 41  1  0
 33 42  1  0
 20 29  1  0
M  ISO  8  21  14  22  14  23  14  24  14  25  14  26  14  27   8  28   8
M  END
>  <DihAtoms>  (1) 
16,19,28,29

>  <DihDeg>  (1) 
179.99625183096498

$$$$
