
 OpenBabel03272507373D

 19 20  0  0  0  0  0  0  0  0999 V2000
   37.2070   30.7960   46.6520 C   0  0  0  0  0  0  0  0  0  0  0  0
   38.4320   30.7860   45.9990 C   0  0  0  0  0  0  0  0  0  0  0  0
   38.4910   30.3650   44.6820 C   0  0  0  0  0  0  0  0  0  0  0  0
   37.3200   29.9770   44.0940 N   0  0  0  0  0  0  0  0  0  0  0  0
   36.1370   29.9960   44.7560 C   0  0  0  0  0  0  0  0  0  0  0  0
   36.0900   30.4050   46.0290 N   0  0  0  0  0  0  0  0  0  0  0  0
   39.4130   30.3340   44.1170 H   0  0  0  0  0  0  0  0  0  0  0  0
   35.2220   29.6840   44.2700 H   0  0  0  0  0  0  0  0  0  0  0  0
   40.2300   32.4100   46.2150 C   0  0  0  0  0  0  0  0  0  0  0  0
   39.9030   33.3920   45.4450 O   0  0  0  0  0  0  0  0  0  0  0  0
   39.6460   31.1710   46.5540 N   0  0  0  0  0  0  0  0  0  0  0  0
   41.1420   32.9260   46.4980 H   0  0  0  0  0  0  0  0  0  0  0  0
   40.2840   30.7180   47.2250 H   0  0  0  0  0  0  0  0  0  0  0  0
   37.3060   31.2410   47.9630 O   0  0  0  0  0  0  0  0  0  0  0  0
   37.2640   30.2890   48.9770 C   0  0  0  0  0  0  0  0  0  0  0  0
   37.7770   30.8320   50.3140 C   0  0  0  0  0  0  0  0  0  0  0  0
   37.4420   29.6090   51.1810 C   0  0  0  0  0  0  0  0  0  0  0  0
   35.9570   29.4710   50.8380 C   0  0  0  0  0  0  0  0  0  0  0  0
   35.9000   29.8170   49.3470 C   0  0  0  0  0  0  0  0  0  0  0  0
  1 14  1  0  0  0  0
  2 11  1  0  0  0  0
  2  1  2  0  0  0  0
  3  2  1  0  0  0  0
  4  3  2  0  0  0  0
  4  5  1  0  0  0  0
  5  6  2  0  0  0  0
  6  1  1  0  0  0  0
  7  3  1  0  0  0  0
  8  5  1  0  0  0  0
  9 12  1  0  0  0  0
  9 11  1  0  0  0  0
 10  9  2  0  0  0  0
 11 13  1  0  0  0  0
 14 15  1  0  0  0  0
 15 19  1  0  0  0  0
 15 16  1  0  0  0  0
 16 17  1  0  0  0  0
 18 17  1  0  0  0  0
 19 18  1  0  0  0  0
M  END
>  <minimizedAffinity>
-4.68856144

>  <minimizedRMSD>
4.65339231

$$$$
