
 OpenBabel03272506593D

 31 34  0  0  0  0  0  0  0  0999 V2000
   37.3160   30.6200   48.1430 C   0  0  0  0  0  0  0  0  0  0  0  0
   37.9110   30.3800   49.3770 C   0  0  0  0  0  0  0  0  0  0  0  0
   37.3540   29.6620   50.4180 C   0  0  0  0  0  0  0  0  0  0  0  0
   36.1200   29.1650   50.1840 N   0  0  0  0  0  0  0  0  0  0  0  0
   35.5110   29.3790   48.9970 C   0  0  0  0  0  0  0  0  0  0  0  0
   36.0940   30.0870   48.0050 N   0  0  0  0  0  0  0  0  0  0  0  0
   38.9060   30.7830   49.5600 H   0  0  0  0  0  0  0  0  0  0  0  0
   37.8590   29.5100   51.3420 H   0  0  0  0  0  0  0  0  0  0  0  0
   38.0470   32.0740   44.9130 C   0  0  0  0  0  0  0  0  0  0  0  0
   39.2280   32.8090   45.0930 C   0  0  0  0  0  0  0  0  0  0  0  0
   39.7590   32.7830   46.3780 C   0  0  0  0  0  0  0  0  0  0  0  0
   39.1360   32.0780   47.3470 N   0  0  0  0  0  0  0  0  0  0  0  0
   38.0160   31.3950   47.1240 C   0  0  0  0  0  0  0  0  0  0  0  0
   37.4100   31.3590   45.8840 N   0  0  0  0  0  0  0  0  0  0  0  0
   37.5950   32.0650   43.9300 H   0  0  0  0  0  0  0  0  0  0  0  0
   40.6740   33.3370   46.5670 H   0  0  0  0  0  0  0  0  0  0  0  0
   39.8130   33.5150   44.0260 N   0  0  0  0  0  0  0  0  0  0  0  0
   40.7640   33.2410   43.6980 H   0  0  0  0  0  0  0  0  0  0  0  0
   39.3590   34.3130   43.5250 H   0  0  0  0  0  0  0  0  0  0  0  0
   34.1850   28.8940   48.6270 C   0  0  0  0  0  0  0  0  0  0  0  0
   33.6430   29.3880   47.4520 C   0  0  0  0  0  0  0  0  0  0  0  0
   32.4050   28.8280   47.2600 N   0  0  0  0  0  0  0  0  0  0  0  0
   32.2090   28.0080   48.3120 C   0  0  0  0  0  0  0  0  0  0  0  0
   33.2840   28.0270   49.1670 N   0  0  0  0  0  0  0  0  0  0  0  0
   34.0020   30.0870   46.7130 H   0  0  0  0  0  0  0  0  0  0  0  0
   31.7320   28.9840   46.4770 H   0  0  0  0  0  0  0  0  0  0  0  0
   30.9890   27.1590   48.5620 C   0  0  0  0  0  0  0  0  0  0  0  0
   30.1500   27.7140   49.6640 C   0  0  0  0  0  0  0  0  0  0  0  0
   29.0430   28.4270   48.9440 C   0  0  0  0  0  0  0  0  0  0  0  0
   28.9250   27.8520   47.5620 C   0  0  0  0  0  0  0  0  0  0  0  0
   30.1590   27.0470   47.3220 C   0  0  0  0  0  0  0  0  0  0  0  0
  1  2  1  0  0  0  0
  2  7  1  0  0  0  0
  2  3  2  0  0  0  0
  3  8  1  0  0  0  0
  4  3  1  0  0  0  0
  5  4  2  0  0  0  0
  6  1  2  0  0  0  0
  6  5  1  0  0  0  0
  9 10  2  0  0  0  0
  9 14  1  0  0  0  0
 10 11  1  0  0  0  0
 11 16  1  0  0  0  0
 11 12  2  0  0  0  0
 13 12  1  0  0  0  0
 13  1  1  0  0  0  0
 14 13  2  0  0  0  0
 15  9  1  0  0  0  0
 17 10  1  0  0  0  0
 18 17  1  0  0  0  0
 19 17  1  0  0  0  0
 20  5  1  0  0  0  0
 20 24  1  0  0  0  0
 21 20  2  0  0  0  0
 22 21  1  0  0  0  0
 22 23  1  0  0  0  0
 23 27  1  0  0  0  0
 23 24  2  0  0  0  0
 25 21  1  0  0  0  0
 26 22  1  0  0  0  0
 27 28  1  0  0  0  0
 29 28  1  0  0  0  0
 30 29  1  0  0  0  0
 31 30  1  0  0  0  0
 31 27  1  0  0  0  0
M  END
>  <minimizedAffinity>
-6.27490473

>  <minimizedRMSD>
2.74701214

$$$$
