
 OpenBabel03272506183D

 30 32  0  0  0  0  0  0  0  0999 V2000
   35.4610   30.2970   49.8540 C   0  0  0  0  0  0  0  0  0  0  0  0
   36.4520   31.1450   49.0810 C   0  0  0  0  0  0  0  0  0  0  0  0
   37.8750   30.7090   49.2670 C   0  0  0  0  0  0  0  0  0  0  0  0
   38.2620   30.6760   50.7220 C   0  0  0  0  0  0  0  0  0  0  0  0
   37.2390   30.0070   51.5950 C   0  0  0  0  0  0  0  0  0  0  0  0
   36.1190   29.3610   50.8090 C   0  0  0  0  0  0  0  0  0  0  0  0
   34.7340   30.9790   50.3380 H   0  0  0  0  0  0  0  0  0  0  0  0
   36.3960   32.1880   49.4530 H   0  0  0  0  0  0  0  0  0  0  0  0
   36.2240   31.1660   48.0000 H   0  0  0  0  0  0  0  0  0  0  0  0
   37.9950   29.6920   48.8100 H   0  0  0  0  0  0  0  0  0  0  0  0
   38.5130   31.4170   48.7340 H   0  0  0  0  0  0  0  0  0  0  0  0
   38.3160   31.7490   51.0420 H   0  0  0  0  0  0  0  0  0  0  0  0
   39.2700   30.2500   50.8130 H   0  0  0  0  0  0  0  0  0  0  0  0
   36.7590   30.7120   52.3040 H   0  0  0  0  0  0  0  0  0  0  0  0
   37.7270   29.2100   52.1910 H   0  0  0  0  0  0  0  0  0  0  0  0
   35.3980   28.9840   51.5410 H   0  0  0  0  0  0  0  0  0  0  0  0
   36.5900   28.5310   50.2130 H   0  0  0  0  0  0  0  0  0  0  0  0
   34.6590   29.4730   48.8960 C   0  0  0  0  0  0  0  0  0  0  0  0
   34.2530   30.1310   47.7200 C   0  0  0  0  0  0  0  0  0  0  0  0
   33.4880   29.3700   46.8180 C   0  0  0  0  0  0  0  0  0  0  0  0
   33.1800   28.0590   47.1120 N   0  0  0  0  0  0  0  0  0  0  0  0
   33.6070   27.4750   48.2750 C   0  0  0  0  0  0  0  0  0  0  0  0
   34.3310   28.1820   49.1400 N   0  0  0  0  0  0  0  0  0  0  0  0
   34.4550   31.1370   47.4380 H   0  0  0  0  0  0  0  0  0  0  0  0
   33.3820   26.4640   48.5250 H   0  0  0  0  0  0  0  0  0  0  0  0
   32.9740   29.8660   45.5490 C   0  0  0  0  0  3  0  0  0  0  0  0
   34.0840   30.3060   44.5870 C   0  0  0  0  0  2  0  0  0  0  0  0
   33.1790   30.7380   43.4250 C   0  0  0  0  0  2  0  0  0  0  0  0
   32.1180   31.5290   44.1520 C   0  0  0  0  0  2  0  0  0  0  0  0
   32.1620   31.1170   45.6100 C   0  0  0  0  0  2  0  0  0  0  0  0
  1  7  1  0  0  0  0
  1  6  1  0  0  0  0
  2  3  1  0  0  0  0
  2  8  1  0  0  0  0
  2  1  1  0  0  0  0
  3  4  1  0  0  0  0
  4 13  1  0  0  0  0
  4 12  1  0  0  0  0
  4  5  1  0  0  0  0
  5 15  1  0  0  0  0
  5 14  1  0  0  0  0
  6 16  1  0  0  0  0
  6  5  1  0  0  0  0
  9  2  1  0  0  0  0
 10  3  1  0  0  0  0
 11  3  1  0  0  0  0
 17  6  1  0  0  0  0
 18 23  1  0  0  0  0
 18  1  1  0  0  0  0
 19 18  2  0  0  0  0
 20 21  2  0  0  0  0
 20 19  1  0  0  0  0
 21 22  1  0  0  0  0
 22 25  1  0  0  0  0
 22 23  2  0  0  0  0
 24 19  1  0  0  0  0
 26 30  1  0  0  0  0
 26 20  1  0  0  0  0
 27 26  1  0  0  0  0
 28 29  1  0  0  0  0
 28 27  1  0  0  0  0
 29 30  1  0  0  0  0
M  END
>  <minimizedAffinity>
-5.30511951

>  <minimizedRMSD>
0.320172429

$$$$
