
 OpenBabel03272502593D

 30 32  0  0  1  0  0  0  0  0999 V2000
   35.8590   29.6670   48.7580 N   0  0  0  0  0  0  0  0  0  0  0  0
   36.6250   28.8730   49.6960 C   0  0  0  0  0  0  0  0  0  0  0  0
   37.1410   29.5380   50.8930 C   0  0  0  0  0  0  0  0  0  0  0  0
   37.3690   30.9860   50.8540 C   0  0  0  0  0  0  0  0  0  0  0  0
   36.5860   31.7100   49.7870 C   0  0  0  0  0  0  0  0  0  0  0  0
   36.5840   30.8810   48.4980 C   0  0  1  0  0  0  0  0  0  0  0  0
   37.4800   28.4600   49.0880 H   0  0  0  0  0  0  0  0  0  0  0  0
   36.0000   27.9910   49.9580 H   0  0  0  0  0  0  0  0  0  0  0  0
   36.4460   29.2980   51.7440 H   0  0  0  0  0  0  0  0  0  0  0  0
   38.1000   29.0410   51.1920 H   0  0  0  0  0  0  0  0  0  0  0  0
   37.0670   31.4630   51.8320 H   0  0  0  0  0  0  0  0  0  0  0  0
   38.4550   31.2340   50.7550 H   0  0  0  0  0  0  0  0  0  0  0  0
   37.0610   32.6930   49.5570 H   0  0  0  0  0  0  0  0  0  0  0  0
   35.5390   31.8440   50.0960 H   0  0  0  0  0  0  0  0  0  0  0  0
   36.1220   31.4780   47.7090 H   0  0  0  0  0  0  0  0  0  0  0  0
   34.5980   29.2840   48.2000 C   0  0  0  0  0  0  0  0  0  0  0  0
   34.0600   29.8270   47.0370 C   0  0  0  0  0  0  0  0  0  0  0  0
   32.8300   29.3740   46.5960 C   0  0  0  0  0  0  0  0  0  0  0  0
   32.2040   28.4100   47.3300 N   0  0  0  0  0  0  0  0  0  0  0  0
   32.7580   27.9080   48.4540 C   0  0  0  0  0  0  0  0  0  0  0  0
   33.9480   28.3480   48.8780 N   0  0  0  0  0  0  0  0  0  0  0  0
   34.6190   30.5750   46.5260 H   0  0  0  0  0  0  0  0  0  0  0  0
   32.4070   29.7920   45.6930 H   0  0  0  0  0  0  0  0  0  0  0  0
   32.2150   27.1450   48.9970 H   0  0  0  0  0  0  0  0  0  0  0  0
   37.9410   30.6150   48.2350 O   0  0  0  0  0  0  0  0  0  0  0  0
   38.2940   31.3570   47.1320 C   0  0  0  0  0  3  0  0  0  0  0  0
   39.2640   32.4840   47.4540 C   0  0  0  0  0  2  0  0  0  0  0  0
   39.7250   32.8880   46.0560 C   0  0  0  0  0  2  0  0  0  0  0  0
   39.5090   31.7040   45.1680 C   0  0  0  0  0  2  0  0  0  0  0  0
   39.0820   30.5950   46.1130 C   0  0  0  0  0  2  0  0  0  0  0  0
  1  2  1  0  0  0  0
  2  8  1  0  0  0  0
  2  3  1  0  0  0  0
  3 10  1  0  0  0  0
  3  9  1  0  0  0  0
  4  3  1  0  0  0  0
  4 11  1  0  0  0  0
  5 14  1  0  0  0  0
  5  4  1  0  0  0  0
  6 15  1  6  0  0  0
  6  1  1  0  0  0  0
  6  5  1  0  0  0  0
  7  2  1  0  0  0  0
 12  4  1  0  0  0  0
 13  5  1  0  0  0  0
 16  1  1  0  0  0  0
 16 21  1  0  0  0  0
 17 16  2  0  0  0  0
 18 17  1  0  0  0  0
 18 19  2  0  0  0  0
 19 20  1  0  0  0  0
 20 21  2  0  0  0  0
 20 24  1  0  0  0  0
 22 17  1  0  0  0  0
 23 18  1  0  0  0  0
 25  6  1  0  0  0  0
 26 27  1  0  0  0  0
 26 25  1  0  0  0  0
 28 27  1  0  0  0  0
 29 28  1  0  0  0  0
 29 30  1  0  0  0  0
 30 26  1  0  0  0  0
M  END
>  <minimizedAffinity>
-5.54016256

>  <minimizedRMSD>
0.67384249

$$$$
