
     RDKit          3D

 45 47  0  0  0  0  0  0  0  0999 V2000
   35.2969   30.6246   48.9563 C   0  0  1  0  0  0  0  0  0  0  0  0
   34.7950   30.1792   50.2385 C   0  0  0  0  0  0  0  0  0  0  0  0
   35.6319   29.1569   50.9845 C   0  0  0  0  0  0  0  0  0  0  0  0
   37.1045   29.3408   50.8812 C   0  0  0  0  0  0  0  0  0  0  0  0
   37.6457   29.8320   49.5937 C   0  0  0  0  0  0  0  0  0  0  0  0
   36.7844   30.8812   48.9761 C   0  0  2  0  0  0  0  0  0  0  0  0
   33.9890   28.7356   47.8304 C   0  0  0  0  0  0  0  0  0  0  0  0
   34.8798   29.8499   47.7742 C   0  0  0  0  0  0  0  0  0  0  0  0
   35.3417   30.1664   46.5116 C   0  0  0  0  0  0  0  0  0  0  0  0
   34.9482   29.4378   45.4202 N   0  0  0  0  0  0  0  0  0  0  0  0
   34.1086   28.4024   45.5431 C   0  0  0  0  0  0  0  0  0  0  0  0
   33.6254   28.0495   46.7608 N   0  0  0  0  0  0  0  0  0  0  0  0
   36.9583   32.1166   49.8636 C   0  0  0  0  0  0  0  0  0  0  0  0
   38.0436   33.0312   49.3628 C   0  0  0  0  0  0  0  0  0  0  0  0
   34.8785   31.6580   48.7399 H   0  0  0  0  0  0  0  0  0  0  0  0
   33.7659   29.8394   50.3039 H   0  0  0  0  0  0  0  0  0  0  0  0
   34.8377   31.0792   50.9239 H   0  0  0  0  0  0  0  0  0  0  0  0
   35.3693   29.1903   52.0643 H   0  0  0  0  0  0  0  0  0  0  0  0
   35.3353   28.1329   50.6508 H   0  0  0  0  0  0  0  0  0  0  0  0
   37.5523   28.3147   51.0368 H   0  0  0  0  0  0  0  0  0  0  0  0
   37.4851   29.9543   51.7240 H   0  0  0  0  0  0  0  0  0  0  0  0
   38.6255   30.3025   49.7892 H   0  0  0  0  0  0  0  0  0  0  0  0
   37.8263   29.0271   48.8371 H   0  0  0  0  0  0  0  0  0  0  0  0
   37.2013   31.1271   48.0052 H   0  0  0  0  0  0  0  0  0  0  0  0
   33.6099   28.4629   48.8068 H   0  0  0  0  0  0  0  0  0  0  0  0
   36.0123   30.9779   46.3401 H   0  0  0  0  0  0  0  0  0  0  0  0
   33.7966   27.8259   44.6828 H   0  0  0  0  0  0  0  0  0  0  0  0
   36.0288   32.7240   49.9022 H   0  0  0  0  0  0  0  0  0  0  0  0
   37.2159   31.8197   50.9010 H   0  0  0  0  0  0  0  0  0  0  0  0
   38.1562   33.8634   50.0956 H   0  0  0  0  0  0  0  0  0  0  0  0
   38.9857   32.4417   49.3881 H   0  0  0  0  0  0  0  0  0  0  0  0
   37.8806   33.6096   48.0220 C   0  0  0  0  0  0  0  0  0  0  0  0
   37.8031   32.4277   47.0400 C   0  0  0  0  0  0  0  0  0  0  0  0
   38.6724   32.7656   45.8749 C   0  0  0  0  0  0  0  0  0  0  0  0
   38.8501   34.2778   45.9964 C   0  0  0  0  0  0  0  0  0  0  0  0
   39.0788   34.3672   47.5114 C   0  0  0  0  0  0  0  0  0  0  0  0
   37.0147   34.2601   47.9207 H   0  0  0  0  0  0  0  0  0  0  0  0
   36.7458   32.3005   46.7217 H   0  0  0  0  0  0  0  0  0  0  0  0
   38.1597   31.4861   47.4978 H   0  0  0  0  0  0  0  0  0  0  0  0
   39.6610   32.2546   45.9606 H   0  0  0  0  0  0  0  0  0  0  0  0
   38.2318   32.4639   44.9108 H   0  0  0  0  0  0  0  0  0  0  0  0
   37.8688   34.7146   45.7601 H   0  0  0  0  0  0  0  0  0  0  0  0
   39.6971   34.6509   45.4132 H   0  0  0  0  0  0  0  0  0  0  0  0
   40.0405   33.9339   47.7835 H   0  0  0  0  0  0  0  0  0  0  0  0
   38.9500   35.4426   47.7565 H   0  0  0  0  0  0  0  0  0  0  0  0
  1  6  1  0
  1  2  1  0
  2  3  1  0
  4  3  1  0
  5  4  1  0
  6  5  1  0
  6 13  1  0
  8  7  2  0
  8  1  1  0
  9  8  1  0
 10 11  1  0
 10  9  2  0
 11 12  2  0
 12  7  1  0
 14 13  1  0
  1 15  1  6
  2 16  1  0
  2 17  1  0
  3 18  1  0
  3 19  1  0
  4 20  1  0
  4 21  1  0
  5 22  1  0
  5 23  1  0
  6 24  1  6
  7 25  1  0
  9 26  1  0
 11 27  1  0
 13 28  1  0
 13 29  1  0
 14 30  1  0
 14 31  1  0
 32 33  1  0
 33 34  1  0
 34 35  1  0
 35 36  1  0
 36 32  1  0
 32 37  1  0
 33 38  1  0
 33 39  1  0
 34 40  1  0
 34 41  1  0
 35 42  1  0
 35 43  1  0
 36 44  1  0
 36 45  1  0
 14 32  1  0
M  ISO  8  15  13  16  13  17  13  18  13  19  13  20  13  21  13  22  13
M  ISO  8  23  13  24  13  25  14  26  14  27  14  28   8  29   8  30   8
M  ISO  1  31   8
M  END
>  <DihAtoms>  (1) 
12,13,31,32

>  <DihDeg>  (1) 
179.86208871284475

$$$$
