
     RDKit          3D

 33 35  0  0  0  0  0  0  0  0999 V2000
   38.0060   33.1062   49.4865 C   0  0  0  0  0  0  0  0  0  0  0  0
   38.9693   33.2124   48.4874 C   0  0  0  0  0  0  0  0  0  0  0  0
   38.9532   32.2175   47.4654 C   0  0  0  0  0  0  0  0  0  0  0  0
   38.0162   31.2385   47.5218 N   0  0  0  0  0  0  0  0  0  0  0  0
   37.0957   31.1766   48.5183 C   0  0  0  0  0  0  0  0  0  0  0  0
   37.1222   32.1178   49.4715 N   0  0  0  0  0  0  0  0  0  0  0  0
   36.0821   30.1307   48.5961 C   0  0  0  0  0  0  0  0  0  0  0  0
   35.2743   29.9625   47.4936 C   0  0  0  0  0  0  0  0  0  0  0  0
   34.2946   28.9778   47.5130 C   0  0  0  0  0  0  0  0  0  0  0  0
   34.1504   28.1934   48.6274 C   0  0  0  0  0  0  0  0  0  0  0  0
   34.9621   28.3593   49.7407 C   0  0  0  0  0  0  0  0  0  0  0  0
   35.9590   29.3432   49.7522 C   0  0  0  0  0  0  0  0  0  0  0  0
   38.0658   33.8846   50.2314 H   0  0  0  0  0  0  0  0  0  0  0  0
   39.7505   33.9513   48.3600 H   0  0  0  0  0  0  0  0  0  0  0  0
   39.6286   32.1681   46.6348 H   0  0  0  0  0  0  0  0  0  0  0  0
   35.3753   30.5736   46.6060 H   0  0  0  0  0  0  0  0  0  0  0  0
   33.6531   28.8279   46.6660 H   0  0  0  0  0  0  0  0  0  0  0  0
   33.3638   27.4285   48.5983 H   0  0  0  0  0  0  0  0  0  0  0  0
   34.7788   27.6981   50.5715 H   0  0  0  0  0  0  0  0  0  0  0  0
   36.8142   29.5182   50.9296 C   0  0  0  0  0  0  0  0  0  0  0  0
   38.2807   29.4201   50.6805 C   0  0  0  0  0  0  0  0  0  0  0  0
   38.9460   30.5939   51.4059 C   0  0  0  0  0  0  0  0  0  0  0  0
   37.8843   31.6582   51.2926 C   0  0  0  0  0  0  0  0  0  0  0  0
   36.6196   30.8967   51.5388 C   0  0  0  0  0  0  0  0  0  0  0  0
   36.5547   28.8013   51.7354 H   0  0  0  0  0  0  0  0  0  0  0  0
   38.7788   28.5243   51.1037 H   0  0  0  0  0  0  0  0  0  0  0  0
   38.5473   29.4620   49.6022 H   0  0  0  0  0  0  0  0  0  0  0  0
   39.8995   30.8673   50.9243 H   0  0  0  0  0  0  0  0  0  0  0  0
   39.0722   30.3400   52.4837 H   0  0  0  0  0  0  0  0  0  0  0  0
   37.9708   32.1325   50.3075 H   0  0  0  0  0  0  0  0  0  0  0  0
   38.0023   32.4426   52.0744 H   0  0  0  0  0  0  0  0  0  0  0  0
   36.4726   30.8584   52.6404 H   0  0  0  0  0  0  0  0  0  0  0  0
   35.7178   31.3968   51.1391 H   0  0  0  0  0  0  0  0  0  0  0  0
  1  6  2  0
  2  1  1  0
  3  4  1  0
  3  2  2  0
  4  5  2  0
  5  7  1  0
  5  6  1  0
  7 12  1  0
  8  7  2  0
  9  8  1  0
  9 10  2  0
 10 11  1  0
 12 11  2  0
  1 13  1  0
  2 14  1  0
  3 15  1  0
  8 16  1  0
  9 17  1  0
 10 18  1  0
 11 19  1  0
 20 21  1  0
 21 22  1  0
 22 23  1  0
 23 24  1  0
 24 20  1  0
 20 25  1  0
 21 26  1  0
 21 27  1  0
 22 28  1  0
 22 29  1  0
 23 30  1  0
 23 31  1  0
 24 32  1  0
 24 33  1  0
 12 20  1  0
M  ISO  7  13  14  14  14  15  14  16  14  17  14  18  14  19  14
M  END
>  <DihAtoms>  (1) 
6,11,19,20

>  <DihDeg>  (1) 
93.82640493249853

$$$$
