
 OpenBabel03272510243D

 28 31  0  0  0  0  0  0  0  0999 V2000
   36.0520   30.1750   46.9940 C   0  0  0  0  0  0  0  0  0  0  0  0
   36.9650   30.7010   47.9050 C   0  0  0  0  0  0  0  0  0  0  0  0
   37.9600   31.5730   47.5020 C   0  0  0  0  0  0  0  0  0  0  0  0
   37.9860   31.8880   46.1410 C   0  0  0  0  0  0  0  0  0  0  0  0
   38.8720   32.7250   45.5020 N   0  0  0  0  0  0  0  0  0  0  0  0
   38.5270   32.7290   44.2180 C   0  0  0  0  0  0  0  0  0  0  0  0
   37.4700   31.9390   44.0130 N   0  0  0  0  0  0  0  0  0  0  0  0
   37.1120   31.3990   45.2030 C   0  0  0  0  0  0  0  0  0  0  0  0
   36.1190   30.5190   45.6460 C   0  0  0  0  0  0  0  0  0  0  0  0
   35.2650   29.4890   47.2940 H   0  0  0  0  0  0  0  0  0  0  0  0
   38.6760   31.9890   48.1980 H   0  0  0  0  0  0  0  0  0  0  0  0
   39.6660   33.2520   45.9710 H   0  0  0  0  0  0  0  0  0  0  0  0
   35.4250   30.1280   44.9170 H   0  0  0  0  0  0  0  0  0  0  0  0
   37.5370   30.0850   51.5770 C   0  0  0  0  0  0  0  0  0  0  0  0
   37.7720   30.5160   50.2780 C   0  0  0  0  0  0  0  0  0  0  0  0
   36.8370   30.3000   49.2970 C   0  0  0  0  0  0  0  0  0  0  0  0
   35.6820   29.6480   49.6610 N   0  0  0  0  0  0  0  0  0  0  0  0
   35.4770   29.2400   50.9290 C   0  0  0  0  0  0  0  0  0  0  0  0
   36.3840   29.4540   51.8660 N   0  0  0  0  0  0  0  0  0  0  0  0
   38.2630   30.2480   52.3610 H   0  0  0  0  0  0  0  0  0  0  0  0
   38.6820   31.0270   50.0010 H   0  0  0  0  0  0  0  0  0  0  0  0
   34.5220   28.7310   51.1050 H   0  0  0  0  0  0  0  0  0  0  0  0
   39.2060   33.4720   43.2550 O   0  0  0  0  0  0  0  0  0  0  0  0
   39.3630   32.9740   41.9210 C   0  0  0  0  0  3  0  0  0  0  0  0
   38.8320   31.5600   41.7850 C   0  0  0  0  0  2  0  0  0  0  0  0
   37.9800   31.5800   40.5220 C   0  0  0  0  0  2  0  0  0  0  0  0
   37.3770   32.9640   40.6090 C   0  0  0  0  0  2  0  0  0  0  0  0
   38.5310   33.8260   41.0090 C   0  0  0  0  0  2  0  0  0  0  0  0
  1 10  1  0  0  0  0
  1  2  1  0  0  0  0
  2 16  1  0  0  0  0
  3  2  2  0  0  0  0
  3 11  1  0  0  0  0
  4  3  1  0  0  0  0
  5 12  1  0  0  0  0
  5  4  1  0  0  0  0
  6  5  1  0  0  0  0
  7  6  2  0  0  0  0
  7  8  1  0  0  0  0
  8  9  1  0  0  0  0
  8  4  2  0  0  0  0
  9  1  2  0  0  0  0
 13  9  1  0  0  0  0
 14 19  1  0  0  0  0
 14 20  1  0  0  0  0
 15 14  2  0  0  0  0
 16 17  2  0  0  0  0
 16 15  1  0  0  0  0
 17 18  1  0  0  0  0
 18 22  1  0  0  0  0
 18 19  2  0  0  0  0
 21 15  1  0  0  0  0
 23  6  1  0  0  0  0
 24 23  1  0  0  0  0
 25 24  1  0  0  0  0
 26 27  1  0  0  0  0
 26 25  1  0  0  0  0
 27 28  1  0  0  0  0
 28 24  1  0  0  0  0
M  END
>  <minimizedAffinity>
-5.25856495

>  <minimizedRMSD>
1.55037963

$$$$
