
     RDKit          3D

 35 37  0  0  0  0  0  0  0  0999 V2000
   34.9563   28.8007   48.6790 C   0  0  0  0  0  0  0  0  0  0  0  0
   34.6121   27.8515   49.4808 O   0  0  0  0  0  0  0  0  0  0  0  0
   33.0318   30.5891   46.1815 C   0  0  0  0  0  0  0  0  0  0  0  0
   32.8194   29.6532   45.1821 C   0  0  0  0  0  0  0  0  0  0  0  0
   33.3284   28.3854   45.3612 C   0  0  0  0  0  0  0  0  0  0  0  0
   34.0295   28.0532   46.4995 N   0  0  0  0  0  0  0  0  0  0  0  0
   34.2118   28.9932   47.4404 C   0  0  0  0  0  0  0  0  0  0  0  0
   33.7135   30.2046   47.2487 N   0  0  0  0  0  0  0  0  0  0  0  0
   36.0794   29.5731   49.1423 C   0  0  0  0  0  0  0  0  0  0  0  0
   36.2694   29.6865   50.5297 C   0  0  0  0  0  0  0  0  0  0  0  0
   37.3498   30.4263   51.0568 C   0  0  0  0  0  0  0  0  0  0  0  0
   38.2463   31.0575   50.1637 C   0  0  0  0  0  0  0  0  0  0  0  0
   38.0189   30.9180   48.7916 C   0  0  0  0  0  0  0  0  0  0  0  0
   36.9613   30.1929   48.3176 C   0  0  0  0  0  0  0  0  0  0  0  0
   32.6516   31.5871   46.0814 H   0  0  0  0  0  0  0  0  0  0  0  0
   32.2693   29.9427   44.3062 H   0  0  0  0  0  0  0  0  0  0  0  0
   33.1786   27.6312   44.5981 H   0  0  0  0  0  0  0  0  0  0  0  0
   35.5761   29.1987   51.1988 H   0  0  0  0  0  0  0  0  0  0  0  0
   37.4222   30.4623   52.1352 H   0  0  0  0  0  0  0  0  0  0  0  0
   39.0475   31.6052   50.6411 H   0  0  0  0  0  0  0  0  0  0  0  0
   38.7874   31.4576   48.2609 H   0  0  0  0  0  0  0  0  0  0  0  0
   36.9397   30.2178   46.8652 C   0  0  0  0  0  0  0  0  0  0  0  0
   37.5657   28.9097   46.4122 C   0  0  0  0  0  0  0  0  0  0  0  0
   36.9136   28.7840   45.0339 C   0  0  0  0  0  0  0  0  0  0  0  0
   35.4670   28.9811   45.4199 C   0  0  0  0  0  0  0  0  0  0  0  0
   35.4835   30.1335   46.3570 C   0  0  0  0  0  0  0  0  0  0  0  0
   37.3453   31.0587   46.3414 H   0  0  0  0  0  0  0  0  0  0  0  0
   38.6416   28.8868   46.3659 H   0  0  0  0  0  0  0  0  0  0  0  0
   37.1319   28.0695   47.0069 H   0  0  0  0  0  0  0  0  0  0  0  0
   37.2873   29.5990   44.3824 H   0  0  0  0  0  0  0  0  0  0  0  0
   37.1109   27.7870   44.6248 H   0  0  0  0  0  0  0  0  0  0  0  0
   35.1400   28.0391   45.9230 H   0  0  0  0  0  0  0  0  0  0  0  0
   34.8023   29.1516   44.5623 H   0  0  0  0  0  0  0  0  0  0  0  0
   34.7745   30.0692   47.2076 H   0  0  0  0  0  0  0  0  0  0  0  0
   35.1811   31.0424   45.8046 H   0  0  0  0  0  0  0  0  0  0  0  0
  1  9  1  0
  1  2  2  0
  3  8  2  0
  4  5  2  0
  4  3  1  0
  5  6  1  0
  6  7  2  0
  7  1  1  0
  8  7  1  0
  9 10  2  0
 10 11  1  0
 12 11  2  0
 13 12  1  0
 14 13  2  0
 14  9  1  0
  3 15  1  0
  4 16  1  0
  5 17  1  0
 10 18  1  0
 11 19  1  0
 12 20  1  0
 13 21  1  0
 22 23  1  0
 23 24  1  0
 24 25  1  0
 25 26  1  0
 26 22  1  0
 22 27  1  0
 23 28  1  0
 23 29  1  0
 24 30  1  0
 24 31  1  0
 25 32  1  0
 25 33  1  0
 26 34  1  0
 26 35  1  0
 14 22  1  0
M  ISO  7  15  14  16  14  17  14  18  14  19  14  20  14  21  14
M  END
>  <DihAtoms>  (1) 
12,13,21,22

>  <DihDeg>  (1) 
-65.7632648142285

$$$$
