
 OpenBabel03272510273D

 41 45  0  0  1  0  0  0  0  0999 V2000
   36.2330   30.1980   46.9170 C   0  0  0  0  0  0  0  0  0  0  0  0
   37.0790   30.7490   47.8770 C   0  0  0  0  0  0  0  0  0  0  0  0
   38.0780   31.6610   47.5220 C   0  0  0  0  0  0  0  0  0  0  0  0
   38.1730   31.9780   46.1710 C   0  0  0  0  0  0  0  0  0  0  0  0
   39.0570   32.8380   45.5840 N   0  0  0  0  0  0  0  0  0  0  0  0
   38.7760   32.8300   44.2730 C   0  0  0  0  0  0  0  0  0  0  0  0
   37.7650   32.0080   44.0380 N   0  0  0  0  0  0  0  0  0  0  0  0
   37.3590   31.4580   45.1950 C   0  0  0  0  0  0  0  0  0  0  0  0
   36.3700   30.5470   45.5850 C   0  0  0  0  0  0  0  0  0  0  0  0
   35.4590   29.4920   47.1900 H   0  0  0  0  0  0  0  0  0  0  0  0
   38.7430   32.0970   48.2640 H   0  0  0  0  0  0  0  0  0  0  0  0
   39.8130   33.3960   46.0660 H   0  0  0  0  0  0  0  0  0  0  0  0
   35.7290   30.1370   44.8140 H   0  0  0  0  0  0  0  0  0  0  0  0
   37.4420   30.1390   51.5580 C   0  0  0  0  0  0  0  0  0  0  0  0
   37.7810   30.5880   50.2950 C   0  0  0  0  0  0  0  0  0  0  0  0
   36.9000   30.3570   49.2630 C   0  0  0  0  0  0  0  0  0  0  0  0
   35.7310   29.6860   49.5630 N   0  0  0  0  0  0  0  0  0  0  0  0
   35.4220   29.2570   50.8030 C   0  0  0  0  0  0  0  0  0  0  0  0
   36.2690   29.4820   51.7820 N   0  0  0  0  0  0  0  0  0  0  0  0
   38.1920   30.3630   52.3120 H   0  0  0  0  0  0  0  0  0  0  0  0
   38.6920   31.1130   50.0470 H   0  0  0  0  0  0  0  0  0  0  0  0
   34.4870   28.7380   50.9670 H   0  0  0  0  0  0  0  0  0  0  0  0
   39.4850   33.6000   43.3500 O   0  0  0  0  0  0  0  0  0  0  0  0
   39.6530   31.8290   41.8830 N   0  0  0  0  0  0  0  0  0  0  0  0
   39.3130   33.2400   41.9880 C   0  0  1  0  0  0  0  0  0  0  0  0
   37.9430   33.4670   41.5570 C   0  0  0  0  0  0  0  0  0  0  0  0
   37.8330   33.1170   40.2000 O   0  0  0  0  0  0  0  0  0  0  0  0
   38.2360   31.8510   39.8870 C   0  0  0  0  0  0  0  0  0  0  0  0
   39.6090   31.5650   40.4660 C   0  0  2  0  0  0  0  0  0  0  0  0
   39.0210   31.1610   42.2970 H   0  0  0  0  0  0  0  0  0  0  0  0
   40.0240   33.7830   41.3420 H   0  0  0  0  0  0  0  0  0  0  0  0
   37.7800   34.5890   41.5400 H   0  0  0  0  0  0  0  0  0  0  0  0
   37.0800   33.0480   41.9970 H   0  0  0  0  0  0  0  0  0  0  0  0
   37.4700   31.1550   40.2630 H   0  0  0  0  0  0  0  0  0  0  0  0
   38.3490   31.7960   38.7970 H   0  0  0  0  0  0  0  0  0  0  0  0
   40.2690   32.3400   40.0070 H   0  0  0  0  0  0  0  0  0  0  0  0
   40.1590   30.2490   40.0680 C   0  0  0  0  0  3  0  0  0  0  0  0
   39.8830   29.1900   41.1020 C   0  0  0  0  0  2  0  0  0  0  0  0
   40.6570   28.0200   40.4780 C   0  0  0  0  0  2  0  0  0  0  0  0
   41.9690   28.6970   40.1510 C   0  0  0  0  0  2  0  0  0  0  0  0
   41.6500   30.1850   39.9560 C   0  0  0  0  0  2  0  0  0  0  0  0
  1 10  1  0  0  0  0
  1  2  1  0  0  0  0
  2 16  1  0  0  0  0
  3  2  2  0  0  0  0
  3 11  1  0  0  0  0
  4  3  1  0  0  0  0
  5 12  1  0  0  0  0
  5  4  1  0  0  0  0
  6  5  1  0  0  0  0
  7  6  2  0  0  0  0
  7  8  1  0  0  0  0
  8  9  1  0  0  0  0
  8  4  2  0  0  0  0
  9  1  2  0  0  0  0
 13  9  1  0  0  0  0
 14 19  1  0  0  0  0
 14 20  1  0  0  0  0
 15 14  2  0  0  0  0
 16 17  2  0  0  0  0
 16 15  1  0  0  0  0
 17 18  1  0  0  0  0
 18 22  1  0  0  0  0
 18 19  2  0  0  0  0
 21 15  1  0  0  0  0
 23  6  1  0  0  0  0
 24 25  1  0  0  0  0
 24 30  1  0  0  0  0
 25 31  1  6  0  0  0
 25 23  1  0  0  0  0
 26 25  1  0  0  0  0
 26 33  1  0  0  0  0
 27 26  1  0  0  0  0
 28 27  1  0  0  0  0
 28 34  1  0  0  0  0
 28 29  1  0  0  0  0
 29 36  1  6  0  0  0
 29 24  1  0  0  0  0
 32 26  1  0  0  0  0
 35 28  1  0  0  0  0
 37 29  1  0  0  0  0
 37 38  1  0  0  0  0
 39 38  1  0  0  0  0
 40 39  1  0  0  0  0
 41 37  1  0  0  0  0
 41 40  1  0  0  0  0
M  END
>  <minimizedAffinity>
-6.02385235

>  <minimizedRMSD>
0.374351174

$$$$
