
 OpenBabel03272506343D

 15 16  0  0  0  0  0  0  0  0999 V2000
   37.4650   30.0980   51.0270 C   0  0  0  0  0  0  0  0  0  0  0  0
   38.1850   31.1030   50.3630 C   0  0  0  0  0  0  0  0  0  0  0  0
   37.6710   31.5900   49.1620 C   0  0  0  0  0  0  0  0  0  0  0  0
   36.4980   31.0660   48.7010 N   0  0  0  0  0  0  0  0  0  0  0  0
   35.8290   30.0980   49.3680 C   0  0  0  0  0  0  0  0  0  0  0  0
   36.3170   29.6190   50.5280 N   0  0  0  0  0  0  0  0  0  0  0  0
   39.1100   31.5330   50.7030 H   0  0  0  0  0  0  0  0  0  0  0  0
   38.2070   32.3600   48.6360 H   0  0  0  0  0  0  0  0  0  0  0  0
   34.5550   29.5260   48.8700 C   0  0  0  0  0  0  0  0  0  0  0  0
   34.4090   28.0540   49.1910 C   0  0  0  0  0  0  0  0  0  0  0  0
   33.2660   27.6520   48.2900 C   0  0  0  0  0  0  0  0  0  0  0  0
   33.2760   28.6410   47.1260 C   0  0  0  0  0  0  0  0  0  0  0  0
   34.5240   29.4870   47.3440 C   0  0  0  0  0  0  0  0  0  0  0  0
   38.0810   29.6960   52.2130 O   0  0  0  0  0  0  0  0  0  0  0  0
   37.7760   30.0580   53.1050 H   0  0  0  0  0  0  0  0  0  0  0  0
  1 14  1  0  0  0  0
  2  7  1  0  0  0  0
  2  1  2  0  0  0  0
  3  2  1  0  0  0  0
  4  3  2  0  0  0  0
  4  5  1  0  0  0  0
  5  6  2  0  0  0  0
  6  1  1  0  0  0  0
  8  3  1  0  0  0  0
  9 10  1  0  0  0  0
  9  5  1  0  0  0  0
 11 10  1  0  0  0  0
 12 13  1  0  0  0  0
 12 11  1  0  0  0  0
 13  9  1  0  0  0  0
 14 15  1  0  0  0  0
M  END
>  <minimizedAffinity>
-4.80562973

>  <minimizedRMSD>
1.07018471

$$$$
