
 OpenBabel03272506363D

 19 20  0  0  0  0  0  0  0  0999 V2000
   35.2070   30.1740   47.4250 C   0  0  0  0  0  0  0  0  0  0  0  0
   35.9380   30.2370   46.2100 C   0  0  0  0  0  0  0  0  0  0  0  0
   35.2260   30.1680   45.0090 C   0  0  0  0  0  0  0  0  0  0  0  0
   33.8590   30.0440   45.0700 N   0  0  0  0  0  0  0  0  0  0  0  0
   33.2090   29.9880   46.2480 C   0  0  0  0  0  0  0  0  0  0  0  0
   33.8790   30.0520   47.3980 N   0  0  0  0  0  0  0  0  0  0  0  0
   31.3600   28.6720   46.9690 C   0  0  0  0  0  0  0  0  0  0  0  0
   32.0740   27.7760   47.5130 O   0  0  0  0  0  0  0  0  0  0  0  0
   31.7800   29.8570   46.2870 N   0  0  0  0  0  0  0  0  0  0  0  0
   37.0130   30.3350   46.1170 H   0  0  0  0  0  0  0  0  0  0  0  0
   35.6810   30.2070   44.0350 H   0  0  0  0  0  0  0  0  0  0  0  0
   30.3240   28.3900   47.1090 H   0  0  0  0  0  0  0  0  0  0  0  0
   31.0310   30.4530   45.9190 H   0  0  0  0  0  0  0  0  0  0  0  0
   36.0630   30.2560   48.5010 O   0  0  0  0  0  0  0  0  0  0  0  0
   35.8220   30.8010   49.7530 C   0  0  0  0  0  3  0  0  0  0  0  0
   36.2390   29.7470   50.7630 C   0  0  0  0  0  2  0  0  0  0  0  0
   37.6930   29.5880   50.3600 C   0  0  0  0  0  2  0  0  0  0  0  0
   38.1340   30.9600   49.9370 C   0  0  0  0  0  2  0  0  0  0  0  0
   36.9050   31.8520   50.0250 C   0  0  0  0  0  2  0  0  0  0  0  0
  1 14  1  0  0  0  0
  2  1  2  0  0  0  0
  3  4  2  0  0  0  0
  3  2  1  0  0  0  0
  4  5  1  0  0  0  0
  5  9  1  0  0  0  0
  5  6  2  0  0  0  0
  6  1  1  0  0  0  0
  7 12  1  0  0  0  0
  7  8  2  0  0  0  0
  9  7  1  0  0  0  0
 10  2  1  0  0  0  0
 11  3  1  0  0  0  0
 13  9  1  0  0  0  0
 14 15  1  0  0  0  0
 15 19  1  0  0  0  0
 15 16  1  0  0  0  0
 17 16  1  0  0  0  0
 18 19  1  0  0  0  0
 18 17  1  0  0  0  0
M  END
>  <minimizedAffinity>
-4.66704035

>  <minimizedRMSD>
4.19961977

$$$$
