REMARK  Name = 
REMARK  2 active torsions:
REMARK  status: ('A' for Active; 'I' for Inactive)
REMARK    1  A    between atoms: C_2  and  C_7
REMARK    2  A    between atoms: C_12  and  C_26
REMARK                            x       y       z     vdW  Elec       q    Type
REMARK                         _______ _______ _______ _____ _____    ______ ____
ROOT
ATOM      1  C   UNL     1      34.479  30.162  49.072  0.00  0.00    +0.000 C 
ATOM      2  C   UNL     1      34.219  30.338  47.633  0.00  0.00    +0.000 C 
ATOM      3  C   UNL     1      34.410  29.135  46.752  0.00  0.00    +0.000 C 
ATOM      4  C   UNL     1      33.969  27.852  47.352  0.00  0.00    +0.000 C 
ATOM      5  C   UNL     1      34.294  27.648  48.783  0.00  0.00    +0.000 C 
ATOM      6  C   UNL     1      33.967  28.870  49.604  0.00  0.00    +0.000 C 
ATOM      7  H   UNL     1      33.880  30.957  49.621  0.00  0.00    +0.000 HD
ATOM      8  H   UNL     1      33.096  30.519  47.557  0.00  0.00    +0.000 HD
ATOM      9  H   UNL     1      34.645  31.194  47.140  0.00  0.00    +0.000 HD
ATOM     10  H   UNL     1      35.478  29.029  46.463  0.00  0.00    +0.000 HD
ATOM     11  H   UNL     1      33.846  29.300  45.811  0.00  0.00    +0.000 HD
ATOM     12  H   UNL     1      32.854  27.786  47.242  0.00  0.00    +0.000 HD
ATOM     13  H   UNL     1      34.392  27.015  46.763  0.00  0.00    +0.000 HD
ATOM     14  H   UNL     1      35.385  27.468  48.887  0.00  0.00    +0.000 HD
ATOM     15  H   UNL     1      33.773  26.795  49.194  0.00  0.00    +0.000 HD
ATOM     16  H   UNL     1      34.285  28.619  50.625  0.00  0.00    +0.000 HD
ENDROOT
BRANCH   1  18
ATOM     17  C   UNL     1      36.797  31.183  48.699  0.00  0.00    +0.000 A 
ATOM     18  C   UNL     1      35.868  30.474  49.499  0.00  0.00    +0.000 A 
ATOM     19  C   UNL     1      36.307  30.063  50.744  0.00  0.00    +0.000 A 
ATOM     20  N   UNL     1      37.574  30.346  51.143  0.00  0.00    +0.000 NA
ATOM     21  C   UNL     1      38.431  31.030  50.340  0.00  0.00    +0.000 A 
ATOM     22  N   UNL     1      38.030  31.447  49.112  0.00  0.00    +0.000 NA
ATOM     23  H   UNL     1      36.513  31.529  47.718  0.00  0.00    +0.000 HD
ATOM     24  H   UNL     1      35.765  29.524  51.499  0.00  0.00    +0.000 HD
ATOM     25  H   UNL     1      39.448  31.275  50.619  0.00  0.00    +0.000 HD
ENDBRANCH   1  18
BRANCH   6  26
ATOM     26  C   UNL     1      32.434  29.007  49.750  0.00  0.00    +0.000 C 
ATOM     27  C   UNL     1      32.048  28.793  51.192  0.00  0.00    +0.000 C 
ATOM     28  C   UNL     1      30.600  28.291  51.131  0.00  0.00    +0.000 C 
ATOM     29  C   UNL     1      30.647  27.375  49.944  0.00  0.00    +0.000 C 
ATOM     30  C   UNL     1      31.728  27.907  49.033  0.00  0.00    +0.000 C 
ENDBRANCH   6  26
TORSDOF 2
