
     RDKit          3D

 32 34  0  0  0  0  0  0  0  0999 V2000
   35.1870   30.4376   48.9880 C   0  0  0  0  0  0  0  0  0  0  0  0
   34.3361   30.1873   49.8592 O   0  0  0  0  0  0  0  0  0  0  0  0
   33.3199   30.0835   45.8787 C   0  0  0  0  0  0  0  0  0  0  0  0
   34.3238   30.0058   44.9142 C   0  0  0  0  0  0  0  0  0  0  0  0
   35.6450   30.0731   45.3115 C   0  0  0  0  0  0  0  0  0  0  0  0
   35.8915   30.2130   46.6380 N   0  0  0  0  0  0  0  0  0  0  0  0
   34.9080   30.2878   47.5708 C   0  0  0  0  0  0  0  0  0  0  0  0
   33.6319   30.2214   47.1727 N   0  0  0  0  0  0  0  0  0  0  0  0
   36.5177   30.9007   49.4248 C   0  0  0  0  0  0  0  0  0  0  0  0
   37.3075   30.2021   50.3324 C   0  0  0  0  0  0  0  0  0  0  0  0
   38.4417   31.0250   50.4195 C   0  0  0  0  0  0  0  0  0  0  0  0
   38.2863   32.1172   49.6049 C   0  0  0  0  0  0  0  0  0  0  0  0
   37.1146   32.0114   49.0192 O   0  0  0  0  0  0  0  0  0  0  0  0
   32.3100   30.0257   45.5129 H   0  0  0  0  0  0  0  0  0  0  0  0
   34.1927   29.8947   43.8480 H   0  0  0  0  0  0  0  0  0  0  0  0
   36.5436   30.0307   44.7144 H   0  0  0  0  0  0  0  0  0  0  0  0
   37.0378   29.2720   50.8009 H   0  0  0  0  0  0  0  0  0  0  0  0
   39.2877   30.7577   51.0713 H   0  0  0  0  0  0  0  0  0  0  0  0
   39.2344   33.2058   49.4109 C   0  0  0  0  0  0  0  0  0  0  0  0
   40.6711   32.8123   49.6749 C   0  0  0  0  0  0  0  0  0  0  0  0
   41.3552   34.1673   49.5608 C   0  0  0  0  0  0  0  0  0  0  0  0
   40.3069   35.1880   49.9826 C   0  0  0  0  0  0  0  0  0  0  0  0
   39.0973   34.3510   50.3942 C   0  0  0  0  0  0  0  0  0  0  0  0
   39.1557   33.6383   48.3982 H   0  0  0  0  0  0  0  0  0  0  0  0
   40.7802   32.4915   50.7322 H   0  0  0  0  0  0  0  0  0  0  0  0
   41.0528   32.0809   48.9385 H   0  0  0  0  0  0  0  0  0  0  0  0
   41.6422   34.3000   48.4882 H   0  0  0  0  0  0  0  0  0  0  0  0
   42.2562   34.2423   50.1816 H   0  0  0  0  0  0  0  0  0  0  0  0
   39.9912   35.7362   49.0680 H   0  0  0  0  0  0  0  0  0  0  0  0
   40.6530   35.8507   50.7964 H   0  0  0  0  0  0  0  0  0  0  0  0
   38.1478   34.8909   50.3198 H   0  0  0  0  0  0  0  0  0  0  0  0
   39.3101   34.0025   51.4447 H   0  0  0  0  0  0  0  0  0  0  0  0
  1  9  1  0
  1  2  2  0
  3  8  2  0
  4  5  2  0
  4  3  1  0
  5  6  1  0
  6  7  2  0
  7  1  1  0
  8  7  1  0
  9 10  2  0
 10 11  1  0
 12 11  2  0
 13  9  1  0
 13 12  1  0
  3 14  1  0
  4 15  1  0
  5 16  1  0
 10 17  1  0
 11 18  1  0
 19 20  1  0
 20 21  1  0
 21 22  1  0
 22 23  1  0
 23 19  1  0
 19 24  1  0
 20 25  1  0
 20 26  1  0
 21 27  1  0
 21 28  1  0
 22 29  1  0
 22 30  1  0
 23 31  1  0
 23 32  1  0
 12 19  1  0
M  ISO  5  14  14  15  14  16  14  17  14  18  14
M  END
>  <DihAtoms>  (1) 
10,11,18,19

>  <DihDeg>  (1) 
55.91064516267047

$$$$
