
 OpenBabel03262523503D

 17 18  0  0  0  0  0  0  0  0999 V2000
   36.9000   31.1830   49.8560 C   0  0  0  0  0  0  0  0  0  0  0  0
   35.6000   30.8020   49.5130 C   0  0  0  0  0  0  0  0  0  0  0  0
   34.9850   29.7930   50.2620 C   0  0  0  0  0  0  0  0  0  0  0  0
   35.6990   29.2460   51.2810 N   0  0  0  0  0  0  0  0  0  0  0  0
   36.9470   29.6310   51.5880 C   0  0  0  0  0  0  0  0  0  0  0  0
   37.5500   30.5930   50.8840 N   0  0  0  0  0  0  0  0  0  0  0  0
   35.0400   31.2530   48.6920 H   0  0  0  0  0  0  0  0  0  0  0  0
   33.9960   29.4780   50.0290 H   0  0  0  0  0  0  0  0  0  0  0  0
   37.4110   29.1140   52.4260 H   0  0  0  0  0  0  0  0  0  0  0  0
   37.5410   32.2580   49.0500 C   0  0  0  0  0  0  0  0  0  0  0  0
   37.9310   32.9780   49.7990 H   0  0  0  0  0  0  0  0  0  0  0  0
   36.8100   32.7770   48.4330 H   0  0  0  0  0  0  0  0  0  0  0  0
   38.7100   31.7290   48.2170 C   0  0  0  0  0  0  0  0  0  0  0  0
   38.2160   30.6540   47.2730 C   0  0  0  0  0  0  0  0  0  0  0  0
   38.6710   31.0300   45.8960 C   0  0  0  0  0  0  0  0  0  0  0  0
   39.8080   31.9920   46.1750 C   0  0  0  0  0  0  0  0  0  0  0  0
   39.1850   32.8450   47.2870 C   0  0  0  0  0  0  0  0  0  0  0  0
  1  6  1  0  0  0  0
  2  1  2  0  0  0  0
  2  3  1  0  0  0  0
  3  4  2  0  0  0  0
  4  5  1  0  0  0  0
  5  9  1  0  0  0  0
  6  5  2  0  0  0  0
  7  2  1  0  0  0  0
  8  3  1  0  0  0  0
 10 11  1  0  0  0  0
 10  1  1  0  0  0  0
 12 10  1  0  0  0  0
 13 10  1  0  0  0  0
 14 13  1  0  0  0  0
 15 16  1  0  0  0  0
 15 14  1  0  0  0  0
 16 17  1  0  0  0  0
 17 13  1  0  0  0  0
M  END
>  <minimizedAffinity>
-4.56175852

>  <minimizedRMSD>
4.52368021

$$$$
