
 OpenBabel03272508283D

 34 37  0  0  1  0  0  0  0  0999 V2000
   33.7820   28.9020   47.2220 C   0  0  2  0  0  0  0  0  0  0  0  0
   34.5060   28.1130   48.3040 C   0  0  2  0  0  0  0  0  0  0  0  0
   33.5980   27.9500   49.3070 O   0  0  0  0  0  0  0  0  0  0  0  0
   32.3250   28.0400   48.8200 C   0  0  0  0  0  0  0  0  0  0  0  0
   32.4040   28.2450   47.3220 C   0  0  1  0  0  0  0  0  0  0  0  0
   33.7350   29.9710   47.4440 H   0  0  0  0  0  0  0  0  0  0  0  0
   34.7910   27.1220   47.8990 H   0  0  0  0  0  0  0  0  0  0  0  0
   31.8050   27.0650   48.9940 H   0  0  0  0  0  0  0  0  0  0  0  0
   31.6810   28.7960   49.3100 H   0  0  0  0  0  0  0  0  0  0  0  0
   32.4640   27.2660   46.7880 H   0  0  0  0  0  0  0  0  0  0  0  0
   35.5940   30.3550   49.0000 C   0  0  1  0  0  0  0  0  0  0  0  0
   35.6750   28.9370   48.7410 C   0  0  1  0  0  0  0  0  0  0  0  0
   35.8440   29.3750   50.1570 C   0  0  0  0  0  0  0  0  0  0  0  0
   34.7000   30.9620   49.2270 H   0  0  0  0  0  0  0  0  0  0  0  0
   36.6330   28.5900   48.2580 H   0  0  0  0  0  0  0  0  0  0  0  0
   36.8530   29.3600   50.6270 H   0  0  0  0  0  0  0  0  0  0  0  0
   35.0470   29.1970   50.8990 H   0  0  0  0  0  0  0  0  0  0  0  0
   36.7890   31.2670   48.7710 C   0  0  0  0  0  0  0  0  0  0  0  0
   37.0360   32.2570   49.7230 C   0  0  0  0  0  0  0  0  0  0  0  0
   38.1220   33.0780   49.4550 C   0  0  0  0  0  0  0  0  0  0  0  0
   38.8760   32.8980   48.3190 N   0  0  0  0  0  0  0  0  0  0  0  0
   38.5980   31.9260   47.4260 C   0  0  0  0  0  0  0  0  0  0  0  0
   37.5410   31.0980   47.6540 N   0  0  0  0  0  0  0  0  0  0  0  0
   36.4270   32.3710   50.5990 H   0  0  0  0  0  0  0  0  0  0  0  0
   38.3940   33.8790   50.1400 H   0  0  0  0  0  0  0  0  0  0  0  0
   39.2220   31.8260   46.5500 H   0  0  0  0  0  0  0  0  0  0  0  0
   34.3220   28.7380   45.9620 O   0  0  0  0  0  0  0  0  0  0  0  0
   34.1120   27.7890   45.6980 H   0  0  0  0  0  0  0  0  0  0  0  0
   31.4110   29.0450   46.8380 O   0  0  0  0  0  0  0  0  0  0  0  0
   30.2340   28.4100   46.5460 C   0  0  0  0  0  3  0  0  0  0  0  0
   29.8760   28.5730   45.0660 C   0  0  0  0  0  2  0  0  0  0  0  0
   28.8470   29.6990   45.0820 C   0  0  0  0  0  2  0  0  0  0  0  0
   28.0110   29.2500   46.2870 C   0  0  0  0  0  2  0  0  0  0  0  0
   29.1240   29.0860   47.3270 C   0  0  0  0  0  2  0  0  0  0  0  0
  1  5  1  0  0  0  0
  1  6  1  1  0  0  0
  1  2  1  0  0  0  0
  2  7  1  6  0  0  0
  2 12  1  0  0  0  0
  2  3  1  0  0  0  0
  4  8  1  0  0  0  0
  4  3  1  0  0  0  0
  4  9  1  0  0  0  0
  5 10  1  6  0  0  0
  5  4  1  0  0  0  0
 11 14  1  6  0  0  0
 11 13  1  0  0  0  0
 12 15  1  6  0  0  0
 12 11  1  0  0  0  0
 12 13  1  0  0  0  0
 13 16  1  0  0  0  0
 13 17  1  0  0  0  0
 18 11  1  0  0  0  0
 18 19  1  0  0  0  0
 19 24  1  0  0  0  0
 20 19  2  0  0  0  0
 20 25  1  0  0  0  0
 21 20  1  0  0  0  0
 22 23  1  0  0  0  0
 22 21  2  0  0  0  0
 23 18  2  0  0  0  0
 26 22  1  0  0  0  0
 27  1  1  0  0  0  0
 28 27  1  0  0  0  0
 29  5  1  0  0  0  0
 30 29  1  0  0  0  0
 30 34  1  0  0  0  0
 31 32  1  0  0  0  0
 31 30  1  0  0  0  0
 32 33  1  0  0  0  0
 33 34  1  0  0  0  0
M  END
>  <minimizedAffinity>
-5.00284338

>  <minimizedRMSD>
0.926760316

$$$$
