
     RDKit          3D

 28 29  0  0  0  0  0  0  0  0999 V2000
   37.3781   30.1228   51.1012 C   0  0  0  0  0  0  0  0  0  0  0  0
   38.2293   30.8916   50.2652 C   0  0  0  0  0  0  0  0  0  0  0  0
   37.6869   31.4389   49.0976 C   0  0  0  0  0  0  0  0  0  0  0  0
   36.3606   31.2028   48.8238 N   0  0  0  0  0  0  0  0  0  0  0  0
   35.5932   30.4662   49.6488 C   0  0  0  0  0  0  0  0  0  0  0  0
   36.1000   29.9404   50.7633 N   0  0  0  0  0  0  0  0  0  0  0  0
   33.9095   28.8410   49.2054 C   0  0  0  0  0  0  0  0  0  0  0  0
   34.6899   27.8473   49.3193 O   0  0  0  0  0  0  0  0  0  0  0  0
   34.2102   30.2327   49.3424 N   0  0  0  0  0  0  0  0  0  0  0  0
   38.0734   29.6651   52.1981 O   0  0  0  0  0  0  0  0  0  0  0  0
   39.2766   31.1015   50.4430 H   0  0  0  0  0  0  0  0  0  0  0  0
   38.2426   32.0356   48.3965 H   0  0  0  0  0  0  0  0  0  0  0  0
   32.9246   28.4548   48.9756 H   0  0  0  0  0  0  0  0  0  0  0  0
   33.4229   30.8772   49.2087 H   0  0  0  0  0  0  0  0  0  0  0  0
   37.6096   28.8848   53.2461 C   0  0  0  0  0  0  0  0  0  0  0  0
   36.3662   29.5778   53.7741 C   0  0  0  0  0  0  0  0  0  0  0  0
   35.5323   29.5788   52.5068 C   0  0  0  0  0  0  0  0  0  0  0  0
   35.8783   28.2940   51.8096 C   0  0  0  0  0  0  0  0  0  0  0  0
   36.9623   27.6301   52.6470 C   0  0  0  0  0  0  0  0  0  0  0  0
   38.3388   28.6311   54.0258 H   0  0  0  0  0  0  0  0  0  0  0  0
   35.8851   29.0041   54.5875 H   0  0  0  0  0  0  0  0  0  0  0  0
   36.5850   30.6263   54.0618 H   0  0  0  0  0  0  0  0  0  0  0  0
   35.9421   30.4103   51.8732 H   0  0  0  0  0  0  0  0  0  0  0  0
   34.4530   29.6931   52.7006 H   0  0  0  0  0  0  0  0  0  0  0  0
   36.3542   28.4643   50.8025 H   0  0  0  0  0  0  0  0  0  0  0  0
   34.9856   27.6839   51.6793 H   0  0  0  0  0  0  0  0  0  0  0  0
   37.6693   27.0425   52.0459 H   0  0  0  0  0  0  0  0  0  0  0  0
   36.4260   27.0791   53.4301 H   0  0  0  0  0  0  0  0  0  0  0  0
  1 10  1  0
  2  1  2  0
  3  2  1  0
  4  3  2  0
  4  5  1  0
  5  6  2  0
  6  1  1  0
  7  8  2  0
  7  9  1  0
  9  5  1  0
  2 11  1  0
  3 12  1  0
  7 13  1  0
  9 14  1  0
 15 16  1  0
 16 17  1  0
 17 18  1  0
 18 19  1  0
 19 15  1  0
 15 20  1  0
 16 21  1  0
 16 22  1  0
 17 23  1  0
 17 24  1  0
 18 25  1  0
 18 26  1  0
 19 27  1  0
 19 28  1  0
 10 15  1  0
M  ISO  3  11  14  12  14  13   6
M  END
>  <DihAtoms>  (1) 
0,9,14,15

>  <DihDeg>  (1) 
127.83331743360215

$$$$
