
 OpenBabel03272508453D

 23 25  0  0  0  0  0  0  0  0999 V2000
   35.6600   29.9500   50.1410 C   0  0  0  0  0  0  0  0  0  0  0  0
   36.4810   29.5070   51.1730 C   0  0  0  0  0  0  0  0  0  0  0  0
   37.6680   30.2160   50.9200 C   0  0  0  0  0  0  0  0  0  0  0  0
   37.5080   31.0060   49.8110 C   0  0  0  0  0  0  0  0  0  0  0  0
   36.2860   30.8210   49.3650 O   0  0  0  0  0  0  0  0  0  0  0  0
   36.1980   28.7980   51.9310 H   0  0  0  0  0  0  0  0  0  0  0  0
   38.5490   30.0960   51.5680 H   0  0  0  0  0  0  0  0  0  0  0  0
   38.5000   31.8930   49.2190 C   0  0  0  0  0  3  0  0  0  0  0  0
   38.3000   33.3490   49.5770 C   0  0  0  0  0  2  0  0  0  0  0  0
   39.3530   34.0000   48.6890 C   0  0  0  0  0  2  0  0  0  0  0  0
   39.4900   33.0820   47.4830 C   0  0  0  0  0  2  0  0  0  0  0  0
   38.4450   31.9900   47.7070 C   0  0  0  0  0  2  0  0  0  0  0  0
   34.2710   29.4890   49.9610 C   0  0  0  0  0  0  0  0  0  0  0  0
   33.4570   29.6980   50.8770 O   0  0  0  0  0  0  0  0  0  0  0  0
   32.6530   27.1260   47.7070 C   0  0  0  0  0  0  0  0  0  0  0  0
   33.1470   27.4940   46.4550 C   0  0  0  0  0  0  0  0  0  0  0  0
   34.0340   28.5490   46.3670 C   0  0  0  0  0  0  0  0  0  0  0  0
   34.3780   29.1750   47.5190 N   0  0  0  0  0  0  0  0  0  0  0  0
   33.8930   28.8090   48.7340 C   0  0  0  0  0  0  0  0  0  0  0  0
   33.0350   27.7850   48.8070 N   0  0  0  0  0  0  0  0  0  0  0  0
   31.9670   26.2980   47.7170 H   0  0  0  0  0  0  0  0  0  0  0  0
   32.9120   27.0380   45.5050 H   0  0  0  0  0  0  0  0  0  0  0  0
   34.5130   28.9700   45.4940 H   0  0  0  0  0  0  0  0  0  0  0  0
  1  2  2  0  0  0  0
  2  6  1  0  0  0  0
  3  2  1  0  0  0  0
  3  7  1  0  0  0  0
  4  3  2  0  0  0  0
  5  4  1  0  0  0  0
  5  1  1  0  0  0  0
  8  9  1  0  0  0  0
  8  4  1  0  0  0  0
 10  9  1  0  0  0  0
 11 12  1  0  0  0  0
 11 10  1  0  0  0  0
 12  8  1  0  0  0  0
 13  1  1  0  0  0  0
 13 14  2  0  0  0  0
 15 21  1  0  0  0  0
 15 20  1  0  0  0  0
 16 15  2  0  0  0  0
 17 16  1  0  0  0  0
 17 18  2  0  0  0  0
 18 19  1  0  0  0  0
 19 20  2  0  0  0  0
 19 13  1  0  0  0  0
 22 16  1  0  0  0  0
 23 17  1  0  0  0  0
M  END
>  <minimizedAffinity>
-5.62889481

>  <minimizedRMSD>
2.07609534

$$$$
