REMARK  Name = 
REMARK  3 active torsions:
REMARK  status: ('A' for Active; 'I' for Inactive)
REMARK    1  A    between atoms: C_1  and  C_7
REMARK    2  A    between atoms: C_1  and  C_9
REMARK    3  A    between atoms: C_14  and  C_22
REMARK                            x       y       z     vdW  Elec       q    Type
REMARK                         _______ _______ _______ _____ _____    ______ ____
ROOT
ATOM      1  C   UNL     1      36.079  29.573  49.142  0.00  0.00    +0.000 A 
ATOM      2  C   UNL     1      36.269  29.686  50.530  0.00  0.00    +0.000 A 
ATOM      3  C   UNL     1      37.350  30.426  51.057  0.00  0.00    +0.000 A 
ATOM      4  C   UNL     1      38.246  31.058  50.164  0.00  0.00    +0.000 A 
ATOM      5  C   UNL     1      38.019  30.918  48.792  0.00  0.00    +0.000 A 
ATOM      6  C   UNL     1      36.961  30.193  48.318  0.00  0.00    +0.000 A 
ATOM      7  H   UNL     1      35.576  29.199  51.199  0.00  0.00    +0.000 HD
ATOM      8  H   UNL     1      37.422  30.462  52.135  0.00  0.00    +0.000 HD
ATOM      9  H   UNL     1      39.047  31.605  50.641  0.00  0.00    +0.000 HD
ATOM     10  H   UNL     1      38.787  31.458  48.261  0.00  0.00    +0.000 HD
ENDROOT
BRANCH   6  11
ATOM     11  C   UNL     1      36.940  30.218  46.865  0.00  0.00    +0.000 C 
ATOM     12  C   UNL     1      37.566  28.910  46.412  0.00  0.00    +0.000 C 
ATOM     13  C   UNL     1      36.914  28.784  45.034  0.00  0.00    +0.000 C 
ATOM     14  C   UNL     1      35.467  28.981  45.420  0.00  0.00    +0.000 C 
ATOM     15  C   UNL     1      35.483  30.134  46.357  0.00  0.00    +0.000 C 
ENDBRANCH   6  11
BRANCH   1  16
ATOM     16  C   UNL     1      34.956  28.801  48.679  0.00  0.00    +0.000 C 
ATOM     17  O   UNL     1      34.612  27.852  49.481  0.00  0.00    +0.000 OA
BRANCH  16  22
ATOM     18  C   UNL     1      33.032  30.589  46.181  0.00  0.00    +0.000 A 
ATOM     19  C   UNL     1      32.819  29.653  45.182  0.00  0.00    +0.000 A 
ATOM     20  C   UNL     1      33.328  28.385  45.361  0.00  0.00    +0.000 A 
ATOM     21  N   UNL     1      34.029  28.053  46.499  0.00  0.00    +0.000 NA
ATOM     22  C   UNL     1      34.212  28.993  47.440  0.00  0.00    +0.000 A 
ATOM     23  N   UNL     1      33.714  30.205  47.249  0.00  0.00    +0.000 NA
ATOM     24  H   UNL     1      32.652  31.587  46.081  0.00  0.00    +0.000 HD
ATOM     25  H   UNL     1      32.269  29.943  44.306  0.00  0.00    +0.000 HD
ATOM     26  H   UNL     1      33.179  27.631  44.598  0.00  0.00    +0.000 HD
ENDBRANCH  16  22
ENDBRANCH   1  16
TORSDOF 3
