
 OpenBabel03272501513D

 26 28  0  0  0  0  0  0  0  0999 V2000
   38.4110   32.2150   48.6480 C   0  0  0  0  0  0  0  0  0  0  0  0
   38.5970   33.2150   49.5800 C   0  0  0  0  0  0  0  0  0  0  0  0
   39.4330   34.2980   49.2750 C   0  0  0  0  0  0  0  0  0  0  0  0
   40.0640   34.3530   48.0380 C   0  0  0  0  0  0  0  0  0  0  0  0
   39.8730   33.3440   47.1040 C   0  0  0  0  0  0  0  0  0  0  0  0
   39.0480   32.2890   47.4240 C   0  0  0  0  0  0  0  0  0  0  0  0
   38.0980   33.1690   50.5550 H   0  0  0  0  0  0  0  0  0  0  0  0
   39.5320   35.0380   50.0440 H   0  0  0  0  0  0  0  0  0  0  0  0
   40.6790   35.2490   47.9420 H   0  0  0  0  0  0  0  0  0  0  0  0
   40.4020   33.4760   46.1740 H   0  0  0  0  0  0  0  0  0  0  0  0
   36.9270   29.0900   50.1650 C   0  0  0  0  0  0  0  0  0  0  0  0
   37.8900   30.0740   49.8810 C   0  0  0  0  0  0  0  0  0  0  0  0
   37.5250   31.1240   49.0360 C   0  0  0  0  0  0  0  0  0  0  0  0
   36.2640   31.1140   48.5520 N   0  0  0  0  0  0  0  0  0  0  0  0
   35.3620   30.1550   48.8440 C   0  0  0  0  0  0  0  0  0  0  0  0
   35.6980   29.1380   49.6540 N   0  0  0  0  0  0  0  0  0  0  0  0
   34.0990   30.3240   48.2290 N   0  0  0  0  0  0  0  0  0  0  0  0
   37.2340   28.2850   50.8230 H   0  0  0  0  0  0  0  0  0  0  0  0
   38.8810   30.0700   50.2690 H   0  0  0  0  0  0  0  0  0  0  0  0
   33.3010   30.8170   48.6860 H   0  0  0  0  0  0  0  0  0  0  0  0
   34.0060   29.9190   47.2670 H   0  0  0  0  0  0  0  0  0  0  0  0
   38.8520   31.2100   46.4230 C   0  0  0  0  0  0  0  0  0  0  0  0
   37.8690   31.7210   45.4170 C   0  0  0  0  0  0  0  0  0  0  0  0
   38.6710   32.2800   44.2620 C   0  0  0  0  0  0  0  0  0  0  0  0
   40.0190   31.6150   44.3280 C   0  0  0  0  0  0  0  0  0  0  0  0
   40.1580   30.9800   45.6730 C   0  0  0  0  0  0  0  0  0  0  0  0
  1 13  1  0  0  0  0
  1  2  1  0  0  0  0
  2  7  1  0  0  0  0
  3  2  2  0  0  0  0
  3  8  1  0  0  0  0
  4  3  1  0  0  0  0
  5  6  1  0  0  0  0
  5  4  2  0  0  0  0
  6  1  2  0  0  0  0
  9  4  1  0  0  0  0
 10  5  1  0  0  0  0
 11 18  1  0  0  0  0
 12 11  1  0  0  0  0
 12 19  1  0  0  0  0
 13 12  2  0  0  0  0
 14 15  2  0  0  0  0
 14 13  1  0  0  0  0
 15 16  1  0  0  0  0
 16 11  2  0  0  0  0
 17 20  1  0  0  0  0
 17 15  1  0  0  0  0
 21 17  1  0  0  0  0
 22  6  1  0  0  0  0
 23 22  1  0  0  0  0
 24 25  1  0  0  0  0
 24 23  1  0  0  0  0
 25 26  1  0  0  0  0
 26 22  1  0  0  0  0
M  END
>  <minimizedAffinity>
-6.64314651

>  <minimizedRMSD>
2.2015841

$$$$
