
 OpenBabel03272508273D

 34 37  0  0  1  0  0  0  0  0999 V2000
   33.9940   29.0090   47.3610 C   0  0  2  0  0  0  0  0  0  0  0  0
   34.7540   28.2410   48.4340 C   0  0  2  0  0  0  0  0  0  0  0  0
   33.8670   28.0570   49.4510 O   0  0  0  0  0  0  0  0  0  0  0  0
   32.5850   28.1130   48.9830 C   0  0  0  0  0  0  0  0  0  0  0  0
   32.6340   28.3170   47.4840 C   0  0  1  0  0  0  0  0  0  0  0  0
   33.9230   30.0770   47.5830 H   0  0  0  0  0  0  0  0  0  0  0  0
   35.0580   27.2580   48.0250 H   0  0  0  0  0  0  0  0  0  0  0  0
   32.0920   27.1260   49.1670 H   0  0  0  0  0  0  0  0  0  0  0  0
   31.9290   28.8530   49.4830 H   0  0  0  0  0  0  0  0  0  0  0  0
   32.7110   27.3390   46.9510 H   0  0  0  0  0  0  0  0  0  0  0  0
   35.8090   30.5230   49.0470 C   0  0  1  0  0  0  0  0  0  0  0  0
   35.9080   29.0960   48.8510 C   0  0  1  0  0  0  0  0  0  0  0  0
   36.0520   29.5970   50.2490 C   0  0  0  0  0  0  0  0  0  0  0  0
   34.9050   31.1300   49.2340 H   0  0  0  0  0  0  0  0  0  0  0  0
   36.8770   28.7400   48.3970 H   0  0  0  0  0  0  0  0  0  0  0  0
   37.0540   29.6130   50.7330 H   0  0  0  0  0  0  0  0  0  0  0  0
   35.2460   29.4430   50.9860 H   0  0  0  0  0  0  0  0  0  0  0  0
   36.9970   31.4370   48.7960 C   0  0  0  0  0  0  0  0  0  0  0  0
   37.1940   32.4970   49.6810 C   0  0  0  0  0  0  0  0  0  0  0  0
   38.2760   33.3170   49.3940 C   0  0  0  0  0  0  0  0  0  0  0  0
   39.0750   33.0680   48.3010 N   0  0  0  0  0  0  0  0  0  0  0  0
   38.8460   32.0300   47.4720 C   0  0  0  0  0  0  0  0  0  0  0  0
   37.7940   31.2010   47.7210 N   0  0  0  0  0  0  0  0  0  0  0  0
   36.5510   32.6630   50.5240 H   0  0  0  0  0  0  0  0  0  0  0  0
   38.5110   34.1700   50.0280 H   0  0  0  0  0  0  0  0  0  0  0  0
   39.5030   31.8780   46.6280 H   0  0  0  0  0  0  0  0  0  0  0  0
   34.5180   28.8560   46.0940 O   0  0  0  0  0  0  0  0  0  0  0  0
   34.3280   27.9020   45.8350 H   0  0  0  0  0  0  0  0  0  0  0  0
   31.6140   29.0910   47.0150 O   0  0  0  0  0  0  0  0  0  0  0  0
   30.8270   28.5080   46.0570 C   0  0  0  0  0  3  0  0  0  0  0  0
   30.0540   29.5650   45.2650 C   0  0  0  0  0  2  0  0  0  0  0  0
   28.6700   29.5340   45.9070 C   0  0  0  0  0  2  0  0  0  0  0  0
   28.4870   28.0150   46.0230 C   0  0  0  0  0  2  0  0  0  0  0  0
   29.7840   27.6550   46.7550 C   0  0  0  0  0  2  0  0  0  0  0  0
  1  5  1  0  0  0  0
  1  6  1  1  0  0  0
  1  2  1  0  0  0  0
  2  7  1  6  0  0  0
  2 12  1  0  0  0  0
  2  3  1  0  0  0  0
  4  8  1  0  0  0  0
  4  3  1  0  0  0  0
  4  9  1  0  0  0  0
  5 10  1  6  0  0  0
  5  4  1  0  0  0  0
 11 14  1  6  0  0  0
 11 13  1  0  0  0  0
 12 15  1  6  0  0  0
 12 11  1  0  0  0  0
 12 13  1  0  0  0  0
 13 16  1  0  0  0  0
 13 17  1  0  0  0  0
 18 11  1  0  0  0  0
 18 19  1  0  0  0  0
 19 24  1  0  0  0  0
 20 19  2  0  0  0  0
 20 25  1  0  0  0  0
 21 20  1  0  0  0  0
 22 23  1  0  0  0  0
 22 21  2  0  0  0  0
 23 18  2  0  0  0  0
 26 22  1  0  0  0  0
 27  1  1  0  0  0  0
 28 27  1  0  0  0  0
 29  5  1  0  0  0  0
 30 34  1  0  0  0  0
 30 29  1  0  0  0  0
 31 32  1  0  0  0  0
 31 30  1  0  0  0  0
 32 33  1  0  0  0  0
 33 34  1  0  0  0  0
M  END
>  <minimizedAffinity>
-4.89589357

>  <minimizedRMSD>
0.125169352

$$$$
