REMARK  Name = 
REMARK  5 active torsions:
REMARK  status: ('A' for Active; 'I' for Inactive)
REMARK    1  A    between atoms: C_1  and  C_6
REMARK    2  A    between atoms: C_4  and  C_14
REMARK    3  A    between atoms: C_6  and  C_8
REMARK    4  A    between atoms: C_14  and  C_16
REMARK    5  A    between atoms: C_18  and  C_28
REMARK                            x       y       z     vdW  Elec       q    Type
REMARK                         _______ _______ _______ _____ _____    ______ ____
ROOT
ATOM      1  C   UNL     1      35.822  29.138  49.804  0.00  0.00    +0.000 A 
ATOM      2  C   UNL     1      34.804  29.659  50.569  0.00  0.00    +0.000 A 
ATOM      3  C   UNL     1      33.603  29.122  50.088  0.00  0.00    +0.000 A 
ATOM      4  C   UNL     1      33.971  28.298  49.048  0.00  0.00    +0.000 A 
ATOM      5  O   UNL     1      35.279  28.338  48.916  0.00  0.00    +0.000 OA
ATOM      6  H   UNL     1      34.882  30.364  51.406  0.00  0.00    +0.000 HD
ATOM      7  H   UNL     1      32.598  29.309  50.450  0.00  0.00    +0.000 HD
ENDROOT
BRANCH   1   8
ATOM      8  C   UNL     1      37.219  29.482  50.027  0.00  0.00    +0.000 C 
ATOM      9  O   UNL     1      37.861  28.871  50.888  0.00  0.00    +0.000 OA
BRANCH   8  10
ATOM     10  C   UNL     1      37.767  30.530  49.213  0.00  0.00    +0.000 A 
ATOM     11  C   UNL     1      38.113  31.710  49.852  0.00  0.00    +0.000 A 
ATOM     12  C   UNL     1      38.647  32.752  49.088  0.00  0.00    +0.000 A 
ATOM     13  N   UNL     1      38.804  32.551  47.736  0.00  0.00    +0.000 NA
ATOM     14  C   UNL     1      38.458  31.396  47.154  0.00  0.00    +0.000 A 
ATOM     15  N   UNL     1      37.945  30.392  47.879  0.00  0.00    +0.000 NA
ATOM     16  H   UNL     1      38.000  31.899  50.922  0.00  0.00    +0.000 HD
ATOM     17  H   UNL     1      38.923  33.677  49.560  0.00  0.00    +0.000 HD
ATOM     18  H   UNL     1      38.593  31.265  46.082  0.00  0.00    +0.000 HD
ENDBRANCH   8  10
ENDBRANCH   1   8
BRANCH   4  19
ATOM     19  C   UNL     1      33.063  27.502  48.223  0.00  0.00    +0.000 C 
ATOM     20  O   UNL     1      31.839  27.421  48.572  0.00  0.00    +0.000 OA
BRANCH  19  21
ATOM     21  C   UNL     1      33.575  26.797  47.000  0.00  0.00    +0.000 C 
ATOM     22  C   UNL     1      33.781  25.269  47.310  0.00  0.00    +0.000 C 
ATOM     23  C   UNL     1      32.773  25.765  46.341  0.00  0.00    +0.000 C 
ATOM     24  H   UNL     1      34.566  27.179  46.677  0.00  0.00    +0.000 HD
ATOM     25  H   UNL     1      33.377  24.890  48.260  0.00  0.00    +0.000 HD
ATOM     26  H   UNL     1      34.699  24.791  46.989  0.00  0.00    +0.000 HD
ATOM     27  H   UNL     1      31.709  25.692  46.602  0.00  0.00    +0.000 HD
BRANCH  23  28
ATOM     28  C   UNL     1      33.051  25.608  44.845  0.00  0.00    +0.000 C 
ATOM     29  C   UNL     1      32.154  26.509  44.026  0.00  0.00    +0.000 C 
ATOM     30  C   UNL     1      32.241  25.798  42.668  0.00  0.00    +0.000 C 
ATOM     31  C   UNL     1      31.843  24.386  43.119  0.00  0.00    +0.000 C 
ATOM     32  C   UNL     1      32.665  24.222  44.382  0.00  0.00    +0.000 C 
ENDBRANCH  23  28
ENDBRANCH  19  21
ENDBRANCH   4  19
TORSDOF 5
