
 OpenBabel03272510283D

 41 45  0  0  1  0  0  0  0  0999 V2000
   35.5490   30.3870   32.8370 C   0  0  0  0  0  0  0  0  0  0  0  0
   35.5560   29.9190   34.1490 C   0  0  0  0  0  0  0  0  0  0  0  0
   36.0600   28.6520   34.4610 C   0  0  0  0  0  0  0  0  0  0  0  0
   36.5450   27.9010   33.3950 C   0  0  0  0  0  0  0  0  0  0  0  0
   37.0850   26.6470   33.4460 N   0  0  0  0  0  0  0  0  0  0  0  0
   37.4140   26.3280   32.1860 C   0  0  0  0  0  0  0  0  0  0  0  0
   37.0990   27.3260   31.3750 N   0  0  0  0  0  0  0  0  0  0  0  0
   36.5560   28.3260   32.0890 C   0  0  0  0  0  0  0  0  0  0  0  0
   36.0430   29.5990   31.8120 C   0  0  0  0  0  0  0  0  0  0  0  0
   35.1590   31.3680   32.5930 H   0  0  0  0  0  0  0  0  0  0  0  0
   36.0710   28.2770   35.4810 H   0  0  0  0  0  0  0  0  0  0  0  0
   37.2170   26.0480   34.3060 H   0  0  0  0  0  0  0  0  0  0  0  0
   36.0520   29.9330   30.7820 H   0  0  0  0  0  0  0  0  0  0  0  0
   35.0480   32.4900   36.8280 C   0  0  0  0  0  0  0  0  0  0  0  0
   35.7170   31.7680   35.8570 C   0  0  0  0  0  0  0  0  0  0  0  0
   35.0290   30.7780   35.1920 C   0  0  0  0  0  0  0  0  0  0  0  0
   33.7100   30.5730   35.5460 N   0  0  0  0  0  0  0  0  0  0  0  0
   33.0790   31.2900   36.4970 C   0  0  0  0  0  0  0  0  0  0  0  0
   33.7440   32.2340   37.1270 N   0  0  0  0  0  0  0  0  0  0  0  0
   35.6650   33.2510   37.3020 H   0  0  0  0  0  0  0  0  0  0  0  0
   36.7480   31.9180   35.5720 H   0  0  0  0  0  0  0  0  0  0  0  0
   32.0430   31.0770   36.7230 H   0  0  0  0  0  0  0  0  0  0  0  0
   37.9990   25.1050   31.8520 O   0  0  0  0  0  0  0  0  0  0  0  0
   38.1950   24.0810   33.9090 N   0  0  0  0  0  0  0  0  0  0  0  0
   38.9490   24.6040   32.7800 C   0  0  1  0  0  0  0  0  0  0  0  0
   39.7610   23.5570   32.1810 C   0  0  0  0  0  0  0  0  0  0  0  0
   40.6970   23.1130   33.1310 O   0  0  0  0  0  0  0  0  0  0  0  0
   40.1720   22.6980   34.3220 C   0  0  0  0  0  0  0  0  0  0  0  0
   39.2080   23.7330   34.8730 C   0  0  2  0  0  0  0  0  0  0  0  0
   37.6610   23.2370   33.7670 H   0  0  0  0  0  0  0  0  0  0  0  0
   39.5820   25.4160   33.1750 H   0  0  0  0  0  0  0  0  0  0  0  0
   40.4150   24.0490   31.3960 H   0  0  0  0  0  0  0  0  0  0  0  0
   39.3970   22.6660   31.7480 H   0  0  0  0  0  0  0  0  0  0  0  0
   39.6880   21.7240   34.1510 H   0  0  0  0  0  0  0  0  0  0  0  0
   40.9940   22.6340   35.0450 H   0  0  0  0  0  0  0  0  0  0  0  0
   39.8270   24.6540   34.9870 H   0  0  0  0  0  0  0  0  0  0  0  0
   38.6890   23.4020   36.2190 C   0  0  0  0  0  3  0  0  0  0  0  0
   38.1080   24.6080   36.9090 C   0  0  0  0  0  2  0  0  0  0  0  0
   37.7810   23.9860   38.2740 C   0  0  0  0  0  2  0  0  0  0  0  0
   39.0780   23.2660   38.5700 C   0  0  0  0  0  2  0  0  0  0  0  0
   39.7150   22.9490   37.2100 C   0  0  0  0  0  2  0  0  0  0  0  0
  1  2  1  0  0  0  0
  2  3  2  0  0  0  0
  2 16  1  0  0  0  0
  3 11  1  0  0  0  0
  4  5  1  0  0  0  0
  4  3  1  0  0  0  0
  5 12  1  0  0  0  0
  6  5  1  0  0  0  0
  7  8  1  0  0  0  0
  7  6  2  0  0  0  0
  8  4  2  0  0  0  0
  9  8  1  0  0  0  0
  9  1  2  0  0  0  0
 10  1  1  0  0  0  0
 13  9  1  0  0  0  0
 14 19  1  0  0  0  0
 14 20  1  0  0  0  0
 15 14  2  0  0  0  0
 16 17  2  0  0  0  0
 16 15  1  0  0  0  0
 17 18  1  0  0  0  0
 18 22  1  0  0  0  0
 18 19  2  0  0  0  0
 21 15  1  0  0  0  0
 23  6  1  0  0  0  0
 23 25  1  0  0  0  0
 24 29  1  0  0  0  0
 25 31  1  1  0  0  0
 25 24  1  0  0  0  0
 26 25  1  0  0  0  0
 26 27  1  0  0  0  0
 27 28  1  0  0  0  0
 28 29  1  0  0  0  0
 28 35  1  0  0  0  0
 29 36  1  1  0  0  0
 29 37  1  0  0  0  0
 30 24  1  0  0  0  0
 32 26  1  0  0  0  0
 33 26  1  0  0  0  0
 34 28  1  0  0  0  0
 37 38  1  0  0  0  0
 37 41  1  0  0  0  0
 38 39  1  0  0  0  0
 39 40  1  0  0  0  0
 41 40  1  0  0  0  0
M  END
>  <minimizedAffinity>
-6.43309355

$$$$

 OpenBabel03272510283D

 41 45  0  0  1  0  0  0  0  0999 V2000
   40.0270   26.0730   34.5290 C   0  0  0  0  0  0  0  0  0  0  0  0
   38.8480   25.4860   34.9850 C   0  0  0  0  0  0  0  0  0  0  0  0
   37.6290   25.7190   34.3420 C   0  0  0  0  0  0  0  0  0  0  0  0
   37.6650   26.5600   33.2350 C   0  0  0  0  0  0  0  0  0  0  0  0
   36.6150   26.9340   32.4460 N   0  0  0  0  0  0  0  0  0  0  0  0
   37.1200   27.7440   31.5050 C   0  0  0  0  0  0  0  0  0  0  0  0
   38.4250   27.8800   31.6860 N   0  0  0  0  0  0  0  0  0  0  0  0
   38.8040   27.1570   32.7530 C   0  0  0  0  0  0  0  0  0  0  0  0
   40.0080   26.9030   33.4220 C   0  0  0  0  0  0  0  0  0  0  0  0
   40.9720   25.8940   35.0260 H   0  0  0  0  0  0  0  0  0  0  0  0
   36.7040   25.2650   34.6900 H   0  0  0  0  0  0  0  0  0  0  0  0
   35.6050   26.6430   32.5550 H   0  0  0  0  0  0  0  0  0  0  0  0
   40.9050   27.3750   33.0410 H   0  0  0  0  0  0  0  0  0  0  0  0
   39.6810   22.8370   37.5030 C   0  0  0  0  0  0  0  0  0  0  0  0
   39.7620   23.5520   36.3230 C   0  0  0  0  0  0  0  0  0  0  0  0
   38.9130   24.6210   36.1490 C   0  0  0  0  0  0  0  0  0  0  0  0
   38.0320   24.9060   37.1730 N   0  0  0  0  0  0  0  0  0  0  0  0
   37.9710   24.1940   38.3160 C   0  0  0  0  0  0  0  0  0  0  0  0
   38.7860   23.1750   38.4730 N   0  0  0  0  0  0  0  0  0  0  0  0
   40.3860   22.0110   37.5570 H   0  0  0  0  0  0  0  0  0  0  0  0
   40.4460   23.3390   35.5140 H   0  0  0  0  0  0  0  0  0  0  0  0
   37.2560   24.4740   39.0780 H   0  0  0  0  0  0  0  0  0  0  0  0
   36.3290   28.3250   30.5120 O   0  0  0  0  0  0  0  0  0  0  0  0
   36.1060   29.9480   32.1360 N   0  0  0  0  0  0  0  0  0  0  0  0
   36.0040   29.6930   30.7070 C   0  0  1  0  0  0  0  0  0  0  0  0
   36.9150   30.5550   29.9700 C   0  0  0  0  0  0  0  0  0  0  0  0
   36.5360   31.8930   30.1770 O   0  0  0  0  0  0  0  0  0  0  0  0
   36.4510   32.2820   31.4830 C   0  0  0  0  0  0  0  0  0  0  0  0
   35.6190   31.2970   32.2840 C   0  0  2  0  0  0  0  0  0  0  0  0
   37.0260   29.9510   32.5480 H   0  0  0  0  0  0  0  0  0  0  0  0
   34.9570   29.8950   30.4250 H   0  0  0  0  0  0  0  0  0  0  0  0
   36.7000   30.4020   28.8670 H   0  0  0  0  0  0  0  0  0  0  0  0
   37.9650   30.5710   30.0690 H   0  0  0  0  0  0  0  0  0  0  0  0
   37.4770   32.3750   31.8710 H   0  0  0  0  0  0  0  0  0  0  0  0
   35.9060   33.2340   31.5130 H   0  0  0  0  0  0  0  0  0  0  0  0
   34.6240   31.3020   31.7790 H   0  0  0  0  0  0  0  0  0  0  0  0
   35.3880   31.7170   33.6840 C   0  0  0  0  0  3  0  0  0  0  0  0
   36.3380   32.8050   34.1080 C   0  0  0  0  0  2  0  0  0  0  0  0
   35.9410   32.9280   35.5860 C   0  0  0  0  0  2  0  0  0  0  0  0
   35.9350   31.4720   35.9940 C   0  0  0  0  0  2  0  0  0  0  0  0
   35.6470   30.6680   34.7200 C   0  0  0  0  0  2  0  0  0  0  0  0
  1  2  1  0  0  0  0
  1 10  1  0  0  0  0
  2 16  1  0  0  0  0
  3 11  1  0  0  0  0
  3  2  2  0  0  0  0
  4  3  1  0  0  0  0
  5 12  1  0  0  0  0
  5  4  1  0  0  0  0
  6  7  2  0  0  0  0
  6  5  1  0  0  0  0
  7  8  1  0  0  0  0
  8  4  2  0  0  0  0
  8  9  1  0  0  0  0
  9  1  2  0  0  0  0
 13  9  1  0  0  0  0
 14 20  1  0  0  0  0
 14 19  1  0  0  0  0
 15 14  2  0  0  0  0
 16 15  1  0  0  0  0
 16 17  2  0  0  0  0
 17 18  1  0  0  0  0
 18 19  2  0  0  0  0
 18 22  1  0  0  0  0
 21 15  1  0  0  0  0
 23 25  1  0  0  0  0
 23  6  1  0  0  0  0
 24 29  1  0  0  0  0
 24 30  1  0  0  0  0
 25 31  1  6  0  0  0
 25 24  1  0  0  0  0
 26 33  1  0  0  0  0
 26 27  1  0  0  0  0
 26 25  1  0  0  0  0
 27 28  1  0  0  0  0
 28 35  1  0  0  0  0
 28 34  1  0  0  0  0
 28 29  1  0  0  0  0
 29 36  1  6  0  0  0
 29 37  1  0  0  0  0
 32 26  1  0  0  0  0
 37 38  1  0  0  0  0
 37 41  1  0  0  0  0
 38 39  1  0  0  0  0
 39 40  1  0  0  0  0
 41 40  1  0  0  0  0
M  END
>  <minimizedAffinity>
-6.34473372

$$$$

 OpenBabel03272510283D

 41 45  0  0  1  0  0  0  0  0999 V2000
   38.1730   24.8790   33.6660 C   0  0  0  0  0  0  0  0  0  0  0  0
   38.0070   25.3220   34.9760 C   0  0  0  0  0  0  0  0  0  0  0  0
   37.3720   26.5360   35.2530 C   0  0  0  0  0  0  0  0  0  0  0  0
   36.9230   27.2630   34.1560 C   0  0  0  0  0  0  0  0  0  0  0  0
   36.2760   28.4660   34.1690 N   0  0  0  0  0  0  0  0  0  0  0  0
   36.0370   28.7790   32.8880 C   0  0  0  0  0  0  0  0  0  0  0  0
   36.5070   27.8260   32.0990 N   0  0  0  0  0  0  0  0  0  0  0  0
   37.0660   26.8620   32.8500 C   0  0  0  0  0  0  0  0  0  0  0  0
   37.7080   25.6410   32.6080 C   0  0  0  0  0  0  0  0  0  0  0  0
   38.6650   23.9390   33.4490 H   0  0  0  0  0  0  0  0  0  0  0  0
   37.2380   26.8910   36.2720 H   0  0  0  0  0  0  0  0  0  0  0  0
   36.0170   29.0370   35.0190 H   0  0  0  0  0  0  0  0  0  0  0  0
   37.8200   25.3260   31.5780 H   0  0  0  0  0  0  0  0  0  0  0  0
   39.8930   22.8890   37.1140 C   0  0  0  0  0  0  0  0  0  0  0  0
   39.5530   23.5980   35.9770 C   0  0  0  0  0  0  0  0  0  0  0  0
   38.5090   24.4920   36.0550 C   0  0  0  0  0  0  0  0  0  0  0  0
   37.8690   24.6170   37.2730 N   0  0  0  0  0  0  0  0  0  0  0  0
   38.2190   23.9140   38.3680 C   0  0  0  0  0  0  0  0  0  0  0  0
   39.2170   23.0630   38.2840 N   0  0  0  0  0  0  0  0  0  0  0  0
   40.7270   22.2070   36.9640 H   0  0  0  0  0  0  0  0  0  0  0  0
   40.0450   23.5090   35.0200 H   0  0  0  0  0  0  0  0  0  0  0  0
   37.6740   24.0630   39.2910 H   0  0  0  0  0  0  0  0  0  0  0  0
   35.3830   29.9540   32.5130 O   0  0  0  0  0  0  0  0  0  0  0  0
   33.4750   29.7490   33.7920 N   0  0  0  0  0  0  0  0  0  0  0  0
   33.9680   29.8710   32.4290 C   0  0  1  0  0  0  0  0  0  0  0  0
   33.4130   31.0530   31.7900 C   0  0  0  0  0  0  0  0  0  0  0  0
   32.0170   30.9090   31.7120 O   0  0  0  0  0  0  0  0  0  0  0  0
   31.3860   30.6570   32.8960 C   0  0  0  0  0  0  0  0  0  0  0  0
   32.0620   29.5140   33.6310 C   0  0  2  0  0  0  0  0  0  0  0  0
   33.5430   30.5580   34.3910 H   0  0  0  0  0  0  0  0  0  0  0  0
   33.6570   28.9540   31.9000 H   0  0  0  0  0  0  0  0  0  0  0  0
   33.7290   31.0240   30.7020 H   0  0  0  0  0  0  0  0  0  0  0  0
   33.5470   32.0490   32.1120 H   0  0  0  0  0  0  0  0  0  0  0  0
   31.3880   31.5900   33.4800 H   0  0  0  0  0  0  0  0  0  0  0  0
   30.3700   30.3100   32.6660 H   0  0  0  0  0  0  0  0  0  0  0  0
   31.9910   28.6510   32.9270 H   0  0  0  0  0  0  0  0  0  0  0  0
   31.3610   29.1090   34.8710 C   0  0  0  0  0  3  0  0  0  0  0  0
   32.2980   29.0360   36.0470 C   0  0  0  0  0  2  0  0  0  0  0  0
   31.3310   28.4920   37.1090 C   0  0  0  0  0  2  0  0  0  0  0  0
   30.6900   27.3550   36.3440 C   0  0  0  0  0  2  0  0  0  0  0  0
   30.7800   27.7300   34.8590 C   0  0  0  0  0  2  0  0  0  0  0  0
  1  2  1  0  0  0  0
  2  3  2  0  0  0  0
  2 16  1  0  0  0  0
  3 11  1  0  0  0  0
  4  5  1  0  0  0  0
  4  3  1  0  0  0  0
  5 12  1  0  0  0  0
  6  5  1  0  0  0  0
  7  8  1  0  0  0  0
  7  6  2  0  0  0  0
  8  4  2  0  0  0  0
  9  8  1  0  0  0  0
  9  1  2  0  0  0  0
 10  1  1  0  0  0  0
 13  9  1  0  0  0  0
 14 19  1  0  0  0  0
 15 16  1  0  0  0  0
 15 14  2  0  0  0  0
 16 17  2  0  0  0  0
 17 18  1  0  0  0  0
 18 22  1  0  0  0  0
 19 18  2  0  0  0  0
 20 14  1  0  0  0  0
 21 15  1  0  0  0  0
 23  6  1  0  0  0  0
 24 30  1  0  0  0  0
 25 31  1  6  0  0  0
 25 23  1  0  0  0  0
 25 24  1  0  0  0  0
 26 33  1  0  0  0  0
 26 25  1  0  0  0  0
 27 26  1  0  0  0  0
 27 28  1  0  0  0  0
 28 34  1  0  0  0  0
 28 29  1  0  0  0  0
 29 36  1  6  0  0  0
 29 24  1  0  0  0  0
 29 37  1  0  0  0  0
 32 26  1  0  0  0  0
 35 28  1  0  0  0  0
 37 38  1  0  0  0  0
 38 39  1  0  0  0  0
 40 39  1  0  0  0  0
 41 37  1  0  0  0  0
 41 40  1  0  0  0  0
M  END
>  <minimizedAffinity>
-6.190413

$$$$

 OpenBabel03272510283D

 41 45  0  0  1  0  0  0  0  0999 V2000
   38.0510   24.0690   33.7130 C   0  0  0  0  0  0  0  0  0  0  0  0
   38.1180   24.7950   34.9000 C   0  0  0  0  0  0  0  0  0  0  0  0
   37.7090   26.1310   34.9550 C   0  0  0  0  0  0  0  0  0  0  0  0
   37.2370   26.6810   33.7680 C   0  0  0  0  0  0  0  0  0  0  0  0
   36.7810   27.9540   33.5700 N   0  0  0  0  0  0  0  0  0  0  0  0
   36.4310   28.0320   32.2790 C   0  0  0  0  0  0  0  0  0  0  0  0
   36.6530   26.8700   31.6840 N   0  0  0  0  0  0  0  0  0  0  0  0
   37.1540   26.0010   32.5780 C   0  0  0  0  0  0  0  0  0  0  0  0
   37.5730   24.6650   32.5580 C   0  0  0  0  0  0  0  0  0  0  0  0
   38.3680   23.0350   33.6680 H   0  0  0  0  0  0  0  0  0  0  0  0
   37.7570   26.7060   35.8760 H   0  0  0  0  0  0  0  0  0  0  0  0
   36.7180   28.7230   34.2910 H   0  0  0  0  0  0  0  0  0  0  0  0
   37.5080   24.1290   31.6190 H   0  0  0  0  0  0  0  0  0  0  0  0
   38.6620   23.4340   38.3500 C   0  0  0  0  0  0  0  0  0  0  0  0
   38.0320   24.1230   37.3300 C   0  0  0  0  0  0  0  0  0  0  0  0
   38.6240   24.1320   36.0880 C   0  0  0  0  0  0  0  0  0  0  0  0
   39.8160   23.4480   35.9470 N   0  0  0  0  0  0  0  0  0  0  0  0
   40.4120   22.7840   36.9560 C   0  0  0  0  0  0  0  0  0  0  0  0
   39.8390   22.7810   38.1400 N   0  0  0  0  0  0  0  0  0  0  0  0
   38.1270   23.4780   39.2960 H   0  0  0  0  0  0  0  0  0  0  0  0
   37.1010   24.6610   37.4280 H   0  0  0  0  0  0  0  0  0  0  0  0
   41.3450   22.2680   36.7750 H   0  0  0  0  0  0  0  0  0  0  0  0
   35.9160   29.1980   31.7110 O   0  0  0  0  0  0  0  0  0  0  0  0
   35.0730   30.2980   33.5550 N   0  0  0  0  0  0  0  0  0  0  0  0
   34.7110   29.6820   32.2880 C   0  0  1  0  0  0  0  0  0  0  0  0
   34.0690   30.6510   31.4160 C   0  0  0  0  0  0  0  0  0  0  0  0
   32.8740   31.0790   32.0200 O   0  0  0  0  0  0  0  0  0  0  0  0
   33.0030   31.5760   33.2860 C   0  0  0  0  0  0  0  0  0  0  0  0
   33.8040   30.6260   34.1570 C   0  0  2  0  0  0  0  0  0  0  0  0
   35.5860   31.1660   33.5270 H   0  0  0  0  0  0  0  0  0  0  0  0
   34.0260   28.8510   32.5260 H   0  0  0  0  0  0  0  0  0  0  0  0
   33.6990   30.0870   30.5040 H   0  0  0  0  0  0  0  0  0  0  0  0
   34.5040   31.5430   31.0570 H   0  0  0  0  0  0  0  0  0  0  0  0
   33.4720   32.5690   33.2070 H   0  0  0  0  0  0  0  0  0  0  0  0
   32.0000   31.6220   33.7300 H   0  0  0  0  0  0  0  0  0  0  0  0
   33.2200   29.6750   34.1370 H   0  0  0  0  0  0  0  0  0  0  0  0
   33.8850   31.0460   35.5740 C   0  0  0  0  0  3  0  0  0  0  0  0
   32.8500   32.0870   35.9110 C   0  0  0  0  0  2  0  0  0  0  0  0
   33.2600   32.3930   37.3580 C   0  0  0  0  0  2  0  0  0  0  0  0
   34.7530   32.5690   37.1930 C   0  0  0  0  0  2  0  0  0  0  0  0
   35.1520   31.7400   35.9660 C   0  0  0  0  0  2  0  0  0  0  0  0
  1  2  1  0  0  0  0
  2  3  2  0  0  0  0
  2 16  1  0  0  0  0
  3 11  1  0  0  0  0
  4  3  1  0  0  0  0
  5  4  1  0  0  0  0
  5 12  1  0  0  0  0
  6  5  1  0  0  0  0
  7  6  2  0  0  0  0
  7  8  1  0  0  0  0
  8  4  2  0  0  0  0
  9  8  1  0  0  0  0
  9  1  2  0  0  0  0
 10  1  1  0  0  0  0
 13  9  1  0  0  0  0
 14 20  1  0  0  0  0
 15 21  1  0  0  0  0
 15 14  2  0  0  0  0
 16 15  1  0  0  0  0
 17 16  2  0  0  0  0
 17 18  1  0  0  0  0
 18 19  2  0  0  0  0
 19 14  1  0  0  0  0
 22 18  1  0  0  0  0
 23  6  1  0  0  0  0
 23 25  1  0  0  0  0
 24 29  1  0  0  0  0
 25 31  1  1  0  0  0
 25 24  1  0  0  0  0
 26 27  1  0  0  0  0
 26 25  1  0  0  0  0
 27 28  1  0  0  0  0
 28 35  1  0  0  0  0
 28 29  1  0  0  0  0
 29 36  1  1  0  0  0
 29 37  1  0  0  0  0
 30 24  1  0  0  0  0
 32 26  1  0  0  0  0
 33 26  1  0  0  0  0
 34 28  1  0  0  0  0
 37 38  1  0  0  0  0
 37 41  1  0  0  0  0
 38 39  1  0  0  0  0
 40 39  1  0  0  0  0
 41 40  1  0  0  0  0
M  END
>  <minimizedAffinity>
-6.18663406

$$$$

 OpenBabel03272510283D

 41 45  0  0  1  0  0  0  0  0999 V2000
   35.2410   30.3620   32.8580 C   0  0  0  0  0  0  0  0  0  0  0  0
   35.4020   29.9530   34.1800 C   0  0  0  0  0  0  0  0  0  0  0  0
   36.0500   28.7540   34.4910 C   0  0  0  0  0  0  0  0  0  0  0  0
   36.5170   28.0060   33.4140 C   0  0  0  0  0  0  0  0  0  0  0  0
   37.1780   26.8120   33.4610 N   0  0  0  0  0  0  0  0  0  0  0  0
   37.4310   26.4720   32.1900 C   0  0  0  0  0  0  0  0  0  0  0  0
   36.9560   27.4000   31.3750 N   0  0  0  0  0  0  0  0  0  0  0  0
   36.3780   28.3740   32.0980 C   0  0  0  0  0  0  0  0  0  0  0  0
   35.7240   29.5810   31.8220 C   0  0  0  0  0  0  0  0  0  0  0  0
   34.7390   31.2910   32.6140 H   0  0  0  0  0  0  0  0  0  0  0  0
   36.1810   28.4250   35.5190 H   0  0  0  0  0  0  0  0  0  0  0  0
   37.4380   26.2650   34.3270 H   0  0  0  0  0  0  0  0  0  0  0  0
   35.6150   29.8700   30.7840 H   0  0  0  0  0  0  0  0  0  0  0  0
   34.9330   32.4420   36.9430 C   0  0  0  0  0  0  0  0  0  0  0  0
   35.5990   31.7170   35.9720 C   0  0  0  0  0  0  0  0  0  0  0  0
   34.8820   30.8030   35.2350 C   0  0  0  0  0  0  0  0  0  0  0  0
   33.5370   30.6730   35.5180 N   0  0  0  0  0  0  0  0  0  0  0  0
   32.9080   31.3910   36.4690 C   0  0  0  0  0  0  0  0  0  0  0  0
   33.6020   32.2620   37.1690 N   0  0  0  0  0  0  0  0  0  0  0  0
   35.5740   33.1400   37.4770 H   0  0  0  0  0  0  0  0  0  0  0  0
   36.6510   31.8090   35.7420 H   0  0  0  0  0  0  0  0  0  0  0  0
   31.8510   31.2390   36.6380 H   0  0  0  0  0  0  0  0  0  0  0  0
   38.1030   25.2960   31.8490 O   0  0  0  0  0  0  0  0  0  0  0  0
   37.6800   23.0430   32.1030 N   0  0  0  0  0  0  0  0  0  0  0  0
   38.0510   24.2560   32.8150 C   0  0  1  0  0  0  0  0  0  0  0  0
   39.3390   24.0890   33.4690 C   0  0  0  0  0  0  0  0  0  0  0  0
   39.2270   23.0670   34.4280 O   0  0  0  0  0  0  0  0  0  0  0  0
   38.7620   21.8720   33.9600 C   0  0  0  0  0  0  0  0  0  0  0  0
   37.4940   22.0690   33.1510 C   0  0  2  0  0  0  0  0  0  0  0  0
   38.3600   22.6370   31.4800 H   0  0  0  0  0  0  0  0  0  0  0  0
   37.2550   24.4440   33.5550 H   0  0  0  0  0  0  0  0  0  0  0  0
   39.5130   25.0110   34.1050 H   0  0  0  0  0  0  0  0  0  0  0  0
   40.2550   23.8840   32.9860 H   0  0  0  0  0  0  0  0  0  0  0  0
   39.5690   21.4090   33.3700 H   0  0  0  0  0  0  0  0  0  0  0  0
   38.4770   21.2620   34.8270 H   0  0  0  0  0  0  0  0  0  0  0  0
   36.7810   22.5450   33.8650 H   0  0  0  0  0  0  0  0  0  0  0  0
   36.8700   20.8020   32.7080 C   0  0  0  0  0  3  0  0  0  0  0  0
   36.5400   20.8220   31.2380 C   0  0  0  0  0  2  0  0  0  0  0  0
   35.8220   19.4710   31.1210 C   0  0  0  0  0  2  0  0  0  0  0  0
   34.8770   19.5550   32.2980 C   0  0  0  0  0  2  0  0  0  0  0  0
   35.5360   20.4970   33.3140 C   0  0  0  0  0  2  0  0  0  0  0  0
  1  2  1  0  0  0  0
  2  3  2  0  0  0  0
  2 16  1  0  0  0  0
  3 11  1  0  0  0  0
  4  5  1  0  0  0  0
  4  3  1  0  0  0  0
  5 12  1  0  0  0  0
  6  5  1  0  0  0  0
  7  8  1  0  0  0  0
  7  6  2  0  0  0  0
  8  4  2  0  0  0  0
  9  8  1  0  0  0  0
  9  1  2  0  0  0  0
 10  1  1  0  0  0  0
 13  9  1  0  0  0  0
 14 19  1  0  0  0  0
 14 20  1  0  0  0  0
 15 14  2  0  0  0  0
 16 17  2  0  0  0  0
 16 15  1  0  0  0  0
 17 18  1  0  0  0  0
 18 22  1  0  0  0  0
 18 19  2  0  0  0  0
 21 15  1  0  0  0  0
 23  6  1  0  0  0  0
 23 25  1  0  0  0  0
 24 25  1  0  0  0  0
 24 29  1  0  0  0  0
 25 26  1  0  0  0  0
 25 31  1  1  0  0  0
 26 32  1  0  0  0  0
 26 27  1  0  0  0  0
 28 27  1  0  0  0  0
 28 35  1  0  0  0  0
 29 36  1  1  0  0  0
 29 28  1  0  0  0  0
 30 24  1  0  0  0  0
 33 26  1  0  0  0  0
 34 28  1  0  0  0  0
 37 29  1  0  0  0  0
 37 41  1  0  0  0  0
 38 37  1  0  0  0  0
 39 38  1  0  0  0  0
 39 40  1  0  0  0  0
 40 41  1  0  0  0  0
M  END
>  <minimizedAffinity>
-6.18245411

$$$$

 OpenBabel03272510283D

 41 45  0  0  1  0  0  0  0  0999 V2000
   37.6340   24.9950   33.7480 C   0  0  0  0  0  0  0  0  0  0  0  0
   37.8340   25.4730   35.0410 C   0  0  0  0  0  0  0  0  0  0  0  0
   37.4610   26.7730   35.3970 C   0  0  0  0  0  0  0  0  0  0  0  0
   36.8870   27.5470   34.3940 C   0  0  0  0  0  0  0  0  0  0  0  0
   36.4410   28.8340   34.4960 N   0  0  0  0  0  0  0  0  0  0  0  0
   35.9680   29.1660   33.2870 C   0  0  0  0  0  0  0  0  0  0  0  0
   36.1040   28.1430   32.4570 N   0  0  0  0  0  0  0  0  0  0  0  0
   36.6720   27.1140   33.1090 C   0  0  0  0  0  0  0  0  0  0  0  0
   37.0580   25.8080   32.7860 C   0  0  0  0  0  0  0  0  0  0  0  0
   37.9220   23.9890   33.4700 H   0  0  0  0  0  0  0  0  0  0  0  0
   37.6120   27.1550   36.4040 H   0  0  0  0  0  0  0  0  0  0  0  0
   36.4660   29.4470   35.3560 H   0  0  0  0  0  0  0  0  0  0  0  0
   36.8900   25.4670   31.7720 H   0  0  0  0  0  0  0  0  0  0  0  0
   39.9790   23.0040   36.8730 C   0  0  0  0  0  0  0  0  0  0  0  0
   39.5400   23.7870   35.8200 C   0  0  0  0  0  0  0  0  0  0  0  0
   38.4390   24.5880   36.0190 C   0  0  0  0  0  0  0  0  0  0  0  0
   37.8440   24.5540   37.2650 N   0  0  0  0  0  0  0  0  0  0  0  0
   38.2900   23.7830   38.2760 C   0  0  0  0  0  0  0  0  0  0  0  0
   39.3420   23.0200   38.0770 N   0  0  0  0  0  0  0  0  0  0  0  0
   40.8520   22.4030   36.6300 H   0  0  0  0  0  0  0  0  0  0  0  0
   39.9960   23.8220   34.8420 H   0  0  0  0  0  0  0  0  0  0  0  0
   37.7760   23.8050   39.2280 H   0  0  0  0  0  0  0  0  0  0  0  0
   35.4240   30.4220   33.0140 O   0  0  0  0  0  0  0  0  0  0  0  0
   33.6680   29.7100   34.3280 N   0  0  0  0  0  0  0  0  0  0  0  0
   34.4380   30.8780   33.9280 C   0  0  1  0  0  0  0  0  0  0  0  0
   35.0520   31.5040   35.0870 C   0  0  0  0  0  0  0  0  0  0  0  0
   34.0350   31.9560   35.9470 O   0  0  0  0  0  0  0  0  0  0  0  0
   33.1280   31.0100   36.3310 C   0  0  0  0  0  0  0  0  0  0  0  0
   32.5980   30.2550   35.1260 C   0  0  2  0  0  0  0  0  0  0  0  0
   34.1200   29.0290   34.9190 H   0  0  0  0  0  0  0  0  0  0  0  0
   33.7310   31.5660   33.4360 H   0  0  0  0  0  0  0  0  0  0  0  0
   35.5270   32.4710   34.7320 H   0  0  0  0  0  0  0  0  0  0  0  0
   35.7490   31.0520   35.7370 H   0  0  0  0  0  0  0  0  0  0  0  0
   33.6260   30.3470   37.0550 H   0  0  0  0  0  0  0  0  0  0  0  0
   32.2660   31.5310   36.7650 H   0  0  0  0  0  0  0  0  0  0  0  0
   32.1350   31.0440   34.4870 H   0  0  0  0  0  0  0  0  0  0  0  0
   31.5240   29.2910   35.4560 C   0  0  0  0  0  3  0  0  0  0  0  0
   32.0040   28.2180   36.3980 C   0  0  0  0  0  2  0  0  0  0  0  0
   30.7450   27.3410   36.4450 C   0  0  0  0  0  2  0  0  0  0  0  0
   30.4300   27.2260   34.9700 C   0  0  0  0  0  2  0  0  0  0  0  0
   31.0150   28.4790   34.3060 C   0  0  0  0  0  2  0  0  0  0  0  0
  1  2  1  0  0  0  0
  2  3  2  0  0  0  0
  2 16  1  0  0  0  0
  3 11  1  0  0  0  0
  4  5  1  0  0  0  0
  4  3  1  0  0  0  0
  5 12  1  0  0  0  0
  6  5  1  0  0  0  0
  7  8  1  0  0  0  0
  7  6  2  0  0  0  0
  8  4  2  0  0  0  0
  9  8  1  0  0  0  0
  9  1  2  0  0  0  0
 10  1  1  0  0  0  0
 13  9  1  0  0  0  0
 14 19  1  0  0  0  0
 15 16  1  0  0  0  0
 15 14  2  0  0  0  0
 16 17  2  0  0  0  0
 17 18  1  0  0  0  0
 18 22  1  0  0  0  0
 19 18  2  0  0  0  0
 20 14  1  0  0  0  0
 21 15  1  0  0  0  0
 23  6  1  0  0  0  0
 23 25  1  0  0  0  0
 24 30  1  0  0  0  0
 24 29  1  0  0  0  0
 25 31  1  6  0  0  0
 25 24  1  0  0  0  0
 25 26  1  0  0  0  0
 26 33  1  0  0  0  0
 26 27  1  0  0  0  0
 27 28  1  0  0  0  0
 28 35  1  0  0  0  0
 28 34  1  0  0  0  0
 29 36  1  6  0  0  0
 29 37  1  0  0  0  0
 29 28  1  0  0  0  0
 32 26  1  0  0  0  0
 37 38  1  0  0  0  0
 38 39  1  0  0  0  0
 40 39  1  0  0  0  0
 41 40  1  0  0  0  0
 41 37  1  0  0  0  0
M  END
>  <minimizedAffinity>
-6.15588617

$$$$

 OpenBabel03272510283D

 41 45  0  0  1  0  0  0  0  0999 V2000
   37.4090   23.8630   32.8370 C   0  0  0  0  0  0  0  0  0  0  0  0
   36.4350   23.5360   31.8950 C   0  0  0  0  0  0  0  0  0  0  0  0
   35.8270   24.5220   31.1130 C   0  0  0  0  0  0  0  0  0  0  0  0
   36.2490   25.8300   31.3290 C   0  0  0  0  0  0  0  0  0  0  0  0
   35.8110   26.9560   30.6920 N   0  0  0  0  0  0  0  0  0  0  0  0
   36.4960   27.9790   31.2220 C   0  0  0  0  0  0  0  0  0  0  0  0
   37.3270   27.5280   32.1490 N   0  0  0  0  0  0  0  0  0  0  0  0
   37.2050   26.1940   32.2460 C   0  0  0  0  0  0  0  0  0  0  0  0
   37.7920   25.1810   33.0140 C   0  0  0  0  0  0  0  0  0  0  0  0
   37.8810   23.1010   33.4450 H   0  0  0  0  0  0  0  0  0  0  0  0
   35.0670   24.2780   30.3750 H   0  0  0  0  0  0  0  0  0  0  0  0
   35.0780   27.0110   29.9340 H   0  0  0  0  0  0  0  0  0  0  0  0
   38.5450   25.4690   33.7370 H   0  0  0  0  0  0  0  0  0  0  0  0
   34.8180   20.1610   32.1060 C   0  0  0  0  0  0  0  0  0  0  0  0
   35.0240   21.5010   32.3770 C   0  0  0  0  0  0  0  0  0  0  0  0
   36.0630   22.1420   31.7420 C   0  0  0  0  0  0  0  0  0  0  0  0
   36.8340   21.3950   30.8720 N   0  0  0  0  0  0  0  0  0  0  0  0
   36.6140   20.0890   30.6240 C   0  0  0  0  0  0  0  0  0  0  0  0
   35.6190   19.4850   31.2360 N   0  0  0  0  0  0  0  0  0  0  0  0
   33.9780   19.7350   32.6500 H   0  0  0  0  0  0  0  0  0  0  0  0
   34.4290   22.0960   33.0550 H   0  0  0  0  0  0  0  0  0  0  0  0
   37.2570   19.5650   29.9300 H   0  0  0  0  0  0  0  0  0  0  0  0
   36.3090   29.3000   30.8100 O   0  0  0  0  0  0  0  0  0  0  0  0
   35.6200   30.2040   32.8160 N   0  0  0  0  0  0  0  0  0  0  0  0
   35.2350   29.9910   31.4290 C   0  0  1  0  0  0  0  0  0  0  0  0
   34.9830   31.2620   30.7700 C   0  0  0  0  0  0  0  0  0  0  0  0
   33.8990   31.8930   31.4050 O   0  0  0  0  0  0  0  0  0  0  0  0
   34.0290   32.0640   32.7530 C   0  0  0  0  0  0  0  0  0  0  0  0
   34.4370   30.7650   33.4230 C   0  0  2  0  0  0  0  0  0  0  0  0
   36.3550   30.8690   33.0030 H   0  0  0  0  0  0  0  0  0  0  0  0
   34.3240   29.3700   31.4480 H   0  0  0  0  0  0  0  0  0  0  0  0
   34.5680   31.0280   29.7410 H   0  0  0  0  0  0  0  0  0  0  0  0
   35.6860   32.0380   30.6370 H   0  0  0  0  0  0  0  0  0  0  0  0
   34.7630   32.8690   32.9170 H   0  0  0  0  0  0  0  0  0  0  0  0
   33.0390   32.3140   33.1550 H   0  0  0  0  0  0  0  0  0  0  0  0
   33.6170   30.0530   33.1680 H   0  0  0  0  0  0  0  0  0  0  0  0
   34.4850   30.8480   34.9000 C   0  0  0  0  0  3  0  0  0  0  0  0
   33.2440   31.4870   35.4660 C   0  0  0  0  0  2  0  0  0  0  0  0
   33.6390   31.5380   36.9490 C   0  0  0  0  0  2  0  0  0  0  0  0
   35.0330   32.1170   36.8460 C   0  0  0  0  0  2  0  0  0  0  0  0
   35.5610   31.7250   35.4590 C   0  0  0  0  0  2  0  0  0  0  0  0
  1  9  1  0  0  0  0
  1 10  1  0  0  0  0
  2  1  2  0  0  0  0
  3  4  2  0  0  0  0
  3  2  1  0  0  0  0
  4  8  1  0  0  0  0
  5  6  1  0  0  0  0
  5  4  1  0  0  0  0
  6  7  2  0  0  0  0
  7  8  1  0  0  0  0
  8  9  2  0  0  0  0
  9 13  1  0  0  0  0
 11  3  1  0  0  0  0
 12  5  1  0  0  0  0
 14 15  1  0  0  0  0
 14 20  1  0  0  0  0
 15 21  1  0  0  0  0
 16  2  1  0  0  0  0
 16 15  2  0  0  0  0
 17 16  1  0  0  0  0
 18 17  2  0  0  0  0
 18 19  1  0  0  0  0
 19 14  2  0  0  0  0
 22 18  1  0  0  0  0
 23  6  1  0  0  0  0
 23 25  1  0  0  0  0
 24 30  1  0  0  0  0
 24 29  1  0  0  0  0
 25 31  1  6  0  0  0
 25 24  1  0  0  0  0
 26 27  1  0  0  0  0
 26 25  1  0  0  0  0
 27 28  1  0  0  0  0
 28 34  1  0  0  0  0
 28 35  1  0  0  0  0
 28 29  1  0  0  0  0
 29 36  1  6  0  0  0
 29 37  1  0  0  0  0
 32 26  1  0  0  0  0
 33 26  1  0  0  0  0
 37 41  1  0  0  0  0
 37 38  1  0  0  0  0
 38 39  1  0  0  0  0
 40 39  1  0  0  0  0
 41 40  1  0  0  0  0
M  END
>  <minimizedAffinity>
-6.13595724

$$$$

 OpenBabel03272510283D

 41 45  0  0  1  0  0  0  0  0999 V2000
   37.3520   23.8160   32.7690 C   0  0  0  0  0  0  0  0  0  0  0  0
   36.4280   23.4320   31.7990 C   0  0  0  0  0  0  0  0  0  0  0  0
   35.8660   24.3680   30.9260 C   0  0  0  0  0  0  0  0  0  0  0  0
   36.2810   25.6860   31.0840 C   0  0  0  0  0  0  0  0  0  0  0  0
   35.8810   26.7710   30.3560 N   0  0  0  0  0  0  0  0  0  0  0  0
   36.5410   27.8250   30.8580 C   0  0  0  0  0  0  0  0  0  0  0  0
   37.3200   27.4320   31.8530 N   0  0  0  0  0  0  0  0  0  0  0  0
   37.1880   26.1050   32.0260 C   0  0  0  0  0  0  0  0  0  0  0  0
   37.7300   25.1420   32.8850 C   0  0  0  0  0  0  0  0  0  0  0  0
   37.7880   23.0920   33.4470 H   0  0  0  0  0  0  0  0  0  0  0  0
   35.1450   24.0790   30.1660 H   0  0  0  0  0  0  0  0  0  0  0  0
   35.1890   26.7790   29.5580 H   0  0  0  0  0  0  0  0  0  0  0  0
   38.4450   25.4740   33.6270 H   0  0  0  0  0  0  0  0  0  0  0  0
   34.8490   20.0560   32.2060 C   0  0  0  0  0  0  0  0  0  0  0  0
   35.0580   21.4070   32.4200 C   0  0  0  0  0  0  0  0  0  0  0  0
   36.0600   22.0310   31.7120 C   0  0  0  0  0  0  0  0  0  0  0  0
   36.7920   21.2590   30.8320 N   0  0  0  0  0  0  0  0  0  0  0  0
   36.5700   19.9440   30.6400 C   0  0  0  0  0  0  0  0  0  0  0  0
   35.6110   19.3560   31.3210 N   0  0  0  0  0  0  0  0  0  0  0  0
   34.0400   19.6450   32.8060 H   0  0  0  0  0  0  0  0  0  0  0  0
   34.4930   22.0210   33.1060 H   0  0  0  0  0  0  0  0  0  0  0  0
   37.1820   19.3990   29.9330 H   0  0  0  0  0  0  0  0  0  0  0  0
   36.3810   29.1170   30.3560 O   0  0  0  0  0  0  0  0  0  0  0  0
   35.0140   29.1760   32.2120 N   0  0  0  0  0  0  0  0  0  0  0  0
   35.5530   29.9770   31.1240 C   0  0  1  0  0  0  0  0  0  0  0  0
   36.3110   31.1020   31.6470 C   0  0  0  0  0  0  0  0  0  0  0  0
   35.4420   31.9310   32.3780 O   0  0  0  0  0  0  0  0  0  0  0  0
   34.7420   31.3130   33.3740 C   0  0  0  0  0  0  0  0  0  0  0  0
   34.0690   30.0550   32.8560 C   0  0  2  0  0  0  0  0  0  0  0  0
   35.6470   28.8850   32.9410 H   0  0  0  0  0  0  0  0  0  0  0  0
   34.6890   30.3260   30.5320 H   0  0  0  0  0  0  0  0  0  0  0  0
   36.5950   31.7530   30.7640 H   0  0  0  0  0  0  0  0  0  0  0  0
   37.1710   31.0360   32.2560 H   0  0  0  0  0  0  0  0  0  0  0  0
   35.4450   31.1050   34.1950 H   0  0  0  0  0  0  0  0  0  0  0  0
   33.9310   31.9860   33.6790 H   0  0  0  0  0  0  0  0  0  0  0  0
   33.4030   30.4140   32.0370 H   0  0  0  0  0  0  0  0  0  0  0  0
   33.1980   29.3950   33.8540 C   0  0  0  0  0  3  0  0  0  0  0  0
   31.7690   29.3130   33.3850 C   0  0  0  0  0  2  0  0  0  0  0  0
   31.1220   28.7150   34.6420 C   0  0  0  0  0  2  0  0  0  0  0  0
   31.7130   29.6080   35.7100 C   0  0  0  0  0  2  0  0  0  0  0  0
   33.0490   30.1190   35.1550 C   0  0  0  0  0  2  0  0  0  0  0  0
  1  9  1  0  0  0  0
  1 10  1  0  0  0  0
  2  1  2  0  0  0  0
  3  4  2  0  0  0  0
  3  2  1  0  0  0  0
  4  8  1  0  0  0  0
  5  6  1  0  0  0  0
  5  4  1  0  0  0  0
  6  7  2  0  0  0  0
  7  8  1  0  0  0  0
  8  9  2  0  0  0  0
  9 13  1  0  0  0  0
 11  3  1  0  0  0  0
 12  5  1  0  0  0  0
 14 15  1  0  0  0  0
 14 20  1  0  0  0  0
 15 21  1  0  0  0  0
 16  2  1  0  0  0  0
 16 15  2  0  0  0  0
 17 16  1  0  0  0  0
 18 17  2  0  0  0  0
 18 19  1  0  0  0  0
 19 14  2  0  0  0  0
 22 18  1  0  0  0  0
 23  6  1  0  0  0  0
 23 25  1  0  0  0  0
 24 29  1  0  0  0  0
 24 30  1  0  0  0  0
 25 31  1  6  0  0  0
 25 26  1  0  0  0  0
 25 24  1  0  0  0  0
 26 33  1  0  0  0  0
 26 27  1  0  0  0  0
 27 28  1  0  0  0  0
 28 35  1  0  0  0  0
 28 34  1  0  0  0  0
 29 36  1  6  0  0  0
 29 28  1  0  0  0  0
 29 37  1  0  0  0  0
 32 26  1  0  0  0  0
 37 41  1  0  0  0  0
 38 37  1  0  0  0  0
 38 39  1  0  0  0  0
 39 40  1  0  0  0  0
 41 40  1  0  0  0  0
M  END
>  <minimizedAffinity>
-6.07356739

$$$$

 OpenBabel03272510283D

 41 45  0  0  1  0  0  0  0  0999 V2000
   37.9690   24.2260   33.5990 C   0  0  0  0  0  0  0  0  0  0  0  0
   37.9560   24.9300   34.8020 C   0  0  0  0  0  0  0  0  0  0  0  0
   37.4700   26.2390   34.8670 C   0  0  0  0  0  0  0  0  0  0  0  0
   37.0060   26.7860   33.6760 C   0  0  0  0  0  0  0  0  0  0  0  0
   36.4850   28.0350   33.4860 N   0  0  0  0  0  0  0  0  0  0  0  0
   36.1730   28.1190   32.1860 C   0  0  0  0  0  0  0  0  0  0  0  0
   36.4800   26.9840   31.5770 N   0  0  0  0  0  0  0  0  0  0  0  0
   37.0010   26.1270   32.4710 C   0  0  0  0  0  0  0  0  0  0  0  0
   37.4960   24.8170   32.4410 C   0  0  0  0  0  0  0  0  0  0  0  0
   38.3450   23.2120   33.5460 H   0  0  0  0  0  0  0  0  0  0  0  0
   37.4560   26.7970   35.8000 H   0  0  0  0  0  0  0  0  0  0  0  0
   36.3550   28.7850   34.2190 H   0  0  0  0  0  0  0  0  0  0  0  0
   37.4910   24.2980   31.4900 H   0  0  0  0  0  0  0  0  0  0  0  0
   39.8970   22.9100   37.2930 C   0  0  0  0  0  0  0  0  0  0  0  0
   39.5640   23.4530   36.0650 C   0  0  0  0  0  0  0  0  0  0  0  0
   38.4610   24.2720   35.9930 C   0  0  0  0  0  0  0  0  0  0  0  0
   37.7570   24.4950   37.1600 N   0  0  0  0  0  0  0  0  0  0  0  0
   38.1000   23.9550   38.3460 C   0  0  0  0  0  0  0  0  0  0  0  0
   39.1560   23.1730   38.4050 N   0  0  0  0  0  0  0  0  0  0  0  0
   40.7800   22.2770   37.2600 H   0  0  0  0  0  0  0  0  0  0  0  0
   40.1060   23.2860   35.1460 H   0  0  0  0  0  0  0  0  0  0  0  0
   37.5040   24.1730   39.2210 H   0  0  0  0  0  0  0  0  0  0  0  0
   35.6100   29.2670   31.6240 O   0  0  0  0  0  0  0  0  0  0  0  0
   35.8080   31.3510   32.5900 N   0  0  0  0  0  0  0  0  0  0  0  0
   34.9820   30.1540   32.5370 C   0  0  1  0  0  0  0  0  0  0  0  0
   33.6350   30.4840   32.1010 C   0  0  0  0  0  0  0  0  0  0  0  0
   33.0520   31.3430   33.0480 O   0  0  0  0  0  0  0  0  0  0  0  0
   33.7620   32.4760   33.3270 C   0  0  0  0  0  0  0  0  0  0  0  0
   35.2090   32.1400   33.6390 C   0  0  2  0  0  0  0  0  0  0  0  0
   35.8190   31.9510   31.7800 H   0  0  0  0  0  0  0  0  0  0  0  0
   34.9740   29.7320   33.5560 H   0  0  0  0  0  0  0  0  0  0  0  0
   33.0120   29.5420   32.2010 H   0  0  0  0  0  0  0  0  0  0  0  0
   33.3750   30.9150   31.1740 H   0  0  0  0  0  0  0  0  0  0  0  0
   33.6660   33.1510   32.4620 H   0  0  0  0  0  0  0  0  0  0  0  0
   33.3480   32.9120   34.2450 H   0  0  0  0  0  0  0  0  0  0  0  0
   35.1510   31.4550   34.5180 H   0  0  0  0  0  0  0  0  0  0  0  0
   36.0120   33.3090   34.0630 C   0  0  0  0  0  3  0  0  0  0  0  0
   37.1360   33.5960   33.1030 C   0  0  0  0  0  2  0  0  0  0  0  0
   37.8280   34.7400   33.8580 C   0  0  0  0  0  2  0  0  0  0  0  0
   37.9050   34.1500   35.2480 C   0  0  0  0  0  2  0  0  0  0  0  0
   36.7500   33.1460   35.3550 C   0  0  0  0  0  2  0  0  0  0  0  0
  1  2  1  0  0  0  0
  2  3  2  0  0  0  0
  2 16  1  0  0  0  0
  3 11  1  0  0  0  0
  4  3  1  0  0  0  0
  5  4  1  0  0  0  0
  5 12  1  0  0  0  0
  6  5  1  0  0  0  0
  7  6  2  0  0  0  0
  7  8  1  0  0  0  0
  8  4  2  0  0  0  0
  9  8  1  0  0  0  0
  9  1  2  0  0  0  0
 10  1  1  0  0  0  0
 13  9  1  0  0  0  0
 14 19  1  0  0  0  0
 15 14  2  0  0  0  0
 16 15  1  0  0  0  0
 16 17  2  0  0  0  0
 17 18  1  0  0  0  0
 18 19  2  0  0  0  0
 18 22  1  0  0  0  0
 20 14  1  0  0  0  0
 21 15  1  0  0  0  0
 23  6  1  0  0  0  0
 23 25  1  0  0  0  0
 24 29  1  0  0  0  0
 25 24  1  0  0  0  0
 25 31  1  1  0  0  0
 26 32  1  0  0  0  0
 26 25  1  0  0  0  0
 26 27  1  0  0  0  0
 27 28  1  0  0  0  0
 28 29  1  0  0  0  0
 28 35  1  0  0  0  0
 29 37  1  0  0  0  0
 29 36  1  1  0  0  0
 30 24  1  0  0  0  0
 33 26  1  0  0  0  0
 34 28  1  0  0  0  0
 37 41  1  0  0  0  0
 38 39  1  0  0  0  0
 38 37  1  0  0  0  0
 39 40  1  0  0  0  0
 40 41  1  0  0  0  0
M  END
>  <minimizedAffinity>
-6.01783466

$$$$
