REMARK  Name = 
REMARK  4 active torsions:
REMARK  status: ('A' for Active; 'I' for Inactive)
REMARK    1  A    between atoms: C_1  and  C_8
REMARK    2  A    between atoms: C_6  and  C_13
REMARK    3  A    between atoms: C_13  and  C_14
REMARK    4  A    between atoms: C_14  and  C_32
REMARK                            x       y       z     vdW  Elec       q    Type
REMARK                         _______ _______ _______ _____ _____    ______ ____
ROOT
ATOM      1  C   UNL     1      35.297  30.625  48.956  0.00  0.00    +0.000 C 
ATOM      2  C   UNL     1      34.795  30.179  50.239  0.00  0.00    +0.000 C 
ATOM      3  C   UNL     1      35.632  29.157  50.984  0.00  0.00    +0.000 C 
ATOM      4  C   UNL     1      37.105  29.341  50.881  0.00  0.00    +0.000 C 
ATOM      5  C   UNL     1      37.646  29.832  49.594  0.00  0.00    +0.000 C 
ATOM      6  C   UNL     1      36.784  30.881  48.976  0.00  0.00    +0.000 C 
ATOM      7  H   UNL     1      34.879  31.658  48.740  0.00  0.00    +0.000 HD
ATOM      8  H   UNL     1      33.766  29.839  50.304  0.00  0.00    +0.000 HD
ATOM      9  H   UNL     1      34.838  31.079  50.924  0.00  0.00    +0.000 HD
ATOM     10  H   UNL     1      35.369  29.190  52.064  0.00  0.00    +0.000 HD
ATOM     11  H   UNL     1      35.335  28.133  50.651  0.00  0.00    +0.000 HD
ATOM     12  H   UNL     1      37.552  28.315  51.037  0.00  0.00    +0.000 HD
ATOM     13  H   UNL     1      37.485  29.954  51.724  0.00  0.00    +0.000 HD
ATOM     14  H   UNL     1      38.626  30.302  49.789  0.00  0.00    +0.000 HD
ATOM     15  H   UNL     1      37.826  29.027  48.837  0.00  0.00    +0.000 HD
ATOM     16  H   UNL     1      37.201  31.127  48.005  0.00  0.00    +0.000 HD
ENDROOT
BRANCH   1  18
ATOM     17  C   UNL     1      33.989  28.736  47.830  0.00  0.00    +0.000 A 
ATOM     18  C   UNL     1      34.880  29.850  47.774  0.00  0.00    +0.000 A 
ATOM     19  C   UNL     1      35.342  30.166  46.512  0.00  0.00    +0.000 A 
ATOM     20  N   UNL     1      34.948  29.438  45.420  0.00  0.00    +0.000 NA
ATOM     21  C   UNL     1      34.109  28.402  45.543  0.00  0.00    +0.000 A 
ATOM     22  N   UNL     1      33.625  28.049  46.761  0.00  0.00    +0.000 NA
ATOM     23  H   UNL     1      33.610  28.463  48.807  0.00  0.00    +0.000 HD
ATOM     24  H   UNL     1      36.012  30.978  46.340  0.00  0.00    +0.000 HD
ATOM     25  H   UNL     1      33.797  27.826  44.683  0.00  0.00    +0.000 HD
ENDBRANCH   1  18
BRANCH   6  26
ATOM     26  C   UNL     1      36.958  32.117  49.864  0.00  0.00    +0.000 C 
ATOM     27  H   UNL     1      36.029  32.724  49.902  0.00  0.00    +0.000 HD
ATOM     28  H   UNL     1      37.216  31.820  50.901  0.00  0.00    +0.000 HD
BRANCH  26  29
ATOM     29  C   UNL     1      38.044  33.031  49.363  0.00  0.00    +0.000 C 
ATOM     30  H   UNL     1      38.156  33.863  50.096  0.00  0.00    +0.000 HD
ATOM     31  H   UNL     1      38.986  32.442  49.388  0.00  0.00    +0.000 HD
BRANCH  29  32
ATOM     32  C   UNL     1      37.881  33.610  48.022  0.00  0.00    +0.000 C 
ATOM     33  C   UNL     1      38.183  32.484  47.018  0.00  0.00    +0.000 C 
ATOM     34  C   UNL     1      39.058  33.064  45.957  0.00  0.00    +0.000 C 
ATOM     35  C   UNL     1      38.858  34.569  46.121  0.00  0.00    +0.000 C 
ATOM     36  C   UNL     1      38.909  34.648  47.653  0.00  0.00    +0.000 C 
ENDBRANCH  29  32
ENDBRANCH  26  29
ENDBRANCH   6  26
TORSDOF 4
