
 OpenBabel03272508163D

 27 29  0  0  0  0  0  0  0  0999 V2000
   34.8860   30.1860   44.9040 Cl  0  0  0  0  0  0  0  0  0  0  0  0
   35.9860   31.0580   43.9010 C   0  0  0  0  0  0  0  0  0  0  0  0
   35.3860   31.5960   42.7990 C   0  0  0  0  0  0  0  0  0  0  0  0
   36.1900   32.3380   41.8960 C   0  0  0  0  0  0  0  0  0  0  0  0
   37.5270   32.5120   42.1150 C   0  0  0  0  0  0  0  0  0  0  0  0
   38.0990   31.9590   43.2310 C   0  0  0  0  0  0  0  0  0  0  0  0
   39.7930   32.1540   43.5490 Cl  0  0  0  0  0  0  0  0  0  0  0  0
   37.3350   31.2470   44.1000 C   0  0  0  0  0  0  0  0  0  0  0  0
   35.8090   32.8020   40.9970 H   0  0  0  0  0  0  0  0  0  0  0  0
   38.1680   33.0730   41.4450 H   0  0  0  0  0  0  0  0  0  0  0  0
   33.6290   30.5480   41.4280 C   0  0  0  0  0  0  0  0  0  0  0  0
   33.9840   31.5420   42.3570 C   0  0  0  0  0  0  0  0  0  0  0  0
   32.9950   32.4210   42.8090 C   0  0  0  0  0  0  0  0  0  0  0  0
   31.7390   32.2450   42.3050 N   0  0  0  0  0  0  0  0  0  0  0  0
   31.4360   31.2750   41.4120 C   0  0  0  0  0  0  0  0  0  0  0  0
   32.3960   30.4140   40.9660 N   0  0  0  0  0  0  0  0  0  0  0  0
   34.3990   29.8670   41.0800 H   0  0  0  0  0  0  0  0  0  0  0  0
   33.2750   33.1660   43.5080 H   0  0  0  0  0  0  0  0  0  0  0  0
   30.4220   31.1700   41.0370 H   0  0  0  0  0  0  0  0  0  0  0  0
   37.8620   30.6160   45.3260 C   0  0  0  0  0  0  0  0  0  0  0  0
   38.9060   29.9500   45.4600 O   0  0  0  0  0  0  0  0  0  0  0  0
   37.2680   30.6500   46.6040 O   0  0  0  0  0  0  0  0  0  0  0  0
   37.9500   30.6520   47.7990 C   0  0  0  0  0  3  0  0  0  0  0  0
   37.2110   30.0010   48.9440 C   0  0  0  0  0  2  0  0  0  0  0  0
   38.0190   30.5160   50.1270 C   0  0  0  0  0  2  0  0  0  0  0  0
   38.4190   31.9320   49.7220 C   0  0  0  0  0  2  0  0  0  0  0  0
   38.0970   32.0800   48.2720 C   0  0  0  0  0  2  0  0  0  0  0  0
  2  8  1  0  0  0  0
  2  1  1  0  0  0  0
  3  2  2  0  0  0  0
  4  5  2  0  0  0  0
  4  3  1  0  0  0  0
  5  6  1  0  0  0  0
  6  7  1  0  0  0  0
  6  8  2  0  0  0  0
  8 20  1  0  0  0  0
  9  4  1  0  0  0  0
 10  5  1  0  0  0  0
 11 12  1  0  0  0  0
 12  3  1  0  0  0  0
 12 13  2  0  0  0  0
 13 18  1  0  0  0  0
 14 13  1  0  0  0  0
 15 14  2  0  0  0  0
 16 15  1  0  0  0  0
 16 11  2  0  0  0  0
 17 11  1  0  0  0  0
 19 15  1  0  0  0  0
 20 21  2  0  0  0  0
 20 22  1  0  0  0  0
 22 23  1  0  0  0  0
 23 27  1  0  0  0  0
 23 24  1  0  0  0  0
 24 25  1  0  0  0  0
 26 25  1  0  0  0  0
 27 26  1  0  0  0  0
M  END
>  <minimizedAffinity>
-4.3793087

>  <minimizedRMSD>
5.91442823

$$$$
