
 OpenBabel03272510243D

 28 31  0  0  0  0  0  0  0  0999 V2000
   36.0520   30.1760   46.9950 C   0  0  0  0  0  0  0  0  0  0  0  0
   36.9650   30.7020   47.9060 C   0  0  0  0  0  0  0  0  0  0  0  0
   37.9610   31.5730   47.5030 C   0  0  0  0  0  0  0  0  0  0  0  0
   37.9870   31.8880   46.1410 C   0  0  0  0  0  0  0  0  0  0  0  0
   38.8740   32.7250   45.5030 N   0  0  0  0  0  0  0  0  0  0  0  0
   38.5290   32.7280   44.2190 C   0  0  0  0  0  0  0  0  0  0  0  0
   37.4720   31.9390   44.0130 N   0  0  0  0  0  0  0  0  0  0  0  0
   37.1130   31.4000   45.2040 C   0  0  0  0  0  0  0  0  0  0  0  0
   36.1190   30.5200   45.6460 C   0  0  0  0  0  0  0  0  0  0  0  0
   35.2650   29.4910   47.2950 H   0  0  0  0  0  0  0  0  0  0  0  0
   38.6770   31.9880   48.1990 H   0  0  0  0  0  0  0  0  0  0  0  0
   39.6680   33.2510   45.9720 H   0  0  0  0  0  0  0  0  0  0  0  0
   35.4250   30.1290   44.9180 H   0  0  0  0  0  0  0  0  0  0  0  0
   37.5360   30.0860   51.5780 C   0  0  0  0  0  0  0  0  0  0  0  0
   37.7720   30.5170   50.2790 C   0  0  0  0  0  0  0  0  0  0  0  0
   36.8370   30.3000   49.2980 C   0  0  0  0  0  0  0  0  0  0  0  0
   35.6820   29.6480   49.6610 N   0  0  0  0  0  0  0  0  0  0  0  0
   35.4770   29.2400   50.9290 C   0  0  0  0  0  0  0  0  0  0  0  0
   36.3830   29.4540   51.8660 N   0  0  0  0  0  0  0  0  0  0  0  0
   38.2620   30.2490   52.3620 H   0  0  0  0  0  0  0  0  0  0  0  0
   38.6810   31.0280   50.0020 H   0  0  0  0  0  0  0  0  0  0  0  0
   34.5210   28.7310   51.1050 H   0  0  0  0  0  0  0  0  0  0  0  0
   39.2080   33.4720   43.2560 O   0  0  0  0  0  0  0  0  0  0  0  0
   39.3640   32.9740   41.9210 C   0  0  0  0  0  3  0  0  0  0  0  0
   38.8340   31.5600   41.7860 C   0  0  0  0  0  2  0  0  0  0  0  0
   37.9800   31.5800   40.5240 C   0  0  0  0  0  2  0  0  0  0  0  0
   37.3760   32.9640   40.6130 C   0  0  0  0  0  2  0  0  0  0  0  0
   38.5300   33.8260   41.0110 C   0  0  0  0  0  2  0  0  0  0  0  0
  1 10  1  0  0  0  0
  1  2  1  0  0  0  0
  2 16  1  0  0  0  0
  3  2  2  0  0  0  0
  3 11  1  0  0  0  0
  4  3  1  0  0  0  0
  5 12  1  0  0  0  0
  5  4  1  0  0  0  0
  6  5  1  0  0  0  0
  7  6  2  0  0  0  0
  7  8  1  0  0  0  0
  8  9  1  0  0  0  0
  8  4  2  0  0  0  0
  9  1  2  0  0  0  0
 13  9  1  0  0  0  0
 14 19  1  0  0  0  0
 14 20  1  0  0  0  0
 15 14  2  0  0  0  0
 16 17  2  0  0  0  0
 16 15  1  0  0  0  0
 17 18  1  0  0  0  0
 18 22  1  0  0  0  0
 18 19  2  0  0  0  0
 21 15  1  0  0  0  0
 23  6  1  0  0  0  0
 24 23  1  0  0  0  0
 25 24  1  0  0  0  0
 26 27  1  0  0  0  0
 26 25  1  0  0  0  0
 27 28  1  0  0  0  0
 28 24  1  0  0  0  0
M  END
>  <minimizedAffinity>
-5.25887966

>  <minimizedRMSD>
1.67888951

$$$$
