
     RDKit          3D

 24 25  0  0  0  0  0  0  0  0999 V2000
   37.2955   29.9883   51.1839 C   0  0  0  0  0  0  0  0  0  0  0  0
   37.9357   30.9082   50.3546 C   0  0  0  0  0  0  0  0  0  0  0  0
   37.2831   31.3928   49.2320 C   0  0  0  0  0  0  0  0  0  0  0  0
   36.0240   30.9279   49.0029 N   0  0  0  0  0  0  0  0  0  0  0  0
   35.4131   30.0357   49.8142 C   0  0  0  0  0  0  0  0  0  0  0  0
   36.0466   29.5699   50.8977 N   0  0  0  0  0  0  0  0  0  0  0  0
   38.0960   29.6211   52.2467 O   0  0  0  0  0  0  0  0  0  0  0  0
   37.6473   32.0887   48.5214 H   0  0  0  0  0  0  0  0  0  0  0  0
   34.4073   29.6766   49.6142 H   0  0  0  0  0  0  0  0  0  0  0  0
   38.9073   29.0487   52.1749 H   0  0  0  0  0  0  0  0  0  0  0  0
   39.3118   31.4416   50.5701 C   0  0  0  0  0  0  0  0  0  0  0  0
   39.8120   32.1079   49.3245 C   0  0  0  0  0  0  0  0  0  0  0  0
   40.3314   33.4550   49.7033 C   0  0  0  0  0  0  0  0  0  0  0  0
   39.6951   33.7406   51.0404 C   0  0  0  0  0  0  0  0  0  0  0  0
   39.3774   32.4246   51.6805 C   0  0  0  0  0  0  0  0  0  0  0  0
   39.9427   30.5276   50.7535 H   0  0  0  0  0  0  0  0  0  0  0  0
   40.5999   31.5100   48.8163 H   0  0  0  0  0  0  0  0  0  0  0  0
   38.9713   32.2454   48.5930 H   0  0  0  0  0  0  0  0  0  0  0  0
   40.0278   34.2549   49.0021 H   0  0  0  0  0  0  0  0  0  0  0  0
   41.4279   33.3539   49.8256 H   0  0  0  0  0  0  0  0  0  0  0  0
   40.4041   34.3541   51.6604 H   0  0  0  0  0  0  0  0  0  0  0  0
   38.8144   34.3913   50.9011 H   0  0  0  0  0  0  0  0  0  0  0  0
   40.2348   32.1443   52.3441 H   0  0  0  0  0  0  0  0  0  0  0  0
   38.5014   32.4445   52.3522 H   0  0  0  0  0  0  0  0  0  0  0  0
  1  7  1  0
  2  1  2  0
  3  2  1  0
  4  3  2  0
  4  5  1  0
  5  6  2  0
  6  1  1  0
  3  8  1  0
  5  9  1  0
  7 10  1  0
 11 12  1  0
 12 13  1  0
 13 14  1  0
 14 15  1  0
 15 11  1  0
 11 16  1  0
 12 17  1  0
 12 18  1  0
 13 19  1  0
 13 20  1  0
 14 21  1  0
 14 22  1  0
 15 23  1  0
 15 24  1  0
  2 11  1  0
M  ISO  3   8  14   9  14  10   3
M  END
>  <DihAtoms>  (1) 
0,1,10,11

>  <DihDeg>  (1) 
90.00071310431238

$$$$
