
     RDKit          3D

 50 54  0  0  0  0  0  0  0  0999 V2000
   36.2272   30.1869   46.8591 C   0  0  0  0  0  0  0  0  0  0  0  0
   37.0816   30.7465   47.8065 C   0  0  0  0  0  0  0  0  0  0  0  0
   38.0738   31.6592   47.4340 C   0  0  0  0  0  0  0  0  0  0  0  0
   38.1525   31.9680   46.0801 C   0  0  0  0  0  0  0  0  0  0  0  0
   39.0282   32.8256   45.4765 N   0  0  0  0  0  0  0  0  0  0  0  0
   38.7324   32.8087   44.1700 C   0  0  0  0  0  0  0  0  0  0  0  0
   37.7213   31.9835   43.9509 N   0  0  0  0  0  0  0  0  0  0  0  0
   37.3303   31.4390   45.1156 C   0  0  0  0  0  0  0  0  0  0  0  0
   36.3476   30.5281   45.5229 C   0  0  0  0  0  0  0  0  0  0  0  0
   37.4935   30.1508   51.4845 C   0  0  0  0  0  0  0  0  0  0  0  0
   37.8182   30.5912   50.2142 C   0  0  0  0  0  0  0  0  0  0  0  0
   36.9203   30.3630   49.1959 C   0  0  0  0  0  0  0  0  0  0  0  0
   35.7491   29.7052   49.5175 N   0  0  0  0  0  0  0  0  0  0  0  0
   35.4540   29.2851   50.7632 C   0  0  0  0  0  0  0  0  0  0  0  0
   36.3175   29.5074   51.7292 N   0  0  0  0  0  0  0  0  0  0  0  0
   39.4295   33.5752   43.2345 O   0  0  0  0  0  0  0  0  0  0  0  0
   39.5678   31.8387   41.7216 N   0  0  0  0  0  0  0  0  0  0  0  0
   39.2023   33.2391   41.8734 C   0  0  1  0  0  0  0  0  0  0  0  0
   37.8088   33.4434   41.5113 C   0  0  0  0  0  0  0  0  0  0  0  0
   37.6441   33.1187   40.1528 O   0  0  0  0  0  0  0  0  0  0  0  0
   38.0601   31.8695   39.7936 C   0  0  0  0  0  0  0  0  0  0  0  0
   39.4650   31.6042   40.3026 C   0  0  2  0  0  0  0  0  0  0  0  0
   35.4580   29.4800   47.1446 H   0  0  0  0  0  0  0  0  0  0  0  0
   38.7460   32.1020   48.1647 H   0  0  0  0  0  0  0  0  0  0  0  0
   39.7879   33.3900   45.9470 H   0  0  0  0  0  0  0  0  0  0  0  0
   35.6997   30.1112   44.7621 H   0  0  0  0  0  0  0  0  0  0  0  0
   38.2570   30.3720   52.2259 H   0  0  0  0  0  0  0  0  0  0  0  0
   38.7298   31.1062   49.9505 H   0  0  0  0  0  0  0  0  0  0  0  0
   34.5175   28.7759   50.9439 H   0  0  0  0  0  0  0  0  0  0  0  0
   38.9715   31.1484   42.1495 H   0  0  0  0  0  0  0  0  0  0  0  0
   39.8697   33.8123   41.2083 H   0  0  0  0  0  0  0  0  0  0  0  0
   37.6202   34.5606   41.5261 H   0  0  0  0  0  0  0  0  0  0  0  0
   36.9767   32.9952   41.9808 H   0  0  0  0  0  0  0  0  0  0  0  0
   37.3280   31.1478   40.1895 H   0  0  0  0  0  0  0  0  0  0  0  0
   38.1242   31.8403   38.6989 H   0  0  0  0  0  0  0  0  0  0  0  0
   40.0850   32.4033   39.8317 H   0  0  0  0  0  0  0  0  0  0  0  0
   40.0252   30.3102   39.8523 C   0  0  0  0  0  0  0  0  0  0  0  0
   39.3348   29.1413   40.5049 C   0  0  0  0  0  0  0  0  0  0  0  0
   40.1923   27.9969   39.9473 C   0  0  0  0  0  0  0  0  0  0  0  0
   41.5812   28.5366   40.2099 C   0  0  0  0  0  0  0  0  0  0  0  0
   41.4541   30.0653   40.2234 C   0  0  0  0  0  0  0  0  0  0  0  0
   39.9330   30.2349   38.7694 H   0  0  0  0  0  0  0  0  0  0  0  0
   39.5606   29.1182   41.6102 H   0  0  0  0  0  0  0  0  0  0  0  0
   38.2759   29.0349   40.2711 H   0  0  0  0  0  0  0  0  0  0  0  0
   39.9971   27.0567   40.5072 H   0  0  0  0  0  0  0  0  0  0  0  0
   39.9430   27.9488   38.8764 H   0  0  0  0  0  0  0  0  0  0  0  0
   41.8676   28.1411   41.2161 H   0  0  0  0  0  0  0  0  0  0  0  0
   42.2529   28.1915   39.4091 H   0  0  0  0  0  0  0  0  0  0  0  0
   41.7247   30.3913   41.2456 H   0  0  0  0  0  0  0  0  0  0  0  0
   42.1585   30.4647   39.4671 H   0  0  0  0  0  0  0  0  0  0  0  0
  1  2  2  0
  2 12  1  0
  3  2  1  0
  4  3  2  0
  5  4  1  0
  6  5  1  0
  7  6  2  0
  7  8  1  0
  8  9  2  0
  8  4  1  0
  9  1  1  0
 10 15  2  0
 11 10  1  0
 12 13  1  0
 12 11  2  0
 13 14  2  0
 14 15  1  0
 16  6  1  0
 17 18  1  0
 18 16  1  0
 19 18  1  0
 20 19  1  0
 21 20  1  0
 21 22  1  0
 22 17  1  0
  1 23  1  0
  3 24  1  0
  5 25  1  0
  9 26  1  0
 10 27  1  0
 11 28  1  0
 14 29  1  0
 17 30  1  0
 18 31  1  6
 19 32  1  0
 19 33  1  0
 21 34  1  0
 21 35  1  0
 22 36  1  6
 37 38  1  0
 38 39  1  0
 39 40  1  0
 40 41  1  0
 41 37  1  0
 37 42  1  0
 38 43  1  0
 38 44  1  0
 39 45  1  0
 39 46  1  0
 40 47  1  0
 40 48  1  0
 41 49  1  0
 41 50  1  0
 22 37  1  0
M  ISO  8  23  14  24  14  25   9  26  14  27  14  28  14  29  14  30   5
M  ISO  6  31  13  32  13  33  13  34  13  35  13  36  13
M  END
>  <DihAtoms>  (1) 
20,21,36,37

>  <DihDeg>  (1) 
50.16879166056834

$$$$
