
 OpenBabel03262521033D

 14 15  0  0  0  0  0  0  0  0999 V2000
   39.6380   24.0330   35.8130 C   0  0  0  0  0  0  0  0  0  0  0  0
   38.5200   24.5890   36.4840 C   0  0  0  0  0  0  0  0  0  0  0  0
   38.2320   24.1050   37.7760 C   0  0  0  0  0  0  0  0  0  0  0  0
   39.0370   23.1360   38.3070 N   0  0  0  0  0  0  0  0  0  0  0  0
   40.0920   22.6390   37.6240 C   0  0  0  0  0  0  0  0  0  0  0  0
   40.3850   23.0860   36.3870 N   0  0  0  0  0  0  0  0  0  0  0  0
   39.9570   24.3150   34.8320 H   0  0  0  0  0  0  0  0  0  0  0  0
   37.3830   24.5400   38.2660 H   0  0  0  0  0  0  0  0  0  0  0  0
   40.5850   21.8860   38.2340 H   0  0  0  0  0  0  0  0  0  0  0  0
   37.7710   25.6150   35.7690 C   0  0  0  0  0  3  0  0  0  0  0  0
   37.9410   25.5590   34.2500 C   0  0  0  0  0  2  0  0  0  0  0  0
   37.0600   26.7660   33.8950 C   0  0  0  0  0  2  0  0  0  0  0  0
   37.5280   27.7980   34.8940 C   0  0  0  0  0  2  0  0  0  0  0  0
   38.1950   27.0280   36.0220 C   0  0  0  0  0  2  0  0  0  0  0  0
  1  6  2  0  0  0  0
  1  2  1  0  0  0  0
  2  3  2  0  0  0  0
  3  8  1  0  0  0  0
  3  4  1  0  0  0  0
  5  9  1  0  0  0  0
  5  4  2  0  0  0  0
  6  5  1  0  0  0  0
  7  1  1  0  0  0  0
 10 14  1  0  0  0  0
 10  2  1  0  0  0  0
 11 10  1  0  0  0  0
 12 11  1  0  0  0  0
 12 13  1  0  0  0  0
 13 14  1  0  0  0  0
M  END
>  <minimizedAffinity>
-3.850595

$$$$

 OpenBabel03262521033D

 14 15  0  0  0  0  0  0  0  0999 V2000
   38.1720   24.2020   34.1130 C   0  0  0  0  0  0  0  0  0  0  0  0
   38.1410   25.0150   35.2740 C   0  0  0  0  0  0  0  0  0  0  0  0
   37.5100   26.2710   35.1690 C   0  0  0  0  0  0  0  0  0  0  0  0
   36.9670   26.6330   33.9680 N   0  0  0  0  0  0  0  0  0  0  0  0
   37.0240   25.8190   32.8900 C   0  0  0  0  0  0  0  0  0  0  0  0
   37.6230   24.6140   32.9670 N   0  0  0  0  0  0  0  0  0  0  0  0
   38.6210   23.2320   34.0650 H   0  0  0  0  0  0  0  0  0  0  0  0
   37.4980   26.8690   36.0580 H   0  0  0  0  0  0  0  0  0  0  0  0
   36.5330   26.3070   32.0520 H   0  0  0  0  0  0  0  0  0  0  0  0
   38.7690   24.4700   36.4710 C   0  0  0  0  0  3  0  0  0  0  0  0
   39.2510   23.0270   36.3150 C   0  0  0  0  0  2  0  0  0  0  0  0
   39.7940   22.8320   37.7380 C   0  0  0  0  0  2  0  0  0  0  0  0
   38.6780   23.4040   38.5790 C   0  0  0  0  0  2  0  0  0  0  0  0
   37.8770   24.3140   37.6630 C   0  0  0  0  0  2  0  0  0  0  0  0
  1  2  1  0  0  0  0
  2 10  1  0  0  0  0
  3  2  2  0  0  0  0
  3  8  1  0  0  0  0
  4  3  1  0  0  0  0
  5  6  1  0  0  0  0
  5  4  2  0  0  0  0
  6  1  2  0  0  0  0
  7  1  1  0  0  0  0
  9  5  1  0  0  0  0
 10 14  1  0  0  0  0
 11 10  1  0  0  0  0
 11 12  1  0  0  0  0
 12 13  1  0  0  0  0
 14 13  1  0  0  0  0
M  END
>  <minimizedAffinity>
-3.73324347

$$$$

 OpenBabel03262521033D

 14 15  0  0  0  0  0  0  0  0999 V2000
   37.1460   23.4510   32.3420 C   0  0  0  0  0  0  0  0  0  0  0  0
   35.9580   23.2600   31.5930 C   0  0  0  0  0  0  0  0  0  0  0  0
   35.2810   24.4120   31.1460 C   0  0  0  0  0  0  0  0  0  0  0  0
   35.8000   25.6380   31.4540 N   0  0  0  0  0  0  0  0  0  0  0  0
   36.9380   25.7650   32.1730 C   0  0  0  0  0  0  0  0  0  0  0  0
   37.6020   24.6770   32.6110 N   0  0  0  0  0  0  0  0  0  0  0  0
   37.7470   22.6580   32.7370 H   0  0  0  0  0  0  0  0  0  0  0  0
   34.3850   24.2440   30.5810 H   0  0  0  0  0  0  0  0  0  0  0  0
   37.1620   26.8210   32.2970 H   0  0  0  0  0  0  0  0  0  0  0  0
   35.5480   21.8810   31.3560 C   0  0  0  0  0  3  0  0  0  0  0  0
   35.0930   21.1450   32.6170 C   0  0  0  0  0  2  0  0  0  0  0  0
   34.7920   19.7850   31.9700 C   0  0  0  0  0  2  0  0  0  0  0  0
   36.0110   19.5770   31.1030 C   0  0  0  0  0  2  0  0  0  0  0  0
   36.6250   20.9510   30.8920 C   0  0  0  0  0  2  0  0  0  0  0  0
  1  6  1  0  0  0  0
  1  7  1  0  0  0  0
  2  1  2  0  0  0  0
  3  4  2  0  0  0  0
  3  2  1  0  0  0  0
  4  5  1  0  0  0  0
  5  9  1  0  0  0  0
  5  6  2  0  0  0  0
  8  3  1  0  0  0  0
 10  2  1  0  0  0  0
 10 11  1  0  0  0  0
 12 11  1  0  0  0  0
 13 12  1  0  0  0  0
 14 13  1  0  0  0  0
 14 10  1  0  0  0  0
M  END
>  <minimizedAffinity>
-3.71729183

$$$$

 OpenBabel03262521033D

 14 15  0  0  0  0  0  0  0  0999 V2000
   39.6800   22.8580   37.9670 C   0  0  0  0  0  0  0  0  0  0  0  0
   40.1170   23.0880   36.6380 C   0  0  0  0  0  0  0  0  0  0  0  0
   39.3020   23.8940   35.8180 C   0  0  0  0  0  0  0  0  0  0  0  0
   38.1480   24.4050   36.3410 N   0  0  0  0  0  0  0  0  0  0  0  0
   37.7760   24.1560   37.6160 C   0  0  0  0  0  0  0  0  0  0  0  0
   38.5400   23.3870   38.4190 N   0  0  0  0  0  0  0  0  0  0  0  0
   40.2080   22.2650   38.6840 H   0  0  0  0  0  0  0  0  0  0  0  0
   39.6520   24.0550   34.8170 H   0  0  0  0  0  0  0  0  0  0  0  0
   36.8340   24.6580   37.8150 H   0  0  0  0  0  0  0  0  0  0  0  0
   41.3750   22.4650   36.2460 C   0  0  0  0  0  3  0  0  0  0  0  0
   41.8320   21.3490   37.1860 C   0  0  0  0  0  2  0  0  0  0  0  0
   43.1450   20.9950   36.4710 C   0  0  0  0  0  2  0  0  0  0  0  0
   43.7370   22.3620   36.2150 C   0  0  0  0  0  2  0  0  0  0  0  0
   42.5830   23.3480   36.2910 C   0  0  0  0  0  2  0  0  0  0  0  0
  1  6  1  0  0  0  0
  1  7  1  0  0  0  0
  2  1  2  0  0  0  0
  3  4  2  0  0  0  0
  3  2  1  0  0  0  0
  4  5  1  0  0  0  0
  5  9  1  0  0  0  0
  5  6  2  0  0  0  0
  8  3  1  0  0  0  0
 10 14  1  0  0  0  0
 10  2  1  0  0  0  0
 10 11  1  0  0  0  0
 12 11  1  0  0  0  0
 13 14  1  0  0  0  0
 13 12  1  0  0  0  0
M  END
>  <minimizedAffinity>
-3.61460972

$$$$

 OpenBabel03262521033D

 14 15  0  0  0  0  0  0  0  0999 V2000
   37.3440   24.3760   32.7430 C   0  0  0  0  0  0  0  0  0  0  0  0
   37.1660   25.7830   32.7400 C   0  0  0  0  0  0  0  0  0  0  0  0
   36.1860   26.3110   31.8750 C   0  0  0  0  0  0  0  0  0  0  0  0
   35.4690   25.4490   31.0940 N   0  0  0  0  0  0  0  0  0  0  0  0
   35.6790   24.1140   31.1340 C   0  0  0  0  0  0  0  0  0  0  0  0
   36.6100   23.5870   31.9540 N   0  0  0  0  0  0  0  0  0  0  0  0
   38.0540   23.8570   33.3520 H   0  0  0  0  0  0  0  0  0  0  0  0
   36.0680   27.3760   31.8900 H   0  0  0  0  0  0  0  0  0  0  0  0
   35.0020   23.6280   30.4360 H   0  0  0  0  0  0  0  0  0  0  0  0
   38.0180   26.5520   33.6380 C   0  0  0  0  0  3  0  0  0  0  0  0
   39.2660   25.8000   34.1030 C   0  0  0  0  0  2  0  0  0  0  0  0
   39.8460   26.8940   35.0120 C   0  0  0  0  0  2  0  0  0  0  0  0
   38.6250   27.3340   35.7850 C   0  0  0  0  0  2  0  0  0  0  0  0
   37.4210   26.9000   34.9670 C   0  0  0  0  0  2  0  0  0  0  0  0
  1  7  1  0  0  0  0
  2  1  1  0  0  0  0
  2 10  1  0  0  0  0
  3  8  1  0  0  0  0
  3  2  2  0  0  0  0
  4  5  2  0  0  0  0
  4  3  1  0  0  0  0
  5  6  1  0  0  0  0
  6  1  2  0  0  0  0
  9  5  1  0  0  0  0
 10 11  1  0  0  0  0
 10 14  1  0  0  0  0
 11 12  1  0  0  0  0
 12 13  1  0  0  0  0
 14 13  1  0  0  0  0
M  END
>  <minimizedAffinity>
-3.58709192

$$$$

 OpenBabel03262521033D

 14 15  0  0  0  0  0  0  0  0999 V2000
   36.4360   26.8460   32.3030 C   0  0  0  0  0  0  0  0  0  0  0  0
   37.1040   25.7310   32.8690 C   0  0  0  0  0  0  0  0  0  0  0  0
   36.8250   24.4630   32.3220 C   0  0  0  0  0  0  0  0  0  0  0  0
   35.9360   24.3760   31.2880 N   0  0  0  0  0  0  0  0  0  0  0  0
   35.3250   25.4710   30.7840 C   0  0  0  0  0  0  0  0  0  0  0  0
   35.5760   26.6950   31.2920 N   0  0  0  0  0  0  0  0  0  0  0  0
   36.5610   27.8580   32.6300 H   0  0  0  0  0  0  0  0  0  0  0  0
   37.3420   23.6340   32.7640 H   0  0  0  0  0  0  0  0  0  0  0  0
   34.6660   25.1690   29.9750 H   0  0  0  0  0  0  0  0  0  0  0  0
   38.0210   26.0070   33.9680 C   0  0  0  0  0  3  0  0  0  0  0  0
   37.6250   27.2160   34.8160 C   0  0  0  0  0  2  0  0  0  0  0  0
   38.8070   27.1840   35.7960 C   0  0  0  0  0  2  0  0  0  0  0  0
   39.9790   26.9850   34.8620 C   0  0  0  0  0  2  0  0  0  0  0  0
   39.4070   26.4130   33.5750 C   0  0  0  0  0  2  0  0  0  0  0  0
  1  7  1  0  0  0  0
  1  2  1  0  0  0  0
  2 10  1  0  0  0  0
  3  8  1  0  0  0  0
  3  2  2  0  0  0  0
  4  3  1  0  0  0  0
  5  4  2  0  0  0  0
  5  6  1  0  0  0  0
  6  1  2  0  0  0  0
  9  5  1  0  0  0  0
 10 11  1  0  0  0  0
 11 12  1  0  0  0  0
 13 12  1  0  0  0  0
 14 10  1  0  0  0  0
 14 13  1  0  0  0  0
M  END
>  <minimizedAffinity>
-3.5839231

$$$$

 OpenBabel03262521033D

 14 15  0  0  0  0  0  0  0  0999 V2000
   39.7280   23.6240   36.1610 C   0  0  0  0  0  0  0  0  0  0  0  0
   38.9180   24.7660   35.9340 C   0  0  0  0  0  0  0  0  0  0  0  0
   37.9920   25.1130   36.9370 C   0  0  0  0  0  0  0  0  0  0  0  0
   37.9240   24.3410   38.0620 N   0  0  0  0  0  0  0  0  0  0  0  0
   38.7200   23.2620   38.2300 C   0  0  0  0  0  0  0  0  0  0  0  0
   39.6130   22.9100   37.2840 N   0  0  0  0  0  0  0  0  0  0  0  0
   40.4660   23.2590   35.4770 H   0  0  0  0  0  0  0  0  0  0  0  0
   37.3910   25.9800   36.7440 H   0  0  0  0  0  0  0  0  0  0  0  0
   38.4960   22.8020   39.1890 H   0  0  0  0  0  0  0  0  0  0  0  0
   39.1240   25.4740   34.6760 C   0  0  0  0  0  3  0  0  0  0  0  0
   40.0710   26.6690   34.7870 C   0  0  0  0  0  2  0  0  0  0  0  0
   39.9960   27.1340   33.3250 C   0  0  0  0  0  2  0  0  0  0  0  0
   38.5100   27.0850   33.0590 C   0  0  0  0  0  2  0  0  0  0  0  0
   37.9190   26.1540   34.1050 C   0  0  0  0  0  2  0  0  0  0  0  0
  1  6  1  0  0  0  0
  2  1  2  0  0  0  0
  2  3  1  0  0  0  0
  3  4  2  0  0  0  0
  4  5  1  0  0  0  0
  5  9  1  0  0  0  0
  6  5  2  0  0  0  0
  7  1  1  0  0  0  0
  8  3  1  0  0  0  0
 10 11  1  0  0  0  0
 10  2  1  0  0  0  0
 12 11  1  0  0  0  0
 13 12  1  0  0  0  0
 13 14  1  0  0  0  0
 14 10  1  0  0  0  0
M  END
>  <minimizedAffinity>
-3.49441743

$$$$

 OpenBabel03262521033D

 14 15  0  0  0  0  0  0  0  0999 V2000
   38.2380   27.5690   31.4150 C   0  0  0  0  0  0  0  0  0  0  0  0
   37.4610   27.6970   32.5940 C   0  0  0  0  0  0  0  0  0  0  0  0
   36.2500   28.4120   32.4980 C   0  0  0  0  0  0  0  0  0  0  0  0
   35.8940   28.9380   31.2890 N   0  0  0  0  0  0  0  0  0  0  0  0
   36.6720   28.7880   30.1930 C   0  0  0  0  0  0  0  0  0  0  0  0
   37.8340   28.1080   30.2610 N   0  0  0  0  0  0  0  0  0  0  0  0
   39.1740   27.0530   31.3590 H   0  0  0  0  0  0  0  0  0  0  0  0
   35.6790   28.4950   33.4020 H   0  0  0  0  0  0  0  0  0  0  0  0
   36.1970   29.2840   29.3510 H   0  0  0  0  0  0  0  0  0  0  0  0
   37.9930   27.0720   33.7980 C   0  0  0  0  0  3  0  0  0  0  0  0
   37.6160   27.7970   35.0910 C   0  0  0  0  0  2  0  0  0  0  0  0
   38.3620   26.8810   36.0720 C   0  0  0  0  0  2  0  0  0  0  0  0
   39.7020   26.7260   35.3940 C   0  0  0  0  0  2  0  0  0  0  0  0
   39.4840   27.0730   33.9310 C   0  0  0  0  0  2  0  0  0  0  0  0
  1  2  1  0  0  0  0
  2 10  1  0  0  0  0
  3  2  2  0  0  0  0
  3  8  1  0  0  0  0
  4  3  1  0  0  0  0
  5  6  1  0  0  0  0
  5  4  2  0  0  0  0
  6  1  2  0  0  0  0
  7  1  1  0  0  0  0
  9  5  1  0  0  0  0
 10 14  1  0  0  0  0
 10 11  1  0  0  0  0
 11 12  1  0  0  0  0
 13 12  1  0  0  0  0
 14 13  1  0  0  0  0
M  END
>  <minimizedAffinity>
-3.48689508

$$$$

 OpenBabel03262521033D

 14 15  0  0  0  0  0  0  0  0999 V2000
   33.6260   30.4840   35.2810 C   0  0  0  0  0  0  0  0  0  0  0  0
   35.0220   30.6480   35.0950 C   0  0  0  0  0  0  0  0  0  0  0  0
   35.6990   31.5020   35.9890 C   0  0  0  0  0  0  0  0  0  0  0  0
   34.9830   32.1190   36.9750 N   0  0  0  0  0  0  0  0  0  0  0  0
   33.6510   31.9290   37.1090 C   0  0  0  0  0  0  0  0  0  0  0  0
   32.9830   31.1170   36.2650 N   0  0  0  0  0  0  0  0  0  0  0  0
   33.0030   29.8660   34.6690 H   0  0  0  0  0  0  0  0  0  0  0  0
   36.7540   31.6110   35.8300 H   0  0  0  0  0  0  0  0  0  0  0  0
   33.2930   32.5130   37.9520 H   0  0  0  0  0  0  0  0  0  0  0  0
   35.6260   29.9120   33.9910 C   0  0  0  0  0  3  0  0  0  0  0  0
   34.6240   29.4580   32.9290 C   0  0  0  0  0  2  0  0  0  0  0  0
   35.6120   28.7290   32.0050 C   0  0  0  0  0  2  0  0  0  0  0  0
   36.4240   27.9240   32.9920 C   0  0  0  0  0  2  0  0  0  0  0  0
   36.2400   28.5940   34.3440 C   0  0  0  0  0  2  0  0  0  0  0  0
  1  6  1  0  0  0  0
  2  1  2  0  0  0  0
  2  3  1  0  0  0  0
  3  4  2  0  0  0  0
  4  5  1  0  0  0  0
  5  9  1  0  0  0  0
  6  5  2  0  0  0  0
  7  1  1  0  0  0  0
  8  3  1  0  0  0  0
 10 14  1  0  0  0  0
 10  2  1  0  0  0  0
 11 10  1  0  0  0  0
 12 11  1  0  0  0  0
 12 13  1  0  0  0  0
 13 14  1  0  0  0  0
M  END
>  <minimizedAffinity>
-3.44703031

$$$$
