
     RDKit          3D

 39 41  0  0  0  0  0  0  0  0999 V2000
   34.7556   29.4293   48.7989 C   0  0  0  0  0  0  0  0  0  0  0  0
   34.2175   30.0704   47.6683 C   0  0  0  0  0  0  0  0  0  0  0  0
   33.4858   29.2558   46.7851 C   0  0  0  0  0  0  0  0  0  0  0  0
   33.3320   27.9131   47.0546 N   0  0  0  0  0  0  0  0  0  0  0  0
   33.8815   27.3484   48.1747 C   0  0  0  0  0  0  0  0  0  0  0  0
   34.5771   28.1052   49.0208 N   0  0  0  0  0  0  0  0  0  0  0  0
   35.5217   30.3076   49.7374 C   0  0  0  0  0  0  0  0  0  0  0  0
   36.4928   31.1630   48.9460 C   0  0  0  0  0  0  0  0  0  0  0  0
   37.9276   30.7777   49.1588 C   0  0  0  0  0  0  0  0  0  0  0  0
   38.3013   30.8041   50.6165 C   0  0  0  0  0  0  0  0  0  0  0  0
   37.2924   30.1303   51.5023 C   0  0  0  0  0  0  0  0  0  0  0  0
   36.1997   29.4240   50.7275 C   0  0  0  0  0  0  0  0  0  0  0  0
   34.2993   31.0995   47.4056 H   0  0  0  0  0  0  0  0  0  0  0  0
   33.7766   26.3142   48.4048 H   0  0  0  0  0  0  0  0  0  0  0  0
   34.7685   30.9823   50.1933 H   0  0  0  0  0  0  0  0  0  0  0  0
   36.4005   32.2154   49.2840 H   0  0  0  0  0  0  0  0  0  0  0  0
   36.2758   31.1425   47.8634 H   0  0  0  0  0  0  0  0  0  0  0  0
   38.0836   29.7522   48.7346 H   0  0  0  0  0  0  0  0  0  0  0  0
   38.5480   31.4892   48.6089 H   0  0  0  0  0  0  0  0  0  0  0  0
   38.3180   31.8881   50.9027 H   0  0  0  0  0  0  0  0  0  0  0  0
   39.3206   30.4131   50.7307 H   0  0  0  0  0  0  0  0  0  0  0  0
   36.7831   30.8420   52.1845 H   0  0  0  0  0  0  0  0  0  0  0  0
   37.7987   29.3690   52.1277 H   0  0  0  0  0  0  0  0  0  0  0  0
   35.4841   29.0483   51.4645 H   0  0  0  0  0  0  0  0  0  0  0  0
   36.7031   28.5920   50.1624 H   0  0  0  0  0  0  0  0  0  0  0  0
   32.8519   29.7273   45.5625 C   0  0  0  0  0  0  0  0  0  0  0  0
   33.1070   31.2158   45.2944 C   0  0  0  0  0  0  0  0  0  0  0  0
   32.3172   31.3187   43.9818 C   0  0  0  0  0  0  0  0  0  0  0  0
   31.0533   30.5724   44.3352 C   0  0  0  0  0  0  0  0  0  0  0  0
   31.3592   29.7051   45.5406 C   0  0  0  0  0  0  0  0  0  0  0  0
   33.2383   29.2164   44.6600 H   0  0  0  0  0  0  0  0  0  0  0  0
   34.1776   31.4105   45.1340 H   0  0  0  0  0  0  0  0  0  0  0  0
   32.6133   31.8572   46.0375 H   0  0  0  0  0  0  0  0  0  0  0  0
   32.9007   30.6949   43.2506 H   0  0  0  0  0  0  0  0  0  0  0  0
   32.1550   32.3467   43.6665 H   0  0  0  0  0  0  0  0  0  0  0  0
   30.6939   29.9433   43.4951 H   0  0  0  0  0  0  0  0  0  0  0  0
   30.2775   31.3357   44.5555 H   0  0  0  0  0  0  0  0  0  0  0  0
   30.9496   30.2552   46.4171 H   0  0  0  0  0  0  0  0  0  0  0  0
   30.9038   28.7110   45.5049 H   0  0  0  0  0  0  0  0  0  0  0  0
  1  6  1  0
  1  7  1  0
  2  1  2  0
  3  4  2  0
  3  2  1  0
  4  5  1  0
  5  6  2  0
  7 12  1  0
  8  9  1  0
  8  7  1  0
  9 10  1  0
 10 11  1  0
 12 11  1  0
  2 13  1  0
  5 14  1  0
  7 15  1  0
  8 16  1  0
  8 17  1  0
  9 18  1  0
  9 19  1  0
 10 20  1  0
 10 21  1  0
 11 22  1  0
 11 23  1  0
 12 24  1  0
 12 25  1  0
 26 27  1  0
 27 28  1  0
 28 29  1  0
 29 30  1  0
 30 26  1  0
 26 31  1  0
 27 32  1  0
 27 33  1  0
 28 34  1  0
 28 35  1  0
 29 36  1  0
 29 37  1  0
 30 38  1  0
 30 39  1  0
  3 26  1  0
M  ISO  8  13  14  14  14  15  13  16  13  17  13  18  13  19  13  20  13
M  ISO  5  21  13  22  13  23  13  24  13  25  13
M  END
>  <DihAtoms>  (1) 
3,2,25,26

>  <DihDeg>  (1) 
62.238799595489

$$$$
