
 OpenBabel03272500523D

 41 46  0  0  1  0  0  0  0  0999 V2000
   34.6840   29.9980   33.6680 C   0  0  1  0  0  0  0  0  0  0  0  0
   34.5290   30.6110   32.2300 C   0  0  0  0  0  0  0  0  0  0  0  0
   35.7710   29.9110   32.6950 C   0  0  2  0  0  0  0  0  0  0  0  0
   34.0620   29.0940   33.8290 H   0  0  0  0  0  0  0  0  0  0  0  0
   33.8530   30.0610   31.5480 H   0  0  0  0  0  0  0  0  0  0  0  0
   34.4770   31.6990   32.2100 H   0  0  0  0  0  0  0  0  0  0  0  0
   36.6340   30.6020   32.7840 H   0  0  0  0  0  0  0  0  0  0  0  0
   34.1010   32.4830   36.1990 C   0  0  0  0  0  0  0  0  0  0  0  0
   35.4200   32.1330   36.4880 C   0  0  0  0  0  0  0  0  0  0  0  0
   35.8160   31.1430   35.5640 C   0  0  0  0  0  0  0  0  0  0  0  0
   34.7550   30.9340   34.7720 N   0  0  0  0  0  0  0  0  0  0  0  0
   33.7850   31.7260   35.1700 N   0  0  0  0  0  0  0  0  0  0  0  0
   36.0410   32.5500   37.2870 H   0  0  0  0  0  0  0  0  0  0  0  0
   36.7980   30.6650   35.5330 H   0  0  0  0  0  0  0  0  0  0  0  0
   33.9790   34.2990   37.9280 C   0  0  0  0  0  0  0  0  0  0  0  0
   33.3750   33.4680   36.9430 C   0  0  0  0  0  0  0  0  0  0  0  0
   32.0230   33.6510   36.7260 C   0  0  0  0  0  0  0  0  0  0  0  0
   31.3570   34.5940   37.4470 N   0  0  0  0  0  0  0  0  0  0  0  0
   31.9690   35.3560   38.3670 C   0  0  0  0  0  0  0  0  0  0  0  0
   33.3060   35.2140   38.6210 N   0  0  0  0  0  0  0  0  0  0  0  0
   35.0380   34.1490   38.0920 H   0  0  0  0  0  0  0  0  0  0  0  0
   31.4530   33.0890   36.0130 H   0  0  0  0  0  0  0  0  0  0  0  0
   31.4520   36.1140   38.9530 H   0  0  0  0  0  0  0  0  0  0  0  0
   36.1280   28.5780   32.0910 C   0  0  0  0  0  0  0  0  0  0  0  0
   36.3570   28.3500   30.7470 C   0  0  0  0  0  0  0  0  0  0  0  0
   36.6620   27.0310   30.6040 N   0  0  0  0  0  0  0  0  0  0  0  0
   36.6260   26.4420   31.8240 C   0  0  0  0  0  0  0  0  0  0  0  0
   36.3000   27.3890   32.7270 N   0  0  0  0  0  0  0  0  0  0  0  0
   36.2990   29.1000   29.9660 H   0  0  0  0  0  0  0  0  0  0  0  0
   36.8850   26.5570   29.7010 H   0  0  0  0  0  0  0  0  0  0  0  0
   36.9000   25.0050   32.1230 C   0  0  0  0  0  0  0  0  0  0  0  0
   37.9500   24.6350   32.9970 C   0  0  0  0  0  0  0  0  0  0  0  0
   37.8470   22.8070   33.0050 S   0  0  0  0  0  0  0  0  0  0  0  0
   36.3840   22.8650   31.8100 C   0  0  0  0  0  0  0  0  0  0  0  0
   36.2510   23.9730   31.6460 N   0  0  0  0  0  0  0  0  0  0  0  0
   38.6230   25.3240   33.5110 H   0  0  0  0  0  0  0  0  0  0  0  0
   35.6260   21.6520   31.2530 C   0  0  0  0  0  3  0  0  0  0  0  0
   36.6320   20.6220   30.7910 C   0  0  0  0  0  2  0  0  0  0  0  0
   35.9610   19.3090   31.0270 C   0  0  0  0  0  2  0  0  0  0  0  0
   34.8490   19.5460   32.0350 C   0  0  0  0  0  2  0  0  0  0  0  0
   34.8820   21.0210   32.3790 C   0  0  0  0  0  2  0  0  0  0  0  0
  1  4  1  1  0  0  0
  1 11  1  0  0  0  0
  2  3  1  0  0  0  0
  2  1  1  0  0  0  0
  3  7  1  1  0  0  0
  3  1  1  0  0  0  0
  5  2  1  0  0  0  0
  6  2  1  0  0  0  0
  8  9  1  0  0  0  0
  8 16  1  0  0  0  0
  9 13  1  0  0  0  0
 10  9  2  0  0  0  0
 11 12  1  0  0  0  0
 11 10  1  0  0  0  0
 12  8  2  0  0  0  0
 14 10  1  0  0  0  0
 15 21  1  0  0  0  0
 15 20  1  0  0  0  0
 16 15  2  0  0  0  0
 17 16  1  0  0  0  0
 17 18  2  0  0  0  0
 18 19  1  0  0  0  0
 19 20  2  0  0  0  0
 19 23  1  0  0  0  0
 22 17  1  0  0  0  0
 24  3  1  0  0  0  0
 24 28  1  0  0  0  0
 25 24  2  0  0  0  0
 26 25  1  0  0  0  0
 26 27  1  0  0  0  0
 27 31  1  0  0  0  0
 27 28  2  0  0  0  0
 29 25  1  0  0  0  0
 30 26  1  0  0  0  0
 31 32  2  0  0  0  0
 32 33  1  0  0  0  0
 32 36  1  0  0  0  0
 34 33  1  0  0  0  0
 35 34  2  0  0  0  0
 35 31  1  0  0  0  0
 37 34  1  0  0  0  0
 37 41  1  0  0  0  0
 38 39  1  0  0  0  0
 38 37  1  0  0  0  0
 39 40  1  0  0  0  0
 40 41  1  0  0  0  0
M  END
>  <minimizedAffinity>
-6.33776712

$$$$

 OpenBabel03272500523D

 41 46  0  0  1  0  0  0  0  0999 V2000
   34.6920   29.6220   34.2200 C   0  0  1  0  0  0  0  0  0  0  0  0
   34.3870   29.9570   32.7150 C   0  0  0  0  0  0  0  0  0  0  0  0
   35.7140   29.4440   33.1900 C   0  0  2  0  0  0  0  0  0  0  0  0
   34.1620   28.7180   34.5840 H   0  0  0  0  0  0  0  0  0  0  0  0
   33.7160   29.2460   32.1960 H   0  0  0  0  0  0  0  0  0  0  0  0
   34.2400   31.0180   32.5140 H   0  0  0  0  0  0  0  0  0  0  0  0
   36.5170   30.2010   33.0880 H   0  0  0  0  0  0  0  0  0  0  0  0
   34.0580   32.4310   36.3720 C   0  0  0  0  0  0  0  0  0  0  0  0
   35.4380   32.3010   36.5260 C   0  0  0  0  0  0  0  0  0  0  0  0
   35.8610   31.2160   35.7280 C   0  0  0  0  0  0  0  0  0  0  0  0
   34.7560   30.7420   35.1370 N   0  0  0  0  0  0  0  0  0  0  0  0
   33.7360   31.4690   35.5330 N   0  0  0  0  0  0  0  0  0  0  0  0
   36.0830   32.9260   37.1520 H   0  0  0  0  0  0  0  0  0  0  0  0
   36.8910   30.8640   35.6380 H   0  0  0  0  0  0  0  0  0  0  0  0
   31.8930   33.6110   36.8420 C   0  0  0  0  0  0  0  0  0  0  0  0
   33.2910   33.4370   37.0420 C   0  0  0  0  0  0  0  0  0  0  0  0
   33.8990   34.3010   37.9320 C   0  0  0  0  0  0  0  0  0  0  0  0
   33.1470   35.2490   38.5560 N   0  0  0  0  0  0  0  0  0  0  0  0
   31.8280   35.3750   38.3360 C   0  0  0  0  0  0  0  0  0  0  0  0
   31.1780   34.5450   37.4640 N   0  0  0  0  0  0  0  0  0  0  0  0
   31.4250   32.9300   36.1430 H   0  0  0  0  0  0  0  0  0  0  0  0
   34.9440   34.2740   38.1690 H   0  0  0  0  0  0  0  0  0  0  0  0
   31.2120   36.1270   38.8250 H   0  0  0  0  0  0  0  0  0  0  0  0
   36.1430   28.0540   32.7970 C   0  0  0  0  0  0  0  0  0  0  0  0
   35.7200   27.3830   31.6650 C   0  0  0  0  0  0  0  0  0  0  0  0
   36.3370   26.1690   31.6580 N   0  0  0  0  0  0  0  0  0  0  0  0
   37.1260   26.0760   32.7550 C   0  0  0  0  0  0  0  0  0  0  0  0
   37.0040   27.2280   33.4460 N   0  0  0  0  0  0  0  0  0  0  0  0
   35.0250   27.7710   30.9290 H   0  0  0  0  0  0  0  0  0  0  0  0
   36.2170   25.4340   30.9250 H   0  0  0  0  0  0  0  0  0  0  0  0
   37.9820   24.9130   33.1360 C   0  0  0  0  0  0  0  0  0  0  0  0
   38.8690   24.3290   32.2000 C   0  0  0  0  0  0  0  0  0  0  0  0
   39.6450   22.9790   33.1630 S   0  0  0  0  0  0  0  0  0  0  0  0
   38.6220   23.4470   34.6810 C   0  0  0  0  0  0  0  0  0  0  0  0
   38.0170   24.3230   34.3040 N   0  0  0  0  0  0  0  0  0  0  0  0
   39.0080   24.6540   31.1670 H   0  0  0  0  0  0  0  0  0  0  0  0
   38.6670   22.7530   36.0490 C   0  0  0  0  0  3  0  0  0  0  0  0
   40.1130   22.5600   36.4470 C   0  0  0  0  0  2  0  0  0  0  0  0
   40.1100   22.6580   37.9370 C   0  0  0  0  0  2  0  0  0  0  0  0
   38.8310   23.3730   38.3380 C   0  0  0  0  0  2  0  0  0  0  0  0
   38.0870   23.6870   37.0550 C   0  0  0  0  0  2  0  0  0  0  0  0
  1  4  1  1  0  0  0
  1 11  1  0  0  0  0
  2  3  1  0  0  0  0
  2  1  1  0  0  0  0
  3  7  1  1  0  0  0
  3  1  1  0  0  0  0
  5  2  1  0  0  0  0
  6  2  1  0  0  0  0
  8  9  1  0  0  0  0
  8 16  1  0  0  0  0
  9 13  1  0  0  0  0
 10  9  2  0  0  0  0
 11 12  1  0  0  0  0
 11 10  1  0  0  0  0
 12  8  2  0  0  0  0
 14 10  1  0  0  0  0
 15 16  2  0  0  0  0
 15 20  1  0  0  0  0
 16 17  1  0  0  0  0
 17 22  1  0  0  0  0
 17 18  2  0  0  0  0
 19 18  1  0  0  0  0
 19 23  1  0  0  0  0
 20 19  2  0  0  0  0
 21 15  1  0  0  0  0
 24  3  1  0  0  0  0
 24 28  1  0  0  0  0
 25 24  2  0  0  0  0
 26 25  1  0  0  0  0
 26 27  1  0  0  0  0
 27 31  1  0  0  0  0
 27 28  2  0  0  0  0
 29 25  1  0  0  0  0
 30 26  1  0  0  0  0
 31 35  1  0  0  0  0
 32 31  2  0  0  0  0
 32 33  1  0  0  0  0
 33 34  1  0  0  0  0
 34 37  1  0  0  0  0
 35 34  2  0  0  0  0
 36 32  1  0  0  0  0
 37 38  1  0  0  0  0
 37 41  1  0  0  0  0
 38 39  1  0  0  0  0
 39 40  1  0  0  0  0
 41 40  1  0  0  0  0
M  END
>  <minimizedAffinity>
-6.31581259

$$$$

 OpenBabel03272500523D

 41 46  0  0  1  0  0  0  0  0999 V2000
   37.7340   25.9160   35.8030 C   0  0  1  0  0  0  0  0  0  0  0  0
   38.4220   27.3180   35.9780 C   0  0  0  0  0  0  0  0  0  0  0  0
   38.2990   26.6220   34.6550 C   0  0  2  0  0  0  0  0  0  0  0  0
   36.6340   25.9470   35.9390 H   0  0  0  0  0  0  0  0  0  0  0  0
   37.7360   28.1630   36.1810 H   0  0  0  0  0  0  0  0  0  0  0  0
   39.3570   27.2910   36.5370 H   0  0  0  0  0  0  0  0  0  0  0  0
   39.2840   26.3040   34.2560 H   0  0  0  0  0  0  0  0  0  0  0  0
   39.8700   23.1250   36.5610 C   0  0  0  0  0  0  0  0  0  0  0  0
   39.0630   23.1420   37.6990 C   0  0  0  0  0  0  0  0  0  0  0  0
   38.1450   24.2050   37.5600 C   0  0  0  0  0  0  0  0  0  0  0  0
   38.4190   24.7770   36.3800 N   0  0  0  0  0  0  0  0  0  0  0  0
   39.4210   24.1260   35.8330 N   0  0  0  0  0  0  0  0  0  0  0  0
   39.1260   22.4560   38.5490 H   0  0  0  0  0  0  0  0  0  0  0  0
   37.3790   24.4750   38.2910 H   0  0  0  0  0  0  0  0  0  0  0  0
   41.4330   21.8350   35.0810 C   0  0  0  0  0  0  0  0  0  0  0  0
   40.9190   22.1710   36.3640 C   0  0  0  0  0  0  0  0  0  0  0  0
   41.4850   21.5230   37.4450 C   0  0  0  0  0  0  0  0  0  0  0  0
   42.4810   20.6200   37.2300 N   0  0  0  0  0  0  0  0  0  0  0  0
   42.9350   20.3350   35.9990 C   0  0  0  0  0  0  0  0  0  0  0  0
   42.4080   20.9480   34.8960 N   0  0  0  0  0  0  0  0  0  0  0  0
   40.9840   22.3470   34.2400 H   0  0  0  0  0  0  0  0  0  0  0  0
   41.1870   21.6880   38.4610 H   0  0  0  0  0  0  0  0  0  0  0  0
   43.7290   19.6150   35.8090 H   0  0  0  0  0  0  0  0  0  0  0  0
   37.3820   27.1990   33.6080 C   0  0  0  0  0  0  0  0  0  0  0  0
   37.3850   26.8500   32.2710 C   0  0  0  0  0  0  0  0  0  0  0  0
   36.4090   27.5760   31.6590 N   0  0  0  0  0  0  0  0  0  0  0  0
   35.8070   28.3610   32.5840 C   0  0  0  0  0  0  0  0  0  0  0  0
   36.4030   28.1280   33.7710 N   0  0  0  0  0  0  0  0  0  0  0  0
   38.0510   26.1270   31.8130 H   0  0  0  0  0  0  0  0  0  0  0  0
   36.1690   27.5300   30.6440 H   0  0  0  0  0  0  0  0  0  0  0  0
   34.6830   29.3130   32.3430 C   0  0  0  0  0  0  0  0  0  0  0  0
   34.8650   30.4570   31.5290 C   0  0  0  0  0  0  0  0  0  0  0  0
   33.2180   31.2550   31.5740 S   0  0  0  0  0  0  0  0  0  0  0  0
   32.5630   29.8840   32.6980 C   0  0  0  0  0  0  0  0  0  0  0  0
   33.4680   29.2210   32.8210 N   0  0  0  0  0  0  0  0  0  0  0  0
   35.7930   30.7390   31.0260 H   0  0  0  0  0  0  0  0  0  0  0  0
   31.1370   29.7790   33.2570 C   0  0  0  0  0  3  0  0  0  0  0  0
   31.0350   28.5190   34.0870 C   0  0  0  0  0  2  0  0  0  0  0  0
   30.0480   28.8530   35.1570 C   0  0  0  0  0  2  0  0  0  0  0  0
   29.9740   30.3690   35.2450 C   0  0  0  0  0  2  0  0  0  0  0  0
   30.9330   30.9110   34.2040 C   0  0  0  0  0  2  0  0  0  0  0  0
  1  4  1  1  0  0  0
  1  2  1  0  0  0  0
  1 11  1  0  0  0  0
  2  5  1  0  0  0  0
  2  6  1  0  0  0  0
  3  7  1  6  0  0  0
  3  1  1  0  0  0  0
  3  2  1  0  0  0  0
  8  9  1  0  0  0  0
  9 13  1  0  0  0  0
 10  9  2  0  0  0  0
 10 14  1  0  0  0  0
 11 10  1  0  0  0  0
 12 11  1  0  0  0  0
 12  8  2  0  0  0  0
 15 16  1  0  0  0  0
 16  8  1  0  0  0  0
 16 17  2  0  0  0  0
 17 22  1  0  0  0  0
 18 17  1  0  0  0  0
 19 18  2  0  0  0  0
 20 15  2  0  0  0  0
 20 19  1  0  0  0  0
 21 15  1  0  0  0  0
 23 19  1  0  0  0  0
 24 28  1  0  0  0  0
 24  3  1  0  0  0  0
 25 24  2  0  0  0  0
 26 25  1  0  0  0  0
 26 27  1  0  0  0  0
 27 28  2  0  0  0  0
 29 25  1  0  0  0  0
 30 26  1  0  0  0  0
 31 27  1  0  0  0  0
 31 35  1  0  0  0  0
 32 33  1  0  0  0  0
 32 31  2  0  0  0  0
 33 34  1  0  0  0  0
 34 35  2  0  0  0  0
 34 37  1  0  0  0  0
 36 32  1  0  0  0  0
 37 38  1  0  0  0  0
 37 41  1  0  0  0  0
 38 39  1  0  0  0  0
 39 40  1  0  0  0  0
 41 40  1  0  0  0  0
M  END
>  <minimizedAffinity>
-6.24937344

$$$$

 OpenBabel03272500523D

 41 46  0  0  1  0  0  0  0  0999 V2000
   34.7330   29.6500   34.7590 C   0  0  1  0  0  0  0  0  0  0  0  0
   34.6140   29.7640   33.1960 C   0  0  0  0  0  0  0  0  0  0  0  0
   35.8950   29.4280   33.9000 C   0  0  2  0  0  0  0  0  0  0  0  0
   34.2200   28.7590   35.1750 H   0  0  0  0  0  0  0  0  0  0  0  0
   34.0690   28.9390   32.6990 H   0  0  0  0  0  0  0  0  0  0  0  0
   34.4260   30.7740   32.8340 H   0  0  0  0  0  0  0  0  0  0  0  0
   36.6530   30.2310   33.7970 H   0  0  0  0  0  0  0  0  0  0  0  0
   33.6130   32.5920   36.4950 C   0  0  0  0  0  0  0  0  0  0  0  0
   34.9910   32.6960   36.6840 C   0  0  0  0  0  0  0  0  0  0  0  0
   35.5980   31.5920   36.0490 C   0  0  0  0  0  0  0  0  0  0  0  0
   34.5970   30.8790   35.5140 N   0  0  0  0  0  0  0  0  0  0  0  0
   33.4670   31.4880   35.7930 N   0  0  0  0  0  0  0  0  0  0  0  0
   35.5130   33.4910   37.2270 H   0  0  0  0  0  0  0  0  0  0  0  0
   36.6720   31.3920   36.0210 H   0  0  0  0  0  0  0  0  0  0  0  0
   31.2840   33.4950   36.7460 C   0  0  0  0  0  0  0  0  0  0  0  0
   32.6810   33.5500   37.0100 C   0  0  0  0  0  0  0  0  0  0  0  0
   33.1190   34.5910   37.8040 C   0  0  0  0  0  0  0  0  0  0  0  0
   32.2130   35.4890   38.2810 N   0  0  0  0  0  0  0  0  0  0  0  0
   30.9020   35.3970   38.0060 C   0  0  0  0  0  0  0  0  0  0  0  0
   30.4170   34.3840   37.2230 N   0  0  0  0  0  0  0  0  0  0  0  0
   30.9500   32.6760   36.1230 H   0  0  0  0  0  0  0  0  0  0  0  0
   34.1450   34.7430   38.0760 H   0  0  0  0  0  0  0  0  0  0  0  0
   30.1640   36.1050   38.3780 H   0  0  0  0  0  0  0  0  0  0  0  0
   36.4640   28.0400   33.7600 C   0  0  0  0  0  0  0  0  0  0  0  0
   36.9570   27.2760   34.8000 C   0  0  0  0  0  0  0  0  0  0  0  0
   37.3650   26.0870   34.2730 N   0  0  0  0  0  0  0  0  0  0  0  0
   37.1360   26.1030   32.9380 C   0  0  0  0  0  0  0  0  0  0  0  0
   36.5860   27.2950   32.6300 N   0  0  0  0  0  0  0  0  0  0  0  0
   37.0020   27.5840   35.8380 H   0  0  0  0  0  0  0  0  0  0  0  0
   37.7850   25.2990   34.8150 H   0  0  0  0  0  0  0  0  0  0  0  0
   37.4320   25.0000   31.9750 C   0  0  0  0  0  0  0  0  0  0  0  0
   38.4580   25.1380   31.0100 C   0  0  0  0  0  0  0  0  0  0  0  0
   38.3920   23.5430   30.1150 S   0  0  0  0  0  0  0  0  0  0  0  0
   36.9710   22.9620   31.2160 C   0  0  0  0  0  0  0  0  0  0  0  0
   36.8210   23.8450   31.9030 N   0  0  0  0  0  0  0  0  0  0  0  0
   39.0990   26.0140   30.8830 H   0  0  0  0  0  0  0  0  0  0  0  0
   36.2570   21.6060   31.1280 C   0  0  0  0  0  3  0  0  0  0  0  0
   37.2250   20.5220   31.5480 C   0  0  0  0  0  2  0  0  0  0  0  0
   36.3670   19.4790   32.1860 C   0  0  0  0  0  2  0  0  0  0  0  0
   35.0580   20.1460   32.5720 C   0  0  0  0  0  2  0  0  0  0  0  0
   35.1670   21.5960   32.1440 C   0  0  0  0  0  2  0  0  0  0  0  0
  1  4  1  1  0  0  0
  1 11  1  0  0  0  0
  2  3  1  0  0  0  0
  2  1  1  0  0  0  0
  3  7  1  1  0  0  0
  3  1  1  0  0  0  0
  5  2  1  0  0  0  0
  6  2  1  0  0  0  0
  8  9  1  0  0  0  0
  8 16  1  0  0  0  0
  9 13  1  0  0  0  0
 10  9  2  0  0  0  0
 11 12  1  0  0  0  0
 11 10  1  0  0  0  0
 12  8  2  0  0  0  0
 14 10  1  0  0  0  0
 15 16  2  0  0  0  0
 15 20  1  0  0  0  0
 16 17  1  0  0  0  0
 17 22  1  0  0  0  0
 17 18  2  0  0  0  0
 19 18  1  0  0  0  0
 19 23  1  0  0  0  0
 20 19  2  0  0  0  0
 21 15  1  0  0  0  0
 24  3  1  0  0  0  0
 24 25  2  0  0  0  0
 25 29  1  0  0  0  0
 26 25  1  0  0  0  0
 26 30  1  0  0  0  0
 27 26  1  0  0  0  0
 28 27  2  0  0  0  0
 28 24  1  0  0  0  0
 31 27  1  0  0  0  0
 32 31  2  0  0  0  0
 33 32  1  0  0  0  0
 33 34  1  0  0  0  0
 34 35  2  0  0  0  0
 35 31  1  0  0  0  0
 36 32  1  0  0  0  0
 37 34  1  0  0  0  0
 37 38  1  0  0  0  0
 37 41  1  0  0  0  0
 38 39  1  0  0  0  0
 39 40  1  0  0  0  0
 41 40  1  0  0  0  0
M  END
>  <minimizedAffinity>
-5.94653082

$$$$

 OpenBabel03272500523D

 41 46  0  0  1  0  0  0  0  0999 V2000
   37.8510   26.1560   35.9670 C   0  0  1  0  0  0  0  0  0  0  0  0
   38.8220   27.3800   35.7920 C   0  0  0  0  0  0  0  0  0  0  0  0
   38.1530   26.6910   34.6410 C   0  0  2  0  0  0  0  0  0  0  0  0
   36.8790   26.4290   36.4260 H   0  0  0  0  0  0  0  0  0  0  0  0
   38.4160   28.3590   36.1120 H   0  0  0  0  0  0  0  0  0  0  0  0
   39.8600   27.1670   36.0420 H   0  0  0  0  0  0  0  0  0  0  0  0
   38.8780   26.1560   33.9940 H   0  0  0  0  0  0  0  0  0  0  0  0
   39.8240   23.1910   36.4600 C   0  0  0  0  0  0  0  0  0  0  0  0
   38.9130   23.0660   37.5080 C   0  0  0  0  0  0  0  0  0  0  0  0
   38.0420   24.1750   37.4590 C   0  0  0  0  0  0  0  0  0  0  0  0
   38.4450   24.9120   36.4140 N   0  0  0  0  0  0  0  0  0  0  0  0
   39.4760   24.3120   35.8630 N   0  0  0  0  0  0  0  0  0  0  0  0
   38.8740   22.2520   38.2400 H   0  0  0  0  0  0  0  0  0  0  0  0
   37.2180   24.3620   38.1510 H   0  0  0  0  0  0  0  0  0  0  0  0
   41.3360   21.9300   34.9030 C   0  0  0  0  0  0  0  0  0  0  0  0
   40.8590   22.2350   36.2080 C   0  0  0  0  0  0  0  0  0  0  0  0
   41.4490   21.5530   37.2550 C   0  0  0  0  0  0  0  0  0  0  0  0
   42.4310   20.6480   36.9890 N   0  0  0  0  0  0  0  0  0  0  0  0
   42.8490   20.3940   35.7390 C   0  0  0  0  0  0  0  0  0  0  0  0
   42.2980   21.0410   34.6670 N   0  0  0  0  0  0  0  0  0  0  0  0
   40.8690   22.4690   34.0880 H   0  0  0  0  0  0  0  0  0  0  0  0
   41.1790   21.6920   38.2830 H   0  0  0  0  0  0  0  0  0  0  0  0
   43.6320   19.6740   35.5080 H   0  0  0  0  0  0  0  0  0  0  0  0
   37.0850   27.4230   33.8710 C   0  0  0  0  0  0  0  0  0  0  0  0
   36.8030   27.2360   32.5310 C   0  0  0  0  0  0  0  0  0  0  0  0
   35.7710   28.0670   32.2120 N   0  0  0  0  0  0  0  0  0  0  0  0
   35.4130   28.7580   33.3210 C   0  0  0  0  0  0  0  0  0  0  0  0
   36.2160   28.3620   34.3290 N   0  0  0  0  0  0  0  0  0  0  0  0
   37.3200   26.5490   31.8710 H   0  0  0  0  0  0  0  0  0  0  0  0
   35.3340   28.1520   31.2680 H   0  0  0  0  0  0  0  0  0  0  0  0
   34.3230   29.7750   33.4180 C   0  0  0  0  0  0  0  0  0  0  0  0
   33.1910   29.7060   32.5710 C   0  0  0  0  0  0  0  0  0  0  0  0
   32.2020   31.1550   33.0950 S   0  0  0  0  0  0  0  0  0  0  0  0
   33.5090   31.6050   34.3840 C   0  0  0  0  0  0  0  0  0  0  0  0
   34.2790   30.7920   34.2400 N   0  0  0  0  0  0  0  0  0  0  0  0
   33.0120   28.9450   31.8080 H   0  0  0  0  0  0  0  0  0  0  0  0
   33.4540   32.7990   35.3470 C   0  0  0  0  0  3  0  0  0  0  0  0
   33.6160   32.2880   36.7610 C   0  0  0  0  0  2  0  0  0  0  0  0
   34.3210   33.3900   37.4800 C   0  0  0  0  0  2  0  0  0  0  0  0
   34.9810   34.2650   36.4280 C   0  0  0  0  0  2  0  0  0  0  0  0
   34.6440   33.6550   35.0820 C   0  0  0  0  0  2  0  0  0  0  0  0
  1 11  1  0  0  0  0
  1  4  1  1  0  0  0
  2  1  1  0  0  0  0
  2  6  1  0  0  0  0
  2  5  1  0  0  0  0
  3  7  1  6  0  0  0
  3  2  1  0  0  0  0
  3  1  1  0  0  0  0
  8  9  1  0  0  0  0
  9 13  1  0  0  0  0
 10  9  2  0  0  0  0
 10 14  1  0  0  0  0
 11 10  1  0  0  0  0
 12 11  1  0  0  0  0
 12  8  2  0  0  0  0
 15 16  1  0  0  0  0
 16  8  1  0  0  0  0
 16 17  2  0  0  0  0
 17 22  1  0  0  0  0
 18 17  1  0  0  0  0
 19 18  2  0  0  0  0
 20 15  2  0  0  0  0
 20 19  1  0  0  0  0
 21 15  1  0  0  0  0
 23 19  1  0  0  0  0
 24 28  1  0  0  0  0
 24  3  1  0  0  0  0
 25 24  2  0  0  0  0
 26 25  1  0  0  0  0
 26 27  1  0  0  0  0
 27 31  1  0  0  0  0
 27 28  2  0  0  0  0
 29 25  1  0  0  0  0
 30 26  1  0  0  0  0
 31 35  1  0  0  0  0
 32 33  1  0  0  0  0
 32 31  2  0  0  0  0
 33 34  1  0  0  0  0
 34 37  1  0  0  0  0
 35 34  2  0  0  0  0
 36 32  1  0  0  0  0
 37 38  1  0  0  0  0
 38 39  1  0  0  0  0
 40 39  1  0  0  0  0
 41 37  1  0  0  0  0
 41 40  1  0  0  0  0
M  END
>  <minimizedAffinity>
-5.93805599

$$$$

 OpenBabel03272500523D

 41 46  0  0  1  0  0  0  0  0999 V2000
   36.9300   26.2690   32.2940 C   0  0  1  0  0  0  0  0  0  0  0  0
   37.9980   26.9890   31.3930 C   0  0  0  0  0  0  0  0  0  0  0  0
   36.5610   27.4130   31.4630 C   0  0  2  0  0  0  0  0  0  0  0  0
   37.0810   26.4440   33.3780 H   0  0  0  0  0  0  0  0  0  0  0  0
   38.7420   27.6020   31.9350 H   0  0  0  0  0  0  0  0  0  0  0  0
   38.3610   26.3860   30.5610 H   0  0  0  0  0  0  0  0  0  0  0  0
   36.0250   27.2370   30.5080 H   0  0  0  0  0  0  0  0  0  0  0  0
   36.7290   22.7470   31.5990 C   0  0  0  0  0  0  0  0  0  0  0  0
   35.4680   23.1620   31.1690 C   0  0  0  0  0  0  0  0  0  0  0  0
   35.3790   24.5550   31.3760 C   0  0  0  0  0  0  0  0  0  0  0  0
   36.5520   24.9240   31.9080 N   0  0  0  0  0  0  0  0  0  0  0  0
   37.3050   23.8530   32.0210 N   0  0  0  0  0  0  0  0  0  0  0  0
   34.6850   22.5250   30.7460 H   0  0  0  0  0  0  0  0  0  0  0  0
   34.5100   25.1740   31.1380 H   0  0  0  0  0  0  0  0  0  0  0  0
   38.3940   20.9340   32.0900 C   0  0  0  0  0  0  0  0  0  0  0  0
   37.1640   21.3850   31.5350 C   0  0  0  0  0  0  0  0  0  0  0  0
   36.3810   20.4310   30.9140 C   0  0  0  0  0  0  0  0  0  0  0  0
   36.8180   19.1420   30.8670 N   0  0  0  0  0  0  0  0  0  0  0  0
   37.9880   18.7630   31.4060 C   0  0  0  0  0  0  0  0  0  0  0  0
   38.8000   19.6690   32.0320 N   0  0  0  0  0  0  0  0  0  0  0  0
   39.0010   21.6880   32.5750 H   0  0  0  0  0  0  0  0  0  0  0  0
   35.4350   20.6420   30.4580 H   0  0  0  0  0  0  0  0  0  0  0  0
   38.3530   17.7380   31.3770 H   0  0  0  0  0  0  0  0  0  0  0  0
   36.2180   28.7280   32.1130 C   0  0  0  0  0  0  0  0  0  0  0  0
   36.2930   29.9620   31.4960 C   0  0  0  0  0  0  0  0  0  0  0  0
   35.8920   30.8960   32.4030 N   0  0  0  0  0  0  0  0  0  0  0  0
   35.5730   30.2670   33.5600 C   0  0  0  0  0  0  0  0  0  0  0  0
   35.7730   28.9460   33.3780 N   0  0  0  0  0  0  0  0  0  0  0  0
   36.6150   30.1340   30.4750 H   0  0  0  0  0  0  0  0  0  0  0  0
   35.8410   31.9240   32.2290 H   0  0  0  0  0  0  0  0  0  0  0  0
   35.0840   30.9140   34.8140 C   0  0  0  0  0  0  0  0  0  0  0  0
   35.8910   31.8440   35.5110 C   0  0  0  0  0  0  0  0  0  0  0  0
   34.8380   32.3090   36.9350 S   0  0  0  0  0  0  0  0  0  0  0  0
   33.4740   31.1490   36.3300 C   0  0  0  0  0  0  0  0  0  0  0  0
   33.9260   30.7150   35.3920 N   0  0  0  0  0  0  0  0  0  0  0  0
   36.8930   32.1640   35.2170 H   0  0  0  0  0  0  0  0  0  0  0  0
   32.1170   30.9190   37.0100 C   0  0  0  0  0  3  0  0  0  0  0  0
   31.0680   31.7320   36.2850 C   0  0  0  0  0  2  0  0  0  0  0  0
   29.8160   30.9290   36.4120 C   0  0  0  0  0  2  0  0  0  0  0  0
   30.2260   29.5030   36.7410 C   0  0  0  0  0  2  0  0  0  0  0  0
   31.7410   29.4920   36.8070 C   0  0  0  0  0  2  0  0  0  0  0  0
  1  4  1  1  0  0  0
  2  3  1  0  0  0  0
  2  5  1  0  0  0  0
  2  1  1  0  0  0  0
  3  7  1  6  0  0  0
  3 24  1  0  0  0  0
  3  1  1  0  0  0  0
  6  2  1  0  0  0  0
  8 12  2  0  0  0  0
  9 10  2  0  0  0  0
  9  8  1  0  0  0  0
 10 11  1  0  0  0  0
 11 12  1  0  0  0  0
 11  1  1  0  0  0  0
 13  9  1  0  0  0  0
 14 10  1  0  0  0  0
 15 21  1  0  0  0  0
 16  8  1  0  0  0  0
 16 15  2  0  0  0  0
 17 16  1  0  0  0  0
 18 17  2  0  0  0  0
 18 19  1  0  0  0  0
 19 20  2  0  0  0  0
 20 15  1  0  0  0  0
 22 17  1  0  0  0  0
 23 19  1  0  0  0  0
 24 28  1  0  0  0  0
 25 24  2  0  0  0  0
 25 26  1  0  0  0  0
 26 27  1  0  0  0  0
 27 31  1  0  0  0  0
 28 27  2  0  0  0  0
 29 25  1  0  0  0  0
 30 26  1  0  0  0  0
 31 35  1  0  0  0  0
 31 32  2  0  0  0  0
 32 33  1  0  0  0  0
 34 33  1  0  0  0  0
 34 37  1  0  0  0  0
 35 34  2  0  0  0  0
 36 32  1  0  0  0  0
 38 39  1  0  0  0  0
 38 37  1  0  0  0  0
 39 40  1  0  0  0  0
 40 41  1  0  0  0  0
 41 37  1  0  0  0  0
M  END
>  <minimizedAffinity>
-5.77002954

$$$$

 OpenBabel03272500523D

 41 46  0  0  1  0  0  0  0  0999 V2000
   34.4740   29.4420   33.0780 C   0  0  1  0  0  0  0  0  0  0  0  0
   34.9630   30.0800   31.7280 C   0  0  0  0  0  0  0  0  0  0  0  0
   35.8960   29.4860   32.7400 C   0  0  2  0  0  0  0  0  0  0  0  0
   33.9400   28.4800   32.9410 H   0  0  0  0  0  0  0  0  0  0  0  0
   34.7470   29.4890   30.8170 H   0  0  0  0  0  0  0  0  0  0  0  0
   34.8220   31.1590   31.6650 H   0  0  0  0  0  0  0  0  0  0  0  0
   36.5420   30.2520   33.2160 H   0  0  0  0  0  0  0  0  0  0  0  0
   33.8190   32.0510   35.4640 C   0  0  0  0  0  0  0  0  0  0  0  0
   32.6080   31.3600   35.5050 C   0  0  0  0  0  0  0  0  0  0  0  0
   32.6970   30.2780   34.6040 C   0  0  0  0  0  0  0  0  0  0  0  0
   33.9220   30.3480   34.0650 N   0  0  0  0  0  0  0  0  0  0  0  0
   34.5390   31.3840   34.5860 N   0  0  0  0  0  0  0  0  0  0  0  0
   31.7400   31.6090   36.1240 H   0  0  0  0  0  0  0  0  0  0  0  0
   31.9050   29.5500   34.4110 H   0  0  0  0  0  0  0  0  0  0  0  0
   33.5110   33.4200   37.5450 C   0  0  0  0  0  0  0  0  0  0  0  0
   34.0810   33.2130   36.2580 C   0  0  0  0  0  0  0  0  0  0  0  0
   34.9200   34.2040   35.7880 C   0  0  0  0  0  0  0  0  0  0  0  0
   35.1530   35.3000   36.5630 N   0  0  0  0  0  0  0  0  0  0  0  0
   34.5920   35.4510   37.7740 C   0  0  0  0  0  0  0  0  0  0  0  0
   33.7530   34.4990   38.2840 N   0  0  0  0  0  0  0  0  0  0  0  0
   32.8550   32.6380   37.9050 H   0  0  0  0  0  0  0  0  0  0  0  0
   35.4110   34.1680   34.8360 H   0  0  0  0  0  0  0  0  0  0  0  0
   34.7660   36.3200   38.4060 H   0  0  0  0  0  0  0  0  0  0  0  0
   36.6220   28.2100   32.4040 C   0  0  0  0  0  0  0  0  0  0  0  0
   37.1280   27.8890   31.1590 C   0  0  0  0  0  0  0  0  0  0  0  0
   37.7200   26.6670   31.2630 N   0  0  0  0  0  0  0  0  0  0  0  0
   37.5910   26.2290   32.5380 C   0  0  0  0  0  0  0  0  0  0  0  0
   36.9210   27.1730   33.2300 N   0  0  0  0  0  0  0  0  0  0  0  0
   37.0560   28.5110   30.2740 H   0  0  0  0  0  0  0  0  0  0  0  0
   38.1940   26.1560   30.4840 H   0  0  0  0  0  0  0  0  0  0  0  0
   38.0990   24.9370   33.0880 C   0  0  0  0  0  0  0  0  0  0  0  0
   38.8080   24.0290   32.2650 C   0  0  0  0  0  0  0  0  0  0  0  0
   39.1820   22.6500   33.4100 S   0  0  0  0  0  0  0  0  0  0  0  0
   38.3030   23.5540   34.8170 C   0  0  0  0  0  0  0  0  0  0  0  0
   37.9610   24.5050   34.3160 N   0  0  0  0  0  0  0  0  0  0  0  0
   39.0420   24.1770   31.2080 H   0  0  0  0  0  0  0  0  0  0  0  0
   38.1440   23.0450   36.2560 C   0  0  0  0  0  3  0  0  0  0  0  0
   39.5130   22.7170   36.8090 C   0  0  0  0  0  2  0  0  0  0  0  0
   39.4100   23.0100   38.2690 C   0  0  0  0  0  2  0  0  0  0  0  0
   38.2190   23.9330   38.4610 C   0  0  0  0  0  2  0  0  0  0  0  0
   37.6280   24.1710   37.0850 C   0  0  0  0  0  2  0  0  0  0  0  0
  1  4  1  6  0  0  0
  1 11  1  0  0  0  0
  2  3  1  0  0  0  0
  2  1  1  0  0  0  0
  3  1  1  0  0  0  0
  3  7  1  1  0  0  0
  5  2  1  0  0  0  0
  6  2  1  0  0  0  0
  8  9  1  0  0  0  0
  8 16  1  0  0  0  0
  9 13  1  0  0  0  0
 10  9  2  0  0  0  0
 11 12  1  0  0  0  0
 11 10  1  0  0  0  0
 12  8  2  0  0  0  0
 14 10  1  0  0  0  0
 15 21  1  0  0  0  0
 15 20  1  0  0  0  0
 16 15  2  0  0  0  0
 17 16  1  0  0  0  0
 17 18  2  0  0  0  0
 18 19  1  0  0  0  0
 19 20  2  0  0  0  0
 19 23  1  0  0  0  0
 22 17  1  0  0  0  0
 24  3  1  0  0  0  0
 24 28  1  0  0  0  0
 25 26  1  0  0  0  0
 25 24  2  0  0  0  0
 26 27  1  0  0  0  0
 27 31  1  0  0  0  0
 27 28  2  0  0  0  0
 29 25  1  0  0  0  0
 30 26  1  0  0  0  0
 31 35  1  0  0  0  0
 32 31  2  0  0  0  0
 32 33  1  0  0  0  0
 33 34  1  0  0  0  0
 34 37  1  0  0  0  0
 35 34  2  0  0  0  0
 36 32  1  0  0  0  0
 37 38  1  0  0  0  0
 37 41  1  0  0  0  0
 38 39  1  0  0  0  0
 39 40  1  0  0  0  0
 41 40  1  0  0  0  0
M  END
>  <minimizedAffinity>
-5.7452836

$$$$

 OpenBabel03272500523D

 41 46  0  0  1  0  0  0  0  0999 V2000
   35.0540   29.2530   34.4680 C   0  0  1  0  0  0  0  0  0  0  0  0
   34.9740   29.3290   32.9000 C   0  0  0  0  0  0  0  0  0  0  0  0
   36.2340   29.0000   33.6430 C   0  0  2  0  0  0  0  0  0  0  0  0
   34.5230   28.3770   34.8930 H   0  0  0  0  0  0  0  0  0  0  0  0
   34.4330   28.4970   32.4100 H   0  0  0  0  0  0  0  0  0  0  0  0
   34.8030   30.3310   32.5090 H   0  0  0  0  0  0  0  0  0  0  0  0
   37.0020   29.7930   33.5390 H   0  0  0  0  0  0  0  0  0  0  0  0
   33.9220   32.2560   36.0880 C   0  0  0  0  0  0  0  0  0  0  0  0
   35.2920   32.3360   36.3360 C   0  0  0  0  0  0  0  0  0  0  0  0
   35.9030   31.2060   35.7520 C   0  0  0  0  0  0  0  0  0  0  0  0
   34.9120   30.5020   35.1890 N   0  0  0  0  0  0  0  0  0  0  0  0
   33.7830   31.1400   35.4040 N   0  0  0  0  0  0  0  0  0  0  0  0
   35.8070   33.1320   36.8840 H   0  0  0  0  0  0  0  0  0  0  0  0
   36.9730   30.9830   35.7770 H   0  0  0  0  0  0  0  0  0  0  0  0
   33.3610   34.5840   36.8390 C   0  0  0  0  0  0  0  0  0  0  0  0
   32.9900   33.2440   36.5390 C   0  0  0  0  0  0  0  0  0  0  0  0
   31.6560   32.9210   36.7050 C   0  0  0  0  0  0  0  0  0  0  0  0
   30.7900   33.8800   37.1360 N   0  0  0  0  0  0  0  0  0  0  0  0
   31.1870   35.1340   37.4060 C   0  0  0  0  0  0  0  0  0  0  0  0
   32.4960   35.5040   37.2590 N   0  0  0  0  0  0  0  0  0  0  0  0
   34.4070   34.8290   36.7060 H   0  0  0  0  0  0  0  0  0  0  0  0
   31.2510   31.9480   36.5140 H   0  0  0  0  0  0  0  0  0  0  0  0
   30.5090   35.9110   37.7510 H   0  0  0  0  0  0  0  0  0  0  0  0
   36.7940   27.6040   33.5500 C   0  0  0  0  0  0  0  0  0  0  0  0
   36.5850   26.7340   32.4980 C   0  0  0  0  0  0  0  0  0  0  0  0
   37.2610   25.5850   32.7780 N   0  0  0  0  0  0  0  0  0  0  0  0
   37.8800   25.7280   33.9750 C   0  0  0  0  0  0  0  0  0  0  0  0
   37.5920   26.9600   34.4420 N   0  0  0  0  0  0  0  0  0  0  0  0
   35.9870   26.9450   31.6180 H   0  0  0  0  0  0  0  0  0  0  0  0
   37.2940   24.7390   32.1680 H   0  0  0  0  0  0  0  0  0  0  0  0
   38.7320   24.7110   34.6590 C   0  0  0  0  0  0  0  0  0  0  0  0
   38.1470   23.6600   35.4060 C   0  0  0  0  0  0  0  0  0  0  0  0
   39.6030   22.7340   36.0160 S   0  0  0  0  0  0  0  0  0  0  0  0
   40.7630   23.9440   35.1430 C   0  0  0  0  0  0  0  0  0  0  0  0
   40.0410   24.6640   34.6590 N   0  0  0  0  0  0  0  0  0  0  0  0
   37.0760   23.4990   35.5460 H   0  0  0  0  0  0  0  0  0  0  0  0
   42.2970   23.8850   35.1450 C   0  0  0  0  0  3  0  0  0  0  0  0
   42.8350   25.2980   35.1760 C   0  0  0  0  0  2  0  0  0  0  0  0
   44.1140   25.1970   35.9390 C   0  0  0  0  0  2  0  0  0  0  0  0
   44.0610   23.9060   36.7390 C   0  0  0  0  0  2  0  0  0  0  0  0
   42.7280   23.2550   36.4250 C   0  0  0  0  0  2  0  0  0  0  0  0
  1  4  1  1  0  0  0
  1 11  1  0  0  0  0
  2  3  1  0  0  0  0
  2  1  1  0  0  0  0
  3  7  1  1  0  0  0
  3  1  1  0  0  0  0
  5  2  1  0  0  0  0
  6  2  1  0  0  0  0
  8  9  1  0  0  0  0
  8 16  1  0  0  0  0
  9 13  1  0  0  0  0
 10 14  1  0  0  0  0
 10  9  2  0  0  0  0
 11 12  1  0  0  0  0
 11 10  1  0  0  0  0
 12  8  2  0  0  0  0
 15 20  1  0  0  0  0
 16 17  1  0  0  0  0
 16 15  2  0  0  0  0
 17 18  2  0  0  0  0
 18 19  1  0  0  0  0
 19 23  1  0  0  0  0
 20 19  2  0  0  0  0
 21 15  1  0  0  0  0
 22 17  1  0  0  0  0
 24  3  1  0  0  0  0
 24 28  1  0  0  0  0
 25 26  1  0  0  0  0
 25 24  2  0  0  0  0
 26 27  1  0  0  0  0
 27 28  2  0  0  0  0
 27 31  1  0  0  0  0
 29 25  1  0  0  0  0
 30 26  1  0  0  0  0
 31 32  2  0  0  0  0
 32 36  1  0  0  0  0
 32 33  1  0  0  0  0
 34 37  1  0  0  0  0
 34 33  1  0  0  0  0
 35 31  1  0  0  0  0
 35 34  2  0  0  0  0
 37 38  1  0  0  0  0
 37 41  1  0  0  0  0
 38 39  1  0  0  0  0
 39 40  1  0  0  0  0
 41 40  1  0  0  0  0
M  END
>  <minimizedAffinity>
-5.69068289

$$$$

 OpenBabel03272500523D

 41 46  0  0  1  0  0  0  0  0999 V2000
   37.6740   25.9480   35.7840 C   0  0  1  0  0  0  0  0  0  0  0  0
   38.4190   27.3310   35.8300 C   0  0  0  0  0  0  0  0  0  0  0  0
   38.1730   26.5720   34.5600 C   0  0  2  0  0  0  0  0  0  0  0  0
   36.5890   26.0270   36.0000 H   0  0  0  0  0  0  0  0  0  0  0  0
   37.7800   28.2100   36.0370 H   0  0  0  0  0  0  0  0  0  0  0  0
   39.3930   27.2990   36.3180 H   0  0  0  0  0  0  0  0  0  0  0  0
   39.1130   26.1970   34.1060 H   0  0  0  0  0  0  0  0  0  0  0  0
   39.8180   23.1680   36.5610 C   0  0  0  0  0  0  0  0  0  0  0  0
   39.0160   23.1970   37.7030 C   0  0  0  0  0  0  0  0  0  0  0  0
   38.0950   24.2560   37.5570 C   0  0  0  0  0  0  0  0  0  0  0  0
   38.3640   24.8160   36.3700 N   0  0  0  0  0  0  0  0  0  0  0  0
   39.3640   24.1610   35.8250 N   0  0  0  0  0  0  0  0  0  0  0  0
   39.0840   22.5190   38.5600 H   0  0  0  0  0  0  0  0  0  0  0  0
   37.3330   24.5340   38.2890 H   0  0  0  0  0  0  0  0  0  0  0  0
   41.3770   21.8660   35.0870 C   0  0  0  0  0  0  0  0  0  0  0  0
   40.8660   22.2130   36.3690 C   0  0  0  0  0  0  0  0  0  0  0  0
   41.4370   21.5760   37.4540 C   0  0  0  0  0  0  0  0  0  0  0  0
   42.4330   20.6720   37.2440 N   0  0  0  0  0  0  0  0  0  0  0  0
   42.8830   20.3760   36.0140 C   0  0  0  0  0  0  0  0  0  0  0  0
   42.3520   20.9780   34.9070 N   0  0  0  0  0  0  0  0  0  0  0  0
   40.9240   22.3700   34.2430 H   0  0  0  0  0  0  0  0  0  0  0  0
   41.1420   21.7500   38.4700 H   0  0  0  0  0  0  0  0  0  0  0  0
   43.6780   19.6560   35.8280 H   0  0  0  0  0  0  0  0  0  0  0  0
   37.1970   27.1270   33.5550 C   0  0  0  0  0  0  0  0  0  0  0  0
   36.9790   26.6100   32.2920 C   0  0  0  0  0  0  0  0  0  0  0  0
   36.0220   27.3760   31.6990 N   0  0  0  0  0  0  0  0  0  0  0  0
   35.6470   28.3480   32.5630 C   0  0  0  0  0  0  0  0  0  0  0  0
   36.3660   28.1930   33.6930 N   0  0  0  0  0  0  0  0  0  0  0  0
   37.4880   25.7510   31.8690 H   0  0  0  0  0  0  0  0  0  0  0  0
   35.6440   27.2320   30.7360 H   0  0  0  0  0  0  0  0  0  0  0  0
   34.6200   29.4050   32.3190 C   0  0  0  0  0  0  0  0  0  0  0  0
   33.3240   29.2980   32.8770 C   0  0  0  0  0  0  0  0  0  0  0  0
   32.4950   30.8150   32.2730 S   0  0  0  0  0  0  0  0  0  0  0  0
   34.0670   31.3350   31.3620 C   0  0  0  0  0  0  0  0  0  0  0  0
   34.7760   30.4900   31.6030 N   0  0  0  0  0  0  0  0  0  0  0  0
   32.9670   28.4800   33.5070 H   0  0  0  0  0  0  0  0  0  0  0  0
   34.2450   32.6080   30.5240 C   0  0  0  0  0  3  0  0  0  0  0  0
   34.0210   33.8090   31.4150 C   0  0  0  0  0  2  0  0  0  0  0  0
   34.9200   34.8640   30.8590 C   0  0  0  0  0  2  0  0  0  0  0  0
   35.9740   34.1610   30.0200 C   0  0  0  0  0  2  0  0  0  0  0  0
   35.6710   32.6770   30.0950 C   0  0  0  0  0  2  0  0  0  0  0  0
  1  2  1  0  0  0  0
  1  4  1  1  0  0  0
  1 11  1  0  0  0  0
  2  5  1  0  0  0  0
  2  6  1  0  0  0  0
  3  7  1  6  0  0  0
  3  1  1  0  0  0  0
  3  2  1  0  0  0  0
  8  9  1  0  0  0  0
  9 13  1  0  0  0  0
 10  9  2  0  0  0  0
 10 14  1  0  0  0  0
 11 10  1  0  0  0  0
 12 11  1  0  0  0  0
 12  8  2  0  0  0  0
 15 16  1  0  0  0  0
 16  8  1  0  0  0  0
 16 17  2  0  0  0  0
 17 22  1  0  0  0  0
 18 17  1  0  0  0  0
 19 18  2  0  0  0  0
 20 15  2  0  0  0  0
 20 19  1  0  0  0  0
 21 15  1  0  0  0  0
 23 19  1  0  0  0  0
 24 28  1  0  0  0  0
 24  3  1  0  0  0  0
 25 24  2  0  0  0  0
 26 25  1  0  0  0  0
 26 27  1  0  0  0  0
 27 28  2  0  0  0  0
 29 25  1  0  0  0  0
 30 26  1  0  0  0  0
 31 27  1  0  0  0  0
 31 32  2  0  0  0  0
 32 36  1  0  0  0  0
 33 32  1  0  0  0  0
 34 35  2  0  0  0  0
 34 33  1  0  0  0  0
 35 31  1  0  0  0  0
 37 34  1  0  0  0  0
 37 38  1  0  0  0  0
 39 38  1  0  0  0  0
 40 41  1  0  0  0  0
 40 39  1  0  0  0  0
 41 37  1  0  0  0  0
M  END
>  <minimizedAffinity>
-5.65336275

$$$$
