
 OpenBabel03262523523D

 32 34  0  0  1  0  0  0  0  0999 V2000
   36.7460   27.1450   31.4490 N   0  0  0  0  0  0  0  0  0  0  0  0
   36.6410   27.9930   30.2840 C   0  0  0  0  0  0  0  0  0  0  0  0
   36.7480   29.4340   30.6630 C   0  0  0  0  0  0  0  0  0  0  0  0
   35.6800   29.6480   31.7390 C   0  0  0  0  0  0  0  0  0  0  0  0
   36.1570   28.9910   32.9850 C   0  0  0  0  0  0  0  0  0  0  0  0
   37.0530   27.8310   32.6330 C   0  0  1  0  0  0  0  0  0  0  0  0
   37.3770   27.6980   29.4900 H   0  0  0  0  0  0  0  0  0  0  0  0
   35.6380   27.8460   29.8340 H   0  0  0  0  0  0  0  0  0  0  0  0
   37.7270   29.7720   31.0080 H   0  0  0  0  0  0  0  0  0  0  0  0
   36.5100   30.0330   29.7550 H   0  0  0  0  0  0  0  0  0  0  0  0
   35.5760   30.7450   31.8210 H   0  0  0  0  0  0  0  0  0  0  0  0
   34.7200   29.2620   31.3590 H   0  0  0  0  0  0  0  0  0  0  0  0
   36.7150   29.7510   33.5730 H   0  0  0  0  0  0  0  0  0  0  0  0
   35.2700   28.6150   33.5630 H   0  0  0  0  0  0  0  0  0  0  0  0
   38.0490   28.3440   32.4230 H   0  0  0  0  0  0  0  0  0  0  0  0
   37.3520   26.9490   33.8030 C   0  0  0  0  0  3  0  0  0  0  0  0
   37.3310   27.7150   35.1150 C   0  0  0  0  0  2  0  0  0  0  0  0
   38.4450   27.0730   35.9520 C   0  0  0  0  0  2  0  0  0  0  0  0
   39.5330   27.0110   34.8790 C   0  0  0  0  0  2  0  0  0  0  0  0
   38.7720   26.4290   33.7150 C   0  0  0  0  0  2  0  0  0  0  0  0
   35.7830   26.0990   31.4630 C   0  0  0  0  0  0  0  0  0  0  0  0
   35.0900   26.2750   30.5870 H   0  0  0  0  0  0  0  0  0  0  0  0
   35.0900   26.1080   32.3310 H   0  0  0  0  0  0  0  0  0  0  0  0
   36.3960   24.7900   31.2250 C   0  0  0  0  0  0  0  0  0  0  0  0
   35.6410   23.6570   31.4840 C   0  0  0  0  0  0  0  0  0  0  0  0
   36.1600   22.3850   31.2720 C   0  0  0  0  0  0  0  0  0  0  0  0
   37.4320   22.2980   30.8050 N   0  0  0  0  0  0  0  0  0  0  0  0
   38.1670   23.3940   30.5540 C   0  0  0  0  0  0  0  0  0  0  0  0
   37.6420   24.5960   30.7650 N   0  0  0  0  0  0  0  0  0  0  0  0
   34.6290   23.7300   31.8560 H   0  0  0  0  0  0  0  0  0  0  0  0
   35.6060   21.4660   31.4590 H   0  0  0  0  0  0  0  0  0  0  0  0
   39.1820   23.4020   30.1820 H   0  0  0  0  0  0  0  0  0  0  0  0
  1 21  1  0  0  0  0
  1  6  1  0  0  0  0
  2  3  1  0  0  0  0
  2  1  1  0  0  0  0
  3  9  1  0  0  0  0
  3  4  1  0  0  0  0
  4 11  1  0  0  0  0
  4  5  1  0  0  0  0
  5 14  1  0  0  0  0
  5 13  1  0  0  0  0
  6 15  1  6  0  0  0
  6  5  1  0  0  0  0
  6 16  1  0  0  0  0
  7  2  1  0  0  0  0
  8  2  1  0  0  0  0
 10  3  1  0  0  0  0
 12  4  1  0  0  0  0
 16 17  1  0  0  0  0
 17 18  1  0  0  0  0
 19 18  1  0  0  0  0
 20 16  1  0  0  0  0
 20 19  1  0  0  0  0
 21 23  1  0  0  0  0
 22 21  1  0  0  0  0
 24 21  1  0  0  0  0
 24 25  1  0  0  0  0
 25 30  1  0  0  0  0
 26 31  1  0  0  0  0
 26 25  2  0  0  0  0
 27 26  1  0  0  0  0
 28 29  1  0  0  0  0
 28 27  2  0  0  0  0
 29 24  2  0  0  0  0
 32 28  1  0  0  0  0
M  END
>  <minimizedAffinity>
-5.00619888

$$$$

 OpenBabel03262523523D

 32 34  0  0  1  0  0  0  0  0999 V2000
   39.5050   26.1390   34.5450 N   0  0  0  0  0  0  0  0  0  0  0  0
   40.9250   26.2940   34.7630 C   0  0  0  0  0  0  0  0  0  0  0  0
   41.5060   27.2850   33.8080 C   0  0  0  0  0  0  0  0  0  0  0  0
   41.0960   26.7910   32.4170 C   0  0  0  0  0  0  0  0  0  0  0  0
   39.6420   27.0580   32.2540 C   0  0  0  0  0  0  0  0  0  0  0  0
   38.9690   27.0280   33.6030 C   0  0  1  0  0  0  0  0  0  0  0  0
   41.1550   26.5380   35.8340 H   0  0  0  0  0  0  0  0  0  0  0  0
   41.4170   25.3190   34.5640 H   0  0  0  0  0  0  0  0  0  0  0  0
   41.2160   28.3270   33.9570 H   0  0  0  0  0  0  0  0  0  0  0  0
   42.6120   27.2460   33.9230 H   0  0  0  0  0  0  0  0  0  0  0  0
   41.7380   27.3560   31.7160 H   0  0  0  0  0  0  0  0  0  0  0  0
   41.3770   25.7300   32.3270 H   0  0  0  0  0  0  0  0  0  0  0  0
   39.5350   28.0610   31.7870 H   0  0  0  0  0  0  0  0  0  0  0  0
   39.1950   26.2650   31.5960 H   0  0  0  0  0  0  0  0  0  0  0  0
   39.1970   28.0650   34.0160 H   0  0  0  0  0  0  0  0  0  0  0  0
   37.4760   27.0090   33.5090 C   0  0  0  0  0  3  0  0  0  0  0  0
   36.9650   27.8680   32.3650 C   0  0  0  0  0  2  0  0  0  0  0  0
   35.6650   28.4840   32.8980 C   0  0  0  0  0  2  0  0  0  0  0  0
   36.1590   28.9020   34.2840 C   0  0  0  0  0  2  0  0  0  0  0  0
   36.8680   27.6510   34.7380 C   0  0  0  0  0  2  0  0  0  0  0  0
   39.0850   24.7810   34.5610 C   0  0  0  0  0  0  0  0  0  0  0  0
   39.8770   24.1830   34.0190 H   0  0  0  0  0  0  0  0  0  0  0  0
   38.1670   24.5640   33.9740 H   0  0  0  0  0  0  0  0  0  0  0  0
   39.0430   24.2390   35.9220 C   0  0  0  0  0  0  0  0  0  0  0  0
   38.0840   24.7310   36.7930 C   0  0  0  0  0  0  0  0  0  0  0  0
   37.9840   24.2530   38.0950 C   0  0  0  0  0  0  0  0  0  0  0  0
   38.8620   23.2900   38.4760 N   0  0  0  0  0  0  0  0  0  0  0  0
   39.7940   22.8120   37.6350 C   0  0  0  0  0  0  0  0  0  0  0  0
   39.8620   23.2880   36.3960 N   0  0  0  0  0  0  0  0  0  0  0  0
   37.3870   25.4970   36.4860 H   0  0  0  0  0  0  0  0  0  0  0  0
   37.2480   24.6070   38.8150 H   0  0  0  0  0  0  0  0  0  0  0  0
   40.5220   22.0480   37.8680 H   0  0  0  0  0  0  0  0  0  0  0  0
  1 21  1  0  0  0  0
  1  2  1  0  0  0  0
  2  7  1  0  0  0  0
  3 10  1  0  0  0  0
  3  9  1  0  0  0  0
  3  2  1  0  0  0  0
  4  3  1  0  0  0  0
  5  4  1  0  0  0  0
  5  6  1  0  0  0  0
  6 15  1  1  0  0  0
  6  1  1  0  0  0  0
  8  2  1  0  0  0  0
 11  4  1  0  0  0  0
 12  4  1  0  0  0  0
 13  5  1  0  0  0  0
 14  5  1  0  0  0  0
 16  6  1  0  0  0  0
 16 20  1  0  0  0  0
 17 18  1  0  0  0  0
 17 16  1  0  0  0  0
 18 19  1  0  0  0  0
 19 20  1  0  0  0  0
 21 24  1  0  0  0  0
 22 21  1  0  0  0  0
 23 21  1  0  0  0  0
 24 29  2  0  0  0  0
 24 25  1  0  0  0  0
 25 26  2  0  0  0  0
 26 27  1  0  0  0  0
 26 31  1  0  0  0  0
 28 32  1  0  0  0  0
 28 27  2  0  0  0  0
 29 28  1  0  0  0  0
 30 25  1  0  0  0  0
M  END
>  <minimizedAffinity>
-5.00459099

$$$$

 OpenBabel03262523523D

 32 34  0  0  1  0  0  0  0  0999 V2000
   39.4900   26.1670   34.5550 N   0  0  0  0  0  0  0  0  0  0  0  0
   40.9120   26.3240   34.7510 C   0  0  0  0  0  0  0  0  0  0  0  0
   41.4790   27.3060   33.7770 C   0  0  0  0  0  0  0  0  0  0  0  0
   41.0500   26.7990   32.3980 C   0  0  0  0  0  0  0  0  0  0  0  0
   39.5930   27.0630   32.2530 C   0  0  0  0  0  0  0  0  0  0  0  0
   38.9390   27.0460   33.6120 C   0  0  1  0  0  0  0  0  0  0  0  0
   41.1590   26.5790   35.8160 H   0  0  0  0  0  0  0  0  0  0  0  0
   41.4020   25.3480   34.5540 H   0  0  0  0  0  0  0  0  0  0  0  0
   41.1910   28.3500   33.9200 H   0  0  0  0  0  0  0  0  0  0  0  0
   42.5870   27.2690   33.8770 H   0  0  0  0  0  0  0  0  0  0  0  0
   41.6800   27.3560   31.6820 H   0  0  0  0  0  0  0  0  0  0  0  0
   41.3290   25.7360   32.3140 H   0  0  0  0  0  0  0  0  0  0  0  0
   39.4790   28.0610   31.7770 H   0  0  0  0  0  0  0  0  0  0  0  0
   39.1370   26.2630   31.6100 H   0  0  0  0  0  0  0  0  0  0  0  0
   39.1730   28.0870   34.0110 H   0  0  0  0  0  0  0  0  0  0  0  0
   37.4460   27.0250   33.5400 C   0  0  0  0  0  3  0  0  0  0  0  0
   36.9180   27.8680   32.3910 C   0  0  0  0  0  2  0  0  0  0  0  0
   35.6250   28.4910   32.9340 C   0  0  0  0  0  2  0  0  0  0  0  0
   36.1390   28.9290   34.3060 C   0  0  0  0  0  2  0  0  0  0  0  0
   36.8550   27.6850   34.7690 C   0  0  0  0  0  2  0  0  0  0  0  0
   39.0720   24.8090   34.5910 C   0  0  0  0  0  0  0  0  0  0  0  0
   39.8950   24.1950   34.1180 H   0  0  0  0  0  0  0  0  0  0  0  0
   38.1910   24.5700   33.9560 H   0  0  0  0  0  0  0  0  0  0  0  0
   38.9460   24.3120   35.9640 C   0  0  0  0  0  0  0  0  0  0  0  0
   39.8050   23.3060   36.3760 C   0  0  0  0  0  0  0  0  0  0  0  0
   39.7450   22.7960   37.6690 C   0  0  0  0  0  0  0  0  0  0  0  0
   38.8130   23.3210   38.5050 N   0  0  0  0  0  0  0  0  0  0  0  0
   37.9780   24.2960   38.1070 C   0  0  0  0  0  0  0  0  0  0  0  0
   38.0620   24.7630   36.8660 N   0  0  0  0  0  0  0  0  0  0  0  0
   40.5460   22.8900   35.7080 H   0  0  0  0  0  0  0  0  0  0  0  0
   40.3980   22.0070   38.0390 H   0  0  0  0  0  0  0  0  0  0  0  0
   37.2150   24.7600   38.7160 H   0  0  0  0  0  0  0  0  0  0  0  0
  1 21  1  0  0  0  0
  1  2  1  0  0  0  0
  2  7  1  0  0  0  0
  3 10  1  0  0  0  0
  3  9  1  0  0  0  0
  3  2  1  0  0  0  0
  4  3  1  0  0  0  0
  5  4  1  0  0  0  0
  5  6  1  0  0  0  0
  6 15  1  1  0  0  0
  6  1  1  0  0  0  0
  8  2  1  0  0  0  0
 11  4  1  0  0  0  0
 12  4  1  0  0  0  0
 13  5  1  0  0  0  0
 14  5  1  0  0  0  0
 16  6  1  0  0  0  0
 16 20  1  0  0  0  0
 17 18  1  0  0  0  0
 17 16  1  0  0  0  0
 18 19  1  0  0  0  0
 19 20  1  0  0  0  0
 21 24  1  0  0  0  0
 22 21  1  0  0  0  0
 23 21  1  0  0  0  0
 24 25  2  0  0  0  0
 24 29  1  0  0  0  0
 25 26  1  0  0  0  0
 26 31  1  0  0  0  0
 26 27  2  0  0  0  0
 28 27  1  0  0  0  0
 28 32  1  0  0  0  0
 29 28  2  0  0  0  0
 30 25  1  0  0  0  0
M  END
>  <minimizedAffinity>
-4.96628904

$$$$

 OpenBabel03262523523D

 32 34  0  0  1  0  0  0  0  0999 V2000
   38.5950   23.1520   35.9590 N   0  0  0  0  0  0  0  0  0  0  0  0
   37.5520   23.9540   36.5560 C   0  0  0  0  0  0  0  0  0  0  0  0
   38.0160   24.5640   37.8380 C   0  0  0  0  0  0  0  0  0  0  0  0
   38.5190   23.3900   38.6840 C   0  0  0  0  0  0  0  0  0  0  0  0
   39.8090   22.9350   38.1010 C   0  0  0  0  0  0  0  0  0  0  0  0
   39.8270   23.2270   36.6220 C   0  0  1  0  0  0  0  0  0  0  0  0
   37.1500   24.7140   35.8350 H   0  0  0  0  0  0  0  0  0  0  0  0
   36.6960   23.2900   36.8000 H   0  0  0  0  0  0  0  0  0  0  0  0
   38.7770   25.3430   37.7550 H   0  0  0  0  0  0  0  0  0  0  0  0
   37.1320   25.0380   38.3190 H   0  0  0  0  0  0  0  0  0  0  0  0
   38.6070   23.7960   39.7080 H   0  0  0  0  0  0  0  0  0  0  0  0
   37.7340   22.6170   38.7100 H   0  0  0  0  0  0  0  0  0  0  0  0
   40.6240   23.4860   38.6180 H   0  0  0  0  0  0  0  0  0  0  0  0
   39.9150   21.8280   38.2640 H   0  0  0  0  0  0  0  0  0  0  0  0
   40.1080   24.3310   36.5930 H   0  0  0  0  0  0  0  0  0  0  0  0
   40.9590   22.5580   35.9090 C   0  0  0  0  0  3  0  0  0  0  0  0
   41.6360   21.5070   36.7720 C   0  0  0  0  0  2  0  0  0  0  0  0
   43.1220   21.6050   36.4030 C   0  0  0  0  0  2  0  0  0  0  0  0
   43.2660   23.1270   36.4320 C   0  0  0  0  0  2  0  0  0  0  0  0
   42.0630   23.5570   35.6310 C   0  0  0  0  0  2  0  0  0  0  0  0
   38.1240   21.9020   35.4730 C   0  0  0  0  0  0  0  0  0  0  0  0
   37.3090   21.5570   36.1760 H   0  0  0  0  0  0  0  0  0  0  0  0
   38.8590   21.0700   35.5210 H   0  0  0  0  0  0  0  0  0  0  0  0
   37.4840   22.0330   34.1610 C   0  0  0  0  0  0  0  0  0  0  0  0
   36.3930   21.2260   33.8810 C   0  0  0  0  0  0  0  0  0  0  0  0
   35.7350   21.3060   32.6590 C   0  0  0  0  0  0  0  0  0  0  0  0
   36.2050   22.2020   31.7540 N   0  0  0  0  0  0  0  0  0  0  0  0
   37.2630   22.9850   32.0210 C   0  0  0  0  0  0  0  0  0  0  0  0
   37.8690   22.8860   33.2000 N   0  0  0  0  0  0  0  0  0  0  0  0
   36.0220   20.5130   34.6040 H   0  0  0  0  0  0  0  0  0  0  0  0
   34.8740   20.6930   32.3940 H   0  0  0  0  0  0  0  0  0  0  0  0
   37.6900   23.7180   31.3520 H   0  0  0  0  0  0  0  0  0  0  0  0
  1  2  1  0  0  0  0
  1  6  1  0  0  0  0
  2  8  1  0  0  0  0
  2  3  1  0  0  0  0
  3 10  1  0  0  0  0
  3  4  1  0  0  0  0
  4 12  1  0  0  0  0
  4 11  1  0  0  0  0
  5 14  1  0  0  0  0
  5 13  1  0  0  0  0
  5  4  1  0  0  0  0
  6 15  1  6  0  0  0
  6  5  1  0  0  0  0
  7  2  1  0  0  0  0
  9  3  1  0  0  0  0
 16  6  1  0  0  0  0
 16 17  1  0  0  0  0
 18 19  1  0  0  0  0
 18 17  1  0  0  0  0
 20 16  1  0  0  0  0
 20 19  1  0  0  0  0
 21 23  1  0  0  0  0
 21  1  1  0  0  0  0
 21 22  1  0  0  0  0
 24 21  1  0  0  0  0
 25 24  1  0  0  0  0
 25 30  1  0  0  0  0
 26 25  2  0  0  0  0
 27 28  2  0  0  0  0
 27 26  1  0  0  0  0
 28 29  1  0  0  0  0
 29 24  2  0  0  0  0
 31 26  1  0  0  0  0
 32 28  1  0  0  0  0
M  END
>  <minimizedAffinity>
-4.79024696

$$$$

 OpenBabel03262523523D

 32 34  0  0  1  0  0  0  0  0999 V2000
   36.1460   26.6370   31.6330 N   0  0  0  0  0  0  0  0  0  0  0  0
   35.2420   25.6970   31.0100 C   0  0  0  0  0  0  0  0  0  0  0  0
   35.6090   24.2920   31.3600 C   0  0  0  0  0  0  0  0  0  0  0  0
   37.0840   24.1530   30.9720 C   0  0  0  0  0  0  0  0  0  0  0  0
   37.8860   24.9120   31.9680 C   0  0  0  0  0  0  0  0  0  0  0  0
   37.0630   26.0510   32.5160 C   0  0  1  0  0  0  0  0  0  0  0  0
   34.1700   25.9360   31.2430 H   0  0  0  0  0  0  0  0  0  0  0  0
   35.3390   25.7970   29.9090 H   0  0  0  0  0  0  0  0  0  0  0  0
   35.4450   23.9930   32.3970 H   0  0  0  0  0  0  0  0  0  0  0  0
   34.9790   23.6200   30.7360 H   0  0  0  0  0  0  0  0  0  0  0  0
   37.2770   23.0640   30.9760 H   0  0  0  0  0  0  0  0  0  0  0  0
   37.2050   24.4970   29.9320 H   0  0  0  0  0  0  0  0  0  0  0  0
   38.1680   24.2080   32.7800 H   0  0  0  0  0  0  0  0  0  0  0  0
   38.8020   25.3240   31.4640 H   0  0  0  0  0  0  0  0  0  0  0  0
   36.4210   25.5340   33.3040 H   0  0  0  0  0  0  0  0  0  0  0  0
   37.8730   27.0260   33.3090 C   0  0  0  0  0  3  0  0  0  0  0  0
   39.1810   26.4230   33.7930 C   0  0  0  0  0  2  0  0  0  0  0  0
   39.3990   27.0400   35.1800 C   0  0  0  0  0  2  0  0  0  0  0  0
   37.9840   26.8660   35.7350 C   0  0  0  0  0  2  0  0  0  0  0  0
   37.1490   27.3850   34.5910 C   0  0  0  0  0  2  0  0  0  0  0  0
   36.5670   27.6690   30.7520 C   0  0  0  0  0  0  0  0  0  0  0  0
   36.1520   27.4230   29.7290 H   0  0  0  0  0  0  0  0  0  0  0  0
   37.6620   27.7150   30.5690 H   0  0  0  0  0  0  0  0  0  0  0  0
   35.9860   28.9650   31.1120 C   0  0  0  0  0  0  0  0  0  0  0  0
   36.4050   30.0870   30.4150 C   0  0  0  0  0  0  0  0  0  0  0  0
   35.8870   31.3450   30.7010 C   0  0  0  0  0  0  0  0  0  0  0  0
   34.9600   31.4290   31.6890 N   0  0  0  0  0  0  0  0  0  0  0  0
   34.5520   30.3440   32.3680 C   0  0  0  0  0  0  0  0  0  0  0  0
   35.0650   29.1550   32.0690 N   0  0  0  0  0  0  0  0  0  0  0  0
   37.1440   30.0160   29.6290 H   0  0  0  0  0  0  0  0  0  0  0  0
   36.1840   32.2550   30.1810 H   0  0  0  0  0  0  0  0  0  0  0  0
   33.8200   30.3350   33.1630 H   0  0  0  0  0  0  0  0  0  0  0  0
  1  6  1  0  0  0  0
  2  7  1  0  0  0  0
  2  3  1  0  0  0  0
  2  1  1  0  0  0  0
  3  9  1  0  0  0  0
  4 11  1  0  0  0  0
  4  3  1  0  0  0  0
  4  5  1  0  0  0  0
  5  6  1  0  0  0  0
  5 13  1  0  0  0  0
  6 15  1  1  0  0  0
  6 16  1  0  0  0  0
  8  2  1  0  0  0  0
 10  3  1  0  0  0  0
 12  4  1  0  0  0  0
 14  5  1  0  0  0  0
 16 17  1  0  0  0  0
 16 20  1  0  0  0  0
 17 18  1  0  0  0  0
 18 19  1  0  0  0  0
 20 19  1  0  0  0  0
 21 24  1  0  0  0  0
 21  1  1  0  0  0  0
 22 21  1  0  0  0  0
 23 21  1  0  0  0  0
 24 29  1  0  0  0  0
 25 26  1  0  0  0  0
 25 24  2  0  0  0  0
 26 27  2  0  0  0  0
 27 28  1  0  0  0  0
 28 32  1  0  0  0  0
 29 28  2  0  0  0  0
 30 25  1  0  0  0  0
 31 26  1  0  0  0  0
M  END
>  <minimizedAffinity>
-4.70775366

$$$$

 OpenBabel03262523523D

 32 34  0  0  1  0  0  0  0  0999 V2000
   37.6910   23.0870   33.4460 N   0  0  0  0  0  0  0  0  0  0  0  0
   37.8100   24.4720   33.0520 C   0  0  0  0  0  0  0  0  0  0  0  0
   37.2450   24.6880   31.6860 C   0  0  0  0  0  0  0  0  0  0  0  0
   37.9640   23.6770   30.7880 C   0  0  0  0  0  0  0  0  0  0  0  0
   37.4270   22.3280   31.1080 C   0  0  0  0  0  0  0  0  0  0  0  0
   36.9680   22.2940   32.5430 C   0  0  1  0  0  0  0  0  0  0  0  0
   37.3660   25.1600   33.8190 H   0  0  0  0  0  0  0  0  0  0  0  0
   38.8890   24.7300   33.0050 H   0  0  0  0  0  0  0  0  0  0  0  0
   36.1610   24.5970   31.5920 H   0  0  0  0  0  0  0  0  0  0  0  0
   37.5010   25.7280   31.3820 H   0  0  0  0  0  0  0  0  0  0  0  0
   37.7510   24.0130   29.7570 H   0  0  0  0  0  0  0  0  0  0  0  0
   39.0500   23.7830   30.9430 H   0  0  0  0  0  0  0  0  0  0  0  0
   36.5740   22.1340   30.4210 H   0  0  0  0  0  0  0  0  0  0  0  0
   38.2380   21.5650   30.9570 H   0  0  0  0  0  0  0  0  0  0  0  0
   35.9400   22.7810   32.4850 H   0  0  0  0  0  0  0  0  0  0  0  0
   36.6740   20.9100   33.0290 C   0  0  0  0  0  3  0  0  0  0  0  0
   37.0860   19.8510   32.0200 C   0  0  0  0  0  2  0  0  0  0  0  0
   36.0090   18.7650   32.1430 C   0  0  0  0  0  2  0  0  0  0  0  0
   34.7730   19.6660   32.1580 C   0  0  0  0  0  2  0  0  0  0  0  0
   35.1790   20.7120   33.1660 C   0  0  0  0  0  2  0  0  0  0  0  0
   38.8720   22.5790   34.0510 C   0  0  0  0  0  0  0  0  0  0  0  0
   39.7360   23.1990   33.6670 H   0  0  0  0  0  0  0  0  0  0  0  0
   39.1540   21.5480   33.7440 H   0  0  0  0  0  0  0  0  0  0  0  0
   38.8660   22.7680   35.5040 C   0  0  0  0  0  0  0  0  0  0  0  0
   40.0210   22.4680   36.2090 C   0  0  0  0  0  0  0  0  0  0  0  0
   40.0840   22.6340   37.5880 C   0  0  0  0  0  0  0  0  0  0  0  0
   38.9720   23.0970   38.2130 N   0  0  0  0  0  0  0  0  0  0  0  0
   37.8500   23.3880   37.5340 C   0  0  0  0  0  0  0  0  0  0  0  0
   37.8220   23.2200   36.2150 N   0  0  0  0  0  0  0  0  0  0  0  0
   40.9050   22.0990   35.7070 H   0  0  0  0  0  0  0  0  0  0  0  0
   40.9690   22.4130   38.1840 H   0  0  0  0  0  0  0  0  0  0  0  0
   36.9300   23.7590   37.9630 H   0  0  0  0  0  0  0  0  0  0  0  0
  1 21  1  0  0  0  0
  2  1  1  0  0  0  0
  2  7  1  0  0  0  0
  3  2  1  0  0  0  0
  4 12  1  0  0  0  0
  4  5  1  0  0  0  0
  4  3  1  0  0  0  0
  5  6  1  0  0  0  0
  6 15  1  6  0  0  0
  6 16  1  0  0  0  0
  6  1  1  0  0  0  0
  8  2  1  0  0  0  0
  9  3  1  0  0  0  0
 10  3  1  0  0  0  0
 11  4  1  0  0  0  0
 13  5  1  0  0  0  0
 14  5  1  0  0  0  0
 16 20  1  0  0  0  0
 17 18  1  0  0  0  0
 17 16  1  0  0  0  0
 18 19  1  0  0  0  0
 19 20  1  0  0  0  0
 21 24  1  0  0  0  0
 22 21  1  0  0  0  0
 23 21  1  0  0  0  0
 24 25  2  0  0  0  0
 24 29  1  0  0  0  0
 25 26  1  0  0  0  0
 26 31  1  0  0  0  0
 26 27  2  0  0  0  0
 28 32  1  0  0  0  0
 28 27  1  0  0  0  0
 29 28  2  0  0  0  0
 30 25  1  0  0  0  0
M  END
>  <minimizedAffinity>
-4.66070032

$$$$

 OpenBabel03262523523D

 32 34  0  0  1  0  0  0  0  0999 V2000
   38.9670   24.4970   33.6440 N   0  0  0  0  0  0  0  0  0  0  0  0
   39.8810   25.1460   32.7330 C   0  0  0  0  0  0  0  0  0  0  0  0
   40.7840   26.0870   33.4630 C   0  0  0  0  0  0  0  0  0  0  0  0
   39.8500   27.0170   34.2430 C   0  0  0  0  0  0  0  0  0  0  0  0
   39.2780   26.2380   35.3730 C   0  0  0  0  0  0  0  0  0  0  0  0
   39.2080   24.7790   34.9960 C   0  0  1  0  0  0  0  0  0  0  0  0
   40.4440   24.4010   32.1100 H   0  0  0  0  0  0  0  0  0  0  0  0
   39.2890   25.7510   32.0150 H   0  0  0  0  0  0  0  0  0  0  0  0
   41.5260   25.6320   34.1220 H   0  0  0  0  0  0  0  0  0  0  0  0
   41.3530   26.6610   32.6980 H   0  0  0  0  0  0  0  0  0  0  0  0
   40.4890   27.8620   34.5580 H   0  0  0  0  0  0  0  0  0  0  0  0
   39.1000   27.4240   33.5450 H   0  0  0  0  0  0  0  0  0  0  0  0
   39.9430   26.3830   36.2510 H   0  0  0  0  0  0  0  0  0  0  0  0
   38.2430   26.6160   35.5920 H   0  0  0  0  0  0  0  0  0  0  0  0
   40.2750   24.4250   35.1830 H   0  0  0  0  0  0  0  0  0  0  0  0
   38.3960   23.9680   35.9550 C   0  0  0  0  0  3  0  0  0  0  0  0
   38.0250   24.7560   37.2000 C   0  0  0  0  0  2  0  0  0  0  0  0
   38.0820   23.7280   38.3370 C   0  0  0  0  0  2  0  0  0  0  0  0
   39.4040   23.0520   37.9710 C   0  0  0  0  0  2  0  0  0  0  0  0
   39.2210   22.8170   36.4930 C   0  0  0  0  0  2  0  0  0  0  0  0
   37.6340   24.4510   33.1540 C   0  0  0  0  0  0  0  0  0  0  0  0
   37.5740   25.1730   32.2860 H   0  0  0  0  0  0  0  0  0  0  0  0
   36.8610   24.8390   33.8510 H   0  0  0  0  0  0  0  0  0  0  0  0
   37.3030   23.1360   32.5970 C   0  0  0  0  0  0  0  0  0  0  0  0
   36.1930   23.0350   31.7740 C   0  0  0  0  0  0  0  0  0  0  0  0
   35.8280   21.8190   31.2070 C   0  0  0  0  0  0  0  0  0  0  0  0
   36.6000   20.7390   31.4930 N   0  0  0  0  0  0  0  0  0  0  0  0
   37.6760   20.8340   32.2920 C   0  0  0  0  0  0  0  0  0  0  0  0
   38.0000   22.0110   32.8170 N   0  0  0  0  0  0  0  0  0  0  0  0
   35.5800   23.8960   31.5490 H   0  0  0  0  0  0  0  0  0  0  0  0
   34.9660   21.6900   30.5540 H   0  0  0  0  0  0  0  0  0  0  0  0
   38.3350   20.0210   32.5620 H   0  0  0  0  0  0  0  0  0  0  0  0
  1  6  1  0  0  0  0
  2  3  1  0  0  0  0
  2  1  1  0  0  0  0
  3  9  1  0  0  0  0
  3  4  1  0  0  0  0
  4 11  1  0  0  0  0
  4  5  1  0  0  0  0
  5 14  1  0  0  0  0
  5 13  1  0  0  0  0
  6 15  1  1  0  0  0
  6  5  1  0  0  0  0
  6 16  1  0  0  0  0
  7  2  1  0  0  0  0
  8  2  1  0  0  0  0
 10  3  1  0  0  0  0
 12  4  1  0  0  0  0
 16 20  1  0  0  0  0
 16 17  1  0  0  0  0
 17 18  1  0  0  0  0
 19 18  1  0  0  0  0
 20 19  1  0  0  0  0
 21  1  1  0  0  0  0
 21 23  1  0  0  0  0
 22 21  1  0  0  0  0
 24 29  1  0  0  0  0
 24 21  1  0  0  0  0
 25 24  2  0  0  0  0
 26 27  2  0  0  0  0
 26 25  1  0  0  0  0
 27 28  1  0  0  0  0
 28 32  1  0  0  0  0
 28 29  2  0  0  0  0
 30 25  1  0  0  0  0
 31 26  1  0  0  0  0
M  END
>  <minimizedAffinity>
-4.58929968

$$$$

 OpenBabel03262523523D

 32 34  0  0  1  0  0  0  0  0999 V2000
   38.7900   24.7950   33.4360 N   0  0  0  0  0  0  0  0  0  0  0  0
   39.6880   25.4390   32.5040 C   0  0  0  0  0  0  0  0  0  0  0  0
   40.7810   26.1580   33.2270 C   0  0  0  0  0  0  0  0  0  0  0  0
   40.0680   27.0870   34.2130 C   0  0  0  0  0  0  0  0  0  0  0  0
   39.5110   26.2440   35.3050 C   0  0  0  0  0  0  0  0  0  0  0  0
   39.2030   24.8670   34.7740 C   0  0  1  0  0  0  0  0  0  0  0  0
   40.0770   24.7170   31.7380 H   0  0  0  0  0  0  0  0  0  0  0  0
   39.1150   26.2000   31.9360 H   0  0  0  0  0  0  0  0  0  0  0  0
   41.5160   25.5320   33.7370 H   0  0  0  0  0  0  0  0  0  0  0  0
   41.3430   26.7510   32.4720 H   0  0  0  0  0  0  0  0  0  0  0  0
   40.8460   27.7970   34.5470 H   0  0  0  0  0  0  0  0  0  0  0  0
   39.3140   27.6710   33.6610 H   0  0  0  0  0  0  0  0  0  0  0  0
   40.2750   26.1900   36.1110 H   0  0  0  0  0  0  0  0  0  0  0  0
   38.5660   26.7160   35.6870 H   0  0  0  0  0  0  0  0  0  0  0  0
   40.2250   24.3620   34.7920 H   0  0  0  0  0  0  0  0  0  0  0  0
   38.3890   24.0450   35.7210 C   0  0  0  0  0  3  0  0  0  0  0  0
   38.0500   24.8060   36.9920 C   0  0  0  0  0  2  0  0  0  0  0  0
   38.1020   23.7460   38.1000 C   0  0  0  0  0  2  0  0  0  0  0  0
   39.4060   23.0560   37.6970 C   0  0  0  0  0  2  0  0  0  0  0  0
   39.1980   22.8640   36.2160 C   0  0  0  0  0  2  0  0  0  0  0  0
   37.4210   24.9790   33.1040 C   0  0  0  0  0  0  0  0  0  0  0  0
   36.8470   25.0360   34.0760 H   0  0  0  0  0  0  0  0  0  0  0  0
   36.9420   24.1200   32.5860 H   0  0  0  0  0  0  0  0  0  0  0  0
   37.1880   26.2610   32.4330 C   0  0  0  0  0  0  0  0  0  0  0  0
   36.7350   27.3260   33.1940 C   0  0  0  0  0  0  0  0  0  0  0  0
   36.5030   28.5710   32.6210 C   0  0  0  0  0  0  0  0  0  0  0  0
   36.7360   28.6990   31.2900 N   0  0  0  0  0  0  0  0  0  0  0  0
   37.1750   27.6690   30.5480 C   0  0  0  0  0  0  0  0  0  0  0  0
   37.3890   26.4910   31.1260 N   0  0  0  0  0  0  0  0  0  0  0  0
   36.5510   27.2200   34.2540 H   0  0  0  0  0  0  0  0  0  0  0  0
   36.1480   29.4370   33.1780 H   0  0  0  0  0  0  0  0  0  0  0  0
   37.3820   27.6970   29.4880 H   0  0  0  0  0  0  0  0  0  0  0  0
  1  6  1  0  0  0  0
  2  3  1  0  0  0  0
  2  1  1  0  0  0  0
  3  9  1  0  0  0  0
  3  4  1  0  0  0  0
  4 11  1  0  0  0  0
  4  5  1  0  0  0  0
  5 14  1  0  0  0  0
  5 13  1  0  0  0  0
  6 15  1  6  0  0  0
  6  5  1  0  0  0  0
  6 16  1  0  0  0  0
  7  2  1  0  0  0  0
  8  2  1  0  0  0  0
 10  3  1  0  0  0  0
 12  4  1  0  0  0  0
 16 20  1  0  0  0  0
 16 17  1  0  0  0  0
 17 18  1  0  0  0  0
 19 18  1  0  0  0  0
 20 19  1  0  0  0  0
 21  1  1  0  0  0  0
 21 22  1  0  0  0  0
 23 21  1  0  0  0  0
 24 21  1  0  0  0  0
 24 25  1  0  0  0  0
 25 30  1  0  0  0  0
 26 31  1  0  0  0  0
 26 25  2  0  0  0  0
 27 26  1  0  0  0  0
 28 29  1  0  0  0  0
 28 27  2  0  0  0  0
 29 24  2  0  0  0  0
 32 28  1  0  0  0  0
M  END
>  <minimizedAffinity>
-4.50867128

$$$$

 OpenBabel03262523523D

 32 34  0  0  1  0  0  0  0  0999 V2000
   37.9640   24.2710   33.8450 N   0  0  0  0  0  0  0  0  0  0  0  0
   37.3590   23.6710   32.6780 C   0  0  0  0  0  0  0  0  0  0  0  0
   37.5270   22.1870   32.6950 C   0  0  0  0  0  0  0  0  0  0  0  0
   39.0310   21.9530   32.8580 C   0  0  0  0  0  0  0  0  0  0  0  0
   39.3900   22.2950   34.2610 C   0  0  0  0  0  0  0  0  0  0  0  0
   38.4440   23.3460   34.7830 C   0  0  1  0  0  0  0  0  0  0  0  0
   36.2890   23.9850   32.5590 H   0  0  0  0  0  0  0  0  0  0  0  0
   37.8860   24.0510   31.7780 H   0  0  0  0  0  0  0  0  0  0  0  0
   36.9590   21.6450   33.4540 H   0  0  0  0  0  0  0  0  0  0  0  0
   37.1790   21.8030   31.7090 H   0  0  0  0  0  0  0  0  0  0  0  0
   39.1820   20.8880   32.6030 H   0  0  0  0  0  0  0  0  0  0  0  0
   39.5620   22.5450   32.0960 H   0  0  0  0  0  0  0  0  0  0  0  0
   39.3130   21.3650   34.8640 H   0  0  0  0  0  0  0  0  0  0  0  0
   40.4400   22.6950   34.2830 H   0  0  0  0  0  0  0  0  0  0  0  0
   37.5320   22.7300   35.0790 H   0  0  0  0  0  0  0  0  0  0  0  0
   38.8960   23.9470   36.0750 C   0  0  0  0  0  3  0  0  0  0  0  0
   39.6640   22.9530   36.9300 C   0  0  0  0  0  2  0  0  0  0  0  0
   39.2550   23.2900   38.3700 C   0  0  0  0  0  2  0  0  0  0  0  0
   37.7470   23.4280   38.1560 C   0  0  0  0  0  2  0  0  0  0  0  0
   37.6990   24.3060   36.9310 C   0  0  0  0  0  2  0  0  0  0  0  0
   38.7230   25.4340   33.5420 C   0  0  0  0  0  0  0  0  0  0  0  0
   39.2120   25.2590   32.5380 H   0  0  0  0  0  0  0  0  0  0  0  0
   39.5920   25.6180   34.2100 H   0  0  0  0  0  0  0  0  0  0  0  0
   37.8690   26.6120   33.3650 C   0  0  0  0  0  0  0  0  0  0  0  0
   37.1880   27.0980   34.4690 C   0  0  0  0  0  0  0  0  0  0  0  0
   36.3680   28.2170   34.3710 C   0  0  0  0  0  0  0  0  0  0  0  0
   36.2630   28.8100   33.1540 N   0  0  0  0  0  0  0  0  0  0  0  0
   36.9210   28.3410   32.0820 C   0  0  0  0  0  0  0  0  0  0  0  0
   37.6980   27.2700   32.2080 N   0  0  0  0  0  0  0  0  0  0  0  0
   37.2740   26.6240   35.4360 H   0  0  0  0  0  0  0  0  0  0  0  0
   35.8130   28.6370   35.2100 H   0  0  0  0  0  0  0  0  0  0  0  0
   36.8860   28.7600   31.0860 H   0  0  0  0  0  0  0  0  0  0  0  0
  1  6  1  0  0  0  0
  2  3  1  0  0  0  0
  2  1  1  0  0  0  0
  3  4  1  0  0  0  0
  3  9  1  0  0  0  0
  4  5  1  0  0  0  0
  5 14  1  0  0  0  0
  5  6  1  0  0  0  0
  5 13  1  0  0  0  0
  6 15  1  1  0  0  0
  6 16  1  0  0  0  0
  7  2  1  0  0  0  0
  8  2  1  0  0  0  0
 10  3  1  0  0  0  0
 11  4  1  0  0  0  0
 12  4  1  0  0  0  0
 16 17  1  0  0  0  0
 16 20  1  0  0  0  0
 17 18  1  0  0  0  0
 19 18  1  0  0  0  0
 20 19  1  0  0  0  0
 21  1  1  0  0  0  0
 21 23  1  0  0  0  0
 22 21  1  0  0  0  0
 24 21  1  0  0  0  0
 24 25  1  0  0  0  0
 25 30  1  0  0  0  0
 26 25  2  0  0  0  0
 26 31  1  0  0  0  0
 27 26  1  0  0  0  0
 28 29  1  0  0  0  0
 28 27  2  0  0  0  0
 29 24  2  0  0  0  0
 32 28  1  0  0  0  0
M  END
>  <minimizedAffinity>
-4.47109938

$$$$
