
     RDKit          3D

 43 46  0  0  0  0  0  0  0  0999 V2000
   35.8161   30.5392   49.0724 C   0  0  1  0  0  0  0  0  0  0  0  0
   35.9046   29.1167   48.8392 C   0  0  1  0  0  0  0  0  0  0  0  0
   36.0715   29.5825   50.2473 C   0  0  0  0  0  0  0  0  0  0  0  0
   37.0046   31.4530   48.8259 C   0  0  0  0  0  0  0  0  0  0  0  0
   37.1874   32.5239   49.7015 C   0  0  0  0  0  0  0  0  0  0  0  0
   38.2713   33.3431   49.4186 C   0  0  0  0  0  0  0  0  0  0  0  0
   39.0851   33.0838   48.3398 N   0  0  0  0  0  0  0  0  0  0  0  0
   38.8691   32.0356   47.5204 C   0  0  0  0  0  0  0  0  0  0  0  0
   37.8158   31.2074   47.7646 N   0  0  0  0  0  0  0  0  0  0  0  0
   33.9689   29.0753   47.3752 C   0  0  2  0  0  0  0  0  0  0  0  0
   34.7402   28.2778   48.4178 C   0  0  2  0  0  0  0  0  0  0  0  0
   33.8662   28.0741   49.4426 O   0  0  0  0  0  0  0  0  0  0  0  0
   32.5777   28.1475   48.9946 C   0  0  0  0  0  0  0  0  0  0  0  0
   32.6076   28.3870   47.5009 C   0  0  1  0  0  0  0  0  0  0  0  0
   34.4751   28.9497   46.0969 O   0  0  0  0  0  0  0  0  0  0  0  0
   31.5848   29.1766   47.0642 O   0  0  0  0  0  0  0  0  0  0  0  0
   34.9177   31.1449   49.2885 H   0  0  0  0  0  0  0  0  0  0  0  0
   36.8647   28.7665   48.3616 H   0  0  0  0  0  0  0  0  0  0  0  0
   37.0805   29.5815   50.7161 H   0  0  0  0  0  0  0  0  0  0  0  0
   35.2765   29.4126   50.9917 H   0  0  0  0  0  0  0  0  0  0  0  0
   36.5332   32.6984   50.5343 H   0  0  0  0  0  0  0  0  0  0  0  0
   38.4948   34.2043   50.0464 H   0  0  0  0  0  0  0  0  0  0  0  0
   39.5379   31.8759   46.6868 H   0  0  0  0  0  0  0  0  0  0  0  0
   33.9072   30.1382   47.6233 H   0  0  0  0  0  0  0  0  0  0  0  0
   35.0331   27.3029   47.9818 H   0  0  0  0  0  0  0  0  0  0  0  0
   32.0828   27.1587   49.1616 H   0  0  0  0  0  0  0  0  0  0  0  0
   31.9327   28.8793   49.5207 H   0  0  0  0  0  0  0  0  0  0  0  0
   32.6717   27.4217   46.9426 H   0  0  0  0  0  0  0  0  0  0  0  0
   34.2755   28.0030   45.8177 H   0  0  0  0  0  0  0  0  0  0  0  0
   30.8357   28.6566   46.0419 C   0  0  0  0  0  0  0  0  0  0  0  0
   30.7952   29.6160   44.8499 C   0  0  0  0  0  0  0  0  0  0  0  0
   29.4435   30.3065   45.0075 C   0  0  0  0  0  0  0  0  0  0  0  0
   28.5848   29.0855   45.3607 C   0  0  0  0  0  0  0  0  0  0  0  0
   29.4046   28.5209   46.5255 C   0  0  0  0  0  0  0  0  0  0  0  0
   31.1331   27.6608   45.6789 H   0  0  0  0  0  0  0  0  0  0  0  0
   30.7543   29.0694   43.8836 H   0  0  0  0  0  0  0  0  0  0  0  0
   31.5466   30.4046   44.9040 H   0  0  0  0  0  0  0  0  0  0  0  0
   29.5143   30.9522   45.9035 H   0  0  0  0  0  0  0  0  0  0  0  0
   29.1264   30.8040   44.0916 H   0  0  0  0  0  0  0  0  0  0  0  0
   28.6701   28.3913   44.4993 H   0  0  0  0  0  0  0  0  0  0  0  0
   27.5668   29.3472   45.6518 H   0  0  0  0  0  0  0  0  0  0  0  0
   29.2120   29.1912   47.3889 H   0  0  0  0  0  0  0  0  0  0  0  0
   29.1208   27.4641   46.7224 H   0  0  0  0  0  0  0  0  0  0  0  0
  1  3  1  0
  2  1  1  0
  2  3  1  0
  4  1  1  0
  4  5  2  0
  6  5  1  0
  7  6  2  0
  8  9  2  0
  8  7  1  0
  9  4  1  0
 10 15  1  0
 10 14  1  0
 10 11  1  0
 11  2  1  0
 11 12  1  0
 13 12  1  0
 14 16  1  0
 14 13  1  0
  1 17  1  1
  2 18  1  6
  3 19  1  0
  3 20  1  0
  5 21  1  0
  6 22  1  0
  8 23  1  0
 10 24  1  1
 11 25  1  6
 13 26  1  0
 13 27  1  0
 14 28  1  6
 15 29  1  0
 30 31  1  0
 31 32  1  0
 32 33  1  0
 33 34  1  0
 34 30  1  0
 30 35  1  0
 31 36  1  0
 31 37  1  0
 32 38  1  0
 32 39  1  0
 33 40  1  0
 33 41  1  0
 34 42  1  0
 34 43  1  0
 16 30  1  0
M  ISO  8  17  13  18  13  19  13  20  13  21  14  22  14  23  14  24  13
M  ISO  5  25  13  26  13  27  13  28  13  29   3
M  END
>  <DihAtoms>  (1) 
13,15,29,30

>  <DihDeg>  (1) 
-124.56412659792025

$$$$
