
 OpenBabel03272503003D

 30 32  0  0  1  0  0  0  0  0999 V2000
   38.2610   22.6320   35.7620 N   0  0  0  0  0  0  0  0  0  0  0  0
   39.6890   22.4820   35.9500 C   0  0  0  0  0  0  0  0  0  0  0  0
   40.2010   22.4690   37.3210 C   0  0  0  0  0  0  0  0  0  0  0  0
   39.4250   23.1360   38.3700 C   0  0  0  0  0  0  0  0  0  0  0  0
   37.9640   23.3180   38.0430 C   0  0  0  0  0  0  0  0  0  0  0  0
   37.8130   23.7310   36.5750 C   0  0  1  0  0  0  0  0  0  0  0  0
   40.1440   23.3410   35.3780 H   0  0  0  0  0  0  0  0  0  0  0  0
   39.9930   21.5690   35.3930 H   0  0  0  0  0  0  0  0  0  0  0  0
   40.3700   21.3960   37.6120 H   0  0  0  0  0  0  0  0  0  0  0  0
   41.2340   22.9040   37.3190 H   0  0  0  0  0  0  0  0  0  0  0  0
   39.4520   22.5350   39.3270 H   0  0  0  0  0  0  0  0  0  0  0  0
   39.8700   24.1210   38.6560 H   0  0  0  0  0  0  0  0  0  0  0  0
   37.5240   24.1300   38.6700 H   0  0  0  0  0  0  0  0  0  0  0  0
   37.4130   22.3760   38.1800 H   0  0  0  0  0  0  0  0  0  0  0  0
   36.7650   23.9770   36.3950 H   0  0  0  0  0  0  0  0  0  0  0  0
   37.4580   21.8130   34.9070 C   0  0  0  0  0  0  0  0  0  0  0  0
   36.2620   21.2150   35.2940 C   0  0  0  0  0  0  0  0  0  0  0  0
   35.5730   20.4440   34.3760 C   0  0  0  0  0  0  0  0  0  0  0  0
   36.1070   20.3100   33.1280 N   0  0  0  0  0  0  0  0  0  0  0  0
   37.2700   20.9050   32.7890 C   0  0  0  0  0  0  0  0  0  0  0  0
   37.9340   21.6500   33.6800 N   0  0  0  0  0  0  0  0  0  0  0  0
   35.9190   21.3740   36.2890 H   0  0  0  0  0  0  0  0  0  0  0  0
   34.6440   19.9760   34.6710 H   0  0  0  0  0  0  0  0  0  0  0  0
   37.6460   20.7630   31.7840 H   0  0  0  0  0  0  0  0  0  0  0  0
   38.6540   24.8500   36.4230 O   0  0  0  0  0  0  0  0  0  0  0  0
   37.8780   25.8800   35.9460 C   0  0  0  0  0  3  0  0  0  0  0  0
   38.5310   27.2440   36.1040 C   0  0  0  0  0  2  0  0  0  0  0  0
   37.6380   28.1060   35.2150 C   0  0  0  0  0  2  0  0  0  0  0  0
   36.9930   27.1870   34.2260 C   0  0  0  0  0  2  0  0  0  0  0  0
   37.6580   25.8450   34.4660 C   0  0  0  0  0  2  0  0  0  0  0  0
  1  2  1  0  0  0  0
  1  6  1  0  0  0  0
  2  3  1  0  0  0  0
  3  9  1  0  0  0  0
  3  4  1  0  0  0  0
  4 12  1  0  0  0  0
  4 11  1  0  0  0  0
  5 14  1  0  0  0  0
  5  4  1  0  0  0  0
  5 13  1  0  0  0  0
  6 15  1  6  0  0  0
  6  5  1  0  0  0  0
  7  2  1  0  0  0  0
  8  2  1  0  0  0  0
 10  3  1  0  0  0  0
 16 17  1  0  0  0  0
 16  1  1  0  0  0  0
 17 22  1  0  0  0  0
 18 23  1  0  0  0  0
 18 17  2  0  0  0  0
 19 18  1  0  0  0  0
 20 19  2  0  0  0  0
 20 21  1  0  0  0  0
 21 16  2  0  0  0  0
 24 20  1  0  0  0  0
 25  6  1  0  0  0  0
 26 27  1  0  0  0  0
 26 25  1  0  0  0  0
 28 27  1  0  0  0  0
 29 30  1  0  0  0  0
 29 28  1  0  0  0  0
 30 26  1  0  0  0  0
M  END
>  <minimizedAffinity>
-5.14769125

$$$$

 OpenBabel03272503003D

 30 32  0  0  1  0  0  0  0  0999 V2000
   38.2380   25.8460   33.2870 N   0  0  0  0  0  0  0  0  0  0  0  0
   37.0010   26.5260   33.6070 C   0  0  0  0  0  0  0  0  0  0  0  0
   37.0460   27.5930   34.6080 C   0  0  0  0  0  0  0  0  0  0  0  0
   38.1130   27.5730   35.6130 C   0  0  0  0  0  0  0  0  0  0  0  0
   39.3270   26.7690   35.2170 C   0  0  0  0  0  0  0  0  0  0  0  0
   38.8830   25.4780   34.5180 C   0  0  1  0  0  0  0  0  0  0  0  0
   36.3050   25.7070   33.9510 H   0  0  0  0  0  0  0  0  0  0  0  0
   36.5720   26.8870   32.6470 H   0  0  0  0  0  0  0  0  0  0  0  0
   37.0740   28.5740   34.0600 H   0  0  0  0  0  0  0  0  0  0  0  0
   36.0620   27.6220   35.1430 H   0  0  0  0  0  0  0  0  0  0  0  0
   38.4910   28.6180   35.8120 H   0  0  0  0  0  0  0  0  0  0  0  0
   37.7420   27.2240   36.6080 H   0  0  0  0  0  0  0  0  0  0  0  0
   39.9130   26.4800   36.1210 H   0  0  0  0  0  0  0  0  0  0  0  0
   39.9520   27.3300   34.5070 H   0  0  0  0  0  0  0  0  0  0  0  0
   39.7660   24.8580   34.3530 H   0  0  0  0  0  0  0  0  0  0  0  0
   38.7130   25.5950   31.9600 C   0  0  0  0  0  0  0  0  0  0  0  0
   39.6570   26.3810   31.3060 C   0  0  0  0  0  0  0  0  0  0  0  0
   40.0380   26.0370   30.0220 C   0  0  0  0  0  0  0  0  0  0  0  0
   39.4640   24.9340   29.4600 N   0  0  0  0  0  0  0  0  0  0  0  0
   38.5520   24.1960   30.1260 C   0  0  0  0  0  0  0  0  0  0  0  0
   38.1850   24.5330   31.3690 N   0  0  0  0  0  0  0  0  0  0  0  0
   40.0540   27.2240   31.8210 H   0  0  0  0  0  0  0  0  0  0  0  0
   40.7710   26.6440   29.5080 H   0  0  0  0  0  0  0  0  0  0  0  0
   38.1290   23.3320   29.6310 H   0  0  0  0  0  0  0  0  0  0  0  0
   37.9720   24.8780   35.4080 O   0  0  0  0  0  0  0  0  0  0  0  0
   38.6960   24.4200   36.4830 C   0  0  0  0  0  3  0  0  0  0  0  0
   37.8470   24.1940   37.7250 C   0  0  0  0  0  2  0  0  0  0  0  0
   38.8080   23.3950   38.6010 C   0  0  0  0  0  2  0  0  0  0  0  0
   39.7950   22.7460   37.6840 C   0  0  0  0  0  2  0  0  0  0  0  0
   39.2780   23.0540   36.2910 C   0  0  0  0  0  2  0  0  0  0  0  0
  1  2  1  0  0  0  0
  1  6  1  0  0  0  0
  2  7  1  0  0  0  0
  2  3  1  0  0  0  0
  3 10  1  0  0  0  0
  3  4  1  0  0  0  0
  4 11  1  0  0  0  0
  4 12  1  0  0  0  0
  5  4  1  0  0  0  0
  5 13  1  0  0  0  0
  6 15  1  6  0  0  0
  6  5  1  0  0  0  0
  6 25  1  0  0  0  0
  8  2  1  0  0  0  0
  9  3  1  0  0  0  0
 14  5  1  0  0  0  0
 16  1  1  0  0  0  0
 17 22  1  0  0  0  0
 17 16  2  0  0  0  0
 18 17  1  0  0  0  0
 19 18  2  0  0  0  0
 19 20  1  0  0  0  0
 20 21  2  0  0  0  0
 21 16  1  0  0  0  0
 23 18  1  0  0  0  0
 24 20  1  0  0  0  0
 25 26  1  0  0  0  0
 26 27  1  0  0  0  0
 27 28  1  0  0  0  0
 29 28  1  0  0  0  0
 30 26  1  0  0  0  0
 30 29  1  0  0  0  0
M  END
>  <minimizedAffinity>
-4.88705778

$$$$

 OpenBabel03272503003D

 30 32  0  0  1  0  0  0  0  0999 V2000
   39.3080   24.8970   34.7690 N   0  0  0  0  0  0  0  0  0  0  0  0
   40.5490   24.7880   34.0310 C   0  0  0  0  0  0  0  0  0  0  0  0
   41.1030   26.0070   33.4400 C   0  0  0  0  0  0  0  0  0  0  0  0
   40.1930   27.1110   33.1180 C   0  0  0  0  0  0  0  0  0  0  0  0
   38.8920   27.0880   33.8810 C   0  0  0  0  0  0  0  0  0  0  0  0
   38.3750   25.6480   33.9720 C   0  0  1  0  0  0  0  0  0  0  0  0
   40.3350   24.0320   33.2220 H   0  0  0  0  0  0  0  0  0  0  0  0
   41.2820   24.2940   34.7050 H   0  0  0  0  0  0  0  0  0  0  0  0
   41.9110   26.3830   34.1250 H   0  0  0  0  0  0  0  0  0  0  0  0
   41.6600   25.7290   32.5080 H   0  0  0  0  0  0  0  0  0  0  0  0
   40.6730   28.1050   33.3610 H   0  0  0  0  0  0  0  0  0  0  0  0
   39.9840   27.1720   32.0210 H   0  0  0  0  0  0  0  0  0  0  0  0
   38.1200   27.6920   33.3480 H   0  0  0  0  0  0  0  0  0  0  0  0
   39.0360   27.4540   34.9080 H   0  0  0  0  0  0  0  0  0  0  0  0
   37.3770   25.6710   34.4160 H   0  0  0  0  0  0  0  0  0  0  0  0
   39.0760   24.3420   36.0670 C   0  0  0  0  0  0  0  0  0  0  0  0
   38.0350   24.7260   36.9070 C   0  0  0  0  0  0  0  0  0  0  0  0
   37.9130   24.1150   38.1420 C   0  0  0  0  0  0  0  0  0  0  0  0
   38.8280   23.1590   38.4730 N   0  0  0  0  0  0  0  0  0  0  0  0
   39.8250   22.8140   37.6320 C   0  0  0  0  0  0  0  0  0  0  0  0
   39.9400   23.4070   36.4380 N   0  0  0  0  0  0  0  0  0  0  0  0
   37.3650   25.4800   36.5670 H   0  0  0  0  0  0  0  0  0  0  0  0
   37.1060   24.4090   38.7990 H   0  0  0  0  0  0  0  0  0  0  0  0
   40.5230   22.0500   37.9480 H   0  0  0  0  0  0  0  0  0  0  0  0
   38.3530   25.1840   32.6440 O   0  0  0  0  0  0  0  0  0  0  0  0
   37.0650   24.7890   32.3720 C   0  0  0  0  0  3  0  0  0  0  0  0
   36.3400   25.7240   31.4170 C   0  0  0  0  0  2  0  0  0  0  0  0
   35.1210   24.8850   31.0460 C   0  0  0  0  0  2  0  0  0  0  0  0
   35.4900   23.4550   31.2810 C   0  0  0  0  0  2  0  0  0  0  0  0
   36.9670   23.4960   31.6240 C   0  0  0  0  0  2  0  0  0  0  0  0
  1 16  1  0  0  0  0
  2  8  1  0  0  0  0
  2  1  1  0  0  0  0
  3  2  1  0  0  0  0
  3  9  1  0  0  0  0
  4 11  1  0  0  0  0
  4  3  1  0  0  0  0
  4  5  1  0  0  0  0
  5  6  1  0  0  0  0
  5 14  1  0  0  0  0
  6 15  1  1  0  0  0
  6  1  1  0  0  0  0
  7  2  1  0  0  0  0
 10  3  1  0  0  0  0
 12  4  1  0  0  0  0
 13  5  1  0  0  0  0
 16 21  2  0  0  0  0
 16 17  1  0  0  0  0
 17 18  2  0  0  0  0
 18 19  1  0  0  0  0
 18 23  1  0  0  0  0
 20 24  1  0  0  0  0
 20 19  2  0  0  0  0
 21 20  1  0  0  0  0
 22 17  1  0  0  0  0
 25  6  1  0  0  0  0
 26 25  1  0  0  0  0
 27 26  1  0  0  0  0
 28 29  1  0  0  0  0
 28 27  1  0  0  0  0
 29 30  1  0  0  0  0
 30 26  1  0  0  0  0
M  END
>  <minimizedAffinity>
-4.78834534

$$$$

 OpenBabel03272503003D

 30 32  0  0  1  0  0  0  0  0999 V2000
   38.2080   24.8700   34.0950 N   0  0  0  0  0  0  0  0  0  0  0  0
   37.7210   25.8980   34.9910 C   0  0  0  0  0  0  0  0  0  0  0  0
   38.5510   27.0890   35.1810 C   0  0  0  0  0  0  0  0  0  0  0  0
   39.9950   26.9860   34.9540 C   0  0  0  0  0  0  0  0  0  0  0  0
   40.4070   25.8320   34.0730 C   0  0  0  0  0  0  0  0  0  0  0  0
   39.5790   24.5920   34.4300 C   0  0  1  0  0  0  0  0  0  0  0  0
   37.5760   25.3710   35.9780 H   0  0  0  0  0  0  0  0  0  0  0  0
   36.6970   26.1650   34.6500 H   0  0  0  0  0  0  0  0  0  0  0  0
   38.1320   27.9030   34.5280 H   0  0  0  0  0  0  0  0  0  0  0  0
   38.3860   27.4760   36.2190 H   0  0  0  0  0  0  0  0  0  0  0  0
   40.3840   27.9150   34.4430 H   0  0  0  0  0  0  0  0  0  0  0  0
   40.5660   26.9450   35.9140 H   0  0  0  0  0  0  0  0  0  0  0  0
   41.4810   25.5810   34.2390 H   0  0  0  0  0  0  0  0  0  0  0  0
   40.2180   26.0630   33.0140 H   0  0  0  0  0  0  0  0  0  0  0  0
   39.9770   23.7430   33.8700 H   0  0  0  0  0  0  0  0  0  0  0  0
   37.4340   24.2520   33.0620 C   0  0  0  0  0  0  0  0  0  0  0  0
   36.6750   24.9520   32.1290 C   0  0  0  0  0  0  0  0  0  0  0  0
   35.9670   24.2420   31.1760 C   0  0  0  0  0  0  0  0  0  0  0  0
   36.0530   22.8810   31.2010 N   0  0  0  0  0  0  0  0  0  0  0  0
   36.7990   22.2370   32.1230 C   0  0  0  0  0  0  0  0  0  0  0  0
   37.4820   22.9270   33.0440 N   0  0  0  0  0  0  0  0  0  0  0  0
   36.6660   26.0150   32.1820 H   0  0  0  0  0  0  0  0  0  0  0  0
   35.3760   24.7800   30.4480 H   0  0  0  0  0  0  0  0  0  0  0  0
   36.8290   21.1550   32.0960 H   0  0  0  0  0  0  0  0  0  0  0  0
   39.7400   24.4340   35.8190 O   0  0  0  0  0  0  0  0  0  0  0  0
   40.4410   23.2680   36.0160 C   0  0  0  0  0  3  0  0  0  0  0  0
   41.9470   23.4720   36.0450 C   0  0  0  0  0  2  0  0  0  0  0  0
   42.4200   22.1320   36.6010 C   0  0  0  0  0  2  0  0  0  0  0  0
   41.2700   21.5470   37.3590 C   0  0  0  0  0  2  0  0  0  0  0  0
   40.2190   22.6410   37.3570 C   0  0  0  0  0  2  0  0  0  0  0  0
  1  6  1  0  0  0  0
  1  2  1  0  0  0  0
  2  3  1  0  0  0  0
  2  7  1  0  0  0  0
  3 10  1  0  0  0  0
  4  3  1  0  0  0  0
  4 12  1  0  0  0  0
  5 13  1  0  0  0  0
  5  6  1  0  0  0  0
  5  4  1  0  0  0  0
  6 15  1  6  0  0  0
  6 25  1  0  0  0  0
  8  2  1  0  0  0  0
  9  3  1  0  0  0  0
 11  4  1  0  0  0  0
 14  5  1  0  0  0  0
 16  1  1  0  0  0  0
 17 22  1  0  0  0  0
 17 16  2  0  0  0  0
 18 19  2  0  0  0  0
 18 17  1  0  0  0  0
 19 20  1  0  0  0  0
 20 21  2  0  0  0  0
 21 16  1  0  0  0  0
 23 18  1  0  0  0  0
 24 20  1  0  0  0  0
 25 26  1  0  0  0  0
 26 27  1  0  0  0  0
 26 30  1  0  0  0  0
 27 28  1  0  0  0  0
 28 29  1  0  0  0  0
 30 29  1  0  0  0  0
M  END
>  <minimizedAffinity>
-4.68086815

$$$$

 OpenBabel03272503003D

 30 32  0  0  1  0  0  0  0  0999 V2000
   38.4330   24.5670   35.8030 N   0  0  0  0  0  0  0  0  0  0  0  0
   37.7180   24.9480   37.0030 C   0  0  0  0  0  0  0  0  0  0  0  0
   38.1820   24.3990   38.2780 C   0  0  0  0  0  0  0  0  0  0  0  0
   38.9180   23.1310   38.2750 C   0  0  0  0  0  0  0  0  0  0  0  0
   39.5570   22.7850   36.9530 C   0  0  0  0  0  0  0  0  0  0  0  0
   38.5980   23.1390   35.8110 C   0  0  1  0  0  0  0  0  0  0  0  0
   36.6530   24.6300   36.8140 H   0  0  0  0  0  0  0  0  0  0  0  0
   37.6910   26.0590   37.0240 H   0  0  0  0  0  0  0  0  0  0  0  0
   38.8080   25.1870   38.7820 H   0  0  0  0  0  0  0  0  0  0  0  0
   37.3010   24.2910   38.9620 H   0  0  0  0  0  0  0  0  0  0  0  0
   39.7620   23.1590   39.0250 H   0  0  0  0  0  0  0  0  0  0  0  0
   38.2800   22.2780   38.6170 H   0  0  0  0  0  0  0  0  0  0  0  0
   39.7620   21.6900   36.8960 H   0  0  0  0  0  0  0  0  0  0  0  0
   40.4790   23.3660   36.8030 H   0  0  0  0  0  0  0  0  0  0  0  0
   39.0270   22.7680   34.8770 H   0  0  0  0  0  0  0  0  0  0  0  0
   38.8850   25.4790   34.7970 C   0  0  0  0  0  0  0  0  0  0  0  0
   40.0440   26.2430   34.8970 C   0  0  0  0  0  0  0  0  0  0  0  0
   40.3780   27.0910   33.8570 C   0  0  0  0  0  0  0  0  0  0  0  0
   39.5450   27.1330   32.7770 N   0  0  0  0  0  0  0  0  0  0  0  0
   38.4290   26.3770   32.7160 C   0  0  0  0  0  0  0  0  0  0  0  0
   38.1090   25.5580   33.7250 N   0  0  0  0  0  0  0  0  0  0  0  0
   40.6360   26.1460   35.7770 H   0  0  0  0  0  0  0  0  0  0  0  0
   41.2770   27.6860   33.9290 H   0  0  0  0  0  0  0  0  0  0  0  0
   37.8060   26.4520   31.8340 H   0  0  0  0  0  0  0  0  0  0  0  0
   37.3920   22.4900   36.1340 O   0  0  0  0  0  0  0  0  0  0  0  0
   37.1750   21.5330   35.1720 C   0  0  0  0  0  3  0  0  0  0  0  0
   35.7670   20.9580   35.2050 C   0  0  0  0  0  2  0  0  0  0  0  0
   35.7160   20.2170   33.8720 C   0  0  0  0  0  2  0  0  0  0  0  0
   36.7350   20.8540   32.9810 C   0  0  0  0  0  2  0  0  0  0  0  0
   37.2300   22.0520   33.7690 C   0  0  0  0  0  2  0  0  0  0  0  0
  1  6  1  0  0  0  0
  1  2  1  0  0  0  0
  2  8  1  0  0  0  0
  2  3  1  0  0  0  0
  3  9  1  0  0  0  0
  3 10  1  0  0  0  0
  4  3  1  0  0  0  0
  4 12  1  0  0  0  0
  4 11  1  0  0  0  0
  5  4  1  0  0  0  0
  6 15  1  6  0  0  0
  6 25  1  0  0  0  0
  6  5  1  0  0  0  0
  7  2  1  0  0  0  0
 13  5  1  0  0  0  0
 14  5  1  0  0  0  0
 16 17  1  0  0  0  0
 16  1  1  0  0  0  0
 17 22  1  0  0  0  0
 18 23  1  0  0  0  0
 18 17  2  0  0  0  0
 19 18  1  0  0  0  0
 20 19  2  0  0  0  0
 20 21  1  0  0  0  0
 21 16  2  0  0  0  0
 24 20  1  0  0  0  0
 26 27  1  0  0  0  0
 26 25  1  0  0  0  0
 28 27  1  0  0  0  0
 29 30  1  0  0  0  0
 29 28  1  0  0  0  0
 30 26  1  0  0  0  0
M  END
>  <minimizedAffinity>
-4.67821312

$$$$

 OpenBabel03272503003D

 30 32  0  0  1  0  0  0  0  0999 V2000
   39.1560   24.8160   34.7110 N   0  0  0  0  0  0  0  0  0  0  0  0
   39.6440   24.0340   33.5940 C   0  0  0  0  0  0  0  0  0  0  0  0
   40.6930   24.6170   32.7570 C   0  0  0  0  0  0  0  0  0  0  0  0
   40.8170   26.0760   32.6950 C   0  0  0  0  0  0  0  0  0  0  0  0
   40.2040   26.8040   33.8660 C   0  0  0  0  0  0  0  0  0  0  0  0
   38.8720   26.1450   34.2400 C   0  0  1  0  0  0  0  0  0  0  0  0
   38.7280   23.8250   32.9710 H   0  0  0  0  0  0  0  0  0  0  0  0
   39.9500   23.0460   34.0020 H   0  0  0  0  0  0  0  0  0  0  0  0
   41.6750   24.1780   33.0850 H   0  0  0  0  0  0  0  0  0  0  0  0
   40.5710   24.2310   31.7120 H   0  0  0  0  0  0  0  0  0  0  0  0
   41.9040   26.3830   32.6790 H   0  0  0  0  0  0  0  0  0  0  0  0
   40.4050   26.4890   31.7410 H   0  0  0  0  0  0  0  0  0  0  0  0
   39.9930   27.8660   33.5960 H   0  0  0  0  0  0  0  0  0  0  0  0
   40.8610   26.7470   34.7470 H   0  0  0  0  0  0  0  0  0  0  0  0
   38.3900   26.7590   35.0030 H   0  0  0  0  0  0  0  0  0  0  0  0
   38.9940   24.3250   36.0450 C   0  0  0  0  0  0  0  0  0  0  0  0
   38.0270   24.7830   36.9350 C   0  0  0  0  0  0  0  0  0  0  0  0
   37.9680   24.2290   38.2010 C   0  0  0  0  0  0  0  0  0  0  0  0
   38.8700   23.2540   38.5130 N   0  0  0  0  0  0  0  0  0  0  0  0
   39.7940   22.8370   37.6230 C   0  0  0  0  0  0  0  0  0  0  0  0
   39.8480   23.3750   36.3990 N   0  0  0  0  0  0  0  0  0  0  0  0
   37.3620   25.5470   36.6070 H   0  0  0  0  0  0  0  0  0  0  0  0
   37.2190   24.5810   38.8960 H   0  0  0  0  0  0  0  0  0  0  0  0
   40.4850   22.0600   37.9260 H   0  0  0  0  0  0  0  0  0  0  0  0
   38.1330   26.1120   33.0420 O   0  0  0  0  0  0  0  0  0  0  0  0
   37.0610   26.9570   33.2030 C   0  0  0  0  0  3  0  0  0  0  0  0
   37.0250   27.6270   34.5670 C   0  0  0  0  0  2  0  0  0  0  0  0
   35.9800   28.7150   34.3380 C   0  0  0  0  0  2  0  0  0  0  0  0
   35.9440   28.9800   32.8670 C   0  0  0  0  0  2  0  0  0  0  0  0
   37.0880   28.1550   32.3060 C   0  0  0  0  0  2  0  0  0  0  0  0
  1 16  1  0  0  0  0
  2  8  1  0  0  0  0
  2  1  1  0  0  0  0
  3  9  1  0  0  0  0
  3  2  1  0  0  0  0
  4  3  1  0  0  0  0
  4  5  1  0  0  0  0
  5  6  1  0  0  0  0
  5 14  1  0  0  0  0
  6  1  1  0  0  0  0
  6 15  1  1  0  0  0
  7  2  1  0  0  0  0
 10  3  1  0  0  0  0
 11  4  1  0  0  0  0
 12  4  1  0  0  0  0
 13  5  1  0  0  0  0
 16 21  2  0  0  0  0
 16 17  1  0  0  0  0
 17 18  2  0  0  0  0
 18 19  1  0  0  0  0
 18 23  1  0  0  0  0
 20 24  1  0  0  0  0
 20 19  2  0  0  0  0
 21 20  1  0  0  0  0
 22 17  1  0  0  0  0
 25 26  1  0  0  0  0
 25  6  1  0  0  0  0
 26 27  1  0  0  0  0
 28 27  1  0  0  0  0
 29 28  1  0  0  0  0
 30 29  1  0  0  0  0
 30 26  1  0  0  0  0
M  END
>  <minimizedAffinity>
-4.66462183

$$$$

 OpenBabel03272503003D

 30 32  0  0  1  0  0  0  0  0999 V2000
   38.8510   23.8440   34.4610 N   0  0  0  0  0  0  0  0  0  0  0  0
   40.0310   24.1370   33.6740 C   0  0  0  0  0  0  0  0  0  0  0  0
   39.9300   25.1820   32.6540 C   0  0  0  0  0  0  0  0  0  0  0  0
   38.6150   25.4850   32.0820 C   0  0  0  0  0  0  0  0  0  0  0  0
   37.4490   25.0660   32.9430 C   0  0  0  0  0  0  0  0  0  0  0  0
   37.7370   23.6950   33.5650 C   0  0  1  0  0  0  0  0  0  0  0  0
   40.3030   23.1550   33.1910 H   0  0  0  0  0  0  0  0  0  0  0  0
   40.8540   24.3470   34.3920 H   0  0  0  0  0  0  0  0  0  0  0  0
   40.3710   26.1230   33.0840 H   0  0  0  0  0  0  0  0  0  0  0  0
   40.6270   24.9280   31.8140 H   0  0  0  0  0  0  0  0  0  0  0  0
   38.4960   26.5980   31.9270 H   0  0  0  0  0  0  0  0  0  0  0  0
   38.4970   25.0550   31.0570 H   0  0  0  0  0  0  0  0  0  0  0  0
   36.5250   24.9710   32.3260 H   0  0  0  0  0  0  0  0  0  0  0  0
   37.2980   25.7780   33.7680 H   0  0  0  0  0  0  0  0  0  0  0  0
   36.8350   23.3570   34.0790 H   0  0  0  0  0  0  0  0  0  0  0  0
   38.8280   23.7280   35.8870 C   0  0  0  0  0  0  0  0  0  0  0  0
   37.8910   24.3510   36.7070 C   0  0  0  0  0  0  0  0  0  0  0  0
   37.9710   24.1630   38.0750 C   0  0  0  0  0  0  0  0  0  0  0  0
   38.9720   23.3690   38.5520 N   0  0  0  0  0  0  0  0  0  0  0  0
   39.8630   22.7820   37.7250 C   0  0  0  0  0  0  0  0  0  0  0  0
   39.7820   22.9660   36.4020 N   0  0  0  0  0  0  0  0  0  0  0  0
   37.1420   24.9540   36.2490 H   0  0  0  0  0  0  0  0  0  0  0  0
   37.2470   24.6450   38.7170 H   0  0  0  0  0  0  0  0  0  0  0  0
   40.6360   22.1620   38.1600 H   0  0  0  0  0  0  0  0  0  0  0  0
   38.0680   22.8650   32.4770 O   0  0  0  0  0  0  0  0  0  0  0  0
   37.1550   21.8370   32.4570 C   0  0  0  0  0  3  0  0  0  0  0  0
   36.7560   21.3630   33.8460 C   0  0  0  0  0  2  0  0  0  0  0  0
   35.5350   20.5050   33.5300 C   0  0  0  0  0  2  0  0  0  0  0  0
   34.9930   20.9860   32.2210 C   0  0  0  0  0  2  0  0  0  0  0  0
   35.8190   22.2180   31.9000 C   0  0  0  0  0  2  0  0  0  0  0  0
  1 16  1  0  0  0  0
  2  8  1  0  0  0  0
  2  1  1  0  0  0  0
  3  9  1  0  0  0  0
  3  2  1  0  0  0  0
  4  3  1  0  0  0  0
  4  5  1  0  0  0  0
  5  6  1  0  0  0  0
  5 14  1  0  0  0  0
  6 15  1  1  0  0  0
  6  1  1  0  0  0  0
  7  2  1  0  0  0  0
 10  3  1  0  0  0  0
 11  4  1  0  0  0  0
 12  4  1  0  0  0  0
 13  5  1  0  0  0  0
 16 21  2  0  0  0  0
 16 17  1  0  0  0  0
 17 18  2  0  0  0  0
 18 19  1  0  0  0  0
 18 23  1  0  0  0  0
 20 24  1  0  0  0  0
 20 19  2  0  0  0  0
 21 20  1  0  0  0  0
 22 17  1  0  0  0  0
 25  6  1  0  0  0  0
 26 25  1  0  0  0  0
 26 27  1  0  0  0  0
 28 27  1  0  0  0  0
 29 28  1  0  0  0  0
 30 29  1  0  0  0  0
 30 26  1  0  0  0  0
M  END
>  <minimizedAffinity>
-4.64895487

$$$$

 OpenBabel03272503003D

 30 32  0  0  1  0  0  0  0  0999 V2000
   37.2540   27.5760   33.4150 N   0  0  0  0  0  0  0  0  0  0  0  0
   37.0830   27.4930   34.8500 C   0  0  0  0  0  0  0  0  0  0  0  0
   38.2870   27.4270   35.6800 C   0  0  0  0  0  0  0  0  0  0  0  0
   39.5220   26.9000   35.0910 C   0  0  0  0  0  0  0  0  0  0  0  0
   39.5670   26.9570   33.5840 C   0  0  0  0  0  0  0  0  0  0  0  0
   38.1980   26.5680   33.0140 C   0  0  1  0  0  0  0  0  0  0  0  0
   36.4570   26.5680   35.0100 H   0  0  0  0  0  0  0  0  0  0  0  0
   36.4290   28.3420   35.1470 H   0  0  0  0  0  0  0  0  0  0  0  0
   38.4810   28.4600   36.0810 H   0  0  0  0  0  0  0  0  0  0  0  0
   38.0550   26.8300   36.5990 H   0  0  0  0  0  0  0  0  0  0  0  0
   40.4160   27.4930   35.4460 H   0  0  0  0  0  0  0  0  0  0  0  0
   39.7350   25.8570   35.4330 H   0  0  0  0  0  0  0  0  0  0  0  0
   40.3160   26.2300   33.1910 H   0  0  0  0  0  0  0  0  0  0  0  0
   39.7920   27.9770   33.2390 H   0  0  0  0  0  0  0  0  0  0  0  0
   38.2890   26.4950   31.9280 H   0  0  0  0  0  0  0  0  0  0  0  0
   36.5830   28.5110   32.5650 C   0  0  0  0  0  0  0  0  0  0  0  0
   37.0190   28.8610   31.2900 C   0  0  0  0  0  0  0  0  0  0  0  0
   36.2850   29.7790   30.5610 C   0  0  0  0  0  0  0  0  0  0  0  0
   35.1620   30.2970   31.1360 N   0  0  0  0  0  0  0  0  0  0  0  0
   34.7710   29.9340   32.3760 C   0  0  0  0  0  0  0  0  0  0  0  0
   35.4840   29.0450   33.0780 N   0  0  0  0  0  0  0  0  0  0  0  0
   37.9080   28.4060   30.9190 H   0  0  0  0  0  0  0  0  0  0  0  0
   36.6190   30.0550   29.5710 H   0  0  0  0  0  0  0  0  0  0  0  0
   33.8710   30.3780   32.7810 H   0  0  0  0  0  0  0  0  0  0  0  0
   37.8970   25.3270   33.6050 O   0  0  0  0  0  0  0  0  0  0  0  0
   37.6410   24.4420   32.5850 C   0  0  0  0  0  3  0  0  0  0  0  0
   37.5170   23.0020   33.0570 C   0  0  0  0  0  2  0  0  0  0  0  0
   36.9150   22.3340   31.8240 C   0  0  0  0  0  2  0  0  0  0  0  0
   36.2260   23.4070   31.0410 C   0  0  0  0  0  2  0  0  0  0  0  0
   36.3090   24.6350   31.9290 C   0  0  0  0  0  2  0  0  0  0  0  0
  1  2  1  0  0  0  0
  2  7  1  0  0  0  0
  2  8  1  0  0  0  0
  2  3  1  0  0  0  0
  3  9  1  0  0  0  0
  3 10  1  0  0  0  0
  4 12  1  0  0  0  0
  4 11  1  0  0  0  0
  4  3  1  0  0  0  0
  5  4  1  0  0  0  0
  6 15  1  6  0  0  0
  6  1  1  0  0  0  0
  6  5  1  0  0  0  0
  6 25  1  0  0  0  0
 13  5  1  0  0  0  0
 14  5  1  0  0  0  0
 16 21  1  0  0  0  0
 16  1  1  0  0  0  0
 17 16  2  0  0  0  0
 18 19  2  0  0  0  0
 18 17  1  0  0  0  0
 19 20  1  0  0  0  0
 20 24  1  0  0  0  0
 20 21  2  0  0  0  0
 22 17  1  0  0  0  0
 23 18  1  0  0  0  0
 26 27  1  0  0  0  0
 26 25  1  0  0  0  0
 28 27  1  0  0  0  0
 29 28  1  0  0  0  0
 29 30  1  0  0  0  0
 30 26  1  0  0  0  0
M  END
>  <minimizedAffinity>
-4.61804056

$$$$

 OpenBabel03272503003D

 30 32  0  0  1  0  0  0  0  0999 V2000
   37.4190   26.4200   31.1100 N   0  0  0  0  0  0  0  0  0  0  0  0
   38.4120   25.5010   30.5960 C   0  0  0  0  0  0  0  0  0  0  0  0
   37.9900   24.1300   30.3040 C   0  0  0  0  0  0  0  0  0  0  0  0
   36.8320   23.5820   31.0160 C   0  0  0  0  0  0  0  0  0  0  0  0
   35.9000   24.6230   31.5850 C   0  0  0  0  0  0  0  0  0  0  0  0
   36.7180   25.7720   32.1850 C   0  0  1  0  0  0  0  0  0  0  0  0
   39.2250   25.4930   31.3780 H   0  0  0  0  0  0  0  0  0  0  0  0
   38.8700   25.9840   29.7050 H   0  0  0  0  0  0  0  0  0  0  0  0
   37.8090   24.0570   29.1970 H   0  0  0  0  0  0  0  0  0  0  0  0
   38.8600   23.4450   30.4710 H   0  0  0  0  0  0  0  0  0  0  0  0
   36.2000   22.9520   30.3230 H   0  0  0  0  0  0  0  0  0  0  0  0
   37.1370   22.8720   31.8250 H   0  0  0  0  0  0  0  0  0  0  0  0
   35.2810   24.1850   32.4030 H   0  0  0  0  0  0  0  0  0  0  0  0
   35.2620   25.0480   30.7960 H   0  0  0  0  0  0  0  0  0  0  0  0
   36.0320   26.4490   32.6980 H   0  0  0  0  0  0  0  0  0  0  0  0
   37.1950   27.7440   30.6130 C   0  0  0  0  0  0  0  0  0  0  0  0
   36.3530   28.6730   31.2160 C   0  0  0  0  0  0  0  0  0  0  0  0
   36.2180   29.9240   30.6410 C   0  0  0  0  0  0  0  0  0  0  0  0
   36.9240   30.1820   29.5030 N   0  0  0  0  0  0  0  0  0  0  0  0
   37.7310   29.2540   28.9460 C   0  0  0  0  0  0  0  0  0  0  0  0
   37.8590   28.0450   29.5060 N   0  0  0  0  0  0  0  0  0  0  0  0
   35.8410   28.3870   32.1040 H   0  0  0  0  0  0  0  0  0  0  0  0
   35.5650   30.6500   31.1050 H   0  0  0  0  0  0  0  0  0  0  0  0
   38.2660   29.5140   28.0430 H   0  0  0  0  0  0  0  0  0  0  0  0
   37.6160   25.1530   33.0760 O   0  0  0  0  0  0  0  0  0  0  0  0
   37.6210   25.8990   34.2310 C   0  0  0  0  0  3  0  0  0  0  0  0
   37.9850   25.0880   35.4650 C   0  0  0  0  0  2  0  0  0  0  0  0
   38.2390   26.1950   36.4840 C   0  0  0  0  0  2  0  0  0  0  0  0
   38.5820   27.4280   35.7100 C   0  0  0  0  0  2  0  0  0  0  0  0
   38.6780   26.9570   34.2710 C   0  0  0  0  0  2  0  0  0  0  0  0
  1  6  1  0  0  0  0
  2  1  1  0  0  0  0
  2  7  1  0  0  0  0
  3 10  1  0  0  0  0
  3  2  1  0  0  0  0
  3  4  1  0  0  0  0
  4  5  1  0  0  0  0
  4 12  1  0  0  0  0
  5  6  1  0  0  0  0
  5 13  1  0  0  0  0
  6 15  1  1  0  0  0
  6 25  1  0  0  0  0
  8  2  1  0  0  0  0
  9  3  1  0  0  0  0
 11  4  1  0  0  0  0
 14  5  1  0  0  0  0
 16  1  1  0  0  0  0
 16 17  1  0  0  0  0
 17 22  1  0  0  0  0
 18 23  1  0  0  0  0
 18 17  2  0  0  0  0
 19 18  1  0  0  0  0
 20 19  2  0  0  0  0
 20 21  1  0  0  0  0
 21 16  2  0  0  0  0
 24 20  1  0  0  0  0
 25 26  1  0  0  0  0
 26 30  1  0  0  0  0
 26 27  1  0  0  0  0
 27 28  1  0  0  0  0
 29 28  1  0  0  0  0
 30 29  1  0  0  0  0
M  END
>  <minimizedAffinity>
-4.49684334

$$$$
