
 OpenBabel03262523273D

 36 39  0  0  1  0  0  0  0  0999 V2000
   34.5250   29.8510   32.2250 C   0  0  0  0  0  0  0  0  0  0  0  0
   35.1470   30.5100   31.1700 C   0  0  0  0  0  0  0  0  0  0  0  0
   36.4360   30.1440   30.8500 C   0  0  0  0  0  0  0  0  0  0  0  0
   37.0240   29.1620   31.5860 N   0  0  0  0  0  0  0  0  0  0  0  0
   36.3900   28.5330   32.6140 C   0  0  0  0  0  0  0  0  0  0  0  0
   35.1500   28.8780   32.9280 N   0  0  0  0  0  0  0  0  0  0  0  0
   37.0890   27.5040   33.3430 N   0  0  0  0  0  0  0  0  0  0  0  0
   37.0240   27.4730   34.7790 C   0  0  0  0  0  0  0  0  0  0  0  0
   38.2670   26.8940   35.4130 C   0  0  0  0  0  0  0  0  0  0  0  0
   39.4020   27.0180   34.4130 C   0  0  0  0  0  0  0  0  0  0  0  0
   39.0680   26.0300   33.3190 C   0  0  0  0  0  0  0  0  0  0  0  0
   37.8590   26.5080   32.5930 C   0  0  1  0  0  0  0  0  0  0  0  0
   33.5160   30.0540   32.5650 H   0  0  0  0  0  0  0  0  0  0  0  0
   34.6070   31.2700   30.6490 H   0  0  0  0  0  0  0  0  0  0  0  0
   36.9630   30.6290   30.0370 H   0  0  0  0  0  0  0  0  0  0  0  0
   36.1640   26.8430   35.0920 H   0  0  0  0  0  0  0  0  0  0  0  0
   36.8220   28.4840   35.2000 H   0  0  0  0  0  0  0  0  0  0  0  0
   38.1140   25.8070   35.5850 H   0  0  0  0  0  0  0  0  0  0  0  0
   38.5480   27.4490   36.3430 H   0  0  0  0  0  0  0  0  0  0  0  0
   39.4500   28.0250   33.9520 H   0  0  0  0  0  0  0  0  0  0  0  0
   40.3590   26.7520   34.9070 H   0  0  0  0  0  0  0  0  0  0  0  0
   38.9470   25.0720   33.8640 H   0  0  0  0  0  0  0  0  0  0  0  0
   39.9320   25.9130   32.6190 H   0  0  0  0  0  0  0  0  0  0  0  0
   38.1740   27.0640   31.6660 H   0  0  0  0  0  0  0  0  0  0  0  0
   36.9970   25.4100   32.1120 C   0  0  0  0  0  0  0  0  0  0  0  0
   35.7930   25.5210   31.4140 C   0  0  0  0  0  0  0  0  0  0  0  0
   35.1490   24.3870   31.0630 C   0  0  0  0  0  0  0  0  0  0  0  0
   35.7380   23.1170   31.4270 C   0  0  0  0  0  0  0  0  0  0  0  0
   37.2980   23.7260   32.3150 S   0  0  0  0  0  0  0  0  0  0  0  0
   35.2880   26.4290   31.1060 H   0  0  0  0  0  0  0  0  0  0  0  0
   34.2590   24.1390   30.5540 H   0  0  0  0  0  0  0  0  0  0  0  0
   35.5240   21.7130   31.3300 C   0  0  0  0  0  3  0  0  0  0  0  0
   35.1490   21.1350   32.6710 C   0  0  0  0  0  2  0  0  0  0  0  0
   35.2230   19.6530   32.3940 C   0  0  0  0  0  2  0  0  0  0  0  0
   36.4290   19.5170   31.4900 C   0  0  0  0  0  2  0  0  0  0  0  0
   36.7430   20.8990   30.9540 C   0  0  0  0  0  2  0  0  0  0  0  0
  1 13  1  0  0  0  0
  1  6  1  0  0  0  0
  2  1  2  0  0  0  0
  3  2  1  0  0  0  0
  3  4  2  0  0  0  0
  4  5  1  0  0  0  0
  5  6  2  0  0  0  0
  5  7  1  0  0  0  0
  7  8  1  0  0  0  0
  8 16  1  0  0  0  0
  8 17  1  0  0  0  0
  8  9  1  0  0  0  0
  9 18  1  0  0  0  0
  9 19  1  0  0  0  0
 10 21  1  0  0  0  0
 10  9  1  0  0  0  0
 11 22  1  0  0  0  0
 11 10  1  0  0  0  0
 12 24  1  6  0  0  0
 12 11  1  0  0  0  0
 12  7  1  0  0  0  0
 14  2  1  0  0  0  0
 15  3  1  0  0  0  0
 20 10  1  0  0  0  0
 23 11  1  0  0  0  0
 25 29  1  0  0  0  0
 25 12  1  0  0  0  0
 26 25  2  0  0  0  0
 27 26  1  0  0  0  0
 27 28  2  0  0  0  0
 28 29  1  0  0  0  0
 30 26  1  0  0  0  0
 31 27  1  0  0  0  0
 32 28  1  0  0  0  0
 32 33  1  0  0  0  0
 34 33  1  0  0  0  0
 35 34  1  0  0  0  0
 36 32  1  0  0  0  0
 36 35  1  0  0  0  0
M  END
>  <minimizedAffinity>
-6.21937799

$$$$

 OpenBabel03262523273D

 36 39  0  0  1  0  0  0  0  0999 V2000
   36.6790   29.2110   30.1100 C   0  0  0  0  0  0  0  0  0  0  0  0
   37.8220   29.2270   29.3180 C   0  0  0  0  0  0  0  0  0  0  0  0
   38.9240   28.5270   29.7600 C   0  0  0  0  0  0  0  0  0  0  0  0
   38.8270   27.8640   30.9440 N   0  0  0  0  0  0  0  0  0  0  0  0
   37.6940   27.8650   31.6980 C   0  0  0  0  0  0  0  0  0  0  0  0
   36.6300   28.5350   31.2810 N   0  0  0  0  0  0  0  0  0  0  0  0
   37.6790   27.1350   32.9420 N   0  0  0  0  0  0  0  0  0  0  0  0
   37.1060   27.7350   34.1170 C   0  0  0  0  0  0  0  0  0  0  0  0
   37.7550   27.2620   35.3960 C   0  0  0  0  0  0  0  0  0  0  0  0
   39.1350   26.7330   35.0510 C   0  0  0  0  0  0  0  0  0  0  0  0
   38.8830   25.4540   34.2880 C   0  0  0  0  0  0  0  0  0  0  0  0
   38.2600   25.7910   32.9780 C   0  0  1  0  0  0  0  0  0  0  0  0
   35.7560   29.7240   29.8640 H   0  0  0  0  0  0  0  0  0  0  0  0
   37.8060   29.7770   28.4030 H   0  0  0  0  0  0  0  0  0  0  0  0
   39.8370   28.5100   29.1790 H   0  0  0  0  0  0  0  0  0  0  0  0
   36.0280   27.4710   34.1720 H   0  0  0  0  0  0  0  0  0  0  0  0
   37.1390   28.8460   34.0650 H   0  0  0  0  0  0  0  0  0  0  0  0
   37.1790   26.4020   35.8000 H   0  0  0  0  0  0  0  0  0  0  0  0
   37.8670   28.0980   36.1310 H   0  0  0  0  0  0  0  0  0  0  0  0
   39.6950   27.4170   34.3830 H   0  0  0  0  0  0  0  0  0  0  0  0
   39.6970   26.5300   35.9870 H   0  0  0  0  0  0  0  0  0  0  0  0
   38.2480   24.8610   34.9770 H   0  0  0  0  0  0  0  0  0  0  0  0
   39.8370   24.8900   34.1400 H   0  0  0  0  0  0  0  0  0  0  0  0
   39.0550   25.8280   32.1820 H   0  0  0  0  0  0  0  0  0  0  0  0
   37.2940   24.7740   32.5140 C   0  0  0  0  0  0  0  0  0  0  0  0
   36.1710   24.9770   31.7100 C   0  0  0  0  0  0  0  0  0  0  0  0
   35.4070   23.9090   31.3960 C   0  0  0  0  0  0  0  0  0  0  0  0
   35.7900   22.6100   31.9070 C   0  0  0  0  0  0  0  0  0  0  0  0
   37.3490   23.0900   32.8730 S   0  0  0  0  0  0  0  0  0  0  0  0
   35.8190   25.9110   31.2890 H   0  0  0  0  0  0  0  0  0  0  0  0
   34.5320   23.7330   30.8340 H   0  0  0  0  0  0  0  0  0  0  0  0
   35.3950   21.2430   31.9040 C   0  0  0  0  0  3  0  0  0  0  0  0
   35.7420   20.5820   33.2130 C   0  0  0  0  0  2  0  0  0  0  0  0
   35.4810   19.1290   32.8980 C   0  0  0  0  0  2  0  0  0  0  0  0
   35.9780   18.9750   31.4780 C   0  0  0  0  0  2  0  0  0  0  0  0
   36.1100   20.3680   30.8970 C   0  0  0  0  0  2  0  0  0  0  0  0
  1  6  1  0  0  0  0
  2  3  1  0  0  0  0
  2  1  2  0  0  0  0
  3  4  2  0  0  0  0
  4  5  1  0  0  0  0
  5  7  1  0  0  0  0
  6  5  2  0  0  0  0
  7 12  1  0  0  0  0
  7  8  1  0  0  0  0
  8 16  1  0  0  0  0
  8  9  1  0  0  0  0
  9 18  1  0  0  0  0
  9 19  1  0  0  0  0
 10  9  1  0  0  0  0
 10 21  1  0  0  0  0
 11 22  1  0  0  0  0
 11 10  1  0  0  0  0
 12 24  1  6  0  0  0
 12 11  1  0  0  0  0
 13  1  1  0  0  0  0
 14  2  1  0  0  0  0
 15  3  1  0  0  0  0
 17  8  1  0  0  0  0
 20 10  1  0  0  0  0
 23 11  1  0  0  0  0
 25 29  1  0  0  0  0
 25 12  1  0  0  0  0
 26 25  2  0  0  0  0
 27 26  1  0  0  0  0
 27 28  2  0  0  0  0
 28 29  1  0  0  0  0
 30 26  1  0  0  0  0
 31 27  1  0  0  0  0
 32 28  1  0  0  0  0
 32 33  1  0  0  0  0
 34 33  1  0  0  0  0
 35 34  1  0  0  0  0
 36 35  1  0  0  0  0
 36 32  1  0  0  0  0
M  END
>  <minimizedAffinity>
-6.08483934

$$$$

 OpenBabel03262523273D

 36 39  0  0  1  0  0  0  0  0999 V2000
   38.4290   22.9170   36.7330 C   0  0  0  0  0  0  0  0  0  0  0  0
   39.7990   22.8020   36.5200 C   0  0  0  0  0  0  0  0  0  0  0  0
   40.2240   22.2910   35.3130 C   0  0  0  0  0  0  0  0  0  0  0  0
   39.2800   21.9280   34.4030 N   0  0  0  0  0  0  0  0  0  0  0  0
   37.9440   22.0520   34.6390 C   0  0  0  0  0  0  0  0  0  0  0  0
   37.5270   22.5430   35.7970 N   0  0  0  0  0  0  0  0  0  0  0  0
   37.0110   21.6410   33.6190 N   0  0  0  0  0  0  0  0  0  0  0  0
   35.8520   20.8700   33.9780 C   0  0  0  0  0  0  0  0  0  0  0  0
   35.4000   19.9390   32.8770 C   0  0  0  0  0  0  0  0  0  0  0  0
   36.5820   19.6970   31.9570 C   0  0  0  0  0  0  0  0  0  0  0  0
   36.7960   21.0120   31.2430 C   0  0  0  0  0  0  0  0  0  0  0  0
   37.2750   22.0200   32.2290 C   0  0  1  0  0  0  0  0  0  0  0  0
   37.9810   23.3030   37.6410 H   0  0  0  0  0  0  0  0  0  0  0  0
   40.4670   23.1120   37.2930 H   0  0  0  0  0  0  0  0  0  0  0  0
   41.2800   22.1820   35.1000 H   0  0  0  0  0  0  0  0  0  0  0  0
   35.0090   21.5590   34.2000 H   0  0  0  0  0  0  0  0  0  0  0  0
   36.0200   20.2930   34.9150 H   0  0  0  0  0  0  0  0  0  0  0  0
   34.6230   20.4480   32.2680 H   0  0  0  0  0  0  0  0  0  0  0  0
   35.0600   18.9550   33.2880 H   0  0  0  0  0  0  0  0  0  0  0  0
   37.5110   19.4620   32.5140 H   0  0  0  0  0  0  0  0  0  0  0  0
   36.3280   18.8920   31.2350 H   0  0  0  0  0  0  0  0  0  0  0  0
   35.8080   21.2230   30.7880 H   0  0  0  0  0  0  0  0  0  0  0  0
   37.5320   20.8900   30.4100 H   0  0  0  0  0  0  0  0  0  0  0  0
   38.3980   22.0850   32.1840 H   0  0  0  0  0  0  0  0  0  0  0  0
   36.7950   23.3870   31.9420 C   0  0  0  0  0  0  0  0  0  0  0  0
   35.5560   23.7580   31.4170 C   0  0  0  0  0  0  0  0  0  0  0  0
   35.3080   25.0710   31.2250 C   0  0  0  0  0  0  0  0  0  0  0  0
   36.3380   26.0270   31.5710 C   0  0  0  0  0  0  0  0  0  0  0  0
   37.6800   24.8430   32.1960 S   0  0  0  0  0  0  0  0  0  0  0  0
   34.7360   23.1070   31.1340 H   0  0  0  0  0  0  0  0  0  0  0  0
   34.5080   25.6530   30.8620 H   0  0  0  0  0  0  0  0  0  0  0  0
   36.6140   27.4230   31.5810 C   0  0  0  0  0  3  0  0  0  0  0  0
   35.4500   28.1940   32.1490 C   0  0  0  0  0  2  0  0  0  0  0  0
   35.8450   29.6160   31.8320 C   0  0  0  0  0  2  0  0  0  0  0  0
   36.4720   29.5170   30.4590 C   0  0  0  0  0  2  0  0  0  0  0  0
   36.7910   28.0560   30.2180 C   0  0  0  0  0  2  0  0  0  0  0  0
  1 13  1  0  0  0  0
  2  1  1  0  0  0  0
  2 14  1  0  0  0  0
  3  2  2  0  0  0  0
  4  5  2  0  0  0  0
  4  3  1  0  0  0  0
  5  6  1  0  0  0  0
  6  1  2  0  0  0  0
  7  8  1  0  0  0  0
  7  5  1  0  0  0  0
  8 16  1  0  0  0  0
  8 17  1  0  0  0  0
  9 19  1  0  0  0  0
  9  8  1  0  0  0  0
 10 20  1  0  0  0  0
 10  9  1  0  0  0  0
 11 10  1  0  0  0  0
 11 12  1  0  0  0  0
 12 24  1  6  0  0  0
 12  7  1  0  0  0  0
 15  3  1  0  0  0  0
 18  9  1  0  0  0  0
 21 10  1  0  0  0  0
 22 11  1  0  0  0  0
 23 11  1  0  0  0  0
 25 29  1  0  0  0  0
 25 12  1  0  0  0  0
 26 25  2  0  0  0  0
 27 26  1  0  0  0  0
 27 28  2  0  0  0  0
 28 32  1  0  0  0  0
 28 29  1  0  0  0  0
 30 26  1  0  0  0  0
 31 27  1  0  0  0  0
 32 33  1  0  0  0  0
 34 33  1  0  0  0  0
 35 34  1  0  0  0  0
 36 35  1  0  0  0  0
 36 32  1  0  0  0  0
M  END
>  <minimizedAffinity>
-5.91749954

$$$$

 OpenBabel03262523273D

 36 39  0  0  1  0  0  0  0  0999 V2000
   36.6280   20.9170   32.9950 C   0  0  0  0  0  0  0  0  0  0  0  0
   35.5600   20.5020   33.7820 C   0  0  0  0  0  0  0  0  0  0  0  0
   35.6170   20.7560   35.1350 C   0  0  0  0  0  0  0  0  0  0  0  0
   36.7140   21.3970   35.6200 N   0  0  0  0  0  0  0  0  0  0  0  0
   37.7460   21.7940   34.8250 C   0  0  0  0  0  0  0  0  0  0  0  0
   37.6990   21.5530   33.5230 N   0  0  0  0  0  0  0  0  0  0  0  0
   38.8730   22.4660   35.4230 N   0  0  0  0  0  0  0  0  0  0  0  0
   40.2100   22.0990   35.0430 C   0  0  0  0  0  0  0  0  0  0  0  0
   41.2130   22.2950   36.1560 C   0  0  0  0  0  0  0  0  0  0  0  0
   40.4560   22.2980   37.4710 C   0  0  0  0  0  0  0  0  0  0  0  0
   39.6750   23.5910   37.4670 C   0  0  0  0  0  0  0  0  0  0  0  0
   38.6230   23.5130   36.4170 C   0  0  1  0  0  0  0  0  0  0  0  0
   36.6930   20.7710   31.9230 H   0  0  0  0  0  0  0  0  0  0  0  0
   34.7390   20.0040   33.3140 H   0  0  0  0  0  0  0  0  0  0  0  0
   34.8090   20.4510   35.7890 H   0  0  0  0  0  0  0  0  0  0  0  0
   40.5330   22.7310   34.1880 H   0  0  0  0  0  0  0  0  0  0  0  0
   40.2560   21.0500   34.6740 H   0  0  0  0  0  0  0  0  0  0  0  0
   41.6770   23.2990   36.0550 H   0  0  0  0  0  0  0  0  0  0  0  0
   41.9650   21.4660   36.1780 H   0  0  0  0  0  0  0  0  0  0  0  0
   39.7280   21.4660   37.5410 H   0  0  0  0  0  0  0  0  0  0  0  0
   41.1800   22.2760   38.3130 H   0  0  0  0  0  0  0  0  0  0  0  0
   40.4530   24.3640   37.3050 H   0  0  0  0  0  0  0  0  0  0  0  0
   39.2200   23.7770   38.4720 H   0  0  0  0  0  0  0  0  0  0  0  0
   37.6470   23.2030   36.8850 H   0  0  0  0  0  0  0  0  0  0  0  0
   38.3470   24.8140   35.7720 C   0  0  0  0  0  0  0  0  0  0  0  0
   38.2420   26.0610   36.3910 C   0  0  0  0  0  0  0  0  0  0  0  0
   37.9800   27.1380   35.6200 C   0  0  0  0  0  0  0  0  0  0  0  0
   37.8210   26.9460   34.1950 C   0  0  0  0  0  0  0  0  0  0  0  0
   38.0890   25.0730   34.0890 S   0  0  0  0  0  0  0  0  0  0  0  0
   38.3470   26.2870   37.4460 H   0  0  0  0  0  0  0  0  0  0  0  0
   37.8450   28.1730   35.7730 H   0  0  0  0  0  0  0  0  0  0  0  0
   37.5560   27.6570   32.9910 C   0  0  0  0  0  3  0  0  0  0  0  0
   36.2680   28.4320   33.0990 C   0  0  0  0  0  2  0  0  0  0  0  0
   36.0620   28.8800   31.6730 C   0  0  0  0  0  2  0  0  0  0  0  0
   36.5070   27.6880   30.8550 C   0  0  0  0  0  2  0  0  0  0  0  0
   37.3150   26.7930   31.7720 C   0  0  0  0  0  2  0  0  0  0  0  0
  1  6  2  0  0  0  0
  1  2  1  0  0  0  0
  2  3  2  0  0  0  0
  3  4  1  0  0  0  0
  3 15  1  0  0  0  0
  5  7  1  0  0  0  0
  5  4  2  0  0  0  0
  6  5  1  0  0  0  0
  7 12  1  0  0  0  0
  8  7  1  0  0  0  0
  8  9  1  0  0  0  0
  9 19  1  0  0  0  0
  9 10  1  0  0  0  0
 10 20  1  0  0  0  0
 10 21  1  0  0  0  0
 11 10  1  0  0  0  0
 11 23  1  0  0  0  0
 12 24  1  1  0  0  0
 12 11  1  0  0  0  0
 13  1  1  0  0  0  0
 14  2  1  0  0  0  0
 16  8  1  0  0  0  0
 17  8  1  0  0  0  0
 18  9  1  0  0  0  0
 22 11  1  0  0  0  0
 25 26  2  0  0  0  0
 25 12  1  0  0  0  0
 26 30  1  0  0  0  0
 27 31  1  0  0  0  0
 27 26  1  0  0  0  0
 28 27  2  0  0  0  0
 29 28  1  0  0  0  0
 29 25  1  0  0  0  0
 32 33  1  0  0  0  0
 32 28  1  0  0  0  0
 34 33  1  0  0  0  0
 35 34  1  0  0  0  0
 35 36  1  0  0  0  0
 36 32  1  0  0  0  0
M  END
>  <minimizedAffinity>
-5.90626764

$$$$

 OpenBabel03262523273D

 36 39  0  0  1  0  0  0  0  0999 V2000
   42.2600   21.8330   35.6500 C   0  0  0  0  0  0  0  0  0  0  0  0
   41.8960   21.3880   36.9160 C   0  0  0  0  0  0  0  0  0  0  0  0
   40.8480   22.0210   37.5470 C   0  0  0  0  0  0  0  0  0  0  0  0
   40.2320   23.0430   36.8950 N   0  0  0  0  0  0  0  0  0  0  0  0
   40.6090   23.4580   35.6540 C   0  0  0  0  0  0  0  0  0  0  0  0
   41.6160   22.8540   35.0400 N   0  0  0  0  0  0  0  0  0  0  0  0
   39.9020   24.5520   35.0350 N   0  0  0  0  0  0  0  0  0  0  0  0
   40.6360   25.5920   34.3680 C   0  0  0  0  0  0  0  0  0  0  0  0
   39.9370   26.9310   34.4190 C   0  0  0  0  0  0  0  0  0  0  0  0
   38.9700   26.9090   35.5880 C   0  0  0  0  0  0  0  0  0  0  0  0
   37.8760   25.9540   35.1710 C   0  0  0  0  0  0  0  0  0  0  0  0
   38.4390   24.5770   35.1090 C   0  0  1  0  0  0  0  0  0  0  0  0
   43.0670   21.4120   35.0610 H   0  0  0  0  0  0  0  0  0  0  0  0
   42.4390   20.5770   37.3510 H   0  0  0  0  0  0  0  0  0  0  0  0
   40.5280   21.7100   38.5340 H   0  0  0  0  0  0  0  0  0  0  0  0
   40.7610   25.3220   33.2980 H   0  0  0  0  0  0  0  0  0  0  0  0
   41.6670   25.6900   34.7740 H   0  0  0  0  0  0  0  0  0  0  0  0
   39.3220   27.0550   33.5020 H   0  0  0  0  0  0  0  0  0  0  0  0
   40.6650   27.7670   34.5740 H   0  0  0  0  0  0  0  0  0  0  0  0
   39.4330   26.5060   36.5120 H   0  0  0  0  0  0  0  0  0  0  0  0
   38.5640   27.9290   35.7500 H   0  0  0  0  0  0  0  0  0  0  0  0
   37.5250   26.3680   34.2050 H   0  0  0  0  0  0  0  0  0  0  0  0
   37.0200   26.0010   35.8890 H   0  0  0  0  0  0  0  0  0  0  0  0
   38.2160   24.0360   36.0710 H   0  0  0  0  0  0  0  0  0  0  0  0
   37.8310   23.7470   34.0490 C   0  0  0  0  0  0  0  0  0  0  0  0
   37.4710   24.1490   32.7610 C   0  0  0  0  0  0  0  0  0  0  0  0
   36.9220   23.2330   31.9350 C   0  0  0  0  0  0  0  0  0  0  0  0
   36.7350   21.8840   32.4240 C   0  0  0  0  0  0  0  0  0  0  0  0
   37.4280   22.0780   34.1780 S   0  0  0  0  0  0  0  0  0  0  0  0
   37.5770   25.1330   32.3210 H   0  0  0  0  0  0  0  0  0  0  0  0
   36.5570   23.2160   30.9450 H   0  0  0  0  0  0  0  0  0  0  0  0
   36.2450   20.6070   32.0310 C   0  0  0  0  0  3  0  0  0  0  0  0
   35.5250   19.9350   33.1730 C   0  0  0  0  0  2  0  0  0  0  0  0
   35.3280   18.5410   32.6290 C   0  0  0  0  0  2  0  0  0  0  0  0
   36.6160   18.2600   31.8880 C   0  0  0  0  0  2  0  0  0  0  0  0
   37.3080   19.5900   31.6740 C   0  0  0  0  0  2  0  0  0  0  0  0
  1  2  1  0  0  0  0
  2 14  1  0  0  0  0
  2  3  2  0  0  0  0
  3 15  1  0  0  0  0
  4  3  1  0  0  0  0
  5  4  2  0  0  0  0
  6  1  2  0  0  0  0
  6  5  1  0  0  0  0
  7 12  1  0  0  0  0
  7  5  1  0  0  0  0
  8  9  1  0  0  0  0
  8 17  1  0  0  0  0
  8  7  1  0  0  0  0
  9 19  1  0  0  0  0
  9 10  1  0  0  0  0
 10 21  1  0  0  0  0
 10 20  1  0  0  0  0
 11 10  1  0  0  0  0
 11 23  1  0  0  0  0
 12 11  1  0  0  0  0
 12 24  1  1  0  0  0
 13  1  1  0  0  0  0
 16  8  1  0  0  0  0
 18  9  1  0  0  0  0
 22 11  1  0  0  0  0
 25 29  1  0  0  0  0
 25 12  1  0  0  0  0
 26 25  2  0  0  0  0
 27 28  2  0  0  0  0
 27 26  1  0  0  0  0
 28 29  1  0  0  0  0
 30 26  1  0  0  0  0
 31 27  1  0  0  0  0
 32 28  1  0  0  0  0
 32 33  1  0  0  0  0
 34 33  1  0  0  0  0
 35 34  1  0  0  0  0
 36 35  1  0  0  0  0
 36 32  1  0  0  0  0
M  END
>  <minimizedAffinity>
-5.86111879

$$$$

 OpenBabel03262523273D

 36 39  0  0  1  0  0  0  0  0999 V2000
   38.3390   20.7260   32.5140 C   0  0  0  0  0  0  0  0  0  0  0  0
   36.9750   20.4560   32.5170 C   0  0  0  0  0  0  0  0  0  0  0  0
   36.2150   20.9790   33.5410 C   0  0  0  0  0  0  0  0  0  0  0  0
   36.8450   21.7260   34.4870 N   0  0  0  0  0  0  0  0  0  0  0  0
   38.1830   21.9750   34.4590 C   0  0  0  0  0  0  0  0  0  0  0  0
   38.9210   21.4760   33.4780 N   0  0  0  0  0  0  0  0  0  0  0  0
   38.7700   22.7760   35.5050 N   0  0  0  0  0  0  0  0  0  0  0  0
   40.0070   22.3660   36.1120 C   0  0  0  0  0  0  0  0  0  0  0  0
   40.1270   22.8010   37.5540 C   0  0  0  0  0  0  0  0  0  0  0  0
   38.7270   23.0550   38.0830 C   0  0  0  0  0  0  0  0  0  0  0  0
   38.2630   24.3050   37.3740 C   0  0  0  0  0  0  0  0  0  0  0  0
   38.0790   23.9970   35.9290 C   0  0  1  0  0  0  0  0  0  0  0  0
   39.0330   20.3680   31.7620 H   0  0  0  0  0  0  0  0  0  0  0  0
   36.5680   19.8590   31.7310 H   0  0  0  0  0  0  0  0  0  0  0  0
   35.1490   20.7970   33.5860 H   0  0  0  0  0  0  0  0  0  0  0  0
   40.8540   22.8190   35.5550 H   0  0  0  0  0  0  0  0  0  0  0  0
   40.1530   21.2660   36.0370 H   0  0  0  0  0  0  0  0  0  0  0  0
   40.6620   23.7740   37.5970 H   0  0  0  0  0  0  0  0  0  0  0  0
   40.6070   22.0090   38.1820 H   0  0  0  0  0  0  0  0  0  0  0  0
   38.0230   22.2400   37.8230 H   0  0  0  0  0  0  0  0  0  0  0  0
   38.7720   23.2160   39.1810 H   0  0  0  0  0  0  0  0  0  0  0  0
   39.0560   25.0440   37.6050 H   0  0  0  0  0  0  0  0  0  0  0  0
   37.3100   24.6810   37.8240 H   0  0  0  0  0  0  0  0  0  0  0  0
   36.9950   23.7670   35.7280 H   0  0  0  0  0  0  0  0  0  0  0  0
   38.4040   25.1350   35.0450 C   0  0  0  0  0  0  0  0  0  0  0  0
   39.4380   26.0600   35.2010 C   0  0  0  0  0  0  0  0  0  0  0  0
   39.5670   27.0370   34.2780 C   0  0  0  0  0  0  0  0  0  0  0  0
   38.6300   27.0760   33.1750 C   0  0  0  0  0  0  0  0  0  0  0  0
   37.5610   25.5720   33.6080 S   0  0  0  0  0  0  0  0  0  0  0  0
   40.1760   26.1000   35.9930 H   0  0  0  0  0  0  0  0  0  0  0  0
   40.2130   27.8540   34.1140 H   0  0  0  0  0  0  0  0  0  0  0  0
   38.3090   27.8150   32.0030 C   0  0  0  0  0  3  0  0  0  0  0  0
   36.9190   27.4820   31.5240 C   0  0  0  0  0  2  0  0  0  0  0  0
   36.8920   28.1580   30.1750 C   0  0  0  0  0  2  0  0  0  0  0  0
   38.2800   27.9160   29.6250 C   0  0  0  0  0  2  0  0  0  0  0  0
   39.1560   27.5000   30.7890 C   0  0  0  0  0  2  0  0  0  0  0  0
  1  2  2  0  0  0  0
  1  6  1  0  0  0  0
  2  3  1  0  0  0  0
  3 15  1  0  0  0  0
  3  4  2  0  0  0  0
  5  4  1  0  0  0  0
  5  7  1  0  0  0  0
  6  5  2  0  0  0  0
  7 12  1  0  0  0  0
  7  8  1  0  0  0  0
  8  9  1  0  0  0  0
  9 18  1  0  0  0  0
  9 10  1  0  0  0  0
  9 19  1  0  0  0  0
 10 21  1  0  0  0  0
 11 22  1  0  0  0  0
 11 23  1  0  0  0  0
 11 10  1  0  0  0  0
 12 24  1  6  0  0  0
 12 11  1  0  0  0  0
 13  1  1  0  0  0  0
 14  2  1  0  0  0  0
 16  8  1  0  0  0  0
 17  8  1  0  0  0  0
 20 10  1  0  0  0  0
 25 26  2  0  0  0  0
 25 12  1  0  0  0  0
 26 30  1  0  0  0  0
 27 26  1  0  0  0  0
 28 29  1  0  0  0  0
 28 27  2  0  0  0  0
 29 25  1  0  0  0  0
 31 27  1  0  0  0  0
 32 28  1  0  0  0  0
 33 32  1  0  0  0  0
 34 33  1  0  0  0  0
 35 34  1  0  0  0  0
 35 36  1  0  0  0  0
 36 32  1  0  0  0  0
M  END
>  <minimizedAffinity>
-5.53919458

$$$$

 OpenBabel03262523273D

 36 39  0  0  1  0  0  0  0  0999 V2000
   32.1550   29.8340   35.3380 C   0  0  0  0  0  0  0  0  0  0  0  0
   31.1760   29.1130   34.6630 C   0  0  0  0  0  0  0  0  0  0  0  0
   31.4690   28.6510   33.3990 C   0  0  0  0  0  0  0  0  0  0  0  0
   32.6980   28.9270   32.8860 N   0  0  0  0  0  0  0  0  0  0  0  0
   33.6390   29.6360   33.5700 C   0  0  0  0  0  0  0  0  0  0  0  0
   33.3650   30.0840   34.7860 N   0  0  0  0  0  0  0  0  0  0  0  0
   34.9170   29.8850   32.9500 N   0  0  0  0  0  0  0  0  0  0  0  0
   35.5080   31.1940   33.0290 C   0  0  0  0  0  0  0  0  0  0  0  0
   36.3720   31.5230   31.8340 C   0  0  0  0  0  0  0  0  0  0  0  0
   35.9370   30.6320   30.6850 C   0  0  0  0  0  0  0  0  0  0  0  0
   36.3880   29.2440   31.0760 C   0  0  0  0  0  0  0  0  0  0  0  0
   35.5830   28.7890   32.2430 C   0  0  1  0  0  0  0  0  0  0  0  0
   32.0370   30.2460   36.3330 H   0  0  0  0  0  0  0  0  0  0  0  0
   30.2380   28.9450   35.1460 H   0  0  0  0  0  0  0  0  0  0  0  0
   30.7390   28.0850   32.8340 H   0  0  0  0  0  0  0  0  0  0  0  0
   36.1520   31.2490   33.9320 H   0  0  0  0  0  0  0  0  0  0  0  0
   34.7350   31.9830   33.1650 H   0  0  0  0  0  0  0  0  0  0  0  0
   37.4250   31.2550   32.0620 H   0  0  0  0  0  0  0  0  0  0  0  0
   36.2490   32.5910   31.5230 H   0  0  0  0  0  0  0  0  0  0  0  0
   34.8360   30.6050   30.5630 H   0  0  0  0  0  0  0  0  0  0  0  0
   36.4400   30.9630   29.7520 H   0  0  0  0  0  0  0  0  0  0  0  0
   37.4730   29.3680   31.2660 H   0  0  0  0  0  0  0  0  0  0  0  0
   36.2760   28.5380   30.2160 H   0  0  0  0  0  0  0  0  0  0  0  0
   34.7280   28.1510   31.8830 H   0  0  0  0  0  0  0  0  0  0  0  0
   36.3430   27.9290   33.1740 C   0  0  0  0  0  0  0  0  0  0  0  0
   36.7190   28.2260   34.4850 C   0  0  0  0  0  0  0  0  0  0  0  0
   37.4180   27.3010   35.1760 C   0  0  0  0  0  0  0  0  0  0  0  0
   37.7420   26.0500   34.5240 C   0  0  0  0  0  0  0  0  0  0  0  0
   36.9390   26.3500   32.8330 S   0  0  0  0  0  0  0  0  0  0  0  0
   36.5160   29.1340   35.0420 H   0  0  0  0  0  0  0  0  0  0  0  0
   37.8340   27.2200   36.1420 H   0  0  0  0  0  0  0  0  0  0  0  0
   38.4040   24.8100   34.7440 C   0  0  0  0  0  3  0  0  0  0  0  0
   38.2350   24.3580   36.1720 C   0  0  0  0  0  2  0  0  0  0  0  0
   39.2010   23.2000   36.2410 C   0  0  0  0  0  2  0  0  0  0  0  0
   40.3810   23.6690   35.4200 C   0  0  0  0  0  2  0  0  0  0  0  0
   39.9100   24.8460   34.5910 C   0  0  0  0  0  2  0  0  0  0  0  0
  1 13  1  0  0  0  0
  2 14  1  0  0  0  0
  2  1  2  0  0  0  0
  3  2  1  0  0  0  0
  4  3  2  0  0  0  0
  4  5  1  0  0  0  0
  5  6  2  0  0  0  0
  6  1  1  0  0  0  0
  7  8  1  0  0  0  0
  7  5  1  0  0  0  0
  8 17  1  0  0  0  0
  8 16  1  0  0  0  0
  9 18  1  0  0  0  0
  9  8  1  0  0  0  0
 10 11  1  0  0  0  0
 10  9  1  0  0  0  0
 11 22  1  0  0  0  0
 11 12  1  0  0  0  0
 12 24  1  6  0  0  0
 12  7  1  0  0  0  0
 12 25  1  0  0  0  0
 15  3  1  0  0  0  0
 19  9  1  0  0  0  0
 20 10  1  0  0  0  0
 21 10  1  0  0  0  0
 23 11  1  0  0  0  0
 25 26  2  0  0  0  0
 26 30  1  0  0  0  0
 26 27  1  0  0  0  0
 27 31  1  0  0  0  0
 28 32  1  0  0  0  0
 28 27  2  0  0  0  0
 29 25  1  0  0  0  0
 29 28  1  0  0  0  0
 32 33  1  0  0  0  0
 33 34  1  0  0  0  0
 35 34  1  0  0  0  0
 36 32  1  0  0  0  0
 36 35  1  0  0  0  0
M  END
>  <minimizedAffinity>
-5.45786667

$$$$

 OpenBabel03262523273D

 36 39  0  0  1  0  0  0  0  0999 V2000
   39.3280   26.1620   29.8280 C   0  0  0  0  0  0  0  0  0  0  0  0
   40.7150   26.2330   29.8890 C   0  0  0  0  0  0  0  0  0  0  0  0
   41.3020   26.3480   31.1310 C   0  0  0  0  0  0  0  0  0  0  0  0
   40.4890   26.3870   32.2210 N   0  0  0  0  0  0  0  0  0  0  0  0
   39.1320   26.3150   32.1310 C   0  0  0  0  0  0  0  0  0  0  0  0
   38.5600   26.2030   30.9410 N   0  0  0  0  0  0  0  0  0  0  0  0
   38.3460   26.3650   33.3390 N   0  0  0  0  0  0  0  0  0  0  0  0
   37.1660   27.1850   33.3920 C   0  0  0  0  0  0  0  0  0  0  0  0
   36.8780   27.7130   34.7780 C   0  0  0  0  0  0  0  0  0  0  0  0
   38.1730   27.6790   35.5680 C   0  0  0  0  0  0  0  0  0  0  0  0
   38.4500   26.2120   35.7990 C   0  0  0  0  0  0  0  0  0  0  0  0
   38.7790   25.5750   34.4950 C   0  0  1  0  0  0  0  0  0  0  0  0
   38.7580   26.0700   28.9100 H   0  0  0  0  0  0  0  0  0  0  0  0
   41.2720   26.1950   28.9790 H   0  0  0  0  0  0  0  0  0  0  0  0
   42.3780   26.4070   31.2300 H   0  0  0  0  0  0  0  0  0  0  0  0
   36.2890   26.5820   33.0750 H   0  0  0  0  0  0  0  0  0  0  0  0
   37.2250   28.0300   32.6700 H   0  0  0  0  0  0  0  0  0  0  0  0
   36.1750   27.0230   35.2910 H   0  0  0  0  0  0  0  0  0  0  0  0
   36.5080   28.7690   34.7430 H   0  0  0  0  0  0  0  0  0  0  0  0
   39.0270   28.0970   34.9990 H   0  0  0  0  0  0  0  0  0  0  0  0
   38.0300   28.2120   36.5320 H   0  0  0  0  0  0  0  0  0  0  0  0
   37.5240   25.8480   36.2880 H   0  0  0  0  0  0  0  0  0  0  0  0
   39.2890   26.0820   36.5270 H   0  0  0  0  0  0  0  0  0  0  0  0
   39.8960   25.5220   34.3730 H   0  0  0  0  0  0  0  0  0  0  0  0
   38.3120   24.1760   34.3970 C   0  0  0  0  0  0  0  0  0  0  0  0
   38.2770   23.2220   35.4150 C   0  0  0  0  0  0  0  0  0  0  0  0
   37.8140   21.9880   35.1200 C   0  0  0  0  0  0  0  0  0  0  0  0
   37.3780   21.7180   33.7670 C   0  0  0  0  0  0  0  0  0  0  0  0
   37.7020   23.4120   32.9790 S   0  0  0  0  0  0  0  0  0  0  0  0
   38.5840   23.3440   36.4470 H   0  0  0  0  0  0  0  0  0  0  0  0
   37.6650   21.0830   35.6400 H   0  0  0  0  0  0  0  0  0  0  0  0
   36.8420   20.6860   32.9470 C   0  0  0  0  0  3  0  0  0  0  0  0
   36.6430   21.1730   31.5350 C   0  0  0  0  0  2  0  0  0  0  0  0
   35.8520   20.0380   30.9300 C   0  0  0  0  0  2  0  0  0  0  0  0
   34.9140   19.6230   32.0420 C   0  0  0  0  0  2  0  0  0  0  0  0
   35.4560   20.2140   33.3270 C   0  0  0  0  0  2  0  0  0  0  0  0
  1  2  2  0  0  0  0
  1  6  1  0  0  0  0
  2  3  1  0  0  0  0
  3 15  1  0  0  0  0
  3  4  2  0  0  0  0
  5  4  1  0  0  0  0
  5  7  1  0  0  0  0
  6  5  2  0  0  0  0
  7  8  1  0  0  0  0
  7 12  1  0  0  0  0
  8  9  1  0  0  0  0
  9 18  1  0  0  0  0
  9 10  1  0  0  0  0
 10 11  1  0  0  0  0
 10 21  1  0  0  0  0
 11 22  1  0  0  0  0
 11 23  1  0  0  0  0
 12 24  1  6  0  0  0
 12 11  1  0  0  0  0
 13  1  1  0  0  0  0
 14  2  1  0  0  0  0
 16  8  1  0  0  0  0
 17  8  1  0  0  0  0
 19  9  1  0  0  0  0
 20 10  1  0  0  0  0
 25 12  1  0  0  0  0
 25 26  2  0  0  0  0
 26 30  1  0  0  0  0
 27 26  1  0  0  0  0
 27 31  1  0  0  0  0
 28 27  2  0  0  0  0
 29 28  1  0  0  0  0
 29 25  1  0  0  0  0
 32 36  1  0  0  0  0
 32 28  1  0  0  0  0
 33 32  1  0  0  0  0
 34 33  1  0  0  0  0
 34 35  1  0  0  0  0
 35 36  1  0  0  0  0
M  END
>  <minimizedAffinity>
-5.43282557

$$$$

 OpenBabel03262523273D

 36 39  0  0  1  0  0  0  0  0999 V2000
   37.7800   23.3670   37.8230 C   0  0  0  0  0  0  0  0  0  0  0  0
   39.0510   23.2270   38.3700 C   0  0  0  0  0  0  0  0  0  0  0  0
   40.0700   22.8190   37.5370 C   0  0  0  0  0  0  0  0  0  0  0  0
   39.7730   22.5780   36.2320 N   0  0  0  0  0  0  0  0  0  0  0  0
   38.5180   22.7240   35.7240 C   0  0  0  0  0  0  0  0  0  0  0  0
   37.5320   23.1160   36.5170 N   0  0  0  0  0  0  0  0  0  0  0  0
   38.2910   22.4450   34.3270 N   0  0  0  0  0  0  0  0  0  0  0  0
   37.1390   21.6820   33.9280 C   0  0  0  0  0  0  0  0  0  0  0  0
   37.3720   20.8770   32.6710 C   0  0  0  0  0  0  0  0  0  0  0  0
   38.8690   20.6850   32.5120 C   0  0  0  0  0  0  0  0  0  0  0  0
   39.4030   22.0540   32.1600 C   0  0  0  0  0  0  0  0  0  0  0  0
   39.2530   22.9460   33.3430 C   0  0  1  0  0  0  0  0  0  0  0  0
   36.9040   23.6800   38.3800 H   0  0  0  0  0  0  0  0  0  0  0  0
   39.1900   23.4380   39.4070 H   0  0  0  0  0  0  0  0  0  0  0  0
   41.0770   22.6960   37.9160 H   0  0  0  0  0  0  0  0  0  0  0  0
   36.2940   22.3750   33.7290 H   0  0  0  0  0  0  0  0  0  0  0  0
   36.7900   21.0130   34.7460 H   0  0  0  0  0  0  0  0  0  0  0  0
   37.0340   21.4680   31.7930 H   0  0  0  0  0  0  0  0  0  0  0  0
   36.8880   19.8710   32.7350 H   0  0  0  0  0  0  0  0  0  0  0  0
   39.3570   20.3660   33.4550 H   0  0  0  0  0  0  0  0  0  0  0  0
   39.0620   19.9620   31.6910 H   0  0  0  0  0  0  0  0  0  0  0  0
   38.8110   22.3410   31.2690 H   0  0  0  0  0  0  0  0  0  0  0  0
   40.4750   21.9880   31.8460 H   0  0  0  0  0  0  0  0  0  0  0  0
   40.2220   22.9770   33.9150 H   0  0  0  0  0  0  0  0  0  0  0  0
   38.9710   24.3500   32.9800 C   0  0  0  0  0  0  0  0  0  0  0  0
   39.7420   25.1870   32.1710 C   0  0  0  0  0  0  0  0  0  0  0  0
   39.3110   26.4490   31.9600 C   0  0  0  0  0  0  0  0  0  0  0  0
   38.0740   26.8700   32.5830 C   0  0  0  0  0  0  0  0  0  0  0  0
   37.6080   25.2710   33.4880 S   0  0  0  0  0  0  0  0  0  0  0  0
   40.6740   24.9490   31.6710 H   0  0  0  0  0  0  0  0  0  0  0  0
   39.6470   27.2930   31.4240 H   0  0  0  0  0  0  0  0  0  0  0  0
   37.2060   27.9910   32.7050 C   0  0  0  0  0  3  0  0  0  0  0  0
   36.5880   28.0420   34.0790 C   0  0  0  0  0  2  0  0  0  0  0  0
   35.5440   29.1170   33.9030 C   0  0  0  0  0  2  0  0  0  0  0  0
   35.0000   28.8650   32.5140 C   0  0  0  0  0  2  0  0  0  0  0  0
   35.9910   27.9670   31.8030 C   0  0  0  0  0  2  0  0  0  0  0  0
  1  2  1  0  0  0  0
  1 13  1  0  0  0  0
  2 14  1  0  0  0  0
  3 15  1  0  0  0  0
  3  2  2  0  0  0  0
  4  3  1  0  0  0  0
  5  4  2  0  0  0  0
  5  6  1  0  0  0  0
  6  1  2  0  0  0  0
  7  5  1  0  0  0  0
  8  7  1  0  0  0  0
  8 17  1  0  0  0  0
  9 19  1  0  0  0  0
  9  8  1  0  0  0  0
 10  9  1  0  0  0  0
 10 20  1  0  0  0  0
 11 10  1  0  0  0  0
 11 12  1  0  0  0  0
 12 24  1  1  0  0  0
 12  7  1  0  0  0  0
 16  8  1  0  0  0  0
 18  9  1  0  0  0  0
 21 10  1  0  0  0  0
 22 11  1  0  0  0  0
 23 11  1  0  0  0  0
 25 12  1  0  0  0  0
 25 29  1  0  0  0  0
 26 25  2  0  0  0  0
 27 26  1  0  0  0  0
 27 28  2  0  0  0  0
 28 32  1  0  0  0  0
 28 29  1  0  0  0  0
 30 26  1  0  0  0  0
 31 27  1  0  0  0  0
 32 33  1  0  0  0  0
 34 33  1  0  0  0  0
 35 34  1  0  0  0  0
 36 35  1  0  0  0  0
 36 32  1  0  0  0  0
M  END
>  <minimizedAffinity>
-5.39277411

$$$$
