REMARK  Name = 
REMARK  2 active torsions:
REMARK  status: ('A' for Active; 'I' for Inactive)
REMARK    1  A    between atoms: C_1  and  O_10
REMARK    2  A    between atoms: O_10  and  C_15
REMARK                            x       y       z     vdW  Elec       q    Type
REMARK                         _______ _______ _______ _____ _____    ______ ____
ROOT
ATOM      1  C   UNL     1      37.378  30.123  51.101  0.00  0.00    +0.000 A 
ATOM      2  C   UNL     1      38.229  30.892  50.265  0.00  0.00    +0.000 A 
ATOM      3  C   UNL     1      37.687  31.439  49.098  0.00  0.00    +0.000 A 
ATOM      4  N   UNL     1      36.361  31.203  48.824  0.00  0.00    +0.000 NA
ATOM      5  C   UNL     1      35.593  30.466  49.649  0.00  0.00    +0.000 A 
ATOM      6  N   UNL     1      36.100  29.940  50.763  0.00  0.00    +0.000 NA
ATOM      7  C   UNL     1      33.910  28.841  49.205  0.00  0.00    +0.000 C 
ATOM      8  O   UNL     1      34.690  27.847  49.319  0.00  0.00    +0.000 OA
ATOM      9  N   UNL     1      34.210  30.233  49.342  0.00  0.00    +0.000 N 
ATOM     10  H   UNL     1      39.277  31.102  50.443  0.00  0.00    +0.000 HD
ATOM     11  H   UNL     1      38.243  32.036  48.397  0.00  0.00    +0.000 HD
ATOM     12  H   UNL     1      32.925  28.455  48.976  0.00  0.00    +0.000 HD
ATOM     13  H   UNL     1      33.423  30.877  49.209  0.00  0.00    +0.000 HD
ENDROOT
BRANCH   1  14
ATOM     14  O   UNL     1      38.073  29.665  52.198  0.00  0.00    +0.000 OA
BRANCH  14  15
ATOM     15  C   UNL     1      37.610  28.885  53.246  0.00  0.00    +0.000 C 
ATOM     16  C   UNL     1      36.647  27.882  52.636  0.00  0.00    +0.000 C 
ATOM     17  C   UNL     1      37.586  27.210  51.652  0.00  0.00    +0.000 C 
ATOM     18  C   UNL     1      38.923  27.194  52.338  0.00  0.00    +0.000 C 
ATOM     19  C   UNL     1      38.738  27.931  53.657  0.00  0.00    +0.000 C 
ENDBRANCH  14  15
ENDBRANCH   1  14
TORSDOF 2
