
 OpenBabel03272507023D

 42 45  0  0  1  0  0  0  0  0999 V2000
   36.5070   23.0110   31.2290 C   0  0  2  0  0  0  0  0  0  0  0  0
   37.6760   23.6210   31.9160 C   0  0  0  0  0  0  0  0  0  0  0  0
   37.2870   24.7920   32.8040 C   0  0  2  0  0  0  0  0  0  0  0  0
   36.5380   25.8490   32.1070 C   0  0  0  0  0  0  0  0  0  0  0  0
   35.5880   25.3290   31.0430 C   0  0  0  0  0  0  0  0  0  0  0  0
   35.2700   23.8700   31.2760 C   0  0  0  0  0  0  0  0  0  0  0  0
   36.6760   22.8240   30.1260 H   0  0  0  0  0  0  0  0  0  0  0  0
   38.2770   24.1120   31.0800 H   0  0  0  0  0  0  0  0  0  0  0  0
   38.3220   23.0070   32.5170 H   0  0  0  0  0  0  0  0  0  0  0  0
   36.6490   24.3300   33.5880 H   0  0  0  0  0  0  0  0  0  0  0  0
   37.0400   26.6990   31.6910 H   0  0  0  0  0  0  0  0  0  0  0  0
   35.8280   26.3000   32.8680 H   0  0  0  0  0  0  0  0  0  0  0  0
   36.1410   25.3910   30.0710 H   0  0  0  0  0  0  0  0  0  0  0  0
   34.6770   25.9160   30.9380 H   0  0  0  0  0  0  0  0  0  0  0  0
   34.8320   23.8120   32.3000 H   0  0  0  0  0  0  0  0  0  0  0  0
   34.5690   23.5450   30.5070 H   0  0  0  0  0  0  0  0  0  0  0  0
   38.4140   25.3710   33.4480 N   0  0  1  0  0  0  0  0  0  0  0  0
   38.5920   26.7650   33.0680 C   0  0  0  0  0  0  0  0  0  0  0  0
   39.8810   27.0920   33.8270 C   0  0  0  0  0  0  0  0  0  0  0  0
   39.6120   26.3830   35.1340 C   0  0  0  0  0  0  0  0  0  0  0  0
   38.5020   25.3690   34.8290 C   0  0  2  0  0  0  0  0  0  0  0  0
   38.7240   26.8810   31.9800 H   0  0  0  0  0  0  0  0  0  0  0  0
   37.8070   27.4180   33.4630 H   0  0  0  0  0  0  0  0  0  0  0  0
   40.6930   26.5860   33.2680 H   0  0  0  0  0  0  0  0  0  0  0  0
   40.0230   28.1740   33.9520 H   0  0  0  0  0  0  0  0  0  0  0  0
   39.3110   27.1360   35.8520 H   0  0  0  0  0  0  0  0  0  0  0  0
   40.5620   25.9190   35.4280 H   0  0  0  0  0  0  0  0  0  0  0  0
   37.5630   25.8890   35.1960 H   0  0  0  0  0  0  0  0  0  0  0  0
   38.6620   24.2230   35.6860 C   0  0  0  0  0  3  0  0  0  0  0  0
   38.1270   24.6150   37.0820 C   0  0  0  0  0  2  0  0  0  0  0  0
   38.6470   23.4950   37.9590 C   0  0  0  0  0  2  0  0  0  0  0  0
   39.5780   22.6510   37.0800 C   0  0  0  0  0  2  0  0  0  0  0  0
   40.0120   23.7540   36.0960 C   0  0  0  0  0  2  0  0  0  0  0  0
   36.1430   21.6830   31.7750 C   0  0  0  0  0  0  0  0  0  0  0  0
   36.1370   20.6490   30.8370 C   0  0  0  0  0  0  0  0  0  0  0  0
   35.8110   19.3660   31.2990 C   0  0  0  0  0  0  0  0  0  0  0  0
   35.5150   19.1900   32.6400 N   0  0  0  0  0  0  0  0  0  0  0  0
   35.5340   20.2360   33.5160 C   0  0  0  0  0  0  0  0  0  0  0  0
   35.8450   21.4380   33.0620 N   0  0  0  0  0  0  0  0  0  0  0  0
   36.3070   20.5060   29.7880 H   0  0  0  0  0  0  0  0  0  0  0  0
   35.7370   18.4290   30.8040 H   0  0  0  0  0  0  0  0  0  0  0  0
   35.3000   20.0790   34.5550 H   0  0  0  0  0  0  0  0  0  0  0  0
  1  7  1  6  0  0  0
  1  6  1  0  0  0  0
  1 34  1  0  0  0  0
  1  2  1  0  0  0  0
  2  9  1  0  0  0  0
  2  3  1  0  0  0  0
  3 17  1  0  0  0  0
  3 10  1  1  0  0  0
  4  3  1  0  0  0  0
  4 12  1  0  0  0  0
  5  6  1  0  0  0  0
  5  4  1  0  0  0  0
  6 15  1  0  0  0  0
  8  2  1  0  0  0  0
 11  4  1  0  0  0  0
 13  5  1  0  0  0  0
 14  5  1  0  0  0  0
 16  6  1  0  0  0  0
 17 18  1  1  0  0  0
 17 21  1  0  0  0  0
 18 23  1  0  0  0  0
 18 19  1  0  0  0  0
 19 25  1  0  0  0  0
 19 20  1  0  0  0  0
 20 27  1  0  0  0  0
 20 26  1  0  0  0  0
 21 20  1  0  0  0  0
 21 28  1  1  0  0  0
 21 29  1  0  0  0  0
 22 18  1  0  0  0  0
 24 19  1  0  0  0  0
 29 33  1  0  0  0  0
 29 30  1  0  0  0  0
 30 31  1  0  0  0  0
 32 31  1  0  0  0  0
 33 32  1  0  0  0  0
 34 39  1  0  0  0  0
 35 36  1  0  0  0  0
 35 34  2  0  0  0  0
 36 37  2  0  0  0  0
 37 38  1  0  0  0  0
 38 42  1  0  0  0  0
 39 38  2  0  0  0  0
 40 35  1  0  0  0  0
 41 36  1  0  0  0  0
M  END
>  <minimizedAffinity>
-6.01872349

$$$$

 OpenBabel03272507023D

 42 45  0  0  1  0  0  0  0  0999 V2000
   35.4860   30.6310   32.2050 C   0  0  2  0  0  0  0  0  0  0  0  0
   35.3180   29.1710   32.4280 C   0  0  0  0  0  0  0  0  0  0  0  0
   36.4980   28.3610   31.9160 C   0  0  2  0  0  0  0  0  0  0  0  0
   36.8150   28.5940   30.4990 C   0  0  0  0  0  0  0  0  0  0  0  0
   36.6000   30.0290   30.0490 C   0  0  0  0  0  0  0  0  0  0  0  0
   36.5900   30.9650   31.2350 C   0  0  0  0  0  0  0  0  0  0  0  0
   34.5700   31.1320   31.7700 H   0  0  0  0  0  0  0  0  0  0  0  0
   34.4680   28.8680   31.7300 H   0  0  0  0  0  0  0  0  0  0  0  0
   35.1240   28.8010   33.4180 H   0  0  0  0  0  0  0  0  0  0  0  0
   37.3460   28.6950   32.5530 H   0  0  0  0  0  0  0  0  0  0  0  0
   36.4130   27.9620   29.7320 H   0  0  0  0  0  0  0  0  0  0  0  0
   37.9370   28.4700   30.3900 H   0  0  0  0  0  0  0  0  0  0  0  0
   35.5760   30.0650   29.5950 H   0  0  0  0  0  0  0  0  0  0  0  0
   37.3050   30.3640   29.2910 H   0  0  0  0  0  0  0  0  0  0  0  0
   37.5710   30.8230   31.7450 H   0  0  0  0  0  0  0  0  0  0  0  0
   36.4590   31.9830   30.8670 H   0  0  0  0  0  0  0  0  0  0  0  0
   36.3210   26.9670   32.1280 N   0  0  1  0  0  0  0  0  0  0  0  0
   35.7210   26.3200   30.9700 C   0  0  0  0  0  0  0  0  0  0  0  0
   35.5820   24.8900   31.4980 C   0  0  0  0  0  0  0  0  0  0  0  0
   36.9000   24.7400   32.2220 C   0  0  0  0  0  0  0  0  0  0  0  0
   37.4050   26.1700   32.4520 C   0  0  2  0  0  0  0  0  0  0  0  0
   34.7390   26.7550   30.7200 H   0  0  0  0  0  0  0  0  0  0  0  0
   36.3920   26.2850   30.1060 H   0  0  0  0  0  0  0  0  0  0  0  0
   34.7410   24.9170   32.2200 H   0  0  0  0  0  0  0  0  0  0  0  0
   35.4580   24.1600   30.6870 H   0  0  0  0  0  0  0  0  0  0  0  0
   37.5530   24.1590   31.5830 H   0  0  0  0  0  0  0  0  0  0  0  0
   36.6760   24.1980   33.1500 H   0  0  0  0  0  0  0  0  0  0  0  0
   38.1570   26.3210   31.6160 H   0  0  0  0  0  0  0  0  0  0  0  0
   38.1750   26.2070   33.6690 C   0  0  0  0  0  3  0  0  0  0  0  0
   37.2930   26.8710   34.7510 C   0  0  0  0  0  2  0  0  0  0  0  0
   38.2910   27.1650   35.8520 C   0  0  0  0  0  2  0  0  0  0  0  0
   39.6760   26.8340   35.2830 C   0  0  0  0  0  2  0  0  0  0  0  0
   39.3690   27.0840   33.7940 C   0  0  0  0  0  2  0  0  0  0  0  0
   35.7560   31.3810   33.4540 C   0  0  0  0  0  0  0  0  0  0  0  0
   35.5710   30.6450   34.6270 C   0  0  0  0  0  0  0  0  0  0  0  0
   35.8230   31.2990   35.8400 C   0  0  0  0  0  0  0  0  0  0  0  0
   36.2350   32.6210   35.8180 N   0  0  0  0  0  0  0  0  0  0  0  0
   36.4000   33.2950   34.6430 C   0  0  0  0  0  0  0  0  0  0  0  0
   36.1580   32.6620   33.5090 N   0  0  0  0  0  0  0  0  0  0  0  0
   35.2650   29.6620   34.9250 H   0  0  0  0  0  0  0  0  0  0  0  0
   35.7610   30.9750   36.8490 H   0  0  0  0  0  0  0  0  0  0  0  0
   36.7200   34.3230   34.6470 H   0  0  0  0  0  0  0  0  0  0  0  0
  1  7  1  6  0  0  0
  1  2  1  0  0  0  0
  1 34  1  0  0  0  0
  2  9  1  0  0  0  0
  3 17  1  0  0  0  0
  3  2  1  0  0  0  0
  3 10  1  1  0  0  0
  4  3  1  0  0  0  0
  5  4  1  0  0  0  0
  5  6  1  0  0  0  0
  6 15  1  0  0  0  0
  6  1  1  0  0  0  0
  8  2  1  0  0  0  0
 11  4  1  0  0  0  0
 12  4  1  0  0  0  0
 13  5  1  0  0  0  0
 14  5  1  0  0  0  0
 16  6  1  0  0  0  0
 17 18  1  6  0  0  0
 17 21  1  0  0  0  0
 18 19  1  0  0  0  0
 19 24  1  0  0  0  0
 19 20  1  0  0  0  0
 20 21  1  0  0  0  0
 20 27  1  0  0  0  0
 21 28  1  6  0  0  0
 21 29  1  0  0  0  0
 22 18  1  0  0  0  0
 23 18  1  0  0  0  0
 25 19  1  0  0  0  0
 26 20  1  0  0  0  0
 29 33  1  0  0  0  0
 29 30  1  0  0  0  0
 30 31  1  0  0  0  0
 32 31  1  0  0  0  0
 33 32  1  0  0  0  0
 34 39  2  0  0  0  0
 34 35  1  0  0  0  0
 35 40  1  0  0  0  0
 35 36  2  0  0  0  0
 36 41  1  0  0  0  0
 37 36  1  0  0  0  0
 38 42  1  0  0  0  0
 38 37  2  0  0  0  0
 39 38  1  0  0  0  0
M  END
>  <minimizedAffinity>
-5.86656523

$$$$

 OpenBabel03272507023D

 42 45  0  0  1  0  0  0  0  0999 V2000
   38.8340   26.2230   35.4400 C   0  0  2  0  0  0  0  0  0  0  0  0
   37.7890   26.1500   34.3850 C   0  0  0  0  0  0  0  0  0  0  0  0
   38.3560   25.7760   33.0250 C   0  0  2  0  0  0  0  0  0  0  0  0
   39.4380   26.6580   32.5630 C   0  0  0  0  0  0  0  0  0  0  0  0
   40.3460   27.1510   33.6770 C   0  0  0  0  0  0  0  0  0  0  0  0
   40.2370   26.2580   34.8910 C   0  0  0  0  0  0  0  0  0  0  0  0
   38.7630   27.1500   36.0840 H   0  0  0  0  0  0  0  0  0  0  0  0
   37.4490   27.2290   34.2400 H   0  0  0  0  0  0  0  0  0  0  0  0
   36.9340   25.5140   34.5240 H   0  0  0  0  0  0  0  0  0  0  0  0
   38.7450   24.7450   33.1740 H   0  0  0  0  0  0  0  0  0  0  0  0
   39.2340   27.4980   31.9300 H   0  0  0  0  0  0  0  0  0  0  0  0
   40.1400   26.0170   31.9440 H   0  0  0  0  0  0  0  0  0  0  0  0
   39.9560   28.1580   33.9770 H   0  0  0  0  0  0  0  0  0  0  0  0
   41.3840   27.2800   33.3770 H   0  0  0  0  0  0  0  0  0  0  0  0
   40.5110   25.2340   34.5420 H   0  0  0  0  0  0  0  0  0  0  0  0
   40.9200   26.6310   35.6530 H   0  0  0  0  0  0  0  0  0  0  0  0
   37.3480   25.7170   32.0240 N   0  0  1  0  0  0  0  0  0  0  0  0
   36.5880   24.4770   32.0990 C   0  0  0  0  0  0  0  0  0  0  0  0
   35.6610   24.6530   30.8940 C   0  0  0  0  0  0  0  0  0  0  0  0
   35.3060   26.1150   31.0370 C   0  0  0  0  0  0  0  0  0  0  0  0
   36.3900   26.7120   31.9440 C   0  0  2  0  0  0  0  0  0  0  0  0
   37.2350   23.5920   31.9850 H   0  0  0  0  0  0  0  0  0  0  0  0
   35.9570   24.4180   32.9910 H   0  0  0  0  0  0  0  0  0  0  0  0
   36.2960   24.4900   30.0010 H   0  0  0  0  0  0  0  0  0  0  0  0
   34.7830   23.9950   30.9510 H   0  0  0  0  0  0  0  0  0  0  0  0
   34.3160   26.1640   31.4720 H   0  0  0  0  0  0  0  0  0  0  0  0
   35.3080   26.5270   30.0200 H   0  0  0  0  0  0  0  0  0  0  0  0
   35.8920   26.7400   32.9630 H   0  0  0  0  0  0  0  0  0  0  0  0
   36.5990   28.0900   31.5830 C   0  0  0  0  0  3  0  0  0  0  0  0
   35.3090   28.8600   31.9460 C   0  0  0  0  0  2  0  0  0  0  0  0
   35.5020   30.1800   31.2280 C   0  0  0  0  0  2  0  0  0  0  0  0
   36.7640   30.0280   30.3700 C   0  0  0  0  0  2  0  0  0  0  0  0
   36.7050   28.5030   30.1590 C   0  0  0  0  0  2  0  0  0  0  0  0
   38.7640   25.1000   36.4030 C   0  0  0  0  0  0  0  0  0  0  0  0
   39.5570   23.9990   36.0730 C   0  0  0  0  0  0  0  0  0  0  0  0
   39.5420   22.9100   36.9550 C   0  0  0  0  0  0  0  0  0  0  0  0
   38.7520   22.9770   38.0900 N   0  0  0  0  0  0  0  0  0  0  0  0
   37.9940   24.0780   38.3670 C   0  0  0  0  0  0  0  0  0  0  0  0
   38.0230   25.0950   37.5240 N   0  0  0  0  0  0  0  0  0  0  0  0
   40.2250   23.6870   35.2940 H   0  0  0  0  0  0  0  0  0  0  0  0
   40.0420   21.9740   36.9380 H   0  0  0  0  0  0  0  0  0  0  0  0
   37.3870   24.1100   39.2550 H   0  0  0  0  0  0  0  0  0  0  0  0
  1  7  1  1  0  0  0
  1 34  1  0  0  0  0
  2  9  1  0  0  0  0
  2  1  1  0  0  0  0
  3 10  1  1  0  0  0
  3  2  1  0  0  0  0
  4  3  1  0  0  0  0
  4  5  1  0  0  0  0
  5 13  1  0  0  0  0
  5  6  1  0  0  0  0
  6  1  1  0  0  0  0
  6 16  1  0  0  0  0
  8  2  1  0  0  0  0
 11  4  1  0  0  0  0
 12  4  1  0  0  0  0
 14  5  1  0  0  0  0
 15  6  1  0  0  0  0
 17 18  1  1  0  0  0
 17  3  1  0  0  0  0
 18 23  1  0  0  0  0
 19 25  1  0  0  0  0
 19 20  1  0  0  0  0
 19 18  1  0  0  0  0
 20 26  1  0  0  0  0
 20 21  1  0  0  0  0
 21 17  1  0  0  0  0
 21 28  1  1  0  0  0
 22 18  1  0  0  0  0
 24 19  1  0  0  0  0
 27 20  1  0  0  0  0
 29 21  1  0  0  0  0
 29 30  1  0  0  0  0
 31 30  1  0  0  0  0
 32 31  1  0  0  0  0
 33 32  1  0  0  0  0
 33 29  1  0  0  0  0
 34 39  1  0  0  0  0
 35 34  2  0  0  0  0
 35 36  1  0  0  0  0
 36 37  2  0  0  0  0
 37 38  1  0  0  0  0
 38 42  1  0  0  0  0
 39 38  2  0  0  0  0
 40 35  1  0  0  0  0
 41 36  1  0  0  0  0
M  END
>  <minimizedAffinity>
-5.61341572

$$$$

 OpenBabel03272507023D

 42 45  0  0  1  0  0  0  0  0999 V2000
   36.8840   28.0860   32.1130 C   0  0  2  0  0  0  0  0  0  0  0  0
   36.4900   28.6060   33.4490 C   0  0  0  0  0  0  0  0  0  0  0  0
   35.3980   29.6610   33.3680 C   0  0  2  0  0  0  0  0  0  0  0  0
   35.7250   30.7960   32.4920 C   0  0  0  0  0  0  0  0  0  0  0  0
   36.5300   30.4110   31.2630 C   0  0  0  0  0  0  0  0  0  0  0  0
   36.3880   28.9360   30.9710 C   0  0  0  0  0  0  0  0  0  0  0  0
   38.0030   28.0350   31.9580 H   0  0  0  0  0  0  0  0  0  0  0  0
   37.3990   29.1950   33.8090 H   0  0  0  0  0  0  0  0  0  0  0  0
   36.1730   27.9230   34.2160 H   0  0  0  0  0  0  0  0  0  0  0  0
   34.5250   29.1080   32.9610 H   0  0  0  0  0  0  0  0  0  0  0  0
   36.1650   31.6900   32.8870 H   0  0  0  0  0  0  0  0  0  0  0  0
   34.7480   31.1520   32.0410 H   0  0  0  0  0  0  0  0  0  0  0  0
   37.6050   30.5910   31.5220 H   0  0  0  0  0  0  0  0  0  0  0  0
   36.3030   31.0090   30.3810 H   0  0  0  0  0  0  0  0  0  0  0  0
   35.2950   28.7540   30.8370 H   0  0  0  0  0  0  0  0  0  0  0  0
   36.9580   28.7080   30.0710 H   0  0  0  0  0  0  0  0  0  0  0  0
   35.0370   30.1550   34.6510 N   0  0  1  0  0  0  0  0  0  0  0  0
   35.6470   31.4500   34.9190 C   0  0  0  0  0  0  0  0  0  0  0  0
   35.1620   31.6890   36.3510 C   0  0  0  0  0  0  0  0  0  0  0  0
   33.7370   31.2000   36.2390 C   0  0  0  0  0  0  0  0  0  0  0  0
   33.7040   30.3210   34.9820 C   0  0  2  0  0  0  0  0  0  0  0  0
   36.7480   31.4040   34.8670 H   0  0  0  0  0  0  0  0  0  0  0  0
   35.2370   32.2520   34.2970 H   0  0  0  0  0  0  0  0  0  0  0  0
   35.7600   31.0070   36.9870 H   0  0  0  0  0  0  0  0  0  0  0  0
   35.2270   32.7470   36.6370 H   0  0  0  0  0  0  0  0  0  0  0  0
   33.1030   32.0750   36.1590 H   0  0  0  0  0  0  0  0  0  0  0  0
   33.5310   30.6500   37.1660 H   0  0  0  0  0  0  0  0  0  0  0  0
   33.2750   31.0110   34.1900 H   0  0  0  0  0  0  0  0  0  0  0  0
   32.7190   29.2850   35.1590 C   0  0  0  0  0  3  0  0  0  0  0  0
   31.5270   29.6230   34.2350 C   0  0  0  0  0  2  0  0  0  0  0  0
   30.4450   28.6930   34.7430 C   0  0  0  0  0  2  0  0  0  0  0  0
   31.0020   28.0290   36.0090 C   0  0  0  0  0  2  0  0  0  0  0  0
   31.9720   29.1460   36.4360 C   0  0  0  0  0  2  0  0  0  0  0  0
   36.4150   26.7020   31.8690 C   0  0  0  0  0  0  0  0  0  0  0  0
   37.1920   25.7100   32.4700 C   0  0  0  0  0  0  0  0  0  0  0  0
   36.7900   24.3800   32.2840 C   0  0  0  0  0  0  0  0  0  0  0  0
   35.6610   24.1200   31.5260 N   0  0  0  0  0  0  0  0  0  0  0  0
   34.9360   25.1280   30.9590 C   0  0  0  0  0  0  0  0  0  0  0  0
   35.3300   26.3750   31.1460 N   0  0  0  0  0  0  0  0  0  0  0  0
   38.0760   25.6270   33.0710 H   0  0  0  0  0  0  0  0  0  0  0  0
   37.1950   23.4600   32.6250 H   0  0  0  0  0  0  0  0  0  0  0  0
   34.0610   24.9050   30.3730 H   0  0  0  0  0  0  0  0  0  0  0  0
  1  7  1  6  0  0  0
  1  2  1  0  0  0  0
  2  8  1  0  0  0  0
  2  9  1  0  0  0  0
  3 10  1  6  0  0  0
  3  2  1  0  0  0  0
  3 17  1  0  0  0  0
  4 11  1  0  0  0  0
  4  3  1  0  0  0  0
  5 13  1  0  0  0  0
  5  4  1  0  0  0  0
  6  5  1  0  0  0  0
  6  1  1  0  0  0  0
 12  4  1  0  0  0  0
 14  5  1  0  0  0  0
 15  6  1  0  0  0  0
 16  6  1  0  0  0  0
 17 18  1  6  0  0  0
 17 21  1  0  0  0  0
 18 19  1  0  0  0  0
 19 25  1  0  0  0  0
 19 24  1  0  0  0  0
 20 19  1  0  0  0  0
 20 27  1  0  0  0  0
 21 28  1  6  0  0  0
 21 29  1  0  0  0  0
 21 20  1  0  0  0  0
 22 18  1  0  0  0  0
 23 18  1  0  0  0  0
 26 20  1  0  0  0  0
 29 33  1  0  0  0  0
 30 31  1  0  0  0  0
 30 29  1  0  0  0  0
 31 32  1  0  0  0  0
 32 33  1  0  0  0  0
 34  1  1  0  0  0  0
 34 35  1  0  0  0  0
 35 40  1  0  0  0  0
 36 35  2  0  0  0  0
 36 41  1  0  0  0  0
 37 36  1  0  0  0  0
 38 39  1  0  0  0  0
 38 37  2  0  0  0  0
 39 34  2  0  0  0  0
 42 38  1  0  0  0  0
M  END
>  <minimizedAffinity>
-5.58971167

$$$$

 OpenBabel03272507023D

 42 45  0  0  1  0  0  0  0  0999 V2000
   36.7800   27.9990   32.2290 C   0  0  2  0  0  0  0  0  0  0  0  0
   35.7140   28.5990   33.0730 C   0  0  0  0  0  0  0  0  0  0  0  0
   34.6840   29.3650   32.2590 C   0  0  2  0  0  0  0  0  0  0  0  0
   35.2560   30.4110   31.3990 C   0  0  0  0  0  0  0  0  0  0  0  0
   36.6060   30.0470   30.8040 C   0  0  0  0  0  0  0  0  0  0  0  0
   36.8140   28.5510   30.8260 C   0  0  0  0  0  0  0  0  0  0  0  0
   37.8250   28.1760   32.6240 H   0  0  0  0  0  0  0  0  0  0  0  0
   36.2430   29.4190   33.6660 H   0  0  0  0  0  0  0  0  0  0  0  0
   35.1480   27.9760   33.7410 H   0  0  0  0  0  0  0  0  0  0  0  0
   34.2050   28.5810   31.6340 H   0  0  0  0  0  0  0  0  0  0  0  0
   35.3260   31.4260   31.7360 H   0  0  0  0  0  0  0  0  0  0  0  0
   34.5950   30.4760   30.4810 H   0  0  0  0  0  0  0  0  0  0  0  0
   37.3780   30.4940   31.4810 H   0  0  0  0  0  0  0  0  0  0  0  0
   36.7720   30.4510   29.8070 H   0  0  0  0  0  0  0  0  0  0  0  0
   35.9640   28.1150   30.2490 H   0  0  0  0  0  0  0  0  0  0  0  0
   37.7780   28.3320   30.3690 H   0  0  0  0  0  0  0  0  0  0  0  0
   33.6760   29.9400   33.0800 N   0  0  1  0  0  0  0  0  0  0  0  0
   32.4040   29.2450   32.9350 C   0  0  0  0  0  0  0  0  0  0  0  0
   31.5200   30.1030   33.8430 C   0  0  0  0  0  0  0  0  0  0  0  0
   32.4660   30.3380   34.9990 C   0  0  0  0  0  0  0  0  0  0  0  0
   33.8660   30.0420   34.4460 C   0  0  2  0  0  0  0  0  0  0  0  0
   32.0460   29.2580   31.8930 H   0  0  0  0  0  0  0  0  0  0  0  0
   32.4210   28.2350   33.3560 H   0  0  0  0  0  0  0  0  0  0  0  0
   31.3430   31.0450   33.2860 H   0  0  0  0  0  0  0  0  0  0  0  0
   30.6040   29.5770   34.1440 H   0  0  0  0  0  0  0  0  0  0  0  0
   32.1740   29.6640   35.7940 H   0  0  0  0  0  0  0  0  0  0  0  0
   32.3230   31.3840   35.2990 H   0  0  0  0  0  0  0  0  0  0  0  0
   34.0730   28.9860   34.8070 H   0  0  0  0  0  0  0  0  0  0  0  0
   34.8260   30.8720   35.1290 C   0  0  0  0  0  3  0  0  0  0  0  0
   34.1140   31.4820   36.3580 C   0  0  0  0  0  2  0  0  0  0  0  0
   35.0760   32.5700   36.7870 C   0  0  0  0  0  2  0  0  0  0  0  0
   36.1600   32.6430   35.7050 C   0  0  0  0  0  2  0  0  0  0  0  0
   35.3220   32.1330   34.5170 C   0  0  0  0  0  2  0  0  0  0  0  0
   36.6720   26.5260   32.1210 C   0  0  0  0  0  0  0  0  0  0  0  0
   35.6860   26.0760   31.2400 C   0  0  0  0  0  0  0  0  0  0  0  0
   35.5460   24.6900   31.0880 C   0  0  0  0  0  0  0  0  0  0  0  0
   36.3780   23.8480   31.8060 N   0  0  0  0  0  0  0  0  0  0  0  0
   37.3270   24.3390   32.6560 C   0  0  0  0  0  0  0  0  0  0  0  0
   37.4450   25.6490   32.7850 N   0  0  0  0  0  0  0  0  0  0  0  0
   34.9330   26.4810   30.5950 H   0  0  0  0  0  0  0  0  0  0  0  0
   34.8910   24.1020   30.4950 H   0  0  0  0  0  0  0  0  0  0  0  0
   37.9630   23.6680   33.2060 H   0  0  0  0  0  0  0  0  0  0  0  0
  1  7  1  1  0  0  0
  1  2  1  0  0  0  0
  2  8  1  0  0  0  0
  2  9  1  0  0  0  0
  3 10  1  6  0  0  0
  3  2  1  0  0  0  0
  3 17  1  0  0  0  0
  4 11  1  0  0  0  0
  4  3  1  0  0  0  0
  5  6  1  0  0  0  0
  5  4  1  0  0  0  0
  5 13  1  0  0  0  0
  6  1  1  0  0  0  0
 12  4  1  0  0  0  0
 14  5  1  0  0  0  0
 15  6  1  0  0  0  0
 16  6  1  0  0  0  0
 17 18  1  1  0  0  0
 17 21  1  0  0  0  0
 18 23  1  0  0  0  0
 18 19  1  0  0  0  0
 19 25  1  0  0  0  0
 19 20  1  0  0  0  0
 20 27  1  0  0  0  0
 20 26  1  0  0  0  0
 21 28  1  1  0  0  0
 21 20  1  0  0  0  0
 21 29  1  0  0  0  0
 22 18  1  0  0  0  0
 24 19  1  0  0  0  0
 29 30  1  0  0  0  0
 30 31  1  0  0  0  0
 32 31  1  0  0  0  0
 33 29  1  0  0  0  0
 33 32  1  0  0  0  0
 34  1  1  0  0  0  0
 34 39  1  0  0  0  0
 35 34  2  0  0  0  0
 36 35  1  0  0  0  0
 36 37  2  0  0  0  0
 37 38  1  0  0  0  0
 38 39  2  0  0  0  0
 38 42  1  0  0  0  0
 40 35  1  0  0  0  0
 41 36  1  0  0  0  0
M  END
>  <minimizedAffinity>
-5.53766966

$$$$

 OpenBabel03272507023D

 42 45  0  0  1  0  0  0  0  0999 V2000
   36.8930   23.8010   31.2500 C   0  0  2  0  0  0  0  0  0  0  0  0
   37.7670   24.5900   32.1570 C   0  0  0  0  0  0  0  0  0  0  0  0
   36.9980   25.6390   32.9430 C   0  0  2  0  0  0  0  0  0  0  0  0
   36.2190   26.5650   32.1070 C   0  0  0  0  0  0  0  0  0  0  0  0
   35.6130   25.9170   30.8740 C   0  0  0  0  0  0  0  0  0  0  0  0
   35.5330   24.4170   31.0430 C   0  0  0  0  0  0  0  0  0  0  0  0
   37.3100   23.6860   30.2040 H   0  0  0  0  0  0  0  0  0  0  0  0
   38.4200   25.2120   31.4580 H   0  0  0  0  0  0  0  0  0  0  0  0
   38.3830   24.0850   32.8770 H   0  0  0  0  0  0  0  0  0  0  0  0
   36.3140   25.0420   33.5840 H   0  0  0  0  0  0  0  0  0  0  0  0
   36.6270   27.5070   31.7980 H   0  0  0  0  0  0  0  0  0  0  0  0
   35.3010   26.8520   32.7060 H   0  0  0  0  0  0  0  0  0  0  0  0
   36.3280   26.1130   30.0330 H   0  0  0  0  0  0  0  0  0  0  0  0
   34.6490   26.3310   30.5850 H   0  0  0  0  0  0  0  0  0  0  0  0
   34.9180   24.2450   31.9580 H   0  0  0  0  0  0  0  0  0  0  0  0
   35.0710   23.9960   30.1500 H   0  0  0  0  0  0  0  0  0  0  0  0
   37.8460   26.3920   33.8000 N   0  0  1  0  0  0  0  0  0  0  0  0
   37.4810   26.2250   35.1990 C   0  0  0  0  0  0  0  0  0  0  0  0
   38.4800   27.1800   35.8580 C   0  0  0  0  0  0  0  0  0  0  0  0
   39.7200   26.8740   35.0500 C   0  0  0  0  0  0  0  0  0  0  0  0
   39.2160   26.1970   33.7690 C   0  0  2  0  0  0  0  0  0  0  0  0
   36.4410   26.5340   35.3920 H   0  0  0  0  0  0  0  0  0  0  0  0
   37.6930   25.2200   35.5780 H   0  0  0  0  0  0  0  0  0  0  0  0
   38.1100   28.2010   35.6350 H   0  0  0  0  0  0  0  0  0  0  0  0
   38.6080   26.9700   36.9280 H   0  0  0  0  0  0  0  0  0  0  0  0
   40.3440   26.2270   35.6530 H   0  0  0  0  0  0  0  0  0  0  0  0
   40.2120   27.8390   34.8720 H   0  0  0  0  0  0  0  0  0  0  0  0
   39.3720   25.0920   33.9770 H   0  0  0  0  0  0  0  0  0  0  0  0
   40.1120   26.5100   32.6860 C   0  0  0  0  0  3  0  0  0  0  0  0
   41.3320   27.2380   33.2960 C   0  0  0  0  0  2  0  0  0  0  0  0
   42.0180   27.8100   32.0730 C   0  0  0  0  0  2  0  0  0  0  0  0
   41.0820   27.5460   30.8870 C   0  0  0  0  0  2  0  0  0  0  0  0
   39.7490   27.5200   31.6570 C   0  0  0  0  0  2  0  0  0  0  0  0
   36.6800   22.4110   31.7150 C   0  0  0  0  0  0  0  0  0  0  0  0
   35.3620   22.1050   32.0570 C   0  0  0  0  0  0  0  0  0  0  0  0
   35.0980   20.8000   32.4940 C   0  0  0  0  0  0  0  0  0  0  0  0
   36.1410   19.8920   32.5640 N   0  0  0  0  0  0  0  0  0  0  0  0
   37.4140   20.2420   32.2180 C   0  0  0  0  0  0  0  0  0  0  0  0
   37.6430   21.4770   31.8080 N   0  0  0  0  0  0  0  0  0  0  0  0
   34.4060   22.5880   32.1070 H   0  0  0  0  0  0  0  0  0  0  0  0
   34.2040   20.3210   32.8050 H   0  0  0  0  0  0  0  0  0  0  0  0
   38.2120   19.5220   32.2800 H   0  0  0  0  0  0  0  0  0  0  0  0
  1  7  1  6  0  0  0
  1 34  1  0  0  0  0
  1  2  1  0  0  0  0
  2  9  1  0  0  0  0
  2  3  1  0  0  0  0
  3 10  1  1  0  0  0
  3 17  1  0  0  0  0
  4 12  1  0  0  0  0
  4  3  1  0  0  0  0
  5  6  1  0  0  0  0
  5  4  1  0  0  0  0
  6  1  1  0  0  0  0
  6 15  1  0  0  0  0
  8  2  1  0  0  0  0
 11  4  1  0  0  0  0
 13  5  1  0  0  0  0
 14  5  1  0  0  0  0
 16  6  1  0  0  0  0
 17 18  1  1  0  0  0
 18 22  1  0  0  0  0
 18 23  1  0  0  0  0
 18 19  1  0  0  0  0
 19 25  1  0  0  0  0
 20 26  1  0  0  0  0
 20 19  1  0  0  0  0
 21 17  1  0  0  0  0
 21 28  1  1  0  0  0
 21 20  1  0  0  0  0
 24 19  1  0  0  0  0
 27 20  1  0  0  0  0
 29 30  1  0  0  0  0
 29 21  1  0  0  0  0
 31 30  1  0  0  0  0
 32 33  1  0  0  0  0
 32 31  1  0  0  0  0
 33 29  1  0  0  0  0
 34 39  2  0  0  0  0
 34 35  1  0  0  0  0
 35 40  1  0  0  0  0
 35 36  2  0  0  0  0
 36 37  1  0  0  0  0
 36 41  1  0  0  0  0
 38 42  1  0  0  0  0
 38 37  2  0  0  0  0
 39 38  1  0  0  0  0
M  END
>  <minimizedAffinity>
-5.4876256

$$$$

 OpenBabel03272507023D

 42 45  0  0  1  0  0  0  0  0999 V2000
   36.0490   29.4110   32.7630 C   0  0  2  0  0  0  0  0  0  0  0  0
   35.5480   29.7500   34.1210 C   0  0  0  0  0  0  0  0  0  0  0  0
   34.0950   30.1980   34.1140 C   0  0  2  0  0  0  0  0  0  0  0  0
   33.8190   31.3240   33.2080 C   0  0  0  0  0  0  0  0  0  0  0  0
   34.6320   31.2930   31.9250 C   0  0  0  0  0  0  0  0  0  0  0  0
   35.1520   29.9010   31.6550 C   0  0  0  0  0  0  0  0  0  0  0  0
   37.0590   29.8620   32.5260 H   0  0  0  0  0  0  0  0  0  0  0  0
   36.1140   30.6990   34.4080 H   0  0  0  0  0  0  0  0  0  0  0  0
   35.6220   29.0290   34.9130 H   0  0  0  0  0  0  0  0  0  0  0  0
   33.5410   29.2960   33.7760 H   0  0  0  0  0  0  0  0  0  0  0  0
   33.8320   32.3350   33.5630 H   0  0  0  0  0  0  0  0  0  0  0  0
   32.7600   31.1850   32.8280 H   0  0  0  0  0  0  0  0  0  0  0  0
   35.5240   31.9470   32.1030 H   0  0  0  0  0  0  0  0  0  0  0  0
   34.1050   31.6900   31.0590 H   0  0  0  0  0  0  0  0  0  0  0  0
   34.2530   29.2430   31.6030 H   0  0  0  0  0  0  0  0  0  0  0  0
   35.7060   29.9180   30.7160 H   0  0  0  0  0  0  0  0  0  0  0  0
   33.6320   30.5280   35.4160 N   0  0  1  0  0  0  0  0  0  0  0  0
   34.1500   31.8140   35.8610 C   0  0  0  0  0  0  0  0  0  0  0  0
   33.5680   31.8670   37.2760 C   0  0  0  0  0  0  0  0  0  0  0  0
   32.1820   31.3220   37.0200 C   0  0  0  0  0  0  0  0  0  0  0  0
   32.2740   30.5870   35.6770 C   0  0  2  0  0  0  0  0  0  0  0  0
   35.2520   31.8300   35.8760 H   0  0  0  0  0  0  0  0  0  0  0  0
   33.7300   32.6580   35.3040 H   0  0  0  0  0  0  0  0  0  0  0  0
   34.1660   31.1500   37.8730 H   0  0  0  0  0  0  0  0  0  0  0  0
   33.5550   32.8890   37.6790 H   0  0  0  0  0  0  0  0  0  0  0  0
   31.5050   32.1670   36.9950 H   0  0  0  0  0  0  0  0  0  0  0  0
   31.9550   30.6630   37.8670 H   0  0  0  0  0  0  0  0  0  0  0  0
   31.8530   31.3380   34.9370 H   0  0  0  0  0  0  0  0  0  0  0  0
   31.3420   29.4890   35.6760 C   0  0  0  0  0  3  0  0  0  0  0  0
   31.8200   28.4810   36.7460 C   0  0  0  0  0  2  0  0  0  0  0  0
   30.9970   27.2500   36.4270 C   0  0  0  0  0  2  0  0  0  0  0  0
   30.2540   27.5510   35.1190 C   0  0  0  0  0  2  0  0  0  0  0  0
   31.2560   28.5560   34.5220 C   0  0  0  0  0  2  0  0  0  0  0  0
   36.2410   27.9550   32.5640 C   0  0  0  0  0  0  0  0  0  0  0  0
   37.0320   27.3340   33.5320 C   0  0  0  0  0  0  0  0  0  0  0  0
   37.2390   25.9540   33.4020 C   0  0  0  0  0  0  0  0  0  0  0  0
   36.6580   25.2860   32.3370 N   0  0  0  0  0  0  0  0  0  0  0  0
   35.8930   25.9410   31.4170 C   0  0  0  0  0  0  0  0  0  0  0  0
   35.7080   27.2420   31.5570 N   0  0  0  0  0  0  0  0  0  0  0  0
   37.5870   27.5940   34.4110 H   0  0  0  0  0  0  0  0  0  0  0  0
   37.7860   25.2580   33.9880 H   0  0  0  0  0  0  0  0  0  0  0  0
   35.4500   25.4030   30.5960 H   0  0  0  0  0  0  0  0  0  0  0  0
  1  7  1  6  0  0  0
  1  2  1  0  0  0  0
  2  8  1  0  0  0  0
  2  9  1  0  0  0  0
  3 10  1  6  0  0  0
  3  2  1  0  0  0  0
  3 17  1  0  0  0  0
  4 11  1  0  0  0  0
  4  3  1  0  0  0  0
  5 13  1  0  0  0  0
  5  4  1  0  0  0  0
  6  5  1  0  0  0  0
  6  1  1  0  0  0  0
 12  4  1  0  0  0  0
 14  5  1  0  0  0  0
 15  6  1  0  0  0  0
 16  6  1  0  0  0  0
 17 21  1  0  0  0  0
 17 18  1  6  0  0  0
 18 22  1  0  0  0  0
 18 19  1  0  0  0  0
 19 25  1  0  0  0  0
 19 24  1  0  0  0  0
 20 19  1  0  0  0  0
 20 27  1  0  0  0  0
 21 28  1  6  0  0  0
 21 20  1  0  0  0  0
 23 18  1  0  0  0  0
 26 20  1  0  0  0  0
 29 21  1  0  0  0  0
 29 30  1  0  0  0  0
 31 30  1  0  0  0  0
 32 31  1  0  0  0  0
 33 32  1  0  0  0  0
 33 29  1  0  0  0  0
 34  1  1  0  0  0  0
 34 35  1  0  0  0  0
 35 40  1  0  0  0  0
 36 35  2  0  0  0  0
 36 41  1  0  0  0  0
 37 36  1  0  0  0  0
 38 39  1  0  0  0  0
 38 37  2  0  0  0  0
 39 34  2  0  0  0  0
 42 38  1  0  0  0  0
M  END
>  <minimizedAffinity>
-5.4161191

$$$$

 OpenBabel03272507023D

 42 45  0  0  1  0  0  0  0  0999 V2000
   37.8570   22.2150   32.5020 C   0  0  2  0  0  0  0  0  0  0  0  0
   38.4550   22.2920   33.8610 C   0  0  0  0  0  0  0  0  0  0  0  0
   37.9560   23.4900   34.6530 C   0  0  2  0  0  0  0  0  0  0  0  0
   38.1480   24.7800   33.9740 C   0  0  0  0  0  0  0  0  0  0  0  0
   37.9700   24.7130   32.4670 C   0  0  0  0  0  0  0  0  0  0  0  0
   37.1740   23.4900   32.0760 C   0  0  0  0  0  0  0  0  0  0  0  0
   38.6130   22.0160   31.6850 H   0  0  0  0  0  0  0  0  0  0  0  0
   39.5540   22.5370   33.6790 H   0  0  0  0  0  0  0  0  0  0  0  0
   38.3750   21.4530   34.5270 H   0  0  0  0  0  0  0  0  0  0  0  0
   36.8710   23.2890   34.7830 H   0  0  0  0  0  0  0  0  0  0  0  0
   39.0170   25.3790   34.1600 H   0  0  0  0  0  0  0  0  0  0  0  0
   37.2880   25.4470   34.2910 H   0  0  0  0  0  0  0  0  0  0  0  0
   38.9960   24.5870   32.0350 H   0  0  0  0  0  0  0  0  0  0  0  0
   37.5420   25.6150   32.0320 H   0  0  0  0  0  0  0  0  0  0  0  0
   36.2010   23.5730   32.6150 H   0  0  0  0  0  0  0  0  0  0  0  0
   37.0490   23.4940   30.9930 H   0  0  0  0  0  0  0  0  0  0  0  0
   38.5420   23.5560   35.9460 N   0  0  1  0  0  0  0  0  0  0  0  0
   37.6050   23.1450   36.9820 C   0  0  0  0  0  0  0  0  0  0  0  0
   38.4560   23.3850   38.2310 C   0  0  0  0  0  0  0  0  0  0  0  0
   39.7910   22.8640   37.7530 C   0  0  0  0  0  0  0  0  0  0  0  0
   39.7000   22.8520   36.2210 C   0  0  2  0  0  0  0  0  0  0  0  0
   36.6960   23.7690   36.9850 H   0  0  0  0  0  0  0  0  0  0  0  0
   37.3720   22.0760   36.9460 H   0  0  0  0  0  0  0  0  0  0  0  0
   38.4900   24.4850   38.3630 H   0  0  0  0  0  0  0  0  0  0  0  0
   38.0730   22.8370   39.1030 H   0  0  0  0  0  0  0  0  0  0  0  0
   39.9210   21.8760   38.1770 H   0  0  0  0  0  0  0  0  0  0  0  0
   40.5450   23.5600   38.1430 H   0  0  0  0  0  0  0  0  0  0  0  0
   39.4640   21.7680   35.9820 H   0  0  0  0  0  0  0  0  0  0  0  0
   41.0100   23.0860   35.6700 C   0  0  0  0  0  3  0  0  0  0  0  0
   42.0360   22.8170   36.7940 C   0  0  0  0  0  2  0  0  0  0  0  0
   43.3080   23.4110   36.2260 C   0  0  0  0  0  2  0  0  0  0  0  0
   42.9110   24.1300   34.9310 C   0  0  0  0  0  2  0  0  0  0  0  0
   41.4510   24.4560   35.2980 C   0  0  0  0  0  2  0  0  0  0  0  0
   36.8700   21.1190   32.3650 C   0  0  0  0  0  0  0  0  0  0  0  0
   35.5400   21.5380   32.2980 C   0  0  0  0  0  0  0  0  0  0  0  0
   34.5610   20.5440   32.1560 C   0  0  0  0  0  0  0  0  0  0  0  0
   34.9560   19.2180   32.0900 N   0  0  0  0  0  0  0  0  0  0  0  0
   36.2710   18.8620   32.1610 C   0  0  0  0  0  0  0  0  0  0  0  0
   37.1790   19.8130   32.2950 N   0  0  0  0  0  0  0  0  0  0  0  0
   34.9750   22.4480   32.3310 H   0  0  0  0  0  0  0  0  0  0  0  0
   33.5030   20.5930   32.0810 H   0  0  0  0  0  0  0  0  0  0  0  0
   36.5570   17.8260   32.1090 H   0  0  0  0  0  0  0  0  0  0  0  0
  1  7  1  6  0  0  0
  1  2  1  0  0  0  0
  2  9  1  0  0  0  0
  2  3  1  0  0  0  0
  3 10  1  1  0  0  0
  3 17  1  0  0  0  0
  4 11  1  0  0  0  0
  4 12  1  0  0  0  0
  4  3  1  0  0  0  0
  5  4  1  0  0  0  0
  6  5  1  0  0  0  0
  6  1  1  0  0  0  0
  6 15  1  0  0  0  0
  8  2  1  0  0  0  0
 13  5  1  0  0  0  0
 14  5  1  0  0  0  0
 16  6  1  0  0  0  0
 17 21  1  0  0  0  0
 17 18  1  1  0  0  0
 18 22  1  0  0  0  0
 18 19  1  0  0  0  0
 19 24  1  0  0  0  0
 19 25  1  0  0  0  0
 20 27  1  0  0  0  0
 20 26  1  0  0  0  0
 20 19  1  0  0  0  0
 21 28  1  6  0  0  0
 21 20  1  0  0  0  0
 23 18  1  0  0  0  0
 29 21  1  0  0  0  0
 29 30  1  0  0  0  0
 31 30  1  0  0  0  0
 32 33  1  0  0  0  0
 32 31  1  0  0  0  0
 33 29  1  0  0  0  0
 34  1  1  0  0  0  0
 35 40  1  0  0  0  0
 35 34  1  0  0  0  0
 36 35  2  0  0  0  0
 37 36  1  0  0  0  0
 37 38  2  0  0  0  0
 38 39  1  0  0  0  0
 39 34  2  0  0  0  0
 41 36  1  0  0  0  0
 42 38  1  0  0  0  0
M  END
>  <minimizedAffinity>
-5.37396193

$$$$

 OpenBabel03272507023D

 42 45  0  0  1  0  0  0  0  0999 V2000
   38.1290   22.3190   31.9090 C   0  0  2  0  0  0  0  0  0  0  0  0
   37.7810   23.7060   32.3170 C   0  0  0  0  0  0  0  0  0  0  0  0
   37.5090   24.6150   31.1290 C   0  0  2  0  0  0  0  0  0  0  0  0
   38.6050   24.6660   30.1500 C   0  0  0  0  0  0  0  0  0  0  0  0
   39.3300   23.3440   29.9700 C   0  0  0  0  0  0  0  0  0  0  0  0
   38.4730   22.1950   30.4470 C   0  0  0  0  0  0  0  0  0  0  0  0
   39.0320   21.9020   32.4460 H   0  0  0  0  0  0  0  0  0  0  0  0
   38.7460   24.1280   32.7560 H   0  0  0  0  0  0  0  0  0  0  0  0
   36.9680   23.8730   32.9990 H   0  0  0  0  0  0  0  0  0  0  0  0
   36.6030   24.1740   30.6600 H   0  0  0  0  0  0  0  0  0  0  0  0
   39.3550   25.4310   30.2000 H   0  0  0  0  0  0  0  0  0  0  0  0
   38.1280   24.8220   29.1340 H   0  0  0  0  0  0  0  0  0  0  0  0
   40.2270   23.3830   30.6410 H   0  0  0  0  0  0  0  0  0  0  0  0
   39.6890   23.1710   28.9570 H   0  0  0  0  0  0  0  0  0  0  0  0
   37.5320   22.2470   29.8510 H   0  0  0  0  0  0  0  0  0  0  0  0
   39.0190   21.2670   30.2770 H   0  0  0  0  0  0  0  0  0  0  0  0
   37.1860   25.9390   31.5330 N   0  0  1  0  0  0  0  0  0  0  0  0
   35.9450   26.3970   30.9270 C   0  0  0  0  0  0  0  0  0  0  0  0
   35.8940   27.8310   31.4610 C   0  0  0  0  0  0  0  0  0  0  0  0
   36.3500   27.6060   32.8840 C   0  0  0  0  0  0  0  0  0  0  0  0
   37.0540   26.2430   32.8760 C   0  0  2  0  0  0  0  0  0  0  0  0
   35.9940   26.3780   29.8250 H   0  0  0  0  0  0  0  0  0  0  0  0
   35.0640   25.8740   31.3120 H   0  0  0  0  0  0  0  0  0  0  0  0
   36.6600   28.3910   30.8890 H   0  0  0  0  0  0  0  0  0  0  0  0
   34.8830   28.2580   31.4010 H   0  0  0  0  0  0  0  0  0  0  0  0
   35.4660   27.6220   33.5100 H   0  0  0  0  0  0  0  0  0  0  0  0
   37.0160   28.4440   33.1250 H   0  0  0  0  0  0  0  0  0  0  0  0
   36.2610   25.5350   33.2740 H   0  0  0  0  0  0  0  0  0  0  0  0
   38.0950   26.2460   33.8710 C   0  0  0  0  0  3  0  0  0  0  0  0
   37.5630   27.0340   35.0900 C   0  0  0  0  0  2  0  0  0  0  0  0
   38.8200   27.2650   35.9040 C   0  0  0  0  0  2  0  0  0  0  0  0
   39.9910   26.7750   35.0440 C   0  0  0  0  0  2  0  0  0  0  0  0
   39.3580   27.0010   33.6580 C   0  0  0  0  0  2  0  0  0  0  0  0
   37.0500   21.3450   32.1930 C   0  0  0  0  0  0  0  0  0  0  0  0
   36.6690   20.5620   31.1010 C   0  0  0  0  0  0  0  0  0  0  0  0
   35.6600   19.6130   31.3130 C   0  0  0  0  0  0  0  0  0  0  0  0
   35.0990   19.5000   32.5730 N   0  0  0  0  0  0  0  0  0  0  0  0
   35.5070   20.2910   33.6080 C   0  0  0  0  0  0  0  0  0  0  0  0
   36.4600   21.1790   33.3890 N   0  0  0  0  0  0  0  0  0  0  0  0
   36.9130   20.4480   30.0630 H   0  0  0  0  0  0  0  0  0  0  0  0
   35.1980   18.9090   30.6660 H   0  0  0  0  0  0  0  0  0  0  0  0
   35.0570   20.1880   34.5810 H   0  0  0  0  0  0  0  0  0  0  0  0
  1 34  1  0  0  0  0
  1  2  1  0  0  0  0
  1  7  1  1  0  0  0
  2  8  1  0  0  0  0
  2  9  1  0  0  0  0
  3 10  1  6  0  0  0
  3 17  1  0  0  0  0
  3  2  1  0  0  0  0
  4 11  1  0  0  0  0
  4  3  1  0  0  0  0
  5  4  1  0  0  0  0
  5  6  1  0  0  0  0
  5 13  1  0  0  0  0
  6  1  1  0  0  0  0
 12  4  1  0  0  0  0
 14  5  1  0  0  0  0
 15  6  1  0  0  0  0
 16  6  1  0  0  0  0
 17 18  1  6  0  0  0
 17 21  1  0  0  0  0
 18 23  1  0  0  0  0
 18 19  1  0  0  0  0
 19 20  1  0  0  0  0
 20 27  1  0  0  0  0
 20 26  1  0  0  0  0
 21 20  1  0  0  0  0
 21 28  1  1  0  0  0
 21 29  1  0  0  0  0
 22 18  1  0  0  0  0
 24 19  1  0  0  0  0
 25 19  1  0  0  0  0
 29 30  1  0  0  0  0
 30 31  1  0  0  0  0
 32 31  1  0  0  0  0
 33 29  1  0  0  0  0
 33 32  1  0  0  0  0
 34 39  1  0  0  0  0
 35 36  1  0  0  0  0
 35 34  2  0  0  0  0
 36 37  2  0  0  0  0
 37 38  1  0  0  0  0
 38 42  1  0  0  0  0
 39 38  2  0  0  0  0
 40 35  1  0  0  0  0
 41 36  1  0  0  0  0
M  END
>  <minimizedAffinity>
-5.35339355

$$$$
