
 OpenBabel03272507383D

 19 20  0  0  0  0  0  0  0  0999 V2000
   39.8160   23.6880   35.6810 C   0  0  0  0  0  0  0  0  0  0  0  0
   39.5740   22.9110   36.8040 C   0  0  0  0  0  0  0  0  0  0  0  0
   40.6420   22.3400   37.4730 C   0  0  0  0  0  0  0  0  0  0  0  0
   41.8940   22.5790   36.9770 N   0  0  0  0  0  0  0  0  0  0  0  0
   42.1020   23.3430   35.8760 C   0  0  0  0  0  0  0  0  0  0  0  0
   41.0620   23.8910   35.2370 N   0  0  0  0  0  0  0  0  0  0  0  0
   40.5230   21.7240   38.3540 H   0  0  0  0  0  0  0  0  0  0  0  0
   43.1010   23.5180   35.5010 H   0  0  0  0  0  0  0  0  0  0  0  0
   37.7570   23.5010   38.3100 C   0  0  0  0  0  0  0  0  0  0  0  0
   38.1270   24.5930   38.8880 O   0  0  0  0  0  0  0  0  0  0  0  0
   38.3230   22.6410   37.3450 N   0  0  0  0  0  0  0  0  0  0  0  0
   36.8270   23.5110   38.8700 H   0  0  0  0  0  0  0  0  0  0  0  0
   37.6420   21.8830   37.1890 H   0  0  0  0  0  0  0  0  0  0  0  0
   38.6510   24.1920   35.1200 O   0  0  0  0  0  0  0  0  0  0  0  0
   38.6260   25.5410   34.7760 C   0  0  0  0  0  3  0  0  0  0  0  0
   37.4090   25.9070   33.9220 C   0  0  0  0  0  2  0  0  0  0  0  0
   37.6300   27.4260   33.8800 C   0  0  0  0  0  2  0  0  0  0  0  0
   37.7210   27.6970   35.3830 C   0  0  0  0  0  2  0  0  0  0  0  0
   38.4870   26.4850   35.9200 C   0  0  0  0  0  2  0  0  0  0  0  0
  1  2  1  0  0  0  0
  2 11  1  0  0  0  0
  2  3  2  0  0  0  0
  3  7  1  0  0  0  0
  4  3  1  0  0  0  0
  5  4  2  0  0  0  0
  6  1  2  0  0  0  0
  6  5  1  0  0  0  0
  8  5  1  0  0  0  0
  9 12  1  0  0  0  0
  9 10  2  0  0  0  0
 11  9  1  0  0  0  0
 13 11  1  0  0  0  0
 14  1  1  0  0  0  0
 15 14  1  0  0  0  0
 15 19  1  0  0  0  0
 16 15  1  0  0  0  0
 17 16  1  0  0  0  0
 17 18  1  0  0  0  0
 18 19  1  0  0  0  0
M  END
>  <minimizedAffinity>
-4.40152264

$$$$

 OpenBabel03272507383D

 19 20  0  0  0  0  0  0  0  0999 V2000
   38.6600   22.1010   34.4820 C   0  0  0  0  0  0  0  0  0  0  0  0
   38.8570   22.2250   35.8500 C   0  0  0  0  0  0  0  0  0  0  0  0
   40.1400   22.1260   36.3580 C   0  0  0  0  0  0  0  0  0  0  0  0
   41.1530   21.9070   35.4670 N   0  0  0  0  0  0  0  0  0  0  0  0
   40.9320   21.7880   34.1350 C   0  0  0  0  0  0  0  0  0  0  0  0
   39.6870   21.8860   33.6540 N   0  0  0  0  0  0  0  0  0  0  0  0
   40.3620   22.2150   37.4140 H   0  0  0  0  0  0  0  0  0  0  0  0
   41.7500   21.6140   33.4490 H   0  0  0  0  0  0  0  0  0  0  0  0
   37.6090   23.7510   37.2750 C   0  0  0  0  0  0  0  0  0  0  0  0
   38.1070   24.9190   37.0520 O   0  0  0  0  0  0  0  0  0  0  0  0
   37.8610   22.4490   36.7920 N   0  0  0  0  0  0  0  0  0  0  0  0
   36.9130   24.1770   37.9910 H   0  0  0  0  0  0  0  0  0  0  0  0
   37.1950   21.8230   37.2690 H   0  0  0  0  0  0  0  0  0  0  0  0
   37.3240   22.2230   34.1230 O   0  0  0  0  0  0  0  0  0  0  0  0
   36.7670   21.2150   33.3410 C   0  0  0  0  0  3  0  0  0  0  0  0
   35.6910   20.4200   34.0860 C   0  0  0  0  0  2  0  0  0  0  0  0
   35.2200   19.5510   32.9110 C   0  0  0  0  0  2  0  0  0  0  0  0
   34.9070   20.6590   31.9020 C   0  0  0  0  0  2  0  0  0  0  0  0
   36.0190   21.6840   32.1400 C   0  0  0  0  0  2  0  0  0  0  0  0
  1  2  1  0  0  0  0
  2  3  2  0  0  0  0
  2 11  1  0  0  0  0
  3  7  1  0  0  0  0
  4  3  1  0  0  0  0
  5  4  2  0  0  0  0
  6  5  1  0  0  0  0
  6  1  2  0  0  0  0
  8  5  1  0  0  0  0
  9 12  1  0  0  0  0
 10  9  2  0  0  0  0
 11 13  1  0  0  0  0
 11  9  1  0  0  0  0
 14  1  1  0  0  0  0
 15 16  1  0  0  0  0
 15 14  1  0  0  0  0
 17 16  1  0  0  0  0
 18 19  1  0  0  0  0
 18 17  1  0  0  0  0
 19 15  1  0  0  0  0
M  END
>  <minimizedAffinity>
-4.21686077

$$$$

 OpenBabel03272507383D

 19 20  0  0  0  0  0  0  0  0999 V2000
   37.5960   25.5170   34.4550 C   0  0  0  0  0  0  0  0  0  0  0  0
   37.4620   25.5570   33.0740 C   0  0  0  0  0  0  0  0  0  0  0  0
   37.0380   26.7280   32.4710 C   0  0  0  0  0  0  0  0  0  0  0  0
   36.7700   27.7930   33.2860 N   0  0  0  0  0  0  0  0  0  0  0  0
   36.9090   27.7250   34.6330 C   0  0  0  0  0  0  0  0  0  0  0  0
   37.3200   26.5880   35.2060 N   0  0  0  0  0  0  0  0  0  0  0  0
   36.9130   26.8260   31.4010 H   0  0  0  0  0  0  0  0  0  0  0  0
   36.6910   28.5800   35.2590 H   0  0  0  0  0  0  0  0  0  0  0  0
   36.6640   23.7980   31.5960 C   0  0  0  0  0  0  0  0  0  0  0  0
   35.3770   23.8770   31.6280 O   0  0  0  0  0  0  0  0  0  0  0  0
   37.7220   24.5030   32.2070 N   0  0  0  0  0  0  0  0  0  0  0  0
   36.6030   22.9620   30.9060 H   0  0  0  0  0  0  0  0  0  0  0  0
   38.5970   24.0740   31.8690 H   0  0  0  0  0  0  0  0  0  0  0  0
   38.0290   24.2800   34.9120 O   0  0  0  0  0  0  0  0  0  0  0  0
   38.5710   24.2140   36.1920 C   0  0  0  0  0  3  0  0  0  0  0  0
   37.6560   23.4890   37.1820 C   0  0  0  0  0  2  0  0  0  0  0  0
   38.6130   23.4740   38.3830 C   0  0  0  0  0  2  0  0  0  0  0  0
   39.8250   22.8190   37.7160 C   0  0  0  0  0  2  0  0  0  0  0  0
   39.8290   23.4230   36.3090 C   0  0  0  0  0  2  0  0  0  0  0  0
  1 14  1  0  0  0  0
  1  6  1  0  0  0  0
  2  1  2  0  0  0  0
  3  2  1  0  0  0  0
  3  4  2  0  0  0  0
  4  5  1  0  0  0  0
  5  6  2  0  0  0  0
  5  8  1  0  0  0  0
  7  3  1  0  0  0  0
  9 10  2  0  0  0  0
  9 11  1  0  0  0  0
 11  2  1  0  0  0  0
 12  9  1  0  0  0  0
 13 11  1  0  0  0  0
 14 15  1  0  0  0  0
 15 19  1  0  0  0  0
 15 16  1  0  0  0  0
 16 17  1  0  0  0  0
 18 17  1  0  0  0  0
 19 18  1  0  0  0  0
M  END
>  <minimizedAffinity>
-4.18228292

$$$$

 OpenBabel03272507383D

 19 20  0  0  0  0  0  0  0  0999 V2000
   36.3310   23.9840   31.8880 C   0  0  0  0  0  0  0  0  0  0  0  0
   37.1560   24.9980   32.3510 C   0  0  0  0  0  0  0  0  0  0  0  0
   36.8490   26.3110   32.0410 C   0  0  0  0  0  0  0  0  0  0  0  0
   35.7330   26.5340   31.2840 N   0  0  0  0  0  0  0  0  0  0  0  0
   34.9440   25.5230   30.8440 C   0  0  0  0  0  0  0  0  0  0  0  0
   35.2490   24.2560   31.1490 N   0  0  0  0  0  0  0  0  0  0  0  0
   37.4500   27.1490   32.3710 H   0  0  0  0  0  0  0  0  0  0  0  0
   34.0650   25.7220   30.2450 H   0  0  0  0  0  0  0  0  0  0  0  0
   38.3030   25.1740   34.4880 C   0  0  0  0  0  0  0  0  0  0  0  0
   37.4370   25.6680   35.3060 O   0  0  0  0  0  0  0  0  0  0  0  0
   38.2980   24.8220   33.1220 N   0  0  0  0  0  0  0  0  0  0  0  0
   39.0430   25.1390   35.2820 H   0  0  0  0  0  0  0  0  0  0  0  0
   39.2370   24.4550   32.9080 H   0  0  0  0  0  0  0  0  0  0  0  0
   36.7650   22.7240   32.2780 O   0  0  0  0  0  0  0  0  0  0  0  0
   35.8040   21.7330   32.4560 C   0  0  0  0  0  3  0  0  0  0  0  0
   35.7920   20.7130   31.3140 C   0  0  0  0  0  2  0  0  0  0  0  0
   34.7700   19.7370   31.9130 C   0  0  0  0  0  2  0  0  0  0  0  0
   35.4420   19.4850   33.2650 C   0  0  0  0  0  2  0  0  0  0  0  0
   36.0120   20.8540   33.6420 C   0  0  0  0  0  2  0  0  0  0  0  0
  1 14  1  0  0  0  0
  1  2  1  0  0  0  0
  2 11  1  0  0  0  0
  3  2  2  0  0  0  0
  3  7  1  0  0  0  0
  4  3  1  0  0  0  0
  5  6  1  0  0  0  0
  5  4  2  0  0  0  0
  6  1  2  0  0  0  0
  8  5  1  0  0  0  0
  9 12  1  0  0  0  0
  9 10  2  0  0  0  0
 11  9  1  0  0  0  0
 13 11  1  0  0  0  0
 14 15  1  0  0  0  0
 15 19  1  0  0  0  0
 16 17  1  0  0  0  0
 16 15  1  0  0  0  0
 17 18  1  0  0  0  0
 18 19  1  0  0  0  0
M  END
>  <minimizedAffinity>
-4.12099457

$$$$

 OpenBabel03272507383D

 19 20  0  0  0  0  0  0  0  0999 V2000
   38.6610   24.3820   36.0740 C   0  0  0  0  0  0  0  0  0  0  0  0
   39.6970   23.4600   36.1140 C   0  0  0  0  0  0  0  0  0  0  0  0
   39.9550   22.7850   37.2940 C   0  0  0  0  0  0  0  0  0  0  0  0
   39.1600   23.0730   38.3680 N   0  0  0  0  0  0  0  0  0  0  0  0
   38.1540   23.9800   38.3010 C   0  0  0  0  0  0  0  0  0  0  0  0
   37.9130   24.6270   37.1550 N   0  0  0  0  0  0  0  0  0  0  0  0
   40.7470   22.0550   37.3920 H   0  0  0  0  0  0  0  0  0  0  0  0
   37.5380   24.1920   39.1650 H   0  0  0  0  0  0  0  0  0  0  0  0
   41.7820   23.7670   34.8980 C   0  0  0  0  0  0  0  0  0  0  0  0
   42.4360   24.6640   35.5550 O   0  0  0  0  0  0  0  0  0  0  0  0
   40.5300   23.1340   35.0500 N   0  0  0  0  0  0  0  0  0  0  0  0
   42.5900   23.6960   34.1770 H   0  0  0  0  0  0  0  0  0  0  0  0
   40.4380   22.4700   34.2670 H   0  0  0  0  0  0  0  0  0  0  0  0
   38.5240   24.9760   34.8270 O   0  0  0  0  0  0  0  0  0  0  0  0
   37.5440   25.9520   34.6760 C   0  0  0  0  0  3  0  0  0  0  0  0
   38.0230   27.3400   35.1120 C   0  0  0  0  0  2  0  0  0  0  0  0
   36.7880   28.1380   34.6710 C   0  0  0  0  0  2  0  0  0  0  0  0
   36.7200   27.6870   33.2100 C   0  0  0  0  0  2  0  0  0  0  0  0
   37.1140   26.2090   33.2730 C   0  0  0  0  0  2  0  0  0  0  0  0
  1  2  2  0  0  0  0
  1  6  1  0  0  0  0
  2  3  1  0  0  0  0
  3  7  1  0  0  0  0
  3  4  2  0  0  0  0
  5  4  1  0  0  0  0
  5  8  1  0  0  0  0
  6  5  2  0  0  0  0
  9 11  1  0  0  0  0
  9 10  2  0  0  0  0
 11  2  1  0  0  0  0
 12  9  1  0  0  0  0
 13 11  1  0  0  0  0
 14  1  1  0  0  0  0
 15 14  1  0  0  0  0
 15 16  1  0  0  0  0
 17 16  1  0  0  0  0
 18 19  1  0  0  0  0
 18 17  1  0  0  0  0
 19 15  1  0  0  0  0
M  END
>  <minimizedAffinity>
-4.06460238

$$$$

 OpenBabel03272507383D

 19 20  0  0  0  0  0  0  0  0999 V2000
   37.6890   22.2750   34.1880 C   0  0  0  0  0  0  0  0  0  0  0  0
   37.6520   23.1030   33.0750 C   0  0  0  0  0  0  0  0  0  0  0  0
   36.6910   22.8830   32.1030 C   0  0  0  0  0  0  0  0  0  0  0  0
   35.8230   21.8450   32.3020 N   0  0  0  0  0  0  0  0  0  0  0  0
   35.8840   21.0520   33.4000 C   0  0  0  0  0  0  0  0  0  0  0  0
   36.8160   21.2730   34.3330 N   0  0  0  0  0  0  0  0  0  0  0  0
   36.6070   23.4900   31.2120 H   0  0  0  0  0  0  0  0  0  0  0  0
   35.1860   20.2360   33.5350 H   0  0  0  0  0  0  0  0  0  0  0  0
   38.1380   25.4840   33.1740 C   0  0  0  0  0  0  0  0  0  0  0  0
   37.1010   26.0260   33.7180 O   0  0  0  0  0  0  0  0  0  0  0  0
   38.5100   24.1670   32.8300 N   0  0  0  0  0  0  0  0  0  0  0  0
   38.6100   26.4570   33.0880 H   0  0  0  0  0  0  0  0  0  0  0  0
   39.4520   24.2260   32.4140 H   0  0  0  0  0  0  0  0  0  0  0  0
   38.7030   22.6180   35.0730 O   0  0  0  0  0  0  0  0  0  0  0  0
   38.3630   22.8040   36.4090 C   0  0  0  0  0  3  0  0  0  0  0  0
   39.5910   22.9470   37.3130 C   0  0  0  0  0  2  0  0  0  0  0  0
   38.8540   23.2830   38.6180 C   0  0  0  0  0  2  0  0  0  0  0  0
   38.0230   24.4700   38.1270 C   0  0  0  0  0  2  0  0  0  0  0  0
   37.6220   24.0630   36.7060 C   0  0  0  0  0  2  0  0  0  0  0  0
  1  6  1  0  0  0  0
  1 14  1  0  0  0  0
  2  1  2  0  0  0  0
  3  4  2  0  0  0  0
  3  2  1  0  0  0  0
  4  5  1  0  0  0  0
  5  8  1  0  0  0  0
  5  6  2  0  0  0  0
  7  3  1  0  0  0  0
  9 10  2  0  0  0  0
 11  2  1  0  0  0  0
 11  9  1  0  0  0  0
 12  9  1  0  0  0  0
 13 11  1  0  0  0  0
 14 15  1  0  0  0  0
 15 19  1  0  0  0  0
 15 16  1  0  0  0  0
 16 17  1  0  0  0  0
 18 17  1  0  0  0  0
 19 18  1  0  0  0  0
M  END
>  <minimizedAffinity>
-3.929528

$$$$

 OpenBabel03272507383D

 19 20  0  0  0  0  0  0  0  0999 V2000
   37.5750   23.8490   32.7520 C   0  0  0  0  0  0  0  0  0  0  0  0
   36.7790   23.8250   31.6170 C   0  0  0  0  0  0  0  0  0  0  0  0
   36.0770   22.6730   31.3090 C   0  0  0  0  0  0  0  0  0  0  0  0
   36.2140   21.6090   32.1560 N   0  0  0  0  0  0  0  0  0  0  0  0
   37.0010   21.6590   33.2590 C   0  0  0  0  0  0  0  0  0  0  0  0
   37.6750   22.7780   33.5480 N   0  0  0  0  0  0  0  0  0  0  0  0
   35.4380   22.5890   30.4400 H   0  0  0  0  0  0  0  0  0  0  0  0
   37.0940   20.8040   33.9160 H   0  0  0  0  0  0  0  0  0  0  0  0
   35.3820   25.5760   30.6670 C   0  0  0  0  0  0  0  0  0  0  0  0
   34.2530   25.4910   31.2850 O   0  0  0  0  0  0  0  0  0  0  0  0
   36.6080   24.8790   30.7280 N   0  0  0  0  0  0  0  0  0  0  0  0
   35.0060   26.4060   30.0780 H   0  0  0  0  0  0  0  0  0  0  0  0
   37.2310   25.3160   30.0320 H   0  0  0  0  0  0  0  0  0  0  0  0
   38.2150   25.0680   32.9300 O   0  0  0  0  0  0  0  0  0  0  0  0
   38.0750   25.7020   34.1610 C   0  0  0  0  0  3  0  0  0  0  0  0
   39.3440   26.4460   34.5860 C   0  0  0  0  0  2  0  0  0  0  0  0
   38.7820   27.1180   35.8470 C   0  0  0  0  0  2  0  0  0  0  0  0
   37.5640   27.8080   35.2290 C   0  0  0  0  0  2  0  0  0  0  0  0
   37.0590   26.7910   34.2020 C   0  0  0  0  0  2  0  0  0  0  0  0
  1 14  1  0  0  0  0
  1  6  1  0  0  0  0
  2  1  2  0  0  0  0
  3  2  1  0  0  0  0
  3  4  2  0  0  0  0
  4  5  1  0  0  0  0
  5  6  2  0  0  0  0
  5  8  1  0  0  0  0
  7  3  1  0  0  0  0
  9 11  1  0  0  0  0
  9 10  2  0  0  0  0
 11  2  1  0  0  0  0
 12  9  1  0  0  0  0
 13 11  1  0  0  0  0
 14 15  1  0  0  0  0
 15 19  1  0  0  0  0
 15 16  1  0  0  0  0
 16 17  1  0  0  0  0
 18 17  1  0  0  0  0
 19 18  1  0  0  0  0
M  END
>  <minimizedAffinity>
-3.90965104

$$$$

 OpenBabel03272507383D

 19 20  0  0  0  0  0  0  0  0999 V2000
   36.6050   28.0930   32.1540 C   0  0  0  0  0  0  0  0  0  0  0  0
   36.7940   27.4480   30.9400 C   0  0  0  0  0  0  0  0  0  0  0  0
   36.8380   28.1980   29.7770 C   0  0  0  0  0  0  0  0  0  0  0  0
   36.6890   29.5520   29.8970 N   0  0  0  0  0  0  0  0  0  0  0  0
   36.5050   30.1550   31.0970 C   0  0  0  0  0  0  0  0  0  0  0  0
   36.4640   29.4220   32.2150 N   0  0  0  0  0  0  0  0  0  0  0  0
   36.9830   27.7570   28.8000 H   0  0  0  0  0  0  0  0  0  0  0  0
   36.3890   31.2290   31.1670 H   0  0  0  0  0  0  0  0  0  0  0  0
   35.8330   25.2180   30.8060 C   0  0  0  0  0  0  0  0  0  0  0  0
   34.5640   25.3770   30.9730 O   0  0  0  0  0  0  0  0  0  0  0  0
   36.9500   26.0780   30.7690 N   0  0  0  0  0  0  0  0  0  0  0  0
   35.6930   24.1460   30.7070 H   0  0  0  0  0  0  0  0  0  0  0  0
   37.7760   25.4840   30.6030 H   0  0  0  0  0  0  0  0  0  0  0  0
   36.5840   27.2130   33.2270 O   0  0  0  0  0  0  0  0  0  0  0  0
   37.4900   27.4280   34.2610 C   0  0  0  0  0  3  0  0  0  0  0  0
   37.3200   26.4280   35.4080 C   0  0  0  0  0  2  0  0  0  0  0  0
   38.5360   26.8570   36.2430 C   0  0  0  0  0  2  0  0  0  0  0  0
   39.6200   26.7350   35.1690 C   0  0  0  0  0  2  0  0  0  0  0  0
   38.9230   27.2310   33.8990 C   0  0  0  0  0  2  0  0  0  0  0  0
  1  6  1  0  0  0  0
  1 14  1  0  0  0  0
  2  1  2  0  0  0  0
  3  4  2  0  0  0  0
  3  2  1  0  0  0  0
  4  5  1  0  0  0  0
  5  8  1  0  0  0  0
  5  6  2  0  0  0  0
  7  3  1  0  0  0  0
  9 10  2  0  0  0  0
 11  9  1  0  0  0  0
 11  2  1  0  0  0  0
 12  9  1  0  0  0  0
 13 11  1  0  0  0  0
 14 15  1  0  0  0  0
 15 16  1  0  0  0  0
 16 17  1  0  0  0  0
 18 17  1  0  0  0  0
 19 15  1  0  0  0  0
 19 18  1  0  0  0  0
M  END
>  <minimizedAffinity>
-3.88863826

$$$$

 OpenBabel03272507383D

 19 20  0  0  0  0  0  0  0  0999 V2000
   38.1470   23.2690   34.6040 C   0  0  0  0  0  0  0  0  0  0  0  0
   38.5180   23.3820   35.9370 C   0  0  0  0  0  0  0  0  0  0  0  0
   38.5250   24.6310   36.5320 C   0  0  0  0  0  0  0  0  0  0  0  0
   38.1620   25.6980   35.7570 N   0  0  0  0  0  0  0  0  0  0  0  0
   37.8050   25.5590   34.4570 C   0  0  0  0  0  0  0  0  0  0  0  0
   37.8010   24.3460   33.8910 N   0  0  0  0  0  0  0  0  0  0  0  0
   38.8030   24.7880   37.5660 H   0  0  0  0  0  0  0  0  0  0  0  0
   37.5210   26.4170   33.8630 H   0  0  0  0  0  0  0  0  0  0  0  0
   40.2530   22.1010   37.0610 C   0  0  0  0  0  0  0  0  0  0  0  0
   41.3650   22.6710   36.7410 O   0  0  0  0  0  0  0  0  0  0  0  0
   38.8930   22.3300   36.7630 N   0  0  0  0  0  0  0  0  0  0  0  0
   40.7910   21.3700   37.6570 H   0  0  0  0  0  0  0  0  0  0  0  0
   38.3560   21.6040   37.2590 H   0  0  0  0  0  0  0  0  0  0  0  0
   38.1880   21.9580   34.1490 O   0  0  0  0  0  0  0  0  0  0  0  0
   37.1480   21.5220   33.3340 C   0  0  0  0  0  3  0  0  0  0  0  0
   37.5960   20.4550   32.3310 C   0  0  0  0  0  2  0  0  0  0  0  0
   36.2140   20.1200   31.7490 C   0  0  0  0  0  2  0  0  0  0  0  0
   35.4760   19.8000   33.0510 C   0  0  0  0  0  2  0  0  0  0  0  0
   36.0380   20.8230   34.0420 C   0  0  0  0  0  2  0  0  0  0  0  0
  1  2  1  0  0  0  0
  2  3  2  0  0  0  0
  2 11  1  0  0  0  0
  3  7  1  0  0  0  0
  4  3  1  0  0  0  0
  5  4  2  0  0  0  0
  6  5  1  0  0  0  0
  6  1  2  0  0  0  0
  8  5  1  0  0  0  0
  9 12  1  0  0  0  0
 10  9  2  0  0  0  0
 11  9  1  0  0  0  0
 11 13  1  0  0  0  0
 14  1  1  0  0  0  0
 15 19  1  0  0  0  0
 15 14  1  0  0  0  0
 16 15  1  0  0  0  0
 17 16  1  0  0  0  0
 17 18  1  0  0  0  0
 18 19  1  0  0  0  0
M  END
>  <minimizedAffinity>
-3.87984538

$$$$
