REMARK  Name = 
REMARK  5 active torsions:
REMARK  status: ('A' for Active; 'I' for Inactive)
REMARK    1  A    between atoms: C_1  and  C_4
REMARK    2  A    between atoms: C_2  and  C_11
REMARK    3  A    between atoms: C_10  and  O_15
REMARK    4  A    between atoms: C_14  and  O_16
REMARK    5  A    between atoms: O_16  and  C_30
REMARK                            x       y       z     vdW  Elec       q    Type
REMARK                         _______ _______ _______ _____ _____    ______ ____
ROOT
ATOM      1  C   UNL     1      33.969  29.075  47.375  0.00  0.00    +0.000 C 
ATOM      2  C   UNL     1      34.740  28.278  48.418  0.00  0.00    +0.000 C 
ATOM      3  O   UNL     1      33.866  28.074  49.443  0.00  0.00    +0.000 OA
ATOM      4  C   UNL     1      32.578  28.148  48.995  0.00  0.00    +0.000 C 
ATOM      5  C   UNL     1      32.608  28.387  47.501  0.00  0.00    +0.000 C 
ATOM      6  H   UNL     1      33.907  30.138  47.623  0.00  0.00    +0.000 HD
ATOM      7  H   UNL     1      35.033  27.303  47.982  0.00  0.00    +0.000 HD
ATOM      8  H   UNL     1      32.083  27.159  49.162  0.00  0.00    +0.000 HD
ATOM      9  H   UNL     1      31.933  28.879  49.521  0.00  0.00    +0.000 HD
ATOM     10  H   UNL     1      32.672  27.422  46.943  0.00  0.00    +0.000 HD
ENDROOT
BRANCH   2  12
ATOM     11  C   UNL     1      35.816  30.539  49.072  0.00  0.00    +0.000 C 
ATOM     12  C   UNL     1      35.905  29.117  48.839  0.00  0.00    +0.000 C 
ATOM     13  C   UNL     1      36.072  29.582  50.247  0.00  0.00    +0.000 C 
ATOM     14  H   UNL     1      34.918  31.145  49.288  0.00  0.00    +0.000 HD
ATOM     15  H   UNL     1      36.865  28.767  48.362  0.00  0.00    +0.000 HD
ATOM     16  H   UNL     1      37.081  29.581  50.716  0.00  0.00    +0.000 HD
ATOM     17  H   UNL     1      35.276  29.413  50.992  0.00  0.00    +0.000 HD
BRANCH  11  18
ATOM     18  C   UNL     1      37.005  31.453  48.826  0.00  0.00    +0.000 A 
ATOM     19  C   UNL     1      37.187  32.524  49.702  0.00  0.00    +0.000 A 
ATOM     20  C   UNL     1      38.271  33.343  49.419  0.00  0.00    +0.000 A 
ATOM     21  N   UNL     1      39.085  33.084  48.340  0.00  0.00    +0.000 NA
ATOM     22  C   UNL     1      38.869  32.036  47.520  0.00  0.00    +0.000 A 
ATOM     23  N   UNL     1      37.816  31.207  47.765  0.00  0.00    +0.000 NA
ATOM     24  H   UNL     1      36.533  32.698  50.534  0.00  0.00    +0.000 HD
ATOM     25  H   UNL     1      38.495  34.204  50.046  0.00  0.00    +0.000 HD
ATOM     26  H   UNL     1      39.538  31.876  46.687  0.00  0.00    +0.000 HD
ENDBRANCH  11  18
ENDBRANCH   2  12
BRANCH   1  27
ATOM     27  O   UNL     1      34.475  28.950  46.097  0.00  0.00    +0.000 OA
ATOM     28  H   UNL     1      34.276  28.003  45.818  0.00  0.00    +0.000 HD
ENDBRANCH   1  27
BRANCH   5  29
ATOM     29  O   UNL     1      31.585  29.177  47.064  0.00  0.00    +0.000 OA
BRANCH  29  30
ATOM     30  C   UNL     1      30.836  28.657  46.042  0.00  0.00    +0.000 C 
ATOM     31  C   UNL     1      31.732  28.151  44.909  0.00  0.00    +0.000 C 
ATOM     32  C   UNL     1      31.676  29.286  43.891  0.00  0.00    +0.000 C 
ATOM     33  C   UNL     1      30.173  29.587  43.942  0.00  0.00    +0.000 C 
ATOM     34  C   UNL     1      29.998  29.775  45.452  0.00  0.00    +0.000 C 
ENDBRANCH  29  30
ENDBRANCH   5  29
TORSDOF 5
