
 OpenBabel03262523453D

 24 26  0  0  0  0  0  0  0  0999 V2000
   36.2870   24.4250   30.8020 Cl  0  0  0  0  0  0  0  0  0  0  0  0
   37.0870   24.3510   32.3380 C   0  0  0  0  0  0  0  0  0  0  0  0
   37.2950   23.1310   32.9700 C   0  0  0  0  0  0  0  0  0  0  0  0
   37.9330   23.1400   34.1820 C   0  0  0  0  0  0  0  0  0  0  0  0
   38.3750   24.2810   34.7980 C   0  0  0  0  0  0  0  0  0  0  0  0
   38.1480   25.5000   34.1300 C   0  0  0  0  0  0  0  0  0  0  0  0
   38.7050   26.9710   34.9030 Cl  0  0  0  0  0  0  0  0  0  0  0  0
   37.5070   25.5450   32.9040 C   0  0  0  0  0  0  0  0  0  0  0  0
   38.0790   22.1960   34.6420 H   0  0  0  0  0  0  0  0  0  0  0  0
   37.3380   26.4940   32.3990 H   0  0  0  0  0  0  0  0  0  0  0  0
   35.1140   20.2270   31.8980 C   0  0  0  0  0  0  0  0  0  0  0  0
   35.5640   21.3740   32.5640 C   0  0  0  0  0  0  0  0  0  0  0  0
   36.8130   21.9390   32.2880 C   0  0  0  0  0  0  0  0  0  0  0  0
   37.5450   21.3010   31.3400 N   0  0  0  0  0  0  0  0  0  0  0  0
   37.1060   20.2040   30.7090 C   0  0  0  0  0  0  0  0  0  0  0  0
   35.9060   19.6720   30.9830 N   0  0  0  0  0  0  0  0  0  0  0  0
   34.1550   19.7860   32.1030 H   0  0  0  0  0  0  0  0  0  0  0  0
   34.9430   21.8490   33.3120 H   0  0  0  0  0  0  0  0  0  0  0  0
   37.8530   19.8550   29.9870 H   0  0  0  0  0  0  0  0  0  0  0  0
   39.0630   24.3030   36.1030 C   0  0  0  0  0  3  0  0  0  0  0  0
   40.0060   23.1310   36.2700 C   0  0  0  0  0  2  0  0  0  0  0  0
   39.9650   22.7780   37.7300 C   0  0  0  0  0  2  0  0  0  0  0  0
   38.6980   23.3360   38.3030 C   0  0  0  0  0  2  0  0  0  0  0  0
   38.1640   24.3280   37.2910 C   0  0  0  0  0  2  0  0  0  0  0  0
  1  2  1  0  0  0  0
  2  8  2  0  0  0  0
  2  3  1  0  0  0  0
  3  4  2  0  0  0  0
  4  9  1  0  0  0  0
  4  5  1  0  0  0  0
  5 20  1  0  0  0  0
  6  5  2  0  0  0  0
  6  7  1  0  0  0  0
  8  6  1  0  0  0  0
 10  8  1  0  0  0  0
 11 17  1  0  0  0  0
 11 12  1  0  0  0  0
 12 18  1  0  0  0  0
 13 12  2  0  0  0  0
 13  3  1  0  0  0  0
 14 13  1  0  0  0  0
 15 16  1  0  0  0  0
 15 14  2  0  0  0  0
 16 11  2  0  0  0  0
 19 15  1  0  0  0  0
 20 21  1  0  0  0  0
 20 24  1  0  0  0  0
 21 22  1  0  0  0  0
 22 23  1  0  0  0  0
 24 23  1  0  0  0  0
M  END
>  <minimizedAffinity>
-5.34810495

$$$$

 OpenBabel03262523453D

 24 26  0  0  0  0  0  0  0  0999 V2000
   38.8340   27.0600   35.9250 Cl  0  0  0  0  0  0  0  0  0  0  0  0
   38.3280   26.0040   34.6470 C   0  0  0  0  0  0  0  0  0  0  0  0
   38.2060   24.6370   34.8660 C   0  0  0  0  0  0  0  0  0  0  0  0
   37.8020   23.8560   33.8150 C   0  0  0  0  0  0  0  0  0  0  0  0
   37.5140   24.3490   32.5700 C   0  0  0  0  0  0  0  0  0  0  0  0
   37.6490   25.7380   32.3830 C   0  0  0  0  0  0  0  0  0  0  0  0
   37.2860   26.3890   30.7970 Cl  0  0  0  0  0  0  0  0  0  0  0  0
   38.0540   26.5710   33.4120 C   0  0  0  0  0  0  0  0  0  0  0  0
   37.7160   22.8160   34.0090 H   0  0  0  0  0  0  0  0  0  0  0  0
   38.1540   27.6420   33.2540 H   0  0  0  0  0  0  0  0  0  0  0  0
   39.9470   22.9160   37.7550 C   0  0  0  0  0  0  0  0  0  0  0  0
   39.6590   23.3800   36.4650 C   0  0  0  0  0  0  0  0  0  0  0  0
   38.5190   24.1470   36.2000 C   0  0  0  0  0  0  0  0  0  0  0  0
   37.7260   24.4020   37.2710 N   0  0  0  0  0  0  0  0  0  0  0  0
   38.0100   23.9540   38.5000 C   0  0  0  0  0  0  0  0  0  0  0  0
   39.1060   23.2200   38.7420 N   0  0  0  0  0  0  0  0  0  0  0  0
   40.8220   22.3270   37.9690 H   0  0  0  0  0  0  0  0  0  0  0  0
   40.3230   23.1510   35.6420 H   0  0  0  0  0  0  0  0  0  0  0  0
   37.2400   24.2750   39.2110 H   0  0  0  0  0  0  0  0  0  0  0  0
   37.0780   23.5180   31.4320 C   0  0  0  0  0  3  0  0  0  0  0  0
   35.6590   23.0210   31.5990 C   0  0  0  0  0  2  0  0  0  0  0  0
   35.6250   21.6590   30.9650 C   0  0  0  0  0  2  0  0  0  0  0  0
   37.0310   21.1470   30.8990 C   0  0  0  0  0  2  0  0  0  0  0  0
   37.9370   22.3340   31.1490 C   0  0  0  0  0  2  0  0  0  0  0  0
  2  3  1  0  0  0  0
  2  1  1  0  0  0  0
  3 13  1  0  0  0  0
  4  9  1  0  0  0  0
  4  3  2  0  0  0  0
  5  4  1  0  0  0  0
  6  5  2  0  0  0  0
  6  8  1  0  0  0  0
  7  6  1  0  0  0  0
  8  2  2  0  0  0  0
 10  8  1  0  0  0  0
 11 17  1  0  0  0  0
 11 16  1  0  0  0  0
 12 11  2  0  0  0  0
 13 12  1  0  0  0  0
 13 14  2  0  0  0  0
 14 15  1  0  0  0  0
 15 16  2  0  0  0  0
 15 19  1  0  0  0  0
 18 12  1  0  0  0  0
 20 21  1  0  0  0  0
 20  5  1  0  0  0  0
 22 21  1  0  0  0  0
 23 22  1  0  0  0  0
 23 24  1  0  0  0  0
 24 20  1  0  0  0  0
M  END
>  <minimizedAffinity>
-5.33827448

$$$$

 OpenBabel03262523453D

 24 26  0  0  0  0  0  0  0  0999 V2000
   36.8720   26.2720   31.8040 Cl  0  0  0  0  0  0  0  0  0  0  0  0
   36.3070   27.6520   32.6870 C   0  0  0  0  0  0  0  0  0  0  0  0
   36.7380   27.8850   33.9880 C   0  0  0  0  0  0  0  0  0  0  0  0
   36.2540   28.9930   34.6320 C   0  0  0  0  0  0  0  0  0  0  0  0
   35.3740   29.8770   34.0640 C   0  0  0  0  0  0  0  0  0  0  0  0
   34.9590   29.6110   32.7460 C   0  0  0  0  0  0  0  0  0  0  0  0
   33.8330   30.7290   32.0020 Cl  0  0  0  0  0  0  0  0  0  0  0  0
   35.4170   28.5040   32.0510 C   0  0  0  0  0  0  0  0  0  0  0  0
   36.5990   29.1480   35.6230 H   0  0  0  0  0  0  0  0  0  0  0  0
   35.0880   28.3100   31.0330 H   0  0  0  0  0  0  0  0  0  0  0  0
   39.9440   26.1250   34.9690 C   0  0  0  0  0  0  0  0  0  0  0  0
   39.0570   27.0550   34.4120 C   0  0  0  0  0  0  0  0  0  0  0  0
   37.6720   26.9270   34.5600 C   0  0  0  0  0  0  0  0  0  0  0  0
   37.2600   25.8500   35.2740 N   0  0  0  0  0  0  0  0  0  0  0  0
   38.1150   24.9660   35.8030 C   0  0  0  0  0  0  0  0  0  0  0  0
   39.4410   25.1000   35.6530 N   0  0  0  0  0  0  0  0  0  0  0  0
   41.0100   26.2150   34.8610 H   0  0  0  0  0  0  0  0  0  0  0  0
   39.4350   27.8990   33.8500 H   0  0  0  0  0  0  0  0  0  0  0  0
   37.5700   24.1790   36.3360 H   0  0  0  0  0  0  0  0  0  0  0  0
   34.8470   31.0730   34.7480 C   0  0  0  0  0  3  0  0  0  0  0  0
   35.8460   31.6620   35.7200 C   0  0  0  0  0  2  0  0  0  0  0  0
   35.0340   32.2170   36.8570 C   0  0  0  0  0  2  0  0  0  0  0  0
   33.6960   31.5430   36.8370 C   0  0  0  0  0  2  0  0  0  0  0  0
   33.5710   30.8650   35.4890 C   0  0  0  0  0  2  0  0  0  0  0  0
  1  2  1  0  0  0  0
  2  3  1  0  0  0  0
  3 13  1  0  0  0  0
  3  4  2  0  0  0  0
  4  9  1  0  0  0  0
  5  4  1  0  0  0  0
  5 20  1  0  0  0  0
  6  5  2  0  0  0  0
  7  6  1  0  0  0  0
  8  2  2  0  0  0  0
  8  6  1  0  0  0  0
 10  8  1  0  0  0  0
 11 16  1  0  0  0  0
 12 13  1  0  0  0  0
 12 11  2  0  0  0  0
 13 14  2  0  0  0  0
 14 15  1  0  0  0  0
 15 19  1  0  0  0  0
 16 15  2  0  0  0  0
 17 11  1  0  0  0  0
 18 12  1  0  0  0  0
 20 24  1  0  0  0  0
 20 21  1  0  0  0  0
 21 22  1  0  0  0  0
 23 22  1  0  0  0  0
 24 23  1  0  0  0  0
M  END
>  <minimizedAffinity>
-5.28262949

$$$$

 OpenBabel03262523453D

 24 26  0  0  0  0  0  0  0  0999 V2000
   39.1300   25.8260   34.7570 Cl  0  0  0  0  0  0  0  0  0  0  0  0
   38.2150   24.6320   33.8980 C   0  0  0  0  0  0  0  0  0  0  0  0
   38.2910   23.2900   34.2540 C   0  0  0  0  0  0  0  0  0  0  0  0
   37.5440   22.3960   33.5350 C   0  0  0  0  0  0  0  0  0  0  0  0
   36.7300   22.7520   32.4920 C   0  0  0  0  0  0  0  0  0  0  0  0
   36.6760   24.1190   32.1580 C   0  0  0  0  0  0  0  0  0  0  0  0
   35.6420   24.5950   30.8260 Cl  0  0  0  0  0  0  0  0  0  0  0  0
   37.4130   25.0630   32.8520 C   0  0  0  0  0  0  0  0  0  0  0  0
   37.6190   21.3790   33.8270 H   0  0  0  0  0  0  0  0  0  0  0  0
   37.3630   26.1160   32.5840 H   0  0  0  0  0  0  0  0  0  0  0  0
   41.2620   22.0630   36.2560 C   0  0  0  0  0  0  0  0  0  0  0  0
   40.4320   22.3880   35.1750 C   0  0  0  0  0  0  0  0  0  0  0  0
   39.1640   22.9470   35.3660 C   0  0  0  0  0  0  0  0  0  0  0  0
   38.8050   23.1470   36.6580 N   0  0  0  0  0  0  0  0  0  0  0  0
   39.6050   22.8330   37.6860 C   0  0  0  0  0  0  0  0  0  0  0  0
   40.8180   22.2980   37.4890 N   0  0  0  0  0  0  0  0  0  0  0  0
   42.2380   21.6330   36.1190 H   0  0  0  0  0  0  0  0  0  0  0  0
   40.7640   22.2090   34.1600 H   0  0  0  0  0  0  0  0  0  0  0  0
   39.1180   23.0770   38.6370 H   0  0  0  0  0  0  0  0  0  0  0  0
   35.9200   21.7980   31.7110 C   0  0  0  0  0  3  0  0  0  0  0  0
   34.9780   21.0000   32.5860 C   0  0  0  0  0  2  0  0  0  0  0  0
   34.8830   19.6400   31.9520 C   0  0  0  0  0  2  0  0  0  0  0  0
   36.0840   19.4580   31.0750 C   0  0  0  0  0  2  0  0  0  0  0  0
   36.7020   20.8280   30.8930 C   0  0  0  0  0  2  0  0  0  0  0  0
  2  3  1  0  0  0  0
  2  1  1  0  0  0  0
  3 13  1  0  0  0  0
  4  9  1  0  0  0  0
  4  3  2  0  0  0  0
  5  4  1  0  0  0  0
  6  5  2  0  0  0  0
  6  8  1  0  0  0  0
  7  6  1  0  0  0  0
  8  2  2  0  0  0  0
 10  8  1  0  0  0  0
 11 16  1  0  0  0  0
 12 13  1  0  0  0  0
 12 11  2  0  0  0  0
 13 14  2  0  0  0  0
 14 15  1  0  0  0  0
 15 19  1  0  0  0  0
 16 15  2  0  0  0  0
 17 11  1  0  0  0  0
 18 12  1  0  0  0  0
 20  5  1  0  0  0  0
 20 21  1  0  0  0  0
 22 21  1  0  0  0  0
 23 22  1  0  0  0  0
 24 23  1  0  0  0  0
 24 20  1  0  0  0  0
M  END
>  <minimizedAffinity>
-5.23277187

$$$$

 OpenBabel03262523453D

 24 26  0  0  0  0  0  0  0  0999 V2000
   34.1660   31.4050   32.4850 Cl  0  0  0  0  0  0  0  0  0  0  0  0
   35.2080   30.0820   32.8970 C   0  0  0  0  0  0  0  0  0  0  0  0
   35.4680   29.7740   34.2270 C   0  0  0  0  0  0  0  0  0  0  0  0
   36.3000   28.7170   34.4860 C   0  0  0  0  0  0  0  0  0  0  0  0
   36.8830   27.9540   33.5100 C   0  0  0  0  0  0  0  0  0  0  0  0
   36.5990   28.2930   32.1740 C   0  0  0  0  0  0  0  0  0  0  0  0
   37.3370   27.3300   30.9100 Cl  0  0  0  0  0  0  0  0  0  0  0  0
   35.7650   29.3530   31.8580 C   0  0  0  0  0  0  0  0  0  0  0  0
   36.4810   28.5030   35.5090 H   0  0  0  0  0  0  0  0  0  0  0  0
   35.5540   29.6050   30.8210 H   0  0  0  0  0  0  0  0  0  0  0  0
   34.9000   32.3920   36.9030 C   0  0  0  0  0  0  0  0  0  0  0  0
   35.5260   31.6000   35.9320 C   0  0  0  0  0  0  0  0  0  0  0  0
   34.8310   30.6040   35.2380 C   0  0  0  0  0  0  0  0  0  0  0  0
   33.5230   30.4670   35.5700 N   0  0  0  0  0  0  0  0  0  0  0  0
   32.9320   31.2290   36.5000 C   0  0  0  0  0  0  0  0  0  0  0  0
   33.6100   32.1800   37.1590 N   0  0  0  0  0  0  0  0  0  0  0  0
   35.4260   33.1600   37.4420 H   0  0  0  0  0  0  0  0  0  0  0  0
   36.5730   31.7470   35.7010 H   0  0  0  0  0  0  0  0  0  0  0  0
   31.8780   30.9500   36.6090 H   0  0  0  0  0  0  0  0  0  0  0  0
   37.7810   26.8130   33.7770 C   0  0  0  0  0  3  0  0  0  0  0  0
   37.4370   26.1090   35.0720 C   0  0  0  0  0  2  0  0  0  0  0  0
   38.7450   25.6320   35.6380 C   0  0  0  0  0  2  0  0  0  0  0  0
   39.8390   26.4460   35.0170 C   0  0  0  0  0  2  0  0  0  0  0  0
   39.2320   27.1490   33.8210 C   0  0  0  0  0  2  0  0  0  0  0  0
  1  2  1  0  0  0  0
  2  3  1  0  0  0  0
  3  4  2  0  0  0  0
  3 13  1  0  0  0  0
  4  9  1  0  0  0  0
  5 20  1  0  0  0  0
  5  4  1  0  0  0  0
  6  5  2  0  0  0  0
  7  6  1  0  0  0  0
  8  6  1  0  0  0  0
  8  2  2  0  0  0  0
 10  8  1  0  0  0  0
 11 16  1  0  0  0  0
 11 17  1  0  0  0  0
 12 11  2  0  0  0  0
 13 14  2  0  0  0  0
 13 12  1  0  0  0  0
 14 15  1  0  0  0  0
 15 19  1  0  0  0  0
 15 16  2  0  0  0  0
 18 12  1  0  0  0  0
 20 24  1  0  0  0  0
 20 21  1  0  0  0  0
 21 22  1  0  0  0  0
 23 22  1  0  0  0  0
 24 23  1  0  0  0  0
M  END
>  <minimizedAffinity>
-5.2242794

$$$$

 OpenBabel03262523453D

 24 26  0  0  0  0  0  0  0  0999 V2000
   37.3500   28.5240   29.5590 Cl  0  0  0  0  0  0  0  0  0  0  0  0
   36.6960   29.4050   30.9010 C   0  0  0  0  0  0  0  0  0  0  0  0
   36.2040   28.7350   32.0150 C   0  0  0  0  0  0  0  0  0  0  0  0
   35.7010   29.4890   33.0420 C   0  0  0  0  0  0  0  0  0  0  0  0
   35.6590   30.8580   33.0290 C   0  0  0  0  0  0  0  0  0  0  0  0
   36.1650   31.5040   31.8850 C   0  0  0  0  0  0  0  0  0  0  0  0
   36.1190   33.2550   31.8480 Cl  0  0  0  0  0  0  0  0  0  0  0  0
   36.6850   30.7890   30.8190 C   0  0  0  0  0  0  0  0  0  0  0  0
   35.3320   28.9530   33.8800 H   0  0  0  0  0  0  0  0  0  0  0  0
   37.0730   31.3010   29.9420 H   0  0  0  0  0  0  0  0  0  0  0  0
   37.2660   25.1650   32.6970 C   0  0  0  0  0  0  0  0  0  0  0  0
   37.2200   26.5640   32.7240 C   0  0  0  0  0  0  0  0  0  0  0  0
   36.2650   27.2810   31.9960 C   0  0  0  0  0  0  0  0  0  0  0  0
   35.3980   26.5290   31.2730 N   0  0  0  0  0  0  0  0  0  0  0  0
   35.4490   25.1910   31.2530 C   0  0  0  0  0  0  0  0  0  0  0  0
   36.3700   24.5150   31.9550 N   0  0  0  0  0  0  0  0  0  0  0  0
   37.9960   24.6050   33.2530 H   0  0  0  0  0  0  0  0  0  0  0  0
   37.9340   27.1210   33.3160 H   0  0  0  0  0  0  0  0  0  0  0  0
   34.6590   24.7890   30.6080 H   0  0  0  0  0  0  0  0  0  0  0  0
   35.1190   31.6800   34.1290 C   0  0  0  0  0  3  0  0  0  0  0  0
   36.0470   31.7120   35.3240 C   0  0  0  0  0  2  0  0  0  0  0  0
   35.1560   31.7850   36.5320 C   0  0  0  0  0  2  0  0  0  0  0  0
   33.7990   31.2920   36.1320 C   0  0  0  0  0  2  0  0  0  0  0  0
   33.7720   31.2730   34.6180 C   0  0  0  0  0  2  0  0  0  0  0  0
  1  2  1  0  0  0  0
  2  3  1  0  0  0  0
  3  4  2  0  0  0  0
  4  9  1  0  0  0  0
  5  4  1  0  0  0  0
  5 20  1  0  0  0  0
  6  5  2  0  0  0  0
  7  6  1  0  0  0  0
  8  2  2  0  0  0  0
  8  6  1  0  0  0  0
 10  8  1  0  0  0  0
 11 12  1  0  0  0  0
 11 17  1  0  0  0  0
 12 18  1  0  0  0  0
 13  3  1  0  0  0  0
 13 12  2  0  0  0  0
 14 13  1  0  0  0  0
 15 14  2  0  0  0  0
 15 16  1  0  0  0  0
 16 11  2  0  0  0  0
 19 15  1  0  0  0  0
 20 24  1  0  0  0  0
 20 21  1  0  0  0  0
 21 22  1  0  0  0  0
 23 22  1  0  0  0  0
 24 23  1  0  0  0  0
M  END
>  <minimizedAffinity>
-4.97246933

$$$$

 OpenBabel03262523453D

 24 26  0  0  0  0  0  0  0  0999 V2000
   38.9220   27.1750   30.6830 Cl  0  0  0  0  0  0  0  0  0  0  0  0
   38.2820   25.5980   31.0070 C   0  0  0  0  0  0  0  0  0  0  0  0
   37.2050   25.4350   31.8710 C   0  0  0  0  0  0  0  0  0  0  0  0
   36.7460   24.1620   32.0850 C   0  0  0  0  0  0  0  0  0  0  0  0
   37.2880   23.0510   31.4950 C   0  0  0  0  0  0  0  0  0  0  0  0
   38.3770   23.2520   30.6260 C   0  0  0  0  0  0  0  0  0  0  0  0
   39.0850   21.8430   29.8630 Cl  0  0  0  0  0  0  0  0  0  0  0  0
   38.8800   24.5180   30.3760 C   0  0  0  0  0  0  0  0  0  0  0  0
   35.9240   24.0650   32.7480 H   0  0  0  0  0  0  0  0  0  0  0  0
   39.7210   24.6590   29.7020 H   0  0  0  0  0  0  0  0  0  0  0  0
   36.4660   28.2080   34.3410 C   0  0  0  0  0  0  0  0  0  0  0  0
   37.0050   27.0480   33.7690 C   0  0  0  0  0  0  0  0  0  0  0  0
   36.6540   26.6360   32.4790 C   0  0  0  0  0  0  0  0  0  0  0  0
   35.7650   27.4330   31.8340 N   0  0  0  0  0  0  0  0  0  0  0  0
   35.2550   28.5400   32.3900 C   0  0  0  0  0  0  0  0  0  0  0  0
   35.6000   28.9240   33.6270 N   0  0  0  0  0  0  0  0  0  0  0  0
   36.7300   28.5330   35.3320 H   0  0  0  0  0  0  0  0  0  0  0  0
   37.7110   26.4440   34.3230 H   0  0  0  0  0  0  0  0  0  0  0  0
   34.5620   29.0290   31.6970 H   0  0  0  0  0  0  0  0  0  0  0  0
   36.8020   21.6760   31.7180 C   0  0  0  0  0  3  0  0  0  0  0  0
   35.3900   21.4810   31.2100 C   0  0  0  0  0  2  0  0  0  0  0  0
   34.7470   20.5010   32.1520 C   0  0  0  0  0  2  0  0  0  0  0  0
   35.5260   20.5150   33.4310 C   0  0  0  0  0  2  0  0  0  0  0  0
   36.8350   21.2170   33.1360 C   0  0  0  0  0  2  0  0  0  0  0  0
  1  2  1  0  0  0  0
  2  3  1  0  0  0  0
  3  4  2  0  0  0  0
  3 13  1  0  0  0  0
  4  9  1  0  0  0  0
  5 20  1  0  0  0  0
  5  4  1  0  0  0  0
  6  5  2  0  0  0  0
  7  6  1  0  0  0  0
  8  6  1  0  0  0  0
  8  2  2  0  0  0  0
 10  8  1  0  0  0  0
 11 17  1  0  0  0  0
 12 18  1  0  0  0  0
 12 11  1  0  0  0  0
 13 12  2  0  0  0  0
 14 15  2  0  0  0  0
 14 13  1  0  0  0  0
 15 16  1  0  0  0  0
 16 11  2  0  0  0  0
 19 15  1  0  0  0  0
 20 24  1  0  0  0  0
 21 20  1  0  0  0  0
 21 22  1  0  0  0  0
 22 23  1  0  0  0  0
 24 23  1  0  0  0  0
M  END
>  <minimizedAffinity>
-4.84262514

$$$$

 OpenBabel03262523453D

 24 26  0  0  0  0  0  0  0  0999 V2000
   35.7790   29.9940   30.7530 Cl  0  0  0  0  0  0  0  0  0  0  0  0
   36.5530   28.9260   31.8770 C   0  0  0  0  0  0  0  0  0  0  0  0
   36.0440   28.7590   33.1590 C   0  0  0  0  0  0  0  0  0  0  0  0
   36.7020   27.9010   34.0000 C   0  0  0  0  0  0  0  0  0  0  0  0
   37.8280   27.2050   33.6450 C   0  0  0  0  0  0  0  0  0  0  0  0
   38.3160   27.3980   32.3390 C   0  0  0  0  0  0  0  0  0  0  0  0
   39.7550   26.5170   31.8660 Cl  0  0  0  0  0  0  0  0  0  0  0  0
   37.6880   28.2540   31.4500 C   0  0  0  0  0  0  0  0  0  0  0  0
   36.2930   27.7910   34.9730 H   0  0  0  0  0  0  0  0  0  0  0  0
   38.0770   28.3940   30.4440 H   0  0  0  0  0  0  0  0  0  0  0  0
   33.7350   31.3830   34.6140 C   0  0  0  0  0  0  0  0  0  0  0  0
   34.8950   30.6670   34.2920 C   0  0  0  0  0  0  0  0  0  0  0  0
   34.8480   29.5130   33.5030 C   0  0  0  0  0  0  0  0  0  0  0  0
   33.6130   29.1450   33.0800 N   0  0  0  0  0  0  0  0  0  0  0  0
   32.5090   29.8360   33.3930 C   0  0  0  0  0  0  0  0  0  0  0  0
   32.5670   30.9410   34.1510 N   0  0  0  0  0  0  0  0  0  0  0  0
   33.7600   32.2720   35.2190 H   0  0  0  0  0  0  0  0  0  0  0  0
   35.8590   31.0000   34.6530 H   0  0  0  0  0  0  0  0  0  0  0  0
   31.6250   29.3650   32.9490 H   0  0  0  0  0  0  0  0  0  0  0  0
   38.5450   26.2780   34.5420 C   0  0  0  0  0  3  0  0  0  0  0  0
   38.0730   24.8490   34.3810 C   0  0  0  0  0  2  0  0  0  0  0  0
   38.1710   24.2290   35.7470 C   0  0  0  0  0  2  0  0  0  0  0  0
   38.1850   25.3380   36.7540 C   0  0  0  0  0  2  0  0  0  0  0  0
   38.4660   26.6150   35.9910 C   0  0  0  0  0  2  0  0  0  0  0  0
  1  2  1  0  0  0  0
  2  3  1  0  0  0  0
  3 13  1  0  0  0  0
  3  4  2  0  0  0  0
  4  9  1  0  0  0  0
  5  4  1  0  0  0  0
  5 20  1  0  0  0  0
  6  5  2  0  0  0  0
  7  6  1  0  0  0  0
  8  2  2  0  0  0  0
  8  6  1  0  0  0  0
 10  8  1  0  0  0  0
 11 17  1  0  0  0  0
 12 11  1  0  0  0  0
 12 18  1  0  0  0  0
 13 12  2  0  0  0  0
 14 15  2  0  0  0  0
 14 13  1  0  0  0  0
 15 16  1  0  0  0  0
 16 11  2  0  0  0  0
 19 15  1  0  0  0  0
 20 24  1  0  0  0  0
 21 20  1  0  0  0  0
 21 22  1  0  0  0  0
 22 23  1  0  0  0  0
 24 23  1  0  0  0  0
M  END
>  <minimizedAffinity>
-4.83982468

$$$$

 OpenBabel03262523453D

 24 26  0  0  0  0  0  0  0  0999 V2000
   38.2160   21.9500   34.7970 Cl  0  0  0  0  0  0  0  0  0  0  0  0
   38.0630   23.5710   34.2030 C   0  0  0  0  0  0  0  0  0  0  0  0
   37.5510   23.8140   32.9340 C   0  0  0  0  0  0  0  0  0  0  0  0
   37.4560   25.1180   32.5230 C   0  0  0  0  0  0  0  0  0  0  0  0
   37.8370   26.1850   33.2930 C   0  0  0  0  0  0  0  0  0  0  0  0
   38.3510   25.9030   34.5720 C   0  0  0  0  0  0  0  0  0  0  0  0
   38.8450   27.2550   35.5720 Cl  0  0  0  0  0  0  0  0  0  0  0  0
   38.4690   24.6030   35.0350 C   0  0  0  0  0  0  0  0  0  0  0  0
   37.0610   25.2760   31.5520 H   0  0  0  0  0  0  0  0  0  0  0  0
   38.8680   24.3990   36.0260 H   0  0  0  0  0  0  0  0  0  0  0  0
   35.4690   21.0900   31.3260 C   0  0  0  0  0  0  0  0  0  0  0  0
   35.8340   22.2050   32.0930 C   0  0  0  0  0  0  0  0  0  0  0  0
   37.1560   22.6580   32.1440 C   0  0  0  0  0  0  0  0  0  0  0  0
   38.0450   21.9470   31.4060 N   0  0  0  0  0  0  0  0  0  0  0  0
   37.6870   20.8820   30.6770 C   0  0  0  0  0  0  0  0  0  0  0  0
   36.4160   20.4580   30.6360 N   0  0  0  0  0  0  0  0  0  0  0  0
   34.4550   20.7350   31.2810 H   0  0  0  0  0  0  0  0  0  0  0  0
   35.0880   22.7400   32.6650 H   0  0  0  0  0  0  0  0  0  0  0  0
   38.5590   20.4610   30.1630 H   0  0  0  0  0  0  0  0  0  0  0  0
   37.7390   27.5930   32.8610 C   0  0  0  0  0  3  0  0  0  0  0  0
   36.3640   28.1720   33.1130 C   0  0  0  0  0  2  0  0  0  0  0  0
   36.1140   29.1380   31.9890 C   0  0  0  0  0  2  0  0  0  0  0  0
   37.0290   28.7750   30.8600 C   0  0  0  0  0  2  0  0  0  0  0  0
   38.0730   27.8390   31.4300 C   0  0  0  0  0  2  0  0  0  0  0  0
  2  1  1  0  0  0  0
  2  8  1  0  0  0  0
  3  2  2  0  0  0  0
  4  3  1  0  0  0  0
  4  5  2  0  0  0  0
  5  6  1  0  0  0  0
  6  8  2  0  0  0  0
  6  7  1  0  0  0  0
  8 10  1  0  0  0  0
  9  4  1  0  0  0  0
 11 12  1  0  0  0  0
 12 13  2  0  0  0  0
 12 18  1  0  0  0  0
 13  3  1  0  0  0  0
 14 13  1  0  0  0  0
 15 14  2  0  0  0  0
 16 15  1  0  0  0  0
 16 11  2  0  0  0  0
 17 11  1  0  0  0  0
 19 15  1  0  0  0  0
 20 21  1  0  0  0  0
 20  5  1  0  0  0  0
 22 21  1  0  0  0  0
 23 24  1  0  0  0  0
 23 22  1  0  0  0  0
 24 20  1  0  0  0  0
M  END
>  <minimizedAffinity>
-4.79061937

$$$$
