
 OpenBabel03272510273D

 41 45  0  0  1  0  0  0  0  0999 V2000
   36.1530   30.2010   46.9860 C   0  0  0  0  0  0  0  0  0  0  0  0
   37.0240   30.7280   47.9380 C   0  0  0  0  0  0  0  0  0  0  0  0
   38.0360   31.6210   47.5750 C   0  0  0  0  0  0  0  0  0  0  0  0
   38.1180   31.9460   46.2250 C   0  0  0  0  0  0  0  0  0  0  0  0
   39.0120   32.7920   45.6310 N   0  0  0  0  0  0  0  0  0  0  0  0
   38.7120   32.7990   44.3250 C   0  0  0  0  0  0  0  0  0  0  0  0
   37.6810   31.9990   44.0980 N   0  0  0  0  0  0  0  0  0  0  0  0
   37.2810   31.4490   45.2570 C   0  0  0  0  0  0  0  0  0  0  0  0
   36.2790   30.5560   45.6550 C   0  0  0  0  0  0  0  0  0  0  0  0
   35.3690   29.5080   47.2650 H   0  0  0  0  0  0  0  0  0  0  0  0
   38.7200   32.0390   48.3100 H   0  0  0  0  0  0  0  0  0  0  0  0
   39.7860   33.3310   46.1060 H   0  0  0  0  0  0  0  0  0  0  0  0
   35.6190   30.1650   44.8900 H   0  0  0  0  0  0  0  0  0  0  0  0
   37.4180   30.0980   51.6120 C   0  0  0  0  0  0  0  0  0  0  0  0
   37.7480   30.5520   50.3480 C   0  0  0  0  0  0  0  0  0  0  0  0
   36.8560   30.3300   49.3240 C   0  0  0  0  0  0  0  0  0  0  0  0
   35.6870   29.6630   49.6320 N   0  0  0  0  0  0  0  0  0  0  0  0
   35.3880   29.2290   50.8720 C   0  0  0  0  0  0  0  0  0  0  0  0
   36.2450   29.4460   51.8450 N   0  0  0  0  0  0  0  0  0  0  0  0
   38.1770   30.3160   52.3610 H   0  0  0  0  0  0  0  0  0  0  0  0
   38.6580   31.0740   50.0940 H   0  0  0  0  0  0  0  0  0  0  0  0
   34.4520   28.7130   51.0430 H   0  0  0  0  0  0  0  0  0  0  0  0
   39.4240   33.5610   43.3970 O   0  0  0  0  0  0  0  0  0  0  0  0
   39.8350   31.5990   42.2550 N   0  0  0  0  0  0  0  0  0  0  0  0
   39.5180   33.0090   42.0910 C   0  0  1  0  0  0  0  0  0  0  0  0
   38.2670   33.1690   41.3670 C   0  0  0  0  0  0  0  0  0  0  0  0
   38.4210   32.6290   40.0780 O   0  0  0  0  0  0  0  0  0  0  0  0
   38.8460   31.3320   40.0320 C   0  0  0  0  0  0  0  0  0  0  0  0
   40.0690   31.1370   40.9100 C   0  0  2  0  0  0  0  0  0  0  0  0
   39.1170   30.9950   42.6230 H   0  0  0  0  0  0  0  0  0  0  0  0
   40.3570   33.4580   41.5330 H   0  0  0  0  0  0  0  0  0  0  0  0
   38.1390   34.2770   41.1610 H   0  0  0  0  0  0  0  0  0  0  0  0
   37.3240   32.8140   41.6790 H   0  0  0  0  0  0  0  0  0  0  0  0
   38.0020   30.6950   40.3410 H   0  0  0  0  0  0  0  0  0  0  0  0
   39.1720   31.1240   39.0060 H   0  0  0  0  0  0  0  0  0  0  0  0
   40.8260   31.8400   40.4890 H   0  0  0  0  0  0  0  0  0  0  0  0
   40.6530   29.7800   40.8180 C   0  0  0  0  0  3  0  0  0  0  0  0
   40.5760   29.2270   39.4200 C   0  0  0  0  0  2  0  0  0  0  0  0
   41.1280   27.8180   39.6740 C   0  0  0  0  0  2  0  0  0  0  0  0
   40.3220   27.4180   40.8900 C   0  0  0  0  0  2  0  0  0  0  0  0
   39.9430   28.7210   41.6030 C   0  0  0  0  0  2  0  0  0  0  0  0
  1 10  1  0  0  0  0
  1  2  1  0  0  0  0
  2 16  1  0  0  0  0
  3  2  2  0  0  0  0
  3 11  1  0  0  0  0
  4  3  1  0  0  0  0
  5 12  1  0  0  0  0
  5  4  1  0  0  0  0
  6  5  1  0  0  0  0
  7  6  2  0  0  0  0
  7  8  1  0  0  0  0
  8  9  1  0  0  0  0
  8  4  2  0  0  0  0
  9  1  2  0  0  0  0
 13  9  1  0  0  0  0
 14 19  1  0  0  0  0
 14 20  1  0  0  0  0
 15 14  2  0  0  0  0
 16 17  2  0  0  0  0
 16 15  1  0  0  0  0
 17 18  1  0  0  0  0
 18 22  1  0  0  0  0
 18 19  2  0  0  0  0
 21 15  1  0  0  0  0
 23  6  1  0  0  0  0
 24 30  1  0  0  0  0
 25 31  1  6  0  0  0
 25 24  1  0  0  0  0
 25 23  1  0  0  0  0
 26 33  1  0  0  0  0
 26 25  1  0  0  0  0
 27 26  1  0  0  0  0
 28 27  1  0  0  0  0
 28 34  1  0  0  0  0
 28 29  1  0  0  0  0
 29 36  1  6  0  0  0
 29 24  1  0  0  0  0
 32 26  1  0  0  0  0
 35 28  1  0  0  0  0
 37 29  1  0  0  0  0
 37 41  1  0  0  0  0
 38 39  1  0  0  0  0
 38 37  1  0  0  0  0
 39 40  1  0  0  0  0
 40 41  1  0  0  0  0
M  END
>  <minimizedAffinity>
-5.91587782

>  <minimizedRMSD>
0.737548769

$$$$
