
 OpenBabel03272506303D

 30 32  0  0  1  0  0  0  0  0999 V2000
   34.2540   29.7620   45.1120 C   0  0  1  0  0  0  0  0  0  0  0  0
   35.3450   30.6690   45.5060 C   0  0  0  0  0  0  0  0  0  0  0  0
   36.7440   30.2530   45.1470 C   0  0  0  0  0  0  0  0  0  0  0  0
   36.8740   29.5990   43.8210 C   0  0  0  0  0  0  0  0  0  0  0  0
   35.8110   28.6340   43.4560 C   0  0  0  0  0  0  0  0  0  0  0  0
   34.4390   29.1840   43.7530 C   0  0  2  0  0  0  0  0  0  0  0  0
   33.3090   30.3890   45.0320 H   0  0  0  0  0  0  0  0  0  0  0  0
   35.1980   31.6020   44.8680 H   0  0  0  0  0  0  0  0  0  0  0  0
   35.3500   31.0520   46.5120 H   0  0  0  0  0  0  0  0  0  0  0  0
   37.1530   29.5590   45.9130 H   0  0  0  0  0  0  0  0  0  0  0  0
   37.3910   31.1540   45.1640 H   0  0  0  0  0  0  0  0  0  0  0  0
   36.8870   30.4050   43.0400 H   0  0  0  0  0  0  0  0  0  0  0  0
   37.8570   29.0920   43.7650 H   0  0  0  0  0  0  0  0  0  0  0  0
   35.9310   27.7120   44.0640 H   0  0  0  0  0  0  0  0  0  0  0  0
   35.8640   28.3560   42.4130 H   0  0  0  0  0  0  0  0  0  0  0  0
   33.7450   28.3750   43.4840 H   0  0  0  0  0  0  0  0  0  0  0  0
   34.3830   28.7520   47.4610 C   0  0  0  0  0  0  0  0  0  0  0  0
   33.8720   28.7590   46.1400 C   0  0  0  0  0  0  0  0  0  0  0  0
   32.9670   27.7640   45.8190 C   0  0  0  0  0  0  0  0  0  0  0  0
   32.6110   26.8450   46.7530 N   0  0  0  0  0  0  0  0  0  0  0  0
   33.1280   26.8780   48.0090 C   0  0  0  0  0  0  0  0  0  0  0  0
   34.0190   27.8420   48.3550 N   0  0  0  0  0  0  0  0  0  0  0  0
   35.0930   29.5020   47.7700 H   0  0  0  0  0  0  0  0  0  0  0  0
   32.4620   27.5970   44.8850 H   0  0  0  0  0  0  0  0  0  0  0  0
   32.8720   26.1650   48.7820 H   0  0  0  0  0  0  0  0  0  0  0  0
   34.0850   30.2880   42.7300 C   0  0  0  0  0  3  0  0  0  0  0  0
   35.3560   30.8520   42.1440 C   0  0  0  0  0  2  0  0  0  0  0  0
   34.9820   32.2770   41.7180 C   0  0  0  0  0  2  0  0  0  0  0  0
   34.1050   32.7120   42.8540 C   0  0  0  0  0  2  0  0  0  0  0  0
   33.4610   31.4620   43.4060 C   0  0  0  0  0  2  0  0  0  0  0  0
  1  7  1  6  0  0  0
  1  2  1  0  0  0  0
  1 18  1  0  0  0  0
  2  9  1  0  0  0  0
  3 11  1  0  0  0  0
  3  2  1  0  0  0  0
  3 10  1  0  0  0  0
  4  3  1  0  0  0  0
  5  6  1  0  0  0  0
  5  4  1  0  0  0  0
  5 14  1  0  0  0  0
  6 16  1  6  0  0  0
  6  1  1  0  0  0  0
  8  2  1  0  0  0  0
 12  4  1  0  0  0  0
 13  4  1  0  0  0  0
 15  5  1  0  0  0  0
 17 23  1  0  0  0  0
 17 22  1  0  0  0  0
 18 17  2  0  0  0  0
 19 18  1  0  0  0  0
 19 20  2  0  0  0  0
 20 21  1  0  0  0  0
 21 22  2  0  0  0  0
 21 25  1  0  0  0  0
 24 19  1  0  0  0  0
 26 30  1  0  0  0  0
 26  6  1  0  0  0  0
 27 26  1  0  0  0  0
 28 27  1  0  0  0  0
 28 29  1  0  0  0  0
 29 30  1  0  0  0  0
M  END
>  <minimizedAffinity>
-2.08101487

>  <minimizedRMSD>
6.67457008

$$$$
