REMARK  Name = 
REMARK  3 active torsions:
REMARK  status: ('A' for Active; 'I' for Inactive)
REMARK    1  A    between atoms: C_1  and  C_16
REMARK    2  A    between atoms: C_3  and  C_4
REMARK    3  A    between atoms: C_18  and  C_33
REMARK                            x       y       z     vdW  Elec       q    Type
REMARK                         _______ _______ _______ _____ _____    ______ ____
ROOT
ATOM      1  C   UNL     1      37.556  32.065  48.500  0.00  0.00    +0.000 C 
ATOM      2  C   UNL     1      38.792  32.794  48.836  0.00  0.00    +0.000 C 
ATOM      3  C   UNL     1      38.932  31.636  47.915  0.00  0.00    +0.000 C 
ATOM      4  H   UNL     1      36.912  32.407  47.706  0.00  0.00    +0.000 HD
ATOM      5  H   UNL     1      39.214  32.632  49.890  0.00  0.00    +0.000 HD
ATOM      6  H   UNL     1      38.716  33.844  48.629  0.00  0.00    +0.000 HD
ATOM      7  H   UNL     1      39.058  30.576  48.050  0.00  0.00    +0.000 HD
ENDROOT
BRANCH   3   8
ATOM      8  C   UNL     1      39.299  32.099  46.552  0.00  0.00    +0.000 A 
ATOM      9  C   UNL     1      39.755  33.422  46.587  0.00  0.00    +0.000 A 
ATOM     10  C   UNL     1      40.224  34.041  45.448  0.00  0.00    +0.000 A 
ATOM     11  C   UNL     1      40.259  33.360  44.227  0.00  0.00    +0.000 A 
ATOM     12  C   UNL     1      39.807  32.062  44.221  0.00  0.00    +0.000 A 
ATOM     13  C   UNL     1      39.768  31.273  43.095  0.00  0.00    +0.000 A 
ATOM     14  C   UNL     1      39.309  29.975  43.069  0.00  0.00    +0.000 A 
ATOM     15  C   UNL     1      38.853  29.410  44.238  0.00  0.00    +0.000 A 
ATOM     16  C   UNL     1      38.880  30.178  45.382  0.00  0.00    +0.000 A 
ATOM     17  C   UNL     1      39.347  31.467  45.357  0.00  0.00    +0.000 A 
ATOM     18  H   UNL     1      39.879  34.189  47.321  0.00  0.00    +0.000 HD
ATOM     19  H   UNL     1      40.605  35.039  45.301  0.00  0.00    +0.000 HD
ATOM     20  H   UNL     1      40.591  33.692  43.252  0.00  0.00    +0.000 HD
ATOM     21  H   UNL     1      40.127  31.699  42.144  0.00  0.00    +0.000 HD
ATOM     22  H   UNL     1      39.302  29.398  42.146  0.00  0.00    +0.000 HD
ATOM     23  H   UNL     1      38.478  28.399  44.303  0.00  0.00    +0.000 HD
ATOM     24  H   UNL     1      38.510  29.707  46.310  0.00  0.00    +0.000 HD
ENDBRANCH   3   8
BRANCH   1  27
ATOM     25  C   UNL     1      35.295  29.576  50.203  0.00  0.00    +0.000 A 
ATOM     26  C   UNL     1      35.801  30.491  49.236  0.00  0.00    +0.000 A 
ATOM     27  C   UNL     1      37.011  31.100  49.477  0.00  0.00    +0.000 A 
ATOM     28  N   UNL     1      37.633  30.772  50.637  0.00  0.00    +0.000 NA
ATOM     29  C   UNL     1      37.158  29.910  51.550  0.00  0.00    +0.000 A 
ATOM     30  N   UNL     1      35.969  29.300  51.332  0.00  0.00    +0.000 NA
ATOM     31  H   UNL     1      34.345  29.094  50.020  0.00  0.00    +0.000 HD
ATOM     32  H   UNL     1      35.212  30.667  48.355  0.00  0.00    +0.000 HD
BRANCH  29  33
ATOM     33  C   UNL     1      38.038  29.713  52.757  0.00  0.00    +0.000 C 
ATOM     34  C   UNL     1      39.090  30.766  52.851  0.00  0.00    +0.000 C 
ATOM     35  C   UNL     1      40.421  30.099  53.026  0.00  0.00    +0.000 C 
ATOM     36  C   UNL     1      40.155  28.620  53.212  0.00  0.00    +0.000 C 
ATOM     37  C   UNL     1      38.739  28.394  52.712  0.00  0.00    +0.000 C 
ENDBRANCH  29  33
ENDBRANCH   1  27
TORSDOF 3
