
 OpenBabel03272502213D

 22 24  0  0  0  0  0  0  0  0999 V2000
   36.0300   30.1410   47.3310 C   0  0  0  0  0  0  0  0  0  0  0  0
   35.0330   29.9130   46.3950 C   0  0  0  0  0  0  0  0  0  0  0  0
   35.1890   30.1840   45.0410 C   0  0  0  0  0  0  0  0  0  0  0  0
   36.3580   30.6880   44.6170 N   0  0  0  0  0  0  0  0  0  0  0  0
   37.3230   30.9090   45.5220 C   0  0  0  0  0  0  0  0  0  0  0  0
   37.1870   30.6510   46.8390 N   0  0  0  0  0  0  0  0  0  0  0  0
   34.1050   29.5070   46.7660 H   0  0  0  0  0  0  0  0  0  0  0  0
   34.3450   29.9660   44.4070 H   0  0  0  0  0  0  0  0  0  0  0  0
   36.5720   29.5070   51.0160 C   0  0  0  0  0  0  0  0  0  0  0  0
   36.8990   29.7920   49.6730 C   0  0  0  0  0  0  0  0  0  0  0  0
   35.8700   29.8570   48.7500 C   0  0  0  0  0  0  0  0  0  0  0  0
   34.6180   29.6440   49.1990 N   0  0  0  0  0  0  0  0  0  0  0  0
   34.3090   29.3710   50.4850 C   0  0  0  0  0  0  0  0  0  0  0  0
   35.2930   29.3040   51.3880 N   0  0  0  0  0  0  0  0  0  0  0  0
   37.4340   29.4740   51.6700 H   0  0  0  0  0  0  0  0  0  0  0  0
   37.8790   29.9660   49.2880 H   0  0  0  0  0  0  0  0  0  0  0  0
   33.3270   29.1990   50.8600 H   0  0  0  0  0  0  0  0  0  0  0  0
   38.5990   31.4620   45.0500 C   0  0  0  0  0  0  0  0  0  0  0  0
   39.7170   31.2310   46.0730 C   0  0  0  0  0  0  0  0  0  0  0  0
   40.9040   31.7360   45.2450 C   0  0  0  0  0  0  0  0  0  0  0  0
   40.5940   31.2570   43.8240 C   0  0  0  0  0  0  0  0  0  0  0  0
   39.1700   30.7510   43.8450 C   0  0  0  0  0  0  0  0  0  0  0  0
  1 11  1  0  0  0  0
  2  7  1  0  0  0  0
  2  1  2  0  0  0  0
  3  2  1  0  0  0  0
  4  3  2  0  0  0  0
  4  5  1  0  0  0  0
  5  6  2  0  0  0  0
  6  1  1  0  0  0  0
  8  3  1  0  0  0  0
  9 14  1  0  0  0  0
  9 15  1  0  0  0  0
 10  9  2  0  0  0  0
 11 12  2  0  0  0  0
 11 10  1  0  0  0  0
 12 13  1  0  0  0  0
 13 17  1  0  0  0  0
 13 14  2  0  0  0  0
 16 10  1  0  0  0  0
 18  5  1  0  0  0  0
 18 19  1  0  0  0  0
 20 19  1  0  0  0  0
 21 22  1  0  0  0  0
 21 20  1  0  0  0  0
 22 18  1  0  0  0  0
M  END
>  <minimizedAffinity>
-4.8696928

>  <minimizedRMSD>
2.94418955

$$$$
