
 OpenBabel03272508253D

 21 23  0  0  1  0  0  0  0  0999 V2000
   37.6820   25.8580   35.3700 C   0  0  1  0  0  0  0  0  0  0  0  0
   38.2330   24.5310   35.1280 C   0  0  1  0  0  0  0  0  0  0  0  0
   39.1870   25.6880   35.2220 C   0  0  0  0  0  0  0  0  0  0  0  0
   37.3690   26.2670   36.3560 H   0  0  0  0  0  0  0  0  0  0  0  0
   38.0270   24.1090   34.1040 H   0  0  0  0  0  0  0  0  0  0  0  0
   39.6620   25.9720   34.2760 H   0  0  0  0  0  0  0  0  0  0  0  0
   39.7880   25.8180   36.1170 H   0  0  0  0  0  0  0  0  0  0  0  0
   37.0840   26.6350   34.2190 C   0  0  0  0  0  0  0  0  0  0  0  0
   36.6760   27.9720   34.5200 C   0  0  0  0  0  0  0  0  0  0  0  0
   36.1190   28.6720   33.4640 C   0  0  0  0  0  0  0  0  0  0  0  0
   35.9920   28.0880   32.2550 N   0  0  0  0  0  0  0  0  0  0  0  0
   36.3880   26.8230   32.0040 C   0  0  0  0  0  0  0  0  0  0  0  0
   36.9350   26.0970   32.9910 N   0  0  0  0  0  0  0  0  0  0  0  0
   36.8000   28.3830   35.4970 H   0  0  0  0  0  0  0  0  0  0  0  0
   35.7820   29.7060   33.6210 H   0  0  0  0  0  0  0  0  0  0  0  0
   36.2830   26.3670   31.0380 H   0  0  0  0  0  0  0  0  0  0  0  0
   38.3720   23.4860   36.1760 C   0  0  0  0  0  3  0  0  0  0  0  0
   37.8920   24.0590   37.4920 C   0  0  0  0  0  2  0  0  0  0  0  0
   38.7610   23.4410   38.5600 C   0  0  0  0  0  2  0  0  0  0  0  0
   39.9190   22.7900   37.8820 C   0  0  0  0  0  2  0  0  0  0  0  0
   39.8400   23.2710   36.4670 C   0  0  0  0  0  2  0  0  0  0  0  0
  1  4  1  1  0  0  0
  2  5  1  6  0  0  0
  2  3  1  0  0  0  0
  2  1  1  0  0  0  0
  2 17  1  0  0  0  0
  3  1  1  0  0  0  0
  3  7  1  0  0  0  0
  6  3  1  0  0  0  0
  8  9  1  0  0  0  0
  8  1  1  0  0  0  0
  9 14  1  0  0  0  0
 10 15  1  0  0  0  0
 10  9  2  0  0  0  0
 11 10  1  0  0  0  0
 12 11  2  0  0  0  0
 12 13  1  0  0  0  0
 13  8  2  0  0  0  0
 16 12  1  0  0  0  0
 17 21  1  0  0  0  0
 17 18  1  0  0  0  0
 18 19  1  0  0  0  0
 20 19  1  0  0  0  0
 21 20  1  0  0  0  0
M  END
>  <minimizedAffinity>
-4.52272701

$$$$

 OpenBabel03272508253D

 21 23  0  0  1  0  0  0  0  0999 V2000
   37.3300   26.6620   35.1170 C   0  0  1  0  0  0  0  0  0  0  0  0
   38.6240   25.9920   35.1160 C   0  0  1  0  0  0  0  0  0  0  0  0
   38.4580   27.2110   35.9780 C   0  0  0  0  0  0  0  0  0  0  0  0
   36.4320   26.3510   35.6960 H   0  0  0  0  0  0  0  0  0  0  0  0
   39.2170   26.1040   34.1660 H   0  0  0  0  0  0  0  0  0  0  0  0
   39.0040   28.0970   35.6340 H   0  0  0  0  0  0  0  0  0  0  0  0
   38.3570   27.1000   37.0540 H   0  0  0  0  0  0  0  0  0  0  0  0
   36.9760   27.5970   33.9830 C   0  0  0  0  0  0  0  0  0  0  0  0
   37.6930   27.3890   32.7630 C   0  0  0  0  0  0  0  0  0  0  0  0
   37.3710   28.2570   31.7350 C   0  0  0  0  0  0  0  0  0  0  0  0
   36.4410   29.2160   31.9210 N   0  0  0  0  0  0  0  0  0  0  0  0
   35.7830   29.3840   33.0870 C   0  0  0  0  0  0  0  0  0  0  0  0
   36.0540   28.5710   34.1190 N   0  0  0  0  0  0  0  0  0  0  0  0
   38.4200   26.6130   32.6720 H   0  0  0  0  0  0  0  0  0  0  0  0
   37.8820   28.1580   30.7660 H   0  0  0  0  0  0  0  0  0  0  0  0
   35.0430   30.1510   33.2250 H   0  0  0  0  0  0  0  0  0  0  0  0
   38.9010   24.7200   35.8340 C   0  0  0  0  0  3  0  0  0  0  0  0
   38.2910   23.5810   35.0450 C   0  0  0  0  0  2  0  0  0  0  0  0
   37.8220   22.5710   36.0630 C   0  0  0  0  0  2  0  0  0  0  0  0
   37.8490   23.2280   37.4010 C   0  0  0  0  0  2  0  0  0  0  0  0
   38.0740   24.6770   37.0990 C   0  0  0  0  0  2  0  0  0  0  0  0
  1  4  1  1  0  0  0
  1  3  1  0  0  0  0
  2  5  1  6  0  0  0
  2  1  1  0  0  0  0
  2 17  1  0  0  0  0
  2  3  1  0  0  0  0
  3  7  1  0  0  0  0
  6  3  1  0  0  0  0
  8 13  1  0  0  0  0
  8  1  1  0  0  0  0
  9  8  2  0  0  0  0
 10 11  2  0  0  0  0
 10  9  1  0  0  0  0
 11 12  1  0  0  0  0
 12 16  1  0  0  0  0
 12 13  2  0  0  0  0
 14  9  1  0  0  0  0
 15 10  1  0  0  0  0
 17 21  1  0  0  0  0
 18 17  1  0  0  0  0
 18 19  1  0  0  0  0
 19 20  1  0  0  0  0
 21 20  1  0  0  0  0
M  END
>  <minimizedAffinity>
-4.34849405

$$$$

 OpenBabel03272508253D

 21 23  0  0  1  0  0  0  0  0999 V2000
   38.5760   25.3250   34.8420 C   0  0  1  0  0  0  0  0  0  0  0  0
   37.5300   26.3380   34.8970 C   0  0  1  0  0  0  0  0  0  0  0  0
   38.9550   26.7820   35.0670 C   0  0  0  0  0  0  0  0  0  0  0  0
   39.0120   24.8840   33.9190 H   0  0  0  0  0  0  0  0  0  0  0  0
   36.8820   26.3050   35.8170 H   0  0  0  0  0  0  0  0  0  0  0  0
   39.2170   27.1110   36.0780 H   0  0  0  0  0  0  0  0  0  0  0  0
   39.4600   27.2910   34.2520 H   0  0  0  0  0  0  0  0  0  0  0  0
   38.8500   24.4750   36.0610 C   0  0  0  0  0  0  0  0  0  0  0  0
   37.9280   24.6280   37.1440 C   0  0  0  0  0  0  0  0  0  0  0  0
   38.1940   23.8540   38.2600 C   0  0  0  0  0  0  0  0  0  0  0  0
   39.2620   23.0300   38.2770 N   0  0  0  0  0  0  0  0  0  0  0  0
   40.1130   22.9090   37.2360 C   0  0  0  0  0  0  0  0  0  0  0  0
   39.9040   23.6350   36.1270 N   0  0  0  0  0  0  0  0  0  0  0  0
   37.0990   25.2960   37.0760 H   0  0  0  0  0  0  0  0  0  0  0  0
   37.5280   23.9190   39.1320 H   0  0  0  0  0  0  0  0  0  0  0  0
   40.9600   22.2500   37.2590 H   0  0  0  0  0  0  0  0  0  0  0  0
   36.8220   26.8660   33.7000 C   0  0  0  0  0  3  0  0  0  0  0  0
   37.8350   27.0670   32.5930 C   0  0  0  0  0  2  0  0  0  0  0  0
   37.3770   28.2820   31.8230 C   0  0  0  0  0  2  0  0  0  0  0  0
   36.3300   28.9660   32.6350 C   0  0  0  0  0  2  0  0  0  0  0  0
   36.3930   28.2900   33.9690 C   0  0  0  0  0  2  0  0  0  0  0  0
  1  4  1  6  0  0  0
  1  2  1  0  0  0  0
  1  3  1  0  0  0  0
  1  8  1  0  0  0  0
  2  3  1  0  0  0  0
  2  5  1  1  0  0  0
  3  6  1  0  0  0  0
  7  3  1  0  0  0  0
  8 13  2  0  0  0  0
  8  9  1  0  0  0  0
  9 10  2  0  0  0  0
 10 11  1  0  0  0  0
 10 15  1  0  0  0  0
 12 16  1  0  0  0  0
 12 11  2  0  0  0  0
 13 12  1  0  0  0  0
 14  9  1  0  0  0  0
 17 21  1  0  0  0  0
 17  2  1  0  0  0  0
 18 17  1  0  0  0  0
 19 18  1  0  0  0  0
 19 20  1  0  0  0  0
 20 21  1  0  0  0  0
M  END
>  <minimizedAffinity>
-4.33996105

$$$$

 OpenBabel03272508253D

 21 23  0  0  1  0  0  0  0  0999 V2000
   34.9640   30.3420   34.5400 C   0  0  1  0  0  0  0  0  0  0  0  0
   35.8210   31.0620   35.4720 C   0  0  1  0  0  0  0  0  0  0  0  0
   35.6160   31.6480   34.1040 C   0  0  0  0  0  0  0  0  0  0  0  0
   33.8520   30.3660   34.5210 H   0  0  0  0  0  0  0  0  0  0  0  0
   36.8130   30.5710   35.6840 H   0  0  0  0  0  0  0  0  0  0  0  0
   36.4930   31.6090   33.4490 H   0  0  0  0  0  0  0  0  0  0  0  0
   34.9630   32.5070   33.9790 H   0  0  0  0  0  0  0  0  0  0  0  0
   35.5180   29.1550   33.7870 C   0  0  0  0  0  0  0  0  0  0  0  0
   36.4600   28.3520   34.5020 C   0  0  0  0  0  0  0  0  0  0  0  0
   36.9700   27.2740   33.8010 C   0  0  0  0  0  0  0  0  0  0  0  0
   36.5750   27.0400   32.5320 N   0  0  0  0  0  0  0  0  0  0  0  0
   35.6830   27.8190   31.8860 C   0  0  0  0  0  0  0  0  0  0  0  0
   35.1550   28.8780   32.5170 N   0  0  0  0  0  0  0  0  0  0  0  0
   36.7370   28.5840   35.5070 H   0  0  0  0  0  0  0  0  0  0  0  0
   37.7010   26.6110   34.2880 H   0  0  0  0  0  0  0  0  0  0  0  0
   35.3750   27.6240   30.8760 H   0  0  0  0  0  0  0  0  0  0  0  0
   35.3140   31.8730   36.6100 C   0  0  0  0  0  3  0  0  0  0  0  0
   33.8300   31.6140   36.7600 C   0  0  0  0  0  2  0  0  0  0  0  0
   33.2220   32.9180   37.2170 C   0  0  0  0  0  2  0  0  0  0  0  0
   34.2430   33.9870   37.0260 C   0  0  0  0  0  2  0  0  0  0  0  0
   35.3200   33.3330   36.2170 C   0  0  0  0  0  2  0  0  0  0  0  0
  1  4  1  1  0  0  0
  1  2  1  0  0  0  0
  2  5  1  1  0  0  0
  2 17  1  0  0  0  0
  3  1  1  0  0  0  0
  3  2  1  0  0  0  0
  6  3  1  0  0  0  0
  7  3  1  0  0  0  0
  8  9  1  0  0  0  0
  8  1  1  0  0  0  0
  9 14  1  0  0  0  0
 10 15  1  0  0  0  0
 10  9  2  0  0  0  0
 11 10  1  0  0  0  0
 12 13  1  0  0  0  0
 12 11  2  0  0  0  0
 13  8  2  0  0  0  0
 16 12  1  0  0  0  0
 17 18  1  0  0  0  0
 18 19  1  0  0  0  0
 20 19  1  0  0  0  0
 21 17  1  0  0  0  0
 21 20  1  0  0  0  0
M  END
>  <minimizedAffinity>
-4.25840855

$$$$

 OpenBabel03272508253D

 21 23  0  0  1  0  0  0  0  0999 V2000
   36.5900   23.1010   32.1660 C   0  0  1  0  0  0  0  0  0  0  0  0
   35.7980   22.3450   31.2030 C   0  0  1  0  0  0  0  0  0  0  0  0
   37.2900   22.3670   31.0300 C   0  0  0  0  0  0  0  0  0  0  0  0
   36.8920   22.7550   33.1790 H   0  0  0  0  0  0  0  0  0  0  0  0
   35.1830   22.9710   30.4970 H   0  0  0  0  0  0  0  0  0  0  0  0
   37.6460   22.9420   30.1680 H   0  0  0  0  0  0  0  0  0  0  0  0
   37.8750   21.4910   31.2960 H   0  0  0  0  0  0  0  0  0  0  0  0
   36.7000   24.6010   32.0220 C   0  0  0  0  0  0  0  0  0  0  0  0
   35.6600   25.2290   31.2670 C   0  0  0  0  0  0  0  0  0  0  0  0
   35.7760   26.6010   31.1310 C   0  0  0  0  0  0  0  0  0  0  0  0
   36.8150   27.2550   31.6900 N   0  0  0  0  0  0  0  0  0  0  0  0
   37.7800   26.6300   32.3980 C   0  0  0  0  0  0  0  0  0  0  0  0
   37.7190   25.3000   32.5620 N   0  0  0  0  0  0  0  0  0  0  0  0
   34.8600   24.6620   30.8460 H   0  0  0  0  0  0  0  0  0  0  0  0
   35.0120   27.1530   30.5630 H   0  0  0  0  0  0  0  0  0  0  0  0
   38.6040   27.1590   32.8390 H   0  0  0  0  0  0  0  0  0  0  0  0
   35.1940   21.0160   31.4860 C   0  0  0  0  0  3  0  0  0  0  0  0
   35.3160   20.7390   32.9690 C   0  0  0  0  0  2  0  0  0  0  0  0
   35.5300   19.2510   33.1000 C   0  0  0  0  0  2  0  0  0  0  0  0
   35.8540   18.7170   31.7450 C   0  0  0  0  0  2  0  0  0  0  0  0
   36.0840   19.9380   30.9100 C   0  0  0  0  0  2  0  0  0  0  0  0
  1  4  1  1  0  0  0
  2  5  1  6  0  0  0
  2 17  1  0  0  0  0
  2  1  1  0  0  0  0
  3  2  1  0  0  0  0
  3  7  1  0  0  0  0
  3  1  1  0  0  0  0
  6  3  1  0  0  0  0
  8  1  1  0  0  0  0
  8 13  1  0  0  0  0
  9  8  2  0  0  0  0
 10  9  1  0  0  0  0
 10 11  2  0  0  0  0
 11 12  1  0  0  0  0
 12 13  2  0  0  0  0
 12 16  1  0  0  0  0
 14  9  1  0  0  0  0
 15 10  1  0  0  0  0
 17 18  1  0  0  0  0
 18 19  1  0  0  0  0
 20 19  1  0  0  0  0
 21 17  1  0  0  0  0
 21 20  1  0  0  0  0
M  END
>  <minimizedAffinity>
-4.20554543

$$$$

 OpenBabel03272508253D

 21 23  0  0  1  0  0  0  0  0999 V2000
   39.1120   25.2930   34.7540 C   0  0  1  0  0  0  0  0  0  0  0  0
   38.4610   26.5960   34.7120 C   0  0  1  0  0  0  0  0  0  0  0  0
   39.9490   26.5540   34.9090 C   0  0  0  0  0  0  0  0  0  0  0  0
   39.3910   24.6720   33.8740 H   0  0  0  0  0  0  0  0  0  0  0  0
   37.8240   26.8390   35.6080 H   0  0  0  0  0  0  0  0  0  0  0  0
   40.2900   26.8440   35.9090 H   0  0  0  0  0  0  0  0  0  0  0  0
   40.6080   26.8130   34.0850 H   0  0  0  0  0  0  0  0  0  0  0  0
   39.0690   24.4820   36.0290 C   0  0  0  0  0  0  0  0  0  0  0  0
   38.0250   24.8220   36.9450 C   0  0  0  0  0  0  0  0  0  0  0  0
   38.0010   24.0830   38.1140 C   0  0  0  0  0  0  0  0  0  0  0  0
   38.9210   23.1190   38.3280 N   0  0  0  0  0  0  0  0  0  0  0  0
   39.8940   22.8240   37.4410 C   0  0  0  0  0  0  0  0  0  0  0  0
   39.9650   23.5080   36.2900 N   0  0  0  0  0  0  0  0  0  0  0  0
   37.3230   25.5950   36.7240 H   0  0  0  0  0  0  0  0  0  0  0  0
   37.2250   24.2890   38.8660 H   0  0  0  0  0  0  0  0  0  0  0  0
   40.6210   22.0550   37.6210 H   0  0  0  0  0  0  0  0  0  0  0  0
   37.9870   27.2470   33.4620 C   0  0  0  0  0  3  0  0  0  0  0  0
   36.9480   26.3540   32.8190 C   0  0  0  0  0  2  0  0  0  0  0  0
   37.1220   26.5160   31.3280 C   0  0  0  0  0  2  0  0  0  0  0  0
   38.4200   27.2140   31.0960 C   0  0  0  0  0  2  0  0  0  0  0  0
   39.0930   27.2020   32.4330 C   0  0  0  0  0  2  0  0  0  0  0  0
  1  4  1  6  0  0  0
  1  3  1  0  0  0  0
  1  8  1  0  0  0  0
  2  1  1  0  0  0  0
  2  3  1  0  0  0  0
  2  5  1  1  0  0  0
  3  6  1  0  0  0  0
  7  3  1  0  0  0  0
  8 13  2  0  0  0  0
  8  9  1  0  0  0  0
  9 10  2  0  0  0  0
 10 11  1  0  0  0  0
 10 15  1  0  0  0  0
 12 16  1  0  0  0  0
 12 11  2  0  0  0  0
 13 12  1  0  0  0  0
 14  9  1  0  0  0  0
 17  2  1  0  0  0  0
 18 17  1  0  0  0  0
 19 18  1  0  0  0  0
 20 19  1  0  0  0  0
 20 21  1  0  0  0  0
 21 17  1  0  0  0  0
M  END
>  <minimizedAffinity>
-4.20470095

$$$$

 OpenBabel03272508253D

 21 23  0  0  1  0  0  0  0  0999 V2000
   38.3680   26.4640   34.3240 C   0  0  1  0  0  0  0  0  0  0  0  0
   37.8250   25.6910   35.4340 C   0  0  1  0  0  0  0  0  0  0  0  0
   37.9240   25.0270   34.0900 C   0  0  0  0  0  0  0  0  0  0  0  0
   39.4460   26.6430   34.1160 H   0  0  0  0  0  0  0  0  0  0  0  0
   36.8030   26.0100   35.7820 H   0  0  0  0  0  0  0  0  0  0  0  0
   36.9650   24.8430   33.5950 H   0  0  0  0  0  0  0  0  0  0  0  0
   38.7040   24.2940   33.9090 H   0  0  0  0  0  0  0  0  0  0  0  0
   37.4810   27.4540   33.6050 C   0  0  0  0  0  0  0  0  0  0  0  0
   36.5010   28.1100   34.4140 C   0  0  0  0  0  0  0  0  0  0  0  0
   35.6850   29.0060   33.7450 C   0  0  0  0  0  0  0  0  0  0  0  0
   35.8440   29.2100   32.4210 N   0  0  0  0  0  0  0  0  0  0  0  0
   36.7810   28.5740   31.6860 C   0  0  0  0  0  0  0  0  0  0  0  0
   37.5990   27.6940   32.2830 N   0  0  0  0  0  0  0  0  0  0  0  0
   36.4200   27.9090   35.4590 H   0  0  0  0  0  0  0  0  0  0  0  0
   34.9080   29.5480   34.3030 H   0  0  0  0  0  0  0  0  0  0  0  0
   36.8990   28.7440   30.6330 H   0  0  0  0  0  0  0  0  0  0  0  0
   38.6540   25.0980   36.5160 C   0  0  0  0  0  3  0  0  0  0  0  0
   39.4390   23.9390   35.9380 C   0  0  0  0  0  2  0  0  0  0  0  0
   39.5410   22.9120   37.0400 C   0  0  0  0  0  2  0  0  0  0  0  0
   38.5770   23.2980   38.1110 C   0  0  0  0  0  2  0  0  0  0  0  0
   37.7500   24.3820   37.4940 C   0  0  0  0  0  2  0  0  0  0  0  0
  1  4  1  1  0  0  0
  1  2  1  0  0  0  0
  2  5  1  1  0  0  0
  2 17  1  0  0  0  0
  3  1  1  0  0  0  0
  3  2  1  0  0  0  0
  6  3  1  0  0  0  0
  7  3  1  0  0  0  0
  8  1  1  0  0  0  0
  8  9  1  0  0  0  0
  9 14  1  0  0  0  0
 10 15  1  0  0  0  0
 10  9  2  0  0  0  0
 11 10  1  0  0  0  0
 12 13  1  0  0  0  0
 12 11  2  0  0  0  0
 13  8  2  0  0  0  0
 16 12  1  0  0  0  0
 17 21  1  0  0  0  0
 18 17  1  0  0  0  0
 18 19  1  0  0  0  0
 19 20  1  0  0  0  0
 21 20  1  0  0  0  0
M  END
>  <minimizedAffinity>
-4.04630518

$$$$

 OpenBabel03272508253D

 21 23  0  0  1  0  0  0  0  0999 V2000
   37.9350   23.2810   33.9270 C   0  0  1  0  0  0  0  0  0  0  0  0
   38.4520   22.7960   35.2010 C   0  0  1  0  0  0  0  0  0  0  0  0
   39.3820   22.8150   34.0210 C   0  0  0  0  0  0  0  0  0  0  0  0
   37.8230   24.3460   33.6300 H   0  0  0  0  0  0  0  0  0  0  0  0
   38.0490   21.7970   35.5290 H   0  0  0  0  0  0  0  0  0  0  0  0
   39.6470   21.8280   33.6270 H   0  0  0  0  0  0  0  0  0  0  0  0
   40.1500   23.5790   33.9550 H   0  0  0  0  0  0  0  0  0  0  0  0
   37.1000   22.3620   33.0670 C   0  0  0  0  0  0  0  0  0  0  0  0
   36.6380   22.9180   31.8320 C   0  0  0  0  0  0  0  0  0  0  0  0
   35.8650   22.0730   31.0570 C   0  0  0  0  0  0  0  0  0  0  0  0
   35.5920   20.8210   31.4790 N   0  0  0  0  0  0  0  0  0  0  0  0
   36.0440   20.3270   32.6510 C   0  0  0  0  0  0  0  0  0  0  0  0
   36.7990   21.1020   33.4440 N   0  0  0  0  0  0  0  0  0  0  0  0
   36.8850   23.9160   31.5480 H   0  0  0  0  0  0  0  0  0  0  0  0
   35.4740   22.4320   30.0930 H   0  0  0  0  0  0  0  0  0  0  0  0
   35.8210   19.3290   32.9790 H   0  0  0  0  0  0  0  0  0  0  0  0
   38.8230   23.6800   36.3370 C   0  0  0  0  0  3  0  0  0  0  0  0
   39.4830   22.8360   37.4060 C   0  0  0  0  0  2  0  0  0  0  0  0
   39.0760   23.4410   38.7280 C   0  0  0  0  0  2  0  0  0  0  0  0
   37.9600   24.3950   38.4660 C   0  0  0  0  0  2  0  0  0  0  0  0
   37.5640   24.1250   37.0480 C   0  0  0  0  0  2  0  0  0  0  0  0
  1  4  1  6  0  0  0
  1  3  1  0  0  0  0
  1  2  1  0  0  0  0
  2  5  1  1  0  0  0
  2 17  1  0  0  0  0
  3  2  1  0  0  0  0
  6  3  1  0  0  0  0
  7  3  1  0  0  0  0
  8 13  1  0  0  0  0
  8  1  1  0  0  0  0
  9  8  2  0  0  0  0
 10 11  2  0  0  0  0
 10  9  1  0  0  0  0
 11 12  1  0  0  0  0
 12 16  1  0  0  0  0
 12 13  2  0  0  0  0
 14  9  1  0  0  0  0
 15 10  1  0  0  0  0
 17 21  1  0  0  0  0
 17 18  1  0  0  0  0
 18 19  1  0  0  0  0
 20 19  1  0  0  0  0
 21 20  1  0  0  0  0
M  END
>  <minimizedAffinity>
-4.01071405

$$$$

 OpenBabel03272508253D

 21 23  0  0  1  0  0  0  0  0999 V2000
   35.7140   30.2640   34.3520 C   0  0  1  0  0  0  0  0  0  0  0  0
   35.1040   29.4980   33.2730 C   0  0  1  0  0  0  0  0  0  0  0  0
   35.5430   30.9040   32.9810 C   0  0  0  0  0  0  0  0  0  0  0  0
   36.7720   30.1930   34.6870 H   0  0  0  0  0  0  0  0  0  0  0  0
   33.9990   29.3110   33.3870 H   0  0  0  0  0  0  0  0  0  0  0  0
   34.7280   31.6190   32.8280 H   0  0  0  0  0  0  0  0  0  0  0  0
   36.4450   31.0760   32.4020 H   0  0  0  0  0  0  0  0  0  0  0  0
   34.8320   30.9130   35.3930 C   0  0  0  0  0  0  0  0  0  0  0  0
   35.4630   31.8990   36.2130 C   0  0  0  0  0  0  0  0  0  0  0  0
   34.6510   32.4790   37.1710 C   0  0  0  0  0  0  0  0  0  0  0  0
   33.3600   32.1050   37.2850 N   0  0  0  0  0  0  0  0  0  0  0  0
   32.7950   31.1690   36.4930 C   0  0  0  0  0  0  0  0  0  0  0  0
   33.5350   30.5730   35.5460 N   0  0  0  0  0  0  0  0  0  0  0  0
   36.4910   32.1560   36.0790 H   0  0  0  0  0  0  0  0  0  0  0  0
   35.0690   33.2470   37.8390 H   0  0  0  0  0  0  0  0  0  0  0  0
   31.7660   30.8780   36.5910 H   0  0  0  0  0  0  0  0  0  0  0  0
   35.8040   28.4260   32.5160 C   0  0  0  0  0  3  0  0  0  0  0  0
   36.8590   27.8150   33.4140 C   0  0  0  0  0  2  0  0  0  0  0  0
   38.0120   27.4440   32.5140 C   0  0  0  0  0  2  0  0  0  0  0  0
   37.7900   28.1080   31.1960 C   0  0  0  0  0  2  0  0  0  0  0  0
   36.6620   29.0590   31.4440 C   0  0  0  0  0  2  0  0  0  0  0  0
  1  4  1  1  0  0  0
  1  8  1  0  0  0  0
  2  5  1  1  0  0  0
  2  1  1  0  0  0  0
  3  2  1  0  0  0  0
  3  1  1  0  0  0  0
  6  3  1  0  0  0  0
  7  3  1  0  0  0  0
  8 13  2  0  0  0  0
  8  9  1  0  0  0  0
  9 10  2  0  0  0  0
 10 11  1  0  0  0  0
 10 15  1  0  0  0  0
 12 16  1  0  0  0  0
 12 11  2  0  0  0  0
 13 12  1  0  0  0  0
 14  9  1  0  0  0  0
 17  2  1  0  0  0  0
 17 18  1  0  0  0  0
 19 18  1  0  0  0  0
 20 21  1  0  0  0  0
 20 19  1  0  0  0  0
 21 17  1  0  0  0  0
M  END
>  <minimizedAffinity>
-3.99113846

$$$$
