
     RDKit          3D

 30 32  0  0  0  0  0  0  0  0999 V2000
   37.0079   31.1555   49.2456 C   0  0  0  0  0  0  0  0  0  0  0  0
   37.3194   32.4446   49.7210 C   0  0  0  0  0  0  0  0  0  0  0  0
   38.3051   33.1108   49.0139 C   0  0  0  0  0  0  0  0  0  0  0  0
   38.9072   32.5393   47.9471 N   0  0  0  0  0  0  0  0  0  0  0  0
   38.5810   31.2934   47.5162 C   0  0  0  0  0  0  0  0  0  0  0  0
   37.6159   30.5961   48.1804 N   0  0  0  0  0  0  0  0  0  0  0  0
   35.9222   30.3946   49.9676 C   0  0  0  0  0  0  0  0  0  0  0  0
   35.8099   28.9443   49.8484 C   0  0  0  0  0  0  0  0  0  0  0  0
   36.4663   29.5104   51.0799 C   0  0  0  0  0  0  0  0  0  0  0  0
   36.7908   32.8117   50.5694 H   0  0  0  0  0  0  0  0  0  0  0  0
   38.5746   34.1061   49.3483 H   0  0  0  0  0  0  0  0  0  0  0  0
   35.0594   31.0246   50.2307 H   0  0  0  0  0  0  0  0  0  0  0  0
   36.5433   28.3852   49.1965 H   0  0  0  0  0  0  0  0  0  0  0  0
   34.8116   28.4619   49.9258 H   0  0  0  0  0  0  0  0  0  0  0  0
   35.8790   29.5506   52.0152 H   0  0  0  0  0  0  0  0  0  0  0  0
   37.5452   29.4425   51.2262 H   0  0  0  0  0  0  0  0  0  0  0  0
   39.2173   30.6299   46.3497 C   0  0  0  0  0  0  0  0  0  0  0  0
   39.0960   31.4395   45.0860 C   0  0  0  0  0  0  0  0  0  0  0  0
   38.8168   30.5040   43.9624 C   0  0  0  0  0  0  0  0  0  0  0  0
   38.8206   29.1173   44.5592 C   0  0  0  0  0  0  0  0  0  0  0  0
   38.6267   29.2920   46.0513 C   0  0  0  0  0  0  0  0  0  0  0  0
   40.3159   30.5349   46.5380 H   0  0  0  0  0  0  0  0  0  0  0  0
   39.9741   32.1074   44.9277 H   0  0  0  0  0  0  0  0  0  0  0  0
   38.2168   32.1144   45.2154 H   0  0  0  0  0  0  0  0  0  0  0  0
   39.6257   30.6283   43.2136 H   0  0  0  0  0  0  0  0  0  0  0  0
   37.8383   30.6802   43.4518 H   0  0  0  0  0  0  0  0  0  0  0  0
   39.7794   28.5906   44.3412 H   0  0  0  0  0  0  0  0  0  0  0  0
   37.9739   28.4986   44.1537 H   0  0  0  0  0  0  0  0  0  0  0  0
   37.5372   29.2588   46.3029 H   0  0  0  0  0  0  0  0  0  0  0  0
   39.1756   28.4475   46.5339 H   0  0  0  0  0  0  0  0  0  0  0  0
  1  2  2  0
  1  7  1  0
  3  2  1  0
  4  3  2  0
  5  4  1  0
  5  6  2  0
  6  1  1  0
  7  9  1  0
  8  7  1  0
  8  9  1  0
  2 10  1  0
  3 11  1  0
  7 12  1  0
  8 13  1  0
  8 14  1  0
  9 15  1  0
  9 16  1  0
 17 18  1  0
 18 19  1  0
 19 20  1  0
 20 21  1  0
 21 17  1  0
 17 22  1  0
 18 23  1  0
 18 24  1  0
 19 25  1  0
 19 26  1  0
 20 27  1  0
 20 28  1  0
 21 29  1  0
 21 30  1  0
  5 17  1  0
M  ISO  7  10  14  11  14  12  13  13  13  14  13  15  13  16  13
M  END
>  <DihAtoms>  (1) 
3,4,16,17

>  <DihDeg>  (1) 
-116.67821042804907

$$$$
