
 OpenBabel03272502393D

 38 41  0  0  1  0  0  0  0  0999 V2000
   31.8170   27.4520   47.7260 N   0  0  0  0  0  0  0  0  0  0  0  0
   32.8230   26.8890   46.8380 C   0  0  0  0  0  0  0  0  0  0  0  0
   34.0640   27.6460   47.2090 C   0  0  0  0  0  0  0  0  0  0  0  0
   33.5730   28.7720   48.2240 C   0  0  1  0  0  0  0  0  0  0  0  0
   32.4960   28.0430   48.9000 C   0  0  0  0  0  0  0  0  0  0  0  0
   32.5810   27.1620   45.7950 H   0  0  0  0  0  0  0  0  0  0  0  0
   32.9830   25.8120   46.9720 H   0  0  0  0  0  0  0  0  0  0  0  0
   34.7820   27.0720   47.8110 H   0  0  0  0  0  0  0  0  0  0  0  0
   34.5640   28.1760   46.4030 H   0  0  0  0  0  0  0  0  0  0  0  0
   33.2690   29.5360   47.4980 H   0  0  0  0  0  0  0  0  0  0  0  0
   32.9320   27.2080   49.5060 H   0  0  0  0  0  0  0  0  0  0  0  0
   31.7900   28.6420   49.4790 H   0  0  0  0  0  0  0  0  0  0  0  0
   35.5670   30.5310   47.2520 F   0  0  0  0  0  0  0  0  0  0  0  0
   35.5950   30.0480   48.5060 C   0  0  0  0  0  0  0  0  0  0  0  0
   34.7110   29.1590   49.0570 C   0  0  0  0  0  0  0  0  0  0  0  0
   34.9110   28.7780   50.3940 C   0  0  0  0  0  0  0  0  0  0  0  0
   35.9480   29.2630   51.1510 C   0  0  0  0  0  0  0  0  0  0  0  0
   36.8330   30.1710   50.5530 C   0  0  0  0  0  0  0  0  0  0  0  0
   36.6490   30.5640   49.2090 C   0  0  0  0  0  0  0  0  0  0  0  0
   34.1680   28.0740   50.7420 H   0  0  0  0  0  0  0  0  0  0  0  0
   36.0390   28.9330   52.1570 H   0  0  0  0  0  0  0  0  0  0  0  0
   37.6040   30.4840   51.2310 H   0  0  0  0  0  0  0  0  0  0  0  0
   37.6280   31.5330   48.7180 C   0  0  0  0  0  0  0  0  0  0  0  0
   37.7800   32.8030   49.4710 C   0  0  0  0  0  0  0  0  0  0  0  0
   37.4150   33.2680   50.2690 H   0  0  0  0  0  0  0  0  0  0  0  0
   39.0060   33.6980   48.5840 S   0  0  0  0  0  0  0  0  0  0  0  0
   39.1990   32.3010   47.3000 C   0  0  0  0  0  0  0  0  0  0  0  0
   39.7750   31.8700   46.2480 H   0  0  0  0  0  0  0  0  0  0  0  0
   38.3190   31.2460   47.6270 N   0  0  0  0  0  0  0  0  0  0  0  0
   30.4240   27.4640   47.5380 C   0  0  0  0  0  0  0  0  0  0  0  0
   29.9840   27.8730   46.2690 C   0  0  0  0  0  0  0  0  0  0  0  0
   28.6050   27.9150   46.0050 C   0  0  0  0  0  0  0  0  0  0  0  0
   27.7700   27.5420   47.0410 N   0  0  0  0  0  0  0  0  0  0  0  0
   28.2370   27.1560   48.2450 C   0  0  0  0  0  0  0  0  0  0  0  0
   29.5590   27.1220   48.4790 N   0  0  0  0  0  0  0  0  0  0  0  0
   30.5920   28.1660   45.4500 H   0  0  0  0  0  0  0  0  0  0  0  0
   28.2240   28.2220   45.0480 H   0  0  0  0  0  0  0  0  0  0  0  0
   27.5550   26.8750   49.0220 H   0  0  0  0  0  0  0  0  0  0  0  0
  1  5  1  0  0  0  0
  2  7  1  0  0  0  0
  2  3  1  0  0  0  0
  2  1  1  0  0  0  0
  3  8  1  0  0  0  0
  3  4  1  0  0  0  0
  4 10  1  6  0  0  0
  4  5  1  0  0  0  0
  4 15  1  0  0  0  0
  5 12  1  0  0  0  0
  5 11  1  0  0  0  0
  6  2  1  0  0  0  0
  9  3  1  0  0  0  0
 13 14  1  0  0  0  0
 14 15  2  0  0  0  0
 14 19  1  0  0  0  0
 15 16  1  0  0  0  0
 16 20  1  0  0  0  0
 16 17  2  0  0  0  0
 17 21  1  0  0  0  0
 18 17  1  0  0  0  0
 18 22  1  0  0  0  0
 19 18  2  0  0  0  0
 23 19  1  0  0  0  0
 23 24  2  0  0  0  0
 24 25  1  0  0  0  0
 26 24  1  0  0  0  0
 27 29  2  0  0  0  0
 27 26  1  0  0  0  0
 28 27  1  0  0  0  0
 29 23  1  0  0  0  0
 30  1  1  0  0  0  0
 30 35  1  0  0  0  0
 31 30  2  0  0  0  0
 32 31  1  0  0  0  0
 32 33  2  0  0  0  0
 33 34  1  0  0  0  0
 34 35  2  0  0  0  0
 34 38  1  0  0  0  0
 36 31  1  0  0  0  0
 37 32  1  0  0  0  0
M  END
>  <minimizedAffinity>
-5.9788537

>  <minimizedRMSD>
3.03457832

$$$$
