
 OpenBabel03272510123D

 33 36  0  0  0  0  0  0  0  0999 V2000
   33.6430   28.4640   48.4550 C   0  0  0  0  0  0  0  0  0  0  0  0
   34.5480   28.0600   49.3720 C   0  0  0  0  0  0  0  0  0  0  0  0
   35.6320   28.8100   49.7950 C   0  0  0  0  0  0  0  0  0  0  0  0
   35.8350   30.0540   49.2710 C   0  0  0  0  0  0  0  0  0  0  0  0
   34.9000   30.4820   48.3180 C   0  0  0  0  0  0  0  0  0  0  0  0
   33.8710   29.7000   47.9540 N   0  0  0  0  0  0  0  0  0  0  0  0
   34.4700   27.0890   49.8420 H   0  0  0  0  0  0  0  0  0  0  0  0
   36.3540   28.4870   50.5260 H   0  0  0  0  0  0  0  0  0  0  0  0
   34.9170   31.4360   47.8090 H   0  0  0  0  0  0  0  0  0  0  0  0
   31.3110   27.5790   48.7230 C   0  0  0  0  0  0  0  0  0  0  0  0
   32.5240   27.6820   48.0230 C   0  0  0  0  0  0  0  0  0  0  0  0
   32.6100   26.9660   46.8370 C   0  0  0  0  0  0  0  0  0  0  0  0
   31.5300   26.2160   46.4300 N   0  0  0  0  0  0  0  0  0  0  0  0
   30.3980   26.1650   47.1540 C   0  0  0  0  0  0  0  0  0  0  0  0
   30.2750   26.8490   48.3130 N   0  0  0  0  0  0  0  0  0  0  0  0
   31.2130   28.1270   49.6520 H   0  0  0  0  0  0  0  0  0  0  0  0
   33.4850   26.9550   46.2000 H   0  0  0  0  0  0  0  0  0  0  0  0
   29.5540   25.5750   46.8270 H   0  0  0  0  0  0  0  0  0  0  0  0
   36.8660   30.9440   49.5770 O   0  0  0  0  0  0  0  0  0  0  0  0
   37.5940   31.5860   48.5880 C   0  0  0  0  0  0  0  0  0  0  0  0
   38.5060   32.5110   49.0540 C   0  0  0  0  0  0  0  0  0  0  0  0
   39.1560   33.0680   47.9560 C   0  0  0  0  0  0  0  0  0  0  0  0
   38.6270   32.4730   46.8770 N   0  0  0  0  0  0  0  0  0  0  0  0
   37.7200   31.6130   47.2590 N   0  0  0  0  0  0  0  0  0  0  0  0
   38.8140   32.8840   50.0410 H   0  0  0  0  0  0  0  0  0  0  0  0
   39.9280   33.8130   47.8010 H   0  0  0  0  0  0  0  0  0  0  0  0
   38.8460   32.5790   45.4520 C   0  0  0  0  0  0  0  0  0  0  0  0
   40.1580   32.8980   44.7250 C   0  0  0  0  0  0  0  0  0  0  0  0
   40.9360   33.0390   45.4580 H   0  0  0  0  0  0  0  0  0  0  0  0
   39.5430   32.8340   43.0250 S   0  0  0  0  0  0  0  0  0  0  0  0
   37.7530   32.4210   43.5070 C   0  0  0  0  0  0  0  0  0  0  0  0
   37.1020   32.3120   42.6860 H   0  0  0  0  0  0  0  0  0  0  0  0
   37.6990   32.3550   44.8000 N   0  0  0  0  0  0  0  0  0  0  0  0
  1  2  1  0  0  0  0
  2  3  2  0  0  0  0
  2  7  1  0  0  0  0
  3  8  1  0  0  0  0
  4 19  1  0  0  0  0
  4  3  1  0  0  0  0
  5  4  2  0  0  0  0
  6  5  1  0  0  0  0
  6  1  2  0  0  0  0
  9  5  1  0  0  0  0
 10 16  1  0  0  0  0
 11  1  1  0  0  0  0
 11 10  2  0  0  0  0
 12 11  1  0  0  0  0
 13 12  2  0  0  0  0
 13 14  1  0  0  0  0
 14 15  2  0  0  0  0
 15 10  1  0  0  0  0
 17 12  1  0  0  0  0
 18 14  1  0  0  0  0
 20 21  1  0  0  0  0
 20 19  1  0  0  0  0
 21 25  1  0  0  0  0
 22 21  2  0  0  0  0
 23 24  1  0  0  0  0
 23 22  1  0  0  0  0
 24 20  2  0  0  0  0
 26 22  1  0  0  0  0
 27 23  1  0  0  0  0
 28 27  2  0  0  0  0
 28 29  1  0  0  0  0
 30 31  1  0  0  0  0
 30 28  1  0  0  0  0
 31 33  2  0  0  0  0
 32 31  1  0  0  0  0
 33 27  1  0  0  0  0
M  END
>  <minimizedAffinity>
-5.89761686

>  <minimizedRMSD>
1.64505661

$$$$
