
 OpenBabel03272509533D

 41 44  0  0  0  0  0  0  0  0999 V2000
   34.3910   28.7200   48.0850 C   0  0  0  0  0  0  0  0  0  0  0  0
   35.2670   28.8290   47.4080 H   0  0  0  0  0  0  0  0  0  0  0  0
   33.8850   29.7040   48.1300 H   0  0  0  0  0  0  0  0  0  0  0  0
   33.5140   27.6160   47.5930 C   0  0  0  0  0  0  0  0  0  0  0  0
   33.7700   26.6430   48.0310 H   0  0  0  0  0  0  0  0  0  0  0  0
   33.6570   27.4950   46.4800 H   0  0  0  0  0  0  0  0  0  0  0  0
   32.0710   27.8880   47.7640 C   0  0  0  0  0  0  0  0  0  0  0  0
   31.4510   27.4040   48.9050 C   0  0  0  0  0  0  0  0  0  0  0  0
   30.1260   27.5900   49.1750 C   0  0  0  0  0  0  0  0  0  0  0  0
   29.3940   28.2720   48.2960 N   0  0  0  0  0  0  0  0  0  0  0  0
   29.9900   28.7510   47.1750 C   0  0  0  0  0  0  0  0  0  0  0  0
   31.3050   28.5770   46.8870 N   0  0  0  0  0  0  0  0  0  0  0  0
   32.0450   26.8430   49.6330 H   0  0  0  0  0  0  0  0  0  0  0  0
   29.6690   27.2000   50.0760 H   0  0  0  0  0  0  0  0  0  0  0  0
   29.1610   29.5050   46.2090 C   0  0  0  0  0  0  0  0  0  0  0  0
   27.7040   29.4190   46.1220 C   0  0  0  0  0  0  0  0  0  0  0  0
   27.2070   28.7830   46.7820 H   0  0  0  0  0  0  0  0  0  0  0  0
   27.4730   30.6490   44.6930 S   0  0  0  0  0  0  0  0  0  0  0  0
   29.3220   30.9830   44.5500 C   0  0  0  0  0  0  0  0  0  0  0  0
   29.6210   31.6920   43.7800 H   0  0  0  0  0  0  0  0  0  0  0  0
   29.8640   30.2900   45.4070 N   0  0  0  0  0  0  0  0  0  0  0  0
   34.9570   28.3810   49.3520 O   0  0  0  0  0  0  0  0  0  0  0  0
   37.2860   30.1480   51.4690 C   0  0  0  0  0  0  0  0  0  0  0  0
   38.0370   30.8350   50.4900 C   0  0  0  0  0  0  0  0  0  0  0  0
   37.6920   30.6450   49.1550 C   0  0  0  0  0  0  0  0  0  0  0  0
   36.6400   29.7960   48.9240 N   0  0  0  0  0  0  0  0  0  0  0  0
   35.9430   29.1580   49.8590 C   0  0  0  0  0  0  0  0  0  0  0  0
   36.2810   29.3430   51.1420 N   0  0  0  0  0  0  0  0  0  0  0  0
   37.5950   30.3300   52.4810 H   0  0  0  0  0  0  0  0  0  0  0  0
   38.8590   31.4970   50.6950 H   0  0  0  0  0  0  0  0  0  0  0  0
   38.9200   33.2540   48.9950 F   0  0  0  0  0  0  0  0  0  0  0  0
   38.9170   32.4750   47.9280 C   0  0  0  0  0  0  0  0  0  0  0  0
   38.3340   31.2530   48.0270 C   0  0  0  0  0  0  0  0  0  0  0  0
   38.3880   30.5140   46.8400 C   0  0  0  0  0  0  0  0  0  0  0  0
   38.9800   30.9930   45.6910 C   0  0  0  0  0  0  0  0  0  0  0  0
   39.5560   32.2400   45.6480 C   0  0  0  0  0  0  0  0  0  0  0  0
   39.5130   32.9780   46.7940 C   0  0  0  0  0  0  0  0  0  0  0  0
   37.9530   29.5160   46.7950 H   0  0  0  0  0  0  0  0  0  0  0  0
   38.9890   30.3660   44.7980 H   0  0  0  0  0  0  0  0  0  0  0  0
   39.9960   32.5490   44.7250 H   0  0  0  0  0  0  0  0  0  0  0  0
   39.9630   33.9610   46.7780 H   0  0  0  0  0  0  0  0  0  0  0  0
  1  3  1  0  0  0  0
  1 22  1  0  0  0  0
  2  1  1  0  0  0  0
  4  7  1  0  0  0  0
  4  5  1  0  0  0  0
  4  1  1  0  0  0  0
  6  4  1  0  0  0  0
  7  8  1  0  0  0  0
  8  9  2  0  0  0  0
  8 13  1  0  0  0  0
  9 14  1  0  0  0  0
 10  9  1  0  0  0  0
 11 10  2  0  0  0  0
 12 11  1  0  0  0  0
 12  7  2  0  0  0  0
 15 11  1  0  0  0  0
 16 15  2  0  0  0  0
 16 17  1  0  0  0  0
 18 16  1  0  0  0  0
 19 18  1  0  0  0  0
 19 21  2  0  0  0  0
 20 19  1  0  0  0  0
 21 15  1  0  0  0  0
 22 27  1  0  0  0  0
 23 29  1  0  0  0  0
 24 30  1  0  0  0  0
 24 23  2  0  0  0  0
 25 24  1  0  0  0  0
 26 25  2  0  0  0  0
 26 27  1  0  0  0  0
 27 28  2  0  0  0  0
 28 23  1  0  0  0  0
 32 33  1  0  0  0  0
 32 31  1  0  0  0  0
 33 25  1  0  0  0  0
 34 33  2  0  0  0  0
 35 34  1  0  0  0  0
 36 35  2  0  0  0  0
 36 37  1  0  0  0  0
 37 32  2  0  0  0  0
 38 34  1  0  0  0  0
 39 35  1  0  0  0  0
 40 36  1  0  0  0  0
 41 37  1  0  0  0  0
M  END
>  <minimizedAffinity>
-6.52173471

>  <minimizedRMSD>
0.397963911

$$$$
