
     RDKit          3D

 30 32  0  0  0  0  0  0  0  0999 V2000
   35.6453   29.3333   49.8409 C   0  0  0  0  0  0  0  0  0  0  0  0
   35.7427   30.2841   48.8078 C   0  0  0  0  0  0  0  0  0  0  0  0
   34.9114   30.1602   47.6903 C   0  0  0  0  0  0  0  0  0  0  0  0
   34.0433   29.1178   47.6579 N   0  0  0  0  0  0  0  0  0  0  0  0
   33.9530   28.2243   48.6293 C   0  0  0  0  0  0  0  0  0  0  0  0
   34.7465   28.3321   49.7089 N   0  0  0  0  0  0  0  0  0  0  0  0
   37.6488   30.0537   51.3445 C   0  0  0  0  0  0  0  0  0  0  0  0
   38.2061   30.8341   50.5417 O   0  0  0  0  0  0  0  0  0  0  0  0
   36.4264   29.3703   51.0162 N   0  0  0  0  0  0  0  0  0  0  0  0
   36.7085   31.3348   48.9695 N   0  0  0  0  0  0  0  0  0  0  0  0
   36.5525   32.3370   49.8273 C   0  0  0  0  0  0  0  0  0  0  0  0
   37.5398   33.3187   49.9286 C   0  0  0  0  0  0  0  0  0  0  0  0
   38.6090   33.1482   49.1067 C   0  0  0  0  0  0  0  0  0  0  0  0
   39.4988   34.0478   49.2091 O   0  0  0  0  0  0  0  0  0  0  0  0
   38.8016   32.1633   48.2380 N   0  0  0  0  0  0  0  0  0  0  0  0
   37.8186   31.2332   48.1731 C   0  0  0  0  0  0  0  0  0  0  0  0
   37.9876   30.2800   47.3440 O   0  0  0  0  0  0  0  0  0  0  0  0
   35.0124   30.9133   46.9091 H   0  0  0  0  0  0  0  0  0  0  0  0
   33.2572   27.3995   48.5895 H   0  0  0  0  0  0  0  0  0  0  0  0
   38.1471   29.9316   52.2917 H   0  0  0  0  0  0  0  0  0  0  0  0
   36.0920   28.8046   51.8508 H   0  0  0  0  0  0  0  0  0  0  0  0
   35.6614   32.3864   50.4422 H   0  0  0  0  0  0  0  0  0  0  0  0
   37.4360   34.1393   50.6157 H   0  0  0  0  0  0  0  0  0  0  0  0
   39.9710   32.0586   47.4006 C   0  0  0  0  0  0  0  0  0  0  0  0
   40.5537   33.1589   46.6887 C   0  0  0  0  0  0  0  0  0  0  0  0
   40.1347   34.1284   46.7508 H   0  0  0  0  0  0  0  0  0  0  0  0
   41.9213   32.3922   45.8739 S   0  0  0  0  0  0  0  0  0  0  0  0
   41.5298   30.6710   46.6030 C   0  0  0  0  0  0  0  0  0  0  0  0
   42.1131   29.7758   46.4007 H   0  0  0  0  0  0  0  0  0  0  0  0
   40.5576   30.8826   47.2676 N   0  0  0  0  0  0  0  0  0  0  0  0
  1  9  1  0
  2 10  1  0
  2  1  2  0
  3  2  1  0
  4  3  2  0
  4  5  1  0
  5  6  2  0
  6  1  1  0
  8  7  2  0
  9  7  1  0
 10 11  1  0
 11 12  2  0
 13 14  2  0
 13 12  1  0
 15 13  1  0
 16 15  1  0
 16 10  1  0
 17 16  2  0
  3 18  1  0
  5 19  1  0
  7 20  1  0
  9 21  1  0
 11 22  1  0
 12 23  1  0
 24 25  2  0
 25 26  1  0
 25 27  1  0
 27 28  1  0
 28 29  1  0
 28 30  2  0
 30 24  1  0
 15 24  1  0
M  ISO  7  18  14  19  14  20   6  22  14  23  14  26  15  29  16
M  END
>  <DihAtoms>  (1) 
12,14,23,24

>  <DihDeg>  (1) 
-134.10432798138157

$$$$
