REMARK  Name = 
REMARK  2 active torsions:
REMARK  status: ('A' for Active; 'I' for Inactive)
REMARK    1  A    between atoms: C_1  and  C_13
REMARK    2  A    between atoms: C_12  and  C_28
REMARK                            x       y       z     vdW  Elec       q    Type
REMARK                         _______ _______ _______ _____ _____    ______ ____
ROOT
ATOM      1  C   UNL     1      36.717  31.097  49.089  0.00  0.00    +0.000 A 
ATOM      2  C   UNL     1      37.061  32.166  49.944  0.00  0.00    +0.000 A 
ATOM      3  C   UNL     1      37.981  33.101  49.463  0.00  0.00    +0.000 A 
ATOM      4  N   UNL     1      38.486  32.923  48.205  0.00  0.00    +0.000 NA
ATOM      5  C   UNL     1      38.126  31.886  47.428  0.00  0.00    +0.000 A 
ATOM      6  N   UNL     1      37.243  30.970  47.863  0.00  0.00    +0.000 NA
ATOM      7  N   UNL     1      38.717  31.795  46.124  0.00  0.00    +0.000 N 
ATOM      8  C   UNL     1      39.943  31.042  45.965  0.00  0.00    +0.000 C 
ATOM      9  C   UNL     1      40.829  31.936  45.092  0.00  0.00    +0.000 C 
ATOM     10  C   UNL     1      40.174  31.896  43.738  0.00  0.00    +0.000 C 
ATOM     11  C   UNL     1      38.874  32.619  43.804  0.00  0.00    +0.000 C 
ATOM     12  C   UNL     1      38.070  32.447  45.052  0.00  0.00    +0.000 C 
ATOM     13  H   UNL     1      36.633  32.261  50.930  0.00  0.00    +0.000 HD
ATOM     14  H   UNL     1      38.258  33.916  50.086  0.00  0.00    +0.000 HD
ATOM     15  H   UNL     1      40.444  30.879  46.936  0.00  0.00    +0.000 HD
ATOM     16  H   UNL     1      39.790  30.100  45.388  0.00  0.00    +0.000 HD
ATOM     17  H   UNL     1      41.790  31.368  44.988  0.00  0.00    +0.000 HD
ATOM     18  H   UNL     1      40.936  32.942  45.502  0.00  0.00    +0.000 HD
ATOM     19  H   UNL     1      40.053  30.822  43.475  0.00  0.00    +0.000 HD
ATOM     20  H   UNL     1      40.825  32.382  42.987  0.00  0.00    +0.000 HD
ATOM     21  H   UNL     1      38.259  32.216  42.956  0.00  0.00    +0.000 HD
ATOM     22  H   UNL     1      39.060  33.675  43.519  0.00  0.00    +0.000 HD
ATOM     23  H   UNL     1      37.878  33.494  45.421  0.00  0.00    +0.000 HD
ENDROOT
BRANCH  12  24
ATOM     24  C   UNL     1      36.768  31.775  44.786  0.00  0.00    +0.000 A 
ATOM     25  C   UNL     1      36.267  31.435  43.437  0.00  0.00    +0.000 A 
ATOM     26  H   UNL     1      36.985  31.743  42.526  0.00  0.00    +0.000 HD
ATOM     27  S   UNL     1      34.667  30.644  43.840  0.00  0.00    +0.000 S 
ATOM     28  C   UNL     1      34.907  30.881  45.666  0.00  0.00    +0.000 A 
ATOM     29  H   UNL     1      34.135  30.530  46.354  0.00  0.00    +0.000 HD
ATOM     30  N   UNL     1      35.974  31.432  45.766  0.00  0.00    +0.000 NA
ENDBRANCH  12  24
BRANCH   1  31
ATOM     31  C   UNL     1      35.730  30.082  49.587  0.00  0.00    +0.000 C 
ATOM     32  F   UNL     1      34.448  30.653  49.578  0.00  0.00    +0.000 F 
ATOM     33  F   UNL     1      35.831  28.970  48.831  0.00  0.00    +0.000 F 
ATOM     34  F   UNL     1      36.024  29.842  50.923  0.00  0.00    +0.000 F 
ENDBRANCH   1  31
TORSDOF 2
