
 OpenBabel03272510123D

 33 36  0  0  0  0  0  0  0  0999 V2000
   33.4570   28.4860   48.4050 C   0  0  0  0  0  0  0  0  0  0  0  0
   34.3420   28.0770   49.3390 C   0  0  0  0  0  0  0  0  0  0  0  0
   35.5260   28.7270   49.6440 C   0  0  0  0  0  0  0  0  0  0  0  0
   35.8590   29.8680   48.9730 C   0  0  0  0  0  0  0  0  0  0  0  0
   34.9460   30.3010   48.0020 C   0  0  0  0  0  0  0  0  0  0  0  0
   33.8150   29.6190   47.7570 N   0  0  0  0  0  0  0  0  0  0  0  0
   34.1650   27.1830   49.9210 H   0  0  0  0  0  0  0  0  0  0  0  0
   36.2320   28.3990   50.3890 H   0  0  0  0  0  0  0  0  0  0  0  0
   35.0590   31.1820   47.3840 H   0  0  0  0  0  0  0  0  0  0  0  0
   31.1660   27.6520   48.9930 C   0  0  0  0  0  0  0  0  0  0  0  0
   32.2350   27.8080   48.0960 C   0  0  0  0  0  0  0  0  0  0  0  0
   32.0620   27.2560   46.8340 C   0  0  0  0  0  0  0  0  0  0  0  0
   30.8840   26.6060   46.5460 N   0  0  0  0  0  0  0  0  0  0  0  0
   29.9010   26.4950   47.4580 C   0  0  0  0  0  0  0  0  0  0  0  0
   30.0320   27.0200   48.6970 N   0  0  0  0  0  0  0  0  0  0  0  0
   31.2710   28.0720   49.9850 H   0  0  0  0  0  0  0  0  0  0  0  0
   32.8030   27.3020   46.0470 H   0  0  0  0  0  0  0  0  0  0  0  0
   28.9790   25.9830   47.2240 H   0  0  0  0  0  0  0  0  0  0  0  0
   37.0020   30.6490   49.1470 O   0  0  0  0  0  0  0  0  0  0  0  0
   37.8180   30.9960   48.0830 C   0  0  0  0  0  0  0  0  0  0  0  0
   38.4850   32.1950   48.2340 C   0  0  0  0  0  0  0  0  0  0  0  0
   39.2590   32.4060   47.0970 C   0  0  0  0  0  0  0  0  0  0  0  0
   39.0410   31.3480   46.3040 N   0  0  0  0  0  0  0  0  0  0  0  0
   38.2010   30.5350   46.8900 N   0  0  0  0  0  0  0  0  0  0  0  0
   38.5370   32.9730   49.0080 H   0  0  0  0  0  0  0  0  0  0  0  0
   39.9380   33.1760   46.7470 H   0  0  0  0  0  0  0  0  0  0  0  0
   39.5230   30.9400   45.0030 C   0  0  0  0  0  0  0  0  0  0  0  0
   40.5140   31.6800   44.0970 C   0  0  0  0  0  0  0  0  0  0  0  0
   40.8210   32.5900   44.5860 H   0  0  0  0  0  0  0  0  0  0  0  0
   40.5450   30.5060   42.7220 S   0  0  0  0  0  0  0  0  0  0  0  0
   39.3150   29.2910   43.5070 C   0  0  0  0  0  0  0  0  0  0  0  0
   39.1090   28.4440   42.9150 H   0  0  0  0  0  0  0  0  0  0  0  0
   38.9680   29.7720   44.6590 N   0  0  0  0  0  0  0  0  0  0  0  0
  1  2  1  0  0  0  0
  2  3  2  0  0  0  0
  2  7  1  0  0  0  0
  3  8  1  0  0  0  0
  4 19  1  0  0  0  0
  4  3  1  0  0  0  0
  5  4  2  0  0  0  0
  6  5  1  0  0  0  0
  6  1  2  0  0  0  0
  9  5  1  0  0  0  0
 10 16  1  0  0  0  0
 11  1  1  0  0  0  0
 11 10  2  0  0  0  0
 12 11  1  0  0  0  0
 13 12  2  0  0  0  0
 13 14  1  0  0  0  0
 14 15  2  0  0  0  0
 15 10  1  0  0  0  0
 17 12  1  0  0  0  0
 18 14  1  0  0  0  0
 20 21  1  0  0  0  0
 20 19  1  0  0  0  0
 21 25  1  0  0  0  0
 22 21  2  0  0  0  0
 23 24  1  0  0  0  0
 23 22  1  0  0  0  0
 24 20  2  0  0  0  0
 26 22  1  0  0  0  0
 27 23  1  0  0  0  0
 28 29  1  0  0  0  0
 28 27  2  0  0  0  0
 30 31  1  0  0  0  0
 30 28  1  0  0  0  0
 31 33  2  0  0  0  0
 32 31  1  0  0  0  0
 33 27  1  0  0  0  0
M  END
>  <minimizedAffinity>
-5.7323575

>  <minimizedRMSD>
2.36647868

$$$$
