
 OpenBabel03272509353D

 45 49  0  0  1  0  0  0  0  0999 V2000
   36.6160   30.0340   43.1730 C   0  0  1  0  0  0  0  0  0  0  0  0
   37.6240   31.0230   43.6400 C   0  0  0  0  0  0  0  0  0  0  0  0
   38.1300   29.6730   43.5180 C   0  0  2  0  0  0  0  0  0  0  0  0
   36.4070   29.7940   42.1420 H   0  0  0  0  0  0  0  0  0  0  0  0
   37.6400   31.8650   42.9510 H   0  0  0  0  0  0  0  0  0  0  0  0
   37.4040   31.4310   44.6970 H   0  0  0  0  0  0  0  0  0  0  0  0
   38.1080   28.8650   44.2410 H   0  0  0  0  0  0  0  0  0  0  0  0
   39.0640   29.5400   42.3490 C   0  0  0  0  0  0  0  0  0  0  0  0
   39.7030   30.7690   42.1100 C   0  0  0  0  0  0  0  0  0  0  0  0
   40.6810   30.8540   41.1520 C   0  0  0  0  0  0  0  0  0  0  0  0
   41.0660   29.7370   40.3970 C   0  0  0  0  0  0  0  0  0  0  0  0
   40.4120   28.5420   40.6630 C   0  0  0  0  0  0  0  0  0  0  0  0
   40.6810   27.3800   39.9940 C   0  0  0  0  0  0  0  0  0  0  0  0
   40.0360   26.1940   40.2370 C   0  0  0  0  0  0  0  0  0  0  0  0
   39.0600   26.1610   41.2100 C   0  0  0  0  0  0  0  0  0  0  0  0
   38.7810   27.3280   41.8910 C   0  0  0  0  0  0  0  0  0  0  0  0
   39.4550   28.5000   41.6130 C   0  0  0  0  0  0  0  0  0  0  0  0
   39.6570   31.7620   42.5060 H   0  0  0  0  0  0  0  0  0  0  0  0
   41.2740   31.6970   40.8320 H   0  0  0  0  0  0  0  0  0  0  0  0
   41.8170   29.6700   39.6190 H   0  0  0  0  0  0  0  0  0  0  0  0
   41.4440   27.3590   39.2170 H   0  0  0  0  0  0  0  0  0  0  0  0
   40.2820   25.2950   39.6800 H   0  0  0  0  0  0  0  0  0  0  0  0
   38.5120   25.2660   41.4550 H   0  0  0  0  0  0  0  0  0  0  0  0
   37.9960   27.2810   42.6680 H   0  0  0  0  0  0  0  0  0  0  0  0
   34.0040   27.9200   44.8870 C   0  0  0  0  0  0  0  0  0  0  0  0
   34.9090   28.4070   43.8920 C   0  0  0  0  0  0  0  0  0  0  0  0
   35.6760   29.4960   44.1890 C   0  0  0  0  0  0  0  0  0  0  0  0
   35.5110   30.0420   45.4450 N   0  0  0  0  0  0  0  0  0  0  0  0
   34.6630   29.5740   46.3640 C   0  0  0  0  0  0  0  0  0  0  0  0
   33.8960   28.5060   46.1000 N   0  0  0  0  0  0  0  0  0  0  0  0
   33.4340   27.0570   44.5750 H   0  0  0  0  0  0  0  0  0  0  0  0
   34.9920   27.9430   42.9380 H   0  0  0  0  0  0  0  0  0  0  0  0
   34.6060   30.2800   47.6910 C   0  0  0  0  0  0  0  0  0  0  0  0
   33.9440   31.1410   47.6690 H   0  0  0  0  0  0  0  0  0  0  0  0
   34.2900   29.5130   48.4470 H   0  0  0  0  0  0  0  0  0  0  0  0
   36.0460   30.6810   48.0480 C   0  0  0  0  0  0  0  0  0  0  0  0
   36.0920   31.8050   47.9430 H   0  0  0  0  0  0  0  0  0  0  0  0
   36.7450   30.3020   47.3050 H   0  0  0  0  0  0  0  0  0  0  0  0
   36.3600   30.2960   49.4560 C   0  0  0  0  0  0  0  0  0  0  0  0
   37.6240   30.6350   50.0850 C   0  0  0  0  0  0  0  0  0  0  0  0
   38.3760   31.1750   49.5600 H   0  0  0  0  0  0  0  0  0  0  0  0
   37.3920   29.9120   51.7270 S   0  0  0  0  0  0  0  0  0  0  0  0
   35.6380   29.2710   51.3090 C   0  0  0  0  0  0  0  0  0  0  0  0
   34.9800   28.7150   51.9920 H   0  0  0  0  0  0  0  0  0  0  0  0
   35.4270   29.6290   50.1010 N   0  0  0  0  0  0  0  0  0  0  0  0
  1  4  1  6  0  0  0
  1  3  1  0  0  0  0
  1  2  1  0  0  0  0
  1 27  1  0  0  0  0
  2  6  1  0  0  0  0
  3  2  1  0  0  0  0
  3  7  1  1  0  0  0
  5  2  1  0  0  0  0
  8  3  1  0  0  0  0
  9  8  1  0  0  0  0
  9 18  1  0  0  0  0
 10  9  2  0  0  0  0
 11 12  2  0  0  0  0
 11 10  1  0  0  0  0
 12 17  1  0  0  0  0
 13 14  2  0  0  0  0
 13 12  1  0  0  0  0
 14 15  1  0  0  0  0
 15 23  1  0  0  0  0
 15 16  2  0  0  0  0
 16 24  1  0  0  0  0
 17 16  1  0  0  0  0
 17  8  2  0  0  0  0
 19 10  1  0  0  0  0
 20 11  1  0  0  0  0
 21 13  1  0  0  0  0
 22 14  1  0  0  0  0
 25 30  1  0  0  0  0
 26 27  1  0  0  0  0
 26 25  2  0  0  0  0
 27 28  2  0  0  0  0
 28 29  1  0  0  0  0
 29 33  1  0  0  0  0
 30 29  2  0  0  0  0
 31 25  1  0  0  0  0
 32 26  1  0  0  0  0
 33 36  1  0  0  0  0
 33 35  1  0  0  0  0
 34 33  1  0  0  0  0
 36 39  1  0  0  0  0
 37 36  1  0  0  0  0
 38 36  1  0  0  0  0
 39 40  2  0  0  0  0
 39 45  1  0  0  0  0
 40 42  1  0  0  0  0
 41 40  1  0  0  0  0
 43 42  1  0  0  0  0
 43 44  1  0  0  0  0
 45 43  2  0  0  0  0
M  END
>  <minimizedAffinity>
-4.64744711

>  <minimizedRMSD>
4.16751575

$$$$
