
 OpenBabel03272506393D

 35 37  0  0  1  0  0  0  0  0999 V2000
   34.4900   29.5110   50.0820 O   0  0  0  0  0  0  0  0  0  0  0  0
   34.3300   29.5440   48.8550 C   0  0  0  0  0  0  0  0  0  0  0  0
   35.1510   30.3770   48.0030 C   0  0  2  0  0  0  0  0  0  0  0  0
   34.6870   29.9070   46.5870 C   0  0  0  0  0  0  0  0  0  0  0  0
   33.2980   29.4080   46.8290 C   0  0  0  0  0  0  0  0  0  0  0  0
   33.3400   28.7800   48.1360 N   0  0  0  0  0  0  0  0  0  0  0  0
   34.9350   31.4380   48.1020 H   0  0  0  0  0  0  0  0  0  0  0  0
   35.3700   29.1650   46.1770 H   0  0  0  0  0  0  0  0  0  0  0  0
   34.6390   30.8300   45.9850 H   0  0  0  0  0  0  0  0  0  0  0  0
   33.1070   28.5900   46.0910 H   0  0  0  0  0  0  0  0  0  0  0  0
   32.5370   30.1860   46.8030 H   0  0  0  0  0  0  0  0  0  0  0  0
   32.5610   27.6520   48.5770 C   0  0  0  0  0  0  0  0  0  0  0  0
   32.9390   27.3670   49.5960 H   0  0  0  0  0  0  0  0  0  0  0  0
   31.5330   27.9760   48.7320 H   0  0  0  0  0  0  0  0  0  0  0  0
   32.6920   26.4680   47.6530 C   0  0  0  0  0  0  0  0  0  0  0  0
   31.4890   25.8980   47.0440 C   0  0  0  0  0  0  0  0  0  0  0  0
   30.5730   26.2270   47.1840 H   0  0  0  0  0  0  0  0  0  0  0  0
   32.2210   24.5480   46.0710 S   0  0  0  0  0  0  0  0  0  0  0  0
   33.9920   24.9570   46.6280 C   0  0  0  0  0  0  0  0  0  0  0  0
   35.0440   24.5260   46.4240 H   0  0  0  0  0  0  0  0  0  0  0  0
   33.9400   26.0230   47.4650 N   0  0  0  0  0  0  0  0  0  0  0  0
   36.5450   30.0880   48.0640 O   0  0  0  0  0  0  0  0  0  0  0  0
   37.4240   31.1610   48.1810 C   0  0  0  0  0  0  0  0  0  0  0  0
   37.5900   31.6950   49.4460 C   0  0  0  0  0  0  0  0  0  0  0  0
   38.4590   32.7650   49.5940 C   0  0  0  0  0  0  0  0  0  0  0  0
   39.1080   33.2420   48.4950 N   0  0  0  0  0  0  0  0  0  0  0  0
   38.9340   32.7120   47.2750 C   0  0  0  0  0  0  0  0  0  0  0  0
   38.1020   31.6880   47.1390 N   0  0  0  0  0  0  0  0  0  0  0  0
   40.4570   32.2730   45.5120 C   0  0  0  0  0  0  0  0  0  0  0  0
   40.6330   31.0590   45.8300 O   0  0  0  0  0  0  0  0  0  0  0  0
   39.6280   33.2390   46.1480 N   0  0  0  0  0  0  0  0  0  0  0  0
   37.0600   31.2940   50.3000 H   0  0  0  0  0  0  0  0  0  0  0  0
   38.5830   33.1750   50.5770 H   0  0  0  0  0  0  0  0  0  0  0  0
   41.0550   32.4990   44.6390 H   0  0  0  0  0  0  0  0  0  0  0  0
   39.6430   34.1650   45.7140 H   0  0  0  0  0  0  0  0  0  0  0  0
  2  1  2  0  0  0  0
  3 22  1  0  0  0  0
  3  7  1  1  0  0  0
  3  2  1  0  0  0  0
  4  5  1  0  0  0  0
  4  3  1  0  0  0  0
  5  6  1  0  0  0  0
  6 12  1  0  0  0  0
  6  2  1  0  0  0  0
  8  4  1  0  0  0  0
  9  4  1  0  0  0  0
 10  5  1  0  0  0  0
 11  5  1  0  0  0  0
 12 14  1  0  0  0  0
 12 13  1  0  0  0  0
 15 12  1  0  0  0  0
 16 17  1  0  0  0  0
 16 15  2  0  0  0  0
 18 19  1  0  0  0  0
 18 16  1  0  0  0  0
 19 21  2  0  0  0  0
 20 19  1  0  0  0  0
 21 15  1  0  0  0  0
 22 23  1  0  0  0  0
 23 24  1  0  0  0  0
 24 25  2  0  0  0  0
 24 32  1  0  0  0  0
 25 33  1  0  0  0  0
 26 25  1  0  0  0  0
 27 26  2  0  0  0  0
 28 27  1  0  0  0  0
 28 23  2  0  0  0  0
 29 30  2  0  0  0  0
 29 31  1  0  0  0  0
 31 27  1  0  0  0  0
 34 29  1  0  0  0  0
 35 31  1  0  0  0  0
M  END
>  <minimizedAffinity>
-5.42777538

>  <minimizedRMSD>
1.43562913

$$$$
