REMARK  Name = 
REMARK  3 active torsions:
REMARK  status: ('A' for Active; 'I' for Inactive)
REMARK    1  A    between atoms: C_1  and  O_10
REMARK    2  A    between atoms: C_2  and  N_9
REMARK    3  A    between atoms: O_10  and  C_15
REMARK                            x       y       z     vdW  Elec       q    Type
REMARK                         _______ _______ _______ _____ _____    ______ ____
ROOT
ATOM      1  C   UNL     1      36.790  29.680  51.124  0.00  0.00    +0.000 A 
ATOM      2  C   UNL     1      37.300  30.066  49.885  0.00  0.00    +0.000 A 
ATOM      3  C   UNL     1      36.544  29.859  48.750  0.00  0.00    +0.000 A 
ATOM      4  N   UNL     1      35.325  29.284  48.893  0.00  0.00    +0.000 NA
ATOM      5  C   UNL     1      34.837  28.913  50.098  0.00  0.00    +0.000 A 
ATOM      6  N   UNL     1      35.562  29.109  51.203  0.00  0.00    +0.000 NA
ATOM      7  H   UNL     1      36.866  30.126  47.770  0.00  0.00    +0.000 HD
ATOM      8  H   UNL     1      33.852  28.453  50.179  0.00  0.00    +0.000 HD
ENDROOT
BRANCH   2  11
ATOM      9  C   UNL     1      38.638  32.063  49.513  0.00  0.00    +0.000 C 
ATOM     10  O   UNL     1      37.792  33.034  49.439  0.00  0.00    +0.000 OA
ATOM     11  N   UNL     1      38.546  30.660  49.685  0.00  0.00    +0.000 N 
ATOM     12  H   UNL     1      39.473  32.745  49.389  0.00  0.00    +0.000 HD
ATOM     13  H   UNL     1      39.497  30.256  49.633  0.00  0.00    +0.000 HD
ENDBRANCH   2  11
BRANCH   1  14
ATOM     14  O   UNL     1      37.660  29.952  52.154  0.00  0.00    +0.000 OA
BRANCH  14  15
ATOM     15  C   UNL     1      37.310  29.629  53.482  0.00  0.00    +0.000 A 
ATOM     16  C   UNL     1      38.169  28.714  54.163  0.00  0.00    +0.000 A 
ATOM     17  H   UNL     1      39.043  28.226  53.834  0.00  0.00    +0.000 HD
ATOM     18  S   UNL     1      37.402  28.562  55.793  0.00  0.00    +0.000 S 
ATOM     19  C   UNL     1      36.021  29.773  55.297  0.00  0.00    +0.000 A 
ATOM     20  H   UNL     1      35.003  30.336  55.691  0.00  0.00    +0.000 HD
ATOM     21  N   UNL     1      36.292  30.042  54.223  0.00  0.00    +0.000 NA
ENDBRANCH  14  15
ENDBRANCH   1  14
TORSDOF 3
