
 OpenBabel03272509543D

 41 44  0  0  0  0  0  0  0  0999 V2000
   34.4660   29.0610   47.8130 C   0  0  0  0  0  0  0  0  0  0  0  0
   35.2820   29.3780   47.1260 H   0  0  0  0  0  0  0  0  0  0  0  0
   33.9070   29.9720   48.1020 H   0  0  0  0  0  0  0  0  0  0  0  0
   33.6240   28.0250   47.1450 C   0  0  0  0  0  0  0  0  0  0  0  0
   33.9900   27.0040   47.3170 H   0  0  0  0  0  0  0  0  0  0  0  0
   33.6640   28.1770   46.0280 H   0  0  0  0  0  0  0  0  0  0  0  0
   32.1910   28.1170   47.4920 C   0  0  0  0  0  0  0  0  0  0  0  0
   31.7640   27.4990   48.6570 C   0  0  0  0  0  0  0  0  0  0  0  0
   30.4680   27.5140   49.0830 C   0  0  0  0  0  0  0  0  0  0  0  0
   29.5680   28.1560   48.3390 N   0  0  0  0  0  0  0  0  0  0  0  0
   29.9730   28.7640   47.1960 C   0  0  0  0  0  0  0  0  0  0  0  0
   31.2570   28.7600   46.7540 N   0  0  0  0  0  0  0  0  0  0  0  0
   32.4970   26.9710   49.2740 H   0  0  0  0  0  0  0  0  0  0  0  0
   30.1640   27.0220   49.9990 H   0  0  0  0  0  0  0  0  0  0  0  0
   28.9590   29.4700   46.3820 C   0  0  0  0  0  0  0  0  0  0  0  0
   27.6700   29.9380   46.8890 C   0  0  0  0  0  0  0  0  0  0  0  0
   27.4420   29.7650   47.8910 H   0  0  0  0  0  0  0  0  0  0  0  0
   27.0310   30.6930   45.2670 S   0  0  0  0  0  0  0  0  0  0  0  0
   28.5900   30.2220   44.3190 C   0  0  0  0  0  0  0  0  0  0  0  0
   28.6140   30.5040   43.2670 H   0  0  0  0  0  0  0  0  0  0  0  0
   29.3230   29.6510   45.1220 N   0  0  0  0  0  0  0  0  0  0  0  0
   35.1440   28.5030   48.9410 O   0  0  0  0  0  0  0  0  0  0  0  0
   37.3160   30.0970   51.3430 C   0  0  0  0  0  0  0  0  0  0  0  0
   38.1060   30.8840   50.4760 C   0  0  0  0  0  0  0  0  0  0  0  0
   37.8400   30.8150   49.1120 C   0  0  0  0  0  0  0  0  0  0  0  0
   36.8190   29.9760   48.7420 N   0  0  0  0  0  0  0  0  0  0  0  0
   36.0850   29.2430   49.5730 C   0  0  0  0  0  0  0  0  0  0  0  0
   36.3470   29.3120   50.8850 N   0  0  0  0  0  0  0  0  0  0  0  0
   37.5650   30.1880   52.3830 H   0  0  0  0  0  0  0  0  0  0  0  0
   38.9020   31.5360   50.7880 H   0  0  0  0  0  0  0  0  0  0  0  0
   38.8850   33.5060   49.2150 F   0  0  0  0  0  0  0  0  0  0  0  0
   39.0310   32.7990   48.1090 C   0  0  0  0  0  0  0  0  0  0  0  0
   38.5310   31.5360   48.0840 C   0  0  0  0  0  0  0  0  0  0  0  0
   38.7410   30.8800   46.8660 C   0  0  0  0  0  0  0  0  0  0  0  0
   39.3940   31.4700   45.8050 C   0  0  0  0  0  0  0  0  0  0  0  0
   39.8800   32.7530   45.8860 C   0  0  0  0  0  0  0  0  0  0  0  0
   39.6850   33.4110   47.0650 C   0  0  0  0  0  0  0  0  0  0  0  0
   38.3850   29.8600   46.7240 H   0  0  0  0  0  0  0  0  0  0  0  0
   39.5250   30.9040   44.8820 H   0  0  0  0  0  0  0  0  0  0  0  0
   40.3740   33.1490   45.0270 H   0  0  0  0  0  0  0  0  0  0  0  0
   40.0620   34.4220   47.1460 H   0  0  0  0  0  0  0  0  0  0  0  0
  1  3  1  0  0  0  0
  1 22  1  0  0  0  0
  2  1  1  0  0  0  0
  4  5  1  0  0  0  0
  4  7  1  0  0  0  0
  4  1  1  0  0  0  0
  6  4  1  0  0  0  0
  7  8  1  0  0  0  0
  8  9  2  0  0  0  0
  8 13  1  0  0  0  0
  9 14  1  0  0  0  0
 10  9  1  0  0  0  0
 11 10  2  0  0  0  0
 12 11  1  0  0  0  0
 12  7  2  0  0  0  0
 15 16  2  0  0  0  0
 15 11  1  0  0  0  0
 16 17  1  0  0  0  0
 18 16  1  0  0  0  0
 19 21  2  0  0  0  0
 19 18  1  0  0  0  0
 20 19  1  0  0  0  0
 21 15  1  0  0  0  0
 22 27  1  0  0  0  0
 23 29  1  0  0  0  0
 24 30  1  0  0  0  0
 24 23  2  0  0  0  0
 25 24  1  0  0  0  0
 26 25  2  0  0  0  0
 26 27  1  0  0  0  0
 27 28  2  0  0  0  0
 28 23  1  0  0  0  0
 32 31  1  0  0  0  0
 33 32  1  0  0  0  0
 33 25  1  0  0  0  0
 34 33  2  0  0  0  0
 35 36  2  0  0  0  0
 35 34  1  0  0  0  0
 36 37  1  0  0  0  0
 37 41  1  0  0  0  0
 37 32  2  0  0  0  0
 38 34  1  0  0  0  0
 39 35  1  0  0  0  0
 40 36  1  0  0  0  0
M  END
>  <minimizedAffinity>
-6.57824373

>  <minimizedRMSD>
0.747903943

$$$$
