
 OpenBabel03272510253D

 30 33  0  0  0  0  0  0  0  0999 V2000
   37.9470   26.7810   35.8270 C   0  0  0  0  0  0  0  0  0  0  0  0
   38.2590   25.5340   35.3230 C   0  0  0  0  0  0  0  0  0  0  0  0
   38.0700   25.2680   33.9860 C   0  0  0  0  0  0  0  0  0  0  0  0
   37.5610   26.3020   33.1990 C   0  0  0  0  0  0  0  0  0  0  0  0
   37.2940   26.2600   31.8520 N   0  0  0  0  0  0  0  0  0  0  0  0
   36.8260   27.4620   31.5350 C   0  0  0  0  0  0  0  0  0  0  0  0
   36.7820   28.2620   32.6040 N   0  0  0  0  0  0  0  0  0  0  0  0
   37.2380   27.5640   33.6730 C   0  0  0  0  0  0  0  0  0  0  0  0
   37.4430   27.7940   35.0270 C   0  0  0  0  0  0  0  0  0  0  0  0
   38.0790   27.0410   36.8720 H   0  0  0  0  0  0  0  0  0  0  0  0
   38.3000   24.3160   33.5670 H   0  0  0  0  0  0  0  0  0  0  0  0
   37.4310   25.4390   31.1990 H   0  0  0  0  0  0  0  0  0  0  0  0
   37.1910   28.7730   35.3860 H   0  0  0  0  0  0  0  0  0  0  0  0
   38.8260   23.2570   38.2550 C   0  0  0  0  0  0  0  0  0  0  0  0
   38.2200   24.2360   37.4750 C   0  0  0  0  0  0  0  0  0  0  0  0
   38.7820   24.5390   36.2400 C   0  0  0  0  0  0  0  0  0  0  0  0
   39.9110   23.8560   35.8510 N   0  0  0  0  0  0  0  0  0  0  0  0
   40.4750   22.9080   36.6380 C   0  0  0  0  0  0  0  0  0  0  0  0
   39.9400   22.6130   37.8220 N   0  0  0  0  0  0  0  0  0  0  0  0
   38.2990   23.1120   39.1880 H   0  0  0  0  0  0  0  0  0  0  0  0
   37.3400   24.7890   37.7450 H   0  0  0  0  0  0  0  0  0  0  0  0
   41.3550   22.4010   36.2920 H   0  0  0  0  0  0  0  0  0  0  0  0
   36.4420   27.8030   30.2410 O   0  0  0  0  0  0  0  0  0  0  0  0
   37.0010   28.9050   29.6060 C   0  0  0  0  0  0  0  0  0  0  0  0
   37.9880   28.6210   28.5970 C   0  0  0  0  0  0  0  0  0  0  0  0
   38.3670   27.6860   28.2530 H   0  0  0  0  0  0  0  0  0  0  0  0
   38.4520   30.3650   28.0280 S   0  0  0  0  0  0  0  0  0  0  0  0
   37.2170   31.0990   29.2680 C   0  0  0  0  0  0  0  0  0  0  0  0
   36.8630   32.1840   29.5790 H   0  0  0  0  0  0  0  0  0  0  0  0
   36.7570   30.2050   29.7910 N   0  0  0  0  0  0  0  0  0  0  0  0
  1 10  1  0  0  0  0
  2  1  1  0  0  0  0
  2 16  1  0  0  0  0
  3  2  2  0  0  0  0
  4  8  2  0  0  0  0
  4  3  1  0  0  0  0
  5  4  1  0  0  0  0
  6  5  1  0  0  0  0
  6  7  2  0  0  0  0
  7  8  1  0  0  0  0
  8  9  1  0  0  0  0
  9 13  1  0  0  0  0
  9  1  2  0  0  0  0
 11  3  1  0  0  0  0
 12  5  1  0  0  0  0
 14 20  1  0  0  0  0
 15 21  1  0  0  0  0
 15 14  2  0  0  0  0
 16 15  1  0  0  0  0
 17 16  2  0  0  0  0
 17 18  1  0  0  0  0
 18 19  2  0  0  0  0
 19 14  1  0  0  0  0
 22 18  1  0  0  0  0
 23  6  1  0  0  0  0
 24 30  1  0  0  0  0
 24 23  1  0  0  0  0
 25 24  2  0  0  0  0
 26 25  1  0  0  0  0
 27 25  1  0  0  0  0
 27 28  1  0  0  0  0
 28 29  1  0  0  0  0
 28 30  2  0  0  0  0
M  END
>  <minimizedAffinity>
-5.23000765

$$$$

 OpenBabel03272510253D

 30 33  0  0  0  0  0  0  0  0999 V2000
   38.2320   24.6360   33.7890 C   0  0  0  0  0  0  0  0  0  0  0  0
   38.4410   25.0190   35.0990 C   0  0  0  0  0  0  0  0  0  0  0  0
   37.9480   26.2220   35.5490 C   0  0  0  0  0  0  0  0  0  0  0  0
   37.2450   27.0040   34.6300 C   0  0  0  0  0  0  0  0  0  0  0  0
   36.6710   28.2300   34.8580 N   0  0  0  0  0  0  0  0  0  0  0  0
   36.1170   28.5930   33.7060 C   0  0  0  0  0  0  0  0  0  0  0  0
   36.3080   27.6670   32.7630 N   0  0  0  0  0  0  0  0  0  0  0  0
   37.0180   26.6480   33.3090 C   0  0  0  0  0  0  0  0  0  0  0  0
   37.5310   25.4270   32.8930 C   0  0  0  0  0  0  0  0  0  0  0  0
   38.5990   23.6980   33.3870 H   0  0  0  0  0  0  0  0  0  0  0  0
   38.0930   26.5470   36.5540 H   0  0  0  0  0  0  0  0  0  0  0  0
   36.6680   28.7770   35.7640 H   0  0  0  0  0  0  0  0  0  0  0  0
   37.3500   25.1600   31.8700 H   0  0  0  0  0  0  0  0  0  0  0  0
   41.0000   22.6790   36.5420 C   0  0  0  0  0  0  0  0  0  0  0  0
   40.3910   23.5200   35.6160 C   0  0  0  0  0  0  0  0  0  0  0  0
   39.1860   24.1220   35.9620 C   0  0  0  0  0  0  0  0  0  0  0  0
   38.6560   23.8560   37.2030 N   0  0  0  0  0  0  0  0  0  0  0  0
   39.2770   23.0300   38.0800 C   0  0  0  0  0  0  0  0  0  0  0  0
   40.4310   22.4510   37.7540 N   0  0  0  0  0  0  0  0  0  0  0  0
   41.9260   22.2730   36.1590 H   0  0  0  0  0  0  0  0  0  0  0  0
   40.7750   23.7500   34.6400 H   0  0  0  0  0  0  0  0  0  0  0  0
   38.8250   22.8520   39.0370 H   0  0  0  0  0  0  0  0  0  0  0  0
   35.4330   29.7950   33.5450 O   0  0  0  0  0  0  0  0  0  0  0  0
   35.0420   30.5390   34.6520 C   0  0  0  0  0  0  0  0  0  0  0  0
   33.6310   30.5500   34.9410 C   0  0  0  0  0  0  0  0  0  0  0  0
   32.8240   30.0730   34.4350 H   0  0  0  0  0  0  0  0  0  0  0  0
   33.5750   31.6520   36.4780 S   0  0  0  0  0  0  0  0  0  0  0  0
   35.4600   31.8590   36.4010 C   0  0  0  0  0  0  0  0  0  0  0  0
   36.2820   32.4280   37.0320 H   0  0  0  0  0  0  0  0  0  0  0  0
   35.7870   31.2540   35.4990 N   0  0  0  0  0  0  0  0  0  0  0  0
  1  2  1  0  0  0  0
  2  3  2  0  0  0  0
  2 16  1  0  0  0  0
  3 11  1  0  0  0  0
  4  5  1  0  0  0  0
  4  3  1  0  0  0  0
  5 12  1  0  0  0  0
  6  5  1  0  0  0  0
  7  8  1  0  0  0  0
  7  6  2  0  0  0  0
  8  4  2  0  0  0  0
  9  8  1  0  0  0  0
  9  1  2  0  0  0  0
 10  1  1  0  0  0  0
 13  9  1  0  0  0  0
 14 19  1  0  0  0  0
 15 16  1  0  0  0  0
 15 14  2  0  0  0  0
 16 17  2  0  0  0  0
 17 18  1  0  0  0  0
 18 22  1  0  0  0  0
 19 18  2  0  0  0  0
 20 14  1  0  0  0  0
 21 15  1  0  0  0  0
 23  6  1  0  0  0  0
 23 24  1  0  0  0  0
 24 25  2  0  0  0  0
 24 30  1  0  0  0  0
 25 27  1  0  0  0  0
 26 25  1  0  0  0  0
 28 27  1  0  0  0  0
 28 29  1  0  0  0  0
 30 28  2  0  0  0  0
M  END
>  <minimizedAffinity>
-5.22115088

$$$$

 OpenBabel03272510253D

 30 33  0  0  0  0  0  0  0  0999 V2000
   35.8370   28.9050   32.7240 C   0  0  0  0  0  0  0  0  0  0  0  0
   36.0040   29.1600   34.0710 C   0  0  0  0  0  0  0  0  0  0  0  0
   36.6080   28.2230   34.8770 C   0  0  0  0  0  0  0  0  0  0  0  0
   37.0310   27.0400   34.2690 C   0  0  0  0  0  0  0  0  0  0  0  0
   37.6520   25.9760   34.8750 N   0  0  0  0  0  0  0  0  0  0  0  0
   37.8650   25.0820   33.9150 C   0  0  0  0  0  0  0  0  0  0  0  0
   37.4140   25.5200   32.7370 N   0  0  0  0  0  0  0  0  0  0  0  0
   36.8800   26.7530   32.9200 C   0  0  0  0  0  0  0  0  0  0  0  0
   36.2650   27.7230   32.1400 C   0  0  0  0  0  0  0  0  0  0  0  0
   35.3680   29.6100   32.0470 H   0  0  0  0  0  0  0  0  0  0  0  0
   36.7500   28.3900   35.9200 H   0  0  0  0  0  0  0  0  0  0  0  0
   37.9100   25.8840   35.8970 H   0  0  0  0  0  0  0  0  0  0  0  0
   36.1520   27.4920   31.0990 H   0  0  0  0  0  0  0  0  0  0  0  0
   35.4760   32.2720   36.1070 C   0  0  0  0  0  0  0  0  0  0  0  0
   36.0300   31.0560   35.7210 C   0  0  0  0  0  0  0  0  0  0  0  0
   35.5240   30.4270   34.5890 C   0  0  0  0  0  0  0  0  0  0  0  0
   34.4980   31.0390   33.9060 N   0  0  0  0  0  0  0  0  0  0  0  0
   33.9810   32.2240   34.3120 C   0  0  0  0  0  0  0  0  0  0  0  0
   34.4630   32.8310   35.3950 N   0  0  0  0  0  0  0  0  0  0  0  0
   35.9510   32.6600   36.9970 H   0  0  0  0  0  0  0  0  0  0  0  0
   36.8300   30.5500   36.2280 H   0  0  0  0  0  0  0  0  0  0  0  0
   33.1810   32.6630   33.7470 H   0  0  0  0  0  0  0  0  0  0  0  0
   38.4830   23.8570   34.1510 O   0  0  0  0  0  0  0  0  0  0  0  0
   38.8800   23.5010   35.4340 C   0  0  0  0  0  0  0  0  0  0  0  0
   40.1810   22.8960   35.5500 C   0  0  0  0  0  0  0  0  0  0  0  0
   40.9030   22.6730   34.7980 H   0  0  0  0  0  0  0  0  0  0  0  0
   40.2860   22.5920   37.4140 S   0  0  0  0  0  0  0  0  0  0  0  0
   38.5580   23.3440   37.6350 C   0  0  0  0  0  0  0  0  0  0  0  0
   37.8270   23.5500   38.5420 H   0  0  0  0  0  0  0  0  0  0  0  0
   38.2270   23.6370   36.5920 N   0  0  0  0  0  0  0  0  0  0  0  0
  1  2  1  0  0  0  0
  2 16  1  0  0  0  0
  2  3  2  0  0  0  0
  3 11  1  0  0  0  0
  4  5  1  0  0  0  0
  4  3  1  0  0  0  0
  5 12  1  0  0  0  0
  6 23  1  0  0  0  0
  6  5  1  0  0  0  0
  7  8  1  0  0  0  0
  7  6  2  0  0  0  0
  8  4  2  0  0  0  0
  9  1  2  0  0  0  0
  9  8  1  0  0  0  0
 10  1  1  0  0  0  0
 13  9  1  0  0  0  0
 14 20  1  0  0  0  0
 15 14  1  0  0  0  0
 15 21  1  0  0  0  0
 16 15  2  0  0  0  0
 17 18  2  0  0  0  0
 17 16  1  0  0  0  0
 18 19  1  0  0  0  0
 19 14  2  0  0  0  0
 22 18  1  0  0  0  0
 23 24  1  0  0  0  0
 24 25  2  0  0  0  0
 24 30  1  0  0  0  0
 25 27  1  0  0  0  0
 26 25  1  0  0  0  0
 27 28  1  0  0  0  0
 28 29  1  0  0  0  0
 30 28  2  0  0  0  0
M  END
>  <minimizedAffinity>
-5.1362977

$$$$

 OpenBabel03272510253D

 30 33  0  0  0  0  0  0  0  0999 V2000
   35.4950   30.6020   32.5710 C   0  0  0  0  0  0  0  0  0  0  0  0
   35.4980   29.9340   33.7790 C   0  0  0  0  0  0  0  0  0  0  0  0
   35.9860   28.6490   33.8510 C   0  0  0  0  0  0  0  0  0  0  0  0
   36.4630   28.0840   32.6680 C   0  0  0  0  0  0  0  0  0  0  0  0
   36.9900   26.8260   32.5070 N   0  0  0  0  0  0  0  0  0  0  0  0
   37.3060   26.7250   31.2200 C   0  0  0  0  0  0  0  0  0  0  0  0
   37.0100   27.8460   30.5590 N   0  0  0  0  0  0  0  0  0  0  0  0
   36.4740   28.7270   31.4390 C   0  0  0  0  0  0  0  0  0  0  0  0
   35.9740   30.0220   31.4070 C   0  0  0  0  0  0  0  0  0  0  0  0
   35.1220   31.6150   32.4620 H   0  0  0  0  0  0  0  0  0  0  0  0
   36.0010   28.1070   34.7680 H   0  0  0  0  0  0  0  0  0  0  0  0
   37.1190   26.0870   33.2530 H   0  0  0  0  0  0  0  0  0  0  0  0
   35.9870   30.5120   30.4530 H   0  0  0  0  0  0  0  0  0  0  0  0
   35.0950   32.0710   36.8410 C   0  0  0  0  0  0  0  0  0  0  0  0
   35.7230   31.4700   35.7550 C   0  0  0  0  0  0  0  0  0  0  0  0
   34.9760   30.6260   34.9430 C   0  0  0  0  0  0  0  0  0  0  0  0
   33.6510   30.4250   35.2520 N   0  0  0  0  0  0  0  0  0  0  0  0
   33.0710   31.0270   36.3190 C   0  0  0  0  0  0  0  0  0  0  0  0
   33.7830   31.8370   37.1010 N   0  0  0  0  0  0  0  0  0  0  0  0
   35.7770   32.7020   37.3950 H   0  0  0  0  0  0  0  0  0  0  0  0
   36.7530   31.6030   35.4830 H   0  0  0  0  0  0  0  0  0  0  0  0
   32.0340   30.8410   36.5220 H   0  0  0  0  0  0  0  0  0  0  0  0
   37.8730   25.5770   30.6730 O   0  0  0  0  0  0  0  0  0  0  0  0
   37.3220   24.3270   30.9260 C   0  0  0  0  0  0  0  0  0  0  0  0
   38.1790   23.1960   30.6840 C   0  0  0  0  0  0  0  0  0  0  0  0
   39.1860   23.1610   30.3360 H   0  0  0  0  0  0  0  0  0  0  0  0
   37.0400   21.7580   31.1500 S   0  0  0  0  0  0  0  0  0  0  0  0
   35.6580   22.9890   31.5690 C   0  0  0  0  0  0  0  0  0  0  0  0
   34.5430   22.9190   31.9600 H   0  0  0  0  0  0  0  0  0  0  0  0
   36.1000   24.0120   31.3650 N   0  0  0  0  0  0  0  0  0  0  0  0
  1  2  1  0  0  0  0
  2  3  2  0  0  0  0
  2 16  1  0  0  0  0
  3 11  1  0  0  0  0
  4  3  1  0  0  0  0
  5  4  1  0  0  0  0
  5 12  1  0  0  0  0
  6  5  1  0  0  0  0
  7  6  2  0  0  0  0
  7  8  1  0  0  0  0
  8  4  2  0  0  0  0
  9  8  1  0  0  0  0
  9  1  2  0  0  0  0
 10  1  1  0  0  0  0
 13  9  1  0  0  0  0
 14 19  1  0  0  0  0
 14 20  1  0  0  0  0
 15 14  2  0  0  0  0
 16 17  2  0  0  0  0
 16 15  1  0  0  0  0
 17 18  1  0  0  0  0
 18 22  1  0  0  0  0
 18 19  2  0  0  0  0
 21 15  1  0  0  0  0
 23 24  1  0  0  0  0
 23  6  1  0  0  0  0
 24 30  1  0  0  0  0
 25 24  2  0  0  0  0
 25 27  1  0  0  0  0
 26 25  1  0  0  0  0
 27 28  1  0  0  0  0
 28 29  1  0  0  0  0
 30 28  2  0  0  0  0
M  END
>  <minimizedAffinity>
-5.12713432

$$$$

 OpenBabel03272510253D

 30 33  0  0  0  0  0  0  0  0999 V2000
   38.8530   25.1330   33.7760 C   0  0  0  0  0  0  0  0  0  0  0  0
   38.2540   25.4450   34.9800 C   0  0  0  0  0  0  0  0  0  0  0  0
   37.3990   26.5190   35.0630 C   0  0  0  0  0  0  0  0  0  0  0  0
   37.1800   27.2480   33.8920 C   0  0  0  0  0  0  0  0  0  0  0  0
   36.3720   28.3490   33.7440 N   0  0  0  0  0  0  0  0  0  0  0  0
   36.4740   28.7060   32.4680 C   0  0  0  0  0  0  0  0  0  0  0  0
   37.2980   27.8940   31.8010 N   0  0  0  0  0  0  0  0  0  0  0  0
   37.7650   26.9610   32.6680 C   0  0  0  0  0  0  0  0  0  0  0  0
   38.6220   25.8690   32.6250 C   0  0  0  0  0  0  0  0  0  0  0  0
   39.5340   24.2960   33.6590 H   0  0  0  0  0  0  0  0  0  0  0  0
   36.9220   26.7870   35.9780 H   0  0  0  0  0  0  0  0  0  0  0  0
   35.7890   28.8190   34.4900 H   0  0  0  0  0  0  0  0  0  0  0  0
   39.0690   25.6550   31.6750 H   0  0  0  0  0  0  0  0  0  0  0  0
   39.7120   22.8880   37.3140 C   0  0  0  0  0  0  0  0  0  0  0  0
   39.5230   23.6110   36.1410 C   0  0  0  0  0  0  0  0  0  0  0  0
   38.5590   24.6130   36.1300 C   0  0  0  0  0  0  0  0  0  0  0  0
   37.8400   24.8410   37.2800 N   0  0  0  0  0  0  0  0  0  0  0  0
   38.0510   24.1160   38.4050 C   0  0  0  0  0  0  0  0  0  0  0  0
   38.9730   23.1550   38.4210 N   0  0  0  0  0  0  0  0  0  0  0  0
   40.4850   22.1410   37.1990 H   0  0  0  0  0  0  0  0  0  0  0  0
   40.0650   23.4620   35.2260 H   0  0  0  0  0  0  0  0  0  0  0  0
   37.4650   24.3290   39.2790 H   0  0  0  0  0  0  0  0  0  0  0  0
   35.7890   29.7940   31.9340 O   0  0  0  0  0  0  0  0  0  0  0  0
   34.4320   29.9630   32.1760 C   0  0  0  0  0  0  0  0  0  0  0  0
   33.8400   31.1670   31.6530 C   0  0  0  0  0  0  0  0  0  0  0  0
   34.2820   31.9640   31.1010 H   0  0  0  0  0  0  0  0  0  0  0  0
   32.0420   30.9690   32.2070 S   0  0  0  0  0  0  0  0  0  0  0  0
   32.4740   29.3110   33.0210 C   0  0  0  0  0  0  0  0  0  0  0  0
   31.8890   28.4800   33.6270 H   0  0  0  0  0  0  0  0  0  0  0  0
   33.5810   29.1660   32.8290 N   0  0  0  0  0  0  0  0  0  0  0  0
  1  2  1  0  0  0  0
  2  3  2  0  0  0  0
  2 16  1  0  0  0  0
  3 11  1  0  0  0  0
  4  3  1  0  0  0  0
  5  4  1  0  0  0  0
  5 12  1  0  0  0  0
  6  5  1  0  0  0  0
  7  6  2  0  0  0  0
  7  8  1  0  0  0  0
  8  4  2  0  0  0  0
  9  8  1  0  0  0  0
  9  1  2  0  0  0  0
 10  1  1  0  0  0  0
 13  9  1  0  0  0  0
 14 19  1  0  0  0  0
 15 14  2  0  0  0  0
 16 15  1  0  0  0  0
 16 17  2  0  0  0  0
 17 18  1  0  0  0  0
 18 19  2  0  0  0  0
 18 22  1  0  0  0  0
 20 14  1  0  0  0  0
 21 15  1  0  0  0  0
 23 24  1  0  0  0  0
 23  6  1  0  0  0  0
 24 30  1  0  0  0  0
 25 24  2  0  0  0  0
 25 27  1  0  0  0  0
 26 25  1  0  0  0  0
 27 28  1  0  0  0  0
 28 29  1  0  0  0  0
 30 28  2  0  0  0  0
M  END
>  <minimizedAffinity>
-5.06271362

$$$$

 OpenBabel03272510253D

 30 33  0  0  0  0  0  0  0  0999 V2000
   38.4200   25.0010   33.7650 C   0  0  0  0  0  0  0  0  0  0  0  0
   38.2720   25.2830   35.1080 C   0  0  0  0  0  0  0  0  0  0  0  0
   37.5850   26.4090   35.5000 C   0  0  0  0  0  0  0  0  0  0  0  0
   37.0650   27.2200   34.4900 C   0  0  0  0  0  0  0  0  0  0  0  0
   36.3510   28.3820   34.6500 N   0  0  0  0  0  0  0  0  0  0  0  0
   36.0660   28.8060   33.4230 C   0  0  0  0  0  0  0  0  0  0  0  0
   36.5580   27.9790   32.4970 N   0  0  0  0  0  0  0  0  0  0  0  0
   37.1960   26.9650   33.1330 C   0  0  0  0  0  0  0  0  0  0  0  0
   37.8950   25.8190   32.7770 C   0  0  0  0  0  0  0  0  0  0  0  0
   38.9520   24.1260   33.4050 H   0  0  0  0  0  0  0  0  0  0  0  0
   37.4540   26.6550   36.5290 H   0  0  0  0  0  0  0  0  0  0  0  0
   36.0830   28.8480   35.5610 H   0  0  0  0  0  0  0  0  0  0  0  0
   37.9910   25.6300   31.7260 H   0  0  0  0  0  0  0  0  0  0  0  0
   38.9840   23.1810   38.1380 C   0  0  0  0  0  0  0  0  0  0  0  0
   38.3170   24.0840   37.3160 C   0  0  0  0  0  0  0  0  0  0  0  0
   38.8570   24.3650   36.0670 C   0  0  0  0  0  0  0  0  0  0  0  0
   40.0250   23.7360   35.7030 N   0  0  0  0  0  0  0  0  0  0  0  0
   40.6480   22.8610   36.5300 C   0  0  0  0  0  0  0  0  0  0  0  0
   40.1350   22.5890   37.7280 N   0  0  0  0  0  0  0  0  0  0  0  0
   38.4690   23.0460   39.0790 H   0  0  0  0  0  0  0  0  0  0  0  0
   37.4050   24.5930   37.5660 H   0  0  0  0  0  0  0  0  0  0  0  0
   41.5580   22.3950   36.2040 H   0  0  0  0  0  0  0  0  0  0  0  0
   35.3440   29.9710   33.1780 O   0  0  0  0  0  0  0  0  0  0  0  0
   35.5270   31.0960   33.9720 C   0  0  0  0  0  0  0  0  0  0  0  0
   35.4850   32.3650   33.2930 C   0  0  0  0  0  0  0  0  0  0  0  0
   35.3330   32.5850   32.2610 H   0  0  0  0  0  0  0  0  0  0  0  0
   35.7730   33.5650   34.7270 S   0  0  0  0  0  0  0  0  0  0  0  0
   35.8880   32.1020   35.9300 C   0  0  0  0  0  0  0  0  0  0  0  0
   36.0640   31.9650   37.0920 H   0  0  0  0  0  0  0  0  0  0  0  0
   35.7390   31.1790   35.2890 N   0  0  0  0  0  0  0  0  0  0  0  0
  1  2  1  0  0  0  0
  2  3  2  0  0  0  0
  2 16  1  0  0  0  0
  3 11  1  0  0  0  0
  4  5  1  0  0  0  0
  4  3  1  0  0  0  0
  5 12  1  0  0  0  0
  6  5  1  0  0  0  0
  7  8  1  0  0  0  0
  7  6  2  0  0  0  0
  8  4  2  0  0  0  0
  9  8  1  0  0  0  0
  9  1  2  0  0  0  0
 10  1  1  0  0  0  0
 13  9  1  0  0  0  0
 14 20  1  0  0  0  0
 15 21  1  0  0  0  0
 15 14  2  0  0  0  0
 16 15  1  0  0  0  0
 17 16  2  0  0  0  0
 17 18  1  0  0  0  0
 18 19  2  0  0  0  0
 19 14  1  0  0  0  0
 22 18  1  0  0  0  0
 23  6  1  0  0  0  0
 23 24  1  0  0  0  0
 24 30  1  0  0  0  0
 25 24  2  0  0  0  0
 25 27  1  0  0  0  0
 26 25  1  0  0  0  0
 27 28  1  0  0  0  0
 28 29  1  0  0  0  0
 30 28  2  0  0  0  0
M  END
>  <minimizedAffinity>
-5.06023932

$$$$

 OpenBabel03272510253D

 30 33  0  0  0  0  0  0  0  0999 V2000
   37.3230   23.3020   32.8420 C   0  0  0  0  0  0  0  0  0  0  0  0
   36.4050   22.9480   31.8730 C   0  0  0  0  0  0  0  0  0  0  0  0
   35.7930   23.9230   31.1190 C   0  0  0  0  0  0  0  0  0  0  0  0
   36.1480   25.2470   31.3830 C   0  0  0  0  0  0  0  0  0  0  0  0
   35.6680   26.3710   30.7580 N   0  0  0  0  0  0  0  0  0  0  0  0
   36.2830   27.3990   31.3340 C   0  0  0  0  0  0  0  0  0  0  0  0
   37.1240   26.9890   32.2870 N   0  0  0  0  0  0  0  0  0  0  0  0
   37.0660   25.6360   32.3480 C   0  0  0  0  0  0  0  0  0  0  0  0
   37.6620   24.6230   33.0880 C   0  0  0  0  0  0  0  0  0  0  0  0
   37.8320   22.5720   33.4620 H   0  0  0  0  0  0  0  0  0  0  0  0
   35.0800   23.6820   30.3640 H   0  0  0  0  0  0  0  0  0  0  0  0
   34.9550   26.4140   29.9790 H   0  0  0  0  0  0  0  0  0  0  0  0
   38.3700   24.9330   33.8320 H   0  0  0  0  0  0  0  0  0  0  0  0
   34.8830   19.5170   32.0050 C   0  0  0  0  0  0  0  0  0  0  0  0
   35.0410   20.8740   32.2660 C   0  0  0  0  0  0  0  0  0  0  0  0
   36.1170   21.5380   31.6890 C   0  0  0  0  0  0  0  0  0  0  0  0
   36.9740   20.8200   30.8870 N   0  0  0  0  0  0  0  0  0  0  0  0
   36.7890   19.4980   30.6540 C   0  0  0  0  0  0  0  0  0  0  0  0
   35.7600   18.8570   31.2050 N   0  0  0  0  0  0  0  0  0  0  0  0
   34.0150   19.1140   32.5080 H   0  0  0  0  0  0  0  0  0  0  0  0
   34.3940   21.4650   32.8860 H   0  0  0  0  0  0  0  0  0  0  0  0
   37.4840   18.9790   30.0210 H   0  0  0  0  0  0  0  0  0  0  0  0
   36.0500   28.7200   30.9610 O   0  0  0  0  0  0  0  0  0  0  0  0
   36.7860   29.3060   29.9400 C   0  0  0  0  0  0  0  0  0  0  0  0
   36.7730   30.7450   29.8930 C   0  0  0  0  0  0  0  0  0  0  0  0
   36.2810   31.4460   30.5270 H   0  0  0  0  0  0  0  0  0  0  0  0
   37.8730   31.0800   28.3910 S   0  0  0  0  0  0  0  0  0  0  0  0
   38.1140   29.2130   28.1490 C   0  0  0  0  0  0  0  0  0  0  0  0
   38.6990   28.5200   27.3900 H   0  0  0  0  0  0  0  0  0  0  0  0
   37.5150   28.7280   28.9800 N   0  0  0  0  0  0  0  0  0  0  0  0
  1  9  1  0  0  0  0
  1 10  1  0  0  0  0
  2  1  2  0  0  0  0
  3  4  2  0  0  0  0
  3  2  1  0  0  0  0
  4  8  1  0  0  0  0
  5  6  1  0  0  0  0
  5  4  1  0  0  0  0
  6  7  2  0  0  0  0
  7  8  1  0  0  0  0
  8  9  2  0  0  0  0
  9 13  1  0  0  0  0
 11  3  1  0  0  0  0
 12  5  1  0  0  0  0
 14 15  1  0  0  0  0
 14 20  1  0  0  0  0
 15 21  1  0  0  0  0
 16  2  1  0  0  0  0
 16 15  2  0  0  0  0
 17 16  1  0  0  0  0
 18 17  2  0  0  0  0
 18 19  1  0  0  0  0
 19 14  2  0  0  0  0
 22 18  1  0  0  0  0
 23  6  1  0  0  0  0
 24 23  1  0  0  0  0
 25 24  2  0  0  0  0
 25 26  1  0  0  0  0
 27 25  1  0  0  0  0
 28 27  1  0  0  0  0
 28 30  2  0  0  0  0
 29 28  1  0  0  0  0
 30 24  1  0  0  0  0
M  END
>  <minimizedAffinity>
-5.0513978

$$$$

 OpenBabel03272510253D

 30 33  0  0  0  0  0  0  0  0999 V2000
   36.1120   28.7470   34.3980 C   0  0  0  0  0  0  0  0  0  0  0  0
   35.5620   29.9780   34.1000 C   0  0  0  0  0  0  0  0  0  0  0  0
   35.6060   30.4540   32.8100 C   0  0  0  0  0  0  0  0  0  0  0  0
   36.2180   29.6430   31.8540 C   0  0  0  0  0  0  0  0  0  0  0  0
   36.3740   29.9160   30.5170 N   0  0  0  0  0  0  0  0  0  0  0  0
   37.0090   28.8670   30.0030 C   0  0  0  0  0  0  0  0  0  0  0  0
   37.2630   27.9480   30.9370 N   0  0  0  0  0  0  0  0  0  0  0  0
   36.7790   28.4020   32.1200 C   0  0  0  0  0  0  0  0  0  0  0  0
   36.7150   27.9560   33.4330 C   0  0  0  0  0  0  0  0  0  0  0  0
   36.1020   28.3270   35.3980 H   0  0  0  0  0  0  0  0  0  0  0  0
   35.1920   31.4010   32.5480 H   0  0  0  0  0  0  0  0  0  0  0  0
   36.0560   30.7820   30.0000 H   0  0  0  0  0  0  0  0  0  0  0  0
   37.1510   26.9960   33.6290 H   0  0  0  0  0  0  0  0  0  0  0  0
   34.9170   32.3020   36.9790 C   0  0  0  0  0  0  0  0  0  0  0  0
   35.6260   31.6470   35.9780 C   0  0  0  0  0  0  0  0  0  0  0  0
   34.9520   30.7310   35.1790 C   0  0  0  0  0  0  0  0  0  0  0  0
   33.6140   30.5160   35.4190 N   0  0  0  0  0  0  0  0  0  0  0  0
   32.9540   31.1720   36.4050 C   0  0  0  0  0  0  0  0  0  0  0  0
   33.5960   32.0510   37.1730 N   0  0  0  0  0  0  0  0  0  0  0  0
   35.5480   32.9860   37.5300 H   0  0  0  0  0  0  0  0  0  0  0  0
   36.6690   31.7890   35.7620 H   0  0  0  0  0  0  0  0  0  0  0  0
   31.9110   30.9720   36.5550 H   0  0  0  0  0  0  0  0  0  0  0  0
   37.3470   28.7800   28.6550 O   0  0  0  0  0  0  0  0  0  0  0  0
   38.2330   29.6870   28.0880 C   0  0  0  0  0  0  0  0  0  0  0  0
   39.6240   29.5010   28.4100 C   0  0  0  0  0  0  0  0  0  0  0  0
   40.0930   28.7670   29.0240 H   0  0  0  0  0  0  0  0  0  0  0  0
   40.4230   30.9210   27.4480 S   0  0  0  0  0  0  0  0  0  0  0  0
   38.7140   31.4580   26.8200 C   0  0  0  0  0  0  0  0  0  0  0  0
   38.2920   32.3140   26.1210 H   0  0  0  0  0  0  0  0  0  0  0  0
   37.9850   30.7210   27.2790 N   0  0  0  0  0  0  0  0  0  0  0  0
  1 10  1  0  0  0  0
  2  1  1  0  0  0  0
  2 16  1  0  0  0  0
  3  2  2  0  0  0  0
  4  8  2  0  0  0  0
  4  3  1  0  0  0  0
  5  4  1  0  0  0  0
  6  5  1  0  0  0  0
  6  7  2  0  0  0  0
  7  8  1  0  0  0  0
  8  9  1  0  0  0  0
  9 13  1  0  0  0  0
  9  1  2  0  0  0  0
 11  3  1  0  0  0  0
 12  5  1  0  0  0  0
 14 19  1  0  0  0  0
 14 20  1  0  0  0  0
 15 14  2  0  0  0  0
 16 17  2  0  0  0  0
 16 15  1  0  0  0  0
 17 18  1  0  0  0  0
 18 22  1  0  0  0  0
 18 19  2  0  0  0  0
 21 15  1  0  0  0  0
 23  6  1  0  0  0  0
 24 25  2  0  0  0  0
 24 23  1  0  0  0  0
 25 26  1  0  0  0  0
 27 25  1  0  0  0  0
 28 30  2  0  0  0  0
 28 27  1  0  0  0  0
 29 28  1  0  0  0  0
 30 24  1  0  0  0  0
M  END
>  <minimizedAffinity>
-4.9003067

$$$$

 OpenBabel03272510253D

 30 33  0  0  0  0  0  0  0  0999 V2000
   37.5500   27.9170   35.3220 C   0  0  0  0  0  0  0  0  0  0  0  0
   36.9280   27.5770   34.1380 C   0  0  0  0  0  0  0  0  0  0  0  0
   37.0840   26.3130   33.6180 C   0  0  0  0  0  0  0  0  0  0  0  0
   37.8820   25.4240   34.3410 C   0  0  0  0  0  0  0  0  0  0  0  0
   38.1730   24.1230   34.0130 N   0  0  0  0  0  0  0  0  0  0  0  0
   38.9610   23.6700   34.9830 C   0  0  0  0  0  0  0  0  0  0  0  0
   39.1850   24.6110   35.9040 N   0  0  0  0  0  0  0  0  0  0  0  0
   38.5200   25.7330   35.5330 C   0  0  0  0  0  0  0  0  0  0  0  0
   38.3380   27.0190   36.0240 C   0  0  0  0  0  0  0  0  0  0  0  0
   37.4580   28.9000   35.7730 H   0  0  0  0  0  0  0  0  0  0  0  0
   36.6170   26.0200   32.7060 H   0  0  0  0  0  0  0  0  0  0  0  0
   37.8400   23.5870   33.1640 H   0  0  0  0  0  0  0  0  0  0  0  0
   38.8350   27.2480   36.9460 H   0  0  0  0  0  0  0  0  0  0  0  0
   35.4100   29.9290   31.6330 C   0  0  0  0  0  0  0  0  0  0  0  0
   36.2490   28.9420   32.1390 C   0  0  0  0  0  0  0  0  0  0  0  0
   36.1220   28.5870   33.4770 C   0  0  0  0  0  0  0  0  0  0  0  0
   35.1720   29.2300   34.2360 N   0  0  0  0  0  0  0  0  0  0  0  0
   34.3710   30.1880   33.7090 C   0  0  0  0  0  0  0  0  0  0  0  0
   34.4880   30.5320   32.4280 N   0  0  0  0  0  0  0  0  0  0  0  0
   35.6040   30.1160   30.5860 H   0  0  0  0  0  0  0  0  0  0  0  0
   37.0010   28.4190   31.5770 H   0  0  0  0  0  0  0  0  0  0  0  0
   33.6440   30.6630   34.3400 H   0  0  0  0  0  0  0  0  0  0  0  0
   39.4680   22.3740   34.9970 O   0  0  0  0  0  0  0  0  0  0  0  0
   40.6430   22.0820   35.6790 C   0  0  0  0  0  0  0  0  0  0  0  0
   41.8680   22.3330   34.9660 C   0  0  0  0  0  0  0  0  0  0  0  0
   42.0240   22.7130   33.9820 H   0  0  0  0  0  0  0  0  0  0  0  0
   43.1590   21.8050   36.2450 S   0  0  0  0  0  0  0  0  0  0  0  0
   41.7720   21.3610   37.4630 C   0  0  0  0  0  0  0  0  0  0  0  0
   41.7080   20.9340   38.5640 H   0  0  0  0  0  0  0  0  0  0  0  0
   40.8090   21.5970   36.9130 N   0  0  0  0  0  0  0  0  0  0  0  0
  1 10  1  0  0  0  0
  1  9  1  0  0  0  0
  2  1  2  0  0  0  0
  3  2  1  0  0  0  0
  3  4  2  0  0  0  0
  4  8  1  0  0  0  0
  5  4  1  0  0  0  0
  5  6  1  0  0  0  0
  6 23  1  0  0  0  0
  6  7  2  0  0  0  0
  8  7  1  0  0  0  0
  8  9  2  0  0  0  0
  9 13  1  0  0  0  0
 11  3  1  0  0  0  0
 12  5  1  0  0  0  0
 14 15  2  0  0  0  0
 14 19  1  0  0  0  0
 15 16  1  0  0  0  0
 16  2  1  0  0  0  0
 16 17  2  0  0  0  0
 18 17  1  0  0  0  0
 18 22  1  0  0  0  0
 19 18  2  0  0  0  0
 20 14  1  0  0  0  0
 21 15  1  0  0  0  0
 23 24  1  0  0  0  0
 24 30  1  0  0  0  0
 25 24  2  0  0  0  0
 25 27  1  0  0  0  0
 26 25  1  0  0  0  0
 27 28  1  0  0  0  0
 28 29  1  0  0  0  0
 30 28  2  0  0  0  0
M  END
>  <minimizedAffinity>
-4.89890862

$$$$
