
 OpenBabel03272507553D

 21 22  0  0  0  0  0  0  0  0999 V2000
   34.9190   28.9350   50.1040 C   0  0  0  0  0  0  0  0  0  0  0  0
   36.0490   29.7150   49.7580 C   0  0  0  0  0  0  0  0  0  0  0  0
   36.0410   30.3600   48.5240 C   0  0  0  0  0  0  0  0  0  0  0  0
   34.9560   30.2140   47.7100 N   0  0  0  0  0  0  0  0  0  0  0  0
   33.8890   29.4510   48.0840 C   0  0  0  0  0  0  0  0  0  0  0  0
   33.8650   28.8120   49.2760 N   0  0  0  0  0  0  0  0  0  0  0  0
   32.8750   29.4350   47.0920 N   0  0  0  0  0  0  0  0  0  0  0  0
   34.8650   28.4090   51.0510 H   0  0  0  0  0  0  0  0  0  0  0  0
   32.1030   30.1340   46.9320 H   0  0  0  0  0  0  0  0  0  0  0  0
   33.1450   28.5360   46.6000 H   0  0  0  0  0  0  0  0  0  0  0  0
   37.1920   31.1780   48.1330 C   0  0  0  0  0  0  0  0  0  0  0  0
   37.9370   30.7360   47.0450 C   0  0  0  0  0  0  0  0  0  0  0  0
   37.8370   29.8750   46.3990 H   0  0  0  0  0  0  0  0  0  0  0  0
   39.2500   32.0090   46.8900 S   0  0  0  0  0  0  0  0  0  0  0  0
   38.5250   32.9500   48.3900 C   0  0  0  0  0  0  0  0  0  0  0  0
   38.8100   33.9120   48.9460 H   0  0  0  0  0  0  0  0  0  0  0  0
   37.6460   32.2980   48.6640 N   0  0  0  0  0  0  0  0  0  0  0  0
   37.1830   29.8140   50.7140 C   0  0  0  0  0  0  0  0  0  0  0  0
   38.4030   29.6570   50.0670 F   0  0  0  0  0  0  0  0  0  0  0  0
   37.1520   31.0540   51.2930 F   0  0  0  0  0  0  0  0  0  0  0  0
   37.1190   28.8650   51.7150 F   0  0  0  0  0  0  0  0  0  0  0  0
  1  8  1  0  0  0  0
  2  1  1  0  0  0  0
  2 18  1  0  0  0  0
  3  2  2  0  0  0  0
  4  5  2  0  0  0  0
  4  3  1  0  0  0  0
  5  6  1  0  0  0  0
  6  1  2  0  0  0  0
  7  5  1  0  0  0  0
  9  7  1  0  0  0  0
 10  7  1  0  0  0  0
 11  3  1  0  0  0  0
 11 17  1  0  0  0  0
 12 11  2  0  0  0  0
 13 12  1  0  0  0  0
 14 12  1  0  0  0  0
 14 15  1  0  0  0  0
 15 17  2  0  0  0  0
 15 16  1  0  0  0  0
 18 20  1  0  0  0  0
 18 21  1  0  0  0  0
 19 18  1  0  0  0  0
M  END
>  <minimizedAffinity>
-5.36951113

>  <minimizedRMSD>
1.37313771

$$$$
