
 OpenBabel03272509533D

 41 44  0  0  0  0  0  0  0  0999 V2000
   34.1400   28.9570   48.1830 C   0  0  0  0  0  0  0  0  0  0  0  0
   34.8640   29.3600   47.4410 H   0  0  0  0  0  0  0  0  0  0  0  0
   33.5600   29.8140   48.5770 H   0  0  0  0  0  0  0  0  0  0  0  0
   33.2980   27.9050   47.5400 C   0  0  0  0  0  0  0  0  0  0  0  0
   33.6600   26.8890   47.7390 H   0  0  0  0  0  0  0  0  0  0  0  0
   33.3410   28.0280   46.4190 H   0  0  0  0  0  0  0  0  0  0  0  0
   31.8630   28.0100   47.8800 C   0  0  0  0  0  0  0  0  0  0  0  0
   31.4770   27.6820   49.1700 C   0  0  0  0  0  0  0  0  0  0  0  0
   30.1840   27.7380   49.6030 C   0  0  0  0  0  0  0  0  0  0  0  0
   29.2470   28.1290   48.7400 N   0  0  0  0  0  0  0  0  0  0  0  0
   29.6130   28.4520   47.4740 C   0  0  0  0  0  0  0  0  0  0  0  0
   30.8930   28.4020   47.0230 N   0  0  0  0  0  0  0  0  0  0  0  0
   32.2400   27.3600   49.8850 H   0  0  0  0  0  0  0  0  0  0  0  0
   29.9120   27.4750   50.6180 H   0  0  0  0  0  0  0  0  0  0  0  0
   28.5590   28.8830   46.5300 C   0  0  0  0  0  0  0  0  0  0  0  0
   28.6570   30.0510   45.6550 C   0  0  0  0  0  0  0  0  0  0  0  0
   29.5270   30.6240   45.6950 H   0  0  0  0  0  0  0  0  0  0  0  0
   26.9560   29.8770   44.8250 S   0  0  0  0  0  0  0  0  0  0  0  0
   26.5250   28.3300   45.8120 C   0  0  0  0  0  0  0  0  0  0  0  0
   25.5500   27.8900   45.6070 H   0  0  0  0  0  0  0  0  0  0  0  0
   27.4880   28.1050   46.5400 N   0  0  0  0  0  0  0  0  0  0  0  0
   34.9580   28.3850   49.2060 O   0  0  0  0  0  0  0  0  0  0  0  0
   37.2000   30.0740   51.4750 C   0  0  0  0  0  0  0  0  0  0  0  0
   37.9780   30.8080   50.5510 C   0  0  0  0  0  0  0  0  0  0  0  0
   37.6800   30.6730   49.1990 C   0  0  0  0  0  0  0  0  0  0  0  0
   36.6430   29.8270   48.8950 N   0  0  0  0  0  0  0  0  0  0  0  0
   35.9200   29.1450   49.7790 C   0  0  0  0  0  0  0  0  0  0  0  0
   36.2120   29.2780   51.0790 N   0  0  0  0  0  0  0  0  0  0  0  0
   37.4720   30.2160   52.5030 H   0  0  0  0  0  0  0  0  0  0  0  0
   38.7870   31.4650   50.8120 H   0  0  0  0  0  0  0  0  0  0  0  0
   38.8180   33.3270   49.1650 F   0  0  0  0  0  0  0  0  0  0  0  0
   38.8980   32.5770   48.0810 C   0  0  0  0  0  0  0  0  0  0  0  0
   38.3560   31.3320   48.1210 C   0  0  0  0  0  0  0  0  0  0  0  0
   38.4970   30.6270   46.9210 C   0  0  0  0  0  0  0  0  0  0  0  0
   39.1280   31.1560   45.8150 C   0  0  0  0  0  0  0  0  0  0  0  0
   39.6590   32.4240   45.8320 C   0  0  0  0  0  0  0  0  0  0  0  0
   39.5320   33.1290   46.9920 C   0  0  0  0  0  0  0  0  0  0  0  0
   38.1020   29.6150   46.8290 H   0  0  0  0  0  0  0  0  0  0  0  0
   39.2050   30.5540   44.9090 H   0  0  0  0  0  0  0  0  0  0  0  0
   40.1340   32.7720   44.9410 H   0  0  0  0  0  0  0  0  0  0  0  0
   39.9440   34.1280   47.0230 H   0  0  0  0  0  0  0  0  0  0  0  0
  1  3  1  0  0  0  0
  1 22  1  0  0  0  0
  2  1  1  0  0  0  0
  4  5  1  0  0  0  0
  4  7  1  0  0  0  0
  4  1  1  0  0  0  0
  6  4  1  0  0  0  0
  7  8  1  0  0  0  0
  8  9  2  0  0  0  0
  8 13  1  0  0  0  0
  9 14  1  0  0  0  0
 10  9  1  0  0  0  0
 11 10  2  0  0  0  0
 12 11  1  0  0  0  0
 12  7  2  0  0  0  0
 15 21  1  0  0  0  0
 15 11  1  0  0  0  0
 16 17  1  0  0  0  0
 16 15  2  0  0  0  0
 18 16  1  0  0  0  0
 18 19  1  0  0  0  0
 19 21  2  0  0  0  0
 20 19  1  0  0  0  0
 22 27  1  0  0  0  0
 23 29  1  0  0  0  0
 24 30  1  0  0  0  0
 24 23  2  0  0  0  0
 25 24  1  0  0  0  0
 26 25  2  0  0  0  0
 26 27  1  0  0  0  0
 27 28  2  0  0  0  0
 28 23  1  0  0  0  0
 32 33  1  0  0  0  0
 32 31  1  0  0  0  0
 33 25  1  0  0  0  0
 34 33  2  0  0  0  0
 35 36  2  0  0  0  0
 35 34  1  0  0  0  0
 36 37  1  0  0  0  0
 37 41  1  0  0  0  0
 37 32  2  0  0  0  0
 38 34  1  0  0  0  0
 39 35  1  0  0  0  0
 40 36  1  0  0  0  0
M  END
>  <minimizedAffinity>
-6.69089699

>  <minimizedRMSD>
1.01324356

$$$$
