
     RDKit          3D

 30 32  0  0  0  0  0  0  0  0999 V2000
   34.7899   29.5421   47.5284 S   0  0  0  0  0  0  0  0  0  0  0  0
   37.3699   29.4781   50.5238 C   0  0  0  0  0  0  0  0  0  0  0  0
   37.9846   30.7257   50.5118 C   0  0  0  0  0  0  0  0  0  0  0  0
   37.5828   31.6393   49.5262 C   0  0  0  0  0  0  0  0  0  0  0  0
   36.6252   31.2431   48.6557 N   0  0  0  0  0  0  0  0  0  0  0  0
   36.0469   30.0315   48.6886 C   0  0  0  0  0  0  0  0  0  0  0  0
   36.4210   29.1386   49.6306 N   0  0  0  0  0  0  0  0  0  0  0  0
   32.3898   28.3584   47.4614 C   0  0  2  0  0  0  0  0  0  0  0  0
   33.6173   28.4062   48.3585 C   0  0  1  0  0  0  0  0  0  0  0  0
   34.1865   27.1534   48.3573 O   0  0  0  0  0  0  0  0  0  0  0  0
   33.5575   26.3776   47.4130 C   0  0  0  0  0  0  0  0  0  0  0  0
   32.8491   27.3425   46.4589 C   0  0  1  0  0  0  0  0  0  0  0  0
   32.1315   29.5936   46.8907 O   0  0  0  0  0  0  0  0  0  0  0  0
   31.8039   26.6819   45.8222 O   0  0  0  0  0  0  0  0  0  0  0  0
   37.7039   28.7954   51.2991 H   0  0  0  0  0  0  0  0  0  0  0  0
   38.7519   31.0347   51.2143 H   0  0  0  0  0  0  0  0  0  0  0  0
   37.9921   32.6321   49.4251 H   0  0  0  0  0  0  0  0  0  0  0  0
   31.5008   27.9742   48.0077 H   0  0  0  0  0  0  0  0  0  0  0  0
   33.3263   28.7868   49.3443 H   0  0  0  0  0  0  0  0  0  0  0  0
   32.8550   25.6370   47.8420 H   0  0  0  0  0  0  0  0  0  0  0  0
   34.3415   25.8889   46.7920 H   0  0  0  0  0  0  0  0  0  0  0  0
   33.5532   27.7462   45.7287 H   0  0  0  0  0  0  0  0  0  0  0  0
   31.8561   30.2173   47.5905 H   0  0  0  0  0  0  0  0  0  0  0  0
   31.8552   26.6634   44.4200 C   0  0  0  0  0  0  0  0  0  0  0  0
   30.5723   26.2730   43.8871 C   0  0  0  0  0  0  0  0  0  0  0  0
   29.6193   26.0015   44.2552 H   0  0  0  0  0  0  0  0  0  0  0  0
   30.8694   26.3156   42.0142 S   0  0  0  0  0  0  0  0  0  0  0  0
   32.6623   26.8512   42.3451 C   0  0  0  0  0  0  0  0  0  0  0  0
   33.7757   27.1678   41.8824 H   0  0  0  0  0  0  0  0  0  0  0  0
   32.7388   26.9007   43.4700 N   0  0  0  0  0  0  0  0  0  0  0  0
  1  6  1  0
  3  2  2  0
  4  3  1  0
  5  6  1  0
  5  4  2  0
  6  7  2  0
  7  2  1  0
  8 13  1  0
  8  9  1  0
  9  1  1  0
  9 10  1  0
 11 10  1  0
 12 14  1  0
 12 11  1  0
 12  8  1  0
  2 15  1  0
  3 16  1  0
  4 17  1  0
  8 18  1  1
  9 19  1  1
 11 20  1  0
 11 21  1  0
 12 22  1  6
 13 23  1  0
 24 25  2  0
 25 26  1  0
 25 27  1  0
 27 28  1  0
 28 29  1  0
 28 30  2  0
 30 24  1  0
 14 24  1  0
M  ISO  8  15  14  16  14  17  14  18  13  19  13  20  13  21  13  22  13
M  ISO  3  23   3  26  15  29  16
M  END
>  <DihAtoms>  (1) 
11,13,23,24

>  <DihDeg>  (1) 
179.99991344513603

$$$$
