
 OpenBabel03272506433D

 30 32  0  0  1  0  0  0  0  0999 V2000
   32.3360   28.3360   47.4320 C   0  0  2  0  0  0  0  0  0  0  0  0
   33.5230   28.3670   48.3810 C   0  0  1  0  0  0  0  0  0  0  0  0
   34.0900   27.1120   48.3860 O   0  0  0  0  0  0  0  0  0  0  0  0
   33.4990   26.3530   47.4050 C   0  0  0  0  0  0  0  0  0  0  0  0
   32.8350   27.3340   46.4350 C   0  0  1  0  0  0  0  0  0  0  0  0
   31.4230   27.9470   47.9340 H   0  0  0  0  0  0  0  0  0  0  0  0
   33.1910   28.7340   49.3590 H   0  0  0  0  0  0  0  0  0  0  0  0
   32.7770   25.6080   47.7920 H   0  0  0  0  0  0  0  0  0  0  0  0
   34.3090   25.8710   46.8110 H   0  0  0  0  0  0  0  0  0  0  0  0
   33.5710   27.7460   45.7420 H   0  0  0  0  0  0  0  0  0  0  0  0
   32.1060   29.5810   46.8700 O   0  0  0  0  0  0  0  0  0  0  0  0
   31.8020   30.1950   47.5650 H   0  0  0  0  0  0  0  0  0  0  0  0
   34.7340   29.5110   47.6190 S   0  0  0  0  0  0  0  0  0  0  0  0
   37.3240   29.3290   50.6020 C   0  0  0  0  0  0  0  0  0  0  0  0
   37.8210   30.6210   50.7430 C   0  0  0  0  0  0  0  0  0  0  0  0
   37.3310   31.6040   49.8700 C   0  0  0  0  0  0  0  0  0  0  0  0
   36.4100   31.2280   48.9530 N   0  0  0  0  0  0  0  0  0  0  0  0
   35.9460   29.9730   48.8380 C   0  0  0  0  0  0  0  0  0  0  0  0
   36.4050   29.0130   49.6690 N   0  0  0  0  0  0  0  0  0  0  0  0
   37.7230   28.5920   51.2920 H   0  0  0  0  0  0  0  0  0  0  0  0
   38.5590   30.9130   51.4810 H   0  0  0  0  0  0  0  0  0  0  0  0
   37.6470   32.6350   49.8900 H   0  0  0  0  0  0  0  0  0  0  0  0
   31.8170   26.6860   45.7440 O   0  0  0  0  0  0  0  0  0  0  0  0
   31.8070   26.8690   44.3530 C   0  0  0  0  0  0  0  0  0  0  0  0
   30.6920   27.7040   43.9750 C   0  0  0  0  0  0  0  0  0  0  0  0
   29.8930   28.2070   44.4500 H   0  0  0  0  0  0  0  0  0  0  0  0
   30.8750   27.8150   42.0910 S   0  0  0  0  0  0  0  0  0  0  0  0
   32.4170   26.7120   42.2100 C   0  0  0  0  0  0  0  0  0  0  0  0
   33.3500   26.1290   41.6230 H   0  0  0  0  0  0  0  0  0  0  0  0
   32.5260   26.4960   43.3120 N   0  0  0  0  0  0  0  0  0  0  0  0
  1  6  1  1  0  0  0
  1  2  1  0  0  0  0
  2  3  1  0  0  0  0
  2  7  1  1  0  0  0
  4  8  1  0  0  0  0
  4  3  1  0  0  0  0
  5 10  1  6  0  0  0
  5  4  1  0  0  0  0
  5  1  1  0  0  0  0
  9  4  1  0  0  0  0
 11  1  1  0  0  0  0
 11 12  1  0  0  0  0
 13  2  1  0  0  0  0
 13 18  1  0  0  0  0
 14 15  1  0  0  0  0
 14 20  1  0  0  0  0
 15 21  1  0  0  0  0
 16 22  1  0  0  0  0
 16 15  2  0  0  0  0
 17 16  1  0  0  0  0
 18 17  2  0  0  0  0
 18 19  1  0  0  0  0
 19 14  2  0  0  0  0
 23  5  1  0  0  0  0
 24 23  1  0  0  0  0
 25 24  2  0  0  0  0
 25 26  1  0  0  0  0
 27 28  1  0  0  0  0
 27 25  1  0  0  0  0
 28 30  2  0  0  0  0
 29 28  1  0  0  0  0
 30 24  1  0  0  0  0
M  END
>  <minimizedAffinity>
-3.70778728

>  <minimizedRMSD>
0.282465339

$$$$
