
 OpenBabel03272509533D

 41 44  0  0  0  0  0  0  0  0999 V2000
   34.3360   28.7480   48.1400 C   0  0  0  0  0  0  0  0  0  0  0  0
   35.2720   28.9000   47.5590 H   0  0  0  0  0  0  0  0  0  0  0  0
   33.7780   29.7040   48.1230 H   0  0  0  0  0  0  0  0  0  0  0  0
   33.5740   27.5980   47.5670 C   0  0  0  0  0  0  0  0  0  0  0  0
   33.8710   26.6340   47.9990 H   0  0  0  0  0  0  0  0  0  0  0  0
   33.7970   27.5170   46.4640 H   0  0  0  0  0  0  0  0  0  0  0  0
   32.1080   27.7630   47.6490 C   0  0  0  0  0  0  0  0  0  0  0  0
   31.4160   26.9750   48.5550 C   0  0  0  0  0  0  0  0  0  0  0  0
   30.0630   27.0360   48.7220 C   0  0  0  0  0  0  0  0  0  0  0  0
   29.3740   27.8970   47.9750 N   0  0  0  0  0  0  0  0  0  0  0  0
   30.0400   28.6740   47.0830 C   0  0  0  0  0  0  0  0  0  0  0  0
   31.3850   28.6280   46.9010 N   0  0  0  0  0  0  0  0  0  0  0  0
   31.9740   26.2660   49.1730 H   0  0  0  0  0  0  0  0  0  0  0  0
   29.5500   26.4070   49.4390 H   0  0  0  0  0  0  0  0  0  0  0  0
   29.2580   29.6230   46.2620 C   0  0  0  0  0  0  0  0  0  0  0  0
   29.7770   30.3260   45.0880 C   0  0  0  0  0  0  0  0  0  0  0  0
   30.7650   30.1510   44.8060 H   0  0  0  0  0  0  0  0  0  0  0  0
   28.1960   31.2890   44.6630 S   0  0  0  0  0  0  0  0  0  0  0  0
   27.2380   30.5500   46.1090 C   0  0  0  0  0  0  0  0  0  0  0  0
   26.2060   30.8790   46.2160 H   0  0  0  0  0  0  0  0  0  0  0  0
   28.0150   29.7930   46.6850 N   0  0  0  0  0  0  0  0  0  0  0  0
   34.7810   28.4420   49.4630 O   0  0  0  0  0  0  0  0  0  0  0  0
   37.1890   30.0260   51.6350 C   0  0  0  0  0  0  0  0  0  0  0  0
   37.9550   30.7310   50.6810 C   0  0  0  0  0  0  0  0  0  0  0  0
   37.5930   30.6150   49.3420 C   0  0  0  0  0  0  0  0  0  0  0  0
   36.5090   29.8150   49.0830 N   0  0  0  0  0  0  0  0  0  0  0  0
   35.7980   29.1590   49.9950 C   0  0  0  0  0  0  0  0  0  0  0  0
   36.1530   29.2730   51.2810 N   0  0  0  0  0  0  0  0  0  0  0  0
   37.5130   30.1510   52.6510 H   0  0  0  0  0  0  0  0  0  0  0  0
   38.8020   31.3530   50.9080 H   0  0  0  0  0  0  0  0  0  0  0  0
   38.8130   33.2320   49.2590 F   0  0  0  0  0  0  0  0  0  0  0  0
   38.8270   32.4780   48.1740 C   0  0  0  0  0  0  0  0  0  0  0  0
   38.2470   31.2520   48.2370 C   0  0  0  0  0  0  0  0  0  0  0  0
   38.3190   30.5410   47.0340 C   0  0  0  0  0  0  0  0  0  0  0  0
   38.9230   31.0490   45.9040 C   0  0  0  0  0  0  0  0  0  0  0  0
   39.4950   32.2980   45.8970 C   0  0  0  0  0  0  0  0  0  0  0  0
   39.4350   33.0090   47.0600 C   0  0  0  0  0  0  0  0  0  0  0  0
   37.8880   29.5420   46.9600 H   0  0  0  0  0  0  0  0  0  0  0  0
   38.9460   30.4430   44.9970 H   0  0  0  0  0  0  0  0  0  0  0  0
   39.9450   32.6300   44.9880 H   0  0  0  0  0  0  0  0  0  0  0  0
   39.8810   33.9940   47.0730 H   0  0  0  0  0  0  0  0  0  0  0  0
  1 22  1  0  0  0  0
  2  1  1  0  0  0  0
  3  1  1  0  0  0  0
  4  7  1  0  0  0  0
  4  5  1  0  0  0  0
  4  1  1  0  0  0  0
  6  4  1  0  0  0  0
  7  8  1  0  0  0  0
  8  9  2  0  0  0  0
  8 13  1  0  0  0  0
  9 14  1  0  0  0  0
 10  9  1  0  0  0  0
 11 10  2  0  0  0  0
 12 11  1  0  0  0  0
 12  7  2  0  0  0  0
 15 21  1  0  0  0  0
 15 11  1  0  0  0  0
 16 15  2  0  0  0  0
 17 16  1  0  0  0  0
 18 16  1  0  0  0  0
 18 19  1  0  0  0  0
 19 20  1  0  0  0  0
 19 21  2  0  0  0  0
 22 27  1  0  0  0  0
 23 29  1  0  0  0  0
 24 30  1  0  0  0  0
 24 23  2  0  0  0  0
 25 24  1  0  0  0  0
 26 25  2  0  0  0  0
 26 27  1  0  0  0  0
 27 28  2  0  0  0  0
 28 23  1  0  0  0  0
 32 33  1  0  0  0  0
 32 31  1  0  0  0  0
 33 25  1  0  0  0  0
 34 33  2  0  0  0  0
 35 34  1  0  0  0  0
 36 35  2  0  0  0  0
 36 37  1  0  0  0  0
 37 41  1  0  0  0  0
 37 32  2  0  0  0  0
 38 34  1  0  0  0  0
 39 35  1  0  0  0  0
 40 36  1  0  0  0  0
M  END
>  <minimizedAffinity>
-6.57658482

>  <minimizedRMSD>
0.75923574

$$$$
