
 OpenBabel03272505033D

 27 29  0  0  0  0  0  0  0  0999 V2000
   36.2230   30.2540   45.9480 Cl  0  0  0  0  0  0  0  0  0  0  0  0
   37.4780   31.2760   46.6250 C   0  0  0  0  0  0  0  0  0  0  0  0
   37.5990   31.3490   47.9880 C   0  0  0  0  0  0  0  0  0  0  0  0
   38.6070   32.1750   48.4580 C   0  0  0  0  0  0  0  0  0  0  0  0
   39.4190   32.8650   47.5610 C   0  0  0  0  0  0  0  0  0  0  0  0
   39.2530   32.7540   46.2020 C   0  0  0  0  0  0  0  0  0  0  0  0
   38.2490   31.9320   45.7220 C   0  0  0  0  0  0  0  0  0  0  0  0
   38.7940   32.3100   49.5120 H   0  0  0  0  0  0  0  0  0  0  0  0
   40.2000   33.5050   47.9570 H   0  0  0  0  0  0  0  0  0  0  0  0
   39.9100   33.3110   45.5350 H   0  0  0  0  0  0  0  0  0  0  0  0
   37.2860   29.7160   49.8520 C   0  0  0  0  0  0  0  0  0  0  0  0
   36.7520   30.6290   48.9260 C   0  0  0  0  0  0  0  0  0  0  0  0
   35.3830   30.8120   48.9440 C   0  0  0  0  0  0  0  0  0  0  0  0
   34.6440   30.1150   49.8380 N   0  0  0  0  0  0  0  0  0  0  0  0
   35.1860   29.2490   50.7140 C   0  0  0  0  0  0  0  0  0  0  0  0
   36.5080   29.0520   50.7170 N   0  0  0  0  0  0  0  0  0  0  0  0
   38.3590   29.5460   49.8670 H   0  0  0  0  0  0  0  0  0  0  0  0
   34.9570   31.5130   48.2360 H   0  0  0  0  0  0  0  0  0  0  0  0
   34.5300   28.7380   51.3880 H   0  0  0  0  0  0  0  0  0  0  0  0
   38.1040   31.8370   44.3540 O   0  0  0  0  0  0  0  0  0  0  0  0
   38.8500   30.8280   43.7120 C   0  0  0  0  0  0  0  0  0  0  0  0
   39.8590   31.3900   42.9670 C   0  0  0  0  0  0  0  0  0  0  0  0
   40.2770   32.3350   42.7040 H   0  0  0  0  0  0  0  0  0  0  0  0
   40.6820   29.8870   42.2310 S   0  0  0  0  0  0  0  0  0  0  0  0
   39.4230   28.7480   43.1310 C   0  0  0  0  0  0  0  0  0  0  0  0
   39.0860   27.6270   43.3190 H   0  0  0  0  0  0  0  0  0  0  0  0
   38.7980   29.5120   43.6650 N   0  0  0  0  0  0  0  0  0  0  0  0
  1  2  1  0  0  0  0
  2  3  1  0  0  0  0
  3  4  2  0  0  0  0
  3 12  1  0  0  0  0
  4  8  1  0  0  0  0
  5  9  1  0  0  0  0
  5  4  1  0  0  0  0
  6  5  2  0  0  0  0
  7  6  1  0  0  0  0
  7  2  2  0  0  0  0
 10  6  1  0  0  0  0
 11 17  1  0  0  0  0
 11 16  1  0  0  0  0
 12 13  1  0  0  0  0
 12 11  2  0  0  0  0
 13 14  2  0  0  0  0
 14 15  1  0  0  0  0
 15 16  2  0  0  0  0
 15 19  1  0  0  0  0
 18 13  1  0  0  0  0
 20  7  1  0  0  0  0
 21 20  1  0  0  0  0
 22 21  2  0  0  0  0
 23 22  1  0  0  0  0
 24 22  1  0  0  0  0
 24 25  1  0  0  0  0
 25 26  1  0  0  0  0
 25 27  2  0  0  0  0
 27 21  1  0  0  0  0
M  END
>  <minimizedAffinity>
-5.13688993

>  <minimizedRMSD>
2.29229236

$$$$
