
 OpenBabel03272510123D

 33 36  0  0  0  0  0  0  0  0999 V2000
   33.3370   28.3520   48.8330 C   0  0  0  0  0  0  0  0  0  0  0  0
   33.5910   28.8550   50.0590 C   0  0  0  0  0  0  0  0  0  0  0  0
   34.8070   29.3840   50.4600 C   0  0  0  0  0  0  0  0  0  0  0  0
   35.8490   29.4160   49.5790 C   0  0  0  0  0  0  0  0  0  0  0  0
   35.5940   28.8950   48.3020 C   0  0  0  0  0  0  0  0  0  0  0  0
   34.3880   28.3970   47.9830 N   0  0  0  0  0  0  0  0  0  0  0  0
   32.8270   28.8730   50.8250 H   0  0  0  0  0  0  0  0  0  0  0  0
   35.0090   29.7860   51.4380 H   0  0  0  0  0  0  0  0  0  0  0  0
   36.3080   28.8460   47.4920 H   0  0  0  0  0  0  0  0  0  0  0  0
   30.9530   27.6980   49.2630 C   0  0  0  0  0  0  0  0  0  0  0  0
   32.0770   27.8070   48.4270 C   0  0  0  0  0  0  0  0  0  0  0  0
   31.9200   27.3460   47.1270 C   0  0  0  0  0  0  0  0  0  0  0  0
   30.7050   26.8240   46.7450 N   0  0  0  0  0  0  0  0  0  0  0  0
   29.6710   26.7510   47.6030 C   0  0  0  0  0  0  0  0  0  0  0  0
   29.7840   27.1900   48.8770 N   0  0  0  0  0  0  0  0  0  0  0  0
   31.0440   28.0490   50.2830 H   0  0  0  0  0  0  0  0  0  0  0  0
   32.7020   27.3700   46.3790 H   0  0  0  0  0  0  0  0  0  0  0  0
   28.7200   26.3400   47.2960 H   0  0  0  0  0  0  0  0  0  0  0  0
   37.1350   29.9080   49.8060 O   0  0  0  0  0  0  0  0  0  0  0  0
   37.7260   30.8280   48.9550 C   0  0  0  0  0  0  0  0  0  0  0  0
   38.2510   31.9390   49.5830 C   0  0  0  0  0  0  0  0  0  0  0  0
   38.8060   32.7640   48.6080 C   0  0  0  0  0  0  0  0  0  0  0  0
   38.6030   32.1390   47.4410 N   0  0  0  0  0  0  0  0  0  0  0  0
   37.9740   31.0130   47.6560 N   0  0  0  0  0  0  0  0  0  0  0  0
   38.3240   32.2950   50.6200 H   0  0  0  0  0  0  0  0  0  0  0  0
   39.3200   33.7190   48.5950 H   0  0  0  0  0  0  0  0  0  0  0  0
   38.9240   32.4360   46.0630 C   0  0  0  0  0  0  0  0  0  0  0  0
   40.2710   32.8990   45.4930 C   0  0  0  0  0  0  0  0  0  0  0  0
   40.9820   32.9750   46.3000 H   0  0  0  0  0  0  0  0  0  0  0  0
   39.7940   33.0290   43.7540 S   0  0  0  0  0  0  0  0  0  0  0  0
   37.9960   32.4870   44.0290 C   0  0  0  0  0  0  0  0  0  0  0  0
   37.4150   32.4590   43.1490 H   0  0  0  0  0  0  0  0  0  0  0  0
   37.8440   32.2530   45.2950 N   0  0  0  0  0  0  0  0  0  0  0  0
  1  2  1  0  0  0  0
  2  3  2  0  0  0  0
  2  7  1  0  0  0  0
  3  8  1  0  0  0  0
  4 19  1  0  0  0  0
  4  3  1  0  0  0  0
  5  4  2  0  0  0  0
  6  5  1  0  0  0  0
  6  1  2  0  0  0  0
  9  5  1  0  0  0  0
 10 16  1  0  0  0  0
 11  1  1  0  0  0  0
 11 10  2  0  0  0  0
 12 11  1  0  0  0  0
 13 12  2  0  0  0  0
 13 14  1  0  0  0  0
 14 15  2  0  0  0  0
 15 10  1  0  0  0  0
 17 12  1  0  0  0  0
 18 14  1  0  0  0  0
 20 21  1  0  0  0  0
 20 19  1  0  0  0  0
 21 25  1  0  0  0  0
 22 21  2  0  0  0  0
 23 24  1  0  0  0  0
 23 22  1  0  0  0  0
 24 20  2  0  0  0  0
 26 22  1  0  0  0  0
 27 23  1  0  0  0  0
 28 27  2  0  0  0  0
 28 29  1  0  0  0  0
 30 31  1  0  0  0  0
 30 28  1  0  0  0  0
 31 33  2  0  0  0  0
 32 31  1  0  0  0  0
 33 27  1  0  0  0  0
M  END
>  <minimizedAffinity>
-5.67565536

>  <minimizedRMSD>
1.55847216

$$$$
