
 OpenBabel03272506413D

 17 18  0  0  0  0  0  0  0  0999 V2000
   39.9760   22.6960   37.6540 C   0  0  0  0  0  0  0  0  0  0  0  0
   38.8940   23.2940   38.3270 C   0  0  0  0  0  0  0  0  0  0  0  0
   37.7090   23.4810   37.6120 C   0  0  0  0  0  0  0  0  0  0  0  0
   37.6680   23.0790   36.3120 N   0  0  0  0  0  0  0  0  0  0  0  0
   38.7290   22.5090   35.7010 C   0  0  0  0  0  0  0  0  0  0  0  0
   39.8790   22.3130   36.3530 N   0  0  0  0  0  0  0  0  0  0  0  0
   40.9280   22.5240   38.1630 H   0  0  0  0  0  0  0  0  0  0  0  0
   39.0150   23.5770   39.3450 H   0  0  0  0  0  0  0  0  0  0  0  0
   36.8590   23.9400   38.1080 H   0  0  0  0  0  0  0  0  0  0  0  0
   38.6600   21.9860   33.9960 S   0  0  0  0  0  0  0  0  0  0  0  0
   37.6120   23.1060   33.0400 C   0  0  0  0  0  0  0  0  0  0  0  0
   36.6210   22.4590   32.2030 C   0  0  0  0  0  0  0  0  0  0  0  0
   36.3950   21.4490   32.0440 H   0  0  0  0  0  0  0  0  0  0  0  0
   35.8150   23.9960   31.4420 S   0  0  0  0  0  0  0  0  0  0  0  0
   36.9710   25.1530   32.4040 C   0  0  0  0  0  0  0  0  0  0  0  0
   36.9270   26.2310   32.3250 H   0  0  0  0  0  0  0  0  0  0  0  0
   37.6660   24.4220   33.0370 N   0  0  0  0  0  0  0  0  0  0  0  0
  1  7  1  0  0  0  0
  1  2  1  0  0  0  0
  2  8  1  0  0  0  0
  3  9  1  0  0  0  0
  3  2  2  0  0  0  0
  4  3  1  0  0  0  0
  5  4  2  0  0  0  0
  5  6  1  0  0  0  0
  6  1  2  0  0  0  0
 10  5  1  0  0  0  0
 11 10  1  0  0  0  0
 12 11  2  0  0  0  0
 13 12  1  0  0  0  0
 14 12  1  0  0  0  0
 14 15  1  0  0  0  0
 15 17  2  0  0  0  0
 16 15  1  0  0  0  0
 17 11  1  0  0  0  0
M  END
>  <minimizedAffinity>
-3.5361433

$$$$

 OpenBabel03272506413D

 17 18  0  0  0  0  0  0  0  0999 V2000
   35.5320   26.4670   31.2570 C   0  0  0  0  0  0  0  0  0  0  0  0
   34.9630   25.2560   30.8200 C   0  0  0  0  0  0  0  0  0  0  0  0
   35.5420   24.0670   31.2710 C   0  0  0  0  0  0  0  0  0  0  0  0
   36.6160   24.1470   32.1030 N   0  0  0  0  0  0  0  0  0  0  0  0
   37.1330   25.3310   32.5000 C   0  0  0  0  0  0  0  0  0  0  0  0
   36.6070   26.4870   32.0900 N   0  0  0  0  0  0  0  0  0  0  0  0
   35.1220   27.4280   30.9370 H   0  0  0  0  0  0  0  0  0  0  0  0
   34.1220   25.2880   30.1690 H   0  0  0  0  0  0  0  0  0  0  0  0
   35.1220   23.1200   30.9490 H   0  0  0  0  0  0  0  0  0  0  0  0
   38.5420   25.4190   33.5930 S   0  0  0  0  0  0  0  0  0  0  0  0
   38.2470   24.4270   35.0750 C   0  0  0  0  0  0  0  0  0  0  0  0
   38.1260   25.1820   36.3070 C   0  0  0  0  0  0  0  0  0  0  0  0
   38.1790   26.2090   36.5030 H   0  0  0  0  0  0  0  0  0  0  0  0
   37.8370   23.7500   37.5140 S   0  0  0  0  0  0  0  0  0  0  0  0
   37.9400   22.4710   36.1160 C   0  0  0  0  0  0  0  0  0  0  0  0
   37.8310   21.4080   36.2800 H   0  0  0  0  0  0  0  0  0  0  0  0
   38.1340   23.1160   35.1350 N   0  0  0  0  0  0  0  0  0  0  0  0
  1  6  1  0  0  0  0
  2  1  2  0  0  0  0
  2  3  1  0  0  0  0
  3  4  2  0  0  0  0
  4  5  1  0  0  0  0
  5 10  1  0  0  0  0
  6  5  2  0  0  0  0
  7  1  1  0  0  0  0
  8  2  1  0  0  0  0
  9  3  1  0  0  0  0
 10 11  1  0  0  0  0
 11 17  1  0  0  0  0
 11 12  2  0  0  0  0
 12 13  1  0  0  0  0
 12 14  1  0  0  0  0
 15 16  1  0  0  0  0
 15 14  1  0  0  0  0
 17 15  2  0  0  0  0
M  END
>  <minimizedAffinity>
-3.48856425

$$$$

 OpenBabel03272506413D

 17 18  0  0  0  0  0  0  0  0999 V2000
   39.9210   22.6800   37.8410 C   0  0  0  0  0  0  0  0  0  0  0  0
   38.8660   23.3900   38.4430 C   0  0  0  0  0  0  0  0  0  0  0  0
   37.8190   23.8160   37.6210 C   0  0  0  0  0  0  0  0  0  0  0  0
   37.8800   23.5210   36.2940 N   0  0  0  0  0  0  0  0  0  0  0  0
   38.9110   22.8360   35.7540 C   0  0  0  0  0  0  0  0  0  0  0  0
   39.9290   22.4130   36.5080 N   0  0  0  0  0  0  0  0  0  0  0  0
   40.7670   22.3210   38.4340 H   0  0  0  0  0  0  0  0  0  0  0  0
   38.9020   23.5760   39.4890 H   0  0  0  0  0  0  0  0  0  0  0  0
   36.9930   24.3670   38.0600 H   0  0  0  0  0  0  0  0  0  0  0  0
   38.9750   22.4560   34.0110 S   0  0  0  0  0  0  0  0  0  0  0  0
   37.3730   21.8360   33.4470 C   0  0  0  0  0  0  0  0  0  0  0  0
   36.9800   22.2630   32.1180 C   0  0  0  0  0  0  0  0  0  0  0  0
   37.4560   22.8730   31.4130 H   0  0  0  0  0  0  0  0  0  0  0  0
   35.3050   21.3840   32.0010 S   0  0  0  0  0  0  0  0  0  0  0  0
   35.5000   20.6470   33.7380 C   0  0  0  0  0  0  0  0  0  0  0  0
   34.7570   20.0090   34.1950 H   0  0  0  0  0  0  0  0  0  0  0  0
   36.5540   21.0520   34.1170 N   0  0  0  0  0  0  0  0  0  0  0  0
  1  7  1  0  0  0  0
  1  2  1  0  0  0  0
  2  8  1  0  0  0  0
  3  9  1  0  0  0  0
  3  2  2  0  0  0  0
  4  3  1  0  0  0  0
  5  4  2  0  0  0  0
  5  6  1  0  0  0  0
  6  1  2  0  0  0  0
 10  5  1  0  0  0  0
 11 10  1  0  0  0  0
 11 17  1  0  0  0  0
 12 11  2  0  0  0  0
 13 12  1  0  0  0  0
 14 12  1  0  0  0  0
 14 15  1  0  0  0  0
 15 17  2  0  0  0  0
 15 16  1  0  0  0  0
M  END
>  <minimizedAffinity>
-3.45166302

$$$$

 OpenBabel03272506413D

 17 18  0  0  0  0  0  0  0  0999 V2000
   37.8370   24.1050   37.9710 C   0  0  0  0  0  0  0  0  0  0  0  0
   38.8500   23.3280   38.5630 C   0  0  0  0  0  0  0  0  0  0  0  0
   39.8470   22.8170   37.7280 C   0  0  0  0  0  0  0  0  0  0  0  0
   39.7830   23.0990   36.3980 N   0  0  0  0  0  0  0  0  0  0  0  0
   38.7940   23.8500   35.8680 C   0  0  0  0  0  0  0  0  0  0  0  0
   37.8230   24.3550   36.6340 N   0  0  0  0  0  0  0  0  0  0  0  0
   37.0310   24.5310   38.5730 H   0  0  0  0  0  0  0  0  0  0  0  0
   38.8210   23.1580   39.6120 H   0  0  0  0  0  0  0  0  0  0  0  0
   40.6400   22.2140   38.1600 H   0  0  0  0  0  0  0  0  0  0  0  0
   38.7240   24.2110   34.1210 S   0  0  0  0  0  0  0  0  0  0  0  0
   37.5750   23.0860   33.2950 C   0  0  0  0  0  0  0  0  0  0  0  0
   37.4280   21.7860   33.9220 C   0  0  0  0  0  0  0  0  0  0  0  0
   37.8690   21.3700   34.7750 H   0  0  0  0  0  0  0  0  0  0  0  0
   36.1730   21.0150   32.7300 S   0  0  0  0  0  0  0  0  0  0  0  0
   36.1230   22.5870   31.6680 C   0  0  0  0  0  0  0  0  0  0  0  0
   35.5070   22.6830   30.7840 H   0  0  0  0  0  0  0  0  0  0  0  0
   36.8780   23.3340   32.2060 N   0  0  0  0  0  0  0  0  0  0  0  0
  1  2  1  0  0  0  0
  1  7  1  0  0  0  0
  2  8  1  0  0  0  0
  3  9  1  0  0  0  0
  3  2  2  0  0  0  0
  4  3  1  0  0  0  0
  5  4  2  0  0  0  0
  5  6  1  0  0  0  0
  6  1  2  0  0  0  0
 10  5  1  0  0  0  0
 11 12  2  0  0  0  0
 11 10  1  0  0  0  0
 12 13  1  0  0  0  0
 14 12  1  0  0  0  0
 15 17  2  0  0  0  0
 15 14  1  0  0  0  0
 16 15  1  0  0  0  0
 17 11  1  0  0  0  0
M  END
>  <minimizedAffinity>
-3.42580032

$$$$

 OpenBabel03272506413D

 17 18  0  0  0  0  0  0  0  0999 V2000
   36.0160   23.8420   31.5960 C   0  0  0  0  0  0  0  0  0  0  0  0
   35.6850   22.4840   31.7590 C   0  0  0  0  0  0  0  0  0  0  0  0
   36.4130   21.7480   32.6980 C   0  0  0  0  0  0  0  0  0  0  0  0
   37.3940   22.3820   33.3960 N   0  0  0  0  0  0  0  0  0  0  0  0
   37.6810   23.6890   33.2090 C   0  0  0  0  0  0  0  0  0  0  0  0
   37.0070   24.4250   32.3210 N   0  0  0  0  0  0  0  0  0  0  0  0
   35.4800   24.4680   30.8770 H   0  0  0  0  0  0  0  0  0  0  0  0
   34.9020   22.0700   31.1710 H   0  0  0  0  0  0  0  0  0  0  0  0
   36.1770   20.6980   32.8440 H   0  0  0  0  0  0  0  0  0  0  0  0
   38.9710   24.5070   34.1330 S   0  0  0  0  0  0  0  0  0  0  0  0
   38.9710   23.9340   35.8480 C   0  0  0  0  0  0  0  0  0  0  0  0
   37.8600   24.4020   36.6530 C   0  0  0  0  0  0  0  0  0  0  0  0
   37.0460   25.0190   36.4260 H   0  0  0  0  0  0  0  0  0  0  0  0
   38.3000   23.5630   38.2940 S   0  0  0  0  0  0  0  0  0  0  0  0
   39.8580   22.7790   37.5460 C   0  0  0  0  0  0  0  0  0  0  0  0
   40.5280   22.1450   38.1100 H   0  0  0  0  0  0  0  0  0  0  0  0
   39.8650   23.1510   36.4150 N   0  0  0  0  0  0  0  0  0  0  0  0
  1  2  2  0  0  0  0
  1  6  1  0  0  0  0
  2  3  1  0  0  0  0
  3  9  1  0  0  0  0
  3  4  2  0  0  0  0
  5  4  1  0  0  0  0
  5 10  1  0  0  0  0
  6  5  2  0  0  0  0
  7  1  1  0  0  0  0
  8  2  1  0  0  0  0
 10 11  1  0  0  0  0
 11 17  1  0  0  0  0
 11 12  2  0  0  0  0
 12 14  1  0  0  0  0
 13 12  1  0  0  0  0
 15 16  1  0  0  0  0
 15 14  1  0  0  0  0
 17 15  2  0  0  0  0
M  END
>  <minimizedAffinity>
-3.33019805

$$$$

 OpenBabel03272506413D

 17 18  0  0  0  0  0  0  0  0999 V2000
   40.0490   23.5930   35.9090 C   0  0  0  0  0  0  0  0  0  0  0  0
   39.3620   22.8710   36.9030 C   0  0  0  0  0  0  0  0  0  0  0  0
   38.2000   23.4390   37.4310 C   0  0  0  0  0  0  0  0  0  0  0  0
   37.8010   24.6510   36.9570 N   0  0  0  0  0  0  0  0  0  0  0  0
   38.4890   25.3130   36.0010 C   0  0  0  0  0  0  0  0  0  0  0  0
   39.6040   24.8010   35.4720 N   0  0  0  0  0  0  0  0  0  0  0  0
   40.9630   23.1980   35.4590 H   0  0  0  0  0  0  0  0  0  0  0  0
   39.7470   21.9290   37.2130 H   0  0  0  0  0  0  0  0  0  0  0  0
   37.6520   22.9030   38.1990 H   0  0  0  0  0  0  0  0  0  0  0  0
   37.9520   26.9020   35.3900 S   0  0  0  0  0  0  0  0  0  0  0  0
   37.1660   26.7160   33.7720 C   0  0  0  0  0  0  0  0  0  0  0  0
   36.6390   27.9390   33.1990 C   0  0  0  0  0  0  0  0  0  0  0  0
   36.6270   28.9250   33.5510 H   0  0  0  0  0  0  0  0  0  0  0  0
   35.9500   27.2420   31.5770 S   0  0  0  0  0  0  0  0  0  0  0  0
   36.5140   25.4850   32.0210 C   0  0  0  0  0  0  0  0  0  0  0  0
   36.3520   24.6330   31.3760 H   0  0  0  0  0  0  0  0  0  0  0  0
   37.0330   25.5990   33.0860 N   0  0  0  0  0  0  0  0  0  0  0  0
  1  2  1  0  0  0  0
  2  8  1  0  0  0  0
  2  3  2  0  0  0  0
  3  9  1  0  0  0  0
  4  3  1  0  0  0  0
  5  4  2  0  0  0  0
  6  1  2  0  0  0  0
  6  5  1  0  0  0  0
  7  1  1  0  0  0  0
 10  5  1  0  0  0  0
 11 10  1  0  0  0  0
 12 13  1  0  0  0  0
 12 11  2  0  0  0  0
 14 15  1  0  0  0  0
 14 12  1  0  0  0  0
 15 17  2  0  0  0  0
 16 15  1  0  0  0  0
 17 11  1  0  0  0  0
M  END
>  <minimizedAffinity>
-3.3125627

$$$$

 OpenBabel03272506413D

 17 18  0  0  0  0  0  0  0  0999 V2000
   35.6110   20.4920   33.5760 C   0  0  0  0  0  0  0  0  0  0  0  0
   35.4470   19.2400   32.9560 C   0  0  0  0  0  0  0  0  0  0  0  0
   36.0200   19.0610   31.6940 C   0  0  0  0  0  0  0  0  0  0  0  0
   36.7000   20.1020   31.1400 N   0  0  0  0  0  0  0  0  0  0  0  0
   36.8350   21.2900   31.7690 C   0  0  0  0  0  0  0  0  0  0  0  0
   36.3020   21.4970   32.9760 N   0  0  0  0  0  0  0  0  0  0  0  0
   35.1860   20.6900   34.5640 H   0  0  0  0  0  0  0  0  0  0  0  0
   34.8990   18.4820   33.4630 H   0  0  0  0  0  0  0  0  0  0  0  0
   35.9070   18.1040   31.1930 H   0  0  0  0  0  0  0  0  0  0  0  0
   37.7310   22.6450   31.0300 S   0  0  0  0  0  0  0  0  0  0  0  0
   36.7410   24.1570   31.0920 C   0  0  0  0  0  0  0  0  0  0  0  0
   37.4770   25.3620   31.4200 C   0  0  0  0  0  0  0  0  0  0  0  0
   38.4890   25.5250   31.6320 H   0  0  0  0  0  0  0  0  0  0  0  0
   36.0540   26.6120   31.3610 S   0  0  0  0  0  0  0  0  0  0  0  0
   34.8010   25.2580   30.9140 C   0  0  0  0  0  0  0  0  0  0  0  0
   33.7510   25.4560   30.7530 H   0  0  0  0  0  0  0  0  0  0  0  0
   35.4470   24.2580   30.8710 N   0  0  0  0  0  0  0  0  0  0  0  0
  1  7  1  0  0  0  0
  2  8  1  0  0  0  0
  2  1  2  0  0  0  0
  3  2  1  0  0  0  0
  4  3  2  0  0  0  0
  4  5  1  0  0  0  0
  5  6  2  0  0  0  0
  6  1  1  0  0  0  0
  9  3  1  0  0  0  0
 10 11  1  0  0  0  0
 10  5  1  0  0  0  0
 11 12  2  0  0  0  0
 12 13  1  0  0  0  0
 14 12  1  0  0  0  0
 15 14  1  0  0  0  0
 16 15  1  0  0  0  0
 17 15  2  0  0  0  0
 17 11  1  0  0  0  0
M  END
>  <minimizedAffinity>
-3.27137423

$$$$

 OpenBabel03272506413D

 17 18  0  0  0  0  0  0  0  0999 V2000
   41.5820   27.1170   33.4770 C   0  0  0  0  0  0  0  0  0  0  0  0
   41.0540   27.2490   32.1790 C   0  0  0  0  0  0  0  0  0  0  0  0
   39.6640   27.2400   32.0410 C   0  0  0  0  0  0  0  0  0  0  0  0
   38.9040   27.1060   33.1620 N   0  0  0  0  0  0  0  0  0  0  0  0
   39.4500   26.9820   34.3920 C   0  0  0  0  0  0  0  0  0  0  0  0
   40.7750   26.9860   34.5630 N   0  0  0  0  0  0  0  0  0  0  0  0
   42.6620   27.1170   33.6460 H   0  0  0  0  0  0  0  0  0  0  0  0
   41.7230   27.3490   31.3590 H   0  0  0  0  0  0  0  0  0  0  0  0
   39.2310   27.3400   31.0510 H   0  0  0  0  0  0  0  0  0  0  0  0
   38.4400   26.8070   35.8530 S   0  0  0  0  0  0  0  0  0  0  0  0
   38.1820   25.0580   36.2290 C   0  0  0  0  0  0  0  0  0  0  0  0
   38.2730   24.1630   35.0920 C   0  0  0  0  0  0  0  0  0  0  0  0
   38.4620   24.3420   34.0780 H   0  0  0  0  0  0  0  0  0  0  0  0
   37.9420   22.5190   35.9730 S   0  0  0  0  0  0  0  0  0  0  0  0
   37.7580   23.3840   37.6520 C   0  0  0  0  0  0  0  0  0  0  0  0
   37.5460   22.8520   38.5690 H   0  0  0  0  0  0  0  0  0  0  0  0
   37.9260   24.5380   37.4120 N   0  0  0  0  0  0  0  0  0  0  0  0
  1  7  1  0  0  0  0
  1  6  1  0  0  0  0
  2  1  2  0  0  0  0
  3  2  1  0  0  0  0
  3  4  2  0  0  0  0
  4  5  1  0  0  0  0
  5  6  2  0  0  0  0
  5 10  1  0  0  0  0
  8  2  1  0  0  0  0
  9  3  1  0  0  0  0
 10 11  1  0  0  0  0
 11 17  1  0  0  0  0
 12 14  1  0  0  0  0
 12 11  2  0  0  0  0
 13 12  1  0  0  0  0
 14 15  1  0  0  0  0
 15 16  1  0  0  0  0
 17 15  2  0  0  0  0
M  END
>  <minimizedAffinity>
-3.2462728

$$$$

 OpenBabel03272506413D

 17 18  0  0  0  0  0  0  0  0999 V2000
   35.6720   20.7990   35.4940 C   0  0  0  0  0  0  0  0  0  0  0  0
   35.6670   20.5910   34.1020 C   0  0  0  0  0  0  0  0  0  0  0  0
   36.6850   21.1870   33.3540 C   0  0  0  0  0  0  0  0  0  0  0  0
   37.6180   21.9310   34.0090 N   0  0  0  0  0  0  0  0  0  0  0  0
   37.5870   22.1070   35.3480 C   0  0  0  0  0  0  0  0  0  0  0  0
   36.6300   21.5520   36.0970 N   0  0  0  0  0  0  0  0  0  0  0  0
   34.9010   20.3570   36.1300 H   0  0  0  0  0  0  0  0  0  0  0  0
   34.8980   19.9940   33.6730 H   0  0  0  0  0  0  0  0  0  0  0  0
   36.7040   21.0430   32.2780 H   0  0  0  0  0  0  0  0  0  0  0  0
   38.8180   23.0850   36.1940 S   0  0  0  0  0  0  0  0  0  0  0  0
   40.3890   22.1910   36.2610 C   0  0  0  0  0  0  0  0  0  0  0  0
   41.0620   22.0320   34.9870 C   0  0  0  0  0  0  0  0  0  0  0  0
   40.8050   22.3400   34.0200 H   0  0  0  0  0  0  0  0  0  0  0  0
   42.5890   21.0740   35.5690 S   0  0  0  0  0  0  0  0  0  0  0  0
   41.9950   21.0990   37.3710 C   0  0  0  0  0  0  0  0  0  0  0  0
   42.5510   20.6500   38.1810 H   0  0  0  0  0  0  0  0  0  0  0  0
   40.9610   21.6870   37.3350 N   0  0  0  0  0  0  0  0  0  0  0  0
  1  6  1  0  0  0  0
  1  7  1  0  0  0  0
  2  1  2  0  0  0  0
  3  4  2  0  0  0  0
  3  2  1  0  0  0  0
  4  5  1  0  0  0  0
  5  6  2  0  0  0  0
  5 10  1  0  0  0  0
  8  2  1  0  0  0  0
  9  3  1  0  0  0  0
 10 11  1  0  0  0  0
 11 17  1  0  0  0  0
 12 14  1  0  0  0  0
 12 11  2  0  0  0  0
 13 12  1  0  0  0  0
 14 15  1  0  0  0  0
 15 16  1  0  0  0  0
 17 15  2  0  0  0  0
M  END
>  <minimizedAffinity>
-3.24433589

$$$$
