
 OpenBabel03272505033D

 27 29  0  0  0  0  0  0  0  0999 V2000
   37.3730   31.1600   46.7380 Cl  0  0  0  0  0  0  0  0  0  0  0  0
   38.2070   32.2730   47.8070 C   0  0  0  0  0  0  0  0  0  0  0  0
   38.0100   32.1570   49.1580 C   0  0  0  0  0  0  0  0  0  0  0  0
   38.6950   33.0670   49.9460 C   0  0  0  0  0  0  0  0  0  0  0  0
   39.5210   34.0210   49.3540 C   0  0  0  0  0  0  0  0  0  0  0  0
   39.6820   34.0910   47.9910 C   0  0  0  0  0  0  0  0  0  0  0  0
   39.0010   33.1870   47.1950 C   0  0  0  0  0  0  0  0  0  0  0  0
   38.6150   33.0700   51.0220 H   0  0  0  0  0  0  0  0  0  0  0  0
   40.0440   34.7210   49.9950 H   0  0  0  0  0  0  0  0  0  0  0  0
   40.3360   34.8520   47.5690 H   0  0  0  0  0  0  0  0  0  0  0  0
   37.6380   30.2560   50.7360 C   0  0  0  0  0  0  0  0  0  0  0  0
   37.1490   31.1610   49.7780 C   0  0  0  0  0  0  0  0  0  0  0  0
   35.8120   31.0640   49.4480 C   0  0  0  0  0  0  0  0  0  0  0  0
   35.0570   30.1190   50.0560 N   0  0  0  0  0  0  0  0  0  0  0  0
   35.5550   29.2670   50.9710 C   0  0  0  0  0  0  0  0  0  0  0  0
   36.8470   29.3390   51.3090 N   0  0  0  0  0  0  0  0  0  0  0  0
   38.6850   30.3040   51.0200 H   0  0  0  0  0  0  0  0  0  0  0  0
   35.4200   31.7540   48.7100 H   0  0  0  0  0  0  0  0  0  0  0  0
   34.8910   28.5490   51.4050 H   0  0  0  0  0  0  0  0  0  0  0  0
   39.1810   33.2790   45.8310 O   0  0  0  0  0  0  0  0  0  0  0  0
   39.8790   32.2200   45.2170 C   0  0  0  0  0  0  0  0  0  0  0  0
   39.4510   32.0630   43.9200 C   0  0  0  0  0  0  0  0  0  0  0  0
   38.7670   32.4700   43.2100 H   0  0  0  0  0  0  0  0  0  0  0  0
   40.4990   30.6350   43.3340 S   0  0  0  0  0  0  0  0  0  0  0  0
   41.3440   30.5410   45.0570 C   0  0  0  0  0  0  0  0  0  0  0  0
   42.1520   29.9740   45.7150 H   0  0  0  0  0  0  0  0  0  0  0  0
   40.8180   31.3740   45.5920 N   0  0  0  0  0  0  0  0  0  0  0  0
  1  2  1  0  0  0  0
  2  3  1  0  0  0  0
  3 12  1  0  0  0  0
  3  4  2  0  0  0  0
  4  8  1  0  0  0  0
  5  4  1  0  0  0  0
  5  9  1  0  0  0  0
  6  5  2  0  0  0  0
  7  2  2  0  0  0  0
  7  6  1  0  0  0  0
 10  6  1  0  0  0  0
 11 17  1  0  0  0  0
 11 16  1  0  0  0  0
 12 11  2  0  0  0  0
 13 12  1  0  0  0  0
 13 14  2  0  0  0  0
 14 15  1  0  0  0  0
 15 16  2  0  0  0  0
 15 19  1  0  0  0  0
 18 13  1  0  0  0  0
 20  7  1  0  0  0  0
 21 27  1  0  0  0  0
 21 20  1  0  0  0  0
 22 21  2  0  0  0  0
 23 22  1  0  0  0  0
 24 22  1  0  0  0  0
 24 25  1  0  0  0  0
 25 27  2  0  0  0  0
 25 26  1  0  0  0  0
M  END
>  <minimizedAffinity>
-4.68466377

>  <minimizedRMSD>
1.09380412

$$$$
