
 OpenBabel03272509353D

 45 49  0  0  1  0  0  0  0  0999 V2000
   35.7700   30.0490   43.9510 C   0  0  1  0  0  0  0  0  0  0  0  0
   36.4280   31.2300   44.5710 C   0  0  0  0  0  0  0  0  0  0  0  0
   37.2920   30.0780   44.4270 C   0  0  2  0  0  0  0  0  0  0  0  0
   35.7200   29.8450   42.8920 H   0  0  0  0  0  0  0  0  0  0  0  0
   36.2710   32.0980   43.9340 H   0  0  0  0  0  0  0  0  0  0  0  0
   36.0200   31.4780   45.6210 H   0  0  0  0  0  0  0  0  0  0  0  0
   37.4320   29.2380   45.0970 H   0  0  0  0  0  0  0  0  0  0  0  0
   38.3190   30.2930   43.3520 C   0  0  0  0  0  0  0  0  0  0  0  0
   38.5590   31.6680   43.1920 C   0  0  0  0  0  0  0  0  0  0  0  0
   39.5410   32.0960   42.3350 C   0  0  0  0  0  0  0  0  0  0  0  0
   40.3220   31.1880   41.6060 C   0  0  0  0  0  0  0  0  0  0  0  0
   40.0550   29.8380   41.7910 C   0  0  0  0  0  0  0  0  0  0  0  0
   40.7330   28.8480   41.1340 C   0  0  0  0  0  0  0  0  0  0  0  0
   40.4730   27.5100   41.2980 C   0  0  0  0  0  0  0  0  0  0  0  0
   39.4760   27.1330   42.1710 C   0  0  0  0  0  0  0  0  0  0  0  0
   38.7860   28.1240   42.8380 C   0  0  0  0  0  0  0  0  0  0  0  0
   39.0800   29.4590   42.6420 C   0  0  0  0  0  0  0  0  0  0  0  0
   38.1690   32.5800   43.5950 H   0  0  0  0  0  0  0  0  0  0  0  0
   39.8650   33.0930   42.0860 H   0  0  0  0  0  0  0  0  0  0  0  0
   41.1210   31.3920   40.9030 H   0  0  0  0  0  0  0  0  0  0  0  0
   41.5280   29.0980   40.4360 H   0  0  0  0  0  0  0  0  0  0  0  0
   41.0380   26.7570   40.7550 H   0  0  0  0  0  0  0  0  0  0  0  0
   39.2180   26.1020   42.3490 H   0  0  0  0  0  0  0  0  0  0  0  0
   37.9900   27.8020   43.5340 H   0  0  0  0  0  0  0  0  0  0  0  0
   33.4090   27.3770   45.1810 C   0  0  0  0  0  0  0  0  0  0  0  0
   34.2160   28.1680   44.3040 C   0  0  0  0  0  0  0  0  0  0  0  0
   34.9330   29.2000   44.8360 C   0  0  0  0  0  0  0  0  0  0  0  0
   34.8170   29.3940   46.1970 N   0  0  0  0  0  0  0  0  0  0  0  0
   34.0600   28.6440   47.0030 C   0  0  0  0  0  0  0  0  0  0  0  0
   33.3440   27.6240   46.5080 N   0  0  0  0  0  0  0  0  0  0  0  0
   32.8740   26.5810   44.6830 H   0  0  0  0  0  0  0  0  0  0  0  0
   34.2650   27.9700   43.2590 H   0  0  0  0  0  0  0  0  0  0  0  0
   34.0470   28.9820   48.4680 C   0  0  0  0  0  0  0  0  0  0  0  0
   33.0530   28.8950   48.9000 H   0  0  0  0  0  0  0  0  0  0  0  0
   34.7910   28.3010   48.9600 H   0  0  0  0  0  0  0  0  0  0  0  0
   34.6010   30.4100   48.6050 C   0  0  0  0  0  0  0  0  0  0  0  0
   33.8430   30.9810   49.2190 H   0  0  0  0  0  0  0  0  0  0  0  0
   34.6120   30.9100   47.6390 H   0  0  0  0  0  0  0  0  0  0  0  0
   35.9130   30.3930   49.3170 C   0  0  0  0  0  0  0  0  0  0  0  0
   36.8030   31.5390   49.3200 C   0  0  0  0  0  0  0  0  0  0  0  0
   36.5490   32.4390   48.8120 H   0  0  0  0  0  0  0  0  0  0  0  0
   38.1730   30.9050   50.3180 S   0  0  0  0  0  0  0  0  0  0  0  0
   37.3330   29.2030   50.5710 C   0  0  0  0  0  0  0  0  0  0  0  0
   37.7510   28.3620   51.1440 H   0  0  0  0  0  0  0  0  0  0  0  0
   36.2230   29.2780   49.9440 N   0  0  0  0  0  0  0  0  0  0  0  0
  1  4  1  6  0  0  0
  1  3  1  0  0  0  0
  1  2  1  0  0  0  0
  1 27  1  0  0  0  0
  2  6  1  0  0  0  0
  3  2  1  0  0  0  0
  3  7  1  1  0  0  0
  5  2  1  0  0  0  0
  8  3  1  0  0  0  0
  9  8  1  0  0  0  0
  9 18  1  0  0  0  0
 10  9  2  0  0  0  0
 11 12  2  0  0  0  0
 11 10  1  0  0  0  0
 12 17  1  0  0  0  0
 13 14  2  0  0  0  0
 13 12  1  0  0  0  0
 14 15  1  0  0  0  0
 15 23  1  0  0  0  0
 15 16  2  0  0  0  0
 16 24  1  0  0  0  0
 17 16  1  0  0  0  0
 17  8  2  0  0  0  0
 19 10  1  0  0  0  0
 20 11  1  0  0  0  0
 21 13  1  0  0  0  0
 22 14  1  0  0  0  0
 25 30  1  0  0  0  0
 26 27  1  0  0  0  0
 26 25  2  0  0  0  0
 27 28  2  0  0  0  0
 28 29  1  0  0  0  0
 29 33  1  0  0  0  0
 30 29  2  0  0  0  0
 31 25  1  0  0  0  0
 32 26  1  0  0  0  0
 33 36  1  0  0  0  0
 33 34  1  0  0  0  0
 33 35  1  0  0  0  0
 36 37  1  0  0  0  0
 36 39  1  0  0  0  0
 38 36  1  0  0  0  0
 39 40  2  0  0  0  0
 39 45  1  0  0  0  0
 40 42  1  0  0  0  0
 41 40  1  0  0  0  0
 42 43  1  0  0  0  0
 43 44  1  0  0  0  0
 45 43  2  0  0  0  0
M  END
>  <minimizedAffinity>
-4.71509886

>  <minimizedRMSD>
3.63789201

$$$$
