
 OpenBabel03272507553D

 21 22  0  0  0  0  0  0  0  0999 V2000
   35.1220   29.2950   50.7730 C   0  0  0  0  0  0  0  0  0  0  0  0
   36.1360   29.9960   50.0760 C   0  0  0  0  0  0  0  0  0  0  0  0
   35.9540   30.2190   48.7140 C   0  0  0  0  0  0  0  0  0  0  0  0
   34.8190   29.7560   48.1150 N   0  0  0  0  0  0  0  0  0  0  0  0
   33.8680   29.0840   48.8260 C   0  0  0  0  0  0  0  0  0  0  0  0
   34.0130   28.8520   50.1500 N   0  0  0  0  0  0  0  0  0  0  0  0
   32.7740   28.6930   48.0110 N   0  0  0  0  0  0  0  0  0  0  0  0
   35.2050   29.0910   51.8350 H   0  0  0  0  0  0  0  0  0  0  0  0
   31.9270   29.2570   47.7360 H   0  0  0  0  0  0  0  0  0  0  0  0
   33.0830   27.7040   47.7900 H   0  0  0  0  0  0  0  0  0  0  0  0
   36.9810   30.9430   47.9590 C   0  0  0  0  0  0  0  0  0  0  0  0
   37.1980   30.5380   46.6470 C   0  0  0  0  0  0  0  0  0  0  0  0
   36.7460   29.7670   46.0410 H   0  0  0  0  0  0  0  0  0  0  0  0
   38.5280   31.6690   46.0740 S   0  0  0  0  0  0  0  0  0  0  0  0
   38.5500   32.5200   47.7880 C   0  0  0  0  0  0  0  0  0  0  0  0
   39.1540   33.3800   48.2450 H   0  0  0  0  0  0  0  0  0  0  0  0
   37.7520   31.9420   48.3400 N   0  0  0  0  0  0  0  0  0  0  0  0
   37.3370   30.4610   50.8170 C   0  0  0  0  0  0  0  0  0  0  0  0
   38.5070   30.1220   50.1460 F   0  0  0  0  0  0  0  0  0  0  0  0
   37.2760   31.8250   50.9260 F   0  0  0  0  0  0  0  0  0  0  0  0
   37.4180   29.9270   52.0870 F   0  0  0  0  0  0  0  0  0  0  0  0
  1  8  1  0  0  0  0
  2  1  2  0  0  0  0
  2 18  1  0  0  0  0
  3  2  1  0  0  0  0
  4  3  2  0  0  0  0
  4  5  1  0  0  0  0
  5  6  2  0  0  0  0
  6  1  1  0  0  0  0
  7  5  1  0  0  0  0
  9  7  1  0  0  0  0
 10  7  1  0  0  0  0
 11 17  1  0  0  0  0
 11  3  1  0  0  0  0
 12 11  2  0  0  0  0
 13 12  1  0  0  0  0
 14 12  1  0  0  0  0
 14 15  1  0  0  0  0
 15 16  1  0  0  0  0
 15 17  2  0  0  0  0
 18 20  1  0  0  0  0
 18 21  1  0  0  0  0
 19 18  1  0  0  0  0
M  END
>  <minimizedAffinity>
-5.23008299

>  <minimizedRMSD>
1.06243968

$$$$
