
 OpenBabel03262521463D

 28 29  0  0  0  0  0  0  0  0999 V2000
   36.9640   29.2530   50.6280 C   0  0  0  0  0  0  0  0  0  0  0  0
   37.4880   28.3390   50.9800 H   0  0  0  0  0  0  0  0  0  0  0  0
   36.7700   29.1030   49.5330 H   0  0  0  0  0  0  0  0  0  0  0  0
   37.7420   30.5100   50.8300 C   0  0  0  0  0  0  0  0  0  0  0  0
   37.2570   31.1910   51.5680 H   0  0  0  0  0  0  0  0  0  0  0  0
   38.7070   30.2060   51.3320 H   0  0  0  0  0  0  0  0  0  0  0  0
   38.1170   31.2020   49.6090 C   0  0  0  0  0  0  0  0  0  0  0  0
   38.5380   32.5160   49.5920 C   0  0  0  0  0  0  0  0  0  0  0  0
   38.8800   33.1000   48.3620 C   0  0  0  0  0  0  0  0  0  0  0  0
   38.7720   32.3190   47.2370 N   0  0  0  0  0  0  0  0  0  0  0  0
   38.3530   31.0300   47.2920 C   0  0  0  0  0  0  0  0  0  0  0  0
   38.0280   30.4880   48.4990 N   0  0  0  0  0  0  0  0  0  0  0  0
   38.6080   33.0930   50.5030 H   0  0  0  0  0  0  0  0  0  0  0  0
   39.2160   34.1270   48.2900 H   0  0  0  0  0  0  0  0  0  0  0  0
   38.2900   30.4650   46.3630 H   0  0  0  0  0  0  0  0  0  0  0  0
   35.7190   29.4080   51.2470 O   0  0  0  0  0  0  0  0  0  0  0  0
   34.6980   30.5430   49.1410 O   0  0  0  0  0  0  0  0  0  0  0  0
   34.4670   29.3850   50.1240 P   0  0  2  0  0  0  0  0  0  0  0  0
   32.9850   29.6940   50.8410 O   0  0  0  0  0  0  0  0  0  0  0  0
   32.8270   29.2340   51.6860 H   0  0  0  0  0  0  0  0  0  0  0  0
   34.3880   27.9210   49.3180 O   0  0  0  0  0  0  0  0  0  0  0  0
   33.4550   27.7610   48.2720 C   0  0  0  0  0  0  0  0  0  0  0  0
   33.7740   27.5630   46.8880 C   0  0  0  0  0  0  0  0  0  0  0  0
   34.7420   27.5310   46.5980 H   0  0  0  0  0  0  0  0  0  0  0  0
   32.1230   27.4440   46.1780 S   0  0  0  0  0  0  0  0  0  0  0  0
   31.2620   27.6830   47.8760 C   0  0  0  0  0  0  0  0  0  0  0  0
   30.1500   27.6960   48.0450 H   0  0  0  0  0  0  0  0  0  0  0  0
   32.2500   27.8260   48.8070 N   0  0  0  0  0  0  0  0  0  0  0  0
  1  4  1  0  0  0  0
  1  2  1  0  0  0  0
  1 16  1  0  0  0  0
  3  1  1  0  0  0  0
  4  6  1  0  0  0  0
  4  5  1  0  0  0  0
  7  4  1  0  0  0  0
  8  7  1  0  0  0  0
  8 13  1  0  0  0  0
  9  8  2  0  0  0  0
 10 11  2  0  0  0  0
 10  9  1  0  0  0  0
 11 12  1  0  0  0  0
 12  7  2  0  0  0  0
 14  9  1  0  0  0  0
 15 11  1  0  0  0  0
 18 17  2  6  0  0  0
 18 19  1  0  0  0  0
 18 16  1  0  0  0  0
 19 20  1  0  0  0  0
 21 18  1  0  0  0  0
 22 28  1  0  0  0  0
 22 21  1  0  0  0  0
 23 22  2  0  0  0  0
 24 23  1  0  0  0  0
 25 23  1  0  0  0  0
 25 26  1  0  0  0  0
 26 27  1  0  0  0  0
 26 28  2  0  0  0  0
M  END
>  <minimizedAffinity>
-5.0593853

>  <minimizedRMSD>
0.615903497

$$$$
