
 OpenBabel03262521263D

 45 48  0  0  0  0  0  0  0  0999 V2000
   37.4330   27.7490   33.1880 C   0  0  0  0  0  0  0  0  0  0  0  0
   38.2950   28.4000   33.4470 H   0  0  0  0  0  0  0  0  0  0  0  0
   37.7880   27.1080   32.3480 H   0  0  0  0  0  0  0  0  0  0  0  0
   37.0100   26.8530   34.3330 C   0  0  0  0  0  0  0  0  0  0  0  0
   36.7560   25.8700   33.8320 H   0  0  0  0  0  0  0  0  0  0  0  0
   36.0160   27.2260   34.6650 H   0  0  0  0  0  0  0  0  0  0  0  0
   37.9480   26.7080   35.3080 C   0  0  0  0  0  0  0  0  0  0  0  0
   38.9810   26.4940   34.9620 H   0  0  0  0  0  0  0  0  0  0  0  0
   38.0230   27.5730   36.0190 H   0  0  0  0  0  0  0  0  0  0  0  0
   37.4070   25.6190   35.9330 O   0  0  0  0  0  0  0  0  0  0  0  0
   38.2540   24.6590   36.4390 C   0  0  0  0  0  0  0  0  0  0  0  0
   37.9830   24.3550   37.7510 C   0  0  0  0  0  0  0  0  0  0  0  0
   38.7690   23.3890   38.3990 C   0  0  0  0  0  0  0  0  0  0  0  0
   39.7650   22.8100   37.6650 N   0  0  0  0  0  0  0  0  0  0  0  0
   40.0090   23.1320   36.3680 C   0  0  0  0  0  0  0  0  0  0  0  0
   39.2380   24.0620   35.7740 N   0  0  0  0  0  0  0  0  0  0  0  0
   41.7930   21.5430   36.5220 C   0  0  0  0  0  0  0  0  0  0  0  0
   41.5580   21.2910   37.7320 O   0  0  0  0  0  0  0  0  0  0  0  0
   41.0750   22.4630   35.7070 N   0  0  0  0  0  0  0  0  0  0  0  0
   37.2320   24.7400   38.4320 H   0  0  0  0  0  0  0  0  0  0  0  0
   38.6530   23.0740   39.4050 H   0  0  0  0  0  0  0  0  0  0  0  0
   42.6210   21.0050   36.0590 H   0  0  0  0  0  0  0  0  0  0  0  0
   41.2480   22.6800   34.7250 H   0  0  0  0  0  0  0  0  0  0  0  0
   36.1290   28.7930   32.5500 S   0  0  0  0  0  0  0  0  0  0  0  0
   33.8010   29.4160   34.0510 C   0  0  0  0  0  0  0  0  0  0  0  0
   35.1570   29.5820   33.7850 C   0  0  0  0  0  0  0  0  0  0  0  0
   35.8150   30.4910   34.6080 C   0  0  0  0  0  0  0  0  0  0  0  0
   35.2070   31.1880   35.6130 C   0  0  0  0  0  0  0  0  0  0  0  0
   35.5850   32.0800   36.5100 N   0  0  0  0  0  0  0  0  0  0  0  0
   34.5560   32.4740   37.3100 C   0  0  0  0  0  0  0  0  0  0  0  0
   33.4490   31.7610   36.8630 C   0  0  0  0  0  0  0  0  0  0  0  0
   33.8730   30.9750   35.8170 C   0  0  0  0  0  0  0  0  0  0  0  0
   33.1590   30.0990   35.0510 C   0  0  0  0  0  0  0  0  0  0  0  0
   33.3180   28.7070   33.3990 H   0  0  0  0  0  0  0  0  0  0  0  0
   36.8750   30.6940   34.4840 H   0  0  0  0  0  0  0  0  0  0  0  0
   36.5830   32.4250   36.5700 H   0  0  0  0  0  0  0  0  0  0  0  0
   34.6530   33.2080   38.1200 H   0  0  0  0  0  0  0  0  0  0  0  0
   32.5240   31.9220   37.3590 H   0  0  0  0  0  0  0  0  0  0  0  0
   31.7340   29.8900   35.2900 C   0  0  0  0  0  0  0  0  0  0  0  0
   30.7210   30.5930   34.5920 C   0  0  0  0  0  0  0  0  0  0  0  0
   30.9130   31.3850   33.7780 H   0  0  0  0  0  0  0  0  0  0  0  0
   29.1380   29.8810   35.3480 S   0  0  0  0  0  0  0  0  0  0  0  0
   30.1900   28.7660   36.4680 C   0  0  0  0  0  0  0  0  0  0  0  0
   30.4540   27.8870   37.3600 H   0  0  0  0  0  0  0  0  0  0  0  0
   31.2260   29.0470   36.1620 N   0  0  0  0  0  0  0  0  0  0  0  0
  1  2  1  0  0  0  0
  1  4  1  0  0  0  0
  3  1  1  0  0  0  0
  4  6  1  0  0  0  0
  4  7  1  0  0  0  0
  5  4  1  0  0  0  0
  7 10  1  0  0  0  0
  7  9  1  0  0  0  0
  8  7  1  0  0  0  0
 10 11  1  0  0  0  0
 11 12  1  0  0  0  0
 12 13  2  0  0  0  0
 12 20  1  0  0  0  0
 13 21  1  0  0  0  0
 14 13  1  0  0  0  0
 15 14  2  0  0  0  0
 16 15  1  0  0  0  0
 16 11  2  0  0  0  0
 17 18  2  0  0  0  0
 19 15  1  0  0  0  0
 19 17  1  0  0  0  0
 22 17  1  0  0  0  0
 23 19  1  0  0  0  0
 24  1  1  0  0  0  0
 24 26  1  0  0  0  0
 25 33  1  0  0  0  0
 26 25  2  0  0  0  0
 26 27  1  0  0  0  0
 27 28  2  0  0  0  0
 28 32  1  0  0  0  0
 28 29  1  0  0  0  0
 29 36  1  0  0  0  0
 29 30  1  0  0  0  0
 30 37  1  0  0  0  0
 31 30  2  0  0  0  0
 31 38  1  0  0  0  0
 32 31  1  0  0  0  0
 33 39  1  0  0  0  0
 33 32  2  0  0  0  0
 34 25  1  0  0  0  0
 35 27  1  0  0  0  0
 39 45  1  0  0  0  0
 40 39  2  0  0  0  0
 40 42  1  0  0  0  0
 41 40  1  0  0  0  0
 42 43  1  0  0  0  0
 43 44  1  0  0  0  0
 45 43  2  0  0  0  0
M  END
>  <minimizedAffinity>
-5.84703302

$$$$

 OpenBabel03262521263D

 45 48  0  0  0  0  0  0  0  0999 V2000
   35.7530   27.6600   31.7690 C   0  0  0  0  0  0  0  0  0  0  0  0
   34.9330   27.6110   31.0210 H   0  0  0  0  0  0  0  0  0  0  0  0
   35.3580   27.1460   32.6760 H   0  0  0  0  0  0  0  0  0  0  0  0
   37.0050   26.9390   31.3130 C   0  0  0  0  0  0  0  0  0  0  0  0
   37.1150   27.2410   30.2280 H   0  0  0  0  0  0  0  0  0  0  0  0
   36.7320   25.8620   31.2450 H   0  0  0  0  0  0  0  0  0  0  0  0
   38.1150   27.2270   32.0450 C   0  0  0  0  0  0  0  0  0  0  0  0
   39.0090   27.5460   31.4690 H   0  0  0  0  0  0  0  0  0  0  0  0
   37.9610   27.9960   32.8480 H   0  0  0  0  0  0  0  0  0  0  0  0
   38.3070   25.9910   32.5960 O   0  0  0  0  0  0  0  0  0  0  0  0
   38.2580   25.8630   33.9670 C   0  0  0  0  0  0  0  0  0  0  0  0
   38.4560   27.0580   34.6150 C   0  0  0  0  0  0  0  0  0  0  0  0
   38.4320   27.0780   36.0190 C   0  0  0  0  0  0  0  0  0  0  0  0
   38.2100   25.8870   36.6500 N   0  0  0  0  0  0  0  0  0  0  0  0
   38.0170   24.7220   35.9800 C   0  0  0  0  0  0  0  0  0  0  0  0
   38.0460   24.7330   34.6340 N   0  0  0  0  0  0  0  0  0  0  0  0
   37.8420   23.7360   38.1550 C   0  0  0  0  0  0  0  0  0  0  0  0
   38.0540   24.8290   38.7440 O   0  0  0  0  0  0  0  0  0  0  0  0
   37.7960   23.5440   36.7460 N   0  0  0  0  0  0  0  0  0  0  0  0
   38.6400   28.0560   34.2330 H   0  0  0  0  0  0  0  0  0  0  0  0
   38.5720   27.9370   36.6250 H   0  0  0  0  0  0  0  0  0  0  0  0
   37.6790   22.8620   38.7860 H   0  0  0  0  0  0  0  0  0  0  0  0
   37.6250   22.6690   36.2490 H   0  0  0  0  0  0  0  0  0  0  0  0
   36.0070   29.3770   32.1950 S   0  0  0  0  0  0  0  0  0  0  0  0
   33.8810   29.4380   34.0770 C   0  0  0  0  0  0  0  0  0  0  0  0
   35.0950   29.9230   33.5960 C   0  0  0  0  0  0  0  0  0  0  0  0
   35.6450   30.9710   34.3270 C   0  0  0  0  0  0  0  0  0  0  0  0
   35.0650   31.5120   35.4390 C   0  0  0  0  0  0  0  0  0  0  0  0
   35.3630   32.4780   36.2870 N   0  0  0  0  0  0  0  0  0  0  0  0
   34.4190   32.6220   37.2570 C   0  0  0  0  0  0  0  0  0  0  0  0
   33.4550   31.6590   36.9770 C   0  0  0  0  0  0  0  0  0  0  0  0
   33.8730   30.9870   35.8530 C   0  0  0  0  0  0  0  0  0  0  0  0
   33.2710   29.9580   35.1880 C   0  0  0  0  0  0  0  0  0  0  0  0
   33.4790   28.6270   33.4920 H   0  0  0  0  0  0  0  0  0  0  0  0
   36.5900   31.4210   34.0360 H   0  0  0  0  0  0  0  0  0  0  0  0
   36.2470   33.0530   36.1930 H   0  0  0  0  0  0  0  0  0  0  0  0
   34.4730   33.3670   38.0620 H   0  0  0  0  0  0  0  0  0  0  0  0
   32.6150   31.5990   37.6240 H   0  0  0  0  0  0  0  0  0  0  0  0
   31.9980   29.4150   35.6530 C   0  0  0  0  0  0  0  0  0  0  0  0
   30.7430   29.9570   35.2770 C   0  0  0  0  0  0  0  0  0  0  0  0
   30.6020   30.8630   34.5790 H   0  0  0  0  0  0  0  0  0  0  0  0
   29.5250   28.8320   36.1910 S   0  0  0  0  0  0  0  0  0  0  0  0
   30.9870   27.8500   36.9020 C   0  0  0  0  0  0  0  0  0  0  0  0
   31.5990   26.9510   37.5770 H   0  0  0  0  0  0  0  0  0  0  0  0
   31.8590   28.3840   36.4570 N   0  0  0  0  0  0  0  0  0  0  0  0
  1 24  1  0  0  0  0
  1  3  1  0  0  0  0
  2  1  1  0  0  0  0
  4  1  1  0  0  0  0
  4  7  1  0  0  0  0
  5  4  1  0  0  0  0
  6  4  1  0  0  0  0
  7 10  1  0  0  0  0
  7  9  1  0  0  0  0
  8  7  1  0  0  0  0
 10 11  1  0  0  0  0
 11 12  2  0  0  0  0
 11 16  1  0  0  0  0
 12 13  1  0  0  0  0
 13 21  1  0  0  0  0
 13 14  2  0  0  0  0
 15 14  1  0  0  0  0
 15 19  1  0  0  0  0
 16 15  2  0  0  0  0
 17 18  2  0  0  0  0
 17 22  1  0  0  0  0
 19 17  1  0  0  0  0
 20 12  1  0  0  0  0
 23 19  1  0  0  0  0
 24 26  1  0  0  0  0
 25 33  1  0  0  0  0
 26 25  2  0  0  0  0
 26 27  1  0  0  0  0
 27 28  2  0  0  0  0
 28 32  1  0  0  0  0
 28 29  1  0  0  0  0
 29 30  1  0  0  0  0
 30 37  1  0  0  0  0
 31 30  2  0  0  0  0
 31 38  1  0  0  0  0
 32 31  1  0  0  0  0
 33 39  1  0  0  0  0
 33 32  2  0  0  0  0
 34 25  1  0  0  0  0
 35 27  1  0  0  0  0
 36 29  1  0  0  0  0
 39 45  1  0  0  0  0
 40 39  2  0  0  0  0
 40 42  1  0  0  0  0
 41 40  1  0  0  0  0
 42 43  1  0  0  0  0
 43 44  1  0  0  0  0
 45 43  2  0  0  0  0
M  END
>  <minimizedAffinity>
-5.81810856

$$$$

 OpenBabel03262521263D

 45 48  0  0  0  0  0  0  0  0999 V2000
   36.7650   24.7180   31.3180 C   0  0  0  0  0  0  0  0  0  0  0  0
   37.7020   24.5290   30.7540 H   0  0  0  0  0  0  0  0  0  0  0  0
   36.1370   25.3480   30.6450 H   0  0  0  0  0  0  0  0  0  0  0  0
   36.0060   23.4480   31.6380 C   0  0  0  0  0  0  0  0  0  0  0  0
   35.1650   23.4340   30.8810 H   0  0  0  0  0  0  0  0  0  0  0  0
   35.4740   23.6400   32.5960 H   0  0  0  0  0  0  0  0  0  0  0  0
   36.7610   22.3170   31.5920 C   0  0  0  0  0  0  0  0  0  0  0  0
   36.3990   21.5160   30.9140 H   0  0  0  0  0  0  0  0  0  0  0  0
   37.8420   22.4840   31.3400 H   0  0  0  0  0  0  0  0  0  0  0  0
   36.6270   21.9450   32.9010 O   0  0  0  0  0  0  0  0  0  0  0  0
   37.7200   22.0460   33.7320 C   0  0  0  0  0  0  0  0  0  0  0  0
   38.9080   21.8680   33.0670 C   0  0  0  0  0  0  0  0  0  0  0  0
   40.1080   21.9450   33.7920 C   0  0  0  0  0  0  0  0  0  0  0  0
   40.0060   22.1970   35.1300 N   0  0  0  0  0  0  0  0  0  0  0  0
   38.8160   22.3690   35.7600 C   0  0  0  0  0  0  0  0  0  0  0  0
   37.6820   22.2890   35.0390 N   0  0  0  0  0  0  0  0  0  0  0  0
   40.1330   22.6310   37.7420 C   0  0  0  0  0  0  0  0  0  0  0  0
   41.2170   22.4370   37.1320 O   0  0  0  0  0  0  0  0  0  0  0  0
   38.8350   22.6250   37.1590 N   0  0  0  0  0  0  0  0  0  0  0  0
   39.1180   21.6650   32.0220 H   0  0  0  0  0  0  0  0  0  0  0  0
   41.0810   21.8250   33.3860 H   0  0  0  0  0  0  0  0  0  0  0  0
   40.2000   22.8220   38.8130 H   0  0  0  0  0  0  0  0  0  0  0  0
   37.9450   22.7800   37.6350 H   0  0  0  0  0  0  0  0  0  0  0  0
   37.1750   25.7100   32.7480 S   0  0  0  0  0  0  0  0  0  0  0  0
   36.1160   28.1860   33.6500 C   0  0  0  0  0  0  0  0  0  0  0  0
   36.6550   27.3870   32.6450 C   0  0  0  0  0  0  0  0  0  0  0  0
   36.7940   28.0070   31.4080 C   0  0  0  0  0  0  0  0  0  0  0  0
   36.4380   29.3030   31.1590 C   0  0  0  0  0  0  0  0  0  0  0  0
   36.4640   30.1070   30.1140 N   0  0  0  0  0  0  0  0  0  0  0  0
   35.9780   31.3460   30.4040 C   0  0  0  0  0  0  0  0  0  0  0  0
   35.6230   31.2940   31.7490 C   0  0  0  0  0  0  0  0  0  0  0  0
   35.9160   30.0270   32.1930 C   0  0  0  0  0  0  0  0  0  0  0  0
   35.7480   29.4880   33.4370 C   0  0  0  0  0  0  0  0  0  0  0  0
   36.0200   27.6790   34.5970 H   0  0  0  0  0  0  0  0  0  0  0  0
   37.2050   27.4730   30.5560 H   0  0  0  0  0  0  0  0  0  0  0  0
   36.8280   29.7910   29.1720 H   0  0  0  0  0  0  0  0  0  0  0  0
   35.9100   32.1660   29.6780 H   0  0  0  0  0  0  0  0  0  0  0  0
   35.2150   32.1720   32.1850 H   0  0  0  0  0  0  0  0  0  0  0  0
   35.1870   30.2840   34.5240 C   0  0  0  0  0  0  0  0  0  0  0  0
   33.7970   30.3550   34.7930 C   0  0  0  0  0  0  0  0  0  0  0  0
   32.9830   29.8020   34.1940 H   0  0  0  0  0  0  0  0  0  0  0  0
   33.7320   31.5190   36.2850 S   0  0  0  0  0  0  0  0  0  0  0  0
   35.6240   31.6710   36.2330 C   0  0  0  0  0  0  0  0  0  0  0  0
   36.7950   32.0570   36.5730 H   0  0  0  0  0  0  0  0  0  0  0  0
   35.8820   31.0160   35.3660 N   0  0  0  0  0  0  0  0  0  0  0  0
  1  4  1  0  0  0  0
  1 24  1  0  0  0  0
  2  1  1  0  0  0  0
  3  1  1  0  0  0  0
  4  6  1  0  0  0  0
  5  4  1  0  0  0  0
  7  4  1  0  0  0  0
  7 10  1  0  0  0  0
  8  7  1  0  0  0  0
  9  7  1  0  0  0  0
 10 11  1  0  0  0  0
 11 16  1  0  0  0  0
 12 11  2  0  0  0  0
 12 13  1  0  0  0  0
 13 14  2  0  0  0  0
 14 15  1  0  0  0  0
 15 19  1  0  0  0  0
 16 15  2  0  0  0  0
 17 22  1  0  0  0  0
 18 17  2  0  0  0  0
 19 23  1  0  0  0  0
 19 17  1  0  0  0  0
 20 12  1  0  0  0  0
 21 13  1  0  0  0  0
 25 34  1  0  0  0  0
 26 24  1  0  0  0  0
 26 25  2  0  0  0  0
 27 26  1  0  0  0  0
 28 27  2  0  0  0  0
 28 32  1  0  0  0  0
 29 30  1  0  0  0  0
 29 28  1  0  0  0  0
 30 31  2  0  0  0  0
 31 38  1  0  0  0  0
 31 32  1  0  0  0  0
 32 33  2  0  0  0  0
 33 25  1  0  0  0  0
 33 39  1  0  0  0  0
 35 27  1  0  0  0  0
 36 29  1  0  0  0  0
 37 30  1  0  0  0  0
 39 40  2  0  0  0  0
 39 45  1  0  0  0  0
 40 42  1  0  0  0  0
 41 40  1  0  0  0  0
 43 42  1  0  0  0  0
 43 44  1  0  0  0  0
 45 43  2  0  0  0  0
M  END
>  <minimizedAffinity>
-5.61509657

$$$$

 OpenBabel03262521263D

 45 48  0  0  0  0  0  0  0  0999 V2000
   38.2170   26.7770   36.1250 C   0  0  0  0  0  0  0  0  0  0  0  0
   39.2940   26.9960   36.2820 H   0  0  0  0  0  0  0  0  0  0  0  0
   37.6900   27.2510   36.9860 H   0  0  0  0  0  0  0  0  0  0  0  0
   37.6780   27.3730   34.8420 C   0  0  0  0  0  0  0  0  0  0  0  0
   37.6570   28.4860   35.0460 H   0  0  0  0  0  0  0  0  0  0  0  0
   36.5990   27.1060   34.8080 H   0  0  0  0  0  0  0  0  0  0  0  0
   38.4030   27.0650   33.7330 C   0  0  0  0  0  0  0  0  0  0  0  0
   39.2250   27.7670   33.4770 H   0  0  0  0  0  0  0  0  0  0  0  0
   38.8530   26.0370   33.7370 H   0  0  0  0  0  0  0  0  0  0  0  0
   37.3930   27.1420   32.8160 O   0  0  0  0  0  0  0  0  0  0  0  0
   36.8630   25.9730   32.3160 C   0  0  0  0  0  0  0  0  0  0  0  0
   35.7780   26.1920   31.5030 C   0  0  0  0  0  0  0  0  0  0  0  0
   35.1350   25.0880   30.9200 C   0  0  0  0  0  0  0  0  0  0  0  0
   35.6440   23.8540   31.2090 N   0  0  0  0  0  0  0  0  0  0  0  0
   36.7200   23.6700   32.0170 C   0  0  0  0  0  0  0  0  0  0  0  0
   37.3150   24.7470   32.5610 N   0  0  0  0  0  0  0  0  0  0  0  0
   36.3710   21.3370   31.6100 C   0  0  0  0  0  0  0  0  0  0  0  0
   35.3590   21.5420   30.8900 O   0  0  0  0  0  0  0  0  0  0  0  0
   37.1590   22.3370   32.2460 N   0  0  0  0  0  0  0  0  0  0  0  0
   35.2850   27.1100   31.2010 H   0  0  0  0  0  0  0  0  0  0  0  0
   34.2920   25.1350   30.2780 H   0  0  0  0  0  0  0  0  0  0  0  0
   36.6670   20.2970   31.7560 H   0  0  0  0  0  0  0  0  0  0  0  0
   37.9820   22.1920   32.8320 H   0  0  0  0  0  0  0  0  0  0  0  0
   37.9880   25.0100   36.2680 S   0  0  0  0  0  0  0  0  0  0  0  0
   40.5140   24.2220   35.2360 C   0  0  0  0  0  0  0  0  0  0  0  0
   39.4710   24.0710   36.1450 C   0  0  0  0  0  0  0  0  0  0  0  0
   39.6340   23.0420   37.0680 C   0  0  0  0  0  0  0  0  0  0  0  0
   40.7250   22.2210   37.1090 C   0  0  0  0  0  0  0  0  0  0  0  0
   41.1170   21.2040   37.8530 N   0  0  0  0  0  0  0  0  0  0  0  0
   42.3280   20.7190   37.4670 C   0  0  0  0  0  0  0  0  0  0  0  0
   42.7130   21.5090   36.3890 C   0  0  0  0  0  0  0  0  0  0  0  0
   41.7110   22.4270   36.1860 C   0  0  0  0  0  0  0  0  0  0  0  0
   41.6220   23.4160   35.2480 C   0  0  0  0  0  0  0  0  0  0  0  0
   40.3600   25.0260   34.5340 H   0  0  0  0  0  0  0  0  0  0  0  0
   38.8780   22.8400   37.8210 H   0  0  0  0  0  0  0  0  0  0  0  0
   40.5290   20.8360   38.6520 H   0  0  0  0  0  0  0  0  0  0  0  0
   42.8370   19.8750   37.9520 H   0  0  0  0  0  0  0  0  0  0  0  0
   43.6460   21.2960   35.9280 H   0  0  0  0  0  0  0  0  0  0  0  0
   42.6900   23.6150   34.2730 C   0  0  0  0  0  0  0  0  0  0  0  0
   42.6940   23.0040   32.9940 C   0  0  0  0  0  0  0  0  0  0  0  0
   41.8700   22.3030   32.6000 H   0  0  0  0  0  0  0  0  0  0  0  0
   44.3070   23.6500   32.2410 S   0  0  0  0  0  0  0  0  0  0  0  0
   44.6460   24.6240   33.8350 C   0  0  0  0  0  0  0  0  0  0  0  0
   45.2630   25.3970   34.6470 H   0  0  0  0  0  0  0  0  0  0  0  0
   43.7550   24.3650   34.4550 N   0  0  0  0  0  0  0  0  0  0  0  0
  1 24  1  0  0  0  0
  1  2  1  0  0  0  0
  1  3  1  0  0  0  0
  4  5  1  0  0  0  0
  4  1  1  0  0  0  0
  6  4  1  0  0  0  0
  7  9  1  0  0  0  0
  7  4  1  0  0  0  0
  8  7  1  0  0  0  0
 10  7  1  0  0  0  0
 11 16  1  0  0  0  0
 11 10  1  0  0  0  0
 12 11  2  0  0  0  0
 13 14  2  0  0  0  0
 13 12  1  0  0  0  0
 14 15  1  0  0  0  0
 15 19  1  0  0  0  0
 15 16  2  0  0  0  0
 17 22  1  0  0  0  0
 17 19  1  0  0  0  0
 18 17  2  0  0  0  0
 19 23  1  0  0  0  0
 20 12  1  0  0  0  0
 21 13  1  0  0  0  0
 25 33  2  0  0  0  0
 25 26  1  0  0  0  0
 26 24  1  0  0  0  0
 26 27  2  0  0  0  0
 27 28  1  0  0  0  0
 27 35  1  0  0  0  0
 28 29  1  0  0  0  0
 29 36  1  0  0  0  0
 30 29  1  0  0  0  0
 30 37  1  0  0  0  0
 31 30  2  0  0  0  0
 32 31  1  0  0  0  0
 32 28  2  0  0  0  0
 33 32  1  0  0  0  0
 34 25  1  0  0  0  0
 38 31  1  0  0  0  0
 39 45  1  0  0  0  0
 39 33  1  0  0  0  0
 40 39  2  0  0  0  0
 41 40  1  0  0  0  0
 42 40  1  0  0  0  0
 42 43  1  0  0  0  0
 43 45  2  0  0  0  0
 43 44  1  0  0  0  0
M  END
>  <minimizedAffinity>
-5.50636101

$$$$

 OpenBabel03262521263D

 45 48  0  0  0  0  0  0  0  0999 V2000
   35.6300   22.7710   31.3660 C   0  0  0  0  0  0  0  0  0  0  0  0
   34.6980   22.8180   30.7650 H   0  0  0  0  0  0  0  0  0  0  0  0
   35.3110   22.9380   32.4210 H   0  0  0  0  0  0  0  0  0  0  0  0
   36.3180   21.4250   31.2770 C   0  0  0  0  0  0  0  0  0  0  0  0
   35.9030   20.9680   30.3280 H   0  0  0  0  0  0  0  0  0  0  0  0
   35.8650   20.7950   32.0750 H   0  0  0  0  0  0  0  0  0  0  0  0
   37.6770   21.4890   31.2690 C   0  0  0  0  0  0  0  0  0  0  0  0
   38.1810   21.0340   30.3900 H   0  0  0  0  0  0  0  0  0  0  0  0
   38.0980   22.5230   31.3770 H   0  0  0  0  0  0  0  0  0  0  0  0
   37.9100   20.7560   32.3980 O   0  0  0  0  0  0  0  0  0  0  0  0
   38.2630   21.4150   33.5540 C   0  0  0  0  0  0  0  0  0  0  0  0
   39.5670   21.8450   33.5400 C   0  0  0  0  0  0  0  0  0  0  0  0
   40.0650   22.5360   34.6560 C   0  0  0  0  0  0  0  0  0  0  0  0
   39.2010   22.7340   35.6950 N   0  0  0  0  0  0  0  0  0  0  0  0
   37.9160   22.2970   35.6800 C   0  0  0  0  0  0  0  0  0  0  0  0
   37.4670   21.6370   34.5960 N   0  0  0  0  0  0  0  0  0  0  0  0
   37.7840   23.2360   37.8780 C   0  0  0  0  0  0  0  0  0  0  0  0
   38.9890   23.6010   37.8700 O   0  0  0  0  0  0  0  0  0  0  0  0
   37.1110   22.5610   36.8220 N   0  0  0  0  0  0  0  0  0  0  0  0
   40.3420   21.7510   32.7860 H   0  0  0  0  0  0  0  0  0  0  0  0
   41.0510   22.9140   34.7570 H   0  0  0  0  0  0  0  0  0  0  0  0
   37.2090   23.4610   38.7770 H   0  0  0  0  0  0  0  0  0  0  0  0
   36.1360   22.2570   36.8080 H   0  0  0  0  0  0  0  0  0  0  0  0
   36.6580   24.1550   30.8940 S   0  0  0  0  0  0  0  0  0  0  0  0
   36.3120   26.6620   32.1820 C   0  0  0  0  0  0  0  0  0  0  0  0
   36.8510   25.3790   32.1430 C   0  0  0  0  0  0  0  0  0  0  0  0
   37.6400   25.0340   33.2360 C   0  0  0  0  0  0  0  0  0  0  0  0
   37.8900   25.8680   34.2880 C   0  0  0  0  0  0  0  0  0  0  0  0
   38.5790   25.7930   35.4110 N   0  0  0  0  0  0  0  0  0  0  0  0
   38.5020   26.9400   36.1410 C   0  0  0  0  0  0  0  0  0  0  0  0
   37.6940   27.7940   35.3970 C   0  0  0  0  0  0  0  0  0  0  0  0
   37.3280   27.1130   34.2600 C   0  0  0  0  0  0  0  0  0  0  0  0
   36.5430   27.5240   33.2220 C   0  0  0  0  0  0  0  0  0  0  0  0
   35.7060   26.9010   31.3240 H   0  0  0  0  0  0  0  0  0  0  0  0
   38.1070   24.0560   33.3030 H   0  0  0  0  0  0  0  0  0  0  0  0
   39.1170   24.9230   35.6820 H   0  0  0  0  0  0  0  0  0  0  0  0
   39.0010   27.0900   37.1070 H   0  0  0  0  0  0  0  0  0  0  0  0
   37.5020   28.7610   35.7920 H   0  0  0  0  0  0  0  0  0  0  0  0
   35.9550   28.8600   33.2170 C   0  0  0  0  0  0  0  0  0  0  0  0
   36.2740   29.8420   32.2460 C   0  0  0  0  0  0  0  0  0  0  0  0
   37.0140   29.6900   31.3770 H   0  0  0  0  0  0  0  0  0  0  0  0
   35.2050   31.3090   32.7860 S   0  0  0  0  0  0  0  0  0  0  0  0
   34.5420   30.2750   34.2340 C   0  0  0  0  0  0  0  0  0  0  0  0
   33.8570   29.9940   35.2780 H   0  0  0  0  0  0  0  0  0  0  0  0
   35.0800   29.3090   34.0900 N   0  0  0  0  0  0  0  0  0  0  0  0
  1  3  1  0  0  0  0
  2  1  1  0  0  0  0
  4  1  1  0  0  0  0
  4  6  1  0  0  0  0
  5  4  1  0  0  0  0
  7  4  1  0  0  0  0
  7  9  1  0  0  0  0
  7 10  1  0  0  0  0
  8  7  1  0  0  0  0
 10 11  1  0  0  0  0
 11 16  1  0  0  0  0
 12 11  2  0  0  0  0
 12 13  1  0  0  0  0
 13 21  1  0  0  0  0
 13 14  2  0  0  0  0
 15 14  1  0  0  0  0
 15 19  1  0  0  0  0
 16 15  2  0  0  0  0
 17 22  1  0  0  0  0
 18 17  2  0  0  0  0
 19 17  1  0  0  0  0
 20 12  1  0  0  0  0
 23 19  1  0  0  0  0
 24  1  1  0  0  0  0
 24 26  1  0  0  0  0
 25 33  1  0  0  0  0
 26 25  2  0  0  0  0
 26 27  1  0  0  0  0
 27 35  1  0  0  0  0
 27 28  2  0  0  0  0
 28 29  1  0  0  0  0
 29 36  1  0  0  0  0
 29 30  1  0  0  0  0
 30 37  1  0  0  0  0
 31 38  1  0  0  0  0
 31 30  2  0  0  0  0
 32 28  1  0  0  0  0
 32 31  1  0  0  0  0
 33 32  2  0  0  0  0
 34 25  1  0  0  0  0
 39 33  1  0  0  0  0
 39 45  1  0  0  0  0
 40 42  1  0  0  0  0
 40 39  2  0  0  0  0
 41 40  1  0  0  0  0
 42 43  1  0  0  0  0
 43 44  1  0  0  0  0
 45 43  2  0  0  0  0
M  END
>  <minimizedAffinity>
-5.44585133

$$$$

 OpenBabel03262521263D

 45 48  0  0  0  0  0  0  0  0999 V2000
   35.7090   27.8410   31.9050 C   0  0  0  0  0  0  0  0  0  0  0  0
   35.3630   27.7450   30.8550 H   0  0  0  0  0  0  0  0  0  0  0  0
   34.8660   27.4650   32.5310 H   0  0  0  0  0  0  0  0  0  0  0  0
   36.9360   27.0040   32.1970 C   0  0  0  0  0  0  0  0  0  0  0  0
   37.7400   27.4590   31.5420 H   0  0  0  0  0  0  0  0  0  0  0  0
   36.7560   26.0160   31.7180 H   0  0  0  0  0  0  0  0  0  0  0  0
   37.2960   26.9730   33.5090 C   0  0  0  0  0  0  0  0  0  0  0  0
   38.2910   27.4010   33.7520 H   0  0  0  0  0  0  0  0  0  0  0  0
   36.5620   27.4570   34.2080 H   0  0  0  0  0  0  0  0  0  0  0  0
   37.2940   25.6170   33.6770 O   0  0  0  0  0  0  0  0  0  0  0  0
   38.3230   25.0360   34.3830 C   0  0  0  0  0  0  0  0  0  0  0  0
   39.5560   25.4990   33.9960 C   0  0  0  0  0  0  0  0  0  0  0  0
   40.7000   24.9940   34.6350 C   0  0  0  0  0  0  0  0  0  0  0  0
   40.5000   24.0600   35.6120 N   0  0  0  0  0  0  0  0  0  0  0  0
   39.2670   23.6210   35.9720 C   0  0  0  0  0  0  0  0  0  0  0  0
   38.1890   24.1250   35.3420 N   0  0  0  0  0  0  0  0  0  0  0  0
   40.4410   22.2140   37.5120 C   0  0  0  0  0  0  0  0  0  0  0  0
   41.5700   22.6210   37.1330 O   0  0  0  0  0  0  0  0  0  0  0  0
   39.1840   22.6450   37.0030 N   0  0  0  0  0  0  0  0  0  0  0  0
   39.8420   26.2280   33.2450 H   0  0  0  0  0  0  0  0  0  0  0  0
   41.7000   25.2760   34.4210 H   0  0  0  0  0  0  0  0  0  0  0  0
   40.4300   21.4650   38.3050 H   0  0  0  0  0  0  0  0  0  0  0  0
   38.2590   22.3290   37.2970 H   0  0  0  0  0  0  0  0  0  0  0  0
   35.9040   29.5820   32.2630 S   0  0  0  0  0  0  0  0  0  0  0  0
   33.7670   29.7200   34.1280 C   0  0  0  0  0  0  0  0  0  0  0  0
   35.0140   30.1410   33.6730 C   0  0  0  0  0  0  0  0  0  0  0  0
   35.6210   31.1290   34.4410 C   0  0  0  0  0  0  0  0  0  0  0  0
   35.0660   31.6710   35.5640 C   0  0  0  0  0  0  0  0  0  0  0  0
   35.4160   32.5890   36.4460 N   0  0  0  0  0  0  0  0  0  0  0  0
   34.4730   32.7630   37.4120 C   0  0  0  0  0  0  0  0  0  0  0  0
   33.4530   31.8730   37.0930 C   0  0  0  0  0  0  0  0  0  0  0  0
   33.8390   31.2100   35.9520 C   0  0  0  0  0  0  0  0  0  0  0  0
   33.1800   30.2420   35.2500 C   0  0  0  0  0  0  0  0  0  0  0  0
   33.3200   28.9550   33.5140 H   0  0  0  0  0  0  0  0  0  0  0  0
   36.5960   31.5260   34.1730 H   0  0  0  0  0  0  0  0  0  0  0  0
   36.3350   33.1090   36.3770 H   0  0  0  0  0  0  0  0  0  0  0  0
   34.5650   33.4770   38.2400 H   0  0  0  0  0  0  0  0  0  0  0  0
   32.6040   31.8460   37.7310 H   0  0  0  0  0  0  0  0  0  0  0  0
   31.8700   29.7680   35.6870 C   0  0  0  0  0  0  0  0  0  0  0  0
   31.6990   28.6990   36.6010 C   0  0  0  0  0  0  0  0  0  0  0  0
   32.5600   28.1060   37.0860 H   0  0  0  0  0  0  0  0  0  0  0  0
   29.8150   28.5850   36.7450 S   0  0  0  0  0  0  0  0  0  0  0  0
   29.6470   30.0260   35.5210 C   0  0  0  0  0  0  0  0  0  0  0  0
   29.0700   30.9030   34.7880 H   0  0  0  0  0  0  0  0  0  0  0  0
   30.7150   30.2600   35.2950 N   0  0  0  0  0  0  0  0  0  0  0  0
  1  4  1  0  0  0  0
  1 24  1  0  0  0  0
  1  3  1  0  0  0  0
  2  1  1  0  0  0  0
  4  7  1  0  0  0  0
  5  4  1  0  0  0  0
  6  4  1  0  0  0  0
  7 10  1  0  0  0  0
  7  8  1  0  0  0  0
  7  9  1  0  0  0  0
 10 11  1  0  0  0  0
 11 16  1  0  0  0  0
 12 11  2  0  0  0  0
 12 13  1  0  0  0  0
 13 14  2  0  0  0  0
 14 15  1  0  0  0  0
 15 19  1  0  0  0  0
 16 15  2  0  0  0  0
 17 22  1  0  0  0  0
 18 17  2  0  0  0  0
 19 23  1  0  0  0  0
 19 17  1  0  0  0  0
 20 12  1  0  0  0  0
 21 13  1  0  0  0  0
 24 26  1  0  0  0  0
 25 33  1  0  0  0  0
 26 25  2  0  0  0  0
 26 27  1  0  0  0  0
 27 28  2  0  0  0  0
 28 32  1  0  0  0  0
 28 29  1  0  0  0  0
 29 30  1  0  0  0  0
 30 37  1  0  0  0  0
 31 30  2  0  0  0  0
 31 38  1  0  0  0  0
 32 31  1  0  0  0  0
 33 39  1  0  0  0  0
 33 32  2  0  0  0  0
 34 25  1  0  0  0  0
 35 27  1  0  0  0  0
 36 29  1  0  0  0  0
 39 40  2  0  0  0  0
 40 42  1  0  0  0  0
 40 41  1  0  0  0  0
 43 42  1  0  0  0  0
 44 43  1  0  0  0  0
 45 43  2  0  0  0  0
 45 39  1  0  0  0  0
M  END
>  <minimizedAffinity>
-5.41351652

$$$$

 OpenBabel03262521263D

 45 48  0  0  0  0  0  0  0  0999 V2000
   44.3460   23.0540   35.6260 C   0  0  0  0  0  0  0  0  0  0  0  0
   44.2760   23.3180   34.5500 H   0  0  0  0  0  0  0  0  0  0  0  0
   45.3900   22.6900   35.7740 H   0  0  0  0  0  0  0  0  0  0  0  0
   44.1160   24.2410   36.5370 C   0  0  0  0  0  0  0  0  0  0  0  0
   44.9520   24.1690   37.2970 H   0  0  0  0  0  0  0  0  0  0  0  0
   43.2120   23.9980   37.1380 H   0  0  0  0  0  0  0  0  0  0  0  0
   44.1010   25.4430   35.8990 C   0  0  0  0  0  0  0  0  0  0  0  0
   43.6120   26.2780   36.4430 H   0  0  0  0  0  0  0  0  0  0  0  0
   45.1110   25.8180   35.5810 H   0  0  0  0  0  0  0  0  0  0  0  0
   43.3640   25.0730   34.8100 O   0  0  0  0  0  0  0  0  0  0  0  0
   42.1850   25.7370   34.5510 C   0  0  0  0  0  0  0  0  0  0  0  0
   42.2710   26.5550   33.4520 C   0  0  0  0  0  0  0  0  0  0  0  0
   41.1410   27.2950   33.0690 C   0  0  0  0  0  0  0  0  0  0  0  0
   40.0170   27.1450   33.8320 N   0  0  0  0  0  0  0  0  0  0  0  0
   39.9640   26.3280   34.9140 C   0  0  0  0  0  0  0  0  0  0  0  0
   41.0640   25.6310   35.2570 N   0  0  0  0  0  0  0  0  0  0  0  0
   37.7080   27.1000   35.1320 C   0  0  0  0  0  0  0  0  0  0  0  0
   37.8020   27.8700   34.1410 O   0  0  0  0  0  0  0  0  0  0  0  0
   38.7390   26.2550   35.6320 N   0  0  0  0  0  0  0  0  0  0  0  0
   43.0930   26.7570   32.7740 H   0  0  0  0  0  0  0  0  0  0  0  0
   41.0890   27.9560   32.2410 H   0  0  0  0  0  0  0  0  0  0  0  0
   36.7490   27.0800   35.6500 H   0  0  0  0  0  0  0  0  0  0  0  0
   38.6830   25.6240   36.4320 H   0  0  0  0  0  0  0  0  0  0  0  0
   43.2510   21.6730   35.9260 S   0  0  0  0  0  0  0  0  0  0  0  0
   40.6190   22.2410   35.0220 C   0  0  0  0  0  0  0  0  0  0  0  0
   41.5500   22.1050   36.0490 C   0  0  0  0  0  0  0  0  0  0  0  0
   41.0590   22.3440   37.3280 C   0  0  0  0  0  0  0  0  0  0  0  0
   39.7650   22.6890   37.5970 C   0  0  0  0  0  0  0  0  0  0  0  0
   39.0640   22.9620   38.6800 N   0  0  0  0  0  0  0  0  0  0  0  0
   37.7660   23.2570   38.3940 C   0  0  0  0  0  0  0  0  0  0  0  0
   37.6630   23.1550   37.0100 C   0  0  0  0  0  0  0  0  0  0  0  0
   38.9060   22.8040   36.5400 C   0  0  0  0  0  0  0  0  0  0  0  0
   39.3140   22.5860   35.2550 C   0  0  0  0  0  0  0  0  0  0  0  0
   41.0270   22.0510   34.0430 H   0  0  0  0  0  0  0  0  0  0  0  0
   41.7030   22.2640   38.2000 H   0  0  0  0  0  0  0  0  0  0  0  0
   39.4950   22.9440   39.6460 H   0  0  0  0  0  0  0  0  0  0  0  0
   37.0110   23.5130   39.1490 H   0  0  0  0  0  0  0  0  0  0  0  0
   36.7170   23.3490   36.5700 H   0  0  0  0  0  0  0  0  0  0  0  0
   38.3760   22.7170   34.1440 C   0  0  0  0  0  0  0  0  0  0  0  0
   37.6620   21.6190   33.6020 C   0  0  0  0  0  0  0  0  0  0  0  0
   37.7450   20.5330   33.9750 H   0  0  0  0  0  0  0  0  0  0  0  0
   36.6460   22.4350   32.2280 S   0  0  0  0  0  0  0  0  0  0  0  0
   37.4090   24.1140   32.6790 C   0  0  0  0  0  0  0  0  0  0  0  0
   37.6340   25.3730   32.6180 H   0  0  0  0  0  0  0  0  0  0  0  0
   38.0840   23.8390   33.5240 N   0  0  0  0  0  0  0  0  0  0  0  0
  1  3  1  0  0  0  0
  1 24  1  0  0  0  0
  1  4  1  0  0  0  0
  2  1  1  0  0  0  0
  4  6  1  0  0  0  0
  4  5  1  0  0  0  0
  7  8  1  0  0  0  0
  7  4  1  0  0  0  0
  9  7  1  0  0  0  0
 10  7  1  0  0  0  0
 11 10  1  0  0  0  0
 11 16  1  0  0  0  0
 12 11  2  0  0  0  0
 13 12  1  0  0  0  0
 13 14  2  0  0  0  0
 14 15  1  0  0  0  0
 15 16  2  0  0  0  0
 15 19  1  0  0  0  0
 17 19  1  0  0  0  0
 17 22  1  0  0  0  0
 18 17  2  0  0  0  0
 19 23  1  0  0  0  0
 20 12  1  0  0  0  0
 21 13  1  0  0  0  0
 24 26  1  0  0  0  0
 25 33  2  0  0  0  0
 25 26  1  0  0  0  0
 26 27  2  0  0  0  0
 27 28  1  0  0  0  0
 27 35  1  0  0  0  0
 28 29  1  0  0  0  0
 29 36  1  0  0  0  0
 30 29  1  0  0  0  0
 30 37  1  0  0  0  0
 31 30  2  0  0  0  0
 32 31  1  0  0  0  0
 32 28  2  0  0  0  0
 33 32  1  0  0  0  0
 34 25  1  0  0  0  0
 38 31  1  0  0  0  0
 39 33  1  0  0  0  0
 40 41  1  0  0  0  0
 40 39  2  0  0  0  0
 42 43  1  0  0  0  0
 42 40  1  0  0  0  0
 43 45  2  0  0  0  0
 44 43  1  0  0  0  0
 45 39  1  0  0  0  0
M  END
>  <minimizedAffinity>
-5.4043107

$$$$

 OpenBabel03262521263D

 45 48  0  0  0  0  0  0  0  0999 V2000
   43.9550   24.1100   34.8430 C   0  0  0  0  0  0  0  0  0  0  0  0
   44.1550   23.9690   33.7600 H   0  0  0  0  0  0  0  0  0  0  0  0
   44.9600   24.2020   35.3190 H   0  0  0  0  0  0  0  0  0  0  0  0
   43.1670   25.3700   35.1350 C   0  0  0  0  0  0  0  0  0  0  0  0
   43.9580   26.1250   35.4280 H   0  0  0  0  0  0  0  0  0  0  0  0
   42.6340   25.1840   36.0940 H   0  0  0  0  0  0  0  0  0  0  0  0
   42.3980   25.8030   34.1000 C   0  0  0  0  0  0  0  0  0  0  0  0
   42.9290   26.3570   33.2960 H   0  0  0  0  0  0  0  0  0  0  0  0
   41.8000   25.0000   33.5920 H   0  0  0  0  0  0  0  0  0  0  0  0
   41.5770   26.6360   34.8060 O   0  0  0  0  0  0  0  0  0  0  0  0
   40.2970   26.8500   34.3470 C   0  0  0  0  0  0  0  0  0  0  0  0
   39.3600   26.7950   35.3510 C   0  0  0  0  0  0  0  0  0  0  0  0
   38.0090   26.9970   35.0270 C   0  0  0  0  0  0  0  0  0  0  0  0
   37.7170   27.2350   33.7140 N   0  0  0  0  0  0  0  0  0  0  0  0
   38.6660   27.2830   32.7440 C   0  0  0  0  0  0  0  0  0  0  0  0
   39.9540   27.0860   33.0850 N   0  0  0  0  0  0  0  0  0  0  0  0
   36.8340   27.6780   31.2550 C   0  0  0  0  0  0  0  0  0  0  0  0
   35.9780   27.5980   32.1740 O   0  0  0  0  0  0  0  0  0  0  0  0
   38.2420   27.5380   31.4110 N   0  0  0  0  0  0  0  0  0  0  0  0
   39.4650   26.6160   36.4150 H   0  0  0  0  0  0  0  0  0  0  0  0
   37.2020   26.9780   35.7150 H   0  0  0  0  0  0  0  0  0  0  0  0
   36.4590   27.8740   30.2500 H   0  0  0  0  0  0  0  0  0  0  0  0
   38.9510   27.6000   30.6800 H   0  0  0  0  0  0  0  0  0  0  0  0
   43.2040   22.6120   35.4640 S   0  0  0  0  0  0  0  0  0  0  0  0
   40.4640   22.6920   34.7250 C   0  0  0  0  0  0  0  0  0  0  0  0
   41.4630   22.7100   35.6930 C   0  0  0  0  0  0  0  0  0  0  0  0
   41.0140   22.8190   37.0060 C   0  0  0  0  0  0  0  0  0  0  0  0
   39.6960   22.9060   37.3560 C   0  0  0  0  0  0  0  0  0  0  0  0
   39.0220   23.0140   38.4850 N   0  0  0  0  0  0  0  0  0  0  0  0
   37.6770   23.0640   38.2800 C   0  0  0  0  0  0  0  0  0  0  0  0
   37.5130   22.9790   36.9010 C   0  0  0  0  0  0  0  0  0  0  0  0
   38.7700   22.8820   36.3520 C   0  0  0  0  0  0  0  0  0  0  0  0
   39.1330   22.7770   35.0400 C   0  0  0  0  0  0  0  0  0  0  0  0
   40.8410   22.6070   33.7180 H   0  0  0  0  0  0  0  0  0  0  0  0
   41.7120   22.8420   37.8370 H   0  0  0  0  0  0  0  0  0  0  0  0
   39.5070   23.0540   39.4250 H   0  0  0  0  0  0  0  0  0  0  0  0
   36.9350   23.1540   39.0830 H   0  0  0  0  0  0  0  0  0  0  0  0
   36.5220   23.0010   36.5190 H   0  0  0  0  0  0  0  0  0  0  0  0
   38.1220   22.7550   33.9870 C   0  0  0  0  0  0  0  0  0  0  0  0
   37.3930   21.5900   33.6390 C   0  0  0  0  0  0  0  0  0  0  0  0
   37.5200   20.5620   34.1420 H   0  0  0  0  0  0  0  0  0  0  0  0
   36.2760   22.2130   32.2430 S   0  0  0  0  0  0  0  0  0  0  0  0
   37.0380   23.9420   32.4220 C   0  0  0  0  0  0  0  0  0  0  0  0
   37.2370   25.1840   32.1850 H   0  0  0  0  0  0  0  0  0  0  0  0
   37.7710   23.7850   33.2480 N   0  0  0  0  0  0  0  0  0  0  0  0
  1  4  1  0  0  0  0
  1  3  1  0  0  0  0
  1 24  1  0  0  0  0
  2  1  1  0  0  0  0
  4  5  1  0  0  0  0
  4  6  1  0  0  0  0
  7 10  1  0  0  0  0
  7  4  1  0  0  0  0
  8  7  1  0  0  0  0
  9  7  1  0  0  0  0
 11 10  1  0  0  0  0
 11 12  1  0  0  0  0
 12 20  1  0  0  0  0
 13 12  2  0  0  0  0
 13 21  1  0  0  0  0
 14 13  1  0  0  0  0
 15 16  1  0  0  0  0
 15 14  2  0  0  0  0
 16 11  2  0  0  0  0
 17 19  1  0  0  0  0
 17 18  2  0  0  0  0
 19 15  1  0  0  0  0
 22 17  1  0  0  0  0
 23 19  1  0  0  0  0
 24 26  1  0  0  0  0
 25 33  2  0  0  0  0
 25 26  1  0  0  0  0
 26 27  2  0  0  0  0
 27 28  1  0  0  0  0
 27 35  1  0  0  0  0
 28 29  1  0  0  0  0
 29 36  1  0  0  0  0
 30 29  1  0  0  0  0
 30 37  1  0  0  0  0
 31 30  2  0  0  0  0
 32 31  1  0  0  0  0
 32 28  2  0  0  0  0
 33 32  1  0  0  0  0
 34 25  1  0  0  0  0
 38 31  1  0  0  0  0
 39 33  1  0  0  0  0
 40 39  2  0  0  0  0
 40 41  1  0  0  0  0
 42 43  1  0  0  0  0
 42 40  1  0  0  0  0
 43 45  2  0  0  0  0
 44 43  1  0  0  0  0
 45 39  1  0  0  0  0
M  END
>  <minimizedAffinity>
-5.36207676

$$$$

 OpenBabel03262521263D

 45 48  0  0  0  0  0  0  0  0999 V2000
   36.0530   20.0790   32.6210 C   0  0  0  0  0  0  0  0  0  0  0  0
   35.8330   19.9180   33.6970 H   0  0  0  0  0  0  0  0  0  0  0  0
   36.0190   19.0660   32.1570 H   0  0  0  0  0  0  0  0  0  0  0  0
   35.0250   20.9560   31.9370 C   0  0  0  0  0  0  0  0  0  0  0  0
   34.4620   21.4360   32.7940 H   0  0  0  0  0  0  0  0  0  0  0  0
   34.2710   20.2640   31.5010 H   0  0  0  0  0  0  0  0  0  0  0  0
   35.5510   21.8770   31.0850 C   0  0  0  0  0  0  0  0  0  0  0  0
   36.6580   21.8760   30.9880 H   0  0  0  0  0  0  0  0  0  0  0  0
   35.1400   21.8400   30.0420 H   0  0  0  0  0  0  0  0  0  0  0  0
   35.1190   23.0030   31.7300 O   0  0  0  0  0  0  0  0  0  0  0  0
   35.8380   24.1680   31.5790 C   0  0  0  0  0  0  0  0  0  0  0  0
   35.0760   25.1960   31.0790 C   0  0  0  0  0  0  0  0  0  0  0  0
   35.6800   26.4470   30.8750 C   0  0  0  0  0  0  0  0  0  0  0  0
   37.0040   26.5540   31.1930 N   0  0  0  0  0  0  0  0  0  0  0  0
   37.7300   25.5180   31.6860 C   0  0  0  0  0  0  0  0  0  0  0  0
   37.1240   24.3300   31.8720 N   0  0  0  0  0  0  0  0  0  0  0  0
   39.5600   27.0620   31.6760 C   0  0  0  0  0  0  0  0  0  0  0  0
   38.8640   27.9920   31.1890 O   0  0  0  0  0  0  0  0  0  0  0  0
   39.1020   25.7490   31.9800 N   0  0  0  0  0  0  0  0  0  0  0  0
   34.0310   25.2360   30.7910 H   0  0  0  0  0  0  0  0  0  0  0  0
   35.1930   27.3100   30.4950 H   0  0  0  0  0  0  0  0  0  0  0  0
   40.6060   27.2880   31.8830 H   0  0  0  0  0  0  0  0  0  0  0  0
   39.6480   24.9830   32.3740 H   0  0  0  0  0  0  0  0  0  0  0  0
   37.7330   20.6730   32.4860 S   0  0  0  0  0  0  0  0  0  0  0  0
   39.3840   22.5040   33.8970 C   0  0  0  0  0  0  0  0  0  0  0  0
   38.2570   21.6890   33.8230 C   0  0  0  0  0  0  0  0  0  0  0  0
   37.4520   21.6890   34.9570 C   0  0  0  0  0  0  0  0  0  0  0  0
   37.7160   22.4200   36.0800 C   0  0  0  0  0  0  0  0  0  0  0  0
   37.1380   22.5950   37.2540 N   0  0  0  0  0  0  0  0  0  0  0  0
   37.8290   23.4600   38.0450 C   0  0  0  0  0  0  0  0  0  0  0  0
   38.9300   23.8500   37.2890 C   0  0  0  0  0  0  0  0  0  0  0  0
   38.8400   23.1970   36.0820 C   0  0  0  0  0  0  0  0  0  0  0  0
   39.6790   23.2500   35.0070 C   0  0  0  0  0  0  0  0  0  0  0  0
   39.9880   22.4840   33.0040 H   0  0  0  0  0  0  0  0  0  0  0  0
   36.5480   21.0870   35.0030 H   0  0  0  0  0  0  0  0  0  0  0  0
   36.2390   22.1010   37.5140 H   0  0  0  0  0  0  0  0  0  0  0  0
   37.5230   23.7450   39.0600 H   0  0  0  0  0  0  0  0  0  0  0  0
   39.6120   24.5350   37.7270 H   0  0  0  0  0  0  0  0  0  0  0  0
   40.8740   24.0890   35.0360 C   0  0  0  0  0  0  0  0  0  0  0  0
   42.1260   23.6360   35.5210 C   0  0  0  0  0  0  0  0  0  0  0  0
   42.3260   22.5790   35.9340 H   0  0  0  0  0  0  0  0  0  0  0  0
   43.2260   25.1600   35.2910 S   0  0  0  0  0  0  0  0  0  0  0  0
   41.7420   26.1060   34.5770 C   0  0  0  0  0  0  0  0  0  0  0  0
   41.0870   27.0820   34.0710 H   0  0  0  0  0  0  0  0  0  0  0  0
   40.9350   25.3370   34.6260 N   0  0  0  0  0  0  0  0  0  0  0  0
  1  2  1  0  0  0  0
  3  1  1  0  0  0  0
  4  1  1  0  0  0  0
  4  5  1  0  0  0  0
  6  4  1  0  0  0  0
  7 10  1  0  0  0  0
  7  4  1  0  0  0  0
  8  7  1  0  0  0  0
  9  7  1  0  0  0  0
 11 10  1  0  0  0  0
 11 16  1  0  0  0  0
 12 11  2  0  0  0  0
 13 12  1  0  0  0  0
 13 14  2  0  0  0  0
 14 15  1  0  0  0  0
 15 16  2  0  0  0  0
 15 19  1  0  0  0  0
 17 22  1  0  0  0  0
 17 19  1  0  0  0  0
 18 17  2  0  0  0  0
 19 23  1  0  0  0  0
 20 12  1  0  0  0  0
 21 13  1  0  0  0  0
 24  1  1  0  0  0  0
 24 26  1  0  0  0  0
 25 33  1  0  0  0  0
 26 25  2  0  0  0  0
 26 27  1  0  0  0  0
 27 35  1  0  0  0  0
 27 28  2  0  0  0  0
 28 32  1  0  0  0  0
 28 29  1  0  0  0  0
 29 36  1  0  0  0  0
 29 30  1  0  0  0  0
 30 37  1  0  0  0  0
 31 38  1  0  0  0  0
 31 30  2  0  0  0  0
 32 31  1  0  0  0  0
 33 39  1  0  0  0  0
 33 32  2  0  0  0  0
 34 25  1  0  0  0  0
 39 40  2  0  0  0  0
 40 41  1  0  0  0  0
 42 40  1  0  0  0  0
 43 45  2  0  0  0  0
 43 42  1  0  0  0  0
 44 43  1  0  0  0  0
 45 39  1  0  0  0  0
M  END
>  <minimizedAffinity>
-5.32090902

$$$$
