
 OpenBabel03272509533D

 41 44  0  0  0  0  0  0  0  0999 V2000
   34.2130   28.8530   48.0770 C   0  0  0  0  0  0  0  0  0  0  0  0
   35.1100   29.0280   47.4420 H   0  0  0  0  0  0  0  0  0  0  0  0
   33.6890   29.8230   48.1800 H   0  0  0  0  0  0  0  0  0  0  0  0
   33.3740   27.7780   47.4700 C   0  0  0  0  0  0  0  0  0  0  0  0
   33.7000   26.7700   47.7570 H   0  0  0  0  0  0  0  0  0  0  0  0
   33.4700   27.8190   46.3470 H   0  0  0  0  0  0  0  0  0  0  0  0
   31.9280   27.9380   47.7340 C   0  0  0  0  0  0  0  0  0  0  0  0
   31.3950   27.2910   48.8380 C   0  0  0  0  0  0  0  0  0  0  0  0
   30.0780   27.3630   49.1860 C   0  0  0  0  0  0  0  0  0  0  0  0
   29.2640   28.0920   48.4240 N   0  0  0  0  0  0  0  0  0  0  0  0
   29.7730   28.7300   47.3400 C   0  0  0  0  0  0  0  0  0  0  0  0
   31.0810   28.6710   46.9770 N   0  0  0  0  0  0  0  0  0  0  0  0
   32.0560   26.6910   49.4700 H   0  0  0  0  0  0  0  0  0  0  0  0
   29.6890   26.8460   50.0550 H   0  0  0  0  0  0  0  0  0  0  0  0
   28.8550   29.5340   46.5050 C   0  0  0  0  0  0  0  0  0  0  0  0
   27.4170   29.6590   46.7400 C   0  0  0  0  0  0  0  0  0  0  0  0
   27.0030   29.1480   47.5490 H   0  0  0  0  0  0  0  0  0  0  0  0
   27.0310   30.8130   45.2810 S   0  0  0  0  0  0  0  0  0  0  0  0
   28.8300   30.8590   44.7150 C   0  0  0  0  0  0  0  0  0  0  0  0
   29.0370   31.4640   43.8350 H   0  0  0  0  0  0  0  0  0  0  0  0
   29.4560   30.1520   45.5000 N   0  0  0  0  0  0  0  0  0  0  0  0
   34.7410   28.4250   49.3340 O   0  0  0  0  0  0  0  0  0  0  0  0
   37.1020   29.9740   51.5820 C   0  0  0  0  0  0  0  0  0  0  0  0
   37.8890   30.6930   50.6550 C   0  0  0  0  0  0  0  0  0  0  0  0
   37.5550   30.5990   49.3070 C   0  0  0  0  0  0  0  0  0  0  0  0
   36.4770   29.8030   49.0120 N   0  0  0  0  0  0  0  0  0  0  0  0
   35.7470   29.1330   49.8990 C   0  0  0  0  0  0  0  0  0  0  0  0
   36.0740   29.2270   51.1940 N   0  0  0  0  0  0  0  0  0  0  0  0
   37.4040   30.0830   52.6060 H   0  0  0  0  0  0  0  0  0  0  0  0
   38.7300   31.3120   50.9090 H   0  0  0  0  0  0  0  0  0  0  0  0
   38.7780   33.2150   49.2920 F   0  0  0  0  0  0  0  0  0  0  0  0
   38.8140   32.4790   48.1950 C   0  0  0  0  0  0  0  0  0  0  0  0
   38.2320   31.2530   48.2270 C   0  0  0  0  0  0  0  0  0  0  0  0
   38.3280   30.5610   47.0140 C   0  0  0  0  0  0  0  0  0  0  0  0
   38.9560   31.0870   45.9050 C   0  0  0  0  0  0  0  0  0  0  0  0
   39.5290   32.3360   45.9300 C   0  0  0  0  0  0  0  0  0  0  0  0
   39.4460   33.0270   47.1020 C   0  0  0  0  0  0  0  0  0  0  0  0
   37.8980   29.5650   46.9150 H   0  0  0  0  0  0  0  0  0  0  0  0
   38.9970   30.4960   44.9890 H   0  0  0  0  0  0  0  0  0  0  0  0
   39.9990   32.6820   45.0360 H   0  0  0  0  0  0  0  0  0  0  0  0
   39.8920   34.0120   47.1410 H   0  0  0  0  0  0  0  0  0  0  0  0
  1  3  1  0  0  0  0
  1 22  1  0  0  0  0
  2  1  1  0  0  0  0
  4  7  1  0  0  0  0
  4  5  1  0  0  0  0
  4  1  1  0  0  0  0
  6  4  1  0  0  0  0
  7  8  1  0  0  0  0
  8  9  2  0  0  0  0
  8 13  1  0  0  0  0
  9 14  1  0  0  0  0
 10  9  1  0  0  0  0
 11 10  2  0  0  0  0
 12 11  1  0  0  0  0
 12  7  2  0  0  0  0
 15 16  2  0  0  0  0
 15 11  1  0  0  0  0
 16 17  1  0  0  0  0
 18 16  1  0  0  0  0
 19 18  1  0  0  0  0
 19 21  2  0  0  0  0
 20 19  1  0  0  0  0
 21 15  1  0  0  0  0
 22 27  1  0  0  0  0
 23 29  1  0  0  0  0
 24 30  1  0  0  0  0
 24 23  2  0  0  0  0
 25 24  1  0  0  0  0
 26 25  2  0  0  0  0
 26 27  1  0  0  0  0
 27 28  2  0  0  0  0
 28 23  1  0  0  0  0
 32 33  1  0  0  0  0
 32 31  1  0  0  0  0
 33 25  1  0  0  0  0
 34 33  2  0  0  0  0
 35 36  2  0  0  0  0
 35 34  1  0  0  0  0
 36 37  1  0  0  0  0
 37 41  1  0  0  0  0
 37 32  2  0  0  0  0
 38 34  1  0  0  0  0
 39 35  1  0  0  0  0
 40 36  1  0  0  0  0
M  END
>  <minimizedAffinity>
-6.56994057

>  <minimizedRMSD>
0.703203201

$$$$
