REMARK  Name = 
REMARK  5 active torsions:
REMARK  status: ('A' for Active; 'I' for Inactive)
REMARK    1  A    between atoms: C_1  and  C_16
REMARK    2  A    between atoms: C_3  and  C_4
REMARK    3  A    between atoms: C_18  and  C_20
REMARK    4  A    between atoms: C_20  and  C_21
REMARK    5  A    between atoms: C_21  and  C_39
REMARK                            x       y       z     vdW  Elec       q    Type
REMARK                         _______ _______ _______ _____ _____    ______ ____
ROOT
ATOM      1  C   UNL     1      36.948  31.385  47.390  0.00  0.00    +0.000 C 
ATOM      2  C   UNL     1      38.133  31.999  48.047  0.00  0.00    +0.000 C 
ATOM      3  C   UNL     1      38.449  30.894  47.167  0.00  0.00    +0.000 C 
ATOM      4  H   UNL     1      36.521  31.700  46.450  0.00  0.00    +0.000 HD
ATOM      5  H   UNL     1      38.115  33.074  47.878  0.00  0.00    +0.000 HD
ATOM      6  H   UNL     1      38.166  31.817  49.186  0.00  0.00    +0.000 HD
ATOM      7  H   UNL     1      38.471  29.832  47.382  0.00  0.00    +0.000 HD
ENDROOT
BRANCH   3   8
ATOM      8  C   UNL     1      39.122  31.368  45.911  0.00  0.00    +0.000 A 
ATOM      9  C   UNL     1      39.614  32.671  46.098  0.00  0.00    +0.000 A 
ATOM     10  C   UNL     1      40.361  33.267  45.114  0.00  0.00    +0.000 A 
ATOM     11  C   UNL     1      40.652  32.604  43.913  0.00  0.00    +0.000 A 
ATOM     12  C   UNL     1      40.149  31.319  43.766  0.00  0.00    +0.000 A 
ATOM     13  C   UNL     1      40.347  30.565  42.642  0.00  0.00    +0.000 A 
ATOM     14  C   UNL     1      39.847  29.298  42.477  0.00  0.00    +0.000 A 
ATOM     15  C   UNL     1      39.102  28.744  43.496  0.00  0.00    +0.000 A 
ATOM     16  C   UNL     1      38.896  29.496  44.634  0.00  0.00    +0.000 A 
ATOM     17  C   UNL     1      39.418  30.769  44.757  0.00  0.00    +0.000 A 
ATOM     18  H   UNL     1      39.587  33.412  46.870  0.00  0.00    +0.000 HD
ATOM     19  H   UNL     1      40.816  34.244  45.077  0.00  0.00    +0.000 HD
ATOM     20  H   UNL     1      41.225  32.958  43.064  0.00  0.00    +0.000 HD
ATOM     21  H   UNL     1      40.929  30.961  41.812  0.00  0.00    +0.000 HD
ATOM     22  H   UNL     1      40.030  28.735  41.566  0.00  0.00    +0.000 HD
ATOM     23  H   UNL     1      38.679  27.755  43.436  0.00  0.00    +0.000 HD
ATOM     24  H   UNL     1      38.297  29.035  45.440  0.00  0.00    +0.000 HD
ENDBRANCH   3   8
BRANCH   1  27
ATOM     25  C   UNL     1      34.430  28.760  48.387  0.00  0.00    +0.000 A 
ATOM     26  C   UNL     1      35.177  29.682  47.588  0.00  0.00    +0.000 A 
ATOM     27  C   UNL     1      36.163  30.410  48.188  0.00  0.00    +0.000 A 
ATOM     28  N   UNL     1      36.358  30.190  49.536  0.00  0.00    +0.000 NA
ATOM     29  C   UNL     1      35.652  29.324  50.268  0.00  0.00    +0.000 A 
ATOM     30  N   UNL     1      34.677  28.595  49.705  0.00  0.00    +0.000 NA
ATOM     31  H   UNL     1      33.669  28.223  47.838  0.00  0.00    +0.000 HD
ATOM     32  H   UNL     1      34.980  29.809  46.550  0.00  0.00    +0.000 HD
BRANCH  29  33
ATOM     33  C   UNL     1      35.993  29.196  51.727  0.00  0.00    +0.000 C 
ATOM     34  H   UNL     1      35.213  29.599  52.367  0.00  0.00    +0.000 HD
ATOM     35  H   UNL     1      36.185  28.107  51.916  0.00  0.00    +0.000 HD
BRANCH  33  36
ATOM     36  C   UNL     1      37.332  29.921  51.940  0.00  0.00    +0.000 C 
ATOM     37  H   UNL     1      37.151  31.000  51.657  0.00  0.00    +0.000 HD
ATOM     38  H   UNL     1      38.077  29.567  51.230  0.00  0.00    +0.000 HD
BRANCH  36  39
ATOM     39  C   UNL     1      37.745  29.841  53.373  0.00  0.00    +0.000 A 
ATOM     40  C   UNL     1      39.105  29.512  53.765  0.00  0.00    +0.000 A 
ATOM     41  H   UNL     1      39.858  29.317  53.039  0.00  0.00    +0.000 HD
ATOM     42  S   UNL     1      38.962  29.572  55.568  0.00  0.00    +0.000 S 
ATOM     43  C   UNL     1      37.103  30.028  55.508  0.00  0.00    +0.000 A 
ATOM     44  H   UNL     1      36.457  30.199  56.381  0.00  0.00    +0.000 HD
ATOM     45  N   UNL     1      36.810  30.083  54.266  0.00  0.00    +0.000 NA
ENDBRANCH  36  39
ENDBRANCH  33  36
ENDBRANCH  29  33
ENDBRANCH   1  27
TORSDOF 5
