
 OpenBabel03262523203D

 28 30  0  0  1  0  0  0  0  0999 V2000
   39.6830   27.1340   33.9240 C   0  0  0  0  0  0  0  0  0  0  0  0
   39.2770   27.1100   35.2640 C   0  0  0  0  0  0  0  0  0  0  0  0
   38.0470   26.5070   35.5610 C   0  0  0  0  0  0  0  0  0  0  0  0
   37.3020   25.9740   34.5510 N   0  0  0  0  0  0  0  0  0  0  0  0
   37.7320   26.0210   33.2710 C   0  0  0  0  0  0  0  0  0  0  0  0
   38.9090   26.5910   32.9460 N   0  0  0  0  0  0  0  0  0  0  0  0
   36.9150   25.4490   32.2480 N   0  0  0  0  0  0  0  0  0  0  0  0
   36.5230   24.0490   32.2190 C   0  0  0  0  0  0  0  0  0  0  0  0
   35.4270   23.9730   31.2110 C   0  0  0  0  0  0  0  0  0  0  0  0
   35.1120   25.3990   30.8190 C   0  0  0  0  0  0  0  0  0  0  0  0
   36.3560   26.1540   31.1000 C   0  0  1  0  0  0  0  0  0  0  0  0
   40.6320   27.6020   33.7130 H   0  0  0  0  0  0  0  0  0  0  0  0
   39.8970   27.5430   36.0420 H   0  0  0  0  0  0  0  0  0  0  0  0
   37.7440   26.4920   36.5840 H   0  0  0  0  0  0  0  0  0  0  0  0
   37.4100   23.5240   31.7620 H   0  0  0  0  0  0  0  0  0  0  0  0
   36.3140   23.6170   33.1950 H   0  0  0  0  0  0  0  0  0  0  0  0
   34.5300   23.4700   31.6400 H   0  0  0  0  0  0  0  0  0  0  0  0
   35.7050   23.4380   30.2720 H   0  0  0  0  0  0  0  0  0  0  0  0
   34.3160   25.8070   31.4860 H   0  0  0  0  0  0  0  0  0  0  0  0
   34.7180   25.4930   29.8000 H   0  0  0  0  0  0  0  0  0  0  0  0
   37.0770   25.9980   30.2810 H   0  0  0  0  0  0  0  0  0  0  0  0
   36.1530   27.5940   31.3980 C   0  0  0  0  0  0  0  0  0  0  0  0
   36.9090   28.5980   30.7210 C   0  0  0  0  0  0  0  0  0  0  0  0
   37.6740   28.3990   29.9520 H   0  0  0  0  0  0  0  0  0  0  0  0
   36.2860   30.1610   31.4430 S   0  0  0  0  0  0  0  0  0  0  0  0
   35.0940   29.1810   32.5530 C   0  0  0  0  0  0  0  0  0  0  0  0
   34.2920   29.4860   33.3660 H   0  0  0  0  0  0  0  0  0  0  0  0
   35.3090   28.1170   32.2670 N   0  0  0  0  0  0  0  0  0  0  0  0
  1  2  1  0  0  0  0
  2  3  2  0  0  0  0
  2 13  1  0  0  0  0
  3 14  1  0  0  0  0
  4  3  1  0  0  0  0
  5  4  2  0  0  0  0
  6  5  1  0  0  0  0
  6  1  2  0  0  0  0
  7  5  1  0  0  0  0
  8  7  1  0  0  0  0
  8 16  1  0  0  0  0
  9 17  1  0  0  0  0
  9  8  1  0  0  0  0
 10 11  1  0  0  0  0
 10  9  1  0  0  0  0
 10 19  1  0  0  0  0
 11 21  1  6  0  0  0
 11 22  1  0  0  0  0
 11  7  1  0  0  0  0
 12  1  1  0  0  0  0
 15  8  1  0  0  0  0
 18  9  1  0  0  0  0
 20 10  1  0  0  0  0
 22 28  1  0  0  0  0
 23 22  2  0  0  0  0
 23 25  1  0  0  0  0
 24 23  1  0  0  0  0
 25 26  1  0  0  0  0
 26 27  1  0  0  0  0
 28 26  2  0  0  0  0
M  END
>  <minimizedAffinity>
-4.4037118

$$$$

 OpenBabel03262523203D

 28 30  0  0  1  0  0  0  0  0999 V2000
   39.8870   22.5350   37.1740 C   0  0  0  0  0  0  0  0  0  0  0  0
   39.1890   23.2880   38.1260 C   0  0  0  0  0  0  0  0  0  0  0  0
   37.8230   23.5110   37.9060 C   0  0  0  0  0  0  0  0  0  0  0  0
   37.2320   22.9940   36.7920 N   0  0  0  0  0  0  0  0  0  0  0  0
   37.9450   22.2730   35.8980 C   0  0  0  0  0  0  0  0  0  0  0  0
   39.2590   22.0380   36.0750 N   0  0  0  0  0  0  0  0  0  0  0  0
   37.2800   21.7520   34.7450 N   0  0  0  0  0  0  0  0  0  0  0  0
   36.1550   20.8320   34.8100 C   0  0  0  0  0  0  0  0  0  0  0  0
   35.5750   20.8300   33.4360 C   0  0  0  0  0  0  0  0  0  0  0  0
   36.3040   21.9070   32.6660 C   0  0  0  0  0  0  0  0  0  0  0  0
   37.6080   22.0500   33.3560 C   0  0  1  0  0  0  0  0  0  0  0  0
   40.9380   22.3740   37.3590 H   0  0  0  0  0  0  0  0  0  0  0  0
   39.6920   23.6840   39.0020 H   0  0  0  0  0  0  0  0  0  0  0  0
   37.2970   24.0850   38.6360 H   0  0  0  0  0  0  0  0  0  0  0  0
   36.6340   19.8210   34.9530 H   0  0  0  0  0  0  0  0  0  0  0  0
   35.4630   21.0210   35.6280 H   0  0  0  0  0  0  0  0  0  0  0  0
   34.4800   21.0370   33.4710 H   0  0  0  0  0  0  0  0  0  0  0  0
   35.7280   19.8770   32.8770 H   0  0  0  0  0  0  0  0  0  0  0  0
   35.7640   22.8780   32.7700 H   0  0  0  0  0  0  0  0  0  0  0  0
   36.3550   21.7120   31.5880 H   0  0  0  0  0  0  0  0  0  0  0  0
   38.2870   21.2420   33.0360 H   0  0  0  0  0  0  0  0  0  0  0  0
   38.2350   23.3890   33.2250 C   0  0  0  0  0  0  0  0  0  0  0  0
   39.6060   23.5250   32.8460 C   0  0  0  0  0  0  0  0  0  0  0  0
   40.2850   22.6850   32.6280 H   0  0  0  0  0  0  0  0  0  0  0  0
   39.8670   25.3380   32.8340 S   0  0  0  0  0  0  0  0  0  0  0  0
   38.0570   25.6090   33.3500 C   0  0  0  0  0  0  0  0  0  0  0  0
   37.4000   26.5680   33.5660 H   0  0  0  0  0  0  0  0  0  0  0  0
   37.6620   24.5600   33.4250 N   0  0  0  0  0  0  0  0  0  0  0  0
  1 12  1  0  0  0  0
  1  2  1  0  0  0  0
  2 13  1  0  0  0  0
  3  2  2  0  0  0  0
  3 14  1  0  0  0  0
  4  3  1  0  0  0  0
  5  6  1  0  0  0  0
  5  4  2  0  0  0  0
  6  1  2  0  0  0  0
  7  8  1  0  0  0  0
  7  5  1  0  0  0  0
  8 15  1  0  0  0  0
  8 16  1  0  0  0  0
  9 17  1  0  0  0  0
  9  8  1  0  0  0  0
 10 19  1  0  0  0  0
 10 11  1  0  0  0  0
 10  9  1  0  0  0  0
 11 21  1  6  0  0  0
 11  7  1  0  0  0  0
 18  9  1  0  0  0  0
 20 10  1  0  0  0  0
 22 11  1  0  0  0  0
 22 28  1  0  0  0  0
 23 22  2  0  0  0  0
 24 23  1  0  0  0  0
 25 23  1  0  0  0  0
 25 26  1  0  0  0  0
 26 28  2  0  0  0  0
 26 27  1  0  0  0  0
M  END
>  <minimizedAffinity>
-4.27412224

$$$$

 OpenBabel03262523203D

 28 30  0  0  1  0  0  0  0  0999 V2000
   37.9310   23.3530   36.6040 C   0  0  0  0  0  0  0  0  0  0  0  0
   37.7330   22.2910   35.7130 C   0  0  0  0  0  0  0  0  0  0  0  0
   38.5370   22.2450   34.5660 C   0  0  0  0  0  0  0  0  0  0  0  0
   39.4680   23.2190   34.3630 N   0  0  0  0  0  0  0  0  0  0  0  0
   39.6240   24.2270   35.2490 C   0  0  0  0  0  0  0  0  0  0  0  0
   38.8710   24.3050   36.3630 N   0  0  0  0  0  0  0  0  0  0  0  0
   40.6140   25.2250   34.9910 N   0  0  0  0  0  0  0  0  0  0  0  0
   42.0330   24.9360   34.8480 C   0  0  0  0  0  0  0  0  0  0  0  0
   42.6240   26.1720   34.2590 C   0  0  0  0  0  0  0  0  0  0  0  0
   41.4630   27.0780   33.9210 C   0  0  0  0  0  0  0  0  0  0  0  0
   40.3730   26.6540   34.8320 C   0  0  1  0  0  0  0  0  0  0  0  0
   37.3030   23.3720   37.4810 H   0  0  0  0  0  0  0  0  0  0  0  0
   36.9820   21.5320   35.9080 H   0  0  0  0  0  0  0  0  0  0  0  0
   38.3820   21.4330   33.8910 H   0  0  0  0  0  0  0  0  0  0  0  0
   42.4100   24.8780   35.9100 H   0  0  0  0  0  0  0  0  0  0  0  0
   42.2550   24.0020   34.3380 H   0  0  0  0  0  0  0  0  0  0  0  0
   43.2180   25.9280   33.3490 H   0  0  0  0  0  0  0  0  0  0  0  0
   43.2810   26.7410   34.9580 H   0  0  0  0  0  0  0  0  0  0  0  0
   41.1210   26.8810   32.8770 H   0  0  0  0  0  0  0  0  0  0  0  0
   41.7190   28.1440   33.9510 H   0  0  0  0  0  0  0  0  0  0  0  0
   40.5330   27.0920   35.8310 H   0  0  0  0  0  0  0  0  0  0  0  0
   39.0030   26.9160   34.3230 C   0  0  0  0  0  0  0  0  0  0  0  0
   38.6850   26.7410   32.9410 C   0  0  0  0  0  0  0  0  0  0  0  0
   39.3990   26.4090   32.1700 H   0  0  0  0  0  0  0  0  0  0  0  0
   36.9120   27.1870   32.8510 S   0  0  0  0  0  0  0  0  0  0  0  0
   36.8990   27.5420   34.7190 C   0  0  0  0  0  0  0  0  0  0  0  0
   36.0680   27.9020   35.4800 H   0  0  0  0  0  0  0  0  0  0  0  0
   37.9580   27.3210   35.0200 N   0  0  0  0  0  0  0  0  0  0  0  0
  1 12  1  0  0  0  0
  2 13  1  0  0  0  0
  2  1  2  0  0  0  0
  3  2  1  0  0  0  0
  4  3  2  0  0  0  0
  4  5  1  0  0  0  0
  5  6  2  0  0  0  0
  6  1  1  0  0  0  0
  7  5  1  0  0  0  0
  8  7  1  0  0  0  0
  8 15  1  0  0  0  0
  9  8  1  0  0  0  0
  9 18  1  0  0  0  0
 10 20  1  0  0  0  0
 10  9  1  0  0  0  0
 10 11  1  0  0  0  0
 11  7  1  0  0  0  0
 11 21  1  1  0  0  0
 14  3  1  0  0  0  0
 16  8  1  0  0  0  0
 17  9  1  0  0  0  0
 19 10  1  0  0  0  0
 22 11  1  0  0  0  0
 22 28  1  0  0  0  0
 23 22  2  0  0  0  0
 24 23  1  0  0  0  0
 25 23  1  0  0  0  0
 25 26  1  0  0  0  0
 26 28  2  0  0  0  0
 26 27  1  0  0  0  0
M  END
>  <minimizedAffinity>
-4.12050343

$$$$

 OpenBabel03262523203D

 28 30  0  0  1  0  0  0  0  0999 V2000
   35.8750   29.7220   32.6580 C   0  0  0  0  0  0  0  0  0  0  0  0
   36.2200   30.3530   31.4570 C   0  0  0  0  0  0  0  0  0  0  0  0
   36.5090   29.5390   30.3530 C   0  0  0  0  0  0  0  0  0  0  0  0
   36.4440   28.1840   30.4870 N   0  0  0  0  0  0  0  0  0  0  0  0
   36.1080   27.6170   31.6670 C   0  0  0  0  0  0  0  0  0  0  0  0
   35.8230   28.3660   32.7490 N   0  0  0  0  0  0  0  0  0  0  0  0
   36.0540   26.1920   31.7560 N   0  0  0  0  0  0  0  0  0  0  0  0
   35.1770   25.3650   30.9420 C   0  0  0  0  0  0  0  0  0  0  0  0
   35.6860   23.9740   31.1110 C   0  0  0  0  0  0  0  0  0  0  0  0
   36.9720   24.0860   31.8980 C   0  0  0  0  0  0  0  0  0  0  0  0
   36.8470   25.3560   32.6510 C   0  0  1  0  0  0  0  0  0  0  0  0
   35.6560   30.3640   33.4970 H   0  0  0  0  0  0  0  0  0  0  0  0
   36.2610   31.4350   31.3860 H   0  0  0  0  0  0  0  0  0  0  0  0
   36.7710   30.0260   29.4400 H   0  0  0  0  0  0  0  0  0  0  0  0
   34.1850   25.4060   31.4780 H   0  0  0  0  0  0  0  0  0  0  0  0
   35.0470   25.7130   29.9200 H   0  0  0  0  0  0  0  0  0  0  0  0
   35.8660   23.4980   30.1200 H   0  0  0  0  0  0  0  0  0  0  0  0
   35.0100   23.3070   31.6970 H   0  0  0  0  0  0  0  0  0  0  0  0
   37.8350   24.1960   31.1980 H   0  0  0  0  0  0  0  0  0  0  0  0
   37.1920   23.1960   32.5000 H   0  0  0  0  0  0  0  0  0  0  0  0
   36.2160   25.1990   33.5410 H   0  0  0  0  0  0  0  0  0  0  0  0
   38.1390   26.0050   32.9900 C   0  0  0  0  0  0  0  0  0  0  0  0
   39.1910   26.0980   32.0290 C   0  0  0  0  0  0  0  0  0  0  0  0
   39.1350   25.7140   30.9970 H   0  0  0  0  0  0  0  0  0  0  0  0
   40.5250   26.9620   32.9370 S   0  0  0  0  0  0  0  0  0  0  0  0
   39.4220   27.0520   34.4840 C   0  0  0  0  0  0  0  0  0  0  0  0
   39.5690   27.4930   35.5710 H   0  0  0  0  0  0  0  0  0  0  0  0
   38.4780   26.5480   34.1440 N   0  0  0  0  0  0  0  0  0  0  0  0
  1  6  1  0  0  0  0
  1 12  1  0  0  0  0
  2  1  2  0  0  0  0
  3  4  2  0  0  0  0
  3  2  1  0  0  0  0
  4  5  1  0  0  0  0
  5  7  1  0  0  0  0
  5  6  2  0  0  0  0
  7 11  1  0  0  0  0
  8  9  1  0  0  0  0
  8 15  1  0  0  0  0
  8  7  1  0  0  0  0
  9 18  1  0  0  0  0
  9 10  1  0  0  0  0
 10 20  1  0  0  0  0
 10 11  1  0  0  0  0
 11 22  1  0  0  0  0
 11 21  1  1  0  0  0
 13  2  1  0  0  0  0
 14  3  1  0  0  0  0
 16  8  1  0  0  0  0
 17  9  1  0  0  0  0
 19 10  1  0  0  0  0
 22 28  1  0  0  0  0
 23 25  1  0  0  0  0
 23 22  2  0  0  0  0
 24 23  1  0  0  0  0
 25 26  1  0  0  0  0
 26 27  1  0  0  0  0
 28 26  2  0  0  0  0
M  END
>  <minimizedAffinity>
-4.04992914

$$$$

 OpenBabel03262523203D

 28 30  0  0  1  0  0  0  0  0999 V2000
   38.1390   26.2660   36.3110 C   0  0  0  0  0  0  0  0  0  0  0  0
   38.9310   27.2380   35.6870 C   0  0  0  0  0  0  0  0  0  0  0  0
   39.4770   26.9260   34.4340 C   0  0  0  0  0  0  0  0  0  0  0  0
   39.2220   25.7080   33.8780 N   0  0  0  0  0  0  0  0  0  0  0  0
   38.4530   24.7990   34.5180 C   0  0  0  0  0  0  0  0  0  0  0  0
   37.9100   25.0630   35.7220 N   0  0  0  0  0  0  0  0  0  0  0  0
   38.2150   23.5360   33.8940 N   0  0  0  0  0  0  0  0  0  0  0  0
   37.5710   23.3860   32.5980 C   0  0  0  0  0  0  0  0  0  0  0  0
   37.8380   21.9760   32.1930 C   0  0  0  0  0  0  0  0  0  0  0  0
   38.7940   21.4130   33.2190 C   0  0  0  0  0  0  0  0  0  0  0  0
   38.5690   22.2290   34.4350 C   0  0  1  0  0  0  0  0  0  0  0  0
   37.7280   26.5240   37.2760 H   0  0  0  0  0  0  0  0  0  0  0  0
   39.1120   28.1980   36.1590 H   0  0  0  0  0  0  0  0  0  0  0  0
   40.0780   27.6710   33.9630 H   0  0  0  0  0  0  0  0  0  0  0  0
   36.4680   23.4450   32.8300 H   0  0  0  0  0  0  0  0  0  0  0  0
   37.8260   24.1550   31.8730 H   0  0  0  0  0  0  0  0  0  0  0  0
   38.2820   21.9380   31.1710 H   0  0  0  0  0  0  0  0  0  0  0  0
   36.9370   21.3190   32.2020 H   0  0  0  0  0  0  0  0  0  0  0  0
   39.8470   21.5880   32.8900 H   0  0  0  0  0  0  0  0  0  0  0  0
   38.7030   20.3290   33.3500 H   0  0  0  0  0  0  0  0  0  0  0  0
   37.6650   21.8740   34.9580 H   0  0  0  0  0  0  0  0  0  0  0  0
   39.7380   22.3220   35.3450 C   0  0  0  0  0  0  0  0  0  0  0  0
   41.0600   22.4850   34.8300 C   0  0  0  0  0  0  0  0  0  0  0  0
   41.3130   22.5550   33.7590 H   0  0  0  0  0  0  0  0  0  0  0  0
   42.1020   22.5400   36.3340 S   0  0  0  0  0  0  0  0  0  0  0  0
   40.5560   22.3280   37.4210 C   0  0  0  0  0  0  0  0  0  0  0  0
   40.3750   22.2630   38.5870 H   0  0  0  0  0  0  0  0  0  0  0  0
   39.7280   22.2690   36.6640 N   0  0  0  0  0  0  0  0  0  0  0  0
  1 12  1  0  0  0  0
  2 13  1  0  0  0  0
  2  1  2  0  0  0  0
  3  2  1  0  0  0  0
  4  3  2  0  0  0  0
  4  5  1  0  0  0  0
  5  6  2  0  0  0  0
  6  1  1  0  0  0  0
  7 11  1  0  0  0  0
  7  5  1  0  0  0  0
  8 15  1  0  0  0  0
  8  7  1  0  0  0  0
  9 18  1  0  0  0  0
  9  8  1  0  0  0  0
  9 10  1  0  0  0  0
 10 20  1  0  0  0  0
 10 11  1  0  0  0  0
 11 21  1  1  0  0  0
 11 22  1  0  0  0  0
 14  3  1  0  0  0  0
 16  8  1  0  0  0  0
 17  9  1  0  0  0  0
 19 10  1  0  0  0  0
 22 28  1  0  0  0  0
 23 22  2  0  0  0  0
 23 25  1  0  0  0  0
 24 23  1  0  0  0  0
 25 26  1  0  0  0  0
 26 27  1  0  0  0  0
 28 26  2  0  0  0  0
M  END
>  <minimizedAffinity>
-4.03006649

$$$$

 OpenBabel03262523203D

 28 30  0  0  1  0  0  0  0  0999 V2000
   35.4110   25.1780   31.1670 C   0  0  0  0  0  0  0  0  0  0  0  0
   35.5200   23.7820   31.1500 C   0  0  0  0  0  0  0  0  0  0  0  0
   36.5160   23.1980   31.9450 C   0  0  0  0  0  0  0  0  0  0  0  0
   37.3290   23.9960   32.6940 N   0  0  0  0  0  0  0  0  0  0  0  0
   37.1880   25.3400   32.6780 C   0  0  0  0  0  0  0  0  0  0  0  0
   36.2430   25.9380   31.9280 N   0  0  0  0  0  0  0  0  0  0  0  0
   38.0650   26.1340   33.4810 N   0  0  0  0  0  0  0  0  0  0  0  0
   38.1630   26.0140   34.9270 C   0  0  0  0  0  0  0  0  0  0  0  0
   39.4040   26.7550   35.2940 C   0  0  0  0  0  0  0  0  0  0  0  0
   40.0740   27.1320   33.9930 C   0  0  0  0  0  0  0  0  0  0  0  0
   38.9780   27.1630   32.9960 C   0  0  1  0  0  0  0  0  0  0  0  0
   34.6400   25.6110   30.5490 H   0  0  0  0  0  0  0  0  0  0  0  0
   34.8560   23.1780   30.5420 H   0  0  0  0  0  0  0  0  0  0  0  0
   36.5940   22.1330   31.9280 H   0  0  0  0  0  0  0  0  0  0  0  0
   37.3010   26.6290   35.3140 H   0  0  0  0  0  0  0  0  0  0  0  0
   38.0770   24.9980   35.3040 H   0  0  0  0  0  0  0  0  0  0  0  0
   40.0730   26.1180   35.9170 H   0  0  0  0  0  0  0  0  0  0  0  0
   39.2220   27.7070   35.8470 H   0  0  0  0  0  0  0  0  0  0  0  0
   40.7830   26.3260   33.6850 H   0  0  0  0  0  0  0  0  0  0  0  0
   40.6790   28.0440   34.0630 H   0  0  0  0  0  0  0  0  0  0  0  0
   38.4230   28.1110   33.0840 H   0  0  0  0  0  0  0  0  0  0  0  0
   39.4020   26.8930   31.6000 C   0  0  0  0  0  0  0  0  0  0  0  0
   39.0110   27.7570   30.5320 C   0  0  0  0  0  0  0  0  0  0  0  0
   38.3890   28.6600   30.6500 H   0  0  0  0  0  0  0  0  0  0  0  0
   39.7790   26.9900   29.0580 S   0  0  0  0  0  0  0  0  0  0  0  0
   40.5080   25.6120   30.1460 C   0  0  0  0  0  0  0  0  0  0  0  0
   41.1790   24.6630   29.9290 H   0  0  0  0  0  0  0  0  0  0  0  0
   40.1450   25.8890   31.1720 N   0  0  0  0  0  0  0  0  0  0  0  0
  1  6  1  0  0  0  0
  2  1  2  0  0  0  0
  2  3  1  0  0  0  0
  3  4  2  0  0  0  0
  5  4  1  0  0  0  0
  5  7  1  0  0  0  0
  6  5  2  0  0  0  0
  7  8  1  0  0  0  0
  8  9  1  0  0  0  0
  8 16  1  0  0  0  0
  8 15  1  0  0  0  0
  9 18  1  0  0  0  0
  9 17  1  0  0  0  0
 10 20  1  0  0  0  0
 10  9  1  0  0  0  0
 11 21  1  1  0  0  0
 11  7  1  0  0  0  0
 11 10  1  0  0  0  0
 12  1  1  0  0  0  0
 13  2  1  0  0  0  0
 14  3  1  0  0  0  0
 19 10  1  0  0  0  0
 22 11  1  0  0  0  0
 23 24  1  0  0  0  0
 23 22  2  0  0  0  0
 25 26  1  0  0  0  0
 25 23  1  0  0  0  0
 26 28  2  0  0  0  0
 27 26  1  0  0  0  0
 28 22  1  0  0  0  0
M  END
>  <minimizedAffinity>
-3.96517181

$$$$

 OpenBabel03262523203D

 28 30  0  0  1  0  0  0  0  0999 V2000
   37.4990   22.8360   31.5720 C   0  0  0  0  0  0  0  0  0  0  0  0
   36.2500   23.4470   31.4090 C   0  0  0  0  0  0  0  0  0  0  0  0
   36.1210   24.7830   31.8110 C   0  0  0  0  0  0  0  0  0  0  0  0
   37.1990   25.4300   32.3380 N   0  0  0  0  0  0  0  0  0  0  0  0
   38.3870   24.8000   32.4780 C   0  0  0  0  0  0  0  0  0  0  0  0
   38.5500   23.5170   32.1020 N   0  0  0  0  0  0  0  0  0  0  0  0
   39.4880   25.5210   33.0350 N   0  0  0  0  0  0  0  0  0  0  0  0
   40.0350   26.7360   32.4510 C   0  0  0  0  0  0  0  0  0  0  0  0
   40.9060   27.3190   33.5110 C   0  0  0  0  0  0  0  0  0  0  0  0
   40.6820   26.4840   34.7510 C   0  0  0  0  0  0  0  0  0  0  0  0
   40.2210   25.1700   34.2450 C   0  0  1  0  0  0  0  0  0  0  0  0
   37.5800   21.8070   31.2570 H   0  0  0  0  0  0  0  0  0  0  0  0
   35.4130   22.9010   30.9850 H   0  0  0  0  0  0  0  0  0  0  0  0
   35.1660   25.2430   31.6840 H   0  0  0  0  0  0  0  0  0  0  0  0
   40.7270   26.3640   31.6410 H   0  0  0  0  0  0  0  0  0  0  0  0
   39.2940   27.4010   32.0120 H   0  0  0  0  0  0  0  0  0  0  0  0
   40.6410   28.3860   33.6950 H   0  0  0  0  0  0  0  0  0  0  0  0
   41.9970   27.2690   33.2850 H   0  0  0  0  0  0  0  0  0  0  0  0
   39.8490   26.9200   35.3540 H   0  0  0  0  0  0  0  0  0  0  0  0
   41.5490   26.4590   35.4210 H   0  0  0  0  0  0  0  0  0  0  0  0
   41.0870   24.5800   33.9020 H   0  0  0  0  0  0  0  0  0  0  0  0
   39.3680   24.4070   35.1900 C   0  0  0  0  0  0  0  0  0  0  0  0
   38.4210   25.0720   36.0280 C   0  0  0  0  0  0  0  0  0  0  0  0
   38.2510   26.1610   36.0430 H   0  0  0  0  0  0  0  0  0  0  0  0
   37.6530   23.7050   36.9740 S   0  0  0  0  0  0  0  0  0  0  0  0
   38.7560   22.4490   36.0670 C   0  0  0  0  0  0  0  0  0  0  0  0
   38.8730   21.2730   36.1180 H   0  0  0  0  0  0  0  0  0  0  0  0
   39.3600   23.1010   35.3810 N   0  0  0  0  0  0  0  0  0  0  0  0
  1  6  1  0  0  0  0
  2  1  2  0  0  0  0
  2  3  1  0  0  0  0
  3  4  2  0  0  0  0
  4  5  1  0  0  0  0
  5  7  1  0  0  0  0
  6  5  2  0  0  0  0
  7 11  1  0  0  0  0
  8  7  1  0  0  0  0
  8  9  1  0  0  0  0
  9 17  1  0  0  0  0
  9 10  1  0  0  0  0
 10 19  1  0  0  0  0
 10 20  1  0  0  0  0
 11 21  1  6  0  0  0
 11 10  1  0  0  0  0
 11 22  1  0  0  0  0
 12  1  1  0  0  0  0
 13  2  1  0  0  0  0
 14  3  1  0  0  0  0
 15  8  1  0  0  0  0
 16  8  1  0  0  0  0
 18  9  1  0  0  0  0
 22 28  1  0  0  0  0
 22 23  2  0  0  0  0
 23 24  1  0  0  0  0
 23 25  1  0  0  0  0
 26 27  1  0  0  0  0
 26 25  1  0  0  0  0
 28 26  2  0  0  0  0
M  END
>  <minimizedAffinity>
-3.93859935

$$$$

 OpenBabel03262523203D

 28 30  0  0  1  0  0  0  0  0999 V2000
   36.5550   23.3500   31.2610 C   0  0  0  0  0  0  0  0  0  0  0  0
   37.7710   22.8490   30.7780 C   0  0  0  0  0  0  0  0  0  0  0  0
   38.9460   23.2580   31.4240 C   0  0  0  0  0  0  0  0  0  0  0  0
   38.8640   24.1130   32.4830 N   0  0  0  0  0  0  0  0  0  0  0  0
   37.6680   24.5720   32.9140 C   0  0  0  0  0  0  0  0  0  0  0  0
   36.5180   24.2020   32.3200 N   0  0  0  0  0  0  0  0  0  0  0  0
   37.6350   25.4660   34.0280 N   0  0  0  0  0  0  0  0  0  0  0  0
   38.1470   25.1310   35.3470 C   0  0  0  0  0  0  0  0  0  0  0  0
   38.2270   26.4300   36.0750 C   0  0  0  0  0  0  0  0  0  0  0  0
   37.9110   27.5050   35.0610 C   0  0  0  0  0  0  0  0  0  0  0  0
   37.0990   26.8230   34.0250 C   0  0  1  0  0  0  0  0  0  0  0  0
   35.6610   23.0250   30.7500 H   0  0  0  0  0  0  0  0  0  0  0  0
   37.7980   22.1700   29.9320 H   0  0  0  0  0  0  0  0  0  0  0  0
   39.8680   22.8730   31.0510 H   0  0  0  0  0  0  0  0  0  0  0  0
   37.3090   24.5490   35.8280 H   0  0  0  0  0  0  0  0  0  0  0  0
   39.0490   24.5230   35.3420 H   0  0  0  0  0  0  0  0  0  0  0  0
   39.2430   26.5770   36.5090 H   0  0  0  0  0  0  0  0  0  0  0  0
   37.4820   26.5390   36.8990 H   0  0  0  0  0  0  0  0  0  0  0  0
   38.8530   27.8510   34.5720 H   0  0  0  0  0  0  0  0  0  0  0  0
   37.4610   28.4020   35.5030 H   0  0  0  0  0  0  0  0  0  0  0  0
   36.0580   26.7270   34.3740 H   0  0  0  0  0  0  0  0  0  0  0  0
   37.1800   27.4320   32.6740 C   0  0  0  0  0  0  0  0  0  0  0  0
   36.0100   27.9170   32.0150 C   0  0  0  0  0  0  0  0  0  0  0  0
   34.9920   27.8830   32.4350 H   0  0  0  0  0  0  0  0  0  0  0  0
   36.6490   28.5500   30.4200 S   0  0  0  0  0  0  0  0  0  0  0  0
   38.4130   28.0440   30.9190 C   0  0  0  0  0  0  0  0  0  0  0  0
   39.4690   28.1210   30.3920 H   0  0  0  0  0  0  0  0  0  0  0  0
   38.2630   27.6000   31.9390 N   0  0  0  0  0  0  0  0  0  0  0  0
  1  6  1  0  0  0  0
  2  1  2  0  0  0  0
  2  3  1  0  0  0  0
  3  4  2  0  0  0  0
  4  5  1  0  0  0  0
  5  7  1  0  0  0  0
  6  5  2  0  0  0  0
  7  8  1  0  0  0  0
  8 15  1  0  0  0  0
  8  9  1  0  0  0  0
  9 17  1  0  0  0  0
  9 18  1  0  0  0  0
 10 20  1  0  0  0  0
 10  9  1  0  0  0  0
 11  7  1  0  0  0  0
 11 21  1  1  0  0  0
 11 10  1  0  0  0  0
 12  1  1  0  0  0  0
 13  2  1  0  0  0  0
 14  3  1  0  0  0  0
 16  8  1  0  0  0  0
 19 10  1  0  0  0  0
 22 11  1  0  0  0  0
 23 24  1  0  0  0  0
 23 22  2  0  0  0  0
 25 26  1  0  0  0  0
 25 23  1  0  0  0  0
 26 28  2  0  0  0  0
 27 26  1  0  0  0  0
 28 22  1  0  0  0  0
M  END
>  <minimizedAffinity>
-3.93714523

$$$$

 OpenBabel03262523203D

 28 30  0  0  1  0  0  0  0  0999 V2000
   37.2440   26.7190   33.4820 C   0  0  0  0  0  0  0  0  0  0  0  0
   36.8880   27.6050   34.5060 C   0  0  0  0  0  0  0  0  0  0  0  0
   37.8250   27.8370   35.5220 C   0  0  0  0  0  0  0  0  0  0  0  0
   39.0310   27.2010   35.4770 N   0  0  0  0  0  0  0  0  0  0  0  0
   39.3320   26.3520   34.4690 C   0  0  0  0  0  0  0  0  0  0  0  0
   38.4570   26.1050   33.4750 N   0  0  0  0  0  0  0  0  0  0  0  0
   40.6080   25.7100   34.4670 N   0  0  0  0  0  0  0  0  0  0  0  0
   41.8720   26.4290   34.4330 C   0  0  0  0  0  0  0  0  0  0  0  0
   42.9060   25.4150   34.7870 C   0  0  0  0  0  0  0  0  0  0  0  0
   42.1550   24.1650   35.1870 C   0  0  0  0  0  0  0  0  0  0  0  0
   40.8470   24.2720   34.4980 C   0  0  1  0  0  0  0  0  0  0  0  0
   36.5090   26.5520   32.7090 H   0  0  0  0  0  0  0  0  0  0  0  0
   35.9190   28.0940   34.5090 H   0  0  0  0  0  0  0  0  0  0  0  0
   37.5480   28.5140   36.2990 H   0  0  0  0  0  0  0  0  0  0  0  0
   42.0240   26.6690   33.3420 H   0  0  0  0  0  0  0  0  0  0  0  0
   41.8830   27.3530   35.0080 H   0  0  0  0  0  0  0  0  0  0  0  0
   43.5460   25.7800   35.6230 H   0  0  0  0  0  0  0  0  0  0  0  0
   43.5740   25.1290   33.9410 H   0  0  0  0  0  0  0  0  0  0  0  0
   41.9560   24.1790   36.2850 H   0  0  0  0  0  0  0  0  0  0  0  0
   42.7160   23.2420   35.0010 H   0  0  0  0  0  0  0  0  0  0  0  0
   40.9580   23.9710   33.4430 H   0  0  0  0  0  0  0  0  0  0  0  0
   39.7330   23.5550   35.1680 C   0  0  0  0  0  0  0  0  0  0  0  0
   38.8920   22.6580   34.4400 C   0  0  0  0  0  0  0  0  0  0  0  0
   38.9950   22.4320   33.3660 H   0  0  0  0  0  0  0  0  0  0  0  0
   37.7120   22.0590   35.7050 S   0  0  0  0  0  0  0  0  0  0  0  0
   38.5640   23.1350   37.0200 C   0  0  0  0  0  0  0  0  0  0  0  0
   38.3810   23.3190   38.1740 H   0  0  0  0  0  0  0  0  0  0  0  0
   39.3830   23.6350   36.4380 N   0  0  0  0  0  0  0  0  0  0  0  0
  1  2  1  0  0  0  0
  2 13  1  0  0  0  0
  2  3  2  0  0  0  0
  3 14  1  0  0  0  0
  4  3  1  0  0  0  0
  5  4  2  0  0  0  0
  6  1  2  0  0  0  0
  6  5  1  0  0  0  0
  7  5  1  0  0  0  0
  7 11  1  0  0  0  0
  8  7  1  0  0  0  0
  8  9  1  0  0  0  0
  8 16  1  0  0  0  0
  9 10  1  0  0  0  0
  9 17  1  0  0  0  0
 10 19  1  0  0  0  0
 11 21  1  6  0  0  0
 11 22  1  0  0  0  0
 11 10  1  0  0  0  0
 12  1  1  0  0  0  0
 15  8  1  0  0  0  0
 18  9  1  0  0  0  0
 20 10  1  0  0  0  0
 22 28  1  0  0  0  0
 23 22  2  0  0  0  0
 23 25  1  0  0  0  0
 24 23  1  0  0  0  0
 25 26  1  0  0  0  0
 26 27  1  0  0  0  0
 28 26  2  0  0  0  0
M  END
>  <minimizedAffinity>
-3.9209528

$$$$
