REMARK  Name = 
REMARK  2 active torsions:
REMARK  status: ('A' for Active; 'I' for Inactive)
REMARK    1  A    between atoms: C_2  and  C_8
REMARK    2  A    between atoms: C_3  and  C_15
REMARK                            x       y       z     vdW  Elec       q    Type
REMARK                         _______ _______ _______ _____ _____    ______ ____
ROOT
ATOM      1  C   UNL     1      35.622  29.011  50.176  0.00  0.00    +0.000 A 
ATOM      2  C   UNL     1      36.289  30.148  49.659  0.00  0.00    +0.000 A 
ATOM      3  C   UNL     1      36.037  30.505  48.337  0.00  0.00    +0.000 A 
ATOM      4  N   UNL     1      35.167  29.752  47.604  0.00  0.00    +0.000 NA
ATOM      5  C   UNL     1      34.547  28.663  48.143  0.00  0.00    +0.000 A 
ATOM      6  N   UNL     1      34.769  28.290  49.424  0.00  0.00    +0.000 NA
ATOM      7  N   UNL     1      33.688  28.026  47.211  0.00  0.00    +0.000 N 
ATOM      8  H   UNL     1      35.776  28.683  51.198  0.00  0.00    +0.000 HD
ATOM      9  H   UNL     1      32.690  28.264  46.970  0.00  0.00    +0.000 HD
ATOM     10  H   UNL     1      34.353  27.278  46.863  0.00  0.00    +0.000 HD
ENDROOT
BRANCH   3  11
ATOM     11  C   UNL     1      36.708  31.677  47.768  0.00  0.00    +0.000 A 
ATOM     12  C   UNL     1      36.678  31.807  46.383  0.00  0.00    +0.000 A 
ATOM     13  H   UNL     1      36.243  31.195  45.607  0.00  0.00    +0.000 HD
ATOM     14  S   UNL     1      37.607  33.363  46.089  0.00  0.00    +0.000 S 
ATOM     15  C   UNL     1      37.879  33.566  47.972  0.00  0.00    +0.000 A 
ATOM     16  H   UNL     1      38.407  34.347  48.624  0.00  0.00    +0.000 HD
ATOM     17  N   UNL     1      37.353  32.653  48.378  0.00  0.00    +0.000 NA
ENDBRANCH   3  11
BRANCH   2  18
ATOM     18  C   UNL     1      37.219  30.905  50.537  0.00  0.00    +0.000 C 
ATOM     19  F   UNL     1      38.533  30.792  50.097  0.00  0.00    +0.000 F 
ATOM     20  F   UNL     1      36.861  32.226  50.507  0.00  0.00    +0.000 F 
ATOM     21  F   UNL     1      37.182  30.474  51.848  0.00  0.00    +0.000 F 
ENDBRANCH   2  18
TORSDOF 2
