
 OpenBabel03272507553D

 21 22  0  0  0  0  0  0  0  0999 V2000
   34.9200   28.9340   50.1040 C   0  0  0  0  0  0  0  0  0  0  0  0
   36.0490   29.7150   49.7580 C   0  0  0  0  0  0  0  0  0  0  0  0
   36.0410   30.3600   48.5240 C   0  0  0  0  0  0  0  0  0  0  0  0
   34.9560   30.2150   47.7100 N   0  0  0  0  0  0  0  0  0  0  0  0
   33.8900   29.4510   48.0830 C   0  0  0  0  0  0  0  0  0  0  0  0
   33.8650   28.8120   49.2750 N   0  0  0  0  0  0  0  0  0  0  0  0
   32.8750   29.4350   47.0920 N   0  0  0  0  0  0  0  0  0  0  0  0
   34.8660   28.4080   51.0500 H   0  0  0  0  0  0  0  0  0  0  0  0
   32.1030   30.1340   46.9320 H   0  0  0  0  0  0  0  0  0  0  0  0
   33.1450   28.5360   46.5990 H   0  0  0  0  0  0  0  0  0  0  0  0
   37.1920   31.1790   48.1330 C   0  0  0  0  0  0  0  0  0  0  0  0
   37.9360   30.7360   47.0450 C   0  0  0  0  0  0  0  0  0  0  0  0
   37.8370   29.8760   46.3990 H   0  0  0  0  0  0  0  0  0  0  0  0
   39.2510   32.0090   46.8900 S   0  0  0  0  0  0  0  0  0  0  0  0
   38.5240   32.9500   48.3910 C   0  0  0  0  0  0  0  0  0  0  0  0
   38.8110   33.9110   48.9460 H   0  0  0  0  0  0  0  0  0  0  0  0
   37.6450   32.2980   48.6650 N   0  0  0  0  0  0  0  0  0  0  0  0
   37.1830   29.8130   50.7140 C   0  0  0  0  0  0  0  0  0  0  0  0
   38.4040   29.6560   50.0670 F   0  0  0  0  0  0  0  0  0  0  0  0
   37.1530   31.0530   51.2930 F   0  0  0  0  0  0  0  0  0  0  0  0
   37.1190   28.8640   51.7140 F   0  0  0  0  0  0  0  0  0  0  0  0
  1  8  1  0  0  0  0
  2  1  1  0  0  0  0
  2 18  1  0  0  0  0
  3  2  2  0  0  0  0
  4  5  2  0  0  0  0
  4  3  1  0  0  0  0
  5  6  1  0  0  0  0
  6  1  2  0  0  0  0
  7  5  1  0  0  0  0
  9  7  1  0  0  0  0
 10  7  1  0  0  0  0
 11  3  1  0  0  0  0
 11 17  1  0  0  0  0
 12 11  2  0  0  0  0
 13 12  1  0  0  0  0
 14 12  1  0  0  0  0
 14 15  1  0  0  0  0
 15 17  2  0  0  0  0
 15 16  1  0  0  0  0
 18 20  1  0  0  0  0
 18 21  1  0  0  0  0
 19 18  1  0  0  0  0
M  END
>  <minimizedAffinity>
-5.36938524

>  <minimizedRMSD>
1.18349051

$$$$
