
 OpenBabel03272509353D

 45 49  0  0  1  0  0  0  0  0999 V2000
   36.5670   33.0380   42.5530 C   0  0  1  0  0  0  0  0  0  0  0  0
   35.9320   33.8400   41.4730 C   0  0  0  0  0  0  0  0  0  0  0  0
   35.2060   32.6370   41.8230 C   0  0  2  0  0  0  0  0  0  0  0  0
   36.3920   33.1640   43.6110 H   0  0  0  0  0  0  0  0  0  0  0  0
   35.8280   34.8690   41.8100 H   0  0  0  0  0  0  0  0  0  0  0  0
   36.5410   33.8440   40.4930 H   0  0  0  0  0  0  0  0  0  0  0  0
   35.3320   31.6280   41.4490 H   0  0  0  0  0  0  0  0  0  0  0  0
   33.9380   32.9570   42.5620 C   0  0  0  0  0  0  0  0  0  0  0  0
   33.4530   34.2100   42.1520 C   0  0  0  0  0  0  0  0  0  0  0  0
   32.2440   34.6610   42.6190 C   0  0  0  0  0  0  0  0  0  0  0  0
   31.4700   33.8950   43.5030 C   0  0  0  0  0  0  0  0  0  0  0  0
   31.9830   32.6630   43.8840 C   0  0  0  0  0  0  0  0  0  0  0  0
   31.3380   31.8230   44.7490 C   0  0  0  0  0  0  0  0  0  0  0  0
   31.8370   30.6070   45.1440 C   0  0  0  0  0  0  0  0  0  0  0  0
   33.0570   30.2000   44.6460 C   0  0  0  0  0  0  0  0  0  0  0  0
   33.7160   31.0410   43.7730 C   0  0  0  0  0  0  0  0  0  0  0  0
   33.1760   32.2580   43.4030 C   0  0  0  0  0  0  0  0  0  0  0  0
   33.7750   34.9980   41.5030 H   0  0  0  0  0  0  0  0  0  0  0  0
   31.7170   35.5800   42.4210 H   0  0  0  0  0  0  0  0  0  0  0  0
   30.5080   34.1320   43.9420 H   0  0  0  0  0  0  0  0  0  0  0  0
   30.3730   32.1020   45.1670 H   0  0  0  0  0  0  0  0  0  0  0  0
   31.2900   29.9710   45.8340 H   0  0  0  0  0  0  0  0  0  0  0  0
   33.5090   29.2590   44.9120 H   0  0  0  0  0  0  0  0  0  0  0  0
   34.6910   30.6980   43.3840 H   0  0  0  0  0  0  0  0  0  0  0  0
   39.5610   31.6030   40.7650 C   0  0  0  0  0  0  0  0  0  0  0  0
   38.5000   32.4930   41.1250 C   0  0  0  0  0  0  0  0  0  0  0  0
   37.6850   32.1430   42.1620 C   0  0  0  0  0  0  0  0  0  0  0  0
   37.9590   30.9420   42.7840 N   0  0  0  0  0  0  0  0  0  0  0  0
   38.9550   30.1230   42.4350 C   0  0  0  0  0  0  0  0  0  0  0  0
   39.7720   30.4410   41.4200 N   0  0  0  0  0  0  0  0  0  0  0  0
   40.1610   31.9520   39.9350 H   0  0  0  0  0  0  0  0  0  0  0  0
   38.3380   33.4080   40.6070 H   0  0  0  0  0  0  0  0  0  0  0  0
   39.1250   28.8510   43.2190 C   0  0  0  0  0  0  0  0  0  0  0  0
   39.5330   29.0320   44.2100 H   0  0  0  0  0  0  0  0  0  0  0  0
   38.1180   28.3590   43.2520 H   0  0  0  0  0  0  0  0  0  0  0  0
   40.0370   27.9320   42.3900 C   0  0  0  0  0  0  0  0  0  0  0  0
   41.0140   27.8700   42.9550 H   0  0  0  0  0  0  0  0  0  0  0  0
   40.2920   28.4000   41.4410 H   0  0  0  0  0  0  0  0  0  0  0  0
   39.4360   26.5700   42.2750 C   0  0  0  0  0  0  0  0  0  0  0  0
   39.2130   25.9320   40.9900 C   0  0  0  0  0  0  0  0  0  0  0  0
   39.4730   26.4180   40.0790 H   0  0  0  0  0  0  0  0  0  0  0  0
   38.4890   24.3580   41.5120 S   0  0  0  0  0  0  0  0  0  0  0  0
   38.6000   24.8070   43.3700 C   0  0  0  0  0  0  0  0  0  0  0  0
   38.2760   24.1670   44.2030 H   0  0  0  0  0  0  0  0  0  0  0  0
   39.1180   25.9740   43.4050 N   0  0  0  0  0  0  0  0  0  0  0  0
  1  4  1  1  0  0  0
  2  5  1  0  0  0  0
  2  3  1  0  0  0  0
  2  1  1  0  0  0  0
  3  7  1  6  0  0  0
  3  1  1  0  0  0  0
  3  8  1  0  0  0  0
  6  2  1  0  0  0  0
  8 17  1  0  0  0  0
  9  8  2  0  0  0  0
  9 10  1  0  0  0  0
 10 11  2  0  0  0  0
 11 12  1  0  0  0  0
 11 20  1  0  0  0  0
 12 13  1  0  0  0  0
 13 14  2  0  0  0  0
 13 21  1  0  0  0  0
 14 22  1  0  0  0  0
 15 23  1  0  0  0  0
 15 14  1  0  0  0  0
 16 15  2  0  0  0  0
 17 16  1  0  0  0  0
 17 12  2  0  0  0  0
 18  9  1  0  0  0  0
 19 10  1  0  0  0  0
 24 16  1  0  0  0  0
 25 26  2  0  0  0  0
 25 30  1  0  0  0  0
 26 27  1  0  0  0  0
 27  1  1  0  0  0  0
 27 28  2  0  0  0  0
 29 28  1  0  0  0  0
 29 33  1  0  0  0  0
 30 29  2  0  0  0  0
 31 25  1  0  0  0  0
 32 26  1  0  0  0  0
 33 35  1  0  0  0  0
 33 34  1  0  0  0  0
 36 37  1  0  0  0  0
 36 33  1  0  0  0  0
 38 36  1  0  0  0  0
 39 36  1  0  0  0  0
 39 45  1  0  0  0  0
 40 42  1  0  0  0  0
 40 39  2  0  0  0  0
 41 40  1  0  0  0  0
 42 43  1  0  0  0  0
 43 45  2  0  0  0  0
 43 44  1  0  0  0  0
M  END
>  <minimizedAffinity>
-3.69646978

>  <minimizedRMSD>
9.13285255

$$$$
