
 OpenBabel03272507523D

 30 32  0  0  0  0  0  0  0  0999 V2000
   36.4690   31.1990   48.7380 N   0  0  0  0  0  0  0  0  0  0  0  0
   36.7390   32.0510   49.7210 C   0  0  0  0  0  0  0  0  0  0  0  0
   37.8020   32.9460   49.5860 C   0  0  0  0  0  0  0  0  0  0  0  0
   38.4860   32.8560   48.4140 C   0  0  0  0  0  0  0  0  0  0  0  0
   39.4490   33.6750   48.3040 O   0  0  0  0  0  0  0  0  0  0  0  0
   38.2480   32.0210   47.4100 N   0  0  0  0  0  0  0  0  0  0  0  0
   37.2070   31.1700   47.5850 C   0  0  0  0  0  0  0  0  0  0  0  0
   36.9650   30.3610   46.6300 O   0  0  0  0  0  0  0  0  0  0  0  0
   36.1340   32.0460   50.6200 H   0  0  0  0  0  0  0  0  0  0  0  0
   38.0400   33.6440   50.3680 H   0  0  0  0  0  0  0  0  0  0  0  0
   35.2450   29.5230   49.9990 C   0  0  0  0  0  0  0  0  0  0  0  0
   35.3970   30.2450   48.8010 C   0  0  0  0  0  0  0  0  0  0  0  0
   34.5130   30.0000   47.7450 C   0  0  0  0  0  0  0  0  0  0  0  0
   33.5450   29.0690   47.9310 N   0  0  0  0  0  0  0  0  0  0  0  0
   33.4040   28.3900   49.0570 C   0  0  0  0  0  0  0  0  0  0  0  0
   34.2460   28.6160   50.0800 N   0  0  0  0  0  0  0  0  0  0  0  0
   34.6580   30.5770   46.8310 H   0  0  0  0  0  0  0  0  0  0  0  0
   32.6280   27.6510   49.1910 H   0  0  0  0  0  0  0  0  0  0  0  0
   37.3890   29.2140   51.4500 C   0  0  0  0  0  0  0  0  0  0  0  0
   38.0600   28.5380   50.6420 O   0  0  0  0  0  0  0  0  0  0  0  0
   36.0720   29.6980   51.1300 N   0  0  0  0  0  0  0  0  0  0  0  0
   37.8650   29.4080   52.3980 H   0  0  0  0  0  0  0  0  0  0  0  0
   35.7020   30.2960   51.9260 H   0  0  0  0  0  0  0  0  0  0  0  0
   39.0260   31.9930   46.1970 C   0  0  0  0  0  0  0  0  0  0  0  0
   40.1670   31.1480   45.9900 C   0  0  0  0  0  0  0  0  0  0  0  0
   40.4960   30.4860   46.7470 H   0  0  0  0  0  0  0  0  0  0  0  0
   40.6570   31.5800   44.3490 S   0  0  0  0  0  0  0  0  0  0  0  0
   39.2500   32.8550   44.1480 C   0  0  0  0  0  0  0  0  0  0  0  0
   39.0880   33.4490   43.2520 H   0  0  0  0  0  0  0  0  0  0  0  0
   38.6840   32.7890   45.2000 N   0  0  0  0  0  0  0  0  0  0  0  0
  1 12  1  0  0  0  0
  1  2  1  0  0  0  0
  2  9  1  0  0  0  0
  3  2  2  0  0  0  0
  3 10  1  0  0  0  0
  4  3  1  0  0  0  0
  5  4  2  0  0  0  0
  6  7  1  0  0  0  0
  6  4  1  0  0  0  0
  7  1  1  0  0  0  0
  8  7  2  0  0  0  0
 11 16  1  0  0  0  0
 11 21  1  0  0  0  0
 12 11  2  0  0  0  0
 13 14  2  0  0  0  0
 13 12  1  0  0  0  0
 14 15  1  0  0  0  0
 15 18  1  0  0  0  0
 15 16  2  0  0  0  0
 17 13  1  0  0  0  0
 19 22  1  0  0  0  0
 20 19  2  0  0  0  0
 21 19  1  0  0  0  0
 21 23  1  0  0  0  0
 24  6  1  0  0  0  0
 25 24  2  0  0  0  0
 25 26  1  0  0  0  0
 27 25  1  0  0  0  0
 28 27  1  0  0  0  0
 28 30  2  0  0  0  0
 29 28  1  0  0  0  0
 30 24  1  0  0  0  0
M  END
>  <minimizedAffinity>
-5.87905121

>  <minimizedRMSD>
1.25883293

$$$$
