REMARK  Name = 
REMARK  7 active torsions:
REMARK  status: ('A' for Active; 'I' for Inactive)
REMARK    1  A    between atoms: C_1  and  C_2
REMARK    2  A    between atoms: C_1  and  C_8
REMARK    3  A    between atoms: C_8  and  O_9
REMARK    4  A    between atoms: O_9  and  P_11
REMARK    5  A    between atoms: P_11  and  O_12
REMARK    6  A    between atoms: P_11  and  O_13
REMARK    7  A    between atoms: O_13  and  C_22
REMARK                            x       y       z     vdW  Elec       q    Type
REMARK                         _______ _______ _______ _____ _____    ______ ____
ROOT
ATOM      1  C   UNL     1      36.953  29.255  50.618  0.00  0.00    +0.000 C 
ATOM      2  H   UNL     1      37.483  28.344  50.969  0.00  0.00    +0.000 HD
ATOM      3  H   UNL     1      36.765  29.108  49.522  0.00  0.00    +0.000 HD
ENDROOT
BRANCH   1   4
ATOM      4  C   UNL     1      37.720  30.517  50.829  0.00  0.00    +0.000 C 
ATOM      5  H   UNL     1      37.220  31.197  51.559  0.00  0.00    +0.000 HD
ATOM      6  H   UNL     1      38.680  30.220  51.345  0.00  0.00    +0.000 HD
BRANCH   4   7
ATOM      7  C   UNL     1      38.108  31.210  49.612  0.00  0.00    +0.000 A 
ATOM      8  C   UNL     1      38.551  32.516  49.602  0.00  0.00    +0.000 A 
ATOM      9  C   UNL     1      38.903  33.101  48.376  0.00  0.00    +0.000 A 
ATOM     10  N   UNL     1      38.783  32.328  47.246  0.00  0.00    +0.000 NA
ATOM     11  C   UNL     1      38.343  31.046  47.294  0.00  0.00    +0.000 A 
ATOM     12  N   UNL     1      38.008  30.503  48.498  0.00  0.00    +0.000 NA
ATOM     13  H   UNL     1      38.629  33.087  50.516  0.00  0.00    +0.000 HD
ATOM     14  H   UNL     1      39.257  34.123  48.309  0.00  0.00    +0.000 HD
ATOM     15  H   UNL     1      38.271  30.487  46.362  0.00  0.00    +0.000 HD
ENDBRANCH   4   7
ENDBRANCH   1   4
BRANCH   1  16
ATOM     16  O   UNL     1      35.704  29.398  51.232  0.00  0.00    +0.000 OA
BRANCH  16  18
ATOM     17  O   UNL     1      34.682  30.550  49.136  0.00  0.00    +0.000 OA
ATOM     18  P   UNL     1      34.458  29.377  50.103  0.00  0.00    +0.000 P 
BRANCH  18  19
ATOM     19  O   UNL     1      32.969  29.662  50.816  0.00  0.00    +0.000 OA
ATOM     20  H   UNL     1      32.812  29.190  51.654  0.00  0.00    +0.000 HD
ENDBRANCH  18  19
BRANCH  18  21
ATOM     21  O   UNL     1      34.397  27.923  49.277  0.00  0.00    +0.000 OA
BRANCH  21  22
ATOM     22  C   UNL     1      33.434  27.748  48.261  0.00  0.00    +0.000 A 
ATOM     23  C   UNL     1      32.897  28.785  47.429  0.00  0.00    +0.000 A 
ATOM     24  H   UNL     1      33.211  29.738  47.552  0.00  0.00    +0.000 HD
ATOM     25  S   UNL     1      31.761  27.835  46.403  0.00  0.00    +0.000 S 
ATOM     26  C   UNL     1      32.199  26.178  47.270  0.00  0.00    +0.000 A 
ATOM     27  H   UNL     1      31.757  25.177  47.017  0.00  0.00    +0.000 HD
ATOM     28  N   UNL     1      33.130  26.463  48.226  0.00  0.00    +0.000 NA
ENDBRANCH  21  22
ENDBRANCH  18  21
ENDBRANCH  16  18
ENDBRANCH   1  16
TORSDOF 7
