
 OpenBabel03272506413D

 17 18  0  0  0  0  0  0  0  0999 V2000
   37.2430   30.2870   51.3050 C   0  0  0  0  0  0  0  0  0  0  0  0
   38.1020   30.8360   50.3350 C   0  0  0  0  0  0  0  0  0  0  0  0
   37.8460   30.5320   48.9960 C   0  0  0  0  0  0  0  0  0  0  0  0
   36.7870   29.7280   48.7070 N   0  0  0  0  0  0  0  0  0  0  0  0
   35.9850   29.2200   49.6680 C   0  0  0  0  0  0  0  0  0  0  0  0
   36.1980   29.4880   50.9590 N   0  0  0  0  0  0  0  0  0  0  0  0
   37.3930   30.4900   52.3690 H   0  0  0  0  0  0  0  0  0  0  0  0
   38.9060   31.4550   50.6520 H   0  0  0  0  0  0  0  0  0  0  0  0
   38.4940   30.9430   48.2280 H   0  0  0  0  0  0  0  0  0  0  0  0
   34.5990   28.1670   49.2720 S   0  0  0  0  0  0  0  0  0  0  0  0
   33.6320   28.8860   47.9240 C   0  0  0  0  0  0  0  0  0  0  0  0
   32.4750   28.1140   47.5150 C   0  0  0  0  0  0  0  0  0  0  0  0
   32.0870   27.2040   47.8600 H   0  0  0  0  0  0  0  0  0  0  0  0
   31.8290   29.2410   46.1360 S   0  0  0  0  0  0  0  0  0  0  0  0
   33.2380   30.4830   46.4080 C   0  0  0  0  0  0  0  0  0  0  0  0
   33.3460   31.3890   45.8280 H   0  0  0  0  0  0  0  0  0  0  0  0
   33.8800   30.0160   47.2960 N   0  0  0  0  0  0  0  0  0  0  0  0
  1  7  1  0  0  0  0
  2  8  1  0  0  0  0
  2  1  2  0  0  0  0
  3  2  1  0  0  0  0
  4  3  2  0  0  0  0
  4  5  1  0  0  0  0
  5  6  2  0  0  0  0
  6  1  1  0  0  0  0
  9  3  1  0  0  0  0
 10  5  1  0  0  0  0
 11 10  1  0  0  0  0
 12 13  1  0  0  0  0
 12 11  2  0  0  0  0
 14 15  1  0  0  0  0
 14 12  1  0  0  0  0
 15 17  2  0  0  0  0
 16 15  1  0  0  0  0
 17 11  1  0  0  0  0
M  END
>  <minimizedAffinity>
-3.82377625

>  <minimizedRMSD>
1.43337834

$$$$
