
 OpenBabel03272500233D

 35 37  0  0  0  0  0  0  0  0999 V2000
   38.0780   26.0920   36.7720 C   0  0  0  0  0  0  0  0  0  0  0  0
   38.2790   24.6810   36.7750 C   0  0  0  0  0  0  0  0  0  0  0  0
   38.4390   24.0450   35.5540 C   0  0  0  0  0  0  0  0  0  0  0  0
   38.3950   24.8080   34.4150 N   0  0  0  0  0  0  0  0  0  0  0  0
   38.2090   26.1080   34.4320 C   0  0  0  0  0  0  0  0  0  0  0  0
   38.0500   26.7630   35.5970 N   0  0  0  0  0  0  0  0  0  0  0  0
   37.9550   26.5820   37.7340 H   0  0  0  0  0  0  0  0  0  0  0  0
   35.9970   28.1610   34.2040 Cl  0  0  0  0  0  0  0  0  0  0  0  0
   37.1920   27.8320   32.9500 C   0  0  0  0  0  0  0  0  0  0  0  0
   38.1730   26.8610   33.1660 C   0  0  0  0  0  0  0  0  0  0  0  0
   39.1460   26.5580   32.2120 C   0  0  0  0  0  0  0  0  0  0  0  0
   39.0680   27.2950   31.0240 C   0  0  0  0  0  0  0  0  0  0  0  0
   38.1200   28.2440   30.7930 C   0  0  0  0  0  0  0  0  0  0  0  0
   38.1470   29.0910   29.2520 Cl  0  0  0  0  0  0  0  0  0  0  0  0
   37.1780   28.5110   31.7640 C   0  0  0  0  0  0  0  0  0  0  0  0
   39.9050   25.8120   32.3690 H   0  0  0  0  0  0  0  0  0  0  0  0
   39.8250   27.0580   30.2830 H   0  0  0  0  0  0  0  0  0  0  0  0
   36.1430   29.5430   31.5300 C   0  0  0  0  0  0  0  0  0  0  0  0
   36.4000   30.6790   32.3000 F   0  0  0  0  0  0  0  0  0  0  0  0
   34.8750   29.0860   31.7950 F   0  0  0  0  0  0  0  0  0  0  0  0
   36.1720   29.9440   30.2140 F   0  0  0  0  0  0  0  0  0  0  0  0
   38.3040   23.9800   38.0830 C   0  0  0  0  0  0  0  0  0  0  0  0
   39.5360   23.3570   38.2830 F   0  0  0  0  0  0  0  0  0  0  0  0
   38.1630   24.9220   39.0810 F   0  0  0  0  0  0  0  0  0  0  0  0
   37.3010   23.0570   38.2320 F   0  0  0  0  0  0  0  0  0  0  0  0
   38.6580   22.6000   35.5290 C   0  0  0  0  0  0  0  0  0  0  0  0
   38.9130   22.1590   36.5240 H   0  0  0  0  0  0  0  0  0  0  0  0
   39.4780   22.3830   34.8180 H   0  0  0  0  0  0  0  0  0  0  0  0
   37.4600   21.8460   35.0640 C   0  0  0  0  0  0  0  0  0  0  0  0
   37.2840   21.6000   33.6560 C   0  0  0  0  0  0  0  0  0  0  0  0
   37.9230   21.9090   32.8690 H   0  0  0  0  0  0  0  0  0  0  0  0
   35.7160   20.6470   33.6200 S   0  0  0  0  0  0  0  0  0  0  0  0
   35.5670   20.7450   35.5190 C   0  0  0  0  0  0  0  0  0  0  0  0
   34.7780   20.3350   36.2180 H   0  0  0  0  0  0  0  0  0  0  0  0
   36.5080   21.3460   35.8400 N   0  0  0  0  0  0  0  0  0  0  0  0
  1  2  1  0  0  0  0
  1  7  1  0  0  0  0
  2 22  1  0  0  0  0
  3  2  2  0  0  0  0
  4  5  2  0  0  0  0
  4  3  1  0  0  0  0
  5  6  1  0  0  0  0
  6  1  2  0  0  0  0
  9 10  1  0  0  0  0
  9  8  1  0  0  0  0
 10  5  1  0  0  0  0
 11 16  1  0  0  0  0
 11 10  2  0  0  0  0
 12 11  1  0  0  0  0
 13 12  2  0  0  0  0
 13 15  1  0  0  0  0
 14 13  1  0  0  0  0
 15  9  2  0  0  0  0
 17 12  1  0  0  0  0
 18 15  1  0  0  0  0
 18 20  1  0  0  0  0
 18 19  1  0  0  0  0
 21 18  1  0  0  0  0
 22 25  1  0  0  0  0
 22 23  1  0  0  0  0
 22 24  1  0  0  0  0
 26  3  1  0  0  0  0
 26 27  1  0  0  0  0
 28 26  1  0  0  0  0
 29 26  1  0  0  0  0
 29 35  1  0  0  0  0
 30 29  2  0  0  0  0
 31 30  1  0  0  0  0
 32 30  1  0  0  0  0
 32 33  1  0  0  0  0
 33 35  2  0  0  0  0
 33 34  1  0  0  0  0
M  END
>  <minimizedAffinity>
-6.40118408

$$$$

 OpenBabel03272500233D

 35 37  0  0  0  0  0  0  0  0999 V2000
   37.7300   25.7510   33.5100 C   0  0  0  0  0  0  0  0  0  0  0  0
   38.2660   25.5460   34.8150 C   0  0  0  0  0  0  0  0  0  0  0  0
   38.5180   24.2430   35.2170 C   0  0  0  0  0  0  0  0  0  0  0  0
   38.2370   23.2280   34.3380 N   0  0  0  0  0  0  0  0  0  0  0  0
   37.7420   23.4370   33.1390 C   0  0  0  0  0  0  0  0  0  0  0  0
   37.4850   24.6870   32.7110 N   0  0  0  0  0  0  0  0  0  0  0  0
   37.5370   26.7750   33.2040 H   0  0  0  0  0  0  0  0  0  0  0  0
   35.6670   21.4790   34.1480 Cl  0  0  0  0  0  0  0  0  0  0  0  0
   36.5280   21.3260   32.6170 C   0  0  0  0  0  0  0  0  0  0  0  0
   37.4660   22.2950   32.2500 C   0  0  0  0  0  0  0  0  0  0  0  0
   38.1770   22.2280   31.0510 C   0  0  0  0  0  0  0  0  0  0  0  0
   37.8840   21.1230   30.2440 C   0  0  0  0  0  0  0  0  0  0  0  0
   36.9750   20.1680   30.5820 C   0  0  0  0  0  0  0  0  0  0  0  0
   36.7110   18.8350   29.4650 Cl  0  0  0  0  0  0  0  0  0  0  0  0
   36.2950   20.2730   31.7780 C   0  0  0  0  0  0  0  0  0  0  0  0
   38.9020   22.9690   30.7600 H   0  0  0  0  0  0  0  0  0  0  0  0
   38.4380   21.0710   29.3110 H   0  0  0  0  0  0  0  0  0  0  0  0
   35.3010   19.2450   32.1590 C   0  0  0  0  0  0  0  0  0  0  0  0
   34.0040   19.7180   31.9520 F   0  0  0  0  0  0  0  0  0  0  0  0
   35.4390   18.8390   33.4640 F   0  0  0  0  0  0  0  0  0  0  0  0
   35.4480   18.1340   31.3610 F   0  0  0  0  0  0  0  0  0  0  0  0
   38.5210   26.7370   35.6620 C   0  0  0  0  0  0  0  0  0  0  0  0
   39.8670   27.1030   35.6030 F   0  0  0  0  0  0  0  0  0  0  0  0
   37.7950   27.7930   35.1530 F   0  0  0  0  0  0  0  0  0  0  0  0
   38.1560   26.5690   36.9730 F   0  0  0  0  0  0  0  0  0  0  0  0
   39.0780   24.0060   36.5460 C   0  0  0  0  0  0  0  0  0  0  0  0
   38.4030   23.4390   37.2330 H   0  0  0  0  0  0  0  0  0  0  0  0
   39.3200   24.9840   37.0030 H   0  0  0  0  0  0  0  0  0  0  0  0
   40.3410   23.2160   36.5020 C   0  0  0  0  0  0  0  0  0  0  0  0
   41.4330   23.6750   35.6830 C   0  0  0  0  0  0  0  0  0  0  0  0
   41.4520   24.5400   35.0710 H   0  0  0  0  0  0  0  0  0  0  0  0
   42.7150   22.3980   35.9920 S   0  0  0  0  0  0  0  0  0  0  0  0
   41.5520   21.4600   37.1780 C   0  0  0  0  0  0  0  0  0  0  0  0
   41.7140   20.5100   37.7690 H   0  0  0  0  0  0  0  0  0  0  0  0
   40.5810   22.0980   37.1750 N   0  0  0  0  0  0  0  0  0  0  0  0
  1  2  1  0  0  0  0
  2  3  2  0  0  0  0
  2 22  1  0  0  0  0
  3 26  1  0  0  0  0
  4  3  1  0  0  0  0
  5  4  2  0  0  0  0
  6  5  1  0  0  0  0
  6  1  2  0  0  0  0
  7  1  1  0  0  0  0
  9  8  1  0  0  0  0
 10  9  1  0  0  0  0
 10  5  1  0  0  0  0
 11 10  2  0  0  0  0
 12 13  2  0  0  0  0
 12 11  1  0  0  0  0
 13 15  1  0  0  0  0
 14 13  1  0  0  0  0
 15 18  1  0  0  0  0
 15  9  2  0  0  0  0
 16 11  1  0  0  0  0
 17 12  1  0  0  0  0
 18 20  1  0  0  0  0
 19 18  1  0  0  0  0
 21 18  1  0  0  0  0
 22 25  1  0  0  0  0
 23 22  1  0  0  0  0
 24 22  1  0  0  0  0
 26 28  1  0  0  0  0
 26 27  1  0  0  0  0
 29 26  1  0  0  0  0
 29 35  1  0  0  0  0
 30 32  1  0  0  0  0
 30 29  2  0  0  0  0
 31 30  1  0  0  0  0
 32 33  1  0  0  0  0
 33 34  1  0  0  0  0
 35 33  2  0  0  0  0
M  END
>  <minimizedAffinity>
-6.10070705

$$$$

 OpenBabel03272500233D

 35 37  0  0  0  0  0  0  0  0999 V2000
   36.6590   29.7440   31.1370 C   0  0  0  0  0  0  0  0  0  0  0  0
   37.3710   28.5460   31.4390 C   0  0  0  0  0  0  0  0  0  0  0  0
   36.9630   27.8070   32.5390 C   0  0  0  0  0  0  0  0  0  0  0  0
   35.8990   28.2680   33.2710 N   0  0  0  0  0  0  0  0  0  0  0  0
   35.2550   29.3750   32.9770 C   0  0  0  0  0  0  0  0  0  0  0  0
   35.6200   30.1210   31.9180 N   0  0  0  0  0  0  0  0  0  0  0  0
   36.9860   30.3150   30.2740 H   0  0  0  0  0  0  0  0  0  0  0  0
   35.9940   30.9370   35.4620 Cl  0  0  0  0  0  0  0  0  0  0  0  0
   34.3450   30.5320   34.9860 C   0  0  0  0  0  0  0  0  0  0  0  0
   34.1210   29.8080   33.8130 C   0  0  0  0  0  0  0  0  0  0  0  0
   32.8390   29.4590   33.3840 C   0  0  0  0  0  0  0  0  0  0  0  0
   31.7950   29.8870   34.2130 C   0  0  0  0  0  0  0  0  0  0  0  0
   31.9920   30.5940   35.3600 C   0  0  0  0  0  0  0  0  0  0  0  0
   30.5810   31.0650   36.3000 Cl  0  0  0  0  0  0  0  0  0  0  0  0
   33.2760   30.9160   35.7460 C   0  0  0  0  0  0  0  0  0  0  0  0
   32.6560   28.9010   32.4820 H   0  0  0  0  0  0  0  0  0  0  0  0
   30.7980   29.6150   33.8790 H   0  0  0  0  0  0  0  0  0  0  0  0
   33.5060   31.6860   36.9880 C   0  0  0  0  0  0  0  0  0  0  0  0
   32.9270   32.9540   36.8930 F   0  0  0  0  0  0  0  0  0  0  0  0
   34.8400   31.8120   37.2900 F   0  0  0  0  0  0  0  0  0  0  0  0
   32.8990   31.0550   38.0490 F   0  0  0  0  0  0  0  0  0  0  0  0
   38.5040   28.1650   30.5600 C   0  0  0  0  0  0  0  0  0  0  0  0
   38.1650   27.0680   29.7680 F   0  0  0  0  0  0  0  0  0  0  0  0
   38.7600   29.2160   29.7050 F   0  0  0  0  0  0  0  0  0  0  0  0
   39.6620   27.8890   31.2430 F   0  0  0  0  0  0  0  0  0  0  0  0
   37.6690   26.5690   32.8630 C   0  0  0  0  0  0  0  0  0  0  0  0
   37.7820   26.3810   33.9600 H   0  0  0  0  0  0  0  0  0  0  0  0
   38.6730   26.6070   32.3990 H   0  0  0  0  0  0  0  0  0  0  0  0
   36.9810   25.3600   32.3300 C   0  0  0  0  0  0  0  0  0  0  0  0
   37.4710   24.0530   32.6870 C   0  0  0  0  0  0  0  0  0  0  0  0
   38.3040   23.8310   33.3040 H   0  0  0  0  0  0  0  0  0  0  0  0
   36.2980   22.9450   31.8130 S   0  0  0  0  0  0  0  0  0  0  0  0
   35.3440   24.4410   31.1120 C   0  0  0  0  0  0  0  0  0  0  0  0
   34.4370   24.4860   30.4400 H   0  0  0  0  0  0  0  0  0  0  0  0
   35.9160   25.3580   31.5390 N   0  0  0  0  0  0  0  0  0  0  0  0
  1  2  2  0  0  0  0
  1  6  1  0  0  0  0
  2  3  1  0  0  0  0
  3 26  1  0  0  0  0
  3  4  2  0  0  0  0
  5  4  1  0  0  0  0
  5 10  1  0  0  0  0
  6  5  2  0  0  0  0
  7  1  1  0  0  0  0
  9  8  1  0  0  0  0
  9 15  1  0  0  0  0
 10  9  2  0  0  0  0
 11 10  1  0  0  0  0
 11 12  2  0  0  0  0
 12 13  1  0  0  0  0
 13 15  2  0  0  0  0
 13 14  1  0  0  0  0
 15 18  1  0  0  0  0
 16 11  1  0  0  0  0
 17 12  1  0  0  0  0
 18 20  1  0  0  0  0
 18 21  1  0  0  0  0
 19 18  1  0  0  0  0
 22 25  1  0  0  0  0
 22  2  1  0  0  0  0
 23 22  1  0  0  0  0
 24 22  1  0  0  0  0
 26 27  1  0  0  0  0
 28 26  1  0  0  0  0
 29 30  2  0  0  0  0
 29 26  1  0  0  0  0
 30 31  1  0  0  0  0
 32 30  1  0  0  0  0
 33 35  2  0  0  0  0
 33 32  1  0  0  0  0
 34 33  1  0  0  0  0
 35 29  1  0  0  0  0
M  END
>  <minimizedAffinity>
-5.9236064

$$$$

 OpenBabel03272500233D

 35 37  0  0  0  0  0  0  0  0999 V2000
   38.0640   25.9800   36.6160 C   0  0  0  0  0  0  0  0  0  0  0  0
   38.1500   24.5580   36.6690 C   0  0  0  0  0  0  0  0  0  0  0  0
   38.1320   23.8610   35.4700 C   0  0  0  0  0  0  0  0  0  0  0  0
   38.0350   24.5780   34.3050 N   0  0  0  0  0  0  0  0  0  0  0  0
   37.9580   25.8900   34.2770 C   0  0  0  0  0  0  0  0  0  0  0  0
   37.9720   26.6020   35.4180 N   0  0  0  0  0  0  0  0  0  0  0  0
   38.0800   26.5170   37.5600 H   0  0  0  0  0  0  0  0  0  0  0  0
   40.5920   26.5280   32.9320 Cl  0  0  0  0  0  0  0  0  0  0  0  0
   39.0070   26.9390   32.2770 C   0  0  0  0  0  0  0  0  0  0  0  0
   37.8540   26.5910   32.9850 C   0  0  0  0  0  0  0  0  0  0  0  0
   36.5730   26.8870   32.5160 C   0  0  0  0  0  0  0  0  0  0  0  0
   36.5260   27.5580   31.2890 C   0  0  0  0  0  0  0  0  0  0  0  0
   37.6370   27.9070   30.5840 C   0  0  0  0  0  0  0  0  0  0  0  0
   37.4230   28.7470   29.0530 Cl  0  0  0  0  0  0  0  0  0  0  0  0
   38.8840   27.5940   31.0840 C   0  0  0  0  0  0  0  0  0  0  0  0
   35.6790   26.6240   33.0550 H   0  0  0  0  0  0  0  0  0  0  0  0
   35.5290   27.7890   30.9260 H   0  0  0  0  0  0  0  0  0  0  0  0
   40.1010   27.9630   30.3280 C   0  0  0  0  0  0  0  0  0  0  0  0
   40.3430   27.0400   29.3080 F   0  0  0  0  0  0  0  0  0  0  0  0
   41.2110   28.0610   31.1320 F   0  0  0  0  0  0  0  0  0  0  0  0
   39.9210   29.1840   29.7200 F   0  0  0  0  0  0  0  0  0  0  0  0
   38.2500   23.9110   38.0000 C   0  0  0  0  0  0  0  0  0  0  0  0
   39.5020   23.3160   38.1640 F   0  0  0  0  0  0  0  0  0  0  0  0
   38.1410   24.8900   38.9650 F   0  0  0  0  0  0  0  0  0  0  0  0
   37.2720   22.9790   38.2350 F   0  0  0  0  0  0  0  0  0  0  0  0
   38.2300   22.4030   35.4950 C   0  0  0  0  0  0  0  0  0  0  0  0
   37.5240   21.9090   36.2070 H   0  0  0  0  0  0  0  0  0  0  0  0
   39.2670   22.1270   35.7660 H   0  0  0  0  0  0  0  0  0  0  0  0
   37.9420   21.7860   34.1700 C   0  0  0  0  0  0  0  0  0  0  0  0
   39.0310   21.4990   33.2730 C   0  0  0  0  0  0  0  0  0  0  0  0
   40.0610   21.6870   33.4390 H   0  0  0  0  0  0  0  0  0  0  0  0
   38.1670   20.7520   31.8370 S   0  0  0  0  0  0  0  0  0  0  0  0
   36.4770   20.9560   32.6970 C   0  0  0  0  0  0  0  0  0  0  0  0
   35.4360   20.6840   32.3490 H   0  0  0  0  0  0  0  0  0  0  0  0
   36.7420   21.4480   33.7150 N   0  0  0  0  0  0  0  0  0  0  0  0
  1  2  1  0  0  0  0
  1  7  1  0  0  0  0
  2 22  1  0  0  0  0
  3 26  1  0  0  0  0
  3  2  2  0  0  0  0
  4  3  1  0  0  0  0
  5  4  2  0  0  0  0
  5  6  1  0  0  0  0
  6  1  2  0  0  0  0
  9  8  1  0  0  0  0
  9 10  1  0  0  0  0
 10  5  1  0  0  0  0
 11 10  2  0  0  0  0
 11 16  1  0  0  0  0
 12 11  1  0  0  0  0
 13 15  1  0  0  0  0
 13 12  2  0  0  0  0
 14 13  1  0  0  0  0
 15  9  2  0  0  0  0
 17 12  1  0  0  0  0
 18 15  1  0  0  0  0
 18 20  1  0  0  0  0
 19 18  1  0  0  0  0
 21 18  1  0  0  0  0
 22 23  1  0  0  0  0
 22 25  1  0  0  0  0
 22 24  1  0  0  0  0
 26 28  1  0  0  0  0
 26 27  1  0  0  0  0
 29 26  1  0  0  0  0
 30 31  1  0  0  0  0
 30 29  2  0  0  0  0
 32 33  1  0  0  0  0
 32 30  1  0  0  0  0
 33 35  2  0  0  0  0
 34 33  1  0  0  0  0
 35 29  1  0  0  0  0
M  END
>  <minimizedAffinity>
-5.88924026

$$$$

 OpenBabel03272500233D

 35 37  0  0  0  0  0  0  0  0999 V2000
   35.2470   24.8970   31.0760 C   0  0  0  0  0  0  0  0  0  0  0  0
   36.3190   24.1740   31.6770 C   0  0  0  0  0  0  0  0  0  0  0  0
   37.2930   24.8960   32.3500 C   0  0  0  0  0  0  0  0  0  0  0  0
   37.1700   26.2610   32.4000 N   0  0  0  0  0  0  0  0  0  0  0  0
   36.1740   26.9100   31.8390 C   0  0  0  0  0  0  0  0  0  0  0  0
   35.2090   26.2460   31.1770 N   0  0  0  0  0  0  0  0  0  0  0  0
   34.4890   24.3230   30.5520 H   0  0  0  0  0  0  0  0  0  0  0  0
   35.7610   28.0150   34.6250 Cl  0  0  0  0  0  0  0  0  0  0  0  0
   35.9180   28.9990   33.1710 C   0  0  0  0  0  0  0  0  0  0  0  0
   36.1110   28.3790   31.9330 C   0  0  0  0  0  0  0  0  0  0  0  0
   36.2440   29.1050   30.7480 C   0  0  0  0  0  0  0  0  0  0  0  0
   36.1710   30.4950   30.8880 C   0  0  0  0  0  0  0  0  0  0  0  0
   35.9840   31.1190   32.0830 C   0  0  0  0  0  0  0  0  0  0  0  0
   35.9150   32.8770   32.1040 Cl  0  0  0  0  0  0  0  0  0  0  0  0
   35.8570   30.3630   33.2290 C   0  0  0  0  0  0  0  0  0  0  0  0
   36.3920   28.6360   29.7900 H   0  0  0  0  0  0  0  0  0  0  0  0
   36.2740   31.0590   29.9650 H   0  0  0  0  0  0  0  0  0  0  0  0
   35.6570   31.0260   34.5370 C   0  0  0  0  0  0  0  0  0  0  0  0
   34.3170   30.9500   34.9250 F   0  0  0  0  0  0  0  0  0  0  0  0
   36.0580   32.3400   34.5280 F   0  0  0  0  0  0  0  0  0  0  0  0
   36.3850   30.3760   35.5070 F   0  0  0  0  0  0  0  0  0  0  0  0
   36.3270   22.6970   31.5460 C   0  0  0  0  0  0  0  0  0  0  0  0
   36.0650   22.0920   32.7760 F   0  0  0  0  0  0  0  0  0  0  0  0
   35.3060   22.3330   30.6930 F   0  0  0  0  0  0  0  0  0  0  0  0
   37.4980   22.1950   31.0360 F   0  0  0  0  0  0  0  0  0  0  0  0
   38.3960   24.1780   32.9860 C   0  0  0  0  0  0  0  0  0  0  0  0
   39.4000   24.6410   32.8180 H   0  0  0  0  0  0  0  0  0  0  0  0
   38.4080   23.1410   32.5990 H   0  0  0  0  0  0  0  0  0  0  0  0
   38.2480   24.0950   34.4660 C   0  0  0  0  0  0  0  0  0  0  0  0
   38.2080   22.8020   35.1000 C   0  0  0  0  0  0  0  0  0  0  0  0
   38.2640   21.8560   34.6250 H   0  0  0  0  0  0  0  0  0  0  0  0
   38.0430   23.2430   36.8740 S   0  0  0  0  0  0  0  0  0  0  0  0
   38.0560   25.1030   36.4540 C   0  0  0  0  0  0  0  0  0  0  0  0
   37.9840   26.0100   37.1260 H   0  0  0  0  0  0  0  0  0  0  0  0
   38.1600   25.1250   35.2970 N   0  0  0  0  0  0  0  0  0  0  0  0
  1  6  2  0  0  0  0
  1  2  1  0  0  0  0
  2  3  2  0  0  0  0
  3  4  1  0  0  0  0
  3 26  1  0  0  0  0
  5 10  1  0  0  0  0
  5  4  2  0  0  0  0
  6  5  1  0  0  0  0
  7  1  1  0  0  0  0
  9 15  1  0  0  0  0
  9  8  1  0  0  0  0
 10  9  2  0  0  0  0
 11 12  2  0  0  0  0
 11 10  1  0  0  0  0
 12 13  1  0  0  0  0
 13 14  1  0  0  0  0
 13 15  2  0  0  0  0
 15 18  1  0  0  0  0
 16 11  1  0  0  0  0
 17 12  1  0  0  0  0
 18 19  1  0  0  0  0
 18 21  1  0  0  0  0
 20 18  1  0  0  0  0
 22  2  1  0  0  0  0
 22 23  1  0  0  0  0
 24 22  1  0  0  0  0
 25 22  1  0  0  0  0
 26 29  1  0  0  0  0
 27 26  1  0  0  0  0
 28 26  1  0  0  0  0
 29 30  2  0  0  0  0
 29 35  1  0  0  0  0
 30 32  1  0  0  0  0
 31 30  1  0  0  0  0
 33 32  1  0  0  0  0
 33 34  1  0  0  0  0
 35 33  2  0  0  0  0
M  END
>  <minimizedAffinity>
-5.88103437

$$$$

 OpenBabel03272500233D

 35 37  0  0  0  0  0  0  0  0999 V2000
   35.2230   24.8460   31.0540 C   0  0  0  0  0  0  0  0  0  0  0  0
   36.2800   24.1070   31.6610 C   0  0  0  0  0  0  0  0  0  0  0  0
   37.2470   24.8130   32.3610 C   0  0  0  0  0  0  0  0  0  0  0  0
   37.1310   26.1780   32.4290 N   0  0  0  0  0  0  0  0  0  0  0  0
   36.1480   26.8410   31.8620 C   0  0  0  0  0  0  0  0  0  0  0  0
   35.1900   26.1930   31.1750 N   0  0  0  0  0  0  0  0  0  0  0  0
   34.4700   24.2840   30.5090 H   0  0  0  0  0  0  0  0  0  0  0  0
   37.0890   28.3750   29.4290 Cl  0  0  0  0  0  0  0  0  0  0  0  0
   36.5040   29.1180   30.9170 C   0  0  0  0  0  0  0  0  0  0  0  0
   36.0910   28.3090   31.9790 C   0  0  0  0  0  0  0  0  0  0  0  0
   35.6160   28.8390   33.1800 C   0  0  0  0  0  0  0  0  0  0  0  0
   35.5860   30.2370   33.2450 C   0  0  0  0  0  0  0  0  0  0  0  0
   35.9850   31.0430   32.2230 C   0  0  0  0  0  0  0  0  0  0  0  0
   35.8880   32.7850   32.4500 Cl  0  0  0  0  0  0  0  0  0  0  0  0
   36.4470   30.4760   31.0540 C   0  0  0  0  0  0  0  0  0  0  0  0
   35.2960   28.2240   34.0040 H   0  0  0  0  0  0  0  0  0  0  0  0
   35.2170   30.6480   34.1800 H   0  0  0  0  0  0  0  0  0  0  0  0
   36.8800   31.3390   29.9320 C   0  0  0  0  0  0  0  0  0  0  0  0
   35.8860   32.2670   29.6150 F   0  0  0  0  0  0  0  0  0  0  0  0
   37.2100   30.6170   28.8100 F   0  0  0  0  0  0  0  0  0  0  0  0
   37.9910   32.0610   30.3010 F   0  0  0  0  0  0  0  0  0  0  0  0
   36.2820   22.6320   31.5070 C   0  0  0  0  0  0  0  0  0  0  0  0
   36.0260   22.0090   32.7290 F   0  0  0  0  0  0  0  0  0  0  0  0
   35.2540   22.2850   30.6550 F   0  0  0  0  0  0  0  0  0  0  0  0
   37.4480   22.1340   30.9820 F   0  0  0  0  0  0  0  0  0  0  0  0
   38.3360   24.0800   33.0030 C   0  0  0  0  0  0  0  0  0  0  0  0
   39.3500   24.5150   32.8220 H   0  0  0  0  0  0  0  0  0  0  0  0
   38.3210   23.0360   32.6330 H   0  0  0  0  0  0  0  0  0  0  0  0
   38.1940   24.0240   34.4850 C   0  0  0  0  0  0  0  0  0  0  0  0
   38.0910   22.7430   35.1360 C   0  0  0  0  0  0  0  0  0  0  0  0
   38.0960   21.7900   34.6740 H   0  0  0  0  0  0  0  0  0  0  0  0
   37.9610   23.2160   36.9050 S   0  0  0  0  0  0  0  0  0  0  0  0
   38.0660   25.0670   36.4600 C   0  0  0  0  0  0  0  0  0  0  0  0
   38.0450   25.9850   37.1190 H   0  0  0  0  0  0  0  0  0  0  0  0
   38.1640   25.0680   35.3020 N   0  0  0  0  0  0  0  0  0  0  0  0
  1  6  2  0  0  0  0
  1  2  1  0  0  0  0
  2  3  2  0  0  0  0
  3  4  1  0  0  0  0
  3 26  1  0  0  0  0
  5 10  1  0  0  0  0
  5  4  2  0  0  0  0
  6  5  1  0  0  0  0
  7  1  1  0  0  0  0
  8  9  1  0  0  0  0
  9 15  2  0  0  0  0
  9 10  1  0  0  0  0
 10 11  2  0  0  0  0
 11 12  1  0  0  0  0
 11 16  1  0  0  0  0
 12 17  1  0  0  0  0
 13 14  1  0  0  0  0
 13 12  2  0  0  0  0
 15 13  1  0  0  0  0
 18 21  1  0  0  0  0
 18 15  1  0  0  0  0
 19 18  1  0  0  0  0
 20 18  1  0  0  0  0
 22  2  1  0  0  0  0
 22 23  1  0  0  0  0
 24 22  1  0  0  0  0
 25 22  1  0  0  0  0
 26 29  1  0  0  0  0
 27 26  1  0  0  0  0
 28 26  1  0  0  0  0
 29 30  2  0  0  0  0
 29 35  1  0  0  0  0
 30 32  1  0  0  0  0
 31 30  1  0  0  0  0
 33 32  1  0  0  0  0
 33 34  1  0  0  0  0
 35 33  2  0  0  0  0
M  END
>  <minimizedAffinity>
-5.84177065

$$$$

 OpenBabel03272500233D

 35 37  0  0  0  0  0  0  0  0999 V2000
   35.7390   31.2570   35.8460 C   0  0  0  0  0  0  0  0  0  0  0  0
   34.3180   31.3100   35.9580 C   0  0  0  0  0  0  0  0  0  0  0  0
   33.5730   30.4210   35.2000 C   0  0  0  0  0  0  0  0  0  0  0  0
   34.2420   29.5420   34.3870 N   0  0  0  0  0  0  0  0  0  0  0  0
   35.5530   29.5080   34.2970 C   0  0  0  0  0  0  0  0  0  0  0  0
   36.3120   30.3540   35.0170 N   0  0  0  0  0  0  0  0  0  0  0  0
   36.3140   31.9570   36.4440 H   0  0  0  0  0  0  0  0  0  0  0  0
   37.6440   27.7440   35.5890 Cl  0  0  0  0  0  0  0  0  0  0  0  0
   37.1850   27.6720   33.8880 C   0  0  0  0  0  0  0  0  0  0  0  0
   36.2010   28.5350   33.4000 C   0  0  0  0  0  0  0  0  0  0  0  0
   35.7940   28.5240   32.0640 C   0  0  0  0  0  0  0  0  0  0  0  0
   36.4420   27.5870   31.2510 C   0  0  0  0  0  0  0  0  0  0  0  0
   37.4030   26.7370   31.7060 C   0  0  0  0  0  0  0  0  0  0  0  0
   38.1290   25.6120   30.5660 Cl  0  0  0  0  0  0  0  0  0  0  0  0
   37.7750   26.7830   33.0330 C   0  0  0  0  0  0  0  0  0  0  0  0
   35.0380   29.1850   31.6790 H   0  0  0  0  0  0  0  0  0  0  0  0
   36.1260   27.5790   30.2120 H   0  0  0  0  0  0  0  0  0  0  0  0
   38.8150   25.8640   33.5450 C   0  0  0  0  0  0  0  0  0  0  0  0
   39.4680   25.2260   32.4880 F   0  0  0  0  0  0  0  0  0  0  0  0
   38.3070   24.9220   34.4070 F   0  0  0  0  0  0  0  0  0  0  0  0
   39.7740   26.5770   34.2280 F   0  0  0  0  0  0  0  0  0  0  0  0
   33.7260   32.3130   36.8770 C   0  0  0  0  0  0  0  0  0  0  0  0
   32.9560   31.6860   37.8580 F   0  0  0  0  0  0  0  0  0  0  0  0
   34.7540   32.9630   37.5280 F   0  0  0  0  0  0  0  0  0  0  0  0
   32.9640   33.2600   36.2420 F   0  0  0  0  0  0  0  0  0  0  0  0
   32.1150   30.4460   35.3050 C   0  0  0  0  0  0  0  0  0  0  0  0
   31.5930   30.7300   34.3580 H   0  0  0  0  0  0  0  0  0  0  0  0
   31.8350   31.1640   36.1010 H   0  0  0  0  0  0  0  0  0  0  0  0
   31.5440   29.1230   35.6840 C   0  0  0  0  0  0  0  0  0  0  0  0
   31.6780   28.6580   37.0410 C   0  0  0  0  0  0  0  0  0  0  0  0
   32.1620   29.1570   37.8410 H   0  0  0  0  0  0  0  0  0  0  0  0
   30.8140   27.0400   36.9860 S   0  0  0  0  0  0  0  0  0  0  0  0
   30.4190   27.2690   35.1340 C   0  0  0  0  0  0  0  0  0  0  0  0
   29.8660   26.5990   34.4110 H   0  0  0  0  0  0  0  0  0  0  0  0
   30.8880   28.3010   34.8760 N   0  0  0  0  0  0  0  0  0  0  0  0
  1  2  1  0  0  0  0
  1  7  1  0  0  0  0
  2 22  1  0  0  0  0
  3 26  1  0  0  0  0
  3  2  2  0  0  0  0
  4  3  1  0  0  0  0
  5  4  2  0  0  0  0
  5  6  1  0  0  0  0
  6  1  2  0  0  0  0
  9  8  1  0  0  0  0
 10  9  1  0  0  0  0
 10  5  1  0  0  0  0
 11 10  2  0  0  0  0
 12 13  2  0  0  0  0
 12 11  1  0  0  0  0
 13 15  1  0  0  0  0
 14 13  1  0  0  0  0
 15 18  1  0  0  0  0
 15  9  2  0  0  0  0
 16 11  1  0  0  0  0
 17 12  1  0  0  0  0
 18 21  1  0  0  0  0
 18 20  1  0  0  0  0
 19 18  1  0  0  0  0
 22 24  1  0  0  0  0
 22 23  1  0  0  0  0
 25 22  1  0  0  0  0
 26 29  1  0  0  0  0
 26 28  1  0  0  0  0
 27 26  1  0  0  0  0
 29 30  2  0  0  0  0
 30 31  1  0  0  0  0
 32 30  1  0  0  0  0
 33 32  1  0  0  0  0
 34 33  1  0  0  0  0
 35 33  2  0  0  0  0
 35 29  1  0  0  0  0
M  END
>  <minimizedAffinity>
-5.81151962

$$$$

 OpenBabel03272500233D

 35 37  0  0  0  0  0  0  0  0999 V2000
   37.4660   27.0670   33.3050 C   0  0  0  0  0  0  0  0  0  0  0  0
   36.9350   26.3260   32.2090 C   0  0  0  0  0  0  0  0  0  0  0  0
   37.5280   25.1120   31.8970 C   0  0  0  0  0  0  0  0  0  0  0  0
   38.5880   24.6940   32.6600 N   0  0  0  0  0  0  0  0  0  0  0  0
   39.0640   25.3910   33.6670 C   0  0  0  0  0  0  0  0  0  0  0  0
   38.5160   26.5740   34.0020 N   0  0  0  0  0  0  0  0  0  0  0  0
   36.9950   28.0160   33.5420 H   0  0  0  0  0  0  0  0  0  0  0  0
   38.3870   23.3100   35.7570 Cl  0  0  0  0  0  0  0  0  0  0  0  0
   40.0120   23.9140   35.4340 C   0  0  0  0  0  0  0  0  0  0  0  0
   40.2070   24.8760   34.4400 C   0  0  0  0  0  0  0  0  0  0  0  0
   41.4700   25.3910   34.1390 C   0  0  0  0  0  0  0  0  0  0  0  0
   42.5230   24.8760   34.9030 C   0  0  0  0  0  0  0  0  0  0  0  0
   42.3540   23.9390   35.8760 C   0  0  0  0  0  0  0  0  0  0  0  0
   43.7730   23.3840   36.7540 Cl  0  0  0  0  0  0  0  0  0  0  0  0
   41.0890   23.4580   36.1410 C   0  0  0  0  0  0  0  0  0  0  0  0
   41.6310   26.1320   33.3750 H   0  0  0  0  0  0  0  0  0  0  0  0
   43.5040   25.2770   34.6680 H   0  0  0  0  0  0  0  0  0  0  0  0
   40.8880   22.4370   37.1930 C   0  0  0  0  0  0  0  0  0  0  0  0
   40.3080   23.0090   38.3270 F   0  0  0  0  0  0  0  0  0  0  0  0
   42.0580   21.8070   37.5450 F   0  0  0  0  0  0  0  0  0  0  0  0
   40.0150   21.4720   36.7470 F   0  0  0  0  0  0  0  0  0  0  0  0
   35.7840   26.8990   31.4700 C   0  0  0  0  0  0  0  0  0  0  0  0
   34.7660   25.9530   31.3350 F   0  0  0  0  0  0  0  0  0  0  0  0
   35.2680   27.9410   32.2120 F   0  0  0  0  0  0  0  0  0  0  0  0
   36.1120   27.3880   30.2310 F   0  0  0  0  0  0  0  0  0  0  0  0
   36.9950   24.3270   30.7860 C   0  0  0  0  0  0  0  0  0  0  0  0
   37.7150   24.1800   29.9430 H   0  0  0  0  0  0  0  0  0  0  0  0
   36.0890   24.8340   30.4010 H   0  0  0  0  0  0  0  0  0  0  0  0
   36.5900   22.9530   31.1960 C   0  0  0  0  0  0  0  0  0  0  0  0
   37.4050   21.8310   30.8070 C   0  0  0  0  0  0  0  0  0  0  0  0
   38.2950   21.8580   30.2310 H   0  0  0  0  0  0  0  0  0  0  0  0
   36.5070   20.4180   31.5590 S   0  0  0  0  0  0  0  0  0  0  0  0
   35.1800   21.5890   32.2710 C   0  0  0  0  0  0  0  0  0  0  0  0
   34.2610   21.3690   32.8910 H   0  0  0  0  0  0  0  0  0  0  0  0
   35.5240   22.6420   31.9210 N   0  0  0  0  0  0  0  0  0  0  0  0
  1  7  1  0  0  0  0
  1  6  1  0  0  0  0
  2  1  2  0  0  0  0
  3  2  1  0  0  0  0
  3  4  2  0  0  0  0
  4  5  1  0  0  0  0
  5  6  2  0  0  0  0
  5 10  1  0  0  0  0
  9  8  1  0  0  0  0
  9 15  1  0  0  0  0
 10  9  2  0  0  0  0
 11 10  1  0  0  0  0
 11 12  2  0  0  0  0
 12 13  1  0  0  0  0
 13 15  2  0  0  0  0
 13 14  1  0  0  0  0
 15 18  1  0  0  0  0
 16 11  1  0  0  0  0
 17 12  1  0  0  0  0
 18 20  1  0  0  0  0
 18 19  1  0  0  0  0
 21 18  1  0  0  0  0
 22  2  1  0  0  0  0
 22 24  1  0  0  0  0
 23 22  1  0  0  0  0
 25 22  1  0  0  0  0
 26 29  1  0  0  0  0
 26  3  1  0  0  0  0
 27 26  1  0  0  0  0
 28 26  1  0  0  0  0
 29 35  1  0  0  0  0
 30 29  2  0  0  0  0
 30 32  1  0  0  0  0
 31 30  1  0  0  0  0
 32 33  1  0  0  0  0
 33 34  1  0  0  0  0
 35 33  2  0  0  0  0
M  END
>  <minimizedAffinity>
-5.8072052

$$$$

 OpenBabel03272500233D

 35 37  0  0  0  0  0  0  0  0999 V2000
   37.9360   28.0070   31.4210 C   0  0  0  0  0  0  0  0  0  0  0  0
   36.8740   28.9370   31.6210 C   0  0  0  0  0  0  0  0  0  0  0  0
   36.1760   28.8780   32.8180 C   0  0  0  0  0  0  0  0  0  0  0  0
   36.5470   27.9320   33.7390 N   0  0  0  0  0  0  0  0  0  0  0  0
   37.5290   27.0830   33.5360 C   0  0  0  0  0  0  0  0  0  0  0  0
   38.2310   27.1080   32.3880 N   0  0  0  0  0  0  0  0  0  0  0  0
   38.4770   28.0620   30.4810 H   0  0  0  0  0  0  0  0  0  0  0  0
   37.6190   24.2050   32.6040 Cl  0  0  0  0  0  0  0  0  0  0  0  0
   37.9360   24.7340   34.2560 C   0  0  0  0  0  0  0  0  0  0  0  0
   37.8700   26.0940   34.5730 C   0  0  0  0  0  0  0  0  0  0  0  0
   38.1120   26.5720   35.8610 C   0  0  0  0  0  0  0  0  0  0  0  0
   38.4250   25.5940   36.8130 C   0  0  0  0  0  0  0  0  0  0  0  0
   38.4950   24.2650   36.5250 C   0  0  0  0  0  0  0  0  0  0  0  0
   38.9020   23.1520   37.8250 Cl  0  0  0  0  0  0  0  0  0  0  0  0
   38.2480   23.8370   35.2380 C   0  0  0  0  0  0  0  0  0  0  0  0
   38.0620   27.6170   36.1150 H   0  0  0  0  0  0  0  0  0  0  0  0
   38.6130   25.9680   37.8150 H   0  0  0  0  0  0  0  0  0  0  0  0
   38.3230   22.3960   34.9090 C   0  0  0  0  0  0  0  0  0  0  0  0
   39.3160   22.1620   33.9550 F   0  0  0  0  0  0  0  0  0  0  0  0
   37.1260   21.8960   34.4560 F   0  0  0  0  0  0  0  0  0  0  0  0
   38.6750   21.6780   36.0290 F   0  0  0  0  0  0  0  0  0  0  0  0
   36.5800   29.9080   30.5390 C   0  0  0  0  0  0  0  0  0  0  0  0
   37.3450   31.0640   30.6940 F   0  0  0  0  0  0  0  0  0  0  0  0
   36.9480   29.3400   29.3370 F   0  0  0  0  0  0  0  0  0  0  0  0
   35.2550   30.2520   30.4520 F   0  0  0  0  0  0  0  0  0  0  0  0
   35.0900   29.8280   33.0540 C   0  0  0  0  0  0  0  0  0  0  0  0
   34.1790   29.3750   33.5180 H   0  0  0  0  0  0  0  0  0  0  0  0
   34.8110   30.2870   32.0860 H   0  0  0  0  0  0  0  0  0  0  0  0
   35.4840   30.9340   33.9700 C   0  0  0  0  0  0  0  0  0  0  0  0
   35.7940   32.2290   33.4210 C   0  0  0  0  0  0  0  0  0  0  0  0
   35.7850   32.5070   32.3980 H   0  0  0  0  0  0  0  0  0  0  0  0
   36.1860   33.2060   34.9250 S   0  0  0  0  0  0  0  0  0  0  0  0
   35.8630   31.6930   36.0400 C   0  0  0  0  0  0  0  0  0  0  0  0
   35.9250   31.5810   37.1640 H   0  0  0  0  0  0  0  0  0  0  0  0
   35.5720   30.8540   35.2920 N   0  0  0  0  0  0  0  0  0  0  0  0
  1  2  2  0  0  0  0
  1  6  1  0  0  0  0
  2  3  1  0  0  0  0
  3 26  1  0  0  0  0
  3  4  2  0  0  0  0
  5  4  1  0  0  0  0
  5 10  1  0  0  0  0
  6  5  2  0  0  0  0
  7  1  1  0  0  0  0
  8  9  1  0  0  0  0
  9 10  2  0  0  0  0
  9 15  1  0  0  0  0
 10 11  1  0  0  0  0
 11 16  1  0  0  0  0
 11 12  2  0  0  0  0
 12 17  1  0  0  0  0
 13 12  1  0  0  0  0
 13 14  1  0  0  0  0
 15 13  2  0  0  0  0
 18 15  1  0  0  0  0
 18 21  1  0  0  0  0
 19 18  1  0  0  0  0
 20 18  1  0  0  0  0
 22 23  1  0  0  0  0
 22  2  1  0  0  0  0
 24 22  1  0  0  0  0
 25 22  1  0  0  0  0
 26 27  1  0  0  0  0
 26 29  1  0  0  0  0
 28 26  1  0  0  0  0
 29 35  1  0  0  0  0
 30 29  2  0  0  0  0
 30 32  1  0  0  0  0
 31 30  1  0  0  0  0
 32 33  1  0  0  0  0
 33 34  1  0  0  0  0
 35 33  2  0  0  0  0
M  END
>  <minimizedAffinity>
-5.80108452

$$$$
