REMARK  Name = 
REMARK  4 active torsions:
REMARK  status: ('A' for Active; 'I' for Inactive)
REMARK    1  A    between atoms: C_2  and  N_7
REMARK    2  A    between atoms: C_5  and  O_15
REMARK    3  A    between atoms: O_15  and  C_16
REMARK    4  A    between atoms: C_21  and  C_31
REMARK                            x       y       z     vdW  Elec       q    Type
REMARK                         _______ _______ _______ _____ _____    ______ ____
ROOT
ATOM      1  C   UNL     1      35.496  28.914  49.158  0.00  0.00    +0.000 A 
ATOM      2  C   UNL     1      35.425  30.105  48.397  0.00  0.00    +0.000 A 
ATOM      3  C   UNL     1      34.323  30.265  47.542  0.00  0.00    +0.000 A 
ATOM      4  N   UNL     1      33.390  29.280  47.488  0.00  0.00    +0.000 NA
ATOM      5  C   UNL     1      33.499  28.156  48.234  0.00  0.00    +0.000 A 
ATOM      6  N   UNL     1      34.554  27.963  49.077  0.00  0.00    +0.000 NA
ATOM      7  H   UNL     1      36.344  28.780  49.823  0.00  0.00    +0.000 HD
ATOM      8  H   UNL     1      34.263  31.166  46.962  0.00  0.00    +0.000 HD
ENDROOT
BRANCH   2   9
ATOM      9  N   UNL     1      36.461  31.055  48.539  0.00  0.00    +0.000 N 
ATOM     10  C   UNL     1      36.631  31.757  49.654  0.00  0.00    +0.000 A 
ATOM     11  C   UNL     1      37.679  32.679  49.723  0.00  0.00    +0.000 A 
ATOM     12  C   UNL     1      38.450  32.777  48.613  0.00  0.00    +0.000 A 
ATOM     13  O   UNL     1      39.407  33.616  48.670  0.00  0.00    +0.000 OA
ATOM     14  N   UNL     1      38.312  32.094  47.482  0.00  0.00    +0.000 N 
ATOM     15  C   UNL     1      37.285  31.211  47.454  0.00  0.00    +0.000 A 
ATOM     16  O   UNL     1      37.134  30.545  46.380  0.00  0.00    +0.000 OA
ATOM     17  H   UNL     1      35.946  31.584  50.471  0.00  0.00    +0.000 HD
ATOM     18  H   UNL     1      37.821  33.252  50.628  0.00  0.00    +0.000 HD
ATOM     19  H   UNL     1      38.927  32.196  46.643  0.00  0.00    +0.000 HD
ENDBRANCH   2   9
BRANCH   5  20
ATOM     20  O   UNL     1      32.529  27.136  48.171  0.00  0.00    +0.000 OA
BRANCH  20  21
ATOM     21  C   UNL     1      31.208  27.557  48.255  0.00  0.00    +0.000 A 
ATOM     22  C   UNL     1      30.760  27.739  49.554  0.00  0.00    +0.000 A 
ATOM     23  C   UNL     1      29.487  28.155  49.845  0.00  0.00    +0.000 A 
ATOM     24  C   UNL     1      28.629  28.397  48.786  0.00  0.00    +0.000 A 
ATOM     25  C   UNL     1      29.077  28.215  47.505  0.00  0.00    +0.000 A 
ATOM     26  C   UNL     1      30.363  27.794  47.197  0.00  0.00    +0.000 A 
ATOM     27  H   UNL     1      31.382  27.567  50.423  0.00  0.00    +0.000 HD
ATOM     28  H   UNL     1      29.137  28.297  50.856  0.00  0.00    +0.000 HD
ATOM     29  H   UNL     1      27.630  28.722  48.956  0.00  0.00    +0.000 HD
ATOM     30  H   UNL     1      28.384  28.412  46.691  0.00  0.00    +0.000 HD
BRANCH  26  31
ATOM     31  C   UNL     1      30.809  27.613  45.816  0.00  0.00    +0.000 A 
ATOM     32  C   UNL     1      32.101  27.893  45.394  0.00  0.00    +0.000 A 
ATOM     33  H   UNL     1      33.011  28.261  45.829  0.00  0.00    +0.000 HD
ATOM     34  S   UNL     1      32.063  27.441  43.607  0.00  0.00    +0.000 S 
ATOM     35  C   UNL     1      30.231  26.931  43.753  0.00  0.00    +0.000 A 
ATOM     36  H   UNL     1      29.656  26.556  42.928  0.00  0.00    +0.000 HD
ATOM     37  N   UNL     1      30.004  27.144  44.888  0.00  0.00    +0.000 NA
ENDBRANCH  26  31
ENDBRANCH  20  21
ENDBRANCH   5  20
TORSDOF 4
