
     RDKit          3D

 38 42  0  0  0  0  0  0  0  0999 V2000
   37.1435   30.7200   44.9074 C   0  0  0  0  0  0  0  0  0  0  0  0
   36.8401   29.7415   43.8469 C   0  0  0  0  0  0  0  0  0  0  0  0
   36.2509   31.1346   43.7830 C   0  0  0  0  0  0  0  0  0  0  0  0
   39.7467   33.3518   44.9683 C   0  0  0  0  0  0  0  0  0  0  0  0
   40.9205   32.6021   45.2205 C   0  0  0  0  0  0  0  0  0  0  0  0
   40.8057   31.2049   45.3665 C   0  0  0  0  0  0  0  0  0  0  0  0
   39.5763   30.6450   45.2584 N   0  0  0  0  0  0  0  0  0  0  0  0
   38.4638   31.3950   45.0148 C   0  0  0  0  0  0  0  0  0  0  0  0
   38.5483   32.7281   44.8720 N   0  0  0  0  0  0  0  0  0  0  0  0
   36.5116   30.5245   46.2616 C   0  0  0  0  0  0  0  0  0  0  0  0
   37.1449   30.9289   47.3990 C   0  0  0  0  0  0  0  0  0  0  0  0
   36.5475   30.7409   48.6416 C   0  0  0  0  0  0  0  0  0  0  0  0
   35.2988   30.1346   48.6883 C   0  0  0  0  0  0  0  0  0  0  0  0
   34.6553   29.7226   47.5207 C   0  0  0  0  0  0  0  0  0  0  0  0
   35.2971   29.9388   46.3544 N   0  0  0  0  0  0  0  0  0  0  0  0
   33.3480   29.0823   47.5032 C   0  0  0  0  0  0  0  0  0  0  0  0
   32.3686   29.0658   46.5682 N   0  0  0  0  0  0  0  0  0  0  0  0
   31.3286   28.3214   47.0219 C   0  0  0  0  0  0  0  0  0  0  0  0
   31.6579   27.8681   48.2491 N   0  0  0  0  0  0  0  0  0  0  0  0
   32.8790   28.3232   48.5502 N   0  0  0  0  0  0  0  0  0  0  0  0
   37.6469   29.5114   43.0968 H   0  0  0  0  0  0  0  0  0  0  0  0
   36.1949   28.8794   44.0832 H   0  0  0  0  0  0  0  0  0  0  0  0
   35.1555   31.1516   43.9931 H   0  0  0  0  0  0  0  0  0  0  0  0
   36.6208   31.7852   42.9866 H   0  0  0  0  0  0  0  0  0  0  0  0
   39.8199   34.4256   44.8540 H   0  0  0  0  0  0  0  0  0  0  0  0
   41.8895   33.0802   45.3014 H   0  0  0  0  0  0  0  0  0  0  0  0
   41.6908   30.6147   45.5595 H   0  0  0  0  0  0  0  0  0  0  0  0
   38.1123   31.4001   47.3805 H   0  0  0  0  0  0  0  0  0  0  0  0
   37.0294   31.0531   49.5595 H   0  0  0  0  0  0  0  0  0  0  0  0
   34.7787   29.9578   49.6132 H   0  0  0  0  0  0  0  0  0  0  0  0
   30.3844   28.0589   46.6111 H   0  0  0  0  0  0  0  0  0  0  0  0
   31.0197   27.0505   49.2440 C   0  0  0  0  0  0  0  0  0  0  0  0
   29.7356   27.5703   49.4733 C   0  0  0  0  0  0  0  0  0  0  0  0
   29.0050   28.3601   49.1993 H   0  0  0  0  0  0  0  0  0  0  0  0
   28.9952   26.4215   50.7915 S   0  0  0  0  0  0  0  0  0  0  0  0
   30.6447   25.4398   50.7540 C   0  0  0  0  0  0  0  0  0  0  0  0
   31.3857   24.4913   51.1526 H   0  0  0  0  0  0  0  0  0  0  0  0
   31.2496   25.9943   49.9915 N   0  0  0  0  0  0  0  0  0  0  0  0
  1  8  1  0
  1 10  1  0
  2  1  1  0
  3  2  1  0
  3  1  1  0
  4  5  2  0
  5  6  1  0
  7  6  2  0
  8  7  1  0
  9  4  1  0
  9  8  2  0
 10 15  1  0
 10 11  2  0
 11 12  1  0
 12 13  2  0
 14 13  1  0
 15 14  2  0
 16 14  1  0
 16 20  2  0
 17 18  2  0
 17 16  1  0
 18 19  1  0
 19 20  1  0
  2 21  1  0
  2 22  1  0
  3 23  1  0
  3 24  1  0
  4 25  1  0
  5 26  1  0
  6 27  1  0
 11 28  1  0
 12 29  1  0
 13 30  1  0
 18 31  1  0
 32 33  2  0
 33 34  1  0
 33 35  1  0
 35 36  1  0
 36 37  1  0
 36 38  2  0
 38 32  1  0
 19 32  1  0
M  ISO  8  21  13  22  13  23  13  24  13  25  14  26  14  27  14  28  14
M  ISO  5  29  14  30  14  31  14  34  15  37  16
M  END
>  <DihAtoms>  (1) 
17,18,31,32

>  <DihDeg>  (1) 
-81.13006681840967

$$$$
