
 OpenBabel03272507283D

 39 41  0  0  1  0  0  0  0  0999 V2000
   37.9780   30.5410   48.7030 C   0  0  0  0  0  0  0  0  0  0  0  0
   38.0010   30.9190   47.3430 C   0  0  0  0  0  0  0  0  0  0  0  0
   36.8390   30.7010   46.6060 C   0  0  0  0  0  0  0  0  0  0  0  0
   35.7750   30.1540   47.2130 N   0  0  0  0  0  0  0  0  0  0  0  0
   35.7860   29.8040   48.5140 C   0  0  0  0  0  0  0  0  0  0  0  0
   36.8770   29.9970   49.2490 N   0  0  0  0  0  0  0  0  0  0  0  0
   36.7750   31.0460   45.2610 N   0  0  0  0  0  0  0  0  0  0  0  0
   37.4850   32.1860   44.6260 C   0  0  0  0  0  0  0  0  0  0  0  0
   36.9930   32.3330   43.2510 C   0  0  0  0  0  0  0  0  0  0  0  0
   35.7080   31.6250   43.2840 C   0  0  0  0  0  0  0  0  0  0  0  0
   36.0440   30.4840   44.1710 C   0  0  2  0  0  0  0  0  0  0  0  0
   38.8670   30.6940   49.3140 H   0  0  0  0  0  0  0  0  0  0  0  0
   38.8910   31.3540   46.9200 H   0  0  0  0  0  0  0  0  0  0  0  0
   34.9710   29.3620   49.0630 H   0  0  0  0  0  0  0  0  0  0  0  0
   36.9660   33.0470   45.2510 H   0  0  0  0  0  0  0  0  0  0  0  0
   38.4930   32.3360   44.9120 H   0  0  0  0  0  0  0  0  0  0  0  0
   36.6350   33.4610   43.1960 H   0  0  0  0  0  0  0  0  0  0  0  0
   37.6400   32.3320   42.4100 H   0  0  0  0  0  0  0  0  0  0  0  0
   35.4690   31.2970   42.2290 H   0  0  0  0  0  0  0  0  0  0  0  0
   34.8500   32.2190   43.6480 H   0  0  0  0  0  0  0  0  0  0  0  0
   34.7800   29.7300   44.5750 C   0  0  0  0  0  0  0  0  0  0  0  0
   34.1450   30.4560   45.5600 F   0  0  0  0  0  0  0  0  0  0  0  0
   34.9820   28.4780   45.0850 F   0  0  0  0  0  0  0  0  0  0  0  0
   33.9480   29.7390   43.4800 F   0  0  0  0  0  0  0  0  0  0  0  0
   36.9000   29.5220   43.5190 C   0  0  2  0  0  0  0  0  0  0  0  0
   37.0590   28.6470   44.1180 H   0  0  0  0  0  0  0  0  0  0  0  0
   38.4260   29.9620   43.4440 C   0  0  0  0  0  0  0  0  0  0  0  0
   38.7890   30.0070   41.9290 C   0  0  0  0  0  0  0  0  0  0  0  0
   38.4490   29.8910   40.8360 H   0  0  0  0  0  0  0  0  0  0  0  0
   40.6080   30.4890   41.9490 S   0  0  0  0  0  0  0  0  0  0  0  0
   40.5770   30.5430   43.8280 C   0  0  0  0  0  0  0  0  0  0  0  0
   41.2950   30.7590   44.6050 H   0  0  0  0  0  0  0  0  0  0  0  0
   39.5300   30.2740   44.0630 N   0  0  0  0  0  0  0  0  0  0  0  0
   36.5830   29.4840   42.3110 O   0  0  0  0  0  0  0  0  0  0  0  0
   36.1130   28.6240   41.3870 C   0  0  0  0  0  0  0  0  0  0  0  0
   35.2710   29.1550   40.6590 O   0  0  0  0  0  0  0  0  0  0  0  0
   36.1480   27.3140   40.8350 N   0  0  0  0  0  0  0  0  0  0  0  0
   35.6420   26.4790   41.2150 H   0  0  0  0  0  0  0  0  0  0  0  0
   36.6940   27.0700   39.9850 H   0  0  0  0  0  0  0  0  0  0  0  0
  1  6  1  0  0  0  0
  1 12  1  0  0  0  0
  2  1  2  0  0  0  0
  3  4  2  0  0  0  0
  3  2  1  0  0  0  0
  4  5  1  0  0  0  0
  5 14  1  0  0  0  0
  5  6  2  0  0  0  0
  7  3  1  0  0  0  0
  8 16  1  0  0  0  0
  8 15  1  0  0  0  0
  8  7  1  0  0  0  0
  9 10  1  0  0  0  0
  9  8  1  0  0  0  0
 10 20  1  0  0  0  0
 10 11  1  0  0  0  0
 11 21  1  1  0  0  0
 11  7  1  0  0  0  0
 13  2  1  0  0  0  0
 17  9  1  0  0  0  0
 18  9  1  0  0  0  0
 19 10  1  0  0  0  0
 21 23  1  0  0  0  0
 21 22  1  0  0  0  0
 24 21  1  0  0  0  0
 25 26  1  1  0  0  0
 25 11  1  0  0  0  0
 27 25  1  0  0  0  0
 27 33  1  0  0  0  0
 28 30  1  0  0  0  0
 28 27  2  0  0  0  0
 29 28  1  0  0  0  0
 30 31  1  0  0  0  0
 31 33  2  0  0  0  0
 31 32  1  0  0  0  0
 34 25  1  0  0  0  0
 35 34  1  0  0  0  0
 36 35  2  0  0  0  0
 37 38  1  0  0  0  0
 37 35  1  0  0  0  0
 39 37  1  0  0  0  0
M  END
>  <minimizedAffinity>
-3.81700635

>  <minimizedRMSD>
3.58733845

$$$$
