
     RDKit          3D

 39 41  0  0  0  0  0  0  0  0999 V2000
   36.6923   29.9544   49.0135 C   0  0  0  0  0  0  0  0  0  0  0  0
   37.7231   30.6209   48.3186 C   0  0  0  0  0  0  0  0  0  0  0  0
   37.4984   30.9073   46.9744 C   0  0  0  0  0  0  0  0  0  0  0  0
   36.3326   30.5418   46.4158 N   0  0  0  0  0  0  0  0  0  0  0  0
   35.3687   29.9058   47.1094 C   0  0  0  0  0  0  0  0  0  0  0  0
   35.5480   29.6158   48.3942 N   0  0  0  0  0  0  0  0  0  0  0  0
   38.4602   31.5629   46.2146 N   0  0  0  0  0  0  0  0  0  0  0  0
   39.4134   32.5843   46.7230 C   0  0  0  0  0  0  0  0  0  0  0  0
   40.1107   33.1794   45.5767 C   0  0  0  0  0  0  0  0  0  0  0  0
   39.2274   32.8591   44.4498 C   0  0  0  0  0  0  0  0  0  0  0  0
   38.7827   31.4940   44.8262 C   0  0  2  0  0  0  0  0  0  0  0  0
   37.6365   31.0376   43.9291 C   0  0  0  0  0  0  0  0  0  0  0  0
   36.5081   31.7464   44.2838 F   0  0  0  0  0  0  0  0  0  0  0  0
   37.3085   29.7143   44.0230 F   0  0  0  0  0  0  0  0  0  0  0  0
   37.9583   31.4250   42.6491 F   0  0  0  0  0  0  0  0  0  0  0  0
   39.8338   30.5169   44.6688 C   0  0  1  0  0  0  0  0  0  0  0  0
   40.3351   30.6733   43.5346 O   0  0  0  0  0  0  0  0  0  0  0  0
   40.9867   29.9779   42.5827 C   0  0  0  0  0  0  0  0  0  0  0  0
   40.7651   30.4312   41.4579 O   0  0  0  0  0  0  0  0  0  0  0  0
   41.8653   28.9057   42.2648 N   0  0  0  0  0  0  0  0  0  0  0  0
   36.8288   29.7120   50.0671 H   0  0  0  0  0  0  0  0  0  0  0  0
   38.6341   30.8850   48.8304 H   0  0  0  0  0  0  0  0  0  0  0  0
   34.4137   29.5848   46.7260 H   0  0  0  0  0  0  0  0  0  0  0  0
   38.6051   33.3811   47.0607 H   0  0  0  0  0  0  0  0  0  0  0  0
   39.8716   32.3825   47.6550 H   0  0  0  0  0  0  0  0  0  0  0  0
   39.9205   34.3406   45.6994 H   0  0  0  0  0  0  0  0  0  0  0  0
   41.1695   33.1998   45.5020 H   0  0  0  0  0  0  0  0  0  0  0  0
   39.8528   32.8657   43.5093 H   0  0  0  0  0  0  0  0  0  0  0  0
   38.3868   33.5596   44.2955 H   0  0  0  0  0  0  0  0  0  0  0  0
   39.5654   29.5612   45.0712 H   0  0  0  0  0  0  0  0  0  0  0  0
   41.5888   27.8990   42.1758 H   0  0  0  0  0  0  0  0  0  0  0  0
   42.8807   29.0352   42.0899 H   0  0  0  0  0  0  0  0  0  0  0  0
   41.0877   30.7594   45.6174 C   0  0  0  0  0  0  0  0  0  0  0  0
   42.0187   31.7533   44.8582 C   0  0  0  0  0  0  0  0  0  0  0  0
   42.2012   32.4117   43.9336 H   0  0  0  0  0  0  0  0  0  0  0  0
   43.4778   31.9381   46.0314 S   0  0  0  0  0  0  0  0  0  0  0  0
   42.6619   30.7502   47.2397 C   0  0  0  0  0  0  0  0  0  0  0  0
   42.9154   30.3389   48.2049 H   0  0  0  0  0  0  0  0  0  0  0  0
   41.7175   30.4889   46.7249 N   0  0  0  0  0  0  0  0  0  0  0  0
  2  1  2  0
  3  2  1  0
  4  3  2  0
  4  5  1  0
  5  6  2  0
  6  1  1  0
  7  8  1  0
  7  3  1  0
  9  8  1  0
 10 11  1  0
 10  9  1  0
 11 12  1  6
 11  7  1  0
 12 14  1  0
 12 13  1  0
 15 12  1  0
 16 11  1  0
 17 16  1  0
 18 17  1  0
 19 18  2  0
 20 18  1  0
  1 21  1  0
  2 22  1  0
  5 23  1  0
  8 24  1  0
  8 25  1  0
  9 26  1  0
  9 27  1  0
 10 28  1  0
 10 29  1  0
 16 30  1  6
 20 31  1  0
 20 32  1  0
 33 34  2  0
 34 35  1  0
 34 36  1  0
 36 37  1  0
 37 38  1  0
 37 39  2  0
 39 33  1  0
 16 33  1  0
M  ISO  8  21  14  22  14  23  14  24  13  25  13  26  13  27  13  28  13
M  ISO  4  29  13  30   8  35  15  38  16
M  END
>  <DihAtoms>  (1) 
10,15,32,33

>  <DihDeg>  (1) 
-116.3326920720905

$$$$
