REMARK  Name = 
REMARK  3 active torsions:
REMARK  status: ('A' for Active; 'I' for Inactive)
REMARK    1  A    between atoms: C_1  and  N_9
REMARK    2  A    between atoms: C_2  and  N_10
REMARK    3  A    between atoms: N_15  and  C_24
REMARK                            x       y       z     vdW  Elec       q    Type
REMARK                         _______ _______ _______ _____ _____    ______ ____
ROOT
ATOM      1  N   UNL     1      36.709  31.335  48.969  0.00  0.00    +0.000 N 
ATOM      2  C   UNL     1      36.553  32.337  49.827  0.00  0.00    +0.000 A 
ATOM      3  C   UNL     1      37.540  33.319  49.929  0.00  0.00    +0.000 A 
ATOM      4  C   UNL     1      38.609  33.148  49.107  0.00  0.00    +0.000 A 
ATOM      5  O   UNL     1      39.499  34.048  49.209  0.00  0.00    +0.000 OA
ATOM      6  N   UNL     1      38.802  32.163  48.238  0.00  0.00    +0.000 N 
ATOM      7  C   UNL     1      37.819  31.233  48.173  0.00  0.00    +0.000 A 
ATOM      8  O   UNL     1      37.988  30.280  47.344  0.00  0.00    +0.000 OA
ATOM      9  H   UNL     1      35.661  32.386  50.442  0.00  0.00    +0.000 HD
ATOM     10  H   UNL     1      37.436  34.139  50.616  0.00  0.00    +0.000 HD
ENDROOT
BRANCH   1  12
ATOM     11  C   UNL     1      35.645  29.333  49.841  0.00  0.00    +0.000 A 
ATOM     12  C   UNL     1      35.743  30.284  48.808  0.00  0.00    +0.000 A 
ATOM     13  C   UNL     1      34.911  30.160  47.690  0.00  0.00    +0.000 A 
ATOM     14  N   UNL     1      34.043  29.118  47.658  0.00  0.00    +0.000 NA
ATOM     15  C   UNL     1      33.953  28.224  48.629  0.00  0.00    +0.000 A 
ATOM     16  N   UNL     1      34.746  28.332  49.709  0.00  0.00    +0.000 NA
ATOM     17  H   UNL     1      35.012  30.913  46.909  0.00  0.00    +0.000 HD
ATOM     18  H   UNL     1      33.257  27.399  48.590  0.00  0.00    +0.000 HD
BRANCH  11  21
ATOM     19  C   UNL     1      37.649  30.054  51.344  0.00  0.00    +0.000 C 
ATOM     20  O   UNL     1      38.206  30.834  50.542  0.00  0.00    +0.000 OA
ATOM     21  N   UNL     1      36.426  29.370  51.016  0.00  0.00    +0.000 N 
ATOM     22  H   UNL     1      38.147  29.932  52.292  0.00  0.00    +0.000 HD
ATOM     23  H   UNL     1      36.092  28.805  51.851  0.00  0.00    +0.000 HD
ENDBRANCH  11  21
ENDBRANCH   1  12
BRANCH   6  24
ATOM     24  C   UNL     1      39.971  32.059  47.401  0.00  0.00    +0.000 A 
ATOM     25  C   UNL     1      41.258  31.628  47.864  0.00  0.00    +0.000 A 
ATOM     26  H   UNL     1      41.408  31.358  48.876  0.00  0.00    +0.000 HD
ATOM     27  S   UNL     1      42.232  31.717  46.392  0.00  0.00    +0.000 S 
ATOM     28  C   UNL     1      40.767  32.330  45.331  0.00  0.00    +0.000 A 
ATOM     29  H   UNL     1      40.836  32.554  44.269  0.00  0.00    +0.000 HD
ATOM     30  N   UNL     1      39.871  32.376  46.122  0.00  0.00    +0.000 NA
ENDBRANCH   6  24
TORSDOF 3
