
 OpenBabel03272509263D

 23 24  0  0  0  0  0  0  0  0999 V2000
   35.6680   30.6250   47.7560 C   0  0  0  0  0  0  0  0  0  0  0  0
   34.7650   30.0720   47.4000 H   0  0  0  0  0  0  0  0  0  0  0  0
   35.4170   31.6980   47.8170 H   0  0  0  0  0  0  0  0  0  0  0  0
   37.6690   29.5230   50.7540 C   0  0  0  0  0  0  0  0  0  0  0  0
   37.3850   29.9890   49.4820 C   0  0  0  0  0  0  0  0  0  0  0  0
   36.0800   30.1440   49.0820 C   0  0  0  0  0  0  0  0  0  0  0  0
   35.1110   29.8200   49.9880 N   0  0  0  0  0  0  0  0  0  0  0  0
   35.4080   29.3680   51.2190 C   0  0  0  0  0  0  0  0  0  0  0  0
   36.6820   29.2150   51.6170 N   0  0  0  0  0  0  0  0  0  0  0  0
   38.6740   29.3790   51.1290 H   0  0  0  0  0  0  0  0  0  0  0  0
   38.1950   30.2290   48.8070 H   0  0  0  0  0  0  0  0  0  0  0  0
   34.5130   29.1530   51.8260 H   0  0  0  0  0  0  0  0  0  0  0  0
   36.7770   30.4700   46.7450 C   0  0  0  0  0  0  0  0  0  0  0  0
   36.2710   30.4810   45.7300 H   0  0  0  0  0  0  0  0  0  0  0  0
   37.3080   29.5210   46.7750 H   0  0  0  0  0  0  0  0  0  0  0  0
   37.8720   31.9260   46.7770 S   0  0  0  0  0  0  0  0  0  0  0  0
   38.2800   32.3790   45.0730 C   0  0  0  0  0  0  0  0  0  0  0  0
   39.5390   32.7810   44.7800 C   0  0  0  0  0  0  0  0  0  0  0  0
   40.4210   32.9000   45.3970 H   0  0  0  0  0  0  0  0  0  0  0  0
   39.4460   33.1210   42.9630 S   0  0  0  0  0  0  0  0  0  0  0  0
   37.5960   32.6150   42.9640 C   0  0  0  0  0  0  0  0  0  0  0  0
   36.9480   32.6140   42.0830 H   0  0  0  0  0  0  0  0  0  0  0  0
   37.4500   32.3570   44.0510 N   0  0  0  0  0  0  0  0  0  0  0  0
  1  3  1  0  0  0  0
  1  6  1  0  0  0  0
  2  1  1  0  0  0  0
  4 10  1  0  0  0  0
  4  9  1  0  0  0  0
  5  4  2  0  0  0  0
  6  5  1  0  0  0  0
  6  7  2  0  0  0  0
  7  8  1  0  0  0  0
  8  9  2  0  0  0  0
  8 12  1  0  0  0  0
 11  5  1  0  0  0  0
 13 15  1  0  0  0  0
 13 16  1  0  0  0  0
 13  1  1  0  0  0  0
 14 13  1  0  0  0  0
 17 16  1  0  0  0  0
 18 17  2  0  0  0  0
 18 19  1  0  0  0  0
 20 21  1  0  0  0  0
 20 18  1  0  0  0  0
 21 23  2  0  0  0  0
 22 21  1  0  0  0  0
 23 17  1  0  0  0  0
M  END
>  <minimizedAffinity>
-3.5064168

>  <minimizedRMSD>
4.22369051

$$$$
