
 OpenBabel03272507553D

 21 22  0  0  0  0  0  0  0  0999 V2000
   34.9690   28.8190   50.0490 C   0  0  0  0  0  0  0  0  0  0  0  0
   36.0720   29.6560   49.7520 C   0  0  0  0  0  0  0  0  0  0  0  0
   36.0340   30.3860   48.5670 C   0  0  0  0  0  0  0  0  0  0  0  0
   34.9480   30.2660   47.7510 N   0  0  0  0  0  0  0  0  0  0  0  0
   33.9070   29.4460   48.0770 C   0  0  0  0  0  0  0  0  0  0  0  0
   33.9110   28.7240   49.2200 N   0  0  0  0  0  0  0  0  0  0  0  0
   32.8850   29.4700   47.0930 N   0  0  0  0  0  0  0  0  0  0  0  0
   34.9390   28.2260   50.9560 H   0  0  0  0  0  0  0  0  0  0  0  0
   32.0920   30.1560   46.9880 H   0  0  0  0  0  0  0  0  0  0  0  0
   33.1760   28.6170   46.5360 H   0  0  0  0  0  0  0  0  0  0  0  0
   37.1580   31.2640   48.2270 C   0  0  0  0  0  0  0  0  0  0  0  0
   37.9080   30.9190   47.1080 C   0  0  0  0  0  0  0  0  0  0  0  0
   37.8300   30.1020   46.4060 H   0  0  0  0  0  0  0  0  0  0  0  0
   39.1820   32.2400   47.0340 S   0  0  0  0  0  0  0  0  0  0  0  0
   38.4380   33.0550   48.5980 C   0  0  0  0  0  0  0  0  0  0  0  0
   38.6970   33.9840   49.2160 H   0  0  0  0  0  0  0  0  0  0  0  0
   37.5810   32.3580   48.8320 N   0  0  0  0  0  0  0  0  0  0  0  0
   37.2110   29.7200   50.7050 C   0  0  0  0  0  0  0  0  0  0  0  0
   38.4300   29.6780   50.0380 F   0  0  0  0  0  0  0  0  0  0  0  0
   37.1310   30.9010   51.3930 F   0  0  0  0  0  0  0  0  0  0  0  0
   37.2000   28.6830   51.6160 F   0  0  0  0  0  0  0  0  0  0  0  0
  1  8  1  0  0  0  0
  2  1  1  0  0  0  0
  2 18  1  0  0  0  0
  3  2  2  0  0  0  0
  4  5  2  0  0  0  0
  4  3  1  0  0  0  0
  5  6  1  0  0  0  0
  6  1  2  0  0  0  0
  7  5  1  0  0  0  0
  9  7  1  0  0  0  0
 10  7  1  0  0  0  0
 11  3  1  0  0  0  0
 11 17  1  0  0  0  0
 12 11  2  0  0  0  0
 13 12  1  0  0  0  0
 14 12  1  0  0  0  0
 14 15  1  0  0  0  0
 15 17  2  0  0  0  0
 15 16  1  0  0  0  0
 18 20  1  0  0  0  0
 18 21  1  0  0  0  0
 19 18  1  0  0  0  0
M  END
>  <minimizedAffinity>
-5.37373543

>  <minimizedRMSD>
1.2920928

$$$$
