
 OpenBabel03272509473D

 23 24  0  0  0  0  0  0  0  0999 V2000
   34.1210   28.4670   48.5670 C   0  0  0  0  0  0  0  0  0  0  0  0
   33.1560   29.0360   48.6450 H   0  0  0  0  0  0  0  0  0  0  0  0
   34.7520   29.0240   47.8280 H   0  0  0  0  0  0  0  0  0  0  0  0
   33.8180   27.1270   47.9390 C   0  0  0  0  0  0  0  0  0  0  0  0
   33.1860   26.5430   48.6190 H   0  0  0  0  0  0  0  0  0  0  0  0
   34.7350   26.5600   47.7440 H   0  0  0  0  0  0  0  0  0  0  0  0
   33.0750   27.4410   46.6650 C   0  0  0  0  0  0  0  0  0  0  0  0
   32.7880   26.2400   45.8910 C   0  0  0  0  0  0  0  0  0  0  0  0
   32.9870   25.1930   46.0310 H   0  0  0  0  0  0  0  0  0  0  0  0
   31.8940   26.8940   44.4160 S   0  0  0  0  0  0  0  0  0  0  0  0
   32.0610   28.6620   45.0920 C   0  0  0  0  0  0  0  0  0  0  0  0
   31.8320   29.8700   44.9330 H   0  0  0  0  0  0  0  0  0  0  0  0
   32.6170   28.5210   46.0640 N   0  0  0  0  0  0  0  0  0  0  0  0
   34.7480   28.2920   49.8140 O   0  0  0  0  0  0  0  0  0  0  0  0
   37.3560   30.2400   51.4290 C   0  0  0  0  0  0  0  0  0  0  0  0
   38.0580   30.6700   50.2900 C   0  0  0  0  0  0  0  0  0  0  0  0
   37.6040   30.2730   49.0370 C   0  0  0  0  0  0  0  0  0  0  0  0
   36.4920   29.4810   48.9960 N   0  0  0  0  0  0  0  0  0  0  0  0
   35.8440   29.0880   50.1160 C   0  0  0  0  0  0  0  0  0  0  0  0
   36.2880   29.4750   51.3160 N   0  0  0  0  0  0  0  0  0  0  0  0
   37.6810   30.5300   52.4240 H   0  0  0  0  0  0  0  0  0  0  0  0
   38.9400   31.3030   50.3910 H   0  0  0  0  0  0  0  0  0  0  0  0
   38.1140   30.5800   48.1320 H   0  0  0  0  0  0  0  0  0  0  0  0
  1  2  1  0  0  0  0
  1 14  1  0  0  0  0
  3  1  1  0  0  0  0
  4  1  1  0  0  0  0
  4  5  1  0  0  0  0
  6  4  1  0  0  0  0
  7  4  1  0  0  0  0
  8  9  1  0  0  0  0
  8  7  2  0  0  0  0
 10 11  1  0  0  0  0
 10  8  1  0  0  0  0
 11 13  2  0  0  0  0
 12 11  1  0  0  0  0
 13  7  1  0  0  0  0
 14 19  1  0  0  0  0
 15 21  1  0  0  0  0
 16 22  1  0  0  0  0
 16 15  2  0  0  0  0
 17 16  1  0  0  0  0
 18 17  2  0  0  0  0
 18 19  1  0  0  0  0
 19 20  2  0  0  0  0
 20 15  1  0  0  0  0
 23 17  1  0  0  0  0
M  END
>  <minimizedAffinity>
-3.5640204

>  <minimizedRMSD>
0.239238322

$$$$
