
 OpenBabel03272509473D

 23 24  0  0  0  0  0  0  0  0999 V2000
   34.1060   28.4680   48.6090 C   0  0  0  0  0  0  0  0  0  0  0  0
   33.1200   28.9980   48.6990 H   0  0  0  0  0  0  0  0  0  0  0  0
   34.7120   29.0590   47.8750 H   0  0  0  0  0  0  0  0  0  0  0  0
   33.8520   27.1260   47.9630 C   0  0  0  0  0  0  0  0  0  0  0  0
   33.1500   26.5540   48.5820 H   0  0  0  0  0  0  0  0  0  0  0  0
   34.7770   26.5490   47.8630 H   0  0  0  0  0  0  0  0  0  0  0  0
   33.2400   27.4380   46.6210 C   0  0  0  0  0  0  0  0  0  0  0  0
   31.9420   28.0870   46.7490 C   0  0  0  0  0  0  0  0  0  0  0  0
   31.3350   28.3890   47.5820 H   0  0  0  0  0  0  0  0  0  0  0  0
   31.4300   28.3510   44.9970 S   0  0  0  0  0  0  0  0  0  0  0  0
   33.0430   27.5450   44.3970 C   0  0  0  0  0  0  0  0  0  0  0  0
   33.7450   27.1970   43.4370 H   0  0  0  0  0  0  0  0  0  0  0  0
   33.5740   27.2750   45.3540 N   0  0  0  0  0  0  0  0  0  0  0  0
   34.7460   28.3000   49.8500 O   0  0  0  0  0  0  0  0  0  0  0  0
   37.3730   30.2530   51.4270 C   0  0  0  0  0  0  0  0  0  0  0  0
   38.0640   30.6750   50.2780 C   0  0  0  0  0  0  0  0  0  0  0  0
   37.5970   30.2700   49.0320 C   0  0  0  0  0  0  0  0  0  0  0  0
   36.4830   29.4810   49.0070 N   0  0  0  0  0  0  0  0  0  0  0  0
   35.8450   29.0960   50.1360 C   0  0  0  0  0  0  0  0  0  0  0  0
   36.3030   29.4900   51.3290 N   0  0  0  0  0  0  0  0  0  0  0  0
   37.7090   30.5490   52.4160 H   0  0  0  0  0  0  0  0  0  0  0  0
   38.9480   31.3060   50.3650 H   0  0  0  0  0  0  0  0  0  0  0  0
   38.0980   30.5720   48.1190 H   0  0  0  0  0  0  0  0  0  0  0  0
  1  2  1  0  0  0  0
  1 14  1  0  0  0  0
  3  1  1  0  0  0  0
  4  5  1  0  0  0  0
  4  1  1  0  0  0  0
  6  4  1  0  0  0  0
  7  8  2  0  0  0  0
  7  4  1  0  0  0  0
  8  9  1  0  0  0  0
 10  8  1  0  0  0  0
 11 10  1  0  0  0  0
 11 13  2  0  0  0  0
 12 11  1  0  0  0  0
 13  7  1  0  0  0  0
 14 19  1  0  0  0  0
 15 21  1  0  0  0  0
 16 22  1  0  0  0  0
 16 15  2  0  0  0  0
 17 16  1  0  0  0  0
 18 17  2  0  0  0  0
 18 19  1  0  0  0  0
 19 20  2  0  0  0  0
 20 15  1  0  0  0  0
 23 17  1  0  0  0  0
M  END
>  <minimizedAffinity>
-3.61346984

>  <minimizedRMSD>
0.134493247

$$$$
