
 OpenBabel03272509533D

 41 44  0  0  0  0  0  0  0  0999 V2000
   34.3020   28.8810   47.9560 C   0  0  0  0  0  0  0  0  0  0  0  0
   35.0710   29.1530   47.2000 H   0  0  0  0  0  0  0  0  0  0  0  0
   33.7690   29.8110   48.2320 H   0  0  0  0  0  0  0  0  0  0  0  0
   33.4100   27.8190   47.4030 C   0  0  0  0  0  0  0  0  0  0  0  0
   33.7400   26.8060   47.6670 H   0  0  0  0  0  0  0  0  0  0  0  0
   33.4360   27.8610   46.2750 H   0  0  0  0  0  0  0  0  0  0  0  0
   31.9870   28.0000   47.7580 C   0  0  0  0  0  0  0  0  0  0  0  0
   31.5610   27.5280   48.9900 C   0  0  0  0  0  0  0  0  0  0  0  0
   30.2740   27.6360   49.4300 C   0  0  0  0  0  0  0  0  0  0  0  0
   29.3830   28.2250   48.6340 N   0  0  0  0  0  0  0  0  0  0  0  0
   29.7880   28.6910   47.4260 C   0  0  0  0  0  0  0  0  0  0  0  0
   31.0630   28.5930   46.9690 N   0  0  0  0  0  0  0  0  0  0  0  0
   32.2860   27.0430   49.6500 H   0  0  0  0  0  0  0  0  0  0  0  0
   29.9710   27.2570   50.3980 H   0  0  0  0  0  0  0  0  0  0  0  0
   28.7840   29.3410   46.5550 C   0  0  0  0  0  0  0  0  0  0  0  0
   28.8600   29.3910   45.0960 C   0  0  0  0  0  0  0  0  0  0  0  0
   29.6760   28.9400   44.6300 H   0  0  0  0  0  0  0  0  0  0  0  0
   27.2540   30.3620   44.8020 S   0  0  0  0  0  0  0  0  0  0  0  0
   26.8670   30.4700   46.6430 C   0  0  0  0  0  0  0  0  0  0  0  0
   25.9500   30.9950   46.9090 H   0  0  0  0  0  0  0  0  0  0  0  0
   27.7810   29.8910   47.2230 N   0  0  0  0  0  0  0  0  0  0  0  0
   35.0510   28.3770   49.0630 O   0  0  0  0  0  0  0  0  0  0  0  0
   37.2720   30.1390   51.2980 C   0  0  0  0  0  0  0  0  0  0  0  0
   38.0450   30.8570   50.3590 C   0  0  0  0  0  0  0  0  0  0  0  0
   37.7520   30.6890   49.0100 C   0  0  0  0  0  0  0  0  0  0  0  0
   36.7240   29.8270   48.7240 N   0  0  0  0  0  0  0  0  0  0  0  0
   36.0050   29.1590   49.6210 C   0  0  0  0  0  0  0  0  0  0  0  0
   36.2930   29.3240   50.9180 N   0  0  0  0  0  0  0  0  0  0  0  0
   37.5410   30.3060   52.3230 H   0  0  0  0  0  0  0  0  0  0  0  0
   38.8480   31.5280   50.6070 H   0  0  0  0  0  0  0  0  0  0  0  0
   38.9370   33.3220   48.9440 F   0  0  0  0  0  0  0  0  0  0  0  0
   38.9880   32.5640   47.8630 C   0  0  0  0  0  0  0  0  0  0  0  0
   38.4240   31.3300   47.9180 C   0  0  0  0  0  0  0  0  0  0  0  0
   38.5360   30.6150   46.7200 C   0  0  0  0  0  0  0  0  0  0  0  0
   39.1600   31.1260   45.6030 C   0  0  0  0  0  0  0  0  0  0  0  0
   39.7150   32.3840   45.6040 C   0  0  0  0  0  0  0  0  0  0  0  0
   39.6160   33.0980   46.7610 C   0  0  0  0  0  0  0  0  0  0  0  0
   38.1210   29.6100   46.6410 H   0  0  0  0  0  0  0  0  0  0  0  0
   39.2140   30.5170   44.7000 H   0  0  0  0  0  0  0  0  0  0  0  0
   40.1820   32.7180   44.7050 H   0  0  0  0  0  0  0  0  0  0  0  0
   40.0480   34.0900   46.7810 H   0  0  0  0  0  0  0  0  0  0  0  0
  1  3  1  0  0  0  0
  1 22  1  0  0  0  0
  2  1  1  0  0  0  0
  4  5  1  0  0  0  0
  4  7  1  0  0  0  0
  4  1  1  0  0  0  0
  6  4  1  0  0  0  0
  7  8  1  0  0  0  0
  8  9  2  0  0  0  0
  8 13  1  0  0  0  0
  9 14  1  0  0  0  0
 10  9  1  0  0  0  0
 11 10  2  0  0  0  0
 12 11  1  0  0  0  0
 12  7  2  0  0  0  0
 15 21  1  0  0  0  0
 15 11  1  0  0  0  0
 16 15  2  0  0  0  0
 17 16  1  0  0  0  0
 18 16  1  0  0  0  0
 18 19  1  0  0  0  0
 19 20  1  0  0  0  0
 19 21  2  0  0  0  0
 22 27  1  0  0  0  0
 23 29  1  0  0  0  0
 24 30  1  0  0  0  0
 24 23  2  0  0  0  0
 25 24  1  0  0  0  0
 26 25  2  0  0  0  0
 26 27  1  0  0  0  0
 27 28  2  0  0  0  0
 28 23  1  0  0  0  0
 32 33  1  0  0  0  0
 32 31  1  0  0  0  0
 33 25  1  0  0  0  0
 34 33  2  0  0  0  0
 35 36  2  0  0  0  0
 35 34  1  0  0  0  0
 36 37  1  0  0  0  0
 37 41  1  0  0  0  0
 37 32  2  0  0  0  0
 38 34  1  0  0  0  0
 39 35  1  0  0  0  0
 40 36  1  0  0  0  0
M  END
>  <minimizedAffinity>
-6.67676783

>  <minimizedRMSD>
0.779193819

$$$$
