
 OpenBabel03272510123D

 33 36  0  0  0  0  0  0  0  0999 V2000
   33.5330   28.5050   48.2230 C   0  0  0  0  0  0  0  0  0  0  0  0
   34.2840   28.1600   49.2910 C   0  0  0  0  0  0  0  0  0  0  0  0
   35.5310   28.6860   49.5840 C   0  0  0  0  0  0  0  0  0  0  0  0
   36.0760   29.6240   48.7550 C   0  0  0  0  0  0  0  0  0  0  0  0
   35.3040   29.9890   47.6440 C   0  0  0  0  0  0  0  0  0  0  0  0
   34.1000   29.4360   47.4210 N   0  0  0  0  0  0  0  0  0  0  0  0
   33.9360   27.4240   50.0030 H   0  0  0  0  0  0  0  0  0  0  0  0
   36.1290   28.4100   50.4360 H   0  0  0  0  0  0  0  0  0  0  0  0
   35.5880   30.7140   46.8940 H   0  0  0  0  0  0  0  0  0  0  0  0
   31.2880   27.6120   48.8980 C   0  0  0  0  0  0  0  0  0  0  0  0
   32.2450   27.9560   47.9280 C   0  0  0  0  0  0  0  0  0  0  0  0
   31.8840   27.7350   46.6060 C   0  0  0  0  0  0  0  0  0  0  0  0
   30.6430   27.2070   46.3320 N   0  0  0  0  0  0  0  0  0  0  0  0
   29.7770   26.9010   47.3150 C   0  0  0  0  0  0  0  0  0  0  0  0
   30.0910   27.1020   48.6150 N   0  0  0  0  0  0  0  0  0  0  0  0
   31.5400   27.7730   49.9390 H   0  0  0  0  0  0  0  0  0  0  0  0
   32.5230   27.9540   45.7610 H   0  0  0  0  0  0  0  0  0  0  0  0
   28.8040   26.4870   47.0920 H   0  0  0  0  0  0  0  0  0  0  0  0
   37.3110   30.2590   48.8920 O   0  0  0  0  0  0  0  0  0  0  0  0
   37.9400   30.8710   47.8200 C   0  0  0  0  0  0  0  0  0  0  0  0
   38.3490   32.1680   48.0550 C   0  0  0  0  0  0  0  0  0  0  0  0
   38.9590   32.6460   46.8990 C   0  0  0  0  0  0  0  0  0  0  0  0
   38.9020   31.6420   46.0130 N   0  0  0  0  0  0  0  0  0  0  0  0
   38.3070   30.6150   46.5620 N   0  0  0  0  0  0  0  0  0  0  0  0
   38.3020   32.8660   48.9030 H   0  0  0  0  0  0  0  0  0  0  0  0
   39.4270   33.5740   46.5890 H   0  0  0  0  0  0  0  0  0  0  0  0
   39.3440   31.4680   44.6470 C   0  0  0  0  0  0  0  0  0  0  0  0
   39.7760   30.1680   43.9590 C   0  0  0  0  0  0  0  0  0  0  0  0
   39.7040   29.3590   44.6680 H   0  0  0  0  0  0  0  0  0  0  0  0
   40.1510   30.8440   42.3240 S   0  0  0  0  0  0  0  0  0  0  0  0
   39.7040   32.6340   42.7730 C   0  0  0  0  0  0  0  0  0  0  0  0
   39.8230   33.3190   41.9790 H   0  0  0  0  0  0  0  0  0  0  0  0
   39.3280   32.6470   44.0130 N   0  0  0  0  0  0  0  0  0  0  0  0
  1  2  1  0  0  0  0
  2  3  2  0  0  0  0
  2  7  1  0  0  0  0
  3  8  1  0  0  0  0
  4 19  1  0  0  0  0
  4  3  1  0  0  0  0
  5  4  2  0  0  0  0
  6  5  1  0  0  0  0
  6  1  2  0  0  0  0
  9  5  1  0  0  0  0
 10 16  1  0  0  0  0
 11  1  1  0  0  0  0
 11 10  2  0  0  0  0
 12 11  1  0  0  0  0
 13 12  2  0  0  0  0
 13 14  1  0  0  0  0
 14 15  2  0  0  0  0
 15 10  1  0  0  0  0
 17 12  1  0  0  0  0
 18 14  1  0  0  0  0
 20 21  1  0  0  0  0
 20 19  1  0  0  0  0
 21 25  1  0  0  0  0
 22 21  2  0  0  0  0
 23 24  1  0  0  0  0
 23 22  1  0  0  0  0
 24 20  2  0  0  0  0
 26 22  1  0  0  0  0
 27 23  1  0  0  0  0
 28 27  2  0  0  0  0
 28 29  1  0  0  0  0
 30 31  1  0  0  0  0
 30 28  1  0  0  0  0
 31 33  2  0  0  0  0
 32 31  1  0  0  0  0
 33 27  1  0  0  0  0
M  END
>  <minimizedAffinity>
-5.45157957

>  <minimizedRMSD>
2.19917059

$$$$
