
 OpenBabel03262523063D

 39 43  0  0  0  0  0  0  0  0999 V2000
   37.2360   30.9010   49.7010 C   0  0  0  0  0  0  0  0  0  0  0  0
   37.4760   30.5490   51.0100 C   0  0  0  0  0  0  0  0  0  0  0  0
   36.6570   29.6320   51.6020 C   0  0  0  0  0  0  0  0  0  0  0  0
   35.6240   29.0810   50.9030 N   0  0  0  0  0  0  0  0  0  0  0  0
   35.4240   29.4530   49.6270 C   0  0  0  0  0  0  0  0  0  0  0  0
   36.2220   30.3570   49.0210 N   0  0  0  0  0  0  0  0  0  0  0  0
   38.2930   30.9800   51.5740 H   0  0  0  0  0  0  0  0  0  0  0  0
   36.8360   29.3540   52.6150 H   0  0  0  0  0  0  0  0  0  0  0  0
   34.3340   28.8500   48.8990 C   0  0  0  0  0  0  0  0  0  0  0  0
   34.4690   28.5660   47.5540 C   0  0  0  0  0  0  0  0  0  0  0  0
   33.5350   27.9820   46.7200 C   0  0  0  0  0  0  0  0  0  0  0  0
   32.3340   27.6600   47.3510 C   0  0  0  0  0  0  0  0  0  0  0  0
   31.3570   27.0800   46.6300 N   0  0  0  0  0  0  0  0  0  0  0  0
   30.1700   26.7250   47.1250 C   0  0  0  0  0  0  0  0  0  0  0  0
   29.9250   26.9630   48.4610 C   0  0  0  0  0  0  0  0  0  0  0  0
   30.9120   27.5550   49.2170 C   0  0  0  0  0  0  0  0  0  0  0  0
   32.1450   27.9210   48.6870 C   0  0  0  0  0  0  0  0  0  0  0  0
   33.1290   28.5090   49.4560 C   0  0  0  0  0  0  0  0  0  0  0  0
   35.4200   28.8290   47.0780 H   0  0  0  0  0  0  0  0  0  0  0  0
   33.7400   27.8040   45.6860 H   0  0  0  0  0  0  0  0  0  0  0  0
   29.4030   26.2560   46.5040 H   0  0  0  0  0  0  0  0  0  0  0  0
   28.9600   26.6720   48.8560 H   0  0  0  0  0  0  0  0  0  0  0  0
   30.7470   27.7540   50.2640 H   0  0  0  0  0  0  0  0  0  0  0  0
   32.9580   28.7060   50.5100 H   0  0  0  0  0  0  0  0  0  0  0  0
   39.2950   33.8520   48.9730 C   0  0  0  0  0  0  0  0  0  0  0  0
   39.6590   33.6530   47.6470 C   0  0  0  0  0  0  0  0  0  0  0  0
   39.1930   32.4930   46.9910 C   0  0  0  0  0  0  0  0  0  0  0  0
   38.4130   31.6610   47.7410 N   0  0  0  0  0  0  0  0  0  0  0  0
   38.0790   31.8780   49.0140 C   0  0  0  0  0  0  0  0  0  0  0  0
   38.5280   32.9800   49.6190 N   0  0  0  0  0  0  0  0  0  0  0  0
   39.6740   34.7620   49.4530 H   0  0  0  0  0  0  0  0  0  0  0  0
   40.2720   34.3660   47.1600 H   0  0  0  0  0  0  0  0  0  0  0  0
   39.5530   32.2360   45.5810 C   0  0  0  0  0  0  0  0  0  0  0  0
   40.1430   31.0360   45.2100 C   0  0  0  0  0  0  0  0  0  0  0  0
   40.4190   30.1470   45.8580 H   0  0  0  0  0  0  0  0  0  0  0  0
   40.3430   31.3060   43.3900 S   0  0  0  0  0  0  0  0  0  0  0  0
   39.5680   33.0400   43.4800 C   0  0  0  0  0  0  0  0  0  0  0  0
   39.4090   33.7350   42.6470 H   0  0  0  0  0  0  0  0  0  0  0  0
   39.2990   33.1660   44.6980 N   0  0  0  0  0  0  0  0  0  0  0  0
  1  2  1  0  0  0  0
  2  7  1  0  0  0  0
  2  3  2  0  0  0  0
  3  8  1  0  0  0  0
  4  3  1  0  0  0  0
  5  4  2  0  0  0  0
  6  5  1  0  0  0  0
  6  1  2  0  0  0  0
  9 18  1  0  0  0  0
  9  5  1  0  0  0  0
 10  9  2  0  0  0  0
 11 12  2  0  0  0  0
 11 10  1  0  0  0  0
 12 17  1  0  0  0  0
 13 14  2  0  0  0  0
 13 12  1  0  0  0  0
 14 15  1  0  0  0  0
 15 22  1  0  0  0  0
 15 16  2  0  0  0  0
 16 23  1  0  0  0  0
 17 16  1  0  0  0  0
 17 18  2  0  0  0  0
 18 24  1  0  0  0  0
 19 10  1  0  0  0  0
 20 11  1  0  0  0  0
 21 14  1  0  0  0  0
 25 31  1  0  0  0  0
 25 30  1  0  0  0  0
 26 25  2  0  0  0  0
 27 26  1  0  0  0  0
 27 28  2  0  0  0  0
 28 29  1  0  0  0  0
 29 30  2  0  0  0  0
 29  1  1  0  0  0  0
 32 26  1  0  0  0  0
 33 27  1  0  0  0  0
 34 33  2  0  0  0  0
 34 35  1  0  0  0  0
 36 37  1  0  0  0  0
 36 34  1  0  0  0  0
 37 39  2  0  0  0  0
 38 37  1  0  0  0  0
 39 33  1  0  0  0  0
M  END
>  <minimizedAffinity>
-7.2183938

>  <minimizedRMSD>
0.658484936

$$$$
