
 OpenBabel03272509263D

 23 24  0  0  0  0  0  0  0  0999 V2000
   38.2950   27.0110   35.6770 C   0  0  0  0  0  0  0  0  0  0  0  0
   38.1980   27.5340   36.6590 H   0  0  0  0  0  0  0  0  0  0  0  0
   39.1340   27.4660   35.1220 H   0  0  0  0  0  0  0  0  0  0  0  0
   38.1740   23.4260   36.8360 C   0  0  0  0  0  0  0  0  0  0  0  0
   37.8390   24.7630   36.7140 C   0  0  0  0  0  0  0  0  0  0  0  0
   38.5620   25.5790   35.8770 C   0  0  0  0  0  0  0  0  0  0  0  0
   39.5980   25.0080   35.1960 N   0  0  0  0  0  0  0  0  0  0  0  0
   39.9070   23.7060   35.3290 C   0  0  0  0  0  0  0  0  0  0  0  0
   39.2050   22.9020   36.1450 N   0  0  0  0  0  0  0  0  0  0  0  0
   37.6460   22.7320   37.4760 H   0  0  0  0  0  0  0  0  0  0  0  0
   37.0080   25.1600   37.2790 H   0  0  0  0  0  0  0  0  0  0  0  0
   40.7690   23.4030   34.7110 H   0  0  0  0  0  0  0  0  0  0  0  0
   37.0380   27.2290   34.8710 C   0  0  0  0  0  0  0  0  0  0  0  0
   36.6550   28.2530   35.1720 H   0  0  0  0  0  0  0  0  0  0  0  0
   36.2160   26.5540   35.0940 H   0  0  0  0  0  0  0  0  0  0  0  0
   37.4360   27.3420   33.0960 S   0  0  0  0  0  0  0  0  0  0  0  0
   36.6150   25.9790   32.2340 C   0  0  0  0  0  0  0  0  0  0  0  0
   37.0580   24.7140   32.4250 C   0  0  0  0  0  0  0  0  0  0  0  0
   37.8620   24.3150   33.0320 H   0  0  0  0  0  0  0  0  0  0  0  0
   35.9240   23.7170   31.3540 S   0  0  0  0  0  0  0  0  0  0  0  0
   35.0160   25.3220   30.8270 C   0  0  0  0  0  0  0  0  0  0  0  0
   34.1700   25.3620   30.1360 H   0  0  0  0  0  0  0  0  0  0  0  0
   35.5950   26.0920   31.4100 N   0  0  0  0  0  0  0  0  0  0  0  0
  1  6  1  0  0  0  0
  1  2  1  0  0  0  0
  3  1  1  0  0  0  0
  4 10  1  0  0  0  0
  5  4  1  0  0  0  0
  5 11  1  0  0  0  0
  6  5  2  0  0  0  0
  7  8  2  0  0  0  0
  7  6  1  0  0  0  0
  8  9  1  0  0  0  0
  9  4  2  0  0  0  0
 12  8  1  0  0  0  0
 13 15  1  0  0  0  0
 13 14  1  0  0  0  0
 13  1  1  0  0  0  0
 16 13  1  0  0  0  0
 17 18  2  0  0  0  0
 17 16  1  0  0  0  0
 18 19  1  0  0  0  0
 20 18  1  0  0  0  0
 21 20  1  0  0  0  0
 21 23  2  0  0  0  0
 22 21  1  0  0  0  0
 23 17  1  0  0  0  0
M  END
>  <minimizedAffinity>
-3.77293849

$$$$

 OpenBabel03272509263D

 23 24  0  0  0  0  0  0  0  0999 V2000
   37.3640   27.4310   33.2810 C   0  0  0  0  0  0  0  0  0  0  0  0
   38.4760   27.3660   33.1960 H   0  0  0  0  0  0  0  0  0  0  0  0
   37.0450   28.4190   32.9080 H   0  0  0  0  0  0  0  0  0  0  0  0
   35.1890   25.5340   30.8570 C   0  0  0  0  0  0  0  0  0  0  0  0
   35.7340   26.5980   31.5540 C   0  0  0  0  0  0  0  0  0  0  0  0
   36.7210   26.3770   32.4840 C   0  0  0  0  0  0  0  0  0  0  0  0
   37.1200   25.0840   32.6720 N   0  0  0  0  0  0  0  0  0  0  0  0
   36.5760   24.0640   31.9830 C   0  0  0  0  0  0  0  0  0  0  0  0
   35.6110   24.2730   31.0730 N   0  0  0  0  0  0  0  0  0  0  0  0
   34.4100   25.6410   30.1130 H   0  0  0  0  0  0  0  0  0  0  0  0
   35.3780   27.6010   31.3630 H   0  0  0  0  0  0  0  0  0  0  0  0
   37.0080   23.0870   32.2520 H   0  0  0  0  0  0  0  0  0  0  0  0
   36.9700   27.3390   34.7350 C   0  0  0  0  0  0  0  0  0  0  0  0
   36.2850   26.4380   34.8110 H   0  0  0  0  0  0  0  0  0  0  0  0
   36.3740   28.1670   35.1110 H   0  0  0  0  0  0  0  0  0  0  0  0
   38.4240   26.9540   35.7630 S   0  0  0  0  0  0  0  0  0  0  0  0
   38.4680   25.1690   36.0550 C   0  0  0  0  0  0  0  0  0  0  0  0
   39.4200   24.4220   35.4450 C   0  0  0  0  0  0  0  0  0  0  0  0
   40.2220   24.6900   34.7670 H   0  0  0  0  0  0  0  0  0  0  0  0
   39.0480   22.7130   36.0490 S   0  0  0  0  0  0  0  0  0  0  0  0
   37.5800   23.3980   37.0760 C   0  0  0  0  0  0  0  0  0  0  0  0
   36.9220   22.7920   37.7030 H   0  0  0  0  0  0  0  0  0  0  0  0
   37.6430   24.4940   36.8270 N   0  0  0  0  0  0  0  0  0  0  0  0
  1 13  1  0  0  0  0
  2  1  1  0  0  0  0
  3  1  1  0  0  0  0
  4  9  2  0  0  0  0
  4  5  1  0  0  0  0
  5  6  2  0  0  0  0
  6  7  1  0  0  0  0
  6  1  1  0  0  0  0
  8 12  1  0  0  0  0
  8  7  2  0  0  0  0
  9  8  1  0  0  0  0
 10  4  1  0  0  0  0
 11  5  1  0  0  0  0
 13 14  1  0  0  0  0
 13 15  1  0  0  0  0
 13 16  1  0  0  0  0
 16 17  1  0  0  0  0
 17 23  1  0  0  0  0
 18 20  1  0  0  0  0
 18 17  2  0  0  0  0
 19 18  1  0  0  0  0
 20 21  1  0  0  0  0
 21 22  1  0  0  0  0
 23 21  2  0  0  0  0
M  END
>  <minimizedAffinity>
-3.76375031

$$$$

 OpenBabel03272509263D

 23 24  0  0  0  0  0  0  0  0999 V2000
   38.6980   24.7860   34.6250 C   0  0  0  0  0  0  0  0  0  0  0  0
   39.7070   25.1540   34.3160 H   0  0  0  0  0  0  0  0  0  0  0  0
   38.4060   23.9650   33.9480 H   0  0  0  0  0  0  0  0  0  0  0  0
   38.0040   24.1920   38.2810 C   0  0  0  0  0  0  0  0  0  0  0  0
   37.8900   24.7190   37.0070 C   0  0  0  0  0  0  0  0  0  0  0  0
   38.7300   24.2900   36.0090 C   0  0  0  0  0  0  0  0  0  0  0  0
   39.6550   23.3420   36.3400 N   0  0  0  0  0  0  0  0  0  0  0  0
   39.7490   22.8430   37.5850 C   0  0  0  0  0  0  0  0  0  0  0  0
   38.9310   23.2570   38.5670 N   0  0  0  0  0  0  0  0  0  0  0  0
   37.3740   24.4860   39.1110 H   0  0  0  0  0  0  0  0  0  0  0  0
   37.1370   25.4690   36.8040 H   0  0  0  0  0  0  0  0  0  0  0  0
   40.5460   22.0880   37.6860 H   0  0  0  0  0  0  0  0  0  0  0  0
   37.6910   25.8970   34.4610 C   0  0  0  0  0  0  0  0  0  0  0  0
   38.2670   26.8600   34.6250 H   0  0  0  0  0  0  0  0  0  0  0  0
   36.8990   25.9240   35.2050 H   0  0  0  0  0  0  0  0  0  0  0  0
   37.0870   25.9580   32.7430 S   0  0  0  0  0  0  0  0  0  0  0  0
   36.4770   27.6270   32.4040 C   0  0  0  0  0  0  0  0  0  0  0  0
   36.3900   28.0510   31.1210 C   0  0  0  0  0  0  0  0  0  0  0  0
   36.6270   27.5640   30.1820 H   0  0  0  0  0  0  0  0  0  0  0  0
   35.7300   29.7710   31.3030 S   0  0  0  0  0  0  0  0  0  0  0  0
   35.7020   29.5560   33.2090 C   0  0  0  0  0  0  0  0  0  0  0  0
   35.3730   30.3190   33.9180 H   0  0  0  0  0  0  0  0  0  0  0  0
   36.0930   28.5040   33.3070 N   0  0  0  0  0  0  0  0  0  0  0  0
  1  6  1  0  0  0  0
  2  1  1  0  0  0  0
  3  1  1  0  0  0  0
  4  9  1  0  0  0  0
  4 10  1  0  0  0  0
  5  4  2  0  0  0  0
  6  7  2  0  0  0  0
  6  5  1  0  0  0  0
  7  8  1  0  0  0  0
  8 12  1  0  0  0  0
  8  9  2  0  0  0  0
 11  5  1  0  0  0  0
 13 14  1  0  0  0  0
 13  1  1  0  0  0  0
 13 15  1  0  0  0  0
 16 13  1  0  0  0  0
 17 16  1  0  0  0  0
 17 23  1  0  0  0  0
 18 20  1  0  0  0  0
 18 17  2  0  0  0  0
 19 18  1  0  0  0  0
 20 21  1  0  0  0  0
 21 23  2  0  0  0  0
 21 22  1  0  0  0  0
M  END
>  <minimizedAffinity>
-3.61030579

$$$$

 OpenBabel03272509263D

 23 24  0  0  0  0  0  0  0  0999 V2000
   39.2720   24.5600   34.5980 C   0  0  0  0  0  0  0  0  0  0  0  0
   39.9120   25.4740   34.5380 H   0  0  0  0  0  0  0  0  0  0  0  0
   39.7830   23.7430   34.0620 H   0  0  0  0  0  0  0  0  0  0  0  0
   37.9490   24.2310   38.1120 C   0  0  0  0  0  0  0  0  0  0  0  0
   38.0600   24.6620   36.8010 C   0  0  0  0  0  0  0  0  0  0  0  0
   39.0600   24.1690   35.9990 C   0  0  0  0  0  0  0  0  0  0  0  0
   39.9100   23.2560   36.5560 N   0  0  0  0  0  0  0  0  0  0  0  0
   39.7840   22.8510   37.8320 C   0  0  0  0  0  0  0  0  0  0  0  0
   38.8080   23.3290   38.6220 N   0  0  0  0  0  0  0  0  0  0  0  0
   37.1850   24.5800   38.7950 H   0  0  0  0  0  0  0  0  0  0  0  0
   37.3570   25.3870   36.4150 H   0  0  0  0  0  0  0  0  0  0  0  0
   40.5480   22.1130   38.1260 H   0  0  0  0  0  0  0  0  0  0  0  0
   37.9620   24.8230   33.8960 C   0  0  0  0  0  0  0  0  0  0  0  0
   37.9860   25.9180   33.6010 H   0  0  0  0  0  0  0  0  0  0  0  0
   37.0730   24.7260   34.5140 H   0  0  0  0  0  0  0  0  0  0  0  0
   37.8790   23.8830   32.3370 S   0  0  0  0  0  0  0  0  0  0  0  0
   36.8160   22.4410   32.5880 C   0  0  0  0  0  0  0  0  0  0  0  0
   36.9850   21.6790   33.6950 C   0  0  0  0  0  0  0  0  0  0  0  0
   37.6770   21.7580   34.5250 H   0  0  0  0  0  0  0  0  0  0  0  0
   35.6940   20.3690   33.4910 S   0  0  0  0  0  0  0  0  0  0  0  0
   35.1470   21.1700   31.8360 C   0  0  0  0  0  0  0  0  0  0  0  0
   34.3420   20.7950   31.1980 H   0  0  0  0  0  0  0  0  0  0  0  0
   35.8590   22.0400   31.7780 N   0  0  0  0  0  0  0  0  0  0  0  0
  1  6  1  0  0  0  0
  2  1  1  0  0  0  0
  3  1  1  0  0  0  0
  4  9  1  0  0  0  0
  4 10  1  0  0  0  0
  5  4  2  0  0  0  0
  6  7  2  0  0  0  0
  6  5  1  0  0  0  0
  7  8  1  0  0  0  0
  8 12  1  0  0  0  0
  8  9  2  0  0  0  0
 11  5  1  0  0  0  0
 13 15  1  0  0  0  0
 13  1  1  0  0  0  0
 14 13  1  0  0  0  0
 16 17  1  0  0  0  0
 16 13  1  0  0  0  0
 17 18  2  0  0  0  0
 18 19  1  0  0  0  0
 20 18  1  0  0  0  0
 21 20  1  0  0  0  0
 22 21  1  0  0  0  0
 23 21  2  0  0  0  0
 23 17  1  0  0  0  0
M  END
>  <minimizedAffinity>
-3.56013799

$$$$

 OpenBabel03272509263D

 23 24  0  0  0  0  0  0  0  0999 V2000
   37.6980   25.8640   35.4440 C   0  0  0  0  0  0  0  0  0  0  0  0
   36.6260   25.5880   35.2910 H   0  0  0  0  0  0  0  0  0  0  0  0
   37.7360   26.8000   36.0280 H   0  0  0  0  0  0  0  0  0  0  0  0
   40.0870   23.1310   36.4550 C   0  0  0  0  0  0  0  0  0  0  0  0
   39.4930   24.1180   35.6890 C   0  0  0  0  0  0  0  0  0  0  0  0
   38.4060   24.8030   36.1740 C   0  0  0  0  0  0  0  0  0  0  0  0
   37.9620   24.4620   37.4200 N   0  0  0  0  0  0  0  0  0  0  0  0
   38.5540   23.4990   38.1480 C   0  0  0  0  0  0  0  0  0  0  0  0
   39.6180   22.8250   37.6800 N   0  0  0  0  0  0  0  0  0  0  0  0
   40.9450   22.5550   36.1320 H   0  0  0  0  0  0  0  0  0  0  0  0
   39.8890   24.3450   34.7090 H   0  0  0  0  0  0  0  0  0  0  0  0
   38.0750   23.3460   39.1290 H   0  0  0  0  0  0  0  0  0  0  0  0
   38.3380   26.1330   34.1040 C   0  0  0  0  0  0  0  0  0  0  0  0
   39.0350   25.2580   33.9170 H   0  0  0  0  0  0  0  0  0  0  0  0
   38.9820   27.0080   34.0610 H   0  0  0  0  0  0  0  0  0  0  0  0
   37.0880   26.0740   32.7800 S   0  0  0  0  0  0  0  0  0  0  0  0
   36.7850   24.3430   32.3490 C   0  0  0  0  0  0  0  0  0  0  0  0
   35.8250   24.0460   31.4410 C   0  0  0  0  0  0  0  0  0  0  0  0
   35.1490   24.6750   30.8740 H   0  0  0  0  0  0  0  0  0  0  0  0
   35.9050   22.1990   31.3510 S   0  0  0  0  0  0  0  0  0  0  0  0
   37.3180   22.1990   32.6480 C   0  0  0  0  0  0  0  0  0  0  0  0
   37.8170   21.3040   33.0270 H   0  0  0  0  0  0  0  0  0  0  0  0
   37.4240   23.3030   32.8430 N   0  0  0  0  0  0  0  0  0  0  0  0
  1  3  1  0  0  0  0
  1  6  1  0  0  0  0
  2  1  1  0  0  0  0
  4  9  1  0  0  0  0
  5  6  1  0  0  0  0
  5  4  2  0  0  0  0
  6  7  2  0  0  0  0
  7  8  1  0  0  0  0
  8 12  1  0  0  0  0
  9  8  2  0  0  0  0
 10  4  1  0  0  0  0
 11  5  1  0  0  0  0
 13  1  1  0  0  0  0
 14 13  1  0  0  0  0
 15 13  1  0  0  0  0
 16 13  1  0  0  0  0
 17 16  1  0  0  0  0
 17 23  1  0  0  0  0
 18 17  2  0  0  0  0
 19 18  1  0  0  0  0
 20 18  1  0  0  0  0
 20 21  1  0  0  0  0
 21 23  2  0  0  0  0
 21 22  1  0  0  0  0
M  END
>  <minimizedAffinity>
-3.48208427

$$$$

 OpenBabel03272509263D

 23 24  0  0  0  0  0  0  0  0999 V2000
   38.2770   25.1140   34.8190 C   0  0  0  0  0  0  0  0  0  0  0  0
   38.7180   24.5590   33.9550 H   0  0  0  0  0  0  0  0  0  0  0  0
   37.1860   25.1760   34.6710 H   0  0  0  0  0  0  0  0  0  0  0  0
   39.7360   22.8750   37.4770 C   0  0  0  0  0  0  0  0  0  0  0  0
   39.5540   23.4810   36.2470 C   0  0  0  0  0  0  0  0  0  0  0  0
   38.5600   24.4140   36.0810 C   0  0  0  0  0  0  0  0  0  0  0  0
   37.7870   24.6980   37.1700 N   0  0  0  0  0  0  0  0  0  0  0  0
   37.9800   24.0980   38.3580 C   0  0  0  0  0  0  0  0  0  0  0  0
   38.9510   23.1840   38.5270 N   0  0  0  0  0  0  0  0  0  0  0  0
   40.4990   22.1330   37.6730 H   0  0  0  0  0  0  0  0  0  0  0  0
   40.1970   23.2150   35.4190 H   0  0  0  0  0  0  0  0  0  0  0  0
   37.2730   24.4380   39.1320 H   0  0  0  0  0  0  0  0  0  0  0  0
   38.8200   26.5210   34.8370 C   0  0  0  0  0  0  0  0  0  0  0  0
   39.6900   26.5060   35.5640 H   0  0  0  0  0  0  0  0  0  0  0  0
   38.1470   27.2780   35.2330 H   0  0  0  0  0  0  0  0  0  0  0  0
   39.5290   26.9470   33.2130 S   0  0  0  0  0  0  0  0  0  0  0  0
   38.2000   27.5500   32.1430 C   0  0  0  0  0  0  0  0  0  0  0  0
   38.4870   27.9010   30.8670 C   0  0  0  0  0  0  0  0  0  0  0  0
   39.4160   27.8980   30.3090 H   0  0  0  0  0  0  0  0  0  0  0  0
   36.8400   28.4330   30.2100 S   0  0  0  0  0  0  0  0  0  0  0  0
   36.0400   28.0460   31.9100 C   0  0  0  0  0  0  0  0  0  0  0  0
   34.9810   28.1780   32.1440 H   0  0  0  0  0  0  0  0  0  0  0  0
   36.9370   27.6860   32.4870 N   0  0  0  0  0  0  0  0  0  0  0  0
  1 13  1  0  0  0  0
  1  6  1  0  0  0  0
  2  1  1  0  0  0  0
  3  1  1  0  0  0  0
  4 10  1  0  0  0  0
  4  9  1  0  0  0  0
  5  4  2  0  0  0  0
  6  5  1  0  0  0  0
  6  7  2  0  0  0  0
  7  8  1  0  0  0  0
  8  9  2  0  0  0  0
  8 12  1  0  0  0  0
 11  5  1  0  0  0  0
 13 15  1  0  0  0  0
 13 14  1  0  0  0  0
 16 13  1  0  0  0  0
 17 23  1  0  0  0  0
 17 16  1  0  0  0  0
 18 17  2  0  0  0  0
 19 18  1  0  0  0  0
 20 18  1  0  0  0  0
 20 21  1  0  0  0  0
 21 22  1  0  0  0  0
 21 23  2  0  0  0  0
M  END
>  <minimizedAffinity>
-3.45893335

$$$$

 OpenBabel03272509263D

 23 24  0  0  0  0  0  0  0  0999 V2000
   35.8840   23.3080   31.6100 C   0  0  0  0  0  0  0  0  0  0  0  0
   35.4000   23.7630   30.7120 H   0  0  0  0  0  0  0  0  0  0  0  0
   35.3490   23.6590   32.5080 H   0  0  0  0  0  0  0  0  0  0  0  0
   34.9370   19.6940   32.1080 C   0  0  0  0  0  0  0  0  0  0  0  0
   34.9130   21.0710   32.2340 C   0  0  0  0  0  0  0  0  0  0  0  0
   35.8180   21.8400   31.5440 C   0  0  0  0  0  0  0  0  0  0  0  0
   36.7150   21.1830   30.7520 N   0  0  0  0  0  0  0  0  0  0  0  0
   36.7220   19.8420   30.6430 C   0  0  0  0  0  0  0  0  0  0  0  0
   35.8390   19.0840   31.3150 N   0  0  0  0  0  0  0  0  0  0  0  0
   34.2530   19.0320   32.6230 H   0  0  0  0  0  0  0  0  0  0  0  0
   34.1790   21.5360   32.8780 H   0  0  0  0  0  0  0  0  0  0  0  0
   37.5060   19.4700   29.9650 H   0  0  0  0  0  0  0  0  0  0  0  0
   37.3110   23.7910   31.7050 C   0  0  0  0  0  0  0  0  0  0  0  0
   37.2660   24.9120   31.5470 H   0  0  0  0  0  0  0  0  0  0  0  0
   37.9790   23.4320   30.9260 H   0  0  0  0  0  0  0  0  0  0  0  0
   37.9510   23.5450   33.3930 S   0  0  0  0  0  0  0  0  0  0  0  0
   37.9990   25.1480   34.2310 C   0  0  0  0  0  0  0  0  0  0  0  0
   38.9390   25.3700   35.1810 C   0  0  0  0  0  0  0  0  0  0  0  0
   39.7290   24.7410   35.5750 H   0  0  0  0  0  0  0  0  0  0  0  0
   38.5770   27.1040   35.7170 S   0  0  0  0  0  0  0  0  0  0  0  0
   37.1280   27.1870   34.4620 C   0  0  0  0  0  0  0  0  0  0  0  0
   36.4810   28.0540   34.3140 H   0  0  0  0  0  0  0  0  0  0  0  0
   37.1870   26.1590   34.0060 N   0  0  0  0  0  0  0  0  0  0  0  0
  1 13  1  0  0  0  0
  1  3  1  0  0  0  0
  2  1  1  0  0  0  0
  4  5  1  0  0  0  0
  4 10  1  0  0  0  0
  5 11  1  0  0  0  0
  6  1  1  0  0  0  0
  6  5  2  0  0  0  0
  7  6  1  0  0  0  0
  8  7  2  0  0  0  0
  8  9  1  0  0  0  0
  9  4  2  0  0  0  0
 12  8  1  0  0  0  0
 13 16  1  0  0  0  0
 14 13  1  0  0  0  0
 15 13  1  0  0  0  0
 16 17  1  0  0  0  0
 17 18  2  0  0  0  0
 18 19  1  0  0  0  0
 18 20  1  0  0  0  0
 21 20  1  0  0  0  0
 22 21  1  0  0  0  0
 23 17  1  0  0  0  0
 23 21  2  0  0  0  0
M  END
>  <minimizedAffinity>
-3.45242143

$$$$

 OpenBabel03272509263D

 23 24  0  0  0  0  0  0  0  0999 V2000
   36.9720   22.4490   31.7990 C   0  0  0  0  0  0  0  0  0  0  0  0
   36.3280   21.7630   31.1970 H   0  0  0  0  0  0  0  0  0  0  0  0
   38.0020   22.3930   31.4070 H   0  0  0  0  0  0  0  0  0  0  0  0
   35.0130   25.5540   30.9490 C   0  0  0  0  0  0  0  0  0  0  0  0
   35.3860   24.2220   30.9790 C   0  0  0  0  0  0  0  0  0  0  0  0
   36.4860   23.8330   31.7030 C   0  0  0  0  0  0  0  0  0  0  0  0
   37.1680   24.8100   32.3710 N   0  0  0  0  0  0  0  0  0  0  0  0
   36.7890   26.1000   32.3280 C   0  0  0  0  0  0  0  0  0  0  0  0
   35.7140   26.4880   31.6220 N   0  0  0  0  0  0  0  0  0  0  0  0
   34.1580   25.9260   30.3980 H   0  0  0  0  0  0  0  0  0  0  0  0
   34.8070   23.4930   30.4300 H   0  0  0  0  0  0  0  0  0  0  0  0
   37.4440   26.7600   32.9190 H   0  0  0  0  0  0  0  0  0  0  0  0
   37.0000   21.9740   33.2320 C   0  0  0  0  0  0  0  0  0  0  0  0
   36.6020   20.9120   33.2110 H   0  0  0  0  0  0  0  0  0  0  0  0
   36.3360   22.5010   33.9120 H   0  0  0  0  0  0  0  0  0  0  0  0
   38.7190   21.8550   33.8260 S   0  0  0  0  0  0  0  0  0  0  0  0
   38.7800   22.4470   35.5350 C   0  0  0  0  0  0  0  0  0  0  0  0
   39.9000   22.2380   36.2670 C   0  0  0  0  0  0  0  0  0  0  0  0
   40.8390   21.7530   36.0270 H   0  0  0  0  0  0  0  0  0  0  0  0
   39.4740   23.0080   37.8950 S   0  0  0  0  0  0  0  0  0  0  0  0
   37.7480   23.4920   37.2110 C   0  0  0  0  0  0  0  0  0  0  0  0
   36.9800   24.0230   37.7780 H   0  0  0  0  0  0  0  0  0  0  0  0
   37.8150   23.0840   36.1640 N   0  0  0  0  0  0  0  0  0  0  0  0
  1 13  1  0  0  0  0
  2  1  1  0  0  0  0
  3  1  1  0  0  0  0
  4  5  2  0  0  0  0
  4  9  1  0  0  0  0
  5  6  1  0  0  0  0
  6  1  1  0  0  0  0
  6  7  2  0  0  0  0
  8  7  1  0  0  0  0
  8 12  1  0  0  0  0
  9  8  2  0  0  0  0
 10  4  1  0  0  0  0
 11  5  1  0  0  0  0
 13 16  1  0  0  0  0
 13 15  1  0  0  0  0
 14 13  1  0  0  0  0
 16 17  1  0  0  0  0
 17 23  1  0  0  0  0
 17 18  2  0  0  0  0
 18 20  1  0  0  0  0
 19 18  1  0  0  0  0
 21 22  1  0  0  0  0
 21 20  1  0  0  0  0
 23 21  2  0  0  0  0
M  END
>  <minimizedAffinity>
-3.4517107

$$$$

 OpenBabel03272509263D

 23 24  0  0  0  0  0  0  0  0999 V2000
   39.2760   26.2110   35.3970 C   0  0  0  0  0  0  0  0  0  0  0  0
   40.2790   26.3270   35.8750 H   0  0  0  0  0  0  0  0  0  0  0  0
   39.4080   26.2400   34.3020 H   0  0  0  0  0  0  0  0  0  0  0  0
   37.5240   23.4420   37.2600 C   0  0  0  0  0  0  0  0  0  0  0  0
   38.0670   24.6870   36.9930 C   0  0  0  0  0  0  0  0  0  0  0  0
   38.6660   24.9300   35.7810 C   0  0  0  0  0  0  0  0  0  0  0  0
   38.6920   23.9010   34.8830 N   0  0  0  0  0  0  0  0  0  0  0  0
   38.1580   22.6980   35.1620 C   0  0  0  0  0  0  0  0  0  0  0  0
   37.5710   22.4530   36.3460 N   0  0  0  0  0  0  0  0  0  0  0  0
   37.0390   23.1860   38.1930 H   0  0  0  0  0  0  0  0  0  0  0  0
   38.0170   25.4630   37.7440 H   0  0  0  0  0  0  0  0  0  0  0  0
   38.2620   21.9790   34.3340 H   0  0  0  0  0  0  0  0  0  0  0  0
   38.4010   27.3760   35.7860 C   0  0  0  0  0  0  0  0  0  0  0  0
   39.0370   28.3030   35.6340 H   0  0  0  0  0  0  0  0  0  0  0  0
   38.1110   27.4140   36.8330 H   0  0  0  0  0  0  0  0  0  0  0  0
   37.0010   27.5310   34.6290 S   0  0  0  0  0  0  0  0  0  0  0  0
   37.5370   26.9670   32.9960 C   0  0  0  0  0  0  0  0  0  0  0  0
   36.9740   25.8570   32.4620 C   0  0  0  0  0  0  0  0  0  0  0  0
   36.2120   25.1830   32.8370 H   0  0  0  0  0  0  0  0  0  0  0  0
   37.8370   25.7050   30.8320 S   0  0  0  0  0  0  0  0  0  0  0  0
   38.8550   27.2820   31.2260 C   0  0  0  0  0  0  0  0  0  0  0  0
   39.6040   27.7210   30.5640 H   0  0  0  0  0  0  0  0  0  0  0  0
   38.4500   27.5440   32.2440 N   0  0  0  0  0  0  0  0  0  0  0  0
  1  6  1  0  0  0  0
  1 13  1  0  0  0  0
  1  2  1  0  0  0  0
  3  1  1  0  0  0  0
  4 10  1  0  0  0  0
  5  4  1  0  0  0  0
  5 11  1  0  0  0  0
  6  5  2  0  0  0  0
  7  8  2  0  0  0  0
  7  6  1  0  0  0  0
  8  9  1  0  0  0  0
  9  4  2  0  0  0  0
 12  8  1  0  0  0  0
 13 15  1  0  0  0  0
 14 13  1  0  0  0  0
 16 13  1  0  0  0  0
 17 16  1  0  0  0  0
 18 19  1  0  0  0  0
 18 17  2  0  0  0  0
 20 21  1  0  0  0  0
 20 18  1  0  0  0  0
 21 23  2  0  0  0  0
 22 21  1  0  0  0  0
 23 17  1  0  0  0  0
M  END
>  <minimizedAffinity>
-3.43898368

$$$$
