
 OpenBabel03272509473D

 23 24  0  0  0  0  0  0  0  0999 V2000
   34.1400   28.4560   48.5480 C   0  0  0  0  0  0  0  0  0  0  0  0
   33.1770   29.0320   48.5950 H   0  0  0  0  0  0  0  0  0  0  0  0
   34.7890   28.9950   47.8100 H   0  0  0  0  0  0  0  0  0  0  0  0
   33.8420   27.1050   47.9410 C   0  0  0  0  0  0  0  0  0  0  0  0
   33.2410   26.5160   48.6460 H   0  0  0  0  0  0  0  0  0  0  0  0
   34.7620   26.5530   47.7220 H   0  0  0  0  0  0  0  0  0  0  0  0
   33.0540   27.3950   46.6880 C   0  0  0  0  0  0  0  0  0  0  0  0
   33.7780   27.0020   45.4860 C   0  0  0  0  0  0  0  0  0  0  0  0
   34.7390   26.5570   45.3020 H   0  0  0  0  0  0  0  0  0  0  0  0
   32.6140   27.4550   44.1270 S   0  0  0  0  0  0  0  0  0  0  0  0
   31.3610   28.0920   45.4060 C   0  0  0  0  0  0  0  0  0  0  0  0
   30.2550   28.6050   45.6210 H   0  0  0  0  0  0  0  0  0  0  0  0
   31.8770   27.9120   46.3930 N   0  0  0  0  0  0  0  0  0  0  0  0
   34.7420   28.3030   49.8100 O   0  0  0  0  0  0  0  0  0  0  0  0
   37.3560   30.2370   51.4320 C   0  0  0  0  0  0  0  0  0  0  0  0
   38.0610   30.6670   50.2940 C   0  0  0  0  0  0  0  0  0  0  0  0
   37.6070   30.2740   49.0400 C   0  0  0  0  0  0  0  0  0  0  0  0
   36.4910   29.4870   48.9960 N   0  0  0  0  0  0  0  0  0  0  0  0
   35.8400   29.0940   50.1140 C   0  0  0  0  0  0  0  0  0  0  0  0
   36.2850   29.4770   51.3160 N   0  0  0  0  0  0  0  0  0  0  0  0
   37.6810   30.5240   52.4270 H   0  0  0  0  0  0  0  0  0  0  0  0
   38.9450   31.2960   50.3970 H   0  0  0  0  0  0  0  0  0  0  0  0
   38.1180   30.5820   48.1350 H   0  0  0  0  0  0  0  0  0  0  0  0
  1  2  1  0  0  0  0
  1 14  1  0  0  0  0
  3  1  1  0  0  0  0
  4  1  1  0  0  0  0
  4  5  1  0  0  0  0
  6  4  1  0  0  0  0
  7  4  1  0  0  0  0
  8  7  2  0  0  0  0
  9  8  1  0  0  0  0
 10 11  1  0  0  0  0
 10  8  1  0  0  0  0
 11 12  1  0  0  0  0
 11 13  2  0  0  0  0
 13  7  1  0  0  0  0
 14 19  1  0  0  0  0
 15 21  1  0  0  0  0
 16 22  1  0  0  0  0
 16 15  2  0  0  0  0
 17 16  1  0  0  0  0
 18 17  2  0  0  0  0
 18 19  1  0  0  0  0
 19 20  2  0  0  0  0
 20 15  1  0  0  0  0
 23 17  1  0  0  0  0
M  END
>  <minimizedAffinity>
-3.60705423

>  <minimizedRMSD>
0.289175689

$$$$
