
 OpenBabel03272509473D

 23 24  0  0  0  0  0  0  0  0999 V2000
   34.1050   28.4850   48.5690 C   0  0  0  0  0  0  0  0  0  0  0  0
   33.1340   29.0430   48.6580 H   0  0  0  0  0  0  0  0  0  0  0  0
   34.7280   29.0590   47.8360 H   0  0  0  0  0  0  0  0  0  0  0  0
   33.8140   27.1500   47.9240 C   0  0  0  0  0  0  0  0  0  0  0  0
   33.1410   26.5740   48.5710 H   0  0  0  0  0  0  0  0  0  0  0  0
   34.7310   26.5710   47.7720 H   0  0  0  0  0  0  0  0  0  0  0  0
   33.1380   27.4780   46.6160 C   0  0  0  0  0  0  0  0  0  0  0  0
   32.2420   28.6200   46.7350 C   0  0  0  0  0  0  0  0  0  0  0  0
   31.9630   29.2720   47.5420 H   0  0  0  0  0  0  0  0  0  0  0  0
   31.5630   28.8010   45.0300 S   0  0  0  0  0  0  0  0  0  0  0  0
   32.5970   27.3140   44.4530 C   0  0  0  0  0  0  0  0  0  0  0  0
   32.9210   26.5610   43.5250 H   0  0  0  0  0  0  0  0  0  0  0  0
   33.1460   26.9980   45.3870 N   0  0  0  0  0  0  0  0  0  0  0  0
   34.7380   28.3000   49.8110 O   0  0  0  0  0  0  0  0  0  0  0  0
   37.3530   30.2370   51.4280 C   0  0  0  0  0  0  0  0  0  0  0  0
   38.0560   30.6660   50.2890 C   0  0  0  0  0  0  0  0  0  0  0  0
   37.6020   30.2710   49.0360 C   0  0  0  0  0  0  0  0  0  0  0  0
   36.4860   29.4830   48.9940 N   0  0  0  0  0  0  0  0  0  0  0  0
   35.8370   29.0910   50.1140 C   0  0  0  0  0  0  0  0  0  0  0  0
   36.2820   29.4760   51.3140 N   0  0  0  0  0  0  0  0  0  0  0  0
   37.6790   30.5260   52.4220 H   0  0  0  0  0  0  0  0  0  0  0  0
   38.9400   31.2950   50.3910 H   0  0  0  0  0  0  0  0  0  0  0  0
   38.1120   30.5770   48.1310 H   0  0  0  0  0  0  0  0  0  0  0  0
  1  2  1  0  0  0  0
  1 14  1  0  0  0  0
  3  1  1  0  0  0  0
  4  1  1  0  0  0  0
  4  5  1  0  0  0  0
  6  4  1  0  0  0  0
  7  8  2  0  0  0  0
  7  4  1  0  0  0  0
  8  9  1  0  0  0  0
 10  8  1  0  0  0  0
 11 10  1  0  0  0  0
 11 13  2  0  0  0  0
 12 11  1  0  0  0  0
 13  7  1  0  0  0  0
 14 19  1  0  0  0  0
 15 21  1  0  0  0  0
 16 22  1  0  0  0  0
 16 15  2  0  0  0  0
 17 16  1  0  0  0  0
 18 17  2  0  0  0  0
 18 19  1  0  0  0  0
 19 20  2  0  0  0  0
 20 15  1  0  0  0  0
 23 17  1  0  0  0  0
M  END
>  <minimizedAffinity>
-3.60339046

>  <minimizedRMSD>
0.182166755

$$$$
