
     RDKit          3D

 33 36  0  0  0  0  0  0  0  0999 V2000
   33.8377   28.7846   48.2760 C   0  0  0  0  0  0  0  0  0  0  0  0
   34.4313   28.4208   49.4329 C   0  0  0  0  0  0  0  0  0  0  0  0
   35.7090   28.7905   49.8171 C   0  0  0  0  0  0  0  0  0  0  0  0
   36.4557   29.5810   48.9921 C   0  0  0  0  0  0  0  0  0  0  0  0
   35.8493   29.9648   47.7879 C   0  0  0  0  0  0  0  0  0  0  0  0
   34.6026   29.5675   47.4799 N   0  0  0  0  0  0  0  0  0  0  0  0
   31.6421   27.6451   48.6878 C   0  0  0  0  0  0  0  0  0  0  0  0
   32.5161   28.3976   47.8870 C   0  0  0  0  0  0  0  0  0  0  0  0
   32.0341   28.7746   46.6410 C   0  0  0  0  0  0  0  0  0  0  0  0
   30.7624   28.3983   46.2750 N   0  0  0  0  0  0  0  0  0  0  0  0
   29.9796   27.6753   47.0968 C   0  0  0  0  0  0  0  0  0  0  0  0
   30.4130   27.2891   48.3177 N   0  0  0  0  0  0  0  0  0  0  0  0
   37.7521   30.0487   49.2127 O   0  0  0  0  0  0  0  0  0  0  0  0
   38.1593   31.3016   48.7852 C   0  0  0  0  0  0  0  0  0  0  0  0
   37.8716   32.3306   49.6590 C   0  0  0  0  0  0  0  0  0  0  0  0
   38.3365   33.5171   49.0982 C   0  0  0  0  0  0  0  0  0  0  0  0
   38.8824   33.1769   47.9221 N   0  0  0  0  0  0  0  0  0  0  0  0
   38.7724   31.8850   47.7525 N   0  0  0  0  0  0  0  0  0  0  0  0
   33.9171   27.7949   50.1500 H   0  0  0  0  0  0  0  0  0  0  0  0
   36.1812   28.4999   50.7397 H   0  0  0  0  0  0  0  0  0  0  0  0
   36.3023   30.5864   47.0280 H   0  0  0  0  0  0  0  0  0  0  0  0
   31.9891   27.3357   49.6655 H   0  0  0  0  0  0  0  0  0  0  0  0
   32.6000   29.3551   45.9240 H   0  0  0  0  0  0  0  0  0  0  0  0
   28.9815   27.3833   46.8025 H   0  0  0  0  0  0  0  0  0  0  0  0
   37.3858   32.4161   50.6409 H   0  0  0  0  0  0  0  0  0  0  0  0
   38.3498   34.5630   49.3842 H   0  0  0  0  0  0  0  0  0  0  0  0
   39.5356   33.9075   46.8591 C   0  0  0  0  0  0  0  0  0  0  0  0
   40.7487   34.8395   46.9696 C   0  0  0  0  0  0  0  0  0  0  0  0
   41.0649   34.8780   48.0000 H   0  0  0  0  0  0  0  0  0  0  0  0
   40.8877   35.3042   45.2276 S   0  0  0  0  0  0  0  0  0  0  0  0
   39.4100   34.2585   44.6545 C   0  0  0  0  0  0  0  0  0  0  0  0
   39.2167   34.3176   43.6191 H   0  0  0  0  0  0  0  0  0  0  0  0
   38.9217   33.6618   45.6963 N   0  0  0  0  0  0  0  0  0  0  0  0
  1  2  2  0
  2  3  1  0
  4 13  1  0
  4  3  2  0
  5  4  1  0
  6  5  2  0
  6  1  1  0
  8  1  1  0
  8  7  2  0
  9  8  1  0
 10  9  2  0
 10 11  1  0
 11 12  2  0
 12  7  1  0
 14 13  1  0
 14 15  1  0
 16 15  2  0
 17 16  1  0
 18 17  1  0
 18 14  2  0
  2 19  1  0
  3 20  1  0
  5 21  1  0
  7 22  1  0
  9 23  1  0
 11 24  1  0
 15 25  1  0
 16 26  1  0
 27 28  2  0
 28 29  1  0
 28 30  1  0
 30 31  1  0
 31 32  1  0
 31 33  2  0
 33 27  1  0
 17 27  1  0
M  ISO  8  19  14  20  14  21  14  22  14  23  14  24  14  25  14  26  14
M  ISO  2  29  15  32  16
M  END
>  <DihAtoms>  (1) 
15,16,26,27

>  <DihDeg>  (1) 
99.9995202623853

$$$$
