
 OpenBabel03272509533D

 41 44  0  0  0  0  0  0  0  0999 V2000
   34.3610   28.7490   48.0850 C   0  0  0  0  0  0  0  0  0  0  0  0
   35.2310   28.8910   47.4060 H   0  0  0  0  0  0  0  0  0  0  0  0
   33.8360   29.7220   48.1550 H   0  0  0  0  0  0  0  0  0  0  0  0
   33.5030   27.6390   47.5730 C   0  0  0  0  0  0  0  0  0  0  0  0
   33.7810   26.6620   47.9870 H   0  0  0  0  0  0  0  0  0  0  0  0
   33.6430   27.5460   46.4570 H   0  0  0  0  0  0  0  0  0  0  0  0
   32.0570   27.8790   47.7570 C   0  0  0  0  0  0  0  0  0  0  0  0
   31.4350   27.2860   48.8450 C   0  0  0  0  0  0  0  0  0  0  0  0
   30.1070   27.4310   49.1210 C   0  0  0  0  0  0  0  0  0  0  0  0
   29.3720   28.1830   48.3020 N   0  0  0  0  0  0  0  0  0  0  0  0
   29.9690   28.7690   47.2340 C   0  0  0  0  0  0  0  0  0  0  0  0
   31.2880   28.6360   46.9410 N   0  0  0  0  0  0  0  0  0  0  0  0
   32.0310   26.6670   49.5230 H   0  0  0  0  0  0  0  0  0  0  0  0
   29.6480   26.9550   49.9790 H   0  0  0  0  0  0  0  0  0  0  0  0
   29.1370   29.5980   46.3350 C   0  0  0  0  0  0  0  0  0  0  0  0
   27.7210   29.8940   46.5550 C   0  0  0  0  0  0  0  0  0  0  0  0
   27.2600   29.4960   47.4000 H   0  0  0  0  0  0  0  0  0  0  0  0
   27.4550   30.9650   45.0080 S   0  0  0  0  0  0  0  0  0  0  0  0
   29.2440   30.7730   44.4470 C   0  0  0  0  0  0  0  0  0  0  0  0
   29.5110   31.2830   43.5230 H   0  0  0  0  0  0  0  0  0  0  0  0
   29.7950   30.0670   45.2870 N   0  0  0  0  0  0  0  0  0  0  0  0
   34.9400   28.3930   49.3410 O   0  0  0  0  0  0  0  0  0  0  0  0
   37.2810   30.1440   51.4600 C   0  0  0  0  0  0  0  0  0  0  0  0
   38.0340   30.8290   50.4810 C   0  0  0  0  0  0  0  0  0  0  0  0
   37.6870   30.6440   49.1460 C   0  0  0  0  0  0  0  0  0  0  0  0
   36.6300   29.8000   48.9140 N   0  0  0  0  0  0  0  0  0  0  0  0
   35.9310   29.1640   49.8490 C   0  0  0  0  0  0  0  0  0  0  0  0
   36.2710   29.3450   51.1320 N   0  0  0  0  0  0  0  0  0  0  0  0
   37.5920   30.3230   52.4710 H   0  0  0  0  0  0  0  0  0  0  0  0
   38.8600   31.4860   50.6860 H   0  0  0  0  0  0  0  0  0  0  0  0
   38.9240   33.2490   48.9880 F   0  0  0  0  0  0  0  0  0  0  0  0
   38.9190   32.4710   47.9200 C   0  0  0  0  0  0  0  0  0  0  0  0
   38.3310   31.2510   48.0190 C   0  0  0  0  0  0  0  0  0  0  0  0
   38.3830   30.5120   46.8310 C   0  0  0  0  0  0  0  0  0  0  0  0
   38.9760   30.9910   45.6820 C   0  0  0  0  0  0  0  0  0  0  0  0
   39.5570   32.2360   45.6400 C   0  0  0  0  0  0  0  0  0  0  0  0
   39.5170   32.9720   46.7870 C   0  0  0  0  0  0  0  0  0  0  0  0
   37.9440   29.5160   46.7850 H   0  0  0  0  0  0  0  0  0  0  0  0
   38.9830   30.3650   44.7890 H   0  0  0  0  0  0  0  0  0  0  0  0
   39.9980   32.5440   44.7180 H   0  0  0  0  0  0  0  0  0  0  0  0
   39.9690   33.9540   46.7720 H   0  0  0  0  0  0  0  0  0  0  0  0
  1  3  1  0  0  0  0
  1 22  1  0  0  0  0
  2  1  1  0  0  0  0
  4  7  1  0  0  0  0
  4  5  1  0  0  0  0
  4  1  1  0  0  0  0
  6  4  1  0  0  0  0
  7  8  1  0  0  0  0
  8  9  2  0  0  0  0
  8 13  1  0  0  0  0
  9 14  1  0  0  0  0
 10  9  1  0  0  0  0
 11 10  2  0  0  0  0
 12 11  1  0  0  0  0
 12  7  2  0  0  0  0
 15 16  2  0  0  0  0
 15 11  1  0  0  0  0
 16 17  1  0  0  0  0
 18 16  1  0  0  0  0
 19 18  1  0  0  0  0
 19 21  2  0  0  0  0
 20 19  1  0  0  0  0
 21 15  1  0  0  0  0
 22 27  1  0  0  0  0
 23 29  1  0  0  0  0
 24 30  1  0  0  0  0
 24 23  2  0  0  0  0
 25 24  1  0  0  0  0
 26 25  2  0  0  0  0
 26 27  1  0  0  0  0
 27 28  2  0  0  0  0
 28 23  1  0  0  0  0
 32 33  1  0  0  0  0
 32 31  1  0  0  0  0
 33 25  1  0  0  0  0
 34 33  2  0  0  0  0
 35 34  1  0  0  0  0
 36 35  2  0  0  0  0
 36 37  1  0  0  0  0
 37 32  2  0  0  0  0
 38 34  1  0  0  0  0
 39 35  1  0  0  0  0
 40 36  1  0  0  0  0
 41 37  1  0  0  0  0
M  END
>  <minimizedAffinity>
-6.52756166

>  <minimizedRMSD>
0.456535846

$$$$
