
 OpenBabel03272509533D

 41 44  0  0  0  0  0  0  0  0999 V2000
   34.3840   28.7430   48.0770 C   0  0  0  0  0  0  0  0  0  0  0  0
   35.2610   28.8860   47.4080 H   0  0  0  0  0  0  0  0  0  0  0  0
   33.8530   29.7130   48.1350 H   0  0  0  0  0  0  0  0  0  0  0  0
   33.5380   27.6260   47.5610 C   0  0  0  0  0  0  0  0  0  0  0  0
   33.8320   26.6480   47.9640 H   0  0  0  0  0  0  0  0  0  0  0  0
   33.6710   27.5440   46.4430 H   0  0  0  0  0  0  0  0  0  0  0  0
   32.0890   27.8440   47.7570 C   0  0  0  0  0  0  0  0  0  0  0  0
   31.4810   27.2210   48.8350 C   0  0  0  0  0  0  0  0  0  0  0  0
   30.1520   27.3450   49.1200 C   0  0  0  0  0  0  0  0  0  0  0  0
   29.4040   28.1040   48.3210 N   0  0  0  0  0  0  0  0  0  0  0  0
   29.9880   28.7180   47.2620 C   0  0  0  0  0  0  0  0  0  0  0  0
   31.3080   28.6070   46.9600 N   0  0  0  0  0  0  0  0  0  0  0  0
   32.0870   26.5970   49.4970 H   0  0  0  0  0  0  0  0  0  0  0  0
   29.7030   26.8460   49.9710 H   0  0  0  0  0  0  0  0  0  0  0  0
   29.1420   29.5560   46.3840 C   0  0  0  0  0  0  0  0  0  0  0  0
   29.5730   30.1130   45.1040 C   0  0  0  0  0  0  0  0  0  0  0  0
   30.5420   29.9100   44.7790 H   0  0  0  0  0  0  0  0  0  0  0  0
   27.9540   31.0080   44.6700 S   0  0  0  0  0  0  0  0  0  0  0  0
   27.1040   30.4450   46.2560 C   0  0  0  0  0  0  0  0  0  0  0  0
   26.0770   30.7790   46.3910 H   0  0  0  0  0  0  0  0  0  0  0  0
   27.9270   29.7680   46.8660 N   0  0  0  0  0  0  0  0  0  0  0  0
   34.9500   28.3960   49.3420 O   0  0  0  0  0  0  0  0  0  0  0  0
   37.2890   30.1460   51.4620 C   0  0  0  0  0  0  0  0  0  0  0  0
   38.0420   30.8340   50.4840 C   0  0  0  0  0  0  0  0  0  0  0  0
   37.6950   30.6490   49.1490 C   0  0  0  0  0  0  0  0  0  0  0  0
   36.6390   29.8060   48.9160 N   0  0  0  0  0  0  0  0  0  0  0  0
   35.9410   29.1670   49.8500 C   0  0  0  0  0  0  0  0  0  0  0  0
   36.2800   29.3470   51.1330 N   0  0  0  0  0  0  0  0  0  0  0  0
   37.6000   30.3250   52.4740 H   0  0  0  0  0  0  0  0  0  0  0  0
   38.8670   31.4910   50.6910 H   0  0  0  0  0  0  0  0  0  0  0  0
   38.9220   33.2590   48.9920 F   0  0  0  0  0  0  0  0  0  0  0  0
   38.9220   32.4810   47.9250 C   0  0  0  0  0  0  0  0  0  0  0  0
   38.3390   31.2580   48.0230 C   0  0  0  0  0  0  0  0  0  0  0  0
   38.3950   30.5200   46.8360 C   0  0  0  0  0  0  0  0  0  0  0  0
   38.9880   31.0000   45.6880 C   0  0  0  0  0  0  0  0  0  0  0  0
   39.5650   32.2470   45.6460 C   0  0  0  0  0  0  0  0  0  0  0  0
   39.5200   32.9840   46.7920 C   0  0  0  0  0  0  0  0  0  0  0  0
   37.9600   29.5210   46.7900 H   0  0  0  0  0  0  0  0  0  0  0  0
   39.0000   30.3740   44.7950 H   0  0  0  0  0  0  0  0  0  0  0  0
   40.0060   32.5570   44.7250 H   0  0  0  0  0  0  0  0  0  0  0  0
   39.9690   33.9680   46.7780 H   0  0  0  0  0  0  0  0  0  0  0  0
  1  3  1  0  0  0  0
  1 22  1  0  0  0  0
  2  1  1  0  0  0  0
  4  7  1  0  0  0  0
  4  5  1  0  0  0  0
  4  1  1  0  0  0  0
  6  4  1  0  0  0  0
  7  8  1  0  0  0  0
  8  9  2  0  0  0  0
  8 13  1  0  0  0  0
  9 14  1  0  0  0  0
 10  9  1  0  0  0  0
 11 10  2  0  0  0  0
 12 11  1  0  0  0  0
 12  7  2  0  0  0  0
 15 21  1  0  0  0  0
 15 11  1  0  0  0  0
 16 15  2  0  0  0  0
 17 16  1  0  0  0  0
 18 16  1  0  0  0  0
 18 19  1  0  0  0  0
 19 20  1  0  0  0  0
 19 21  2  0  0  0  0
 22 27  1  0  0  0  0
 23 29  1  0  0  0  0
 24 30  1  0  0  0  0
 24 23  2  0  0  0  0
 25 24  1  0  0  0  0
 26 25  2  0  0  0  0
 26 27  1  0  0  0  0
 27 28  2  0  0  0  0
 28 23  1  0  0  0  0
 32 33  1  0  0  0  0
 32 31  1  0  0  0  0
 33 25  1  0  0  0  0
 34 33  2  0  0  0  0
 35 34  1  0  0  0  0
 36 35  2  0  0  0  0
 36 37  1  0  0  0  0
 37 32  2  0  0  0  0
 38 34  1  0  0  0  0
 39 35  1  0  0  0  0
 40 36  1  0  0  0  0
 41 37  1  0  0  0  0
M  END
>  <minimizedAffinity>
-6.60113811

>  <minimizedRMSD>
0.48728466

$$$$
