
 OpenBabel03272510243D

 30 33  0  0  0  0  0  0  0  0999 V2000
   36.1050   30.1660   46.9320 C   0  0  0  0  0  0  0  0  0  0  0  0
   36.9740   30.6970   47.8640 C   0  0  0  0  0  0  0  0  0  0  0  0
   37.9650   31.5620   47.4620 C   0  0  0  0  0  0  0  0  0  0  0  0
   38.0340   31.8610   46.1010 C   0  0  0  0  0  0  0  0  0  0  0  0
   38.9350   32.6930   45.4820 N   0  0  0  0  0  0  0  0  0  0  0  0
   38.6230   32.6730   44.1910 C   0  0  0  0  0  0  0  0  0  0  0  0
   37.5760   31.8770   43.9570 N   0  0  0  0  0  0  0  0  0  0  0  0
   37.1770   31.3460   45.1390 C   0  0  0  0  0  0  0  0  0  0  0  0
   36.1900   30.4760   45.5840 C   0  0  0  0  0  0  0  0  0  0  0  0
   35.3070   29.4800   47.1980 H   0  0  0  0  0  0  0  0  0  0  0  0
   38.6520   31.9880   48.1570 H   0  0  0  0  0  0  0  0  0  0  0  0
   39.7180   33.2380   45.9380 H   0  0  0  0  0  0  0  0  0  0  0  0
   35.5320   30.0830   44.8340 H   0  0  0  0  0  0  0  0  0  0  0  0
   37.4350   30.1440   51.5500 C   0  0  0  0  0  0  0  0  0  0  0  0
   37.7270   30.5700   50.2580 C   0  0  0  0  0  0  0  0  0  0  0  0
   36.8030   30.3120   49.2520 C   0  0  0  0  0  0  0  0  0  0  0  0
   35.6460   29.6460   49.5830 N   0  0  0  0  0  0  0  0  0  0  0  0
   35.3950   29.2460   50.8540 C   0  0  0  0  0  0  0  0  0  0  0  0
   36.2760   29.4910   51.8210 N   0  0  0  0  0  0  0  0  0  0  0  0
   38.2260   30.4020   52.2410 H   0  0  0  0  0  0  0  0  0  0  0  0
   38.6180   31.0910   49.9630 H   0  0  0  0  0  0  0  0  0  0  0  0
   34.4780   28.7290   51.0650 H   0  0  0  0  0  0  0  0  0  0  0  0
   39.3240   33.4040   43.2360 O   0  0  0  0  0  0  0  0  0  0  0  0
   39.0660   33.2280   41.8820 C   0  0  0  0  0  0  0  0  0  0  0  0
   39.5850   32.0240   41.2900 C   0  0  0  0  0  0  0  0  0  0  0  0
   40.1450   31.2290   41.7280 H   0  0  0  0  0  0  0  0  0  0  0  0
   39.0090   32.2110   39.4970 S   0  0  0  0  0  0  0  0  0  0  0  0
   38.1940   33.8690   39.9310 C   0  0  0  0  0  0  0  0  0  0  0  0
   37.5780   34.6940   39.3500 H   0  0  0  0  0  0  0  0  0  0  0  0
   38.4000   34.0190   41.0360 N   0  0  0  0  0  0  0  0  0  0  0  0
  1 10  1  0  0  0  0
  1  2  1  0  0  0  0
  2 16  1  0  0  0  0
  3  2  2  0  0  0  0
  3 11  1  0  0  0  0
  4  3  1  0  0  0  0
  5 12  1  0  0  0  0
  5  4  1  0  0  0  0
  6  5  1  0  0  0  0
  7  6  2  0  0  0  0
  7  8  1  0  0  0  0
  8  9  1  0  0  0  0
  8  4  2  0  0  0  0
  9  1  2  0  0  0  0
 13  9  1  0  0  0  0
 14 19  1  0  0  0  0
 14 20  1  0  0  0  0
 15 14  2  0  0  0  0
 16 17  2  0  0  0  0
 16 15  1  0  0  0  0
 17 18  1  0  0  0  0
 18 22  1  0  0  0  0
 18 19  2  0  0  0  0
 21 15  1  0  0  0  0
 23  6  1  0  0  0  0
 24 23  1  0  0  0  0
 25 26  1  0  0  0  0
 25 24  2  0  0  0  0
 27 28  1  0  0  0  0
 27 25  1  0  0  0  0
 28 30  2  0  0  0  0
 29 28  1  0  0  0  0
 30 24  1  0  0  0  0
M  END
>  <minimizedAffinity>
-5.52370358

>  <minimizedRMSD>
1.36411965

$$$$
