
 OpenBabel03272509543D

 41 44  0  0  0  0  0  0  0  0999 V2000
   34.3800   28.7440   48.0820 C   0  0  0  0  0  0  0  0  0  0  0  0
   35.2540   28.8920   47.4090 H   0  0  0  0  0  0  0  0  0  0  0  0
   33.8470   29.7120   48.1480 H   0  0  0  0  0  0  0  0  0  0  0  0
   33.5350   27.6270   47.5650 C   0  0  0  0  0  0  0  0  0  0  0  0
   33.8280   26.6490   47.9690 H   0  0  0  0  0  0  0  0  0  0  0  0
   33.6690   27.5450   46.4470 H   0  0  0  0  0  0  0  0  0  0  0  0
   32.0860   27.8450   47.7600 C   0  0  0  0  0  0  0  0  0  0  0  0
   31.4760   27.2220   48.8380 C   0  0  0  0  0  0  0  0  0  0  0  0
   30.1470   27.3460   49.1220 C   0  0  0  0  0  0  0  0  0  0  0  0
   29.4000   28.1050   48.3210 N   0  0  0  0  0  0  0  0  0  0  0  0
   29.9850   28.7190   47.2630 C   0  0  0  0  0  0  0  0  0  0  0  0
   31.3050   28.6080   46.9620 N   0  0  0  0  0  0  0  0  0  0  0  0
   32.0820   26.5980   49.5000 H   0  0  0  0  0  0  0  0  0  0  0  0
   29.6980   26.8480   49.9720 H   0  0  0  0  0  0  0  0  0  0  0  0
   29.1400   29.5570   46.3840 C   0  0  0  0  0  0  0  0  0  0  0  0
   29.5710   30.1130   45.1030 C   0  0  0  0  0  0  0  0  0  0  0  0
   30.5410   29.9100   44.7800 H   0  0  0  0  0  0  0  0  0  0  0  0
   27.9530   31.0070   44.6690 S   0  0  0  0  0  0  0  0  0  0  0  0
   27.1020   30.4460   46.2540 C   0  0  0  0  0  0  0  0  0  0  0  0
   26.0750   30.7800   46.3890 H   0  0  0  0  0  0  0  0  0  0  0  0
   27.9240   29.7700   46.8660 N   0  0  0  0  0  0  0  0  0  0  0  0
   34.9540   28.3930   49.3420 O   0  0  0  0  0  0  0  0  0  0  0  0
   37.2900   30.1470   51.4630 C   0  0  0  0  0  0  0  0  0  0  0  0
   38.0420   30.8350   50.4840 C   0  0  0  0  0  0  0  0  0  0  0  0
   37.6960   30.6490   49.1490 C   0  0  0  0  0  0  0  0  0  0  0  0
   36.6410   29.8040   48.9160 N   0  0  0  0  0  0  0  0  0  0  0  0
   35.9430   29.1650   49.8510 C   0  0  0  0  0  0  0  0  0  0  0  0
   36.2820   29.3470   51.1340 N   0  0  0  0  0  0  0  0  0  0  0  0
   37.6000   30.3270   52.4740 H   0  0  0  0  0  0  0  0  0  0  0  0
   38.8660   31.4940   50.6900 H   0  0  0  0  0  0  0  0  0  0  0  0
   38.9240   33.2590   48.9920 F   0  0  0  0  0  0  0  0  0  0  0  0
   38.9220   32.4810   47.9250 C   0  0  0  0  0  0  0  0  0  0  0  0
   38.3390   31.2580   48.0230 C   0  0  0  0  0  0  0  0  0  0  0  0
   38.3950   30.5200   46.8350 C   0  0  0  0  0  0  0  0  0  0  0  0
   38.9880   31.0000   45.6870 C   0  0  0  0  0  0  0  0  0  0  0  0
   39.5640   32.2470   45.6450 C   0  0  0  0  0  0  0  0  0  0  0  0
   39.5200   32.9840   46.7920 C   0  0  0  0  0  0  0  0  0  0  0  0
   37.9600   29.5220   46.7890 H   0  0  0  0  0  0  0  0  0  0  0  0
   38.9980   30.3740   44.7940 H   0  0  0  0  0  0  0  0  0  0  0  0
   40.0050   32.5570   44.7240 H   0  0  0  0  0  0  0  0  0  0  0  0
   39.9690   33.9670   46.7770 H   0  0  0  0  0  0  0  0  0  0  0  0
  1  3  1  0  0  0  0
  1 22  1  0  0  0  0
  2  1  1  0  0  0  0
  4  7  1  0  0  0  0
  4  5  1  0  0  0  0
  4  1  1  0  0  0  0
  6  4  1  0  0  0  0
  7  8  1  0  0  0  0
  8  9  2  0  0  0  0
  8 13  1  0  0  0  0
  9 14  1  0  0  0  0
 10  9  1  0  0  0  0
 11 10  2  0  0  0  0
 12 11  1  0  0  0  0
 12  7  2  0  0  0  0
 15 21  1  0  0  0  0
 15 11  1  0  0  0  0
 16 15  2  0  0  0  0
 17 16  1  0  0  0  0
 18 16  1  0  0  0  0
 18 19  1  0  0  0  0
 19 20  1  0  0  0  0
 19 21  2  0  0  0  0
 22 27  1  0  0  0  0
 23 29  1  0  0  0  0
 24 30  1  0  0  0  0
 24 23  2  0  0  0  0
 25 24  1  0  0  0  0
 26 25  2  0  0  0  0
 26 27  1  0  0  0  0
 27 28  2  0  0  0  0
 28 23  1  0  0  0  0
 32 33  1  0  0  0  0
 32 31  1  0  0  0  0
 33 25  1  0  0  0  0
 34 33  2  0  0  0  0
 35 34  1  0  0  0  0
 36 35  2  0  0  0  0
 36 37  1  0  0  0  0
 37 32  2  0  0  0  0
 38 34  1  0  0  0  0
 39 35  1  0  0  0  0
 40 36  1  0  0  0  0
 41 37  1  0  0  0  0
M  END
>  <minimizedAffinity>
-6.60142422

>  <minimizedRMSD>
0.483505517

$$$$
