
 OpenBabel03272506433D

 30 32  0  0  1  0  0  0  0  0999 V2000
   32.4440   28.4090   47.4760 C   0  0  2  0  0  0  0  0  0  0  0  0
   33.6680   28.4690   48.3760 C   0  0  1  0  0  0  0  0  0  0  0  0
   34.2370   27.2160   48.3940 O   0  0  0  0  0  0  0  0  0  0  0  0
   33.6100   26.4280   47.4590 C   0  0  0  0  0  0  0  0  0  0  0  0
   32.9060   27.3800   46.4890 C   0  0  1  0  0  0  0  0  0  0  0  0
   31.5530   28.0330   48.0250 H   0  0  0  0  0  0  0  0  0  0  0  0
   33.3740   28.8630   49.3560 H   0  0  0  0  0  0  0  0  0  0  0  0
   32.9060   25.6930   47.8960 H   0  0  0  0  0  0  0  0  0  0  0  0
   34.3970   25.9300   46.8470 H   0  0  0  0  0  0  0  0  0  0  0  0
   33.6120   27.7730   45.7560 H   0  0  0  0  0  0  0  0  0  0  0  0
   32.1880   29.6370   46.8880 O   0  0  0  0  0  0  0  0  0  0  0  0
   31.9100   30.2700   47.5770 H   0  0  0  0  0  0  0  0  0  0  0  0
   34.8440   29.5930   47.5340 S   0  0  0  0  0  0  0  0  0  0  0  0
   37.4790   29.5110   50.4820 C   0  0  0  0  0  0  0  0  0  0  0  0
   38.0610   30.7740   50.4960 C   0  0  0  0  0  0  0  0  0  0  0  0
   37.6180   31.7050   49.5440 C   0  0  0  0  0  0  0  0  0  0  0  0
   36.6550   31.3090   48.6800 N   0  0  0  0  0  0  0  0  0  0  0  0
   36.1090   30.0820   48.6870 C   0  0  0  0  0  0  0  0  0  0  0  0
   36.5230   29.1730   49.5960 N   0  0  0  0  0  0  0  0  0  0  0  0
   37.8450   28.8150   51.2310 H   0  0  0  0  0  0  0  0  0  0  0  0
   38.8320   31.0830   51.1930 H   0  0  0  0  0  0  0  0  0  0  0  0
   37.9990   32.7110   49.4650 H   0  0  0  0  0  0  0  0  0  0  0  0
   31.8630   26.7110   45.8580 O   0  0  0  0  0  0  0  0  0  0  0  0
   31.6290   27.0630   44.5200 C   0  0  0  0  0  0  0  0  0  0  0  0
   32.8660   27.4680   43.8960 C   0  0  0  0  0  0  0  0  0  0  0  0
   33.8840   27.5690   44.1650 H   0  0  0  0  0  0  0  0  0  0  0  0
   32.3210   27.8920   42.1300 S   0  0  0  0  0  0  0  0  0  0  0  0
   30.5400   27.4350   42.6050 C   0  0  0  0  0  0  0  0  0  0  0  0
   29.3470   27.3240   42.2610 H   0  0  0  0  0  0  0  0  0  0  0  0
   30.6070   27.1270   43.6900 N   0  0  0  0  0  0  0  0  0  0  0  0
  1  6  1  1  0  0  0
  1  2  1  0  0  0  0
  2  3  1  0  0  0  0
  2  7  1  1  0  0  0
  4  8  1  0  0  0  0
  4  3  1  0  0  0  0
  5 10  1  6  0  0  0
  5  4  1  0  0  0  0
  5  1  1  0  0  0  0
  9  4  1  0  0  0  0
 11  1  1  0  0  0  0
 11 12  1  0  0  0  0
 13  2  1  0  0  0  0
 13 18  1  0  0  0  0
 14 15  1  0  0  0  0
 14 20  1  0  0  0  0
 15 21  1  0  0  0  0
 16 15  2  0  0  0  0
 17 18  2  0  0  0  0
 17 16  1  0  0  0  0
 18 19  1  0  0  0  0
 19 14  2  0  0  0  0
 22 16  1  0  0  0  0
 23  5  1  0  0  0  0
 24 23  1  0  0  0  0
 25 26  1  0  0  0  0
 25 24  2  0  0  0  0
 27 28  1  0  0  0  0
 27 25  1  0  0  0  0
 28 30  2  0  0  0  0
 29 28  1  0  0  0  0
 30 24  1  0  0  0  0
M  END
>  <minimizedAffinity>
-3.72321701

>  <minimizedRMSD>
0.477715105

$$$$
