
 OpenBabel03272506433D

 30 32  0  0  1  0  0  0  0  0999 V2000
   32.4490   28.4510   47.4690 C   0  0  2  0  0  0  0  0  0  0  0  0
   33.6710   28.5030   48.3710 C   0  0  1  0  0  0  0  0  0  0  0  0
   34.2300   27.2450   48.3950 O   0  0  0  0  0  0  0  0  0  0  0  0
   33.5980   26.4600   47.4610 C   0  0  0  0  0  0  0  0  0  0  0  0
   32.9040   27.4150   46.4860 C   0  0  1  0  0  0  0  0  0  0  0  0
   31.5530   28.0840   48.0170 H   0  0  0  0  0  0  0  0  0  0  0  0
   33.3780   28.9030   49.3490 H   0  0  0  0  0  0  0  0  0  0  0  0
   32.8870   25.7320   47.8980 H   0  0  0  0  0  0  0  0  0  0  0  0
   34.3820   25.9530   46.8520 H   0  0  0  0  0  0  0  0  0  0  0  0
   33.6150   27.7990   45.7540 H   0  0  0  0  0  0  0  0  0  0  0  0
   32.2050   29.6790   46.8760 O   0  0  0  0  0  0  0  0  0  0  0  0
   31.9310   30.3160   47.5630 H   0  0  0  0  0  0  0  0  0  0  0  0
   34.8590   29.6140   47.5290 S   0  0  0  0  0  0  0  0  0  0  0  0
   37.4930   29.5210   50.4770 C   0  0  0  0  0  0  0  0  0  0  0  0
   38.0750   30.7840   50.4960 C   0  0  0  0  0  0  0  0  0  0  0  0
   37.6310   31.7180   49.5480 C   0  0  0  0  0  0  0  0  0  0  0  0
   36.6680   31.3260   48.6820 N   0  0  0  0  0  0  0  0  0  0  0  0
   36.1230   30.0990   48.6840 C   0  0  0  0  0  0  0  0  0  0  0  0
   36.5370   29.1860   49.5890 N   0  0  0  0  0  0  0  0  0  0  0  0
   37.8590   28.8220   51.2230 H   0  0  0  0  0  0  0  0  0  0  0  0
   38.8460   31.0910   51.1950 H   0  0  0  0  0  0  0  0  0  0  0  0
   38.0120   32.7250   49.4730 H   0  0  0  0  0  0  0  0  0  0  0  0
   31.8560   26.7520   45.8550 O   0  0  0  0  0  0  0  0  0  0  0  0
   32.0310   26.4940   44.4870 C   0  0  0  0  0  0  0  0  0  0  0  0
   32.2840   27.7280   43.7830 C   0  0  0  0  0  0  0  0  0  0  0  0
   32.3720   28.7570   44.0090 H   0  0  0  0  0  0  0  0  0  0  0  0
   32.4850   27.1500   41.9880 S   0  0  0  0  0  0  0  0  0  0  0  0
   32.1860   25.3640   42.5650 C   0  0  0  0  0  0  0  0  0  0  0  0
   32.0870   24.1580   42.2680 H   0  0  0  0  0  0  0  0  0  0  0  0
   32.0290   25.4510   43.6800 N   0  0  0  0  0  0  0  0  0  0  0  0
  1  6  1  1  0  0  0
  1  2  1  0  0  0  0
  2  3  1  0  0  0  0
  2  7  1  1  0  0  0
  4  8  1  0  0  0  0
  4  3  1  0  0  0  0
  5 10  1  6  0  0  0
  5  4  1  0  0  0  0
  5  1  1  0  0  0  0
  9  4  1  0  0  0  0
 11  1  1  0  0  0  0
 11 12  1  0  0  0  0
 13  2  1  0  0  0  0
 13 18  1  0  0  0  0
 14 15  1  0  0  0  0
 14 20  1  0  0  0  0
 15 21  1  0  0  0  0
 16 15  2  0  0  0  0
 17 18  2  0  0  0  0
 17 16  1  0  0  0  0
 18 19  1  0  0  0  0
 19 14  2  0  0  0  0
 22 16  1  0  0  0  0
 23  5  1  0  0  0  0
 24 23  1  0  0  0  0
 25 26  1  0  0  0  0
 25 24  2  0  0  0  0
 27 28  1  0  0  0  0
 27 25  1  0  0  0  0
 28 30  2  0  0  0  0
 29 28  1  0  0  0  0
 30 24  1  0  0  0  0
M  END
>  <minimizedAffinity>
-3.69652486

>  <minimizedRMSD>
0.30290103

$$$$
