
 OpenBabel03272506423D

 30 32  0  0  1  0  0  0  0  0999 V2000
   32.2470   28.1910   47.5070 C   0  0  2  0  0  0  0  0  0  0  0  0
   33.4990   28.1490   48.3690 C   0  0  1  0  0  0  0  0  0  0  0  0
   34.0840   26.9140   48.1990 O   0  0  0  0  0  0  0  0  0  0  0  0
   33.4360   26.2510   47.1850 C   0  0  0  0  0  0  0  0  0  0  0  0
   32.6890   27.3130   46.3760 C   0  0  1  0  0  0  0  0  0  0  0  0
   31.3790   27.7300   48.0270 H   0  0  0  0  0  0  0  0  0  0  0  0
   33.2320   28.4020   49.4020 H   0  0  0  0  0  0  0  0  0  0  0  0
   32.7560   25.4520   47.5400 H   0  0  0  0  0  0  0  0  0  0  0  0
   34.2090   25.8530   46.4880 H   0  0  0  0  0  0  0  0  0  0  0  0
   33.3670   27.8130   45.6820 H   0  0  0  0  0  0  0  0  0  0  0  0
   31.9570   29.4830   47.1000 O   0  0  0  0  0  0  0  0  0  0  0  0
   31.6940   30.0120   47.8770 H   0  0  0  0  0  0  0  0  0  0  0  0
   34.6330   29.3960   47.6530 S   0  0  0  0  0  0  0  0  0  0  0  0
   37.2310   29.2600   50.6310 C   0  0  0  0  0  0  0  0  0  0  0  0
   37.6540   30.5720   50.8160 C   0  0  0  0  0  0  0  0  0  0  0  0
   37.1080   31.5550   49.9770 C   0  0  0  0  0  0  0  0  0  0  0  0
   36.2090   31.1590   49.0460 N   0  0  0  0  0  0  0  0  0  0  0  0
   35.8180   29.8840   48.8880 C   0  0  0  0  0  0  0  0  0  0  0  0
   36.3320   28.9240   49.6870 N   0  0  0  0  0  0  0  0  0  0  0  0
   37.6720   28.5240   51.2960 H   0  0  0  0  0  0  0  0  0  0  0  0
   38.3750   30.8810   51.5650 H   0  0  0  0  0  0  0  0  0  0  0  0
   37.3640   32.6010   50.0330 H   0  0  0  0  0  0  0  0  0  0  0  0
   31.6340   26.7190   45.6920 O   0  0  0  0  0  0  0  0  0  0  0  0
   31.2170   27.3710   44.5220 C   0  0  0  0  0  0  0  0  0  0  0  0
   29.7990   27.6320   44.5840 C   0  0  0  0  0  0  0  0  0  0  0  0
   29.0010   27.4700   45.2560 H   0  0  0  0  0  0  0  0  0  0  0  0
   29.4640   28.5030   42.9330 S   0  0  0  0  0  0  0  0  0  0  0  0
   31.3080   28.3310   42.5070 C   0  0  0  0  0  0  0  0  0  0  0  0
   32.2310   28.5370   41.6940 H   0  0  0  0  0  0  0  0  0  0  0  0
   31.7560   27.8060   43.4000 N   0  0  0  0  0  0  0  0  0  0  0  0
  1  6  1  1  0  0  0
  1  2  1  0  0  0  0
  2  7  1  1  0  0  0
  3  2  1  0  0  0  0
  4  8  1  0  0  0  0
  4  3  1  0  0  0  0
  5 10  1  6  0  0  0
  5  4  1  0  0  0  0
  5  1  1  0  0  0  0
  9  4  1  0  0  0  0
 11  1  1  0  0  0  0
 11 12  1  0  0  0  0
 13  2  1  0  0  0  0
 13 18  1  0  0  0  0
 14 15  1  0  0  0  0
 14 20  1  0  0  0  0
 15 21  1  0  0  0  0
 16 22  1  0  0  0  0
 16 15  2  0  0  0  0
 17 16  1  0  0  0  0
 18 17  2  0  0  0  0
 18 19  1  0  0  0  0
 19 14  2  0  0  0  0
 23  5  1  0  0  0  0
 24 25  2  0  0  0  0
 24 23  1  0  0  0  0
 25 26  1  0  0  0  0
 27 25  1  0  0  0  0
 28 27  1  0  0  0  0
 28 30  2  0  0  0  0
 29 28  1  0  0  0  0
 30 24  1  0  0  0  0
M  END
>  <minimizedAffinity>
-3.74048734

>  <minimizedRMSD>
0.96856755

$$$$
