
 OpenBabel03272505023D

 27 29  0  0  0  0  0  0  0  0999 V2000
   36.1860   30.2040   45.3290 Cl  0  0  0  0  0  0  0  0  0  0  0  0
   37.4020   31.1490   46.1680 C   0  0  0  0  0  0  0  0  0  0  0  0
   37.4130   31.1370   47.5380 C   0  0  0  0  0  0  0  0  0  0  0  0
   38.3970   31.9060   48.1380 C   0  0  0  0  0  0  0  0  0  0  0  0
   39.2940   32.6280   47.3540 C   0  0  0  0  0  0  0  0  0  0  0  0
   39.2370   32.6030   45.9810 C   0  0  0  0  0  0  0  0  0  0  0  0
   38.2580   31.8390   45.3720 C   0  0  0  0  0  0  0  0  0  0  0  0
   38.5000   31.9720   49.2100 H   0  0  0  0  0  0  0  0  0  0  0  0
   40.0530   33.2220   47.8510 H   0  0  0  0  0  0  0  0  0  0  0  0
   39.9580   33.1820   45.4060 H   0  0  0  0  0  0  0  0  0  0  0  0
   36.9170   29.5130   49.3700 C   0  0  0  0  0  0  0  0  0  0  0  0
   36.4780   30.3830   48.3580 C   0  0  0  0  0  0  0  0  0  0  0  0
   35.1130   30.4930   48.1740 C   0  0  0  0  0  0  0  0  0  0  0  0
   34.2880   29.7680   48.9660 N   0  0  0  0  0  0  0  0  0  0  0  0
   34.7410   28.9430   49.9280 C   0  0  0  0  0  0  0  0  0  0  0  0
   36.0570   28.8180   50.1260 N   0  0  0  0  0  0  0  0  0  0  0  0
   37.9840   29.4020   49.5430 H   0  0  0  0  0  0  0  0  0  0  0  0
   34.7580   31.1600   47.3980 H   0  0  0  0  0  0  0  0  0  0  0  0
   34.0220   28.4060   50.5100 H   0  0  0  0  0  0  0  0  0  0  0  0
   38.2230   31.8310   43.9940 O   0  0  0  0  0  0  0  0  0  0  0  0
   39.0020   30.8470   43.3510 C   0  0  0  0  0  0  0  0  0  0  0  0
   39.9520   31.4430   42.5560 C   0  0  0  0  0  0  0  0  0  0  0  0
   40.3070   32.4020   42.2530 H   0  0  0  0  0  0  0  0  0  0  0  0
   40.8330   29.9680   41.8310 S   0  0  0  0  0  0  0  0  0  0  0  0
   39.6720   28.7870   42.8060 C   0  0  0  0  0  0  0  0  0  0  0  0
   39.4060   27.6550   43.0340 H   0  0  0  0  0  0  0  0  0  0  0  0
   39.0240   29.5300   43.3410 N   0  0  0  0  0  0  0  0  0  0  0  0
  1  2  1  0  0  0  0
  2  3  1  0  0  0  0
  3  4  2  0  0  0  0
  3 12  1  0  0  0  0
  4  8  1  0  0  0  0
  5  9  1  0  0  0  0
  5  4  1  0  0  0  0
  6  5  2  0  0  0  0
  7  6  1  0  0  0  0
  7  2  2  0  0  0  0
 10  6  1  0  0  0  0
 11 17  1  0  0  0  0
 11 16  1  0  0  0  0
 12 11  2  0  0  0  0
 13 12  1  0  0  0  0
 13 14  2  0  0  0  0
 14 15  1  0  0  0  0
 15 16  2  0  0  0  0
 15 19  1  0  0  0  0
 18 13  1  0  0  0  0
 20  7  1  0  0  0  0
 21 20  1  0  0  0  0
 22 21  2  0  0  0  0
 23 22  1  0  0  0  0
 24 22  1  0  0  0  0
 24 25  1  0  0  0  0
 25 26  1  0  0  0  0
 25 27  2  0  0  0  0
 27 21  1  0  0  0  0
M  END
>  <minimizedAffinity>
-5.10862732

>  <minimizedRMSD>
2.55152845

$$$$
