
 OpenBabel03272506433D

 30 32  0  0  1  0  0  0  0  0999 V2000
   32.3400   28.3410   47.4290 C   0  0  2  0  0  0  0  0  0  0  0  0
   33.5260   28.3710   48.3800 C   0  0  1  0  0  0  0  0  0  0  0  0
   34.0910   27.1150   48.3870 O   0  0  0  0  0  0  0  0  0  0  0  0
   33.5000   26.3570   47.4050 C   0  0  0  0  0  0  0  0  0  0  0  0
   32.8390   27.3380   46.4340 C   0  0  1  0  0  0  0  0  0  0  0  0
   31.4260   27.9530   47.9310 H   0  0  0  0  0  0  0  0  0  0  0  0
   33.1930   28.7390   49.3580 H   0  0  0  0  0  0  0  0  0  0  0  0
   32.7770   25.6130   47.7920 H   0  0  0  0  0  0  0  0  0  0  0  0
   34.3100   25.8730   46.8120 H   0  0  0  0  0  0  0  0  0  0  0  0
   33.5760   27.7480   45.7420 H   0  0  0  0  0  0  0  0  0  0  0  0
   32.1120   29.5860   46.8660 O   0  0  0  0  0  0  0  0  0  0  0  0
   31.8080   30.2000   47.5610 H   0  0  0  0  0  0  0  0  0  0  0  0
   34.7390   29.5130   47.6190 S   0  0  0  0  0  0  0  0  0  0  0  0
   37.3250   29.3290   50.6060 C   0  0  0  0  0  0  0  0  0  0  0  0
   37.8240   30.6200   50.7460 C   0  0  0  0  0  0  0  0  0  0  0  0
   37.3370   31.6030   49.8720 C   0  0  0  0  0  0  0  0  0  0  0  0
   36.4160   31.2280   48.9540 N   0  0  0  0  0  0  0  0  0  0  0  0
   35.9500   29.9740   48.8390 C   0  0  0  0  0  0  0  0  0  0  0  0
   36.4070   29.0140   49.6720 N   0  0  0  0  0  0  0  0  0  0  0  0
   37.7220   28.5920   51.2970 H   0  0  0  0  0  0  0  0  0  0  0  0
   38.5620   30.9120   51.4850 H   0  0  0  0  0  0  0  0  0  0  0  0
   37.6540   32.6340   49.8920 H   0  0  0  0  0  0  0  0  0  0  0  0
   31.8210   26.6910   45.7420 O   0  0  0  0  0  0  0  0  0  0  0  0
   31.8100   26.8780   44.3520 C   0  0  0  0  0  0  0  0  0  0  0  0
   30.6880   27.7040   43.9750 C   0  0  0  0  0  0  0  0  0  0  0  0
   29.8840   28.1980   44.4510 H   0  0  0  0  0  0  0  0  0  0  0  0
   30.8700   27.8210   42.0910 S   0  0  0  0  0  0  0  0  0  0  0  0
   32.4230   26.7310   42.2080 C   0  0  0  0  0  0  0  0  0  0  0  0
   33.3610   26.1580   41.6210 H   0  0  0  0  0  0  0  0  0  0  0  0
   32.5320   26.5130   43.3100 N   0  0  0  0  0  0  0  0  0  0  0  0
  1  6  1  1  0  0  0
  1  2  1  0  0  0  0
  2  3  1  0  0  0  0
  2  7  1  1  0  0  0
  4  8  1  0  0  0  0
  4  3  1  0  0  0  0
  5 10  1  6  0  0  0
  5  4  1  0  0  0  0
  5  1  1  0  0  0  0
  9  4  1  0  0  0  0
 11  1  1  0  0  0  0
 11 12  1  0  0  0  0
 13  2  1  0  0  0  0
 13 18  1  0  0  0  0
 14 15  1  0  0  0  0
 14 20  1  0  0  0  0
 15 21  1  0  0  0  0
 16 22  1  0  0  0  0
 16 15  2  0  0  0  0
 17 16  1  0  0  0  0
 18 17  2  0  0  0  0
 18 19  1  0  0  0  0
 19 14  2  0  0  0  0
 23  5  1  0  0  0  0
 24 23  1  0  0  0  0
 25 24  2  0  0  0  0
 25 26  1  0  0  0  0
 27 28  1  0  0  0  0
 27 25  1  0  0  0  0
 28 30  2  0  0  0  0
 29 28  1  0  0  0  0
 30 24  1  0  0  0  0
M  END
>  <minimizedAffinity>
-3.706985

>  <minimizedRMSD>
0.289545953

$$$$
