
 OpenBabel03272506433D

 30 32  0  0  1  0  0  0  0  0999 V2000
   32.2390   28.1810   47.5180 C   0  0  2  0  0  0  0  0  0  0  0  0
   33.4980   28.1360   48.3690 C   0  0  1  0  0  0  0  0  0  0  0  0
   34.0810   26.9020   48.1910 O   0  0  0  0  0  0  0  0  0  0  0  0
   33.4240   26.2400   47.1820 C   0  0  0  0  0  0  0  0  0  0  0  0
   32.6700   27.3050   46.3820 C   0  0  1  0  0  0  0  0  0  0  0  0
   31.3750   27.7190   48.0450 H   0  0  0  0  0  0  0  0  0  0  0  0
   33.2410   28.3870   49.4050 H   0  0  0  0  0  0  0  0  0  0  0  0
   32.7470   25.4410   47.5400 H   0  0  0  0  0  0  0  0  0  0  0  0
   34.1900   25.8440   46.4770 H   0  0  0  0  0  0  0  0  0  0  0  0
   33.3420   27.8060   45.6830 H   0  0  0  0  0  0  0  0  0  0  0  0
   31.9460   29.4740   47.1160 O   0  0  0  0  0  0  0  0  0  0  0  0
   31.6900   30.0010   47.8970 H   0  0  0  0  0  0  0  0  0  0  0  0
   34.6270   29.3840   47.6450 S   0  0  0  0  0  0  0  0  0  0  0  0
   37.2270   29.2680   50.6220 C   0  0  0  0  0  0  0  0  0  0  0  0
   37.6520   30.5810   50.7960 C   0  0  0  0  0  0  0  0  0  0  0  0
   37.1070   31.5580   49.9500 C   0  0  0  0  0  0  0  0  0  0  0  0
   36.2070   31.1550   49.0230 N   0  0  0  0  0  0  0  0  0  0  0  0
   35.8130   29.8810   48.8750 C   0  0  0  0  0  0  0  0  0  0  0  0
   36.3270   28.9260   49.6810 N   0  0  0  0  0  0  0  0  0  0  0  0
   37.6680   28.5370   51.2920 H   0  0  0  0  0  0  0  0  0  0  0  0
   38.3740   30.8950   51.5420 H   0  0  0  0  0  0  0  0  0  0  0  0
   37.3640   32.6050   49.9970 H   0  0  0  0  0  0  0  0  0  0  0  0
   31.6090   26.7130   45.7060 O   0  0  0  0  0  0  0  0  0  0  0  0
   31.1710   27.3770   44.5500 C   0  0  0  0  0  0  0  0  0  0  0  0
   32.3060   27.7820   43.7570 C   0  0  0  0  0  0  0  0  0  0  0  0
   33.3600   27.7170   43.8050 H   0  0  0  0  0  0  0  0  0  0  0  0
   31.4930   28.6440   42.2750 S   0  0  0  0  0  0  0  0  0  0  0  0
   29.7920   28.2750   43.0390 C   0  0  0  0  0  0  0  0  0  0  0  0
   28.5520   28.3670   42.9550 H   0  0  0  0  0  0  0  0  0  0  0  0
   30.0260   27.7280   43.9980 N   0  0  0  0  0  0  0  0  0  0  0  0
  1  6  1  1  0  0  0
  1  2  1  0  0  0  0
  2  7  1  1  0  0  0
  3  2  1  0  0  0  0
  4  8  1  0  0  0  0
  4  3  1  0  0  0  0
  5 10  1  6  0  0  0
  5  4  1  0  0  0  0
  5  1  1  0  0  0  0
  9  4  1  0  0  0  0
 11  1  1  0  0  0  0
 11 12  1  0  0  0  0
 13  2  1  0  0  0  0
 13 18  1  0  0  0  0
 14 15  1  0  0  0  0
 14 20  1  0  0  0  0
 15 21  1  0  0  0  0
 16 22  1  0  0  0  0
 16 15  2  0  0  0  0
 17 16  1  0  0  0  0
 18 17  2  0  0  0  0
 18 19  1  0  0  0  0
 19 14  2  0  0  0  0
 23  5  1  0  0  0  0
 24 23  1  0  0  0  0
 25 26  1  0  0  0  0
 25 24  2  0  0  0  0
 27 28  1  0  0  0  0
 27 25  1  0  0  0  0
 28 30  2  0  0  0  0
 29 28  1  0  0  0  0
 30 24  1  0  0  0  0
M  END
>  <minimizedAffinity>
-3.72740626

>  <minimizedRMSD>
1.0265311

$$$$
