
 OpenBabel03272509473D

 23 24  0  0  0  0  0  0  0  0999 V2000
   34.0460   28.4980   48.6620 C   0  0  0  0  0  0  0  0  0  0  0  0
   33.0480   28.9770   48.8470 H   0  0  0  0  0  0  0  0  0  0  0  0
   34.5860   29.1690   47.9460 H   0  0  0  0  0  0  0  0  0  0  0  0
   33.8080   27.2000   47.9260 C   0  0  0  0  0  0  0  0  0  0  0  0
   33.0250   26.6300   48.4420 H   0  0  0  0  0  0  0  0  0  0  0  0
   34.7160   26.5890   47.8890 H   0  0  0  0  0  0  0  0  0  0  0  0
   33.3490   27.6010   46.5470 C   0  0  0  0  0  0  0  0  0  0  0  0
   33.7950   26.6570   45.5280 C   0  0  0  0  0  0  0  0  0  0  0  0
   34.3720   25.7510   45.5490 H   0  0  0  0  0  0  0  0  0  0  0  0
   33.1130   27.3700   43.9690 S   0  0  0  0  0  0  0  0  0  0  0  0
   32.3510   28.8070   44.9520 C   0  0  0  0  0  0  0  0  0  0  0  0
   31.6860   29.8520   44.9310 H   0  0  0  0  0  0  0  0  0  0  0  0
   32.6490   28.5840   46.0160 N   0  0  0  0  0  0  0  0  0  0  0  0
   34.7620   28.2620   49.8500 O   0  0  0  0  0  0  0  0  0  0  0  0
   37.3630   30.2540   51.4200 C   0  0  0  0  0  0  0  0  0  0  0  0
   38.0490   30.6810   50.2700 C   0  0  0  0  0  0  0  0  0  0  0  0
   37.5880   30.2660   49.0250 C   0  0  0  0  0  0  0  0  0  0  0  0
   36.4840   29.4620   49.0030 N   0  0  0  0  0  0  0  0  0  0  0  0
   35.8510   29.0720   50.1330 C   0  0  0  0  0  0  0  0  0  0  0  0
   36.3030   29.4770   51.3250 N   0  0  0  0  0  0  0  0  0  0  0  0
   37.6950   30.5580   52.4080 H   0  0  0  0  0  0  0  0  0  0  0  0
   38.9250   31.3240   50.3560 H   0  0  0  0  0  0  0  0  0  0  0  0
   38.0840   30.5710   48.1120 H   0  0  0  0  0  0  0  0  0  0  0  0
  1  2  1  0  0  0  0
  1 14  1  0  0  0  0
  3  1  1  0  0  0  0
  4  5  1  0  0  0  0
  4  1  1  0  0  0  0
  6  4  1  0  0  0  0
  7  4  1  0  0  0  0
  8  9  1  0  0  0  0
  8  7  2  0  0  0  0
 10 11  1  0  0  0  0
 10  8  1  0  0  0  0
 11 13  2  0  0  0  0
 12 11  1  0  0  0  0
 13  7  1  0  0  0  0
 14 19  1  0  0  0  0
 15 21  1  0  0  0  0
 16 22  1  0  0  0  0
 16 15  2  0  0  0  0
 17 16  1  0  0  0  0
 18 17  2  0  0  0  0
 18 19  1  0  0  0  0
 19 20  2  0  0  0  0
 20 15  1  0  0  0  0
 23 17  1  0  0  0  0
M  END
>  <minimizedAffinity>
-3.59603024

>  <minimizedRMSD>
0.303180486

$$$$
