
     RDKit          3D

 35 37  0  0  0  0  0  0  0  0999 V2000
   37.3417   30.1185   48.2965 O   0  0  0  0  0  0  0  0  0  0  0  0
   38.0632   31.3082   48.2242 C   0  0  0  0  0  0  0  0  0  0  0  0
   38.2155   32.0172   49.4013 C   0  0  0  0  0  0  0  0  0  0  0  0
   38.9284   33.2053   49.3599 C   0  0  0  0  0  0  0  0  0  0  0  0
   39.4448   33.6209   48.1699 N   0  0  0  0  0  0  0  0  0  0  0  0
   39.2872   32.9201   47.0366 C   0  0  0  0  0  0  0  0  0  0  0  0
   38.6044   31.7839   47.0816 N   0  0  0  0  0  0  0  0  0  0  0  0
   40.7642   32.4689   45.2393 C   0  0  0  0  0  0  0  0  0  0  0  0
   41.1277   31.3412   45.6868 O   0  0  0  0  0  0  0  0  0  0  0  0
   39.8390   33.3879   45.8098 N   0  0  0  0  0  0  0  0  0  0  0  0
   35.4837   28.6726   50.0527 O   0  0  0  0  0  0  0  0  0  0  0  0
   35.2632   29.0484   48.8945 C   0  0  0  0  0  0  0  0  0  0  0  0
   35.9196   30.2081   48.3327 C   0  0  2  0  0  0  0  0  0  0  0  0
   35.4567   30.1224   46.8425 C   0  0  0  0  0  0  0  0  0  0  0  0
   34.1628   29.3781   46.9278 C   0  0  0  0  0  0  0  0  0  0  0  0
   34.3535   28.3998   47.9823 N   0  0  0  0  0  0  0  0  0  0  0  0
   33.7575   27.0915   48.0626 C   0  0  0  0  0  0  0  0  0  0  0  0
   37.7932   31.6609   50.3310 H   0  0  0  0  0  0  0  0  0  0  0  0
   39.0434   33.7508   50.2759 H   0  0  0  0  0  0  0  0  0  0  0  0
   41.2784   32.6615   44.3058 H   0  0  0  0  0  0  0  0  0  0  0  0
   39.6993   34.2440   45.2683 H   0  0  0  0  0  0  0  0  0  0  0  0
   35.5661   31.1479   48.7499 H   0  0  0  0  0  0  0  0  0  0  0  0
   36.2150   29.6454   46.2240 H   0  0  0  0  0  0  0  0  0  0  0  0
   35.2551   31.1662   46.5496 H   0  0  0  0  0  0  0  0  0  0  0  0
   34.0502   28.8003   45.9774 H   0  0  0  0  0  0  0  0  0  0  0  0
   33.3022   30.0090   47.1421 H   0  0  0  0  0  0  0  0  0  0  0  0
   33.6506   26.8429   49.1543 H   0  0  0  0  0  0  0  0  0  0  0  0
   32.7401   27.1458   47.6791 H   0  0  0  0  0  0  0  0  0  0  0  0
   34.6018   26.0350   47.3967 C   0  0  0  0  0  0  0  0  0  0  0  0
   34.4020   25.7483   45.9752 C   0  0  0  0  0  0  0  0  0  0  0  0
   33.7469   26.1966   45.3930 H   0  0  0  0  0  0  0  0  0  0  0  0
   35.6397   24.4414   45.7248 S   0  0  0  0  0  0  0  0  0  0  0  0
   36.2169   24.4880   47.5354 C   0  0  0  0  0  0  0  0  0  0  0  0
   37.0045   23.9260   48.1680 H   0  0  0  0  0  0  0  0  0  0  0  0
   35.4914   25.4272   48.1909 N   0  0  0  0  0  0  0  0  0  0  0  0
  2  1  1  0
  2  3  2  0
  4  3  1  0
  5  4  2  0
  6  7  2  0
  6  5  1  0
  7  2  1  0
  8  9  2  0
  8 10  1  0
 10  6  1  0
 12 11  2  0
 13  1  1  0
 13 12  1  0
 14 15  1  0
 14 13  1  0
 15 16  1  0
 16 17  1  0
 16 12  1  0
  3 18  1  0
  4 19  1  0
  8 20  1  0
 10 21  1  0
 13 22  1  1
 14 23  1  0
 14 24  1  0
 15 25  1  0
 15 26  1  0
 17 27  1  0
 17 28  1  0
 29 30  2  0
 30 31  1  0
 30 32  1  0
 32 33  1  0
 33 34  1  0
 33 35  2  0
 35 29  1  0
 17 29  1  0
M  ISO  8  18  14  19  14  20   6  22  13  23  13  24  13  25  13  26  13
M  ISO  4  27   8  28   8  31  15  34  16
M  END
>  <DihAtoms>  (1) 
15,16,28,29

>  <DihDeg>  (1) 
90.42249767189386

$$$$
