
 OpenBabel03272506393D

 35 37  0  0  1  0  0  0  0  0999 V2000
   34.8700   28.4640   49.9510 O   0  0  0  0  0  0  0  0  0  0  0  0
   34.6920   28.8600   48.7920 C   0  0  0  0  0  0  0  0  0  0  0  0
   35.4100   29.9970   48.2590 C   0  0  2  0  0  0  0  0  0  0  0  0
   34.9780   29.9460   46.7580 C   0  0  0  0  0  0  0  0  0  0  0  0
   33.6520   29.2560   46.8050 C   0  0  0  0  0  0  0  0  0  0  0  0
   33.7770   28.2600   47.8520 N   0  0  0  0  0  0  0  0  0  0  0  0
   35.0860   30.9470   48.6780 H   0  0  0  0  0  0  0  0  0  0  0  0
   35.7290   29.4440   46.1510 H   0  0  0  0  0  0  0  0  0  0  0  0
   34.8270   31.0010   46.4720 H   0  0  0  0  0  0  0  0  0  0  0  0
   33.5370   28.6930   45.8450 H   0  0  0  0  0  0  0  0  0  0  0  0
   32.8140   29.9210   47.0070 H   0  0  0  0  0  0  0  0  0  0  0  0
   33.1260   26.9770   47.9040 C   0  0  0  0  0  0  0  0  0  0  0  0
   33.3710   26.4420   46.9470 H   0  0  0  0  0  0  0  0  0  0  0  0
   33.5880   26.3830   48.6920 H   0  0  0  0  0  0  0  0  0  0  0  0
   31.6290   27.0970   48.0340 C   0  0  0  0  0  0  0  0  0  0  0  0
   31.0600   27.7220   49.2300 C   0  0  0  0  0  0  0  0  0  0  0  0
   31.5810   28.0840   49.9830 H   0  0  0  0  0  0  0  0  0  0  0  0
   29.2860   27.5950   48.8570 S   0  0  0  0  0  0  0  0  0  0  0  0
   29.5860   26.7410   47.1850 C   0  0  0  0  0  0  0  0  0  0  0  0
   28.9200   26.3330   46.3330 H   0  0  0  0  0  0  0  0  0  0  0  0
   30.9230   26.6040   47.0100 N   0  0  0  0  0  0  0  0  0  0  0  0
   36.8270   29.8480   48.2540 O   0  0  0  0  0  0  0  0  0  0  0  0
   37.5990   31.0070   48.2850 C   0  0  0  0  0  0  0  0  0  0  0  0
   37.7440   31.6260   49.5120 C   0  0  0  0  0  0  0  0  0  0  0  0
   38.5070   32.7820   49.5750 C   0  0  0  0  0  0  0  0  0  0  0  0
   39.0770   33.2550   48.4320 N   0  0  0  0  0  0  0  0  0  0  0  0
   38.9250   32.6420   47.2480 C   0  0  0  0  0  0  0  0  0  0  0  0
   38.1950   31.5360   47.1940 N   0  0  0  0  0  0  0  0  0  0  0  0
   40.4370   32.2510   45.4650 C   0  0  0  0  0  0  0  0  0  0  0  0
   40.7400   31.0800   45.8430 O   0  0  0  0  0  0  0  0  0  0  0  0
   39.5340   33.1680   46.0730 N   0  0  0  0  0  0  0  0  0  0  0  0
   37.2790   31.2260   50.4030 H   0  0  0  0  0  0  0  0  0  0  0  0
   38.6160   33.2580   50.5290 H   0  0  0  0  0  0  0  0  0  0  0  0
   40.9880   32.4840   44.5630 H   0  0  0  0  0  0  0  0  0  0  0  0
   39.4470   34.0650   45.5890 H   0  0  0  0  0  0  0  0  0  0  0  0
  2  1  2  0  0  0  0
  3  7  1  1  0  0  0
  3  2  1  0  0  0  0
  4  5  1  0  0  0  0
  4  3  1  0  0  0  0
  5 11  1  0  0  0  0
  5  6  1  0  0  0  0
  6 12  1  0  0  0  0
  6  2  1  0  0  0  0
  8  4  1  0  0  0  0
  9  4  1  0  0  0  0
 10  5  1  0  0  0  0
 12 15  1  0  0  0  0
 12 14  1  0  0  0  0
 13 12  1  0  0  0  0
 15 16  2  0  0  0  0
 16 17  1  0  0  0  0
 18 16  1  0  0  0  0
 19 18  1  0  0  0  0
 20 19  1  0  0  0  0
 21 19  2  0  0  0  0
 21 15  1  0  0  0  0
 22  3  1  0  0  0  0
 22 23  1  0  0  0  0
 23 24  1  0  0  0  0
 24 25  2  0  0  0  0
 24 32  1  0  0  0  0
 25 33  1  0  0  0  0
 26 25  1  0  0  0  0
 27 26  2  0  0  0  0
 28 27  1  0  0  0  0
 28 23  2  0  0  0  0
 29 30  2  0  0  0  0
 29 31  1  0  0  0  0
 31 27  1  0  0  0  0
 34 29  1  0  0  0  0
 35 31  1  0  0  0  0
M  END
>  <minimizedAffinity>
-5.69559765

>  <minimizedRMSD>
2.80631566

$$$$
