
 OpenBabel03272506023D

 44 47  0  0  1  0  0  0  0  0999 V2000
   35.3380   30.3020   49.8650 C   0  0  2  0  0  0  0  0  0  0  0  0
   36.2430   31.3470   49.4050 C   0  0  0  0  0  0  0  0  0  0  0  0
   37.7410   30.8960   49.4440 C   0  0  2  0  0  0  0  0  0  0  0  0
   38.1990   30.4790   50.7470 C   0  0  0  0  0  0  0  0  0  0  0  0
   37.1320   29.7270   51.5570 C   0  0  0  0  0  0  0  0  0  0  0  0
   36.0640   29.1930   50.6440 C   0  0  0  0  0  0  0  0  0  0  0  0
   34.6130   30.6990   50.6370 H   0  0  0  0  0  0  0  0  0  0  0  0
   36.2350   32.2010   50.1670 H   0  0  0  0  0  0  0  0  0  0  0  0
   36.1550   31.8290   48.4560 H   0  0  0  0  0  0  0  0  0  0  0  0
   37.8400   30.1450   48.6640 H   0  0  0  0  0  0  0  0  0  0  0  0
   38.6240   31.2600   51.4100 H   0  0  0  0  0  0  0  0  0  0  0  0
   39.0230   29.7190   50.6160 H   0  0  0  0  0  0  0  0  0  0  0  0
   36.6340   30.4710   52.2140 H   0  0  0  0  0  0  0  0  0  0  0  0
   37.5480   28.8810   52.1000 H   0  0  0  0  0  0  0  0  0  0  0  0
   36.5610   28.5670   49.8710 H   0  0  0  0  0  0  0  0  0  0  0  0
   35.3790   28.5900   51.2340 H   0  0  0  0  0  0  0  0  0  0  0  0
   38.4870   30.9340   46.5940 Cl  0  0  0  0  0  0  0  0  0  0  0  0
   38.9040   32.2340   47.6880 C   0  0  0  0  0  0  0  0  0  0  0  0
   38.4640   32.1240   48.9840 C   0  0  0  0  0  0  0  0  0  0  0  0
   38.8060   33.2140   49.7710 C   0  0  0  0  0  0  0  0  0  0  0  0
   39.5200   34.2950   49.2840 C   0  0  0  0  0  0  0  0  0  0  0  0
   39.9270   34.3270   47.9650 C   0  0  0  0  0  0  0  0  0  0  0  0
   39.6070   33.2610   47.1420 C   0  0  0  0  0  0  0  0  0  0  0  0
   38.4700   33.1640   50.8200 H   0  0  0  0  0  0  0  0  0  0  0  0
   39.7420   35.1050   49.9790 H   0  0  0  0  0  0  0  0  0  0  0  0
   40.4870   35.1690   47.5770 H   0  0  0  0  0  0  0  0  0  0  0  0
   40.0260   33.2880   45.7820 N   0  0  0  0  0  0  0  0  0  0  0  0
   40.9620   33.6070   45.4740 H   0  0  0  0  0  0  0  0  0  0  0  0
   39.2670   32.9440   45.1340 H   0  0  0  0  0  0  0  0  0  0  0  0
   34.5480   29.6380   48.8370 C   0  0  0  0  0  0  0  0  0  0  0  0
   35.1170   29.6370   47.5750 C   0  0  0  0  0  0  0  0  0  0  0  0
   34.4520   29.0020   46.5330 C   0  0  0  0  0  0  0  0  0  0  0  0
   33.2450   28.3980   46.8040 N   0  0  0  0  0  0  0  0  0  0  0  0
   32.6980   28.4080   48.0400 C   0  0  0  0  0  0  0  0  0  0  0  0
   33.3890   29.0370   49.0060 N   0  0  0  0  0  0  0  0  0  0  0  0
   36.0090   30.0140   47.0930 H   0  0  0  0  0  0  0  0  0  0  0  0
   34.6860   28.8700   45.4920 H   0  0  0  0  0  0  0  0  0  0  0  0
   31.4370   27.7910   48.3960 C   0  0  0  0  0  0  0  0  0  0  0  0
   30.8510   27.5720   47.0800 C   0  0  0  0  0  0  0  0  0  0  0  0
   30.8290   27.6150   45.8620 H   0  0  0  0  0  0  0  0  0  0  0  0
   29.1540   26.7500   47.4210 S   0  0  0  0  0  0  0  0  0  0  0  0
   29.5800   26.8720   49.2670 C   0  0  0  0  0  0  0  0  0  0  0  0
   29.3280   26.6980   50.4870 H   0  0  0  0  0  0  0  0  0  0  0  0
   30.5980   27.3530   49.2870 N   0  0  0  0  0  0  0  0  0  0  0  0
  1  7  1  1  0  0  0
  1  6  1  0  0  0  0
  2  3  1  0  0  0  0
  2  1  1  0  0  0  0
  2  8  1  0  0  0  0
  3 10  1  6  0  0  0
  3  4  1  0  0  0  0
  4 11  1  0  0  0  0
  4  5  1  0  0  0  0
  5 14  1  0  0  0  0
  5 13  1  0  0  0  0
  6 16  1  0  0  0  0
  6  5  1  0  0  0  0
  9  2  1  0  0  0  0
 12  4  1  0  0  0  0
 15  6  1  0  0  0  0
 17 18  1  0  0  0  0
 18 19  1  0  0  0  0
 19  3  1  0  0  0  0
 19 20  2  0  0  0  0
 20 24  1  0  0  0  0
 21 20  1  0  0  0  0
 21 25  1  0  0  0  0
 22 21  2  0  0  0  0
 23 18  2  0  0  0  0
 23 22  1  0  0  0  0
 26 22  1  0  0  0  0
 27 23  1  0  0  0  0
 28 27  1  0  0  0  0
 29 27  1  0  0  0  0
 30 35  1  0  0  0  0
 30  1  1  0  0  0  0
 31 30  2  0  0  0  0
 32 33  2  0  0  0  0
 32 31  1  0  0  0  0
 33 34  1  0  0  0  0
 34 38  1  0  0  0  0
 34 35  2  0  0  0  0
 36 31  1  0  0  0  0
 37 32  1  0  0  0  0
 38 44  1  0  0  0  0
 39 41  1  0  0  0  0
 39 38  2  0  0  0  0
 40 39  1  0  0  0  0
 41 42  1  0  0  0  0
 42 44  2  0  0  0  0
 42 43  1  0  0  0  0
M  END
>  <minimizedAffinity>
-7.50445557

>  <minimizedRMSD>
1.19578874

$$$$
