
     RDKit          3D

 36 39  0  0  0  0  0  0  0  0999 V2000
   38.4331   31.1140   48.2166 C   0  0  2  0  0  0  0  0  0  0  0  0
   38.6749   32.5611   48.1000 C   0  0  0  0  0  0  0  0  0  0  0  0
   38.0583   31.7190   46.9610 C   0  0  1  0  0  0  0  0  0  0  0  0
   35.0902   30.2253   49.5542 C   0  0  0  0  0  0  0  0  0  0  0  0
   35.4189   29.5474   50.7626 C   0  0  0  0  0  0  0  0  0  0  0  0
   36.8200   29.4167   51.0979 C   0  0  0  0  0  0  0  0  0  0  0  0
   37.7528   29.9407   50.2542 N   0  0  0  0  0  0  0  0  0  0  0  0
   37.3568   30.5757   49.1158 C   0  0  0  0  0  0  0  0  0  0  0  0
   36.0393   30.7352   48.7370 N   0  0  0  0  0  0  0  0  0  0  0  0
   38.3878   31.8486   44.5129 C   0  0  0  0  0  0  0  0  0  0  0  0
   37.2908   32.4295   44.4006 O   0  0  0  0  0  0  0  0  0  0  0  0
   38.9447   31.5587   45.8202 N   0  0  0  0  0  0  0  0  0  0  0  0
   39.1830   31.4230   43.3327 C   0  0  0  0  0  0  0  0  0  0  0  0
   40.1484   30.4652   43.4901 C   0  0  0  0  0  0  0  0  0  0  0  0
   40.8680   30.1165   42.3569 C   0  0  0  0  0  0  0  0  0  0  0  0
   40.5817   30.7337   41.1688 C   0  0  0  0  0  0  0  0  0  0  0  0
   39.6062   31.6999   41.0138 C   0  0  0  0  0  0  0  0  0  0  0  0
   38.9509   31.9899   42.1398 N   0  0  0  0  0  0  0  0  0  0  0  0
   39.3515   30.4997   48.3023 H   0  0  0  0  0  0  0  0  0  0  0  0
   39.7115   32.9146   47.9647 H   0  0  0  0  0  0  0  0  0  0  0  0
   38.0253   33.2963   48.6099 H   0  0  0  0  0  0  0  0  0  0  0  0
   37.0021   32.0207   46.7542 H   0  0  0  0  0  0  0  0  0  0  0  0
   34.0354   30.2959   49.3502 H   0  0  0  0  0  0  0  0  0  0  0  0
   34.6556   29.1498   51.3981 H   0  0  0  0  0  0  0  0  0  0  0  0
   37.0794   28.9059   52.0098 H   0  0  0  0  0  0  0  0  0  0  0  0
   39.9217   31.2489   45.9871 H   0  0  0  0  0  0  0  0  0  0  0  0
   40.3594   29.9889   44.4385 H   0  0  0  0  0  0  0  0  0  0  0  0
   41.6545   29.3707   42.3672 H   0  0  0  0  0  0  0  0  0  0  0  0
   41.1531   30.4570   40.2694 H   0  0  0  0  0  0  0  0  0  0  0  0
   39.2751   32.3760   39.7682 C   0  0  0  0  0  0  0  0  0  0  0  0
   40.1571   33.3601   39.3084 C   0  0  0  0  0  0  0  0  0  0  0  0
   41.1392   33.8274   39.6491 H   0  0  0  0  0  0  0  0  0  0  0  0
   39.3493   33.9501   37.7069 S   0  0  0  0  0  0  0  0  0  0  0  0
   37.9466   32.7057   38.0032 C   0  0  0  0  0  0  0  0  0  0  0  0
   36.9262   32.3642   37.4539 H   0  0  0  0  0  0  0  0  0  0  0  0
   38.2479   32.2172   38.9645 N   0  0  0  0  0  0  0  0  0  0  0  0
  1  8  1  0
  2  1  1  0
  3  2  1  0
  3  1  1  0
  4  5  2  0
  5  6  1  0
  7  6  2  0
  8  7  1  0
  9  8  2  0
  9  4  1  0
 10 12  1  0
 11 10  2  0
 12  3  1  0
 13 14  2  0
 13 10  1  0
 15 14  1  0
 16 15  2  0
 17 16  1  0
 17 18  2  0
 18 13  1  0
  1 19  1  6
  2 20  1  0
  2 21  1  0
  3 22  1  6
  4 23  1  0
  5 24  1  0
  6 25  1  0
 12 26  1  0
 14 27  1  0
 15 28  1  0
 16 29  1  0
 30 31  2  0
 31 32  1  0
 31 33  1  0
 33 34  1  0
 34 35  1  0
 34 36  2  0
 36 30  1  0
 17 30  1  0
M  ISO  8  19  13  20  13  21  13  22  13  23  14  24  14  25  14  27  14
M  ISO  4  28  14  29  14  32  15  35  16
M  END
>  <DihAtoms>  (1) 
15,16,29,30

>  <DihDeg>  (1) 
-0.002314582608731248

$$$$
