
 OpenBabel03272505153D

 26 28  0  0  0  0  0  0  0  0999 V2000
   37.8170   23.2380   33.5790 Cl  0  0  0  0  0  0  0  0  0  0  0  0
   36.8090   24.1900   32.5100 C   0  0  0  0  0  0  0  0  0  0  0  0
   35.9900   23.5690   31.6120 C   0  0  0  0  0  0  0  0  0  0  0  0
   35.2460   24.4040   30.8250 C   0  0  0  0  0  0  0  0  0  0  0  0
   35.2720   25.7640   30.8800 C   0  0  0  0  0  0  0  0  0  0  0  0
   36.1090   26.3420   31.7960 C   0  0  0  0  0  0  0  0  0  0  0  0
   36.8950   25.5660   32.6300 C   0  0  0  0  0  0  0  0  0  0  0  0
   34.5750   23.9530   30.0910 H   0  0  0  0  0  0  0  0  0  0  0  0
   34.6640   26.3950   30.2360 H   0  0  0  0  0  0  0  0  0  0  0  0
   36.1470   27.4150   31.8570 H   0  0  0  0  0  0  0  0  0  0  0  0
   35.0430   19.9480   32.1900 C   0  0  0  0  0  0  0  0  0  0  0  0
   35.0420   21.3440   32.2510 C   0  0  0  0  0  0  0  0  0  0  0  0
   35.9720   22.1240   31.5640 C   0  0  0  0  0  0  0  0  0  0  0  0
   36.8780   21.4230   30.8290 N   0  0  0  0  0  0  0  0  0  0  0  0
   36.8860   20.0820   30.7650 C   0  0  0  0  0  0  0  0  0  0  0  0
   35.9720   19.3570   31.4420 N   0  0  0  0  0  0  0  0  0  0  0  0
   34.2600   19.4880   32.7780 H   0  0  0  0  0  0  0  0  0  0  0  0
   34.3280   21.9140   32.8310 H   0  0  0  0  0  0  0  0  0  0  0  0
   37.5910   19.5160   30.1920 H   0  0  0  0  0  0  0  0  0  0  0  0
   37.8080   26.1680   33.6280 C   0  0  0  0  0  0  0  0  0  0  0  0
   37.3110   26.4930   34.9280 C   0  0  0  0  0  0  0  0  0  0  0  0
   36.3230   26.3710   35.3440 H   0  0  0  0  0  0  0  0  0  0  0  0
   38.7450   27.1850   35.7750 S   0  0  0  0  0  0  0  0  0  0  0  0
   39.8200   26.9290   34.2270 C   0  0  0  0  0  0  0  0  0  0  0  0
   40.9560   27.1020   33.8400 H   0  0  0  0  0  0  0  0  0  0  0  0
   39.0870   26.4750   33.5110 N   0  0  0  0  0  0  0  0  0  0  0  0
  2  7  1  0  0  0  0
  2  1  1  0  0  0  0
  3  2  2  0  0  0  0
  4  5  2  0  0  0  0
  4  3  1  0  0  0  0
  5  6  1  0  0  0  0
  6 10  1  0  0  0  0
  6  7  2  0  0  0  0
  7 20  1  0  0  0  0
  8  4  1  0  0  0  0
  9  5  1  0  0  0  0
 11 12  1  0  0  0  0
 11 17  1  0  0  0  0
 12 18  1  0  0  0  0
 13  3  1  0  0  0  0
 13 12  2  0  0  0  0
 14 13  1  0  0  0  0
 15 14  2  0  0  0  0
 15 16  1  0  0  0  0
 16 11  2  0  0  0  0
 19 15  1  0  0  0  0
 20 21  2  0  0  0  0
 21 22  1  0  0  0  0
 21 23  1  0  0  0  0
 24 23  1  0  0  0  0
 25 24  1  0  0  0  0
 26 20  1  0  0  0  0
 26 24  2  0  0  0  0
M  END
>  <minimizedAffinity>
-4.80514383

$$$$

 OpenBabel03272505153D

 26 28  0  0  0  0  0  0  0  0999 V2000
   40.6050   24.4490   34.3500 Cl  0  0  0  0  0  0  0  0  0  0  0  0
   39.7140   24.0650   35.8080 C   0  0  0  0  0  0  0  0  0  0  0  0
   38.4580   24.5670   35.9920 C   0  0  0  0  0  0  0  0  0  0  0  0
   37.8510   24.2070   37.1630 C   0  0  0  0  0  0  0  0  0  0  0  0
   38.4010   23.4090   38.1190 C   0  0  0  0  0  0  0  0  0  0  0  0
   39.6620   22.9290   37.8910 C   0  0  0  0  0  0  0  0  0  0  0  0
   40.3450   23.2480   36.7290 C   0  0  0  0  0  0  0  0  0  0  0  0
   36.8440   24.5840   37.3540 H   0  0  0  0  0  0  0  0  0  0  0  0
   37.8840   23.1450   39.0390 H   0  0  0  0  0  0  0  0  0  0  0  0
   40.1170   22.2970   38.6320 H   0  0  0  0  0  0  0  0  0  0  0  0
   37.0830   27.5730   34.1440 C   0  0  0  0  0  0  0  0  0  0  0  0
   37.6380   26.7740   35.1470 C   0  0  0  0  0  0  0  0  0  0  0  0
   37.8850   25.4130   34.9690 C   0  0  0  0  0  0  0  0  0  0  0  0
   37.5470   24.9240   33.7450 N   0  0  0  0  0  0  0  0  0  0  0  0
   37.0140   25.6840   32.7750 C   0  0  0  0  0  0  0  0  0  0  0  0
   36.7870   26.9980   32.9810 N   0  0  0  0  0  0  0  0  0  0  0  0
   36.9530   28.6070   34.4360 H   0  0  0  0  0  0  0  0  0  0  0  0
   37.9110   27.1490   36.1240 H   0  0  0  0  0  0  0  0  0  0  0  0
   36.7420   25.3150   31.8080 H   0  0  0  0  0  0  0  0  0  0  0  0
   41.7100   22.7410   36.4600 C   0  0  0  0  0  0  0  0  0  0  0  0
   41.8880   21.3770   36.0740 C   0  0  0  0  0  0  0  0  0  0  0  0
   41.1600   20.5940   35.9330 H   0  0  0  0  0  0  0  0  0  0  0  0
   43.6720   21.2220   35.8600 S   0  0  0  0  0  0  0  0  0  0  0  0
   43.9180   23.0480   36.3300 C   0  0  0  0  0  0  0  0  0  0  0  0
   44.8010   23.8680   36.4660 H   0  0  0  0  0  0  0  0  0  0  0  0
   42.8640   23.3800   36.5210 N   0  0  0  0  0  0  0  0  0  0  0  0
  1  2  1  0  0  0  0
  2  3  2  0  0  0  0
  2  7  1  0  0  0  0
  3  4  1  0  0  0  0
  4  8  1  0  0  0  0
  4  5  2  0  0  0  0
  5  9  1  0  0  0  0
  6  5  1  0  0  0  0
  6 10  1  0  0  0  0
  7  6  2  0  0  0  0
 11 17  1  0  0  0  0
 11 12  1  0  0  0  0
 12 18  1  0  0  0  0
 13 12  2  0  0  0  0
 13  3  1  0  0  0  0
 14 13  1  0  0  0  0
 15 16  1  0  0  0  0
 15 14  2  0  0  0  0
 16 11  2  0  0  0  0
 19 15  1  0  0  0  0
 20 26  1  0  0  0  0
 20  7  1  0  0  0  0
 21 20  2  0  0  0  0
 22 21  1  0  0  0  0
 23 21  1  0  0  0  0
 23 24  1  0  0  0  0
 24 25  1  0  0  0  0
 24 26  2  0  0  0  0
M  END
>  <minimizedAffinity>
-4.74781895

$$$$

 OpenBabel03272505153D

 26 28  0  0  0  0  0  0  0  0999 V2000
   37.8890   23.0690   33.4840 Cl  0  0  0  0  0  0  0  0  0  0  0  0
   36.8750   24.1030   32.5000 C   0  0  0  0  0  0  0  0  0  0  0  0
   36.9730   25.4590   32.6090 C   0  0  0  0  0  0  0  0  0  0  0  0
   36.1370   26.1730   31.7970 C   0  0  0  0  0  0  0  0  0  0  0  0
   35.2460   25.6330   30.9200 C   0  0  0  0  0  0  0  0  0  0  0  0
   35.1820   24.2680   30.8460 C   0  0  0  0  0  0  0  0  0  0  0  0
   35.9960   23.4740   31.6350 C   0  0  0  0  0  0  0  0  0  0  0  0
   36.1800   27.2630   31.8480 H   0  0  0  0  0  0  0  0  0  0  0  0
   34.5960   26.2370   30.2890 H   0  0  0  0  0  0  0  0  0  0  0  0
   34.4860   23.8200   30.1600 H   0  0  0  0  0  0  0  0  0  0  0  0
   38.5210   26.9530   35.7270 C   0  0  0  0  0  0  0  0  0  0  0  0
   37.5870   26.4140   34.8390 C   0  0  0  0  0  0  0  0  0  0  0  0
   37.9240   26.0200   33.5440 C   0  0  0  0  0  0  0  0  0  0  0  0
   39.2310   26.1990   33.2120 N   0  0  0  0  0  0  0  0  0  0  0  0
   40.1360   26.7160   34.0580 C   0  0  0  0  0  0  0  0  0  0  0  0
   39.7760   27.0870   35.3050 N   0  0  0  0  0  0  0  0  0  0  0  0
   38.1050   27.2090   36.6920 H   0  0  0  0  0  0  0  0  0  0  0  0
   36.5440   26.2650   35.0890 H   0  0  0  0  0  0  0  0  0  0  0  0
   41.1670   26.8640   33.8130 H   0  0  0  0  0  0  0  0  0  0  0  0
   35.9450   21.9960   31.5720 C   0  0  0  0  0  0  0  0  0  0  0  0
   35.0190   21.2910   32.4010 C   0  0  0  0  0  0  0  0  0  0  0  0
   34.3000   21.6640   33.1130 H   0  0  0  0  0  0  0  0  0  0  0  0
   35.3120   19.5580   31.9920 S   0  0  0  0  0  0  0  0  0  0  0  0
   36.6610   20.0490   30.7450 C   0  0  0  0  0  0  0  0  0  0  0  0
   37.4410   19.5460   29.9660 H   0  0  0  0  0  0  0  0  0  0  0  0
   36.6580   21.1670   30.8320 N   0  0  0  0  0  0  0  0  0  0  0  0
  2  3  1  0  0  0  0
  2  1  1  0  0  0  0
  3 13  1  0  0  0  0
  4  8  1  0  0  0  0
  4  3  2  0  0  0  0
  5  4  1  0  0  0  0
  6  5  2  0  0  0  0
  6  7  1  0  0  0  0
  7  2  2  0  0  0  0
  9  5  1  0  0  0  0
 10  6  1  0  0  0  0
 11 17  1  0  0  0  0
 12 18  1  0  0  0  0
 12 11  2  0  0  0  0
 13 12  1  0  0  0  0
 14 13  2  0  0  0  0
 14 15  1  0  0  0  0
 15 16  2  0  0  0  0
 16 11  1  0  0  0  0
 19 15  1  0  0  0  0
 20  7  1  0  0  0  0
 20 21  2  0  0  0  0
 21 22  1  0  0  0  0
 23 21  1  0  0  0  0
 24 26  2  0  0  0  0
 24 23  1  0  0  0  0
 25 24  1  0  0  0  0
 26 20  1  0  0  0  0
M  END
>  <minimizedAffinity>
-4.68855047

$$$$

 OpenBabel03272505153D

 26 28  0  0  0  0  0  0  0  0999 V2000
   36.3920   28.0470   34.7520 Cl  0  0  0  0  0  0  0  0  0  0  0  0
   36.1790   28.9090   33.2420 C   0  0  0  0  0  0  0  0  0  0  0  0
   35.5290   30.1080   33.2280 C   0  0  0  0  0  0  0  0  0  0  0  0
   35.4170   30.6970   31.9990 C   0  0  0  0  0  0  0  0  0  0  0  0
   35.8960   30.1790   30.8340 C   0  0  0  0  0  0  0  0  0  0  0  0
   36.5400   28.9730   30.8980 C   0  0  0  0  0  0  0  0  0  0  0  0
   36.6960   28.3130   32.1050 C   0  0  0  0  0  0  0  0  0  0  0  0
   34.9050   31.6600   31.9370 H   0  0  0  0  0  0  0  0  0  0  0  0
   35.7870   30.6790   29.8740 H   0  0  0  0  0  0  0  0  0  0  0  0
   36.9270   28.5450   29.9910 H   0  0  0  0  0  0  0  0  0  0  0  0
   35.2910   31.9220   36.5440 C   0  0  0  0  0  0  0  0  0  0  0  0
   35.7980   31.4110   35.3470 C   0  0  0  0  0  0  0  0  0  0  0  0
   35.0260   30.6470   34.4710 C   0  0  0  0  0  0  0  0  0  0  0  0
   33.7420   30.4390   34.8720 N   0  0  0  0  0  0  0  0  0  0  0  0
   33.2460   30.9260   36.0200 C   0  0  0  0  0  0  0  0  0  0  0  0
   34.0210   31.6620   36.8440 N   0  0  0  0  0  0  0  0  0  0  0  0
   36.0130   32.4930   37.1120 H   0  0  0  0  0  0  0  0  0  0  0  0
   36.8160   31.5680   35.0160 H   0  0  0  0  0  0  0  0  0  0  0  0
   32.2390   30.7720   36.3490 H   0  0  0  0  0  0  0  0  0  0  0  0
   37.3890   27.0090   32.1990 C   0  0  0  0  0  0  0  0  0  0  0  0
   38.8170   26.9750   32.2410 C   0  0  0  0  0  0  0  0  0  0  0  0
   39.5320   27.7810   32.2150 H   0  0  0  0  0  0  0  0  0  0  0  0
   39.2010   25.2160   32.3520 S   0  0  0  0  0  0  0  0  0  0  0  0
   37.3500   24.7790   32.3260 C   0  0  0  0  0  0  0  0  0  0  0  0
   36.6160   23.8140   32.3600 H   0  0  0  0  0  0  0  0  0  0  0  0
   36.8760   25.7930   32.2550 N   0  0  0  0  0  0  0  0  0  0  0  0
  2  1  1  0  0  0  0
  3  2  1  0  0  0  0
  3 13  1  0  0  0  0
  4  3  2  0  0  0  0
  5  6  2  0  0  0  0
  5  4  1  0  0  0  0
  6  7  1  0  0  0  0
  7 20  1  0  0  0  0
  7  2  2  0  0  0  0
  8  4  1  0  0  0  0
  9  5  1  0  0  0  0
 10  6  1  0  0  0  0
 11 16  1  0  0  0  0
 11 17  1  0  0  0  0
 12 11  2  0  0  0  0
 13 14  2  0  0  0  0
 13 12  1  0  0  0  0
 14 15  1  0  0  0  0
 15 19  1  0  0  0  0
 15 16  2  0  0  0  0
 18 12  1  0  0  0  0
 20 21  2  0  0  0  0
 20 26  1  0  0  0  0
 21 23  1  0  0  0  0
 22 21  1  0  0  0  0
 24 23  1  0  0  0  0
 24 25  1  0  0  0  0
 26 24  2  0  0  0  0
M  END
>  <minimizedAffinity>
-4.48381376

$$$$

 OpenBabel03272505153D

 26 28  0  0  0  0  0  0  0  0999 V2000
   37.8960   27.2330   33.5370 Cl  0  0  0  0  0  0  0  0  0  0  0  0
   37.0000   26.0690   32.5820 C   0  0  0  0  0  0  0  0  0  0  0  0
   36.0770   26.4990   31.6730 C   0  0  0  0  0  0  0  0  0  0  0  0
   35.4350   25.5110   30.9810 C   0  0  0  0  0  0  0  0  0  0  0  0
   35.6510   24.1760   31.1380 C   0  0  0  0  0  0  0  0  0  0  0  0
   36.5850   23.7920   32.0620 C   0  0  0  0  0  0  0  0  0  0  0  0
   37.2800   24.7330   32.8030 C   0  0  0  0  0  0  0  0  0  0  0  0
   34.6870   25.8060   30.2410 H   0  0  0  0  0  0  0  0  0  0  0  0
   35.1180   23.4180   30.5670 H   0  0  0  0  0  0  0  0  0  0  0  0
   36.7730   22.7430   32.2030 H   0  0  0  0  0  0  0  0  0  0  0  0
   36.2930   30.0720   30.4350 C   0  0  0  0  0  0  0  0  0  0  0  0
   36.5210   28.7000   30.5700 C   0  0  0  0  0  0  0  0  0  0  0  0
   35.8570   27.9200   31.5160 C   0  0  0  0  0  0  0  0  0  0  0  0
   34.9720   28.5960   32.2980 N   0  0  0  0  0  0  0  0  0  0  0  0
   34.7460   29.9130   32.1760 C   0  0  0  0  0  0  0  0  0  0  0  0
   35.4050   30.6390   31.2480 N   0  0  0  0  0  0  0  0  0  0  0  0
   36.8840   30.5360   29.6560 H   0  0  0  0  0  0  0  0  0  0  0  0
   37.2220   28.1500   29.9550 H   0  0  0  0  0  0  0  0  0  0  0  0
   34.0540   30.4590   32.7820 H   0  0  0  0  0  0  0  0  0  0  0  0
   38.2950   24.3420   33.8070 C   0  0  0  0  0  0  0  0  0  0  0  0
   39.6400   24.1020   33.3880 C   0  0  0  0  0  0  0  0  0  0  0  0
   40.0820   24.1570   32.4060 H   0  0  0  0  0  0  0  0  0  0  0  0
   40.4930   23.6650   34.9160 S   0  0  0  0  0  0  0  0  0  0  0  0
   38.8850   23.8750   35.9100 C   0  0  0  0  0  0  0  0  0  0  0  0
   38.4700   23.7890   37.0460 H   0  0  0  0  0  0  0  0  0  0  0  0
   38.1570   24.1680   35.1090 N   0  0  0  0  0  0  0  0  0  0  0  0
  2  7  1  0  0  0  0
  2  1  1  0  0  0  0
  3  2  2  0  0  0  0
  4  5  2  0  0  0  0
  4  3  1  0  0  0  0
  5  6  1  0  0  0  0
  6 10  1  0  0  0  0
  6  7  2  0  0  0  0
  7 20  1  0  0  0  0
  8  4  1  0  0  0  0
  9  5  1  0  0  0  0
 11 12  2  0  0  0  0
 11 16  1  0  0  0  0
 12 13  1  0  0  0  0
 13  3  1  0  0  0  0
 13 14  2  0  0  0  0
 15 14  1  0  0  0  0
 15 19  1  0  0  0  0
 16 15  2  0  0  0  0
 17 11  1  0  0  0  0
 18 12  1  0  0  0  0
 20 26  1  0  0  0  0
 21 20  2  0  0  0  0
 21 23  1  0  0  0  0
 22 21  1  0  0  0  0
 23 24  1  0  0  0  0
 24 25  1  0  0  0  0
 26 24  2  0  0  0  0
M  END
>  <minimizedAffinity>
-4.45993376

$$$$

 OpenBabel03272505153D

 26 28  0  0  0  0  0  0  0  0999 V2000
   36.8380   25.4860   32.1890 Cl  0  0  0  0  0  0  0  0  0  0  0  0
   37.4500   26.0990   33.7110 C   0  0  0  0  0  0  0  0  0  0  0  0
   37.2320   27.4010   34.0580 C   0  0  0  0  0  0  0  0  0  0  0  0
   37.7520   27.7780   35.2650 C   0  0  0  0  0  0  0  0  0  0  0  0
   38.4470   26.9650   36.1080 C   0  0  0  0  0  0  0  0  0  0  0  0
   38.6410   25.6680   35.7170 C   0  0  0  0  0  0  0  0  0  0  0  0
   38.1450   25.2090   34.5090 C   0  0  0  0  0  0  0  0  0  0  0  0
   37.6020   28.8110   35.5870 H   0  0  0  0  0  0  0  0  0  0  0  0
   38.8450   27.3040   37.0630 H   0  0  0  0  0  0  0  0  0  0  0  0
   39.1860   25.0080   36.3670 H   0  0  0  0  0  0  0  0  0  0  0  0
   36.2580   29.5050   31.0630 C   0  0  0  0  0  0  0  0  0  0  0  0
   36.9890   28.6810   31.9230 C   0  0  0  0  0  0  0  0  0  0  0  0
   36.4930   28.2530   33.1540 C   0  0  0  0  0  0  0  0  0  0  0  0
   35.2420   28.6990   33.4540 N   0  0  0  0  0  0  0  0  0  0  0  0
   34.5320   29.4900   32.6350 C   0  0  0  0  0  0  0  0  0  0  0  0
   35.0430   29.8850   31.4500 N   0  0  0  0  0  0  0  0  0  0  0  0
   36.7800   29.7490   30.1480 H   0  0  0  0  0  0  0  0  0  0  0  0
   37.9840   28.3200   31.6970 H   0  0  0  0  0  0  0  0  0  0  0  0
   33.5480   29.8480   32.8550 H   0  0  0  0  0  0  0  0  0  0  0  0
   38.3420   23.8100   34.0640 C   0  0  0  0  0  0  0  0  0  0  0  0
   39.5550   23.4500   33.4000 C   0  0  0  0  0  0  0  0  0  0  0  0
   40.4130   24.0520   33.1460 H   0  0  0  0  0  0  0  0  0  0  0  0
   39.3490   21.6920   33.0550 S   0  0  0  0  0  0  0  0  0  0  0  0
   37.6300   21.7030   33.8700 C   0  0  0  0  0  0  0  0  0  0  0  0
   36.7080   20.9550   34.1170 H   0  0  0  0  0  0  0  0  0  0  0  0
   37.5320   22.7740   34.1860 N   0  0  0  0  0  0  0  0  0  0  0  0
  1  2  1  0  0  0  0
  2  3  2  0  0  0  0
  2  7  1  0  0  0  0
  3  4  1  0  0  0  0
  4  8  1  0  0  0  0
  4  5  2  0  0  0  0
  5  9  1  0  0  0  0
  6  5  1  0  0  0  0
  6 10  1  0  0  0  0
  7  6  2  0  0  0  0
 11 16  2  0  0  0  0
 11 12  1  0  0  0  0
 12 13  2  0  0  0  0
 13 14  1  0  0  0  0
 13  3  1  0  0  0  0
 15 19  1  0  0  0  0
 15 14  2  0  0  0  0
 16 15  1  0  0  0  0
 17 11  1  0  0  0  0
 18 12  1  0  0  0  0
 20 26  1  0  0  0  0
 20  7  1  0  0  0  0
 21 20  2  0  0  0  0
 22 21  1  0  0  0  0
 23 21  1  0  0  0  0
 23 24  1  0  0  0  0
 24 25  1  0  0  0  0
 24 26  2  0  0  0  0
M  END
>  <minimizedAffinity>
-4.45725107

$$$$

 OpenBabel03272505153D

 26 28  0  0  0  0  0  0  0  0999 V2000
   37.9850   27.1400   33.5340 Cl  0  0  0  0  0  0  0  0  0  0  0  0
   37.1040   25.9310   32.6230 C   0  0  0  0  0  0  0  0  0  0  0  0
   37.3970   24.6080   32.7860 C   0  0  0  0  0  0  0  0  0  0  0  0
   36.6530   23.7480   32.0280 C   0  0  0  0  0  0  0  0  0  0  0  0
   35.6750   24.1170   31.1550 C   0  0  0  0  0  0  0  0  0  0  0  0
   35.4170   25.4540   31.0260 C   0  0  0  0  0  0  0  0  0  0  0  0
   36.1270   26.3900   31.7580 C   0  0  0  0  0  0  0  0  0  0  0  0
   36.8500   22.6780   32.1240 H   0  0  0  0  0  0  0  0  0  0  0  0
   35.1030   23.4000   30.5690 H   0  0  0  0  0  0  0  0  0  0  0  0
   34.6490   25.7690   30.3420 H   0  0  0  0  0  0  0  0  0  0  0  0
   40.7570   23.6630   34.2560 C   0  0  0  0  0  0  0  0  0  0  0  0
   39.7670   24.0280   33.3410 C   0  0  0  0  0  0  0  0  0  0  0  0
   38.4380   24.2300   33.7150 C   0  0  0  0  0  0  0  0  0  0  0  0
   38.1810   24.0450   35.0390 N   0  0  0  0  0  0  0  0  0  0  0  0
   39.1250   23.6940   35.9260 C   0  0  0  0  0  0  0  0  0  0  0  0
   40.4020   23.5070   35.5300 N   0  0  0  0  0  0  0  0  0  0  0  0
   41.7360   23.5440   33.8120 H   0  0  0  0  0  0  0  0  0  0  0  0
   39.9570   24.1780   32.2870 H   0  0  0  0  0  0  0  0  0  0  0  0
   38.9400   23.5450   36.9690 H   0  0  0  0  0  0  0  0  0  0  0  0
   35.8660   27.8420   31.6350 C   0  0  0  0  0  0  0  0  0  0  0  0
   36.5300   28.5900   30.6140 C   0  0  0  0  0  0  0  0  0  0  0  0
   37.2350   28.2680   29.8650 H   0  0  0  0  0  0  0  0  0  0  0  0
   35.9160   30.2700   30.8470 S   0  0  0  0  0  0  0  0  0  0  0  0
   34.8380   29.7060   32.3090 C   0  0  0  0  0  0  0  0  0  0  0  0
   34.0530   30.1530   33.1180 H   0  0  0  0  0  0  0  0  0  0  0  0
   35.0710   28.6110   32.3580 N   0  0  0  0  0  0  0  0  0  0  0  0
  2  3  1  0  0  0  0
  2  1  1  0  0  0  0
  3 13  1  0  0  0  0
  4  8  1  0  0  0  0
  4  3  2  0  0  0  0
  5  4  1  0  0  0  0
  6  5  2  0  0  0  0
  6  7  1  0  0  0  0
  7  2  2  0  0  0  0
  9  5  1  0  0  0  0
 10  6  1  0  0  0  0
 11 16  1  0  0  0  0
 12 13  1  0  0  0  0
 12 11  2  0  0  0  0
 13 14  2  0  0  0  0
 14 15  1  0  0  0  0
 15 19  1  0  0  0  0
 16 15  2  0  0  0  0
 17 11  1  0  0  0  0
 18 12  1  0  0  0  0
 20  7  1  0  0  0  0
 20 26  1  0  0  0  0
 21 23  1  0  0  0  0
 21 20  2  0  0  0  0
 22 21  1  0  0  0  0
 23 24  1  0  0  0  0
 24 26  2  0  0  0  0
 24 25  1  0  0  0  0
M  END
>  <minimizedAffinity>
-4.40215349

$$$$

 OpenBabel03272505153D

 26 28  0  0  0  0  0  0  0  0999 V2000
   38.5380   25.5770   34.3750 Cl  0  0  0  0  0  0  0  0  0  0  0  0
   37.9040   24.0960   33.6880 C   0  0  0  0  0  0  0  0  0  0  0  0
   37.9070   22.9460   34.4240 C   0  0  0  0  0  0  0  0  0  0  0  0
   37.3910   21.8490   33.7940 C   0  0  0  0  0  0  0  0  0  0  0  0
   36.8930   21.8330   32.5270 C   0  0  0  0  0  0  0  0  0  0  0  0
   36.9110   23.0090   31.8280 C   0  0  0  0  0  0  0  0  0  0  0  0
   37.4170   24.1660   32.3950 C   0  0  0  0  0  0  0  0  0  0  0  0
   37.3710   20.9050   34.3440 H   0  0  0  0  0  0  0  0  0  0  0  0
   36.4890   20.9370   32.0600 H   0  0  0  0  0  0  0  0  0  0  0  0
   36.5230   23.0210   30.8250 H   0  0  0  0  0  0  0  0  0  0  0  0
   40.2320   22.6220   37.3960 C   0  0  0  0  0  0  0  0  0  0  0  0
   39.7380   22.5850   36.0900 C   0  0  0  0  0  0  0  0  0  0  0  0
   38.4390   22.9770   35.7680 C   0  0  0  0  0  0  0  0  0  0  0  0
   37.6900   23.3990   36.8230 N   0  0  0  0  0  0  0  0  0  0  0  0
   38.1560   23.4390   38.0810 C   0  0  0  0  0  0  0  0  0  0  0  0
   39.4190   23.0520   38.3580 N   0  0  0  0  0  0  0  0  0  0  0  0
   41.2570   22.2870   37.4820 H   0  0  0  0  0  0  0  0  0  0  0  0
   40.3220   22.2510   35.2420 H   0  0  0  0  0  0  0  0  0  0  0  0
   37.5800   23.7680   38.9210 H   0  0  0  0  0  0  0  0  0  0  0  0
   37.4470   25.4500   31.6580 C   0  0  0  0  0  0  0  0  0  0  0  0
   36.2900   26.2870   31.6620 C   0  0  0  0  0  0  0  0  0  0  0  0
   35.3310   26.1460   32.1350 H   0  0  0  0  0  0  0  0  0  0  0  0
   36.7830   27.7040   30.6590 S   0  0  0  0  0  0  0  0  0  0  0  0
   38.5040   26.9450   30.3800 C   0  0  0  0  0  0  0  0  0  0  0  0
   39.5500   27.1840   29.8150 H   0  0  0  0  0  0  0  0  0  0  0  0
   38.4280   25.9850   30.9540 N   0  0  0  0  0  0  0  0  0  0  0  0
  2  1  1  0  0  0  0
  2  3  1  0  0  0  0
  3 13  1  0  0  0  0
  4  8  1  0  0  0  0
  4  3  2  0  0  0  0
  5  4  1  0  0  0  0
  6  7  1  0  0  0  0
  6  5  2  0  0  0  0
  7  2  2  0  0  0  0
  9  5  1  0  0  0  0
 10  6  1  0  0  0  0
 11 17  1  0  0  0  0
 11 16  1  0  0  0  0
 12 11  2  0  0  0  0
 13 12  1  0  0  0  0
 13 14  2  0  0  0  0
 14 15  1  0  0  0  0
 15 16  2  0  0  0  0
 15 19  1  0  0  0  0
 18 12  1  0  0  0  0
 20 21  2  0  0  0  0
 20  7  1  0  0  0  0
 21 22  1  0  0  0  0
 23 21  1  0  0  0  0
 24 23  1  0  0  0  0
 24 26  2  0  0  0  0
 25 24  1  0  0  0  0
 26 20  1  0  0  0  0
M  END
>  <minimizedAffinity>
-4.3866477

$$$$

 OpenBabel03272505153D

 26 28  0  0  0  0  0  0  0  0999 V2000
   36.3290   28.0850   34.6220 Cl  0  0  0  0  0  0  0  0  0  0  0  0
   36.2010   28.9080   33.0820 C   0  0  0  0  0  0  0  0  0  0  0  0
   36.6500   28.3000   31.9450 C   0  0  0  0  0  0  0  0  0  0  0  0
   36.5030   29.0280   30.7970 C   0  0  0  0  0  0  0  0  0  0  0  0
   35.9580   30.2740   30.7230 C   0  0  0  0  0  0  0  0  0  0  0  0
   35.5220   30.8420   31.8880 C   0  0  0  0  0  0  0  0  0  0  0  0
   35.6350   30.1700   33.0930 C   0  0  0  0  0  0  0  0  0  0  0  0
   36.8470   28.5830   29.8610 H   0  0  0  0  0  0  0  0  0  0  0  0
   35.8580   30.8210   29.7880 H   0  0  0  0  0  0  0  0  0  0  0  0
   35.0870   31.8250   31.8540 H   0  0  0  0  0  0  0  0  0  0  0  0
   39.1360   25.4560   32.2140 C   0  0  0  0  0  0  0  0  0  0  0  0
   38.5990   26.7430   32.1250 C   0  0  0  0  0  0  0  0  0  0  0  0
   37.2270   26.9780   32.0380 C   0  0  0  0  0  0  0  0  0  0  0  0
   36.4520   25.8590   32.0480 N   0  0  0  0  0  0  0  0  0  0  0  0
   36.9590   24.6200   32.1340 C   0  0  0  0  0  0  0  0  0  0  0  0
   38.2920   24.4270   32.2170 N   0  0  0  0  0  0  0  0  0  0  0  0
   40.2160   25.4400   32.2750 H   0  0  0  0  0  0  0  0  0  0  0  0
   39.2030   27.6410   32.1160 H   0  0  0  0  0  0  0  0  0  0  0  0
   36.3630   23.7300   32.1440 H   0  0  0  0  0  0  0  0  0  0  0  0
   35.1710   30.7640   34.3670 C   0  0  0  0  0  0  0  0  0  0  0  0
   33.7920   30.6580   34.7300 C   0  0  0  0  0  0  0  0  0  0  0  0
   32.9710   30.1920   34.2090 H   0  0  0  0  0  0  0  0  0  0  0  0
   33.7000   31.5080   36.3180 S   0  0  0  0  0  0  0  0  0  0  0  0
   35.5630   31.8860   36.2580 C   0  0  0  0  0  0  0  0  0  0  0  0
   36.4270   32.4330   36.9090 H   0  0  0  0  0  0  0  0  0  0  0  0
   35.8610   31.4180   35.2830 N   0  0  0  0  0  0  0  0  0  0  0  0
  2  7  1  0  0  0  0
  2  1  1  0  0  0  0
  3 13  1  0  0  0  0
  3  2  2  0  0  0  0
  4  3  1  0  0  0  0
  5  4  2  0  0  0  0
  5  6  1  0  0  0  0
  6  7  2  0  0  0  0
  7 20  1  0  0  0  0
  8  4  1  0  0  0  0
  9  5  1  0  0  0  0
 10  6  1  0  0  0  0
 11 16  1  0  0  0  0
 11 17  1  0  0  0  0
 12 11  2  0  0  0  0
 13 14  2  0  0  0  0
 13 12  1  0  0  0  0
 14 15  1  0  0  0  0
 15 19  1  0  0  0  0
 15 16  2  0  0  0  0
 18 12  1  0  0  0  0
 20 21  2  0  0  0  0
 20 26  1  0  0  0  0
 21 23  1  0  0  0  0
 22 21  1  0  0  0  0
 24 23  1  0  0  0  0
 24 25  1  0  0  0  0
 26 24  2  0  0  0  0
M  END
>  <minimizedAffinity>
-4.28345013

$$$$
