REMARK  Name = 
REMARK  4 active torsions:
REMARK  status: ('A' for Active; 'I' for Inactive)
REMARK    1  A    between atoms: C_1  and  C_8
REMARK    2  A    between atoms: C_3  and  N_12
REMARK    3  A    between atoms: C_10  and  C_13
REMARK    4  A    between atoms: C_17  and  C_30
REMARK                            x       y       z     vdW  Elec       q    Type
REMARK                         _______ _______ _______ _____ _____    ______ ____
ROOT
ATOM      1  C   UNL     1      38.388  31.849  44.513  0.00  0.00    +0.000 C 
ATOM      2  O   UNL     1      37.291  32.429  44.401  0.00  0.00    +0.000 OA
ATOM      3  N   UNL     1      38.945  31.559  45.820  0.00  0.00    +0.000 N 
ATOM      4  H   UNL     1      39.922  31.249  45.987  0.00  0.00    +0.000 HD
ENDROOT
BRANCH   1   5
ATOM      5  C   UNL     1      39.183  31.423  43.333  0.00  0.00    +0.000 A 
ATOM      6  C   UNL     1      40.148  30.465  43.490  0.00  0.00    +0.000 A 
ATOM      7  C   UNL     1      40.868  30.116  42.357  0.00  0.00    +0.000 A 
ATOM      8  C   UNL     1      40.582  30.734  41.169  0.00  0.00    +0.000 A 
ATOM      9  C   UNL     1      39.606  31.700  41.014  0.00  0.00    +0.000 A 
ATOM     10  N   UNL     1      38.951  31.990  42.140  0.00  0.00    +0.000 NA
ATOM     11  H   UNL     1      40.359  29.989  44.438  0.00  0.00    +0.000 HD
ATOM     12  H   UNL     1      41.654  29.371  42.367  0.00  0.00    +0.000 HD
ATOM     13  H   UNL     1      41.153  30.457  40.269  0.00  0.00    +0.000 HD
BRANCH   9  14
ATOM     14  C   UNL     1      39.275  32.376  39.768  0.00  0.00    +0.000 A 
ATOM     15  C   UNL     1      38.499  33.537  39.846  0.00  0.00    +0.000 A 
ATOM     16  H   UNL     1      38.008  34.162  40.663  0.00  0.00    +0.000 HD
ATOM     17  S   UNL     1      38.322  34.060  38.040  0.00  0.00    +0.000 S 
ATOM     18  C   UNL     1      39.366  32.554  37.544  0.00  0.00    +0.000 A 
ATOM     19  H   UNL     1      39.789  32.058  36.527  0.00  0.00    +0.000 HD
ATOM     20  N   UNL     1      39.592  32.074  38.529  0.00  0.00    +0.000 NA
ENDBRANCH   9  14
ENDBRANCH   1   5
BRANCH   3  23
ATOM     21  C   UNL     1      38.433  31.114  48.217  0.00  0.00    +0.000 C 
ATOM     22  C   UNL     1      38.675  32.561  48.100  0.00  0.00    +0.000 C 
ATOM     23  C   UNL     1      38.058  31.719  46.961  0.00  0.00    +0.000 C 
ATOM     24  H   UNL     1      39.352  30.500  48.302  0.00  0.00    +0.000 HD
ATOM     25  H   UNL     1      39.712  32.915  47.965  0.00  0.00    +0.000 HD
ATOM     26  H   UNL     1      38.025  33.296  48.610  0.00  0.00    +0.000 HD
ATOM     27  H   UNL     1      37.002  32.021  46.754  0.00  0.00    +0.000 HD
BRANCH  21  32
ATOM     28  C   UNL     1      35.090  30.225  49.554  0.00  0.00    +0.000 A 
ATOM     29  C   UNL     1      35.419  29.547  50.763  0.00  0.00    +0.000 A 
ATOM     30  C   UNL     1      36.820  29.417  51.098  0.00  0.00    +0.000 A 
ATOM     31  N   UNL     1      37.753  29.941  50.254  0.00  0.00    +0.000 NA
ATOM     32  C   UNL     1      37.357  30.576  49.116  0.00  0.00    +0.000 A 
ATOM     33  N   UNL     1      36.039  30.735  48.737  0.00  0.00    +0.000 NA
ATOM     34  H   UNL     1      34.035  30.296  49.350  0.00  0.00    +0.000 HD
ATOM     35  H   UNL     1      34.656  29.150  51.398  0.00  0.00    +0.000 HD
ATOM     36  H   UNL     1      37.079  28.906  52.010  0.00  0.00    +0.000 HD
ENDBRANCH  21  32
ENDBRANCH   3  23
TORSDOF 4
