REMARK  Name = 
REMARK  4 active torsions:
REMARK  status: ('A' for Active; 'I' for Inactive)
REMARK    1  A    between atoms: C_3  and  C_12
REMARK    2  A    between atoms: C_7  and  S_14
REMARK    3  A    between atoms: S_14  and  C_17
REMARK    4  A    between atoms: C_21  and  C_31
REMARK                            x       y       z     vdW  Elec       q    Type
REMARK                         _______ _______ _______ _____ _____    ______ ____
ROOT
ATOM      1 CL   UNL     1      36.390  30.903  45.697  0.00  0.00    +0.000 Cl
ATOM      2  C   UNL     1      36.677  30.759  47.407  0.00  0.00    +0.000 A 
ATOM      3  C   UNL     1      37.939  31.083  47.868  0.00  0.00    +0.000 A 
ATOM      4  C   UNL     1      38.177  30.971  49.222  0.00  0.00    +0.000 A 
ATOM      5  C   UNL     1      37.176  30.549  50.065  0.00  0.00    +0.000 A 
ATOM      6  C   UNL     1      35.920  30.237  49.535  0.00  0.00    +0.000 A 
ATOM      7  C   UNL     1      35.621  30.327  48.201  0.00  0.00    +0.000 A 
ATOM      8  H   UNL     1      39.144  31.216  49.601  0.00  0.00    +0.000 HD
ATOM      9  H   UNL     1      37.367  30.464  51.125  0.00  0.00    +0.000 HD
ATOM     10  H   UNL     1      35.158  29.909  50.228  0.00  0.00    +0.000 HD
ENDROOT
BRANCH   3  15
ATOM     11  C   UNL     1      40.203  33.312  46.084  0.00  0.00    +0.000 A 
ATOM     12  C   UNL     1      40.915  32.453  45.211  0.00  0.00    +0.000 A 
ATOM     13  C   UNL     1      40.593  31.096  45.257  0.00  0.00    +0.000 A 
ATOM     14  N   UNL     1      39.627  30.676  46.124  0.00  0.00    +0.000 NA
ATOM     15  C   UNL     1      38.983  31.531  46.929  0.00  0.00    +0.000 A 
ATOM     16  N   UNL     1      39.274  32.825  46.901  0.00  0.00    +0.000 NA
ATOM     17  H   UNL     1      40.482  34.361  46.019  0.00  0.00    +0.000 HD
ATOM     18  H   UNL     1      41.676  32.734  44.517  0.00  0.00    +0.000 HD
ATOM     19  H   UNL     1      41.053  30.321  44.649  0.00  0.00    +0.000 HD
ENDBRANCH   3  15
BRANCH   7  20
ATOM     20  S   UNL     1      34.052  29.942  47.505  0.00  0.00    +0.000 S 
BRANCH  20  23
ATOM     21 CL   UNL     1      33.751  29.180  44.475  0.00  0.00    +0.000 Cl
ATOM     22  C   UNL     1      33.784  27.949  45.736  0.00  0.00    +0.000 A 
ATOM     23  C   UNL     1      33.913  28.202  47.095  0.00  0.00    +0.000 A 
ATOM     24  C   UNL     1      33.921  27.142  47.962  0.00  0.00    +0.000 A 
ATOM     25  C   UNL     1      33.807  25.858  47.539  0.00  0.00    +0.000 A 
ATOM     26  C   UNL     1      33.677  25.569  46.185  0.00  0.00    +0.000 A 
ATOM     27  C   UNL     1      33.667  26.633  45.291  0.00  0.00    +0.000 A 
ATOM     28  H   UNL     1      34.025  27.442  48.995  0.00  0.00    +0.000 HD
ATOM     29  H   UNL     1      33.822  25.081  48.290  0.00  0.00    +0.000 HD
ATOM     30  H   UNL     1      33.590  24.532  45.895  0.00  0.00    +0.000 HD
BRANCH  27  31
ATOM     31  C   UNL     1      33.528  26.317  43.840  0.00  0.00    +0.000 A 
ATOM     32  C   UNL     1      34.443  25.532  43.178  0.00  0.00    +0.000 A 
ATOM     33  H   UNL     1      35.344  25.039  43.521  0.00  0.00    +0.000 HD
ATOM     34  S   UNL     1      33.774  25.488  41.462  0.00  0.00    +0.000 S 
ATOM     35  C   UNL     1      32.321  26.582  41.967  0.00  0.00    +0.000 A 
ATOM     36  H   UNL     1      31.484  26.957  41.354  0.00  0.00    +0.000 HD
ATOM     37  N   UNL     1      32.541  26.752  43.090  0.00  0.00    +0.000 NA
ENDBRANCH  27  31
ENDBRANCH  20  23
ENDBRANCH   7  20
TORSDOF 4
