
 OpenBabel03272508123D

 32 34  0  0  0  0  0  0  0  0999 V2000
   36.6060   29.4870   44.0630 Cl  0  0  0  0  0  0  0  0  0  0  0  0
   38.2580   29.8450   43.4940 C   0  0  0  0  0  0  0  0  0  0  0  0
   39.2660   30.3080   44.3220 C   0  0  0  0  0  0  0  0  0  0  0  0
   40.4910   30.5400   43.7350 C   0  0  0  0  0  0  0  0  0  0  0  0
   40.7190   30.3310   42.4010 C   0  0  0  0  0  0  0  0  0  0  0  0
   39.7290   29.8790   41.5940 C   0  0  0  0  0  0  0  0  0  0  0  0
   38.4770   29.6270   42.1260 C   0  0  0  0  0  0  0  0  0  0  0  0
   41.2360   30.8980   44.4300 H   0  0  0  0  0  0  0  0  0  0  0  0
   41.7190   30.5480   42.0540 H   0  0  0  0  0  0  0  0  0  0  0  0
   39.9280   29.7210   40.5470 H   0  0  0  0  0  0  0  0  0  0  0  0
   37.3720   29.1310   41.2680 C   0  0  0  0  0  0  0  0  0  0  0  0
   36.5900   30.0360   40.5580 C   0  0  0  0  0  0  0  0  0  0  0  0
   36.5810   31.1320   40.4620 H   0  0  0  0  0  0  0  0  0  0  0  0
   35.3700   28.9030   39.6600 S   0  0  0  0  0  0  0  0  0  0  0  0
   36.2070   27.4030   40.4610 C   0  0  0  0  0  0  0  0  0  0  0  0
   36.0650   26.2160   40.4440 H   0  0  0  0  0  0  0  0  0  0  0  0
   37.0190   27.8680   41.0830 N   0  0  0  0  0  0  0  0  0  0  0  0
   38.8590   30.4570   45.6180 O   0  0  0  0  0  0  0  0  0  0  0  0
   39.4440   32.4780   47.1110 O   0  0  0  0  0  0  0  0  0  0  0  0
   38.3050   31.8260   46.4120 P   0  0  1  0  0  0  0  0  0  0  0  0
   37.7290   32.8480   45.1710 O   0  0  0  0  0  0  0  0  0  0  0  0
   38.5220   33.3040   44.7650 H   0  0  0  0  0  0  0  0  0  0  0  0
   37.0230   31.3990   47.4350 O   0  0  0  0  0  0  0  0  0  0  0  0
   37.6130   30.5330   50.9770 C   0  0  0  0  0  0  0  0  0  0  0  0
   37.7070   31.3030   49.8170 C   0  0  0  0  0  0  0  0  0  0  0  0
   37.0710   30.8340   48.6610 C   0  0  0  0  0  0  0  0  0  0  0  0
   36.3940   29.6500   48.7380 N   0  0  0  0  0  0  0  0  0  0  0  0
   36.3250   28.9340   49.8780 C   0  0  0  0  0  0  0  0  0  0  0  0
   36.9330   29.3760   50.9930 N   0  0  0  0  0  0  0  0  0  0  0  0
   38.1330   30.9850   51.7930 H   0  0  0  0  0  0  0  0  0  0  0  0
   38.2130   32.2280   49.6840 H   0  0  0  0  0  0  0  0  0  0  0  0
   35.7880   27.9950   49.9380 H   0  0  0  0  0  0  0  0  0  0  0  0
  2  1  1  0  0  0  0
  2  3  1  0  0  0  0
  3 18  1  0  0  0  0
  4  3  2  0  0  0  0
  4  8  1  0  0  0  0
  5  4  1  0  0  0  0
  6  7  1  0  0  0  0
  6  5  2  0  0  0  0
  7  2  2  0  0  0  0
  9  5  1  0  0  0  0
 10  6  1  0  0  0  0
 11  7  1  0  0  0  0
 12 11  2  0  0  0  0
 13 12  1  0  0  0  0
 14 15  1  0  0  0  0
 14 12  1  0  0  0  0
 15 17  2  0  0  0  0
 16 15  1  0  0  0  0
 17 11  1  0  0  0  0
 18 20  1  0  0  0  0
 20 19  2  1  0  0  0
 20 23  1  0  0  0  0
 21 20  1  0  0  0  0
 22 21  1  0  0  0  0
 23 26  1  0  0  0  0
 24 29  1  0  0  0  0
 24 30  1  0  0  0  0
 25 24  2  0  0  0  0
 26 27  2  0  0  0  0
 26 25  1  0  0  0  0
 27 28  1  0  0  0  0
 28 32  1  0  0  0  0
 28 29  2  0  0  0  0
 31 25  1  0  0  0  0
M  END
>  <minimizedAffinity>
-4.80373096

>  <minimizedRMSD>
0.189285934

$$$$
