
 OpenBabel03272506563D

 18 19  0  0  0  0  0  0  0  0999 V2000
   38.5150   23.3860   37.5310 C   0  0  0  0  0  0  0  0  0  0  0  0
   39.7600   22.8560   37.1460 C   0  0  0  0  0  0  0  0  0  0  0  0
   40.3070   23.3680   35.9550 C   0  0  0  0  0  0  0  0  0  0  0  0
   39.6330   24.3140   35.2630 N   0  0  0  0  0  0  0  0  0  0  0  0
   38.4320   24.7950   35.6740 C   0  0  0  0  0  0  0  0  0  0  0  0
   37.8610   24.3290   36.8240 N   0  0  0  0  0  0  0  0  0  0  0  0
   38.0440   23.0390   38.4270 H   0  0  0  0  0  0  0  0  0  0  0  0
   41.2630   22.9760   35.6380 H   0  0  0  0  0  0  0  0  0  0  0  0
   37.7880   25.8160   34.8530 C   0  0  0  0  0  0  0  0  0  0  0  0
   37.6600   25.5450   33.4290 C   0  0  0  0  0  0  0  0  0  0  0  0
   37.9760   24.6890   32.8900 H   0  0  0  0  0  0  0  0  0  0  0  0
   36.8150   27.0450   32.7880 S   0  0  0  0  0  0  0  0  0  0  0  0
   36.7770   27.7850   34.5400 C   0  0  0  0  0  0  0  0  0  0  0  0
   36.3970   28.7810   35.1100 H   0  0  0  0  0  0  0  0  0  0  0  0
   37.2810   26.9860   35.1860 N   0  0  0  0  0  0  0  0  0  0  0  0
   40.3950   21.8660   37.9350 N   0  0  0  0  0  0  0  0  0  0  0  0
   39.8460   21.0210   37.6510 H   0  0  0  0  0  0  0  0  0  0  0  0
   41.1820   22.1280   38.5660 H   0  0  0  0  0  0  0  0  0  0  0  0
  1  7  1  0  0  0  0
  2  1  1  0  0  0  0
  2 16  1  0  0  0  0
  3  2  2  0  0  0  0
  4  5  2  0  0  0  0
  4  3  1  0  0  0  0
  5  6  1  0  0  0  0
  6  1  2  0  0  0  0
  8  3  1  0  0  0  0
  9 15  1  0  0  0  0
  9  5  1  0  0  0  0
 10  9  2  0  0  0  0
 11 10  1  0  0  0  0
 12 10  1  0  0  0  0
 12 13  1  0  0  0  0
 13 14  1  0  0  0  0
 13 15  2  0  0  0  0
 16 18  1  0  0  0  0
 17 16  1  0  0  0  0
M  END
>  <minimizedAffinity>
-3.96552491

$$$$

 OpenBabel03272506563D

 18 19  0  0  0  0  0  0  0  0999 V2000
   40.3120   23.3240   35.9680 C   0  0  0  0  0  0  0  0  0  0  0  0
   39.7420   22.8520   37.1660 C   0  0  0  0  0  0  0  0  0  0  0  0
   38.5070   23.4230   37.5280 C   0  0  0  0  0  0  0  0  0  0  0  0
   37.9480   24.3630   36.7340 N   0  0  0  0  0  0  0  0  0  0  0  0
   38.5360   24.7870   35.5870 C   0  0  0  0  0  0  0  0  0  0  0  0
   39.7340   24.2630   35.1930 N   0  0  0  0  0  0  0  0  0  0  0  0
   41.2500   22.9310   35.6360 H   0  0  0  0  0  0  0  0  0  0  0  0
   38.0500   23.0760   38.4440 H   0  0  0  0  0  0  0  0  0  0  0  0
   37.8470   25.8080   34.8020 C   0  0  0  0  0  0  0  0  0  0  0  0
   37.7090   25.5710   33.3730 C   0  0  0  0  0  0  0  0  0  0  0  0
   38.0460   24.7420   32.8060 H   0  0  0  0  0  0  0  0  0  0  0  0
   36.8070   27.0590   32.7840 S   0  0  0  0  0  0  0  0  0  0  0  0
   36.7680   27.7490   34.5560 C   0  0  0  0  0  0  0  0  0  0  0  0
   36.3630   28.7170   35.1580 H   0  0  0  0  0  0  0  0  0  0  0  0
   37.3070   26.9510   35.1740 N   0  0  0  0  0  0  0  0  0  0  0  0
   40.4010   21.8620   37.9340 N   0  0  0  0  0  0  0  0  0  0  0  0
   41.1300   22.4470   38.4060 H   0  0  0  0  0  0  0  0  0  0  0  0
   40.0820   20.8710   37.8910 H   0  0  0  0  0  0  0  0  0  0  0  0
  1  2  1  0  0  0  0
  2  3  2  0  0  0  0
  2 16  1  0  0  0  0
  3  8  1  0  0  0  0
  4  3  1  0  0  0  0
  5  4  2  0  0  0  0
  6  5  1  0  0  0  0
  6  1  2  0  0  0  0
  7  1  1  0  0  0  0
  9 15  1  0  0  0  0
  9  5  1  0  0  0  0
 10  9  2  0  0  0  0
 11 10  1  0  0  0  0
 12 10  1  0  0  0  0
 12 13  1  0  0  0  0
 13 14  1  0  0  0  0
 13 15  2  0  0  0  0
 16 17  1  0  0  0  0
 18 16  1  0  0  0  0
M  END
>  <minimizedAffinity>
-3.91681242

$$$$

 OpenBabel03272506563D

 18 19  0  0  0  0  0  0  0  0999 V2000
   38.0950   24.5330   37.3290 C   0  0  0  0  0  0  0  0  0  0  0  0
   38.7590   23.3020   37.4880 C   0  0  0  0  0  0  0  0  0  0  0  0
   39.1120   22.6330   36.3020 C   0  0  0  0  0  0  0  0  0  0  0  0
   38.8080   23.1880   35.1070 N   0  0  0  0  0  0  0  0  0  0  0  0
   38.1650   24.3790   35.0030 C   0  0  0  0  0  0  0  0  0  0  0  0
   37.8020   25.0660   36.1260 N   0  0  0  0  0  0  0  0  0  0  0  0
   37.7990   25.0920   38.1920 H   0  0  0  0  0  0  0  0  0  0  0  0
   39.6230   21.6860   36.3990 H   0  0  0  0  0  0  0  0  0  0  0  0
   37.8840   24.8890   33.6640 C   0  0  0  0  0  0  0  0  0  0  0  0
   38.5520   24.2370   32.5470 C   0  0  0  0  0  0  0  0  0  0  0  0
   39.2300   23.4240   32.5680 H   0  0  0  0  0  0  0  0  0  0  0  0
   37.9340   25.1650   31.0870 S   0  0  0  0  0  0  0  0  0  0  0  0
   36.8840   26.2730   32.2220 C   0  0  0  0  0  0  0  0  0  0  0  0
   36.1150   27.2030   32.1440 H   0  0  0  0  0  0  0  0  0  0  0  0
   37.1020   25.8750   33.2720 N   0  0  0  0  0  0  0  0  0  0  0  0
   39.0370   22.7980   38.7820 N   0  0  0  0  0  0  0  0  0  0  0  0
   38.0950   22.4260   39.0440 H   0  0  0  0  0  0  0  0  0  0  0  0
   39.9980   22.8810   39.1780 H   0  0  0  0  0  0  0  0  0  0  0  0
  1  2  1  0  0  0  0
  1  7  1  0  0  0  0
  2 16  1  0  0  0  0
  3  8  1  0  0  0  0
  3  2  2  0  0  0  0
  4  3  1  0  0  0  0
  5  4  2  0  0  0  0
  5  6  1  0  0  0  0
  6  1  2  0  0  0  0
  9  5  1  0  0  0  0
 10 11  1  0  0  0  0
 10  9  2  0  0  0  0
 12 13  1  0  0  0  0
 12 10  1  0  0  0  0
 13 15  2  0  0  0  0
 14 13  1  0  0  0  0
 15  9  1  0  0  0  0
 16 17  1  0  0  0  0
 16 18  1  0  0  0  0
M  END
>  <minimizedAffinity>
-3.68795633

$$$$

 OpenBabel03272506563D

 18 19  0  0  0  0  0  0  0  0999 V2000
   39.0310   22.7830   36.2110 C   0  0  0  0  0  0  0  0  0  0  0  0
   38.7120   23.3520   37.4590 C   0  0  0  0  0  0  0  0  0  0  0  0
   38.0630   24.5990   37.4210 C   0  0  0  0  0  0  0  0  0  0  0  0
   37.7870   25.1720   36.2280 N   0  0  0  0  0  0  0  0  0  0  0  0
   38.1140   24.5860   35.0490 C   0  0  0  0  0  0  0  0  0  0  0  0
   38.7450   23.3740   35.0340 N   0  0  0  0  0  0  0  0  0  0  0  0
   39.5260   21.8360   36.1700 H   0  0  0  0  0  0  0  0  0  0  0  0
   37.8080   25.0560   38.3670 H   0  0  0  0  0  0  0  0  0  0  0  0
   37.7700   25.2890   33.8160 C   0  0  0  0  0  0  0  0  0  0  0  0
   37.1880   26.6170   33.9460 C   0  0  0  0  0  0  0  0  0  0  0  0
   36.9730   27.1590   34.8300 H   0  0  0  0  0  0  0  0  0  0  0  0
   36.9140   27.1290   32.2030 S   0  0  0  0  0  0  0  0  0  0  0  0
   37.6260   25.4740   31.5930 C   0  0  0  0  0  0  0  0  0  0  0  0
   37.8520   24.8960   30.5560 H   0  0  0  0  0  0  0  0  0  0  0  0
   37.8980   24.9200   32.5580 N   0  0  0  0  0  0  0  0  0  0  0  0
   39.0410   22.6770   38.6600 N   0  0  0  0  0  0  0  0  0  0  0  0
   40.0630   22.8950   38.7220 H   0  0  0  0  0  0  0  0  0  0  0  0
   38.3040   22.1610   39.1860 H   0  0  0  0  0  0  0  0  0  0  0  0
  1  2  1  0  0  0  0
  2 16  1  0  0  0  0
  3  2  2  0  0  0  0
  3  8  1  0  0  0  0
  4  3  1  0  0  0  0
  5  4  2  0  0  0  0
  6  5  1  0  0  0  0
  6  1  2  0  0  0  0
  7  1  1  0  0  0  0
  9 10  2  0  0  0  0
  9  5  1  0  0  0  0
 10 11  1  0  0  0  0
 12 10  1  0  0  0  0
 13 12  1  0  0  0  0
 13 15  2  0  0  0  0
 14 13  1  0  0  0  0
 15  9  1  0  0  0  0
 16 17  1  0  0  0  0
 16 18  1  0  0  0  0
M  END
>  <minimizedAffinity>
-3.63723373

$$$$

 OpenBabel03272506563D

 18 19  0  0  0  0  0  0  0  0999 V2000
   37.4990   25.5690   33.0810 C   0  0  0  0  0  0  0  0  0  0  0  0
   36.9950   26.8340   33.4370 C   0  0  0  0  0  0  0  0  0  0  0  0
   37.1020   27.1800   34.7970 C   0  0  0  0  0  0  0  0  0  0  0  0
   37.6650   26.3100   35.6640 N   0  0  0  0  0  0  0  0  0  0  0  0
   38.1380   25.0990   35.2750 C   0  0  0  0  0  0  0  0  0  0  0  0
   38.0560   24.7180   33.9650 N   0  0  0  0  0  0  0  0  0  0  0  0
   37.4480   25.2450   32.0630 H   0  0  0  0  0  0  0  0  0  0  0  0
   36.7220   28.1470   35.0950 H   0  0  0  0  0  0  0  0  0  0  0  0
   38.7270   24.2350   36.2930 C   0  0  0  0  0  0  0  0  0  0  0  0
   39.9360   23.5080   35.9340 C   0  0  0  0  0  0  0  0  0  0  0  0
   40.4620   23.5180   35.0140 H   0  0  0  0  0  0  0  0  0  0  0  0
   40.3320   22.5670   37.4610 S   0  0  0  0  0  0  0  0  0  0  0  0
   38.8070   23.3070   38.3250 C   0  0  0  0  0  0  0  0  0  0  0  0
   38.2430   23.2620   39.3930 H   0  0  0  0  0  0  0  0  0  0  0  0
   38.3430   23.9860   37.5290 N   0  0  0  0  0  0  0  0  0  0  0  0
   36.4220   27.6810   32.4580 N   0  0  0  0  0  0  0  0  0  0  0  0
   35.4800   27.2350   32.3550 H   0  0  0  0  0  0  0  0  0  0  0  0
   36.9700   28.4800   32.0740 H   0  0  0  0  0  0  0  0  0  0  0  0
  1  2  2  0  0  0  0
  1  6  1  0  0  0  0
  2  3  1  0  0  0  0
  3  8  1  0  0  0  0
  3  4  2  0  0  0  0
  5  4  1  0  0  0  0
  5  9  1  0  0  0  0
  6  5  2  0  0  0  0
  7  1  1  0  0  0  0
  9 15  1  0  0  0  0
 10  9  2  0  0  0  0
 10 12  1  0  0  0  0
 11 10  1  0  0  0  0
 12 13  1  0  0  0  0
 13 14  1  0  0  0  0
 15 13  2  0  0  0  0
 16  2  1  0  0  0  0
 17 16  1  0  0  0  0
 18 16  1  0  0  0  0
M  END
>  <minimizedAffinity>
-3.50653315

$$$$

 OpenBabel03272506563D

 18 19  0  0  0  0  0  0  0  0999 V2000
   37.8910   27.7190   31.6890 C   0  0  0  0  0  0  0  0  0  0  0  0
   36.8730   27.3080   30.8070 C   0  0  0  0  0  0  0  0  0  0  0  0
   36.1880   26.1310   31.1610 C   0  0  0  0  0  0  0  0  0  0  0  0
   36.5280   25.4760   32.2930 N   0  0  0  0  0  0  0  0  0  0  0  0
   37.5170   25.9100   33.1140 C   0  0  0  0  0  0  0  0  0  0  0  0
   38.2120   27.0470   32.8120 N   0  0  0  0  0  0  0  0  0  0  0  0
   38.4510   28.6050   31.4770 H   0  0  0  0  0  0  0  0  0  0  0  0
   35.4020   25.7960   30.4990 H   0  0  0  0  0  0  0  0  0  0  0  0
   37.8050   25.1270   34.3120 C   0  0  0  0  0  0  0  0  0  0  0  0
   37.7120   25.8090   35.5940 C   0  0  0  0  0  0  0  0  0  0  0  0
   37.4580   26.8200   35.7860 H   0  0  0  0  0  0  0  0  0  0  0  0
   38.1400   24.4950   36.8040 S   0  0  0  0  0  0  0  0  0  0  0  0
   38.3740   23.2500   35.3850 C   0  0  0  0  0  0  0  0  0  0  0  0
   38.6690   22.0890   35.2180 H   0  0  0  0  0  0  0  0  0  0  0  0
   38.1480   23.8610   34.4430 N   0  0  0  0  0  0  0  0  0  0  0  0
   36.5860   28.0600   29.6420 N   0  0  0  0  0  0  0  0  0  0  0  0
   37.3710   27.7510   29.0220 H   0  0  0  0  0  0  0  0  0  0  0  0
   35.7590   28.6950   29.6220 H   0  0  0  0  0  0  0  0  0  0  0  0
  1  6  1  0  0  0  0
  2  3  1  0  0  0  0
  2  1  2  0  0  0  0
  3  4  2  0  0  0  0
  4  5  1  0  0  0  0
  5  9  1  0  0  0  0
  6  5  2  0  0  0  0
  7  1  1  0  0  0  0
  8  3  1  0  0  0  0
  9 15  1  0  0  0  0
  9 10  2  0  0  0  0
 10 11  1  0  0  0  0
 10 12  1  0  0  0  0
 13 12  1  0  0  0  0
 14 13  1  0  0  0  0
 15 13  2  0  0  0  0
 16  2  1  0  0  0  0
 17 16  1  0  0  0  0
 18 16  1  0  0  0  0
M  END
>  <minimizedAffinity>
-3.4408083

$$$$

 OpenBabel03272506563D

 18 19  0  0  0  0  0  0  0  0999 V2000
   36.0060   20.9590   33.4710 C   0  0  0  0  0  0  0  0  0  0  0  0
   36.2820   21.6860   32.2970 C   0  0  0  0  0  0  0  0  0  0  0  0
   37.2570   22.6940   32.4110 C   0  0  0  0  0  0  0  0  0  0  0  0
   37.8610   22.9070   33.6010 N   0  0  0  0  0  0  0  0  0  0  0  0
   37.5610   22.1800   34.7070 C   0  0  0  0  0  0  0  0  0  0  0  0
   36.6220   21.1910   34.6470 N   0  0  0  0  0  0  0  0  0  0  0  0
   35.2740   20.1790   33.4520 H   0  0  0  0  0  0  0  0  0  0  0  0
   37.4860   23.2660   31.5230 H   0  0  0  0  0  0  0  0  0  0  0  0
   38.2720   22.4920   35.9440 C   0  0  0  0  0  0  0  0  0  0  0  0
   37.5280   23.1810   36.9870 C   0  0  0  0  0  0  0  0  0  0  0  0
   36.5160   23.4970   36.9760 H   0  0  0  0  0  0  0  0  0  0  0  0
   38.7650   23.3740   38.3310 S   0  0  0  0  0  0  0  0  0  0  0  0
   40.0750   22.4980   37.2660 C   0  0  0  0  0  0  0  0  0  0  0  0
   41.2330   22.1580   37.3270 H   0  0  0  0  0  0  0  0  0  0  0  0
   39.5200   22.2510   36.2960 N   0  0  0  0  0  0  0  0  0  0  0  0
   35.5980   21.3910   31.0920 N   0  0  0  0  0  0  0  0  0  0  0  0
   34.6830   21.8640   31.2770 H   0  0  0  0  0  0  0  0  0  0  0  0
   36.0700   20.8340   30.3480 H   0  0  0  0  0  0  0  0  0  0  0  0
  1  6  1  0  0  0  0
  2  3  1  0  0  0  0
  2  1  2  0  0  0  0
  3  4  2  0  0  0  0
  4  5  1  0  0  0  0
  5  9  1  0  0  0  0
  6  5  2  0  0  0  0
  7  1  1  0  0  0  0
  8  3  1  0  0  0  0
  9 15  1  0  0  0  0
  9 10  2  0  0  0  0
 10 12  1  0  0  0  0
 11 10  1  0  0  0  0
 13 14  1  0  0  0  0
 13 12  1  0  0  0  0
 15 13  2  0  0  0  0
 16 17  1  0  0  0  0
 16  2  1  0  0  0  0
 18 16  1  0  0  0  0
M  END
>  <minimizedAffinity>
-3.37655759

$$$$

 OpenBabel03272506563D

 18 19  0  0  0  0  0  0  0  0999 V2000
   34.8420   20.4170   32.1540 C   0  0  0  0  0  0  0  0  0  0  0  0
   35.7290   19.5350   31.5070 C   0  0  0  0  0  0  0  0  0  0  0  0
   36.7830   20.1340   30.7930 C   0  0  0  0  0  0  0  0  0  0  0  0
   36.8890   21.4810   30.7650 N   0  0  0  0  0  0  0  0  0  0  0  0
   36.0080   22.2920   31.4040 C   0  0  0  0  0  0  0  0  0  0  0  0
   34.9690   21.7580   32.1110 N   0  0  0  0  0  0  0  0  0  0  0  0
   34.0190   20.0250   32.7140 H   0  0  0  0  0  0  0  0  0  0  0  0
   37.4760   19.4770   30.2870 H   0  0  0  0  0  0  0  0  0  0  0  0
   36.2140   23.7350   31.3100 C   0  0  0  0  0  0  0  0  0  0  0  0
   37.5870   24.2170   31.3440 C   0  0  0  0  0  0  0  0  0  0  0  0
   38.4810   23.6550   31.4300 H   0  0  0  0  0  0  0  0  0  0  0  0
   37.3970   26.0390   31.2020 S   0  0  0  0  0  0  0  0  0  0  0  0
   35.5060   25.8460   31.1210 C   0  0  0  0  0  0  0  0  0  0  0  0
   34.5150   26.5320   31.0220 H   0  0  0  0  0  0  0  0  0  0  0  0
   35.3420   24.7160   31.1950 N   0  0  0  0  0  0  0  0  0  0  0  0
   35.5390   18.1340   31.5930 N   0  0  0  0  0  0  0  0  0  0  0  0
   34.7650   18.0080   30.8990 H   0  0  0  0  0  0  0  0  0  0  0  0
   36.1250   17.5680   32.2430 H   0  0  0  0  0  0  0  0  0  0  0  0
  1  7  1  0  0  0  0
  2 16  1  0  0  0  0
  2  1  2  0  0  0  0
  3  2  1  0  0  0  0
  4  3  2  0  0  0  0
  4  5  1  0  0  0  0
  5  6  2  0  0  0  0
  6  1  1  0  0  0  0
  8  3  1  0  0  0  0
  9 10  2  0  0  0  0
  9  5  1  0  0  0  0
 10 11  1  0  0  0  0
 12 10  1  0  0  0  0
 13 15  2  0  0  0  0
 13 12  1  0  0  0  0
 14 13  1  0  0  0  0
 15  9  1  0  0  0  0
 16 18  1  0  0  0  0
 17 16  1  0  0  0  0
M  END
>  <minimizedAffinity>
-3.33781338

$$$$

 OpenBabel03272506563D

 18 19  0  0  0  0  0  0  0  0999 V2000
   37.4240   23.9500   32.3250 C   0  0  0  0  0  0  0  0  0  0  0  0
   37.0880   25.3020   32.1270 C   0  0  0  0  0  0  0  0  0  0  0  0
   37.2570   26.1490   33.2380 C   0  0  0  0  0  0  0  0  0  0  0  0
   37.7180   25.6390   34.4010 N   0  0  0  0  0  0  0  0  0  0  0  0
   38.0290   24.3260   34.5460 C   0  0  0  0  0  0  0  0  0  0  0  0
   37.8820   23.4650   33.4960 N   0  0  0  0  0  0  0  0  0  0  0  0
   37.3180   23.2530   31.5200 H   0  0  0  0  0  0  0  0  0  0  0  0
   37.0050   27.1930   33.1090 H   0  0  0  0  0  0  0  0  0  0  0  0
   38.5190   23.8790   35.8460 C   0  0  0  0  0  0  0  0  0  0  0  0
   39.7180   23.0540   35.8600 C   0  0  0  0  0  0  0  0  0  0  0  0
   40.3010   22.7250   35.0390 H   0  0  0  0  0  0  0  0  0  0  0  0
   39.9810   22.7220   37.6480 S   0  0  0  0  0  0  0  0  0  0  0  0
   38.4350   23.7440   38.0760 C   0  0  0  0  0  0  0  0  0  0  0  0
   37.8030   24.0950   39.0450 H   0  0  0  0  0  0  0  0  0  0  0  0
   38.0480   24.0970   37.0580 N   0  0  0  0  0  0  0  0  0  0  0  0
   36.6120   25.7470   30.8690 N   0  0  0  0  0  0  0  0  0  0  0  0
   35.6210   25.4160   30.9170 H   0  0  0  0  0  0  0  0  0  0  0  0
   37.2510   26.2530   30.2190 H   0  0  0  0  0  0  0  0  0  0  0  0
  1  6  1  0  0  0  0
  2  1  2  0  0  0  0
  2  3  1  0  0  0  0
  3  4  2  0  0  0  0
  4  5  1  0  0  0  0
  5  9  1  0  0  0  0
  6  5  2  0  0  0  0
  7  1  1  0  0  0  0
  8  3  1  0  0  0  0
  9 10  2  0  0  0  0
  9 15  1  0  0  0  0
 10 12  1  0  0  0  0
 11 10  1  0  0  0  0
 12 13  1  0  0  0  0
 13 14  1  0  0  0  0
 15 13  2  0  0  0  0
 16 17  1  0  0  0  0
 16  2  1  0  0  0  0
 18 16  1  0  0  0  0
M  END
>  <minimizedAffinity>
-3.30716538

$$$$
