
 OpenBabel03262523393D

 43 46  0  0  1  0  0  0  0  0999 V2000
   38.6840   26.3910   35.5800 C   0  0  2  0  0  0  0  0  0  0  0  0
   37.5010   26.4910   34.6790 C   0  0  0  0  0  0  0  0  0  0  0  0
   37.8070   26.0560   33.2460 C   0  0  2  0  0  0  0  0  0  0  0  0
   38.8460   26.9810   32.6690 C   0  0  0  0  0  0  0  0  0  0  0  0
   40.0200   27.1770   33.6070 C   0  0  0  0  0  0  0  0  0  0  0  0
   39.9610   26.2360   34.7840 C   0  0  0  0  0  0  0  0  0  0  0  0
   38.8400   27.2930   36.2370 H   0  0  0  0  0  0  0  0  0  0  0  0
   37.3380   27.6230   34.5600 H   0  0  0  0  0  0  0  0  0  0  0  0
   36.5610   26.1130   34.9620 H   0  0  0  0  0  0  0  0  0  0  0  0
   38.2820   25.0580   33.3380 H   0  0  0  0  0  0  0  0  0  0  0  0
   39.2240   26.5750   31.7070 H   0  0  0  0  0  0  0  0  0  0  0  0
   38.3550   27.9590   32.4540 H   0  0  0  0  0  0  0  0  0  0  0  0
   40.9980   27.0840   33.1230 H   0  0  0  0  0  0  0  0  0  0  0  0
   40.0090   28.2120   34.0450 H   0  0  0  0  0  0  0  0  0  0  0  0
   40.8020   26.5000   35.4560 H   0  0  0  0  0  0  0  0  0  0  0  0
   40.1160   25.2020   34.4650 H   0  0  0  0  0  0  0  0  0  0  0  0
   36.5870   25.8950   32.4380 C   0  0  2  0  0  0  0  0  0  0  0  0
   36.3150   24.5210   31.8920 C   0  0  0  0  0  0  0  0  0  0  0  0
   35.1500   24.8950   30.9570 C   0  0  0  0  0  0  0  0  0  0  0  0
   35.4900   26.1070   30.4130 O   0  0  0  0  0  0  0  0  0  0  0  0
   36.4740   26.7020   31.1980 C   0  0  1  0  0  0  0  0  0  0  0  0
   35.7150   26.1490   33.0760 H   0  0  0  0  0  0  0  0  0  0  0  0
   35.9940   23.8070   32.6640 H   0  0  0  0  0  0  0  0  0  0  0  0
   37.1600   24.1800   31.2750 H   0  0  0  0  0  0  0  0  0  0  0  0
   34.9920   24.1040   30.1940 H   0  0  0  0  0  0  0  0  0  0  0  0
   34.2340   25.0010   31.5990 H   0  0  0  0  0  0  0  0  0  0  0  0
   37.3470   26.7630   30.5500 H   0  0  0  0  0  0  0  0  0  0  0  0
   35.9710   28.1020   31.4500 C   0  0  0  0  0  0  0  0  0  0  0  0
   36.3690   29.1700   30.6050 C   0  0  0  0  0  0  0  0  0  0  0  0
   37.0430   29.0650   29.7390 H   0  0  0  0  0  0  0  0  0  0  0  0
   35.5270   30.5740   31.3070 S   0  0  0  0  0  0  0  0  0  0  0  0
   34.7390   29.5150   32.6680 C   0  0  0  0  0  0  0  0  0  0  0  0
   34.0580   29.8120   33.4850 H   0  0  0  0  0  0  0  0  0  0  0  0
   35.1580   28.4380   32.4310 N   0  0  0  0  0  0  0  0  0  0  0  0
   38.6020   25.2460   36.5110 C   0  0  0  0  0  0  0  0  0  0  0  0
   39.2330   24.0780   36.0800 C   0  0  0  0  0  0  0  0  0  0  0  0
   39.2100   22.9760   36.9080 C   0  0  0  0  0  0  0  0  0  0  0  0
   38.5630   23.0710   38.1310 N   0  0  0  0  0  0  0  0  0  0  0  0
   37.9570   24.2270   38.5190 C   0  0  0  0  0  0  0  0  0  0  0  0
   37.9910   25.2740   37.7070 N   0  0  0  0  0  0  0  0  0  0  0  0
   39.7820   23.7270   35.2230 H   0  0  0  0  0  0  0  0  0  0  0  0
   39.5990   21.9860   36.8370 H   0  0  0  0  0  0  0  0  0  0  0  0
   37.4500   24.3150   39.4650 H   0  0  0  0  0  0  0  0  0  0  0  0
  1  7  1  1  0  0  0
  1 35  1  0  0  0  0
  2  9  1  0  0  0  0
  2  1  1  0  0  0  0
  3 10  1  1  0  0  0
  3  2  1  0  0  0  0
  4  3  1  0  0  0  0
  4  5  1  0  0  0  0
  5 14  1  0  0  0  0
  5  6  1  0  0  0  0
  6 15  1  0  0  0  0
  6  1  1  0  0  0  0
  8  2  1  0  0  0  0
 11  4  1  0  0  0  0
 12  4  1  0  0  0  0
 13  5  1  0  0  0  0
 16  6  1  0  0  0  0
 17 22  1  1  0  0  0
 17  3  1  0  0  0  0
 18 17  1  0  0  0  0
 18 23  1  0  0  0  0
 19 26  1  0  0  0  0
 19 18  1  0  0  0  0
 20 19  1  0  0  0  0
 20 21  1  0  0  0  0
 21 27  1  6  0  0  0
 21 28  1  0  0  0  0
 21 17  1  0  0  0  0
 24 18  1  0  0  0  0
 25 19  1  0  0  0  0
 28 34  1  0  0  0  0
 29 31  1  0  0  0  0
 29 28  2  0  0  0  0
 30 29  1  0  0  0  0
 31 32  1  0  0  0  0
 32 33  1  0  0  0  0
 34 32  2  0  0  0  0
 35 40  1  0  0  0  0
 36 35  2  0  0  0  0
 36 37  1  0  0  0  0
 37 38  2  0  0  0  0
 38 39  1  0  0  0  0
 39 43  1  0  0  0  0
 40 39  2  0  0  0  0
 41 36  1  0  0  0  0
 42 37  1  0  0  0  0
M  END
>  <minimizedAffinity>
-5.53399181

$$$$

 OpenBabel03262523393D

 43 46  0  0  1  0  0  0  0  0999 V2000
   39.5690   26.5610   35.2180 C   0  0  2  0  0  0  0  0  0  0  0  0
   38.6340   26.9560   34.1270 C   0  0  0  0  0  0  0  0  0  0  0  0
   39.1720   26.6260   32.7350 C   0  0  2  0  0  0  0  0  0  0  0  0
   40.4350   27.4150   32.5050 C   0  0  0  0  0  0  0  0  0  0  0  0
   41.3960   27.3080   33.6710 C   0  0  0  0  0  0  0  0  0  0  0  0
   40.9500   26.2740   34.6730 C   0  0  0  0  0  0  0  0  0  0  0  0
   39.7100   27.3490   36.0120 H   0  0  0  0  0  0  0  0  0  0  0  0
   38.6670   28.1050   34.1350 H   0  0  0  0  0  0  0  0  0  0  0  0
   37.6090   26.7160   34.1670 H   0  0  0  0  0  0  0  0  0  0  0  0
   39.4660   25.5580   32.7800 H   0  0  0  0  0  0  0  0  0  0  0  0
   40.9470   27.0530   31.5880 H   0  0  0  0  0  0  0  0  0  0  0  0
   40.1500   28.4800   32.3350 H   0  0  0  0  0  0  0  0  0  0  0  0
   42.4310   27.1000   33.3790 H   0  0  0  0  0  0  0  0  0  0  0  0
   41.4430   28.2780   34.2370 H   0  0  0  0  0  0  0  0  0  0  0  0
   41.6570   26.3170   35.5250 H   0  0  0  0  0  0  0  0  0  0  0  0
   41.0170   25.2680   34.2510 H   0  0  0  0  0  0  0  0  0  0  0  0
   38.1450   26.7610   31.6900 C   0  0  2  0  0  0  0  0  0  0  0  0
   37.9110   28.1430   31.1470 C   0  0  0  0  0  0  0  0  0  0  0  0
   36.6440   27.8330   30.3280 C   0  0  0  0  0  0  0  0  0  0  0  0
   35.9190   26.9540   31.0900 O   0  0  0  0  0  0  0  0  0  0  0  0
   36.7560   26.3720   32.0400 C   0  0  1  0  0  0  0  0  0  0  0  0
   38.4510   26.1390   30.8230 H   0  0  0  0  0  0  0  0  0  0  0  0
   38.7280   28.4960   30.5010 H   0  0  0  0  0  0  0  0  0  0  0  0
   37.6390   28.8330   31.9610 H   0  0  0  0  0  0  0  0  0  0  0  0
   36.0900   28.7670   30.0970 H   0  0  0  0  0  0  0  0  0  0  0  0
   36.9800   27.3380   29.3770 H   0  0  0  0  0  0  0  0  0  0  0  0
   36.3610   26.7060   32.9980 H   0  0  0  0  0  0  0  0  0  0  0  0
   36.5100   24.8890   31.9140 C   0  0  0  0  0  0  0  0  0  0  0  0
   35.4720   24.4030   31.0770 C   0  0  0  0  0  0  0  0  0  0  0  0
   34.7980   25.0400   30.4830 H   0  0  0  0  0  0  0  0  0  0  0  0
   35.5930   22.6370   31.2720 S   0  0  0  0  0  0  0  0  0  0  0  0
   37.0500   22.7940   32.4750 C   0  0  0  0  0  0  0  0  0  0  0  0
   37.6230   22.0040   32.9930 H   0  0  0  0  0  0  0  0  0  0  0  0
   37.2050   23.9620   32.5410 N   0  0  0  0  0  0  0  0  0  0  0  0
   39.1220   25.3550   35.9490 C   0  0  0  0  0  0  0  0  0  0  0  0
   39.7620   24.1670   35.5900 C   0  0  0  0  0  0  0  0  0  0  0  0
   39.4060   23.0080   36.2450 C   0  0  0  0  0  0  0  0  0  0  0  0
   38.4310   23.0660   37.2300 N   0  0  0  0  0  0  0  0  0  0  0  0
   37.8290   24.2430   37.5540 C   0  0  0  0  0  0  0  0  0  0  0  0
   38.1860   25.3470   36.9110 N   0  0  0  0  0  0  0  0  0  0  0  0
   40.5120   23.8340   34.8950 H   0  0  0  0  0  0  0  0  0  0  0  0
   39.7210   21.9910   36.1770 H   0  0  0  0  0  0  0  0  0  0  0  0
   37.0710   24.3040   38.3160 H   0  0  0  0  0  0  0  0  0  0  0  0
  1 35  1  0  0  0  0
  1  7  1  1  0  0  0
  2  8  1  0  0  0  0
  2  9  1  0  0  0  0
  2  1  1  0  0  0  0
  3 10  1  1  0  0  0
  3  2  1  0  0  0  0
  4  3  1  0  0  0  0
  4  5  1  0  0  0  0
  5 14  1  0  0  0  0
  5  6  1  0  0  0  0
  6  1  1  0  0  0  0
  6 15  1  0  0  0  0
 11  4  1  0  0  0  0
 12  4  1  0  0  0  0
 13  5  1  0  0  0  0
 16  6  1  0  0  0  0
 17 22  1  6  0  0  0
 17 21  1  0  0  0  0
 17  3  1  0  0  0  0
 18 17  1  0  0  0  0
 18 24  1  0  0  0  0
 19 20  1  0  0  0  0
 19 18  1  0  0  0  0
 20 21  1  0  0  0  0
 21 27  1  1  0  0  0
 23 18  1  0  0  0  0
 25 19  1  0  0  0  0
 26 19  1  0  0  0  0
 28 21  1  0  0  0  0
 28 34  1  0  0  0  0
 29 31  1  0  0  0  0
 29 28  2  0  0  0  0
 30 29  1  0  0  0  0
 31 32  1  0  0  0  0
 32 34  2  0  0  0  0
 32 33  1  0  0  0  0
 35 40  1  0  0  0  0
 36 35  2  0  0  0  0
 36 37  1  0  0  0  0
 37 38  2  0  0  0  0
 38 39  1  0  0  0  0
 39 43  1  0  0  0  0
 40 39  2  0  0  0  0
 41 36  1  0  0  0  0
 42 37  1  0  0  0  0
M  END
>  <minimizedAffinity>
-5.47868776

$$$$

 OpenBabel03262523393D

 43 46  0  0  1  0  0  0  0  0999 V2000
   36.3930   23.5270   31.2710 C   0  0  2  0  0  0  0  0  0  0  0  0
   37.5560   24.2620   31.8450 C   0  0  0  0  0  0  0  0  0  0  0  0
   37.1420   25.4990   32.6410 C   0  0  2  0  0  0  0  0  0  0  0  0
   36.4580   26.4680   31.7120 C   0  0  0  0  0  0  0  0  0  0  0  0
   35.3990   25.7940   30.8640 C   0  0  0  0  0  0  0  0  0  0  0  0
   35.1420   24.3760   31.3080 C   0  0  0  0  0  0  0  0  0  0  0  0
   36.5260   23.2250   30.1930 H   0  0  0  0  0  0  0  0  0  0  0  0
   38.0730   24.7240   30.9270 H   0  0  0  0  0  0  0  0  0  0  0  0
   38.3230   23.7590   32.3610 H   0  0  0  0  0  0  0  0  0  0  0  0
   36.3730   25.1440   33.3560 H   0  0  0  0  0  0  0  0  0  0  0  0
   35.9810   27.2820   32.2970 H   0  0  0  0  0  0  0  0  0  0  0  0
   37.2380   26.9300   31.0620 H   0  0  0  0  0  0  0  0  0  0  0  0
   34.4470   26.3350   30.8270 H   0  0  0  0  0  0  0  0  0  0  0  0
   35.7340   25.7200   29.7940 H   0  0  0  0  0  0  0  0  0  0  0  0
   34.4210   23.9340   30.5920 H   0  0  0  0  0  0  0  0  0  0  0  0
   34.6690   24.3550   32.2930 H   0  0  0  0  0  0  0  0  0  0  0  0
   38.2550   26.0570   33.4270 C   0  0  2  0  0  0  0  0  0  0  0  0
   39.1510   27.0390   32.7260 C   0  0  0  0  0  0  0  0  0  0  0  0
   40.2460   27.1290   33.8050 C   0  0  0  0  0  0  0  0  0  0  0  0
   40.3920   25.8540   34.2870 O   0  0  0  0  0  0  0  0  0  0  0  0
   39.2640   25.1070   33.9590 C   0  0  1  0  0  0  0  0  0  0  0  0
   37.8250   26.6000   34.2950 H   0  0  0  0  0  0  0  0  0  0  0  0
   38.6730   28.0160   32.5600 H   0  0  0  0  0  0  0  0  0  0  0  0
   39.5870   26.5830   31.8240 H   0  0  0  0  0  0  0  0  0  0  0  0
   41.1840   27.5420   33.3760 H   0  0  0  0  0  0  0  0  0  0  0  0
   39.8580   27.8070   34.6120 H   0  0  0  0  0  0  0  0  0  0  0  0
   39.6310   24.3290   33.2910 H   0  0  0  0  0  0  0  0  0  0  0  0
   38.8390   24.4600   35.2540 C   0  0  0  0  0  0  0  0  0  0  0  0
   38.1970   25.2270   36.2610 C   0  0  0  0  0  0  0  0  0  0  0  0
   37.9710   26.3030   36.1790 H   0  0  0  0  0  0  0  0  0  0  0  0
   37.9090   24.0340   37.5510 S   0  0  0  0  0  0  0  0  0  0  0  0
   38.7030   22.6400   36.5430 C   0  0  0  0  0  0  0  0  0  0  0  0
   38.8460   21.5760   36.8040 H   0  0  0  0  0  0  0  0  0  0  0  0
   39.0180   23.1880   35.5470 N   0  0  0  0  0  0  0  0  0  0  0  0
   36.0960   22.2700   31.9890 C   0  0  0  0  0  0  0  0  0  0  0  0
   35.2740   21.3710   31.3080 C   0  0  0  0  0  0  0  0  0  0  0  0
   34.9720   20.1700   31.9140 C   0  0  0  0  0  0  0  0  0  0  0  0
   35.4940   19.9030   33.1710 N   0  0  0  0  0  0  0  0  0  0  0  0
   36.2930   20.8050   33.8060 C   0  0  0  0  0  0  0  0  0  0  0  0
   36.5700   21.9530   33.2060 N   0  0  0  0  0  0  0  0  0  0  0  0
   34.7460   21.3120   30.3730 H   0  0  0  0  0  0  0  0  0  0  0  0
   34.3880   19.3230   31.6330 H   0  0  0  0  0  0  0  0  0  0  0  0
   36.7050   20.6120   34.7820 H   0  0  0  0  0  0  0  0  0  0  0  0
  1  7  1  6  0  0  0
  1  6  1  0  0  0  0
  1  2  1  0  0  0  0
  1 35  1  0  0  0  0
  2  9  1  0  0  0  0
  2  3  1  0  0  0  0
  3 10  1  1  0  0  0
  3 17  1  0  0  0  0
  4 11  1  0  0  0  0
  4  3  1  0  0  0  0
  5  6  1  0  0  0  0
  5  4  1  0  0  0  0
  6 16  1  0  0  0  0
  8  2  1  0  0  0  0
 12  4  1  0  0  0  0
 13  5  1  0  0  0  0
 14  5  1  0  0  0  0
 15  6  1  0  0  0  0
 17 21  1  0  0  0  0
 17 22  1  1  0  0  0
 18 17  1  0  0  0  0
 18 19  1  0  0  0  0
 19 20  1  0  0  0  0
 19 26  1  0  0  0  0
 21 27  1  6  0  0  0
 21 20  1  0  0  0  0
 21 28  1  0  0  0  0
 23 18  1  0  0  0  0
 24 18  1  0  0  0  0
 25 19  1  0  0  0  0
 28 34  1  0  0  0  0
 28 29  2  0  0  0  0
 29 31  1  0  0  0  0
 30 29  1  0  0  0  0
 32 33  1  0  0  0  0
 32 31  1  0  0  0  0
 34 32  2  0  0  0  0
 35 40  1  0  0  0  0
 36 37  1  0  0  0  0
 36 35  2  0  0  0  0
 37 38  2  0  0  0  0
 38 39  1  0  0  0  0
 39 43  1  0  0  0  0
 40 39  2  0  0  0  0
 41 36  1  0  0  0  0
 42 37  1  0  0  0  0
M  END
>  <minimizedAffinity>
-5.39078999

$$$$

 OpenBabel03262523393D

 43 46  0  0  1  0  0  0  0  0999 V2000
   37.7710   25.2910   35.6580 C   0  0  2  0  0  0  0  0  0  0  0  0
   37.9640   25.0830   34.1940 C   0  0  0  0  0  0  0  0  0  0  0  0
   38.7950   26.1880   33.5420 C   0  0  2  0  0  0  0  0  0  0  0  0
   38.0600   27.4950   33.6820 C   0  0  0  0  0  0  0  0  0  0  0  0
   37.5730   27.7280   35.0980 C   0  0  0  0  0  0  0  0  0  0  0  0
   38.1280   26.7050   36.0570 C   0  0  0  0  0  0  0  0  0  0  0  0
   36.7130   25.1300   36.0100 H   0  0  0  0  0  0  0  0  0  0  0  0
   36.9200   25.2680   33.7480 H   0  0  0  0  0  0  0  0  0  0  0  0
   38.2610   24.1510   33.8050 H   0  0  0  0  0  0  0  0  0  0  0  0
   39.7110   26.2680   34.1600 H   0  0  0  0  0  0  0  0  0  0  0  0
   38.7230   28.3370   33.3910 H   0  0  0  0  0  0  0  0  0  0  0  0
   37.1980   27.4830   32.9740 H   0  0  0  0  0  0  0  0  0  0  0  0
   37.7850   28.7310   35.4830 H   0  0  0  0  0  0  0  0  0  0  0  0
   36.4560   27.6240   35.1560 H   0  0  0  0  0  0  0  0  0  0  0  0
   37.6620   26.8960   37.0440 H   0  0  0  0  0  0  0  0  0  0  0  0
   39.2060   26.8300   36.1810 H   0  0  0  0  0  0  0  0  0  0  0  0
   39.2110   25.8410   32.1730 C   0  0  2  0  0  0  0  0  0  0  0  0
   40.1590   26.7890   31.4940 C   0  0  0  0  0  0  0  0  0  0  0  0
   40.0920   26.1760   30.0830 C   0  0  0  0  0  0  0  0  0  0  0  0
   38.7820   25.8170   29.9000 O   0  0  0  0  0  0  0  0  0  0  0  0
   38.1510   25.7370   31.1400 C   0  0  1  0  0  0  0  0  0  0  0  0
   39.7320   24.8610   32.2090 H   0  0  0  0  0  0  0  0  0  0  0  0
   41.1790   26.7430   31.9020 H   0  0  0  0  0  0  0  0  0  0  0  0
   39.7260   27.8010   31.4560 H   0  0  0  0  0  0  0  0  0  0  0  0
   40.4530   26.9030   29.3250 H   0  0  0  0  0  0  0  0  0  0  0  0
   40.7480   25.2650   30.0900 H   0  0  0  0  0  0  0  0  0  0  0  0
   37.3890   26.5140   31.1130 H   0  0  0  0  0  0  0  0  0  0  0  0
   37.4620   24.3950   31.1360 C   0  0  0  0  0  0  0  0  0  0  0  0
   36.0480   24.3150   31.2350 C   0  0  0  0  0  0  0  0  0  0  0  0
   35.3760   25.1850   31.3180 H   0  0  0  0  0  0  0  0  0  0  0  0
   35.7410   22.5610   31.1880 S   0  0  0  0  0  0  0  0  0  0  0  0
   37.5890   22.1660   31.0380 C   0  0  0  0  0  0  0  0  0  0  0  0
   38.0950   21.1870   30.9620 H   0  0  0  0  0  0  0  0  0  0  0  0
   38.0830   23.2370   31.0440 N   0  0  0  0  0  0  0  0  0  0  0  0
   38.5940   24.3780   36.4800 C   0  0  0  0  0  0  0  0  0  0  0  0
   38.1530   24.1930   37.7910 C   0  0  0  0  0  0  0  0  0  0  0  0
   38.8650   23.3400   38.6070 C   0  0  0  0  0  0  0  0  0  0  0  0
   39.9850   22.7020   38.0960 N   0  0  0  0  0  0  0  0  0  0  0  0
   40.3860   22.9060   36.8120 C   0  0  0  0  0  0  0  0  0  0  0  0
   39.6870   23.7310   36.0440 N   0  0  0  0  0  0  0  0  0  0  0  0
   37.3620   24.5410   38.4320 H   0  0  0  0  0  0  0  0  0  0  0  0
   38.7580   23.0210   39.6200 H   0  0  0  0  0  0  0  0  0  0  0  0
   41.2530   22.4190   36.4010 H   0  0  0  0  0  0  0  0  0  0  0  0
  1  7  1  1  0  0  0
  1  6  1  0  0  0  0
  1 35  1  0  0  0  0
  2  1  1  0  0  0  0
  3  4  1  0  0  0  0
  3 10  1  1  0  0  0
  3  2  1  0  0  0  0
  4  5  1  0  0  0  0
  5 14  1  0  0  0  0
  5 13  1  0  0  0  0
  5  6  1  0  0  0  0
  6 16  1  0  0  0  0
  6 15  1  0  0  0  0
  8  2  1  0  0  0  0
  9  2  1  0  0  0  0
 11  4  1  0  0  0  0
 12  4  1  0  0  0  0
 17 22  1  1  0  0  0
 17  3  1  0  0  0  0
 18 23  1  0  0  0  0
 18 17  1  0  0  0  0
 19 26  1  0  0  0  0
 19 18  1  0  0  0  0
 20 19  1  0  0  0  0
 20 21  1  0  0  0  0
 21 27  1  1  0  0  0
 21 17  1  0  0  0  0
 24 18  1  0  0  0  0
 25 19  1  0  0  0  0
 28 21  1  0  0  0  0
 28 29  2  0  0  0  0
 29 30  1  0  0  0  0
 31 29  1  0  0  0  0
 32 34  2  0  0  0  0
 32 31  1  0  0  0  0
 33 32  1  0  0  0  0
 34 28  1  0  0  0  0
 35 36  1  0  0  0  0
 36 41  1  0  0  0  0
 36 37  2  0  0  0  0
 37 42  1  0  0  0  0
 38 37  1  0  0  0  0
 39 38  2  0  0  0  0
 40 35  2  0  0  0  0
 40 39  1  0  0  0  0
 43 39  1  0  0  0  0
M  END
>  <minimizedAffinity>
-5.25068331

$$$$

 OpenBabel03262523393D

 43 46  0  0  1  0  0  0  0  0999 V2000
   36.1170   28.4370   31.5660 C   0  0  2  0  0  0  0  0  0  0  0  0
   35.2830   29.2620   32.4870 C   0  0  0  0  0  0  0  0  0  0  0  0
   36.0020   29.6060   33.7910 C   0  0  2  0  0  0  0  0  0  0  0  0
   36.2980   28.3280   34.5330 C   0  0  0  0  0  0  0  0  0  0  0  0
   36.9310   27.2820   33.6380 C   0  0  0  0  0  0  0  0  0  0  0  0
   37.3050   27.8480   32.2920 C   0  0  0  0  0  0  0  0  0  0  0  0
   35.5710   27.5630   31.1100 H   0  0  0  0  0  0  0  0  0  0  0  0
   34.4640   28.5380   32.8430 H   0  0  0  0  0  0  0  0  0  0  0  0
   34.7620   30.1110   32.1450 H   0  0  0  0  0  0  0  0  0  0  0  0
   36.9780   30.0310   33.4850 H   0  0  0  0  0  0  0  0  0  0  0  0
   36.9830   28.5330   35.3830 H   0  0  0  0  0  0  0  0  0  0  0  0
   35.3390   27.9460   34.9560 H   0  0  0  0  0  0  0  0  0  0  0  0
   37.8080   26.7920   34.0770 H   0  0  0  0  0  0  0  0  0  0  0  0
   36.2080   26.4490   33.4280 H   0  0  0  0  0  0  0  0  0  0  0  0
   37.6830   27.0060   31.6770 H   0  0  0  0  0  0  0  0  0  0  0  0
   38.1210   28.5690   32.3840 H   0  0  0  0  0  0  0  0  0  0  0  0
   35.2920   30.6360   34.5670 C   0  0  2  0  0  0  0  0  0  0  0  0
   36.0520   31.2780   35.6930 C   0  0  0  0  0  0  0  0  0  0  0  0
   34.8770   32.0450   36.3280 C   0  0  0  0  0  0  0  0  0  0  0  0
   33.7990   31.2020   36.2410 O   0  0  0  0  0  0  0  0  0  0  0  0
   34.0550   30.2280   35.2790 C   0  0  1  0  0  0  0  0  0  0  0  0
   35.0160   31.4590   33.8750 H   0  0  0  0  0  0  0  0  0  0  0  0
   36.8370   31.9660   35.3440 H   0  0  0  0  0  0  0  0  0  0  0  0
   36.3970   30.5140   36.4060 H   0  0  0  0  0  0  0  0  0  0  0  0
   35.1190   32.3340   37.3720 H   0  0  0  0  0  0  0  0  0  0  0  0
   34.7060   32.9610   35.7020 H   0  0  0  0  0  0  0  0  0  0  0  0
   34.0730   29.2900   35.8310 H   0  0  0  0  0  0  0  0  0  0  0  0
   32.8350   30.2340   34.3900 C   0  0  0  0  0  0  0  0  0  0  0  0
   32.4670   31.4100   33.6870 C   0  0  0  0  0  0  0  0  0  0  0  0
   33.0160   32.3640   33.7320 H   0  0  0  0  0  0  0  0  0  0  0  0
   31.0000   30.9100   32.8080 S   0  0  0  0  0  0  0  0  0  0  0  0
   31.0830   29.1540   33.5180 C   0  0  0  0  0  0  0  0  0  0  0  0
   30.4110   28.2950   33.3490 H   0  0  0  0  0  0  0  0  0  0  0  0
   32.0440   29.1970   34.2010 N   0  0  0  0  0  0  0  0  0  0  0  0
   36.6370   29.2080   30.4170 C   0  0  0  0  0  0  0  0  0  0  0  0
   36.4010   30.5830   30.4630 C   0  0  0  0  0  0  0  0  0  0  0  0
   36.8770   31.3640   29.4310 C   0  0  0  0  0  0  0  0  0  0  0  0
   37.5670   30.7560   28.3930 N   0  0  0  0  0  0  0  0  0  0  0  0
   37.7780   29.4120   28.3820 C   0  0  0  0  0  0  0  0  0  0  0  0
   37.3120   28.6790   29.3840 N   0  0  0  0  0  0  0  0  0  0  0  0
   35.9160   31.2960   31.1060 H   0  0  0  0  0  0  0  0  0  0  0  0
   36.8430   32.4080   29.2150 H   0  0  0  0  0  0  0  0  0  0  0  0
   38.3120   28.9260   27.5830 H   0  0  0  0  0  0  0  0  0  0  0  0
  1  7  1  6  0  0  0
  1  6  1  0  0  0  0
  1  2  1  0  0  0  0
  2  8  1  0  0  0  0
  2  3  1  0  0  0  0
  3 10  1  6  0  0  0
  3  4  1  0  0  0  0
  3 17  1  0  0  0  0
  4 12  1  0  0  0  0
  4 11  1  0  0  0  0
  5 13  1  0  0  0  0
  5  4  1  0  0  0  0
  6 16  1  0  0  0  0
  6  5  1  0  0  0  0
  9  2  1  0  0  0  0
 14  5  1  0  0  0  0
 15  6  1  0  0  0  0
 17 22  1  6  0  0  0
 17 21  1  0  0  0  0
 17 18  1  0  0  0  0
 18 19  1  0  0  0  0
 18 24  1  0  0  0  0
 19 25  1  0  0  0  0
 20 19  1  0  0  0  0
 21 27  1  1  0  0  0
 21 20  1  0  0  0  0
 23 18  1  0  0  0  0
 26 19  1  0  0  0  0
 28 21  1  0  0  0  0
 29 30  1  0  0  0  0
 29 28  2  0  0  0  0
 31 32  1  0  0  0  0
 31 29  1  0  0  0  0
 32 34  2  0  0  0  0
 33 32  1  0  0  0  0
 34 28  1  0  0  0  0
 35 36  1  0  0  0  0
 35  1  1  0  0  0  0
 36 41  1  0  0  0  0
 37 36  2  0  0  0  0
 38 37  1  0  0  0  0
 39 38  2  0  0  0  0
 39 40  1  0  0  0  0
 40 35  2  0  0  0  0
 42 37  1  0  0  0  0
 43 39  1  0  0  0  0
M  END
>  <minimizedAffinity>
-5.18266535

$$$$

 OpenBabel03262523393D

 43 46  0  0  1  0  0  0  0  0999 V2000
   38.7930   26.0660   35.1460 C   0  0  2  0  0  0  0  0  0  0  0  0
   37.7040   25.9220   34.1390 C   0  0  0  0  0  0  0  0  0  0  0  0
   38.2260   25.5730   32.7450 C   0  0  2  0  0  0  0  0  0  0  0  0
   39.0960   26.7020   32.2560 C   0  0  0  0  0  0  0  0  0  0  0  0
   40.1090   27.1340   33.2970 C   0  0  0  0  0  0  0  0  0  0  0  0
   40.1420   26.1920   34.4730 C   0  0  0  0  0  0  0  0  0  0  0  0
   38.6940   26.9750   35.8050 H   0  0  0  0  0  0  0  0  0  0  0  0
   37.3170   26.9950   33.9920 H   0  0  0  0  0  0  0  0  0  0  0  0
   36.8430   25.3510   34.3380 H   0  0  0  0  0  0  0  0  0  0  0  0
   38.8910   24.6980   32.8920 H   0  0  0  0  0  0  0  0  0  0  0  0
   39.6380   26.3940   31.3380 H   0  0  0  0  0  0  0  0  0  0  0  0
   38.4310   27.5560   31.9860 H   0  0  0  0  0  0  0  0  0  0  0  0
   41.1260   27.2540   32.9060 H   0  0  0  0  0  0  0  0  0  0  0  0
   39.8400   28.1390   33.7200 H   0  0  0  0  0  0  0  0  0  0  0  0
   40.8430   26.6210   35.2160 H   0  0  0  0  0  0  0  0  0  0  0  0
   40.5410   25.2170   34.1810 H   0  0  0  0  0  0  0  0  0  0  0  0
   37.1490   25.1650   31.8290 C   0  0  2  0  0  0  0  0  0  0  0  0
   36.0830   26.1850   31.5420 C   0  0  0  0  0  0  0  0  0  0  0  0
   35.1040   25.2600   30.7950 C   0  0  0  0  0  0  0  0  0  0  0  0
   35.1480   24.0630   31.4630 O   0  0  0  0  0  0  0  0  0  0  0  0
   36.3100   24.0080   32.2300 C   0  0  1  0  0  0  0  0  0  0  0  0
   37.6060   24.9150   30.8490 H   0  0  0  0  0  0  0  0  0  0  0  0
   36.4330   27.0020   30.8940 H   0  0  0  0  0  0  0  0  0  0  0  0
   35.6070   26.5140   32.4780 H   0  0  0  0  0  0  0  0  0  0  0  0
   34.0880   25.7060   30.7700 H   0  0  0  0  0  0  0  0  0  0  0  0
   35.5000   25.1370   29.7520 H   0  0  0  0  0  0  0  0  0  0  0  0
   35.9610   23.9660   33.2600 H   0  0  0  0  0  0  0  0  0  0  0  0
   36.9360   22.6790   31.8850 C   0  0  0  0  0  0  0  0  0  0  0  0
   36.7860   21.5690   32.7560 C   0  0  0  0  0  0  0  0  0  0  0  0
   36.2280   21.5900   33.7060 H   0  0  0  0  0  0  0  0  0  0  0  0
   37.6860   20.2790   31.9200 S   0  0  0  0  0  0  0  0  0  0  0  0
   38.1490   21.4280   30.4860 C   0  0  0  0  0  0  0  0  0  0  0  0
   38.7440   21.2170   29.5790 H   0  0  0  0  0  0  0  0  0  0  0  0
   37.6420   22.4460   30.7970 N   0  0  0  0  0  0  0  0  0  0  0  0
   38.8690   24.9210   36.0780 C   0  0  0  0  0  0  0  0  0  0  0  0
   38.0590   25.0180   37.2110 C   0  0  0  0  0  0  0  0  0  0  0  0
   38.0680   23.9750   38.1130 C   0  0  0  0  0  0  0  0  0  0  0  0
   38.8760   22.8770   37.8610 N   0  0  0  0  0  0  0  0  0  0  0  0
   39.6540   22.8180   36.7450 C   0  0  0  0  0  0  0  0  0  0  0  0
   39.6310   23.8310   35.8910 N   0  0  0  0  0  0  0  0  0  0  0  0
   37.3670   25.7150   37.6500 H   0  0  0  0  0  0  0  0  0  0  0  0
   37.5640   23.7880   39.0340 H   0  0  0  0  0  0  0  0  0  0  0  0
   40.2870   21.9720   36.5360 H   0  0  0  0  0  0  0  0  0  0  0  0
  1  7  1  1  0  0  0
  1 35  1  0  0  0  0
  2  9  1  0  0  0  0
  2  1  1  0  0  0  0
  3 10  1  1  0  0  0
  3  2  1  0  0  0  0
  4  3  1  0  0  0  0
  4  5  1  0  0  0  0
  5 14  1  0  0  0  0
  5  6  1  0  0  0  0
  6  1  1  0  0  0  0
  6 15  1  0  0  0  0
  8  2  1  0  0  0  0
 11  4  1  0  0  0  0
 12  4  1  0  0  0  0
 13  5  1  0  0  0  0
 16  6  1  0  0  0  0
 17 22  1  6  0  0  0
 17 21  1  0  0  0  0
 17  3  1  0  0  0  0
 18 17  1  0  0  0  0
 18 24  1  0  0  0  0
 19 20  1  0  0  0  0
 19 18  1  0  0  0  0
 20 21  1  0  0  0  0
 21 27  1  1  0  0  0
 23 18  1  0  0  0  0
 25 19  1  0  0  0  0
 26 19  1  0  0  0  0
 28 21  1  0  0  0  0
 28 29  2  0  0  0  0
 29 30  1  0  0  0  0
 31 29  1  0  0  0  0
 32 34  2  0  0  0  0
 32 31  1  0  0  0  0
 33 32  1  0  0  0  0
 34 28  1  0  0  0  0
 35 36  1  0  0  0  0
 36 41  1  0  0  0  0
 36 37  2  0  0  0  0
 37 42  1  0  0  0  0
 38 37  1  0  0  0  0
 39 38  2  0  0  0  0
 40 35  2  0  0  0  0
 40 39  1  0  0  0  0
 43 39  1  0  0  0  0
M  END
>  <minimizedAffinity>
-5.10039425

$$$$

 OpenBabel03262523393D

 43 46  0  0  1  0  0  0  0  0999 V2000
   35.8780   28.4370   33.8850 C   0  0  2  0  0  0  0  0  0  0  0  0
   36.9900   27.6670   34.5120 C   0  0  0  0  0  0  0  0  0  0  0  0
   38.0900   27.2960   33.5170 C   0  0  2  0  0  0  0  0  0  0  0  0
   37.5050   26.3950   32.4610 C   0  0  0  0  0  0  0  0  0  0  0  0
   36.2070   26.9400   31.9000 C   0  0  0  0  0  0  0  0  0  0  0  0
   35.9360   28.3440   32.3770 C   0  0  0  0  0  0  0  0  0  0  0  0
   34.8500   28.0790   34.1760 H   0  0  0  0  0  0  0  0  0  0  0  0
   36.5210   26.6440   34.7480 H   0  0  0  0  0  0  0  0  0  0  0  0
   37.4320   27.9750   35.4160 H   0  0  0  0  0  0  0  0  0  0  0  0
   38.3610   28.2450   33.0130 H   0  0  0  0  0  0  0  0  0  0  0  0
   38.2280   26.2680   31.6270 H   0  0  0  0  0  0  0  0  0  0  0  0
   37.3380   25.3920   32.9180 H   0  0  0  0  0  0  0  0  0  0  0  0
   36.1500   26.9160   30.8060 H   0  0  0  0  0  0  0  0  0  0  0  0
   35.3350   26.3260   32.2510 H   0  0  0  0  0  0  0  0  0  0  0  0
   34.9380   28.6340   31.9900 H   0  0  0  0  0  0  0  0  0  0  0  0
   36.6590   29.0460   31.9560 H   0  0  0  0  0  0  0  0  0  0  0  0
   39.2990   26.7850   34.1830 C   0  0  2  0  0  0  0  0  0  0  0  0
   40.6170   27.3120   33.6900 C   0  0  0  0  0  0  0  0  0  0  0  0
   41.5310   26.3460   34.4650 C   0  0  0  0  0  0  0  0  0  0  0  0
   40.8970   25.1310   34.4300 O   0  0  0  0  0  0  0  0  0  0  0  0
   39.5530   25.3240   34.1180 C   0  0  1  0  0  0  0  0  0  0  0  0
   39.2420   27.0600   35.2580 H   0  0  0  0  0  0  0  0  0  0  0  0
   40.7990   28.3570   33.9820 H   0  0  0  0  0  0  0  0  0  0  0  0
   40.7300   27.1110   32.6130 H   0  0  0  0  0  0  0  0  0  0  0  0
   42.5450   26.3200   34.0120 H   0  0  0  0  0  0  0  0  0  0  0  0
   41.5890   26.7240   35.5210 H   0  0  0  0  0  0  0  0  0  0  0  0
   39.4170   24.8280   33.1580 H   0  0  0  0  0  0  0  0  0  0  0  0
   38.7980   24.5470   35.1670 C   0  0  0  0  0  0  0  0  0  0  0  0
   38.3810   23.2150   34.9110 C   0  0  0  0  0  0  0  0  0  0  0  0
   38.5680   22.6710   33.9710 H   0  0  0  0  0  0  0  0  0  0  0  0
   37.5550   22.7550   36.4200 S   0  0  0  0  0  0  0  0  0  0  0  0
   37.8870   24.4480   37.2060 C   0  0  0  0  0  0  0  0  0  0  0  0
   37.6100   24.8260   38.2060 H   0  0  0  0  0  0  0  0  0  0  0  0
   38.4750   25.0160   36.3550 N   0  0  0  0  0  0  0  0  0  0  0  0
   35.9020   29.8710   34.2420 C   0  0  0  0  0  0  0  0  0  0  0  0
   35.6710   30.7540   33.1850 C   0  0  0  0  0  0  0  0  0  0  0  0
   35.6610   32.1070   33.4520 C   0  0  0  0  0  0  0  0  0  0  0  0
   35.8800   32.5350   34.7520 N   0  0  0  0  0  0  0  0  0  0  0  0
   36.1020   31.6450   35.7580 C   0  0  0  0  0  0  0  0  0  0  0  0
   36.1080   30.3490   35.4800 N   0  0  0  0  0  0  0  0  0  0  0  0
   35.4840   30.7120   32.1270 H   0  0  0  0  0  0  0  0  0  0  0  0
   35.5130   32.9790   32.8560 H   0  0  0  0  0  0  0  0  0  0  0  0
   36.2740   31.9630   36.7720 H   0  0  0  0  0  0  0  0  0  0  0  0
  1  7  1  1  0  0  0
  1 35  1  0  0  0  0
  1  2  1  0  0  0  0
  2  8  1  0  0  0  0
  2  9  1  0  0  0  0
  3 10  1  6  0  0  0
  3 17  1  0  0  0  0
  3  2  1  0  0  0  0
  4 12  1  0  0  0  0
  4  3  1  0  0  0  0
  5 14  1  0  0  0  0
  5  6  1  0  0  0  0
  5  4  1  0  0  0  0
  6  1  1  0  0  0  0
 11  4  1  0  0  0  0
 13  5  1  0  0  0  0
 15  6  1  0  0  0  0
 16  6  1  0  0  0  0
 17 22  1  1  0  0  0
 18 23  1  0  0  0  0
 18 17  1  0  0  0  0
 18 19  1  0  0  0  0
 19 26  1  0  0  0  0
 20 19  1  0  0  0  0
 21 27  1  6  0  0  0
 21 17  1  0  0  0  0
 21 20  1  0  0  0  0
 21 28  1  0  0  0  0
 24 18  1  0  0  0  0
 25 19  1  0  0  0  0
 28 34  1  0  0  0  0
 29 28  2  0  0  0  0
 29 31  1  0  0  0  0
 30 29  1  0  0  0  0
 31 32  1  0  0  0  0
 32 33  1  0  0  0  0
 34 32  2  0  0  0  0
 35 40  1  0  0  0  0
 36 37  1  0  0  0  0
 36 35  2  0  0  0  0
 37 38  2  0  0  0  0
 38 39  1  0  0  0  0
 39 43  1  0  0  0  0
 40 39  2  0  0  0  0
 41 36  1  0  0  0  0
 42 37  1  0  0  0  0
M  END
>  <minimizedAffinity>
-5.09435368

$$$$

 OpenBabel03262523393D

 43 46  0  0  1  0  0  0  0  0999 V2000
   36.9040   27.7090   31.8880 C   0  0  2  0  0  0  0  0  0  0  0  0
   36.0350   28.4280   32.8630 C   0  0  0  0  0  0  0  0  0  0  0  0
   34.8640   29.1490   32.1950 C   0  0  2  0  0  0  0  0  0  0  0  0
   35.4080   30.2040   31.2680 C   0  0  0  0  0  0  0  0  0  0  0  0
   36.5030   29.6650   30.3700 C   0  0  0  0  0  0  0  0  0  0  0  0
   36.6270   28.1660   30.4730 C   0  0  0  0  0  0  0  0  0  0  0  0
   38.0080   27.8680   32.0510 H   0  0  0  0  0  0  0  0  0  0  0  0
   36.6870   29.3050   33.2220 H   0  0  0  0  0  0  0  0  0  0  0  0
   35.6980   27.9650   33.7450 H   0  0  0  0  0  0  0  0  0  0  0  0
   34.3750   28.3850   31.5580 H   0  0  0  0  0  0  0  0  0  0  0  0
   34.5920   30.6080   30.6310 H   0  0  0  0  0  0  0  0  0  0  0  0
   35.7970   31.0430   31.8910 H   0  0  0  0  0  0  0  0  0  0  0  0
   36.3930   29.9430   29.3150 H   0  0  0  0  0  0  0  0  0  0  0  0
   37.5040   30.0740   30.6750 H   0  0  0  0  0  0  0  0  0  0  0  0
   37.4960   27.8660   29.8540 H   0  0  0  0  0  0  0  0  0  0  0  0
   35.7470   27.6720   30.0540 H   0  0  0  0  0  0  0  0  0  0  0  0
   33.8660   29.6190   33.1700 C   0  0  2  0  0  0  0  0  0  0  0  0
   32.4440   29.1910   32.9420 C   0  0  0  0  0  0  0  0  0  0  0  0
   31.7830   30.0930   34.0010 C   0  0  0  0  0  0  0  0  0  0  0  0
   32.4590   31.2840   33.9440 O   0  0  0  0  0  0  0  0  0  0  0  0
   33.6850   31.0850   33.3130 C   0  0  1  0  0  0  0  0  0  0  0  0
   34.1490   29.2250   34.1690 H   0  0  0  0  0  0  0  0  0  0  0  0
   32.2750   28.1270   33.1610 H   0  0  0  0  0  0  0  0  0  0  0  0
   32.1020   29.5140   31.9470 H   0  0  0  0  0  0  0  0  0  0  0  0
   30.6960   30.2000   33.7980 H   0  0  0  0  0  0  0  0  0  0  0  0
   31.9440   29.6020   34.9980 H   0  0  0  0  0  0  0  0  0  0  0  0
   33.6280   31.6810   32.4030 H   0  0  0  0  0  0  0  0  0  0  0  0
   34.6990   31.7180   34.2330 C   0  0  0  0  0  0  0  0  0  0  0  0
   35.1080   33.0620   34.0340 C   0  0  0  0  0  0  0  0  0  0  0  0
   34.7340   33.7170   33.2310 H   0  0  0  0  0  0  0  0  0  0  0  0
   36.2840   33.3230   35.3470 S   0  0  0  0  0  0  0  0  0  0  0  0
   36.0620   31.5570   35.9980 C   0  0  0  0  0  0  0  0  0  0  0  0
   36.5460   31.0570   36.8560 H   0  0  0  0  0  0  0  0  0  0  0  0
   35.2660   31.1050   35.2530 N   0  0  0  0  0  0  0  0  0  0  0  0
   36.7160   26.2430   31.9250 C   0  0  0  0  0  0  0  0  0  0  0  0
   35.6460   25.7590   31.1700 C   0  0  0  0  0  0  0  0  0  0  0  0
   35.4260   24.3980   31.1450 C   0  0  0  0  0  0  0  0  0  0  0  0
   36.2700   23.5680   31.8670 N   0  0  0  0  0  0  0  0  0  0  0  0
   37.3040   24.0770   32.5930 C   0  0  0  0  0  0  0  0  0  0  0  0
   37.4980   25.3880   32.6030 N   0  0  0  0  0  0  0  0  0  0  0  0
   34.8610   26.1450   30.5450 H   0  0  0  0  0  0  0  0  0  0  0  0
   34.7060   23.7720   30.6680 H   0  0  0  0  0  0  0  0  0  0  0  0
   37.9680   23.4450   33.1590 H   0  0  0  0  0  0  0  0  0  0  0  0
  1 35  1  0  0  0  0
  1  7  1  1  0  0  0
  1  2  1  0  0  0  0
  2  8  1  0  0  0  0
  2  9  1  0  0  0  0
  3 10  1  6  0  0  0
  3  2  1  0  0  0  0
  3 17  1  0  0  0  0
  4 12  1  0  0  0  0
  4  3  1  0  0  0  0
  5  6  1  0  0  0  0
  5 14  1  0  0  0  0
  5  4  1  0  0  0  0
  6  1  1  0  0  0  0
 11  4  1  0  0  0  0
 13  5  1  0  0  0  0
 15  6  1  0  0  0  0
 16  6  1  0  0  0  0
 17 21  1  0  0  0  0
 17 22  1  1  0  0  0
 18 23  1  0  0  0  0
 18 17  1  0  0  0  0
 18 19  1  0  0  0  0
 19 26  1  0  0  0  0
 20 19  1  0  0  0  0
 21 27  1  6  0  0  0
 21 20  1  0  0  0  0
 21 28  1  0  0  0  0
 24 18  1  0  0  0  0
 25 19  1  0  0  0  0
 28 34  1  0  0  0  0
 29 28  2  0  0  0  0
 29 31  1  0  0  0  0
 30 29  1  0  0  0  0
 31 32  1  0  0  0  0
 32 33  1  0  0  0  0
 34 32  2  0  0  0  0
 35 40  1  0  0  0  0
 36 35  2  0  0  0  0
 37 36  1  0  0  0  0
 37 38  2  0  0  0  0
 38 39  1  0  0  0  0
 39 40  2  0  0  0  0
 39 43  1  0  0  0  0
 41 36  1  0  0  0  0
 42 37  1  0  0  0  0
M  END
>  <minimizedAffinity>
-5.05381823

$$$$

 OpenBabel03262523393D

 43 46  0  0  1  0  0  0  0  0999 V2000
   35.6160   30.9930   32.0360 C   0  0  2  0  0  0  0  0  0  0  0  0
   35.6030   29.5060   31.9350 C   0  0  0  0  0  0  0  0  0  0  0  0
   36.8880   28.9410   31.3300 C   0  0  2  0  0  0  0  0  0  0  0  0
   37.0250   29.4510   29.9190 C   0  0  0  0  0  0  0  0  0  0  0  0
   36.8070   30.9470   29.8290 C   0  0  0  0  0  0  0  0  0  0  0  0
   36.7230   31.5850   31.1930 C   0  0  0  0  0  0  0  0  0  0  0  0
   34.6650   31.4860   31.6850 H   0  0  0  0  0  0  0  0  0  0  0  0
   34.8300   29.2900   31.1120 H   0  0  0  0  0  0  0  0  0  0  0  0
   35.3080   28.9030   32.7460 H   0  0  0  0  0  0  0  0  0  0  0  0
   37.7120   29.3960   31.9160 H   0  0  0  0  0  0  0  0  0  0  0  0
   38.0370   29.2140   29.5270 H   0  0  0  0  0  0  0  0  0  0  0  0
   36.2820   28.9130   29.2850 H   0  0  0  0  0  0  0  0  0  0  0  0
   37.5630   31.4730   29.2340 H   0  0  0  0  0  0  0  0  0  0  0  0
   35.8300   31.1770   29.3260 H   0  0  0  0  0  0  0  0  0  0  0  0
   36.4830   32.6560   31.0380 H   0  0  0  0  0  0  0  0  0  0  0  0
   37.6880   31.5420   31.7040 H   0  0  0  0  0  0  0  0  0  0  0  0
   36.9850   27.4800   31.4860 C   0  0  2  0  0  0  0  0  0  0  0  0
   36.0240   26.6500   30.6820 C   0  0  0  0  0  0  0  0  0  0  0  0
   36.3190   25.2910   31.3440 C   0  0  0  0  0  0  0  0  0  0  0  0
   36.4900   25.5610   32.6770 O   0  0  0  0  0  0  0  0  0  0  0  0
   36.7570   26.9180   32.8400 C   0  0  1  0  0  0  0  0  0  0  0  0
   38.0010   27.1670   31.1670 H   0  0  0  0  0  0  0  0  0  0  0  0
   36.2630   26.6320   29.6090 H   0  0  0  0  0  0  0  0  0  0  0  0
   34.9860   26.9330   30.9160 H   0  0  0  0  0  0  0  0  0  0  0  0
   35.4940   24.5740   31.1480 H   0  0  0  0  0  0  0  0  0  0  0  0
   37.2770   24.9100   30.8990 H   0  0  0  0  0  0  0  0  0  0  0  0
   35.9140   27.3000   33.4130 H   0  0  0  0  0  0  0  0  0  0  0  0
   37.9870   26.9670   33.7130 C   0  0  0  0  0  0  0  0  0  0  0  0
   39.2730   26.7560   33.1510 C   0  0  0  0  0  0  0  0  0  0  0  0
   39.4640   26.5510   32.0850 H   0  0  0  0  0  0  0  0  0  0  0  0
   40.3560   26.9120   34.5570 S   0  0  0  0  0  0  0  0  0  0  0  0
   38.9060   27.2460   35.7310 C   0  0  0  0  0  0  0  0  0  0  0  0
   38.9120   27.4390   36.8190 H   0  0  0  0  0  0  0  0  0  0  0  0
   37.9740   27.1990   35.0100 N   0  0  0  0  0  0  0  0  0  0  0  0
   35.8090   31.4730   33.4210 C   0  0  0  0  0  0  0  0  0  0  0  0
   36.2350   32.7970   33.5400 C   0  0  0  0  0  0  0  0  0  0  0  0
   36.4180   33.3150   34.8060 C   0  0  0  0  0  0  0  0  0  0  0  0
   36.1730   32.5040   35.9030 N   0  0  0  0  0  0  0  0  0  0  0  0
   35.7600   31.2160   35.7480 C   0  0  0  0  0  0  0  0  0  0  0  0
   35.5900   30.7380   34.5230 N   0  0  0  0  0  0  0  0  0  0  0  0
   36.4950   33.6210   32.9000 H   0  0  0  0  0  0  0  0  0  0  0  0
   36.7250   34.2640   35.1810 H   0  0  0  0  0  0  0  0  0  0  0  0
   35.5660   30.5740   36.5910 H   0  0  0  0  0  0  0  0  0  0  0  0
  1  7  1  6  0  0  0
  1 35  1  0  0  0  0
  2  1  1  0  0  0  0
  2  9  1  0  0  0  0
  3 17  1  0  0  0  0
  3 10  1  1  0  0  0
  3  2  1  0  0  0  0
  4  3  1  0  0  0  0
  5  4  1  0  0  0  0
  5  6  1  0  0  0  0
  6 16  1  0  0  0  0
  6  1  1  0  0  0  0
  8  2  1  0  0  0  0
 11  4  1  0  0  0  0
 12  4  1  0  0  0  0
 13  5  1  0  0  0  0
 14  5  1  0  0  0  0
 15  6  1  0  0  0  0
 17 22  1  6  0  0  0
 17 21  1  0  0  0  0
 18 24  1  0  0  0  0
 18 19  1  0  0  0  0
 18 17  1  0  0  0  0
 19 20  1  0  0  0  0
 20 21  1  0  0  0  0
 21 27  1  1  0  0  0
 21 28  1  0  0  0  0
 23 18  1  0  0  0  0
 25 19  1  0  0  0  0
 26 19  1  0  0  0  0
 28 34  1  0  0  0  0
 29 28  2  0  0  0  0
 29 31  1  0  0  0  0
 30 29  1  0  0  0  0
 31 32  1  0  0  0  0
 32 33  1  0  0  0  0
 34 32  2  0  0  0  0
 35 36  2  0  0  0  0
 35 40  1  0  0  0  0
 36 37  1  0  0  0  0
 37 42  1  0  0  0  0
 37 38  2  0  0  0  0
 39 38  1  0  0  0  0
 39 43  1  0  0  0  0
 40 39  2  0  0  0  0
 41 36  1  0  0  0  0
M  END
>  <minimizedAffinity>
-5.03076172

$$$$
