
 OpenBabel03272502433D

 26 28  0  0  0  0  0  0  0  0999 V2000
   36.5090   28.7150   31.8160 C   0  0  0  0  0  0  0  0  0  0  0  0
   37.0310   27.5130   32.3110 C   0  0  0  0  0  0  0  0  0  0  0  0
   36.9280   27.2960   33.6940 C   0  0  0  0  0  0  0  0  0  0  0  0
   36.3390   28.2490   34.4350 N   0  0  0  0  0  0  0  0  0  0  0  0
   35.8430   29.3990   33.9380 C   0  0  0  0  0  0  0  0  0  0  0  0
   35.9360   29.6160   32.6230 N   0  0  0  0  0  0  0  0  0  0  0  0
   36.6120   28.8390   30.7390 H   0  0  0  0  0  0  0  0  0  0  0  0
   37.4960   26.7770   31.6770 H   0  0  0  0  0  0  0  0  0  0  0  0
   32.8780   29.3060   33.9740 Cl  0  0  0  0  0  0  0  0  0  0  0  0
   33.8450   30.4030   34.9220 C   0  0  0  0  0  0  0  0  0  0  0  0
   35.2270   30.3670   34.8330 C   0  0  0  0  0  0  0  0  0  0  0  0
   36.0200   31.2100   35.5590 C   0  0  0  0  0  0  0  0  0  0  0  0
   35.4510   32.1370   36.4170 C   0  0  0  0  0  0  0  0  0  0  0  0
   34.0770   32.2060   36.5350 C   0  0  0  0  0  0  0  0  0  0  0  0
   33.1980   33.3160   37.5730 Cl  0  0  0  0  0  0  0  0  0  0  0  0
   33.3230   31.3370   35.7850 C   0  0  0  0  0  0  0  0  0  0  0  0
   37.1070   31.1730   35.4810 H   0  0  0  0  0  0  0  0  0  0  0  0
   36.0190   32.8330   37.0200 H   0  0  0  0  0  0  0  0  0  0  0  0
   32.2290   31.3470   35.8380 H   0  0  0  0  0  0  0  0  0  0  0  0
   37.4540   26.0530   34.3080 C   0  0  0  0  0  0  0  0  0  0  0  0
   37.8200   24.9700   33.5030 C   0  0  0  0  0  0  0  0  0  0  0  0
   37.7930   24.8540   32.4430 H   0  0  0  0  0  0  0  0  0  0  0  0
   38.3950   23.7100   34.7320 S   0  0  0  0  0  0  0  0  0  0  0  0
   38.0200   24.9200   36.1480 C   0  0  0  0  0  0  0  0  0  0  0  0
   38.0900   24.9530   37.3550 H   0  0  0  0  0  0  0  0  0  0  0  0
   37.6310   25.8280   35.6130 N   0  0  0  0  0  0  0  0  0  0  0  0
  1  2  2  0  0  0  0
  1  6  1  0  0  0  0
  2  3  1  0  0  0  0
  3 20  1  0  0  0  0
  3  4  2  0  0  0  0
  5  4  1  0  0  0  0
  5 11  1  0  0  0  0
  6  5  2  0  0  0  0
  7  1  1  0  0  0  0
  8  2  1  0  0  0  0
  9 10  1  0  0  0  0
 10 16  1  0  0  0  0
 11 10  2  0  0  0  0
 11 12  1  0  0  0  0
 12 13  2  0  0  0  0
 13 14  1  0  0  0  0
 13 18  1  0  0  0  0
 14 15  1  0  0  0  0
 16 19  1  0  0  0  0
 16 14  2  0  0  0  0
 17 12  1  0  0  0  0
 20 26  1  0  0  0  0
 21 20  2  0  0  0  0
 21 23  1  0  0  0  0
 22 21  1  0  0  0  0
 23 24  1  0  0  0  0
 24 25  1  0  0  0  0
 26 24  2  0  0  0  0
M  END
>  <minimizedAffinity>
-5.13860989

$$$$

 OpenBabel03272502433D

 26 28  0  0  0  0  0  0  0  0999 V2000
   38.0400   23.7610   37.8230 C   0  0  0  0  0  0  0  0  0  0  0  0
   39.2520   23.0580   37.8380 C   0  0  0  0  0  0  0  0  0  0  0  0
   40.0320   23.1090   36.6730 C   0  0  0  0  0  0  0  0  0  0  0  0
   39.5640   23.8250   35.6360 N   0  0  0  0  0  0  0  0  0  0  0  0
   38.3950   24.4940   35.6440 C   0  0  0  0  0  0  0  0  0  0  0  0
   37.6440   24.4510   36.7470 N   0  0  0  0  0  0  0  0  0  0  0  0
   37.4700   23.6910   38.7480 H   0  0  0  0  0  0  0  0  0  0  0  0
   39.5860   22.4960   38.6940 H   0  0  0  0  0  0  0  0  0  0  0  0
   38.7470   27.4310   35.8690 Cl  0  0  0  0  0  0  0  0  0  0  0  0
   38.1050   26.6160   34.4670 C   0  0  0  0  0  0  0  0  0  0  0  0
   37.9800   25.2370   34.4620 C   0  0  0  0  0  0  0  0  0  0  0  0
   37.4820   24.5610   33.3840 C   0  0  0  0  0  0  0  0  0  0  0  0
   37.0840   25.2520   32.2510 C   0  0  0  0  0  0  0  0  0  0  0  0
   37.1920   26.6270   32.2160 C   0  0  0  0  0  0  0  0  0  0  0  0
   36.7360   27.6510   30.8640 Cl  0  0  0  0  0  0  0  0  0  0  0  0
   37.6990   27.2610   33.3230 C   0  0  0  0  0  0  0  0  0  0  0  0
   37.3880   23.4750   33.3910 H   0  0  0  0  0  0  0  0  0  0  0  0
   36.6810   24.7800   31.3650 H   0  0  0  0  0  0  0  0  0  0  0  0
   37.8070   28.3510   33.3520 H   0  0  0  0  0  0  0  0  0  0  0  0
   41.3300   22.3950   36.5970 C   0  0  0  0  0  0  0  0  0  0  0  0
   42.3620   22.8950   35.7980 C   0  0  0  0  0  0  0  0  0  0  0  0
   42.4020   23.7630   35.1800 H   0  0  0  0  0  0  0  0  0  0  0  0
   43.7210   21.6620   36.0530 S   0  0  0  0  0  0  0  0  0  0  0  0
   42.6040   20.6720   37.2270 C   0  0  0  0  0  0  0  0  0  0  0  0
   42.6580   19.6670   37.8970 H   0  0  0  0  0  0  0  0  0  0  0  0
   41.6500   21.2660   37.2360 N   0  0  0  0  0  0  0  0  0  0  0  0
  1  2  1  0  0  0  0
  1  7  1  0  0  0  0
  2  8  1  0  0  0  0
  3  2  2  0  0  0  0
  4  5  2  0  0  0  0
  4  3  1  0  0  0  0
  5  6  1  0  0  0  0
  6  1  2  0  0  0  0
 10  9  1  0  0  0  0
 11 10  1  0  0  0  0
 11  5  1  0  0  0  0
 12 17  1  0  0  0  0
 12 11  2  0  0  0  0
 13 12  1  0  0  0  0
 14 13  2  0  0  0  0
 14 16  1  0  0  0  0
 15 14  1  0  0  0  0
 16 19  1  0  0  0  0
 16 10  2  0  0  0  0
 18 13  1  0  0  0  0
 20  3  1  0  0  0  0
 20 26  1  0  0  0  0
 21 23  1  0  0  0  0
 21 20  2  0  0  0  0
 22 21  1  0  0  0  0
 23 24  1  0  0  0  0
 24 26  2  0  0  0  0
 24 25  1  0  0  0  0
M  END
>  <minimizedAffinity>
-5.00773573

$$$$

 OpenBabel03272502433D

 26 28  0  0  0  0  0  0  0  0999 V2000
   36.5290   29.6530   30.5760 C   0  0  0  0  0  0  0  0  0  0  0  0
   36.6070   28.2550   30.5220 C   0  0  0  0  0  0  0  0  0  0  0  0
   36.1440   27.5480   31.6420 C   0  0  0  0  0  0  0  0  0  0  0  0
   35.6630   28.2580   32.6760 N   0  0  0  0  0  0  0  0  0  0  0  0
   35.5970   29.6040   32.7070 C   0  0  0  0  0  0  0  0  0  0  0  0
   36.0350   30.2870   31.6470 N   0  0  0  0  0  0  0  0  0  0  0  0
   36.9000   30.1570   29.6850 H   0  0  0  0  0  0  0  0  0  0  0  0
   37.0010   27.7290   29.6690 H   0  0  0  0  0  0  0  0  0  0  0  0
   32.6380   29.8110   32.7410 Cl  0  0  0  0  0  0  0  0  0  0  0  0
   33.6860   30.4210   33.9930 C   0  0  0  0  0  0  0  0  0  0  0  0
   35.0590   30.2740   33.8820 C   0  0  0  0  0  0  0  0  0  0  0  0
   35.9150   30.7380   34.8410 C   0  0  0  0  0  0  0  0  0  0  0  0
   35.4210   31.3770   35.9660 C   0  0  0  0  0  0  0  0  0  0  0  0
   34.0590   31.5440   36.1150 C   0  0  0  0  0  0  0  0  0  0  0  0
   33.2700   32.3270   37.4740 Cl  0  0  0  0  0  0  0  0  0  0  0  0
   33.2390   31.0600   35.1250 C   0  0  0  0  0  0  0  0  0  0  0  0
   36.9940   30.6170   34.7440 H   0  0  0  0  0  0  0  0  0  0  0  0
   36.0410   31.7680   36.7620 H   0  0  0  0  0  0  0  0  0  0  0  0
   32.1510   31.1650   35.1890 H   0  0  0  0  0  0  0  0  0  0  0  0
   36.1870   26.0660   31.6750 C   0  0  0  0  0  0  0  0  0  0  0  0
   35.2370   25.3190   30.9740 C   0  0  0  0  0  0  0  0  0  0  0  0
   34.4170   25.6320   30.3690 H   0  0  0  0  0  0  0  0  0  0  0  0
   35.7290   23.5700   31.3380 S   0  0  0  0  0  0  0  0  0  0  0  0
   37.1720   24.1980   32.4020 C   0  0  0  0  0  0  0  0  0  0  0  0
   38.0730   23.7420   33.0670 H   0  0  0  0  0  0  0  0  0  0  0  0
   37.0770   25.3150   32.3310 N   0  0  0  0  0  0  0  0  0  0  0  0
  1  6  1  0  0  0  0
  2  1  2  0  0  0  0
  2  3  1  0  0  0  0
  3 20  1  0  0  0  0
  3  4  2  0  0  0  0
  4  5  1  0  0  0  0
  5 11  1  0  0  0  0
  6  5  2  0  0  0  0
  7  1  1  0  0  0  0
  8  2  1  0  0  0  0
  9 10  1  0  0  0  0
 10 16  1  0  0  0  0
 11 10  2  0  0  0  0
 11 12  1  0  0  0  0
 12 13  2  0  0  0  0
 13 14  1  0  0  0  0
 13 18  1  0  0  0  0
 14 15  1  0  0  0  0
 16 19  1  0  0  0  0
 16 14  2  0  0  0  0
 17 12  1  0  0  0  0
 20 26  1  0  0  0  0
 21 23  1  0  0  0  0
 21 20  2  0  0  0  0
 22 21  1  0  0  0  0
 23 24  1  0  0  0  0
 24 25  1  0  0  0  0
 26 24  2  0  0  0  0
M  END
>  <minimizedAffinity>
-4.94753075

$$$$

 OpenBabel03272502433D

 26 28  0  0  0  0  0  0  0  0999 V2000
   39.1720   27.1320   34.9190 C   0  0  0  0  0  0  0  0  0  0  0  0
   38.1740   26.9050   33.9630 C   0  0  0  0  0  0  0  0  0  0  0  0
   37.9470   25.5730   33.5850 C   0  0  0  0  0  0  0  0  0  0  0  0
   38.6970   24.6200   34.1640 N   0  0  0  0  0  0  0  0  0  0  0  0
   39.6530   24.8620   35.0830 C   0  0  0  0  0  0  0  0  0  0  0  0
   39.8780   26.1260   35.4500 N   0  0  0  0  0  0  0  0  0  0  0  0
   39.3130   28.1800   35.1800 H   0  0  0  0  0  0  0  0  0  0  0  0
   37.5980   27.7020   33.5250 H   0  0  0  0  0  0  0  0  0  0  0  0
   38.4130   23.6350   37.4830 Cl  0  0  0  0  0  0  0  0  0  0  0  0
   39.9150   23.1120   36.7690 C   0  0  0  0  0  0  0  0  0  0  0  0
   40.4100   23.7530   35.6450 C   0  0  0  0  0  0  0  0  0  0  0  0
   41.5840   23.3740   35.0560 C   0  0  0  0  0  0  0  0  0  0  0  0
   42.3170   22.3210   35.5780 C   0  0  0  0  0  0  0  0  0  0  0  0
   41.8570   21.6560   36.6960 C   0  0  0  0  0  0  0  0  0  0  0  0
   42.6600   20.3050   37.4800 Cl  0  0  0  0  0  0  0  0  0  0  0  0
   40.6740   22.0730   37.2520 C   0  0  0  0  0  0  0  0  0  0  0  0
   41.9640   23.8860   34.1720 H   0  0  0  0  0  0  0  0  0  0  0  0
   43.2520   21.9700   35.1610 H   0  0  0  0  0  0  0  0  0  0  0  0
   40.2610   21.5830   38.1410 H   0  0  0  0  0  0  0  0  0  0  0  0
   36.9110   25.2360   32.5790 C   0  0  0  0  0  0  0  0  0  0  0  0
   36.1710   26.2500   31.9640 C   0  0  0  0  0  0  0  0  0  0  0  0
   36.2100   27.3080   32.0870 H   0  0  0  0  0  0  0  0  0  0  0  0
   35.0470   25.3160   30.8260 S   0  0  0  0  0  0  0  0  0  0  0  0
   35.8110   23.6800   31.4140 C   0  0  0  0  0  0  0  0  0  0  0  0
   35.6900   22.4950   31.2030 H   0  0  0  0  0  0  0  0  0  0  0  0
   36.5790   24.0090   32.1650 N   0  0  0  0  0  0  0  0  0  0  0  0
  1  7  1  0  0  0  0
  1  6  1  0  0  0  0
  2  1  2  0  0  0  0
  3  2  1  0  0  0  0
  3  4  2  0  0  0  0
  4  5  1  0  0  0  0
  5  6  2  0  0  0  0
  5 11  1  0  0  0  0
  8  2  1  0  0  0  0
 10 16  1  0  0  0  0
 10  9  1  0  0  0  0
 11 10  2  0  0  0  0
 12 13  2  0  0  0  0
 12 11  1  0  0  0  0
 13 14  1  0  0  0  0
 14 16  2  0  0  0  0
 14 15  1  0  0  0  0
 16 19  1  0  0  0  0
 17 12  1  0  0  0  0
 18 13  1  0  0  0  0
 20  3  1  0  0  0  0
 21 22  1  0  0  0  0
 21 20  2  0  0  0  0
 23 24  1  0  0  0  0
 23 21  1  0  0  0  0
 24 26  2  0  0  0  0
 25 24  1  0  0  0  0
 26 20  1  0  0  0  0
M  END
>  <minimizedAffinity>
-4.88397121

$$$$

 OpenBabel03272502433D

 26 28  0  0  0  0  0  0  0  0999 V2000
   36.4110   29.8880   30.6030 C   0  0  0  0  0  0  0  0  0  0  0  0
   35.9830   30.5780   31.7450 C   0  0  0  0  0  0  0  0  0  0  0  0
   35.6160   29.8030   32.8550 C   0  0  0  0  0  0  0  0  0  0  0  0
   35.7020   28.4660   32.7430 N   0  0  0  0  0  0  0  0  0  0  0  0
   36.1170   27.8240   31.6340 C   0  0  0  0  0  0  0  0  0  0  0  0
   36.4690   28.5520   30.5710 N   0  0  0  0  0  0  0  0  0  0  0  0
   36.6850   30.5310   29.7670 H   0  0  0  0  0  0  0  0  0  0  0  0
   35.9300   31.6520   31.7880 H   0  0  0  0  0  0  0  0  0  0  0  0
   38.5670   26.6830   32.8570 Cl  0  0  0  0  0  0  0  0  0  0  0  0
   37.2740   25.7390   32.1680 C   0  0  0  0  0  0  0  0  0  0  0  0
   36.1700   26.3690   31.6190 C   0  0  0  0  0  0  0  0  0  0  0  0
   35.1360   25.6650   31.0680 C   0  0  0  0  0  0  0  0  0  0  0  0
   35.1690   24.2810   31.0470 C   0  0  0  0  0  0  0  0  0  0  0  0
   36.2510   23.6140   31.5830 C   0  0  0  0  0  0  0  0  0  0  0  0
   36.4500   21.8700   31.6380 Cl  0  0  0  0  0  0  0  0  0  0  0  0
   37.2650   24.3650   32.1250 C   0  0  0  0  0  0  0  0  0  0  0  0
   34.2710   26.1720   30.6390 H   0  0  0  0  0  0  0  0  0  0  0  0
   34.3850   23.6630   30.6270 H   0  0  0  0  0  0  0  0  0  0  0  0
   38.1490   23.8900   32.5640 H   0  0  0  0  0  0  0  0  0  0  0  0
   35.1490   30.4450   34.1080 C   0  0  0  0  0  0  0  0  0  0  0  0
   33.7880   30.4660   34.4230 C   0  0  0  0  0  0  0  0  0  0  0  0
   32.9480   30.0770   33.8940 H   0  0  0  0  0  0  0  0  0  0  0  0
   33.7480   31.3610   36.0440 S   0  0  0  0  0  0  0  0  0  0  0  0
   35.6380   31.5460   35.9890 C   0  0  0  0  0  0  0  0  0  0  0  0
   36.5230   32.0200   36.6630 H   0  0  0  0  0  0  0  0  0  0  0  0
   35.9170   31.0410   35.0250 N   0  0  0  0  0  0  0  0  0  0  0  0
  1  2  1  0  0  0  0
  2  8  1  0  0  0  0
  2  3  2  0  0  0  0
  3 20  1  0  0  0  0
  4  3  1  0  0  0  0
  5  4  2  0  0  0  0
  6  1  2  0  0  0  0
  6  5  1  0  0  0  0
  7  1  1  0  0  0  0
 10  9  1  0  0  0  0
 11  5  1  0  0  0  0
 11 10  2  0  0  0  0
 12 11  1  0  0  0  0
 13 12  2  0  0  0  0
 13 14  1  0  0  0  0
 14 15  1  0  0  0  0
 14 16  2  0  0  0  0
 16 10  1  0  0  0  0
 16 19  1  0  0  0  0
 17 12  1  0  0  0  0
 18 13  1  0  0  0  0
 20 21  2  0  0  0  0
 20 26  1  0  0  0  0
 21 23  1  0  0  0  0
 22 21  1  0  0  0  0
 24 23  1  0  0  0  0
 24 25  1  0  0  0  0
 26 24  2  0  0  0  0
M  END
>  <minimizedAffinity>
-4.79134035

$$$$

 OpenBabel03272502433D

 26 28  0  0  0  0  0  0  0  0999 V2000
   34.7770   29.7640   32.7750 C   0  0  0  0  0  0  0  0  0  0  0  0
   35.3050   30.1260   31.5280 C   0  0  0  0  0  0  0  0  0  0  0  0
   36.4900   29.4890   31.1300 C   0  0  0  0  0  0  0  0  0  0  0  0
   37.0280   28.5860   31.9670 N   0  0  0  0  0  0  0  0  0  0  0  0
   36.5030   28.2530   33.1620 C   0  0  0  0  0  0  0  0  0  0  0  0
   35.3750   28.8530   33.5510 N   0  0  0  0  0  0  0  0  0  0  0  0
   33.8580   30.2850   33.0400 H   0  0  0  0  0  0  0  0  0  0  0  0
   34.8380   30.8570   30.8910 H   0  0  0  0  0  0  0  0  0  0  0  0
   36.4560   25.5040   32.0480 Cl  0  0  0  0  0  0  0  0  0  0  0  0
   37.2030   25.9460   33.5600 C   0  0  0  0  0  0  0  0  0  0  0  0
   37.1700   27.2610   33.9930 C   0  0  0  0  0  0  0  0  0  0  0  0
   37.7430   27.6480   35.1720 C   0  0  0  0  0  0  0  0  0  0  0  0
   38.3830   26.7180   35.9740 C   0  0  0  0  0  0  0  0  0  0  0  0
   38.4390   25.3970   35.5790 C   0  0  0  0  0  0  0  0  0  0  0  0
   39.2080   24.0960   36.4730 Cl  0  0  0  0  0  0  0  0  0  0  0  0
   37.8480   25.0560   34.3860 C   0  0  0  0  0  0  0  0  0  0  0  0
   37.7110   28.6860   35.5030 H   0  0  0  0  0  0  0  0  0  0  0  0
   38.8570   26.9560   36.9170 H   0  0  0  0  0  0  0  0  0  0  0  0
   37.8610   24.0240   34.0230 H   0  0  0  0  0  0  0  0  0  0  0  0
   37.1220   29.8090   29.8270 C   0  0  0  0  0  0  0  0  0  0  0  0
   37.0380   31.1010   29.3020 C   0  0  0  0  0  0  0  0  0  0  0  0
   36.5670   31.9760   29.6880 H   0  0  0  0  0  0  0  0  0  0  0  0
   37.9660   30.9650   27.7050 S   0  0  0  0  0  0  0  0  0  0  0  0
   38.3040   29.1290   28.0580 C   0  0  0  0  0  0  0  0  0  0  0  0
   38.8670   28.1950   27.5360 H   0  0  0  0  0  0  0  0  0  0  0  0
   37.8030   28.9610   29.0490 N   0  0  0  0  0  0  0  0  0  0  0  0
  1  7  1  0  0  0  0
  1  6  1  0  0  0  0
  2  1  2  0  0  0  0
  3  2  1  0  0  0  0
  3  4  2  0  0  0  0
  4  5  1  0  0  0  0
  5  6  2  0  0  0  0
  5 11  1  0  0  0  0
  8  2  1  0  0  0  0
  9 10  1  0  0  0  0
 10 11  2  0  0  0  0
 10 16  1  0  0  0  0
 11 12  1  0  0  0  0
 12 17  1  0  0  0  0
 12 13  2  0  0  0  0
 13 18  1  0  0  0  0
 14 13  1  0  0  0  0
 14 15  1  0  0  0  0
 16 14  2  0  0  0  0
 19 16  1  0  0  0  0
 20  3  1  0  0  0  0
 21 22  1  0  0  0  0
 21 20  2  0  0  0  0
 23 24  1  0  0  0  0
 23 21  1  0  0  0  0
 24 26  2  0  0  0  0
 25 24  1  0  0  0  0
 26 20  1  0  0  0  0
M  END
>  <minimizedAffinity>
-4.76830053

$$$$

 OpenBabel03272502433D

 26 28  0  0  0  0  0  0  0  0999 V2000
   38.1420   22.0630   32.4660 C   0  0  0  0  0  0  0  0  0  0  0  0
   38.3910   21.9790   33.8430 C   0  0  0  0  0  0  0  0  0  0  0  0
   38.3750   23.1800   34.5670 C   0  0  0  0  0  0  0  0  0  0  0  0
   38.1230   24.3150   33.8920 N   0  0  0  0  0  0  0  0  0  0  0  0
   37.8860   24.3730   32.5670 C   0  0  0  0  0  0  0  0  0  0  0  0
   37.9000   23.2350   31.8680 N   0  0  0  0  0  0  0  0  0  0  0  0
   38.1660   21.1060   31.9470 H   0  0  0  0  0  0  0  0  0  0  0  0
   38.5890   21.0450   34.3400 H   0  0  0  0  0  0  0  0  0  0  0  0
   35.1540   24.6470   31.4430 Cl  0  0  0  0  0  0  0  0  0  0  0  0
   36.3790   25.8860   31.3790 C   0  0  0  0  0  0  0  0  0  0  0  0
   37.6270   25.6590   31.9350 C   0  0  0  0  0  0  0  0  0  0  0  0
   38.6140   26.6030   31.9060 C   0  0  0  0  0  0  0  0  0  0  0  0
   38.3850   27.8320   31.3090 C   0  0  0  0  0  0  0  0  0  0  0  0
   37.1540   28.0990   30.7440 C   0  0  0  0  0  0  0  0  0  0  0  0
   36.6990   29.5990   29.9530 Cl  0  0  0  0  0  0  0  0  0  0  0  0
   36.1950   27.1180   30.7990 C   0  0  0  0  0  0  0  0  0  0  0  0
   39.5930   26.4140   32.3460 H   0  0  0  0  0  0  0  0  0  0  0  0
   39.1210   28.6230   31.2510 H   0  0  0  0  0  0  0  0  0  0  0  0
   35.2010   27.2740   30.3660 H   0  0  0  0  0  0  0  0  0  0  0  0
   38.6280   23.1890   36.0280 C   0  0  0  0  0  0  0  0  0  0  0  0
   37.6610   23.6830   36.9070 C   0  0  0  0  0  0  0  0  0  0  0  0
   36.6930   24.0890   36.7160 H   0  0  0  0  0  0  0  0  0  0  0  0
   38.4560   23.4710   38.5660 S   0  0  0  0  0  0  0  0  0  0  0  0
   39.9950   22.7330   37.7340 C   0  0  0  0  0  0  0  0  0  0  0  0
   41.0740   22.2880   38.0540 H   0  0  0  0  0  0  0  0  0  0  0  0
   39.7340   22.7570   36.6420 N   0  0  0  0  0  0  0  0  0  0  0  0
  1  2  1  0  0  0  0
  2  8  1  0  0  0  0
  2  3  2  0  0  0  0
  3 20  1  0  0  0  0
  4  3  1  0  0  0  0
  5  4  2  0  0  0  0
  6  1  2  0  0  0  0
  6  5  1  0  0  0  0
  7  1  1  0  0  0  0
 10  9  1  0  0  0  0
 10 11  1  0  0  0  0
 11  5  1  0  0  0  0
 12 11  2  0  0  0  0
 12 17  1  0  0  0  0
 13 12  1  0  0  0  0
 14 16  1  0  0  0  0
 14 13  2  0  0  0  0
 15 14  1  0  0  0  0
 16 10  2  0  0  0  0
 18 13  1  0  0  0  0
 19 16  1  0  0  0  0
 20 26  1  0  0  0  0
 20 21  2  0  0  0  0
 21 23  1  0  0  0  0
 22 21  1  0  0  0  0
 24 25  1  0  0  0  0
 24 23  1  0  0  0  0
 26 24  2  0  0  0  0
M  END
>  <minimizedAffinity>
-4.76221848

$$$$

 OpenBabel03272502433D

 26 28  0  0  0  0  0  0  0  0999 V2000
   34.8280   30.0700   32.1270 C   0  0  0  0  0  0  0  0  0  0  0  0
   35.5940   28.9270   32.3880 C   0  0  0  0  0  0  0  0  0  0  0  0
   36.0660   28.7620   33.6990 C   0  0  0  0  0  0  0  0  0  0  0  0
   35.7500   29.7060   34.6020 N   0  0  0  0  0  0  0  0  0  0  0  0
   35.0100   30.7990   34.3290 C   0  0  0  0  0  0  0  0  0  0  0  0
   34.5560   30.9650   33.0850 N   0  0  0  0  0  0  0  0  0  0  0  0
   34.4850   30.1550   31.0970 H   0  0  0  0  0  0  0  0  0  0  0  0
   35.8230   28.1970   31.6310 H   0  0  0  0  0  0  0  0  0  0  0  0
   36.6530   33.2650   34.1930 Cl  0  0  0  0  0  0  0  0  0  0  0  0
   35.4430   32.9480   35.4080 C   0  0  0  0  0  0  0  0  0  0  0  0
   34.7280   31.7620   35.3840 C   0  0  0  0  0  0  0  0  0  0  0  0
   33.7730   31.4750   36.3180 C   0  0  0  0  0  0  0  0  0  0  0  0
   33.4920   32.3810   37.3280 C   0  0  0  0  0  0  0  0  0  0  0  0
   34.1820   33.5750   37.3870 C   0  0  0  0  0  0  0  0  0  0  0  0
   33.9490   34.8270   38.5960 Cl  0  0  0  0  0  0  0  0  0  0  0  0
   35.1320   33.8170   36.4270 C   0  0  0  0  0  0  0  0  0  0  0  0
   33.2160   30.5390   36.2890 H   0  0  0  0  0  0  0  0  0  0  0  0
   32.7490   32.2170   38.0980 H   0  0  0  0  0  0  0  0  0  0  0  0
   35.7100   34.7470   36.4250 H   0  0  0  0  0  0  0  0  0  0  0  0
   36.8860   27.5830   34.0680 C   0  0  0  0  0  0  0  0  0  0  0  0
   37.6050   27.5730   35.2670 C   0  0  0  0  0  0  0  0  0  0  0  0
   37.6850   28.3100   36.0330 H   0  0  0  0  0  0  0  0  0  0  0  0
   38.4340   25.9170   35.2430 S   0  0  0  0  0  0  0  0  0  0  0  0
   37.6300   25.5380   33.5640 C   0  0  0  0  0  0  0  0  0  0  0  0
   37.6040   24.6420   32.7530 H   0  0  0  0  0  0  0  0  0  0  0  0
   37.0310   26.4640   33.3520 N   0  0  0  0  0  0  0  0  0  0  0  0
  1  2  2  0  0  0  0
  1  6  1  0  0  0  0
  2  3  1  0  0  0  0
  3 20  1  0  0  0  0
  3  4  2  0  0  0  0
  5  4  1  0  0  0  0
  5 11  1  0  0  0  0
  6  5  2  0  0  0  0
  7  1  1  0  0  0  0
  8  2  1  0  0  0  0
  9 10  1  0  0  0  0
 10 16  1  0  0  0  0
 11 10  2  0  0  0  0
 11 12  1  0  0  0  0
 12 13  2  0  0  0  0
 13 14  1  0  0  0  0
 13 18  1  0  0  0  0
 14 15  1  0  0  0  0
 16 14  2  0  0  0  0
 17 12  1  0  0  0  0
 19 16  1  0  0  0  0
 20 21  2  0  0  0  0
 21 22  1  0  0  0  0
 23 21  1  0  0  0  0
 24 23  1  0  0  0  0
 25 24  1  0  0  0  0
 26 24  2  0  0  0  0
 26 20  1  0  0  0  0
M  END
>  <minimizedAffinity>
-4.72710228

$$$$

 OpenBabel03272502433D

 26 28  0  0  0  0  0  0  0  0999 V2000
   36.9510   29.2960   30.9630 C   0  0  0  0  0  0  0  0  0  0  0  0
   35.6670   29.8320   31.1280 C   0  0  0  0  0  0  0  0  0  0  0  0
   34.9440   29.4160   32.2560 C   0  0  0  0  0  0  0  0  0  0  0  0
   35.5320   28.5410   33.0890 N   0  0  0  0  0  0  0  0  0  0  0  0
   36.7690   28.0380   32.9110 C   0  0  0  0  0  0  0  0  0  0  0  0
   37.4660   28.4270   31.8410 N   0  0  0  0  0  0  0  0  0  0  0  0
   37.4730   29.6470   30.0740 H   0  0  0  0  0  0  0  0  0  0  0  0
   35.2370   30.5310   30.4310 H   0  0  0  0  0  0  0  0  0  0  0  0
   36.6890   25.2100   32.0170 Cl  0  0  0  0  0  0  0  0  0  0  0  0
   37.3180   25.7450   33.5530 C   0  0  0  0  0  0  0  0  0  0  0  0
   37.3100   27.0910   33.8770 C   0  0  0  0  0  0  0  0  0  0  0  0
   37.7920   27.5510   35.0700 C   0  0  0  0  0  0  0  0  0  0  0  0
   38.3110   26.6640   35.9990 C   0  0  0  0  0  0  0  0  0  0  0  0
   38.3380   25.3140   35.7160 C   0  0  0  0  0  0  0  0  0  0  0  0
   38.9590   24.0610   36.7780 Cl  0  0  0  0  0  0  0  0  0  0  0  0
   37.8410   24.9010   34.5040 C   0  0  0  0  0  0  0  0  0  0  0  0
   37.7810   28.6130   35.3140 H   0  0  0  0  0  0  0  0  0  0  0  0
   38.7080   26.9600   36.9610 H   0  0  0  0  0  0  0  0  0  0  0  0
   37.8370   23.8420   34.2250 H   0  0  0  0  0  0  0  0  0  0  0  0
   33.5770   29.9290   32.5120 C   0  0  0  0  0  0  0  0  0  0  0  0
   32.8520   29.4800   33.6200 C   0  0  0  0  0  0  0  0  0  0  0  0
   33.1130   28.7810   34.3810 H   0  0  0  0  0  0  0  0  0  0  0  0
   31.2550   30.4070   33.4790 S   0  0  0  0  0  0  0  0  0  0  0  0
   31.8860   31.2530   31.9000 C   0  0  0  0  0  0  0  0  0  0  0  0
   31.4970   32.0580   31.0850 H   0  0  0  0  0  0  0  0  0  0  0  0
   32.9140   30.8210   31.7690 N   0  0  0  0  0  0  0  0  0  0  0  0
  1  2  2  0  0  0  0
  1  6  1  0  0  0  0
  2  3  1  0  0  0  0
  3 20  1  0  0  0  0
  3  4  2  0  0  0  0
  5  4  1  0  0  0  0
  5 11  1  0  0  0  0
  6  5  2  0  0  0  0
  7  1  1  0  0  0  0
  8  2  1  0  0  0  0
  9 10  1  0  0  0  0
 10 11  2  0  0  0  0
 10 16  1  0  0  0  0
 11 12  1  0  0  0  0
 12 17  1  0  0  0  0
 12 13  2  0  0  0  0
 13 18  1  0  0  0  0
 14 13  1  0  0  0  0
 14 15  1  0  0  0  0
 16 14  2  0  0  0  0
 19 16  1  0  0  0  0
 20 21  2  0  0  0  0
 21 22  1  0  0  0  0
 23 21  1  0  0  0  0
 24 23  1  0  0  0  0
 25 24  1  0  0  0  0
 26 24  2  0  0  0  0
 26 20  1  0  0  0  0
M  END
>  <minimizedAffinity>
-4.66291475

$$$$
