
 OpenBabel03272508123D

 32 34  0  0  0  0  0  0  0  0999 V2000
   36.6670   29.4910   44.0830 Cl  0  0  0  0  0  0  0  0  0  0  0  0
   38.3300   29.8380   43.5380 C   0  0  0  0  0  0  0  0  0  0  0  0
   39.3220   30.3180   44.3740 C   0  0  0  0  0  0  0  0  0  0  0  0
   40.5580   30.5370   43.8050 C   0  0  0  0  0  0  0  0  0  0  0  0
   40.8110   30.3000   42.4820 C   0  0  0  0  0  0  0  0  0  0  0  0
   39.8370   29.8300   41.6660 C   0  0  0  0  0  0  0  0  0  0  0  0
   38.5750   29.5900   42.1790 C   0  0  0  0  0  0  0  0  0  0  0  0
   41.2900   30.9110   44.5060 H   0  0  0  0  0  0  0  0  0  0  0  0
   41.8180   30.5100   42.1480 H   0  0  0  0  0  0  0  0  0  0  0  0
   40.0550   29.6490   40.6270 H   0  0  0  0  0  0  0  0  0  0  0  0
   37.4860   29.0750   41.3120 C   0  0  0  0  0  0  0  0  0  0  0  0
   37.3740   27.7080   41.0820 C   0  0  0  0  0  0  0  0  0  0  0  0
   37.9420   26.8250   41.4140 H   0  0  0  0  0  0  0  0  0  0  0  0
   35.8660   27.6060   39.9450 S   0  0  0  0  0  0  0  0  0  0  0  0
   35.7070   29.4930   40.0260 C   0  0  0  0  0  0  0  0  0  0  0  0
   34.9790   30.3250   39.5690 H   0  0  0  0  0  0  0  0  0  0  0  0
   36.5600   29.7920   40.6940 N   0  0  0  0  0  0  0  0  0  0  0  0
   38.8910   30.4950   45.6590 O   0  0  0  0  0  0  0  0  0  0  0  0
   39.5030   32.5440   47.1030 O   0  0  0  0  0  0  0  0  0  0  0  0
   38.3550   31.8890   46.4220 P   0  0  1  0  0  0  0  0  0  0  0  0
   37.7870   32.8870   45.1590 O   0  0  0  0  0  0  0  0  0  0  0  0
   38.5840   33.3250   44.7400 H   0  0  0  0  0  0  0  0  0  0  0  0
   37.0710   31.5010   47.4590 O   0  0  0  0  0  0  0  0  0  0  0  0
   37.6390   30.5190   50.9740 C   0  0  0  0  0  0  0  0  0  0  0  0
   37.7410   31.3260   49.8400 C   0  0  0  0  0  0  0  0  0  0  0  0
   37.1110   30.8960   48.6650 C   0  0  0  0  0  0  0  0  0  0  0  0
   36.4340   29.7100   48.7000 N   0  0  0  0  0  0  0  0  0  0  0  0
   36.3570   28.9570   49.8160 C   0  0  0  0  0  0  0  0  0  0  0  0
   36.9590   29.3630   50.9480 N   0  0  0  0  0  0  0  0  0  0  0  0
   38.1550   30.9440   51.8070 H   0  0  0  0  0  0  0  0  0  0  0  0
   38.2470   32.2550   49.7400 H   0  0  0  0  0  0  0  0  0  0  0  0
   35.8200   28.0180   49.8420 H   0  0  0  0  0  0  0  0  0  0  0  0
  2  1  1  0  0  0  0
  2  3  1  0  0  0  0
  3 18  1  0  0  0  0
  4  3  2  0  0  0  0
  4  8  1  0  0  0  0
  5  4  1  0  0  0  0
  6  7  1  0  0  0  0
  6  5  2  0  0  0  0
  7  2  2  0  0  0  0
  9  5  1  0  0  0  0
 10  6  1  0  0  0  0
 11  7  1  0  0  0  0
 12 11  2  0  0  0  0
 12 13  1  0  0  0  0
 14 15  1  0  0  0  0
 14 12  1  0  0  0  0
 15 17  2  0  0  0  0
 16 15  1  0  0  0  0
 17 11  1  0  0  0  0
 18 20  1  0  0  0  0
 20 19  2  1  0  0  0
 20 23  1  0  0  0  0
 21 20  1  0  0  0  0
 22 21  1  0  0  0  0
 23 26  1  0  0  0  0
 24 30  1  0  0  0  0
 25 24  2  0  0  0  0
 26 27  2  0  0  0  0
 26 25  1  0  0  0  0
 27 28  1  0  0  0  0
 28 32  1  0  0  0  0
 28 29  2  0  0  0  0
 29 24  1  0  0  0  0
 31 25  1  0  0  0  0
M  END
>  <minimizedAffinity>
-4.76709795

>  <minimizedRMSD>
0.512957931

$$$$
