
 OpenBabel03272500313D

 26 28  0  0  0  0  0  0  0  0999 V2000
   36.6280   30.3460   46.1360 Cl  0  0  0  0  0  0  0  0  0  0  0  0
   36.9570   30.5450   47.8620 C   0  0  0  0  0  0  0  0  0  0  0  0
   38.1230   31.1840   48.1780 C   0  0  0  0  0  0  0  0  0  0  0  0
   38.3910   31.3470   49.5310 C   0  0  0  0  0  0  0  0  0  0  0  0
   37.5140   30.8820   50.4670 C   0  0  0  0  0  0  0  0  0  0  0  0
   36.3610   30.2490   50.0550 C   0  0  0  0  0  0  0  0  0  0  0  0
   36.0310   30.0520   48.7380 C   0  0  0  0  0  0  0  0  0  0  0  0
   39.3030   31.8470   49.8170 H   0  0  0  0  0  0  0  0  0  0  0  0
   37.7260   31.0100   51.5210 H   0  0  0  0  0  0  0  0  0  0  0  0
   35.7010   29.8990   50.8510 H   0  0  0  0  0  0  0  0  0  0  0  0
   40.1130   33.4720   46.1640 C   0  0  0  0  0  0  0  0  0  0  0  0
   40.7620   32.6650   45.2330 C   0  0  0  0  0  0  0  0  0  0  0  0
   40.4970   31.2970   45.3120 C   0  0  0  0  0  0  0  0  0  0  0  0
   39.6420   30.8320   46.2700 N   0  0  0  0  0  0  0  0  0  0  0  0
   39.0410   31.6700   47.1480 C   0  0  0  0  0  0  0  0  0  0  0  0
   39.2800   33.0050   47.0940 N   0  0  0  0  0  0  0  0  0  0  0  0
   40.3270   34.5370   46.0940 H   0  0  0  0  0  0  0  0  0  0  0  0
   41.4360   33.0610   44.4860 H   0  0  0  0  0  0  0  0  0  0  0  0
   40.9570   30.6060   44.6310 H   0  0  0  0  0  0  0  0  0  0  0  0
   34.7830   29.3670   48.3360 C   0  0  0  0  0  0  0  0  0  0  0  0
   34.3870   28.1940   48.9210 C   0  0  0  0  0  0  0  0  0  0  0  0
   34.8950   27.6310   49.7120 H   0  0  0  0  0  0  0  0  0  0  0  0
   32.8300   27.7990   48.0780 S   0  0  0  0  0  0  0  0  0  0  0  0
   32.9770   29.3670   47.0170 C   0  0  0  0  0  0  0  0  0  0  0  0
   32.3150   29.8150   46.2000 H   0  0  0  0  0  0  0  0  0  0  0  0
   33.9550   29.8070   47.4040 N   0  0  0  0  0  0  0  0  0  0  0  0
  1  2  1  0  0  0  0
  2  3  2  0  0  0  0
  2  7  1  0  0  0  0
  3  4  1  0  0  0  0
  4  8  1  0  0  0  0
  4  5  2  0  0  0  0
  5  9  1  0  0  0  0
  6  5  1  0  0  0  0
  6 10  1  0  0  0  0
  7  6  2  0  0  0  0
 11 16  1  0  0  0  0
 12 13  1  0  0  0  0
 12 11  2  0  0  0  0
 13 14  2  0  0  0  0
 14 15  1  0  0  0  0
 15  3  1  0  0  0  0
 16 15  2  0  0  0  0
 17 11  1  0  0  0  0
 18 12  1  0  0  0  0
 19 13  1  0  0  0  0
 20  7  1  0  0  0  0
 20 21  2  0  0  0  0
 21 22  1  0  0  0  0
 23 21  1  0  0  0  0
 24 26  2  0  0  0  0
 24 23  1  0  0  0  0
 25 24  1  0  0  0  0
 26 20  1  0  0  0  0
M  END
>  <minimizedAffinity>
-5.99581814

>  <minimizedRMSD>
0.40689978

$$$$
