
 OpenBabel03272506473D

 40 43  0  0  1  0  0  0  0  0999 V2000
   31.9980   28.3790   47.4900 C   0  0  2  0  0  0  0  0  0  0  0  0
   33.2590   28.1620   48.2700 C   0  0  1  0  0  0  0  0  0  0  0  0
   33.6010   26.8490   48.1670 O   0  0  0  0  0  0  0  0  0  0  0  0
   32.8420   26.2560   47.1630 C   0  0  0  0  0  0  0  0  0  0  0  0
   32.2620   27.3720   46.3240 C   0  0  1  0  0  0  0  0  0  0  0  0
   31.0730   28.1280   47.9930 H   0  0  0  0  0  0  0  0  0  0  0  0
   33.0920   28.5170   49.3050 H   0  0  0  0  0  0  0  0  0  0  0  0
   32.1290   25.6110   47.6540 H   0  0  0  0  0  0  0  0  0  0  0  0
   33.5540   25.6760   46.5220 H   0  0  0  0  0  0  0  0  0  0  0  0
   32.9840   27.8610   45.6810 H   0  0  0  0  0  0  0  0  0  0  0  0
   31.9580   29.6870   46.9650 O   0  0  0  0  0  0  0  0  0  0  0  0
   32.3460   29.7330   46.0610 H   0  0  0  0  0  0  0  0  0  0  0  0
   34.5850   29.1600   47.4850 S   0  0  0  0  0  0  0  0  0  0  0  0
   36.9880   29.2530   50.6350 C   0  0  0  0  0  0  0  0  0  0  0  0
   37.3970   30.5870   50.7330 C   0  0  0  0  0  0  0  0  0  0  0  0
   36.9110   31.4950   49.7850 C   0  0  0  0  0  0  0  0  0  0  0  0
   36.0710   31.0350   48.8250 N   0  0  0  0  0  0  0  0  0  0  0  0
   35.6970   29.7400   48.7610 C   0  0  0  0  0  0  0  0  0  0  0  0
   36.1490   28.8320   49.6630 N   0  0  0  0  0  0  0  0  0  0  0  0
   37.3780   28.5730   51.3800 H   0  0  0  0  0  0  0  0  0  0  0  0
   38.0680   30.9470   51.5010 H   0  0  0  0  0  0  0  0  0  0  0  0
   37.1670   32.5460   49.7730 H   0  0  0  0  0  0  0  0  0  0  0  0
   31.0800   26.9440   45.7710 O   0  0  0  0  0  0  0  0  0  0  0  0
   29.8990   29.2060   44.3080 Cl  0  0  0  0  0  0  0  0  0  0  0  0
   29.2030   28.2700   45.6130 C   0  0  0  0  0  0  0  0  0  0  0  0
   29.8560   27.2180   46.2090 C   0  0  0  0  0  0  0  0  0  0  0  0
   29.1880   26.5220   47.2170 C   0  0  0  0  0  0  0  0  0  0  0  0
   27.9140   26.8860   47.5960 C   0  0  0  0  0  0  0  0  0  0  0  0
   27.2530   27.9400   47.0030 C   0  0  0  0  0  0  0  0  0  0  0  0
   27.9210   28.6440   45.9880 C   0  0  0  0  0  0  0  0  0  0  0  0
   29.6030   25.6810   47.7450 H   0  0  0  0  0  0  0  0  0  0  0  0
   27.3660   26.3720   48.3710 H   0  0  0  0  0  0  0  0  0  0  0  0
   26.2590   28.2170   47.3050 H   0  0  0  0  0  0  0  0  0  0  0  0
   27.2640   29.7730   45.3280 C   0  0  0  0  0  0  0  0  0  0  0  0
   27.2930   31.0450   45.8870 C   0  0  0  0  0  0  0  0  0  0  0  0
   27.7630   31.4650   46.8480 H   0  0  0  0  0  0  0  0  0  0  0  0
   26.3220   32.1210   44.6780 S   0  0  0  0  0  0  0  0  0  0  0  0
   26.0590   30.5780   43.6160 C   0  0  0  0  0  0  0  0  0  0  0  0
   25.5100   30.2570   42.5610 H   0  0  0  0  0  0  0  0  0  0  0  0
   26.5920   29.7740   44.1950 N   0  0  0  0  0  0  0  0  0  0  0  0
  1  6  1  1  0  0  0
  1  2  1  0  0  0  0
  2  7  1  1  0  0  0
  3  2  1  0  0  0  0
  4  8  1  0  0  0  0
  4  3  1  0  0  0  0
  5 10  1  6  0  0  0
  5  4  1  0  0  0  0
  5  1  1  0  0  0  0
  9  4  1  0  0  0  0
 11  1  1  0  0  0  0
 12 11  1  0  0  0  0
 13  2  1  0  0  0  0
 13 18  1  0  0  0  0
 14 15  1  0  0  0  0
 14 20  1  0  0  0  0
 15 21  1  0  0  0  0
 16 15  2  0  0  0  0
 17 16  1  0  0  0  0
 18 17  2  0  0  0  0
 18 19  1  0  0  0  0
 19 14  2  0  0  0  0
 22 16  1  0  0  0  0
 23 26  1  0  0  0  0
 23  5  1  0  0  0  0
 24 25  1  0  0  0  0
 25 30  2  0  0  0  0
 25 26  1  0  0  0  0
 26 27  2  0  0  0  0
 27 28  1  0  0  0  0
 27 31  1  0  0  0  0
 28 32  1  0  0  0  0
 29 33  1  0  0  0  0
 29 28  2  0  0  0  0
 30 29  1  0  0  0  0
 34 35  2  0  0  0  0
 34 30  1  0  0  0  0
 35 36  1  0  0  0  0
 37 35  1  0  0  0  0
 38 40  2  0  0  0  0
 38 37  1  0  0  0  0
 39 38  1  0  0  0  0
 40 34  1  0  0  0  0
M  END
>  <minimizedAffinity>
-5.17790174

>  <minimizedRMSD>
0.436995238

$$$$
