
 OpenBabel03262523343D

 38 42  0  0  1  0  0  0  0  0999 V2000
   38.1800   23.8560   38.2880 C   0  0  0  0  0  0  0  0  0  0  0  0
   39.3380   23.1150   38.2230 C   0  0  0  0  0  0  0  0  0  0  0  0
   40.0350   23.0460   37.0190 C   0  0  0  0  0  0  0  0  0  0  0  0
   39.5310   23.7290   35.9320 N   0  0  0  0  0  0  0  0  0  0  0  0
   38.3910   24.4410   36.0510 C   0  0  0  0  0  0  0  0  0  0  0  0
   37.7200   24.5130   37.1930 N   0  0  0  0  0  0  0  0  0  0  0  0
   37.6140   23.9250   39.2280 H   0  0  0  0  0  0  0  0  0  0  0  0
   39.7260   22.5830   39.0810 H   0  0  0  0  0  0  0  0  0  0  0  0
   42.2460   22.8760   36.0460 C   0  0  0  0  0  0  0  0  0  0  0  0
   41.2560   22.2950   36.8370 C   0  0  0  0  0  0  0  0  0  0  0  0
   41.4870   21.0610   37.3830 C   0  0  0  0  0  0  0  0  0  0  0  0
   42.6790   20.4160   37.1490 C   0  0  0  0  0  0  0  0  0  0  0  0
   43.1080   19.2110   37.5810 N   0  0  0  0  0  0  0  0  0  0  0  0
   44.3330   19.0220   37.0860 C   0  0  0  0  0  0  0  0  0  0  0  0
   44.7000   20.0780   36.3460 N   0  0  0  0  0  0  0  0  0  0  0  0
   43.6820   20.9600   36.3720 C   0  0  0  0  0  0  0  0  0  0  0  0
   43.4490   22.2150   35.8140 C   0  0  0  0  0  0  0  0  0  0  0  0
   42.1470   23.8590   35.5700 H   0  0  0  0  0  0  0  0  0  0  0  0
   40.7460   20.5950   37.9910 H   0  0  0  0  0  0  0  0  0  0  0  0
   42.5820   18.5450   38.1910 H   0  0  0  0  0  0  0  0  0  0  0  0
   44.9880   18.1720   37.2210 H   0  0  0  0  0  0  0  0  0  0  0  0
   44.2110   22.6480   35.2130 H   0  0  0  0  0  0  0  0  0  0  0  0
   37.9170   25.1540   34.8750 C   0  0  0  0  0  0  0  0  0  0  0  0
   38.0780   24.7190   33.7040 O   0  0  0  0  0  0  0  0  0  0  0  0
   37.2020   26.4760   35.0580 C   0  0  1  0  0  0  0  0  0  0  0  0
   38.1280   27.6670   35.3770 C   0  0  0  0  0  0  0  0  0  0  0  0
   37.4050   27.5510   34.0870 C   0  0  2  0  0  0  0  0  0  0  0  0
   36.3120   26.4090   35.6980 H   0  0  0  0  0  0  0  0  0  0  0  0
   39.1980   27.4380   35.4470 H   0  0  0  0  0  0  0  0  0  0  0  0
   37.7240   28.3430   36.1330 H   0  0  0  0  0  0  0  0  0  0  0  0
   38.0770   27.2960   33.2260 H   0  0  0  0  0  0  0  0  0  0  0  0
   36.2610   28.4620   33.7870 C   0  0  0  0  0  0  0  0  0  0  0  0
   35.6720   28.2840   32.4650 C   0  0  0  0  0  0  0  0  0  0  0  0
   35.8980   27.6600   31.7220 H   0  0  0  0  0  0  0  0  0  0  0  0
   34.3530   29.5610   32.5310 S   0  0  0  0  0  0  0  0  0  0  0  0
   34.8100   30.1070   34.2950 C   0  0  0  0  0  0  0  0  0  0  0  0
   34.4230   30.8560   34.9890 H   0  0  0  0  0  0  0  0  0  0  0  0
   35.8650   29.3430   34.7050 N   0  0  0  0  0  0  0  0  0  0  0  0
  1  7  1  0  0  0  0
  2  1  1  0  0  0  0
  2  8  1  0  0  0  0
  3  2  2  0  0  0  0
  4  5  2  0  0  0  0
  4  3  1  0  0  0  0
  5  6  1  0  0  0  0
  6  1  2  0  0  0  0
  9 10  1  0  0  0  0
 10  3  1  0  0  0  0
 10 11  2  0  0  0  0
 11 19  1  0  0  0  0
 12 11  1  0  0  0  0
 12 13  1  0  0  0  0
 13 20  1  0  0  0  0
 14 21  1  0  0  0  0
 14 13  1  0  0  0  0
 15 16  1  0  0  0  0
 15 14  2  0  0  0  0
 16 12  2  0  0  0  0
 17  9  2  0  0  0  0
 17 16  1  0  0  0  0
 18  9  1  0  0  0  0
 22 17  1  0  0  0  0
 23 25  1  0  0  0  0
 23  5  1  0  0  0  0
 24 23  2  0  0  0  0
 25 26  1  0  0  0  0
 25 28  1  1  0  0  0
 26 29  1  0  0  0  0
 26 30  1  0  0  0  0
 27 31  1  6  0  0  0
 27 25  1  0  0  0  0
 27 26  1  0  0  0  0
 32 27  1  0  0  0  0
 32 38  1  0  0  0  0
 33 35  1  0  0  0  0
 33 32  2  0  0  0  0
 34 33  1  0  0  0  0
 35 36  1  0  0  0  0
 36 38  2  0  0  0  0
 36 37  1  0  0  0  0
M  END
>  <minimizedAffinity>
-6.09340048

$$$$

 OpenBabel03262523343D

 38 42  0  0  1  0  0  0  0  0999 V2000
   35.5160   26.2130   31.2870 C   0  0  0  0  0  0  0  0  0  0  0  0
   35.4150   24.8430   31.1930 C   0  0  0  0  0  0  0  0  0  0  0  0
   36.4670   24.0520   31.6460 C   0  0  0  0  0  0  0  0  0  0  0  0
   37.5760   24.6780   32.1750 N   0  0  0  0  0  0  0  0  0  0  0  0
   37.6230   26.0250   32.2450 C   0  0  0  0  0  0  0  0  0  0  0  0
   36.6270   26.7870   31.8160 N   0  0  0  0  0  0  0  0  0  0  0  0
   34.6980   26.8580   30.9360 H   0  0  0  0  0  0  0  0  0  0  0  0
   34.5420   24.3610   30.7770 H   0  0  0  0  0  0  0  0  0  0  0  0
   37.5320   22.0010   30.9200 C   0  0  0  0  0  0  0  0  0  0  0  0
   36.4700   22.6070   31.5910 C   0  0  0  0  0  0  0  0  0  0  0  0
   35.5000   21.8150   32.1440 C   0  0  0  0  0  0  0  0  0  0  0  0
   35.5820   20.4470   32.0350 C   0  0  0  0  0  0  0  0  0  0  0  0
   34.7480   19.4920   32.4980 N   0  0  0  0  0  0  0  0  0  0  0  0
   35.2530   18.3110   32.1380 C   0  0  0  0  0  0  0  0  0  0  0  0
   36.3930   18.4850   31.4550 N   0  0  0  0  0  0  0  0  0  0  0  0
   36.6170   19.8110   31.3790 C   0  0  0  0  0  0  0  0  0  0  0  0
   37.6050   20.6140   30.8140 C   0  0  0  0  0  0  0  0  0  0  0  0
   38.3510   22.5550   30.4470 H   0  0  0  0  0  0  0  0  0  0  0  0
   34.6780   22.2550   32.6620 H   0  0  0  0  0  0  0  0  0  0  0  0
   33.8660   19.6440   33.0380 H   0  0  0  0  0  0  0  0  0  0  0  0
   34.8580   17.3230   32.3340 H   0  0  0  0  0  0  0  0  0  0  0  0
   38.4090   20.1410   30.3060 H   0  0  0  0  0  0  0  0  0  0  0  0
   38.8110   26.6270   32.8270 C   0  0  0  0  0  0  0  0  0  0  0  0
   39.5020   27.4900   32.2260 O   0  0  0  0  0  0  0  0  0  0  0  0
   39.2440   26.2010   34.2150 C   0  0  1  0  0  0  0  0  0  0  0  0
   38.8110   27.1590   35.3430 C   0  0  0  0  0  0  0  0  0  0  0  0
   38.2360   25.8000   35.1970 C   0  0  2  0  0  0  0  0  0  0  0  0
   40.2920   25.8800   34.2700 H   0  0  0  0  0  0  0  0  0  0  0  0
   38.2490   28.0470   35.0300 H   0  0  0  0  0  0  0  0  0  0  0  0
   39.5800   27.3130   36.1030 H   0  0  0  0  0  0  0  0  0  0  0  0
   37.1780   25.8070   34.8250 H   0  0  0  0  0  0  0  0  0  0  0  0
   38.5880   24.7300   36.1780 C   0  0  0  0  0  0  0  0  0  0  0  0
   39.7190   23.8960   35.7890 C   0  0  0  0  0  0  0  0  0  0  0  0
   40.3020   23.9130   34.9810 H   0  0  0  0  0  0  0  0  0  0  0  0
   39.7910   22.7650   37.2340 S   0  0  0  0  0  0  0  0  0  0  0  0
   38.3120   23.5920   38.1000 C   0  0  0  0  0  0  0  0  0  0  0  0
   37.7840   23.4230   39.0410 H   0  0  0  0  0  0  0  0  0  0  0  0
   37.8780   24.6090   37.2990 N   0  0  0  0  0  0  0  0  0  0  0  0
  1  6  1  0  0  0  0
  2  1  2  0  0  0  0
  2  3  1  0  0  0  0
  3  4  2  0  0  0  0
  4  5  1  0  0  0  0
  5 23  1  0  0  0  0
  6  5  2  0  0  0  0
  7  1  1  0  0  0  0
  8  2  1  0  0  0  0
  9 10  1  0  0  0  0
 10  3  1  0  0  0  0
 10 11  2  0  0  0  0
 11 19  1  0  0  0  0
 12 11  1  0  0  0  0
 12 13  1  0  0  0  0
 13 20  1  0  0  0  0
 14 21  1  0  0  0  0
 14 13  1  0  0  0  0
 15 14  2  0  0  0  0
 16 15  1  0  0  0  0
 16 12  2  0  0  0  0
 17  9  2  0  0  0  0
 17 16  1  0  0  0  0
 18  9  1  0  0  0  0
 22 17  1  0  0  0  0
 23 25  1  0  0  0  0
 24 23  2  0  0  0  0
 25 28  1  1  0  0  0
 25 27  1  0  0  0  0
 25 26  1  0  0  0  0
 26 30  1  0  0  0  0
 27 31  1  6  0  0  0
 27 26  1  0  0  0  0
 27 32  1  0  0  0  0
 29 26  1  0  0  0  0
 32 38  1  0  0  0  0
 33 32  2  0  0  0  0
 33 35  1  0  0  0  0
 34 33  1  0  0  0  0
 35 36  1  0  0  0  0
 36 37  1  0  0  0  0
 38 36  2  0  0  0  0
M  END
>  <minimizedAffinity>
-6.04051924

$$$$

 OpenBabel03262523343D

 38 42  0  0  1  0  0  0  0  0999 V2000
   37.4740   27.2990   35.2890 C   0  0  0  0  0  0  0  0  0  0  0  0
   38.4330   26.4620   35.8140 C   0  0  0  0  0  0  0  0  0  0  0  0
   38.9080   25.4050   35.0430 C   0  0  0  0  0  0  0  0  0  0  0  0
   38.3950   25.2370   33.7750 N   0  0  0  0  0  0  0  0  0  0  0  0
   37.4560   26.0870   33.3080 C   0  0  0  0  0  0  0  0  0  0  0  0
   36.9970   27.0970   34.0340 N   0  0  0  0  0  0  0  0  0  0  0  0
   37.0840   28.1400   35.8790 H   0  0  0  0  0  0  0  0  0  0  0  0
   38.8300   26.6010   36.8110 H   0  0  0  0  0  0  0  0  0  0  0  0
   41.1820   24.5770   34.9410 C   0  0  0  0  0  0  0  0  0  0  0  0
   39.9080   24.4640   35.4960 C   0  0  0  0  0  0  0  0  0  0  0  0
   39.6740   23.4800   36.4190 C   0  0  0  0  0  0  0  0  0  0  0  0
   40.6870   22.6240   36.7840 C   0  0  0  0  0  0  0  0  0  0  0  0
   40.6750   21.5980   37.6610 N   0  0  0  0  0  0  0  0  0  0  0  0
   41.8990   21.0660   37.6710 C   0  0  0  0  0  0  0  0  0  0  0  0
   42.6970   21.7280   36.8210 N   0  0  0  0  0  0  0  0  0  0  0  0
   41.9600   22.7050   36.2570 C   0  0  0  0  0  0  0  0  0  0  0  0
   42.2000   23.7040   35.3170 C   0  0  0  0  0  0  0  0  0  0  0  0
   41.4580   25.3330   34.1970 H   0  0  0  0  0  0  0  0  0  0  0  0
   38.7090   23.3730   36.8580 H   0  0  0  0  0  0  0  0  0  0  0  0
   39.8600   21.2730   38.2300 H   0  0  0  0  0  0  0  0  0  0  0  0
   42.2640   20.2300   38.2520 H   0  0  0  0  0  0  0  0  0  0  0  0
   43.1750   23.7810   34.9010 H   0  0  0  0  0  0  0  0  0  0  0  0
   36.9640   25.8700   31.9570 C   0  0  0  0  0  0  0  0  0  0  0  0
   36.9430   26.7780   31.0850 O   0  0  0  0  0  0  0  0  0  0  0  0
   36.4510   24.4970   31.5760 C   0  0  1  0  0  0  0  0  0  0  0  0
   37.3740   23.7100   30.6240 C   0  0  0  0  0  0  0  0  0  0  0  0
   37.1610   23.3040   32.0360 C   0  0  2  0  0  0  0  0  0  0  0  0
   35.3910   24.4880   31.2900 H   0  0  0  0  0  0  0  0  0  0  0  0
   38.2930   24.2200   30.3160 H   0  0  0  0  0  0  0  0  0  0  0  0
   36.8350   23.1640   29.8470 H   0  0  0  0  0  0  0  0  0  0  0  0
   38.0510   23.5010   32.6890 H   0  0  0  0  0  0  0  0  0  0  0  0
   36.3660   22.0810   32.3500 C   0  0  0  0  0  0  0  0  0  0  0  0
   35.5370   21.5950   31.2520 C   0  0  0  0  0  0  0  0  0  0  0  0
   35.4080   21.9370   30.3240 H   0  0  0  0  0  0  0  0  0  0  0  0
   34.7680   20.1340   32.0560 S   0  0  0  0  0  0  0  0  0  0  0  0
   35.6750   20.4200   33.7040 C   0  0  0  0  0  0  0  0  0  0  0  0
   35.6910   19.9070   34.6680 H   0  0  0  0  0  0  0  0  0  0  0  0
   36.4560   21.5310   33.5600 N   0  0  0  0  0  0  0  0  0  0  0  0
  1  2  1  0  0  0  0
  1  7  1  0  0  0  0
  2  8  1  0  0  0  0
  3 10  1  0  0  0  0
  3  2  2  0  0  0  0
  4  3  1  0  0  0  0
  5  4  2  0  0  0  0
  5  6  1  0  0  0  0
  6  1  2  0  0  0  0
  9 17  2  0  0  0  0
  9 10  1  0  0  0  0
 10 11  2  0  0  0  0
 11 12  1  0  0  0  0
 11 19  1  0  0  0  0
 12 13  1  0  0  0  0
 13 14  1  0  0  0  0
 13 20  1  0  0  0  0
 14 21  1  0  0  0  0
 15 14  2  0  0  0  0
 16 12  2  0  0  0  0
 16 15  1  0  0  0  0
 17 16  1  0  0  0  0
 18  9  1  0  0  0  0
 22 17  1  0  0  0  0
 23  5  1  0  0  0  0
 24 23  2  0  0  0  0
 25 28  1  6  0  0  0
 25 23  1  0  0  0  0
 25 27  1  0  0  0  0
 26 25  1  0  0  0  0
 26 27  1  0  0  0  0
 27 32  1  0  0  0  0
 27 31  1  1  0  0  0
 29 26  1  0  0  0  0
 30 26  1  0  0  0  0
 32 38  1  0  0  0  0
 33 35  1  0  0  0  0
 33 32  2  0  0  0  0
 34 33  1  0  0  0  0
 35 36  1  0  0  0  0
 36 37  1  0  0  0  0
 38 36  2  0  0  0  0
M  END
>  <minimizedAffinity>
-5.98853683

$$$$

 OpenBabel03262523343D

 38 42  0  0  1  0  0  0  0  0999 V2000
   35.9000   28.1860   31.3510 C   0  0  0  0  0  0  0  0  0  0  0  0
   35.2440   29.0510   32.1990 C   0  0  0  0  0  0  0  0  0  0  0  0
   35.6530   29.1430   33.5260 C   0  0  0  0  0  0  0  0  0  0  0  0
   36.7070   28.3570   33.9420 N   0  0  0  0  0  0  0  0  0  0  0  0
   37.3150   27.5260   33.0700 C   0  0  0  0  0  0  0  0  0  0  0  0
   36.9340   27.4310   31.8040 N   0  0  0  0  0  0  0  0  0  0  0  0
   35.5950   28.0960   30.3000 H   0  0  0  0  0  0  0  0  0  0  0  0
   34.4180   29.6630   31.8630 H   0  0  0  0  0  0  0  0  0  0  0  0
   35.8840   30.7650   35.3100 C   0  0  0  0  0  0  0  0  0  0  0  0
   35.0330   30.0120   34.5010 C   0  0  0  0  0  0  0  0  0  0  0  0
   33.6800   30.1280   34.6760 C   0  0  0  0  0  0  0  0  0  0  0  0
   33.1800   30.9770   35.6360 C   0  0  0  0  0  0  0  0  0  0  0  0
   31.9000   31.2400   35.9730 N   0  0  0  0  0  0  0  0  0  0  0  0
   31.9230   32.1310   36.9660 C   0  0  0  0  0  0  0  0  0  0  0  0
   33.1890   32.4480   37.2730 N   0  0  0  0  0  0  0  0  0  0  0  0
   33.9900   31.7380   36.4550 C   0  0  0  0  0  0  0  0  0  0  0  0
   35.3670   31.6210   36.2790 C   0  0  0  0  0  0  0  0  0  0  0  0
   36.9770   30.7350   35.2400 H   0  0  0  0  0  0  0  0  0  0  0  0
   33.0100   29.5630   34.0700 H   0  0  0  0  0  0  0  0  0  0  0  0
   31.0440   30.8240   35.5410 H   0  0  0  0  0  0  0  0  0  0  0  0
   31.0880   32.5760   37.4890 H   0  0  0  0  0  0  0  0  0  0  0  0
   36.0050   32.2000   36.9010 H   0  0  0  0  0  0  0  0  0  0  0  0
   38.4310   26.7340   33.5630 C   0  0  0  0  0  0  0  0  0  0  0  0
   39.6270   26.9770   33.2550 O   0  0  0  0  0  0  0  0  0  0  0  0
   38.1500   25.5640   34.4830 C   0  0  1  0  0  0  0  0  0  0  0  0
   38.1770   24.1850   33.7930 C   0  0  0  0  0  0  0  0  0  0  0  0
   39.2100   24.5990   34.7740 C   0  0  2  0  0  0  0  0  0  0  0  0
   37.2890   25.7230   35.1450 H   0  0  0  0  0  0  0  0  0  0  0  0
   38.3860   24.1910   32.7160 H   0  0  0  0  0  0  0  0  0  0  0  0
   37.3870   23.5120   34.1320 H   0  0  0  0  0  0  0  0  0  0  0  0
   40.2020   24.8230   34.3010 H   0  0  0  0  0  0  0  0  0  0  0  0
   39.2470   23.9730   36.1280 C   0  0  0  0  0  0  0  0  0  0  0  0
   38.1550   24.3660   37.0110 C   0  0  0  0  0  0  0  0  0  0  0  0
   37.3840   24.9820   36.8700 H   0  0  0  0  0  0  0  0  0  0  0  0
   38.5880   23.3920   38.5060 S   0  0  0  0  0  0  0  0  0  0  0  0
   40.1380   22.6340   37.7040 C   0  0  0  0  0  0  0  0  0  0  0  0
   40.9080   21.9340   38.0360 H   0  0  0  0  0  0  0  0  0  0  0  0
   40.2320   23.1290   36.4350 N   0  0  0  0  0  0  0  0  0  0  0  0
  1  6  2  0  0  0  0
  1  2  1  0  0  0  0
  2  3  2  0  0  0  0
  3  4  1  0  0  0  0
  3 10  1  0  0  0  0
  5 23  1  0  0  0  0
  5  4  2  0  0  0  0
  6  5  1  0  0  0  0
  7  1  1  0  0  0  0
  8  2  1  0  0  0  0
  9 17  1  0  0  0  0
 10 11  1  0  0  0  0
 10  9  2  0  0  0  0
 11 12  2  0  0  0  0
 12 13  1  0  0  0  0
 12 16  1  0  0  0  0
 13 14  1  0  0  0  0
 14 15  2  0  0  0  0
 14 21  1  0  0  0  0
 16 15  1  0  0  0  0
 17 16  2  0  0  0  0
 17 22  1  0  0  0  0
 18  9  1  0  0  0  0
 19 11  1  0  0  0  0
 20 13  1  0  0  0  0
 23 25  1  0  0  0  0
 24 23  2  0  0  0  0
 25 27  1  0  0  0  0
 25 28  1  1  0  0  0
 26 30  1  0  0  0  0
 26 25  1  0  0  0  0
 26 27  1  0  0  0  0
 27 31  1  6  0  0  0
 27 32  1  0  0  0  0
 29 26  1  0  0  0  0
 32 38  1  0  0  0  0
 32 33  2  0  0  0  0
 33 35  1  0  0  0  0
 34 33  1  0  0  0  0
 36 37  1  0  0  0  0
 36 35  1  0  0  0  0
 38 36  2  0  0  0  0
M  END
>  <minimizedAffinity>
-5.75700331

$$$$

 OpenBabel03262523343D

 38 42  0  0  1  0  0  0  0  0999 V2000
   36.7750   29.2010   30.4300 C   0  0  0  0  0  0  0  0  0  0  0  0
   36.2700   29.9060   31.5000 C   0  0  0  0  0  0  0  0  0  0  0  0
   35.5380   29.2320   32.4730 C   0  0  0  0  0  0  0  0  0  0  0  0
   35.3450   27.8740   32.3250 N   0  0  0  0  0  0  0  0  0  0  0  0
   35.8620   27.2320   31.2560 C   0  0  0  0  0  0  0  0  0  0  0  0
   36.5610   27.8640   30.3240 N   0  0  0  0  0  0  0  0  0  0  0  0
   37.3560   29.7120   29.6500 H   0  0  0  0  0  0  0  0  0  0  0  0
   36.4260   30.9700   31.6080 H   0  0  0  0  0  0  0  0  0  0  0  0
   33.5970   29.6710   33.8540 C   0  0  0  0  0  0  0  0  0  0  0  0
   34.9590   29.8720   33.6330 C   0  0  0  0  0  0  0  0  0  0  0  0
   35.6620   30.6580   34.5070 C   0  0  0  0  0  0  0  0  0  0  0  0
   35.0240   31.2340   35.5810 C   0  0  0  0  0  0  0  0  0  0  0  0
   35.5170   32.0340   36.5500 N   0  0  0  0  0  0  0  0  0  0  0  0
   34.5080   32.3390   37.3680 C   0  0  0  0  0  0  0  0  0  0  0  0
   33.3780   31.7530   36.9470 N   0  0  0  0  0  0  0  0  0  0  0  0
   33.6780   31.0580   35.8320 C   0  0  0  0  0  0  0  0  0  0  0  0
   32.9610   30.2590   34.9450 C   0  0  0  0  0  0  0  0  0  0  0  0
   32.9580   29.0590   33.2080 H   0  0  0  0  0  0  0  0  0  0  0  0
   36.7040   30.8270   34.3590 H   0  0  0  0  0  0  0  0  0  0  0  0
   36.5060   32.3590   36.6460 H   0  0  0  0  0  0  0  0  0  0  0  0
   34.5260   32.9570   38.2560 H   0  0  0  0  0  0  0  0  0  0  0  0
   31.9240   30.1130   35.1240 H   0  0  0  0  0  0  0  0  0  0  0  0
   35.6400   25.7980   31.1620 C   0  0  0  0  0  0  0  0  0  0  0  0
   34.7960   25.2890   30.3790 O   0  0  0  0  0  0  0  0  0  0  0  0
   36.4530   24.8710   32.0420 C   0  0  1  0  0  0  0  0  0  0  0  0
   37.8530   24.5310   31.4930 C   0  0  0  0  0  0  0  0  0  0  0  0
   37.6600   25.3700   32.7010 C   0  0  2  0  0  0  0  0  0  0  0  0
   35.8870   24.0050   32.4090 H   0  0  0  0  0  0  0  0  0  0  0  0
   38.1130   24.9810   30.5280 H   0  0  0  0  0  0  0  0  0  0  0  0
   38.1350   23.4860   31.6340 H   0  0  0  0  0  0  0  0  0  0  0  0
   37.8860   26.4550   32.5240 H   0  0  0  0  0  0  0  0  0  0  0  0
   38.0070   24.8310   34.0490 C   0  0  0  0  0  0  0  0  0  0  0  0
   38.5650   23.4830   34.0390 C   0  0  0  0  0  0  0  0  0  0  0  0
   38.7550   22.8550   33.2900 H   0  0  0  0  0  0  0  0  0  0  0  0
   38.8330   23.2380   35.8390 S   0  0  0  0  0  0  0  0  0  0  0  0
   38.1620   24.9600   36.2910 C   0  0  0  0  0  0  0  0  0  0  0  0
   38.0220   25.5070   37.2260 H   0  0  0  0  0  0  0  0  0  0  0  0
   37.7970   25.5800   35.1300 N   0  0  0  0  0  0  0  0  0  0  0  0
  1  2  1  0  0  0  0
  2  8  1  0  0  0  0
  2  3  2  0  0  0  0
  3 10  1  0  0  0  0
  4  3  1  0  0  0  0
  5  4  2  0  0  0  0
  6  1  2  0  0  0  0
  6  5  1  0  0  0  0
  7  1  1  0  0  0  0
  9 17  1  0  0  0  0
 10  9  2  0  0  0  0
 10 11  1  0  0  0  0
 11 12  2  0  0  0  0
 12 16  1  0  0  0  0
 12 13  1  0  0  0  0
 13 20  1  0  0  0  0
 13 14  1  0  0  0  0
 14 21  1  0  0  0  0
 15 14  2  0  0  0  0
 16 15  1  0  0  0  0
 17 22  1  0  0  0  0
 17 16  2  0  0  0  0
 18  9  1  0  0  0  0
 19 11  1  0  0  0  0
 23  5  1  0  0  0  0
 23 25  1  0  0  0  0
 24 23  2  0  0  0  0
 25 28  1  1  0  0  0
 25 27  1  0  0  0  0
 26 30  1  0  0  0  0
 26 25  1  0  0  0  0
 26 27  1  0  0  0  0
 27 31  1  6  0  0  0
 27 32  1  0  0  0  0
 29 26  1  0  0  0  0
 32 38  1  0  0  0  0
 33 32  2  0  0  0  0
 33 35  1  0  0  0  0
 34 33  1  0  0  0  0
 35 36  1  0  0  0  0
 36 37  1  0  0  0  0
 38 36  2  0  0  0  0
M  END
>  <minimizedAffinity>
-5.71510792

$$$$

 OpenBabel03262523343D

 38 42  0  0  1  0  0  0  0  0999 V2000
   37.4590   26.2270   31.0360 C   0  0  0  0  0  0  0  0  0  0  0  0
   37.9290   25.4300   32.0560 C   0  0  0  0  0  0  0  0  0  0  0  0
   37.7810   25.8540   33.3740 C   0  0  0  0  0  0  0  0  0  0  0  0
   37.1660   27.0660   33.6060 N   0  0  0  0  0  0  0  0  0  0  0  0
   36.7230   27.8080   32.5700 C   0  0  0  0  0  0  0  0  0  0  0  0
   36.8590   27.4140   31.3110 N   0  0  0  0  0  0  0  0  0  0  0  0
   37.5640   25.9130   29.9890 H   0  0  0  0  0  0  0  0  0  0  0  0
   38.4100   24.4810   31.8640 H   0  0  0  0  0  0  0  0  0  0  0  0
   39.2560   24.1700   34.2980 C   0  0  0  0  0  0  0  0  0  0  0  0
   38.2420   25.1000   34.5190 C   0  0  0  0  0  0  0  0  0  0  0  0
   37.7390   25.2430   35.7840 C   0  0  0  0  0  0  0  0  0  0  0  0
   38.2350   24.4760   36.8130 C   0  0  0  0  0  0  0  0  0  0  0  0
   37.8880   24.4530   38.1170 N   0  0  0  0  0  0  0  0  0  0  0  0
   38.6530   23.5390   38.7180 C   0  0  0  0  0  0  0  0  0  0  0  0
   39.4830   22.9740   37.8290 N   0  0  0  0  0  0  0  0  0  0  0  0
   39.2380   23.5450   36.6330 C   0  0  0  0  0  0  0  0  0  0  0  0
   39.7510   23.3980   35.3460 C   0  0  0  0  0  0  0  0  0  0  0  0
   39.7160   23.9900   33.3200 H   0  0  0  0  0  0  0  0  0  0  0  0
   36.9630   25.9480   35.9780 H   0  0  0  0  0  0  0  0  0  0  0  0
   37.1560   25.0400   38.5780 H   0  0  0  0  0  0  0  0  0  0  0  0
   38.6580   23.2470   39.7590 H   0  0  0  0  0  0  0  0  0  0  0  0
   40.5240   22.6850   35.1900 H   0  0  0  0  0  0  0  0  0  0  0  0
   36.0680   29.0690   32.8780 C   0  0  0  0  0  0  0  0  0  0  0  0
   36.0140   30.0270   32.0620 O   0  0  0  0  0  0  0  0  0  0  0  0
   35.4220   29.2470   34.2370 C   0  0  1  0  0  0  0  0  0  0  0  0
   36.0890   30.3140   35.1280 C   0  0  0  0  0  0  0  0  0  0  0  0
   34.7330   30.4980   34.5540 C   0  0  2  0  0  0  0  0  0  0  0  0
   35.2070   28.3000   34.7480 H   0  0  0  0  0  0  0  0  0  0  0  0
   36.9580   30.8250   34.6980 H   0  0  0  0  0  0  0  0  0  0  0  0
   36.1670   30.0190   36.1770 H   0  0  0  0  0  0  0  0  0  0  0  0
   34.7050   31.2510   33.7240 H   0  0  0  0  0  0  0  0  0  0  0  0
   33.5330   30.4410   35.4410 C   0  0  0  0  0  0  0  0  0  0  0  0
   32.5410   29.4440   35.0580 C   0  0  0  0  0  0  0  0  0  0  0  0
   32.5210   28.7890   34.3070 H   0  0  0  0  0  0  0  0  0  0  0  0
   31.2900   29.7190   36.3750 S   0  0  0  0  0  0  0  0  0  0  0  0
   32.2970   31.1050   37.2010 C   0  0  0  0  0  0  0  0  0  0  0  0
   32.1470   31.7460   38.0730 H   0  0  0  0  0  0  0  0  0  0  0  0
   33.4460   31.2690   36.4810 N   0  0  0  0  0  0  0  0  0  0  0  0
  1  6  2  0  0  0  0
  1  2  1  0  0  0  0
  2  3  2  0  0  0  0
  3  4  1  0  0  0  0
  3 10  1  0  0  0  0
  5 23  1  0  0  0  0
  5  4  2  0  0  0  0
  6  5  1  0  0  0  0
  7  1  1  0  0  0  0
  8  2  1  0  0  0  0
  9 10  2  0  0  0  0
  9 17  1  0  0  0  0
 10 11  1  0  0  0  0
 11 19  1  0  0  0  0
 11 12  2  0  0  0  0
 12 13  1  0  0  0  0
 13 20  1  0  0  0  0
 13 14  1  0  0  0  0
 14 21  1  0  0  0  0
 15 14  2  0  0  0  0
 16 12  1  0  0  0  0
 16 15  1  0  0  0  0
 17 16  2  0  0  0  0
 18  9  1  0  0  0  0
 22 17  1  0  0  0  0
 23 25  1  0  0  0  0
 24 23  2  0  0  0  0
 25 27  1  0  0  0  0
 25 28  1  1  0  0  0
 25 26  1  0  0  0  0
 26 30  1  0  0  0  0
 27 31  1  6  0  0  0
 27 26  1  0  0  0  0
 27 32  1  0  0  0  0
 29 26  1  0  0  0  0
 32 38  1  0  0  0  0
 33 32  2  0  0  0  0
 33 35  1  0  0  0  0
 34 33  1  0  0  0  0
 35 36  1  0  0  0  0
 36 37  1  0  0  0  0
 38 36  2  0  0  0  0
M  END
>  <minimizedAffinity>
-5.71332741

$$$$

 OpenBabel03262523343D

 38 42  0  0  1  0  0  0  0  0999 V2000
   36.5050   28.6700   30.6120 C   0  0  0  0  0  0  0  0  0  0  0  0
   35.8870   29.4690   31.5480 C   0  0  0  0  0  0  0  0  0  0  0  0
   35.6860   28.9780   32.8350 C   0  0  0  0  0  0  0  0  0  0  0  0
   36.1180   27.7000   33.1220 N   0  0  0  0  0  0  0  0  0  0  0  0
   36.7200   26.9600   32.1680 C   0  0  0  0  0  0  0  0  0  0  0  0
   36.9160   27.4180   30.9390 N   0  0  0  0  0  0  0  0  0  0  0  0
   36.6740   29.0370   29.5900 H   0  0  0  0  0  0  0  0  0  0  0  0
   35.5510   30.4700   31.3130 H   0  0  0  0  0  0  0  0  0  0  0  0
   33.6630   29.5870   34.0180 C   0  0  0  0  0  0  0  0  0  0  0  0
   35.0440   29.7270   33.8920 C   0  0  0  0  0  0  0  0  0  0  0  0
   35.7060   30.5580   34.7550 C   0  0  0  0  0  0  0  0  0  0  0  0
   35.0100   31.2370   35.7270 C   0  0  0  0  0  0  0  0  0  0  0  0
   35.4570   32.0960   36.6680 N   0  0  0  0  0  0  0  0  0  0  0  0
   34.4000   32.4970   37.3770 C   0  0  0  0  0  0  0  0  0  0  0  0
   33.2840   31.9150   36.9140 N   0  0  0  0  0  0  0  0  0  0  0  0
   33.6430   31.1240   35.8830 C   0  0  0  0  0  0  0  0  0  0  0  0
   32.9670   30.2800   35.0060 C   0  0  0  0  0  0  0  0  0  0  0  0
   33.0530   28.9450   33.3720 H   0  0  0  0  0  0  0  0  0  0  0  0
   36.7620   30.6820   34.6790 H   0  0  0  0  0  0  0  0  0  0  0  0
   36.4460   32.3960   36.8180 H   0  0  0  0  0  0  0  0  0  0  0  0
   34.3720   33.1830   38.2130 H   0  0  0  0  0  0  0  0  0  0  0  0
   31.9140   30.1810   35.1120 H   0  0  0  0  0  0  0  0  0  0  0  0
   37.1690   25.6260   32.5350 C   0  0  0  0  0  0  0  0  0  0  0  0
   37.9710   25.4140   33.4810 O   0  0  0  0  0  0  0  0  0  0  0  0
   36.6550   24.4380   31.7480 C   0  0  1  0  0  0  0  0  0  0  0  0
   37.5650   24.0000   30.5830 C   0  0  0  0  0  0  0  0  0  0  0  0
   37.3800   23.1680   31.7970 C   0  0  2  0  0  0  0  0  0  0  0  0
   35.5910   24.5090   31.4900 H   0  0  0  0  0  0  0  0  0  0  0  0
   38.4770   24.5910   30.4370 H   0  0  0  0  0  0  0  0  0  0  0  0
   37.0160   23.7220   29.6810 H   0  0  0  0  0  0  0  0  0  0  0  0
   38.2800   23.1580   32.4660 H   0  0  0  0  0  0  0  0  0  0  0  0
   36.5950   21.9000   31.7210 C   0  0  0  0  0  0  0  0  0  0  0  0
   37.2780   20.8020   31.0470 C   0  0  0  0  0  0  0  0  0  0  0  0
   38.1790   20.7470   30.6260 H   0  0  0  0  0  0  0  0  0  0  0  0
   35.9930   19.4970   31.1840 S   0  0  0  0  0  0  0  0  0  0  0  0
   34.7760   20.6310   32.1090 C   0  0  0  0  0  0  0  0  0  0  0  0
   33.7700   20.5060   32.5160 H   0  0  0  0  0  0  0  0  0  0  0  0
   35.3740   21.8510   32.2510 N   0  0  0  0  0  0  0  0  0  0  0  0
  1  6  2  0  0  0  0
  1  2  1  0  0  0  0
  2  3  2  0  0  0  0
  3  4  1  0  0  0  0
  3 10  1  0  0  0  0
  5 23  1  0  0  0  0
  5  4  2  0  0  0  0
  6  5  1  0  0  0  0
  7  1  1  0  0  0  0
  8  2  1  0  0  0  0
  9 17  1  0  0  0  0
 10  9  2  0  0  0  0
 10 11  1  0  0  0  0
 11 12  2  0  0  0  0
 12 16  1  0  0  0  0
 12 13  1  0  0  0  0
 13 20  1  0  0  0  0
 13 14  1  0  0  0  0
 14 21  1  0  0  0  0
 15 14  2  0  0  0  0
 16 15  1  0  0  0  0
 17 22  1  0  0  0  0
 17 16  2  0  0  0  0
 18  9  1  0  0  0  0
 19 11  1  0  0  0  0
 23 24  2  0  0  0  0
 25 28  1  6  0  0  0
 25 27  1  0  0  0  0
 25 23  1  0  0  0  0
 26 25  1  0  0  0  0
 26 27  1  0  0  0  0
 27 31  1  1  0  0  0
 29 26  1  0  0  0  0
 30 26  1  0  0  0  0
 32 27  1  0  0  0  0
 32 38  1  0  0  0  0
 33 35  1  0  0  0  0
 33 32  2  0  0  0  0
 34 33  1  0  0  0  0
 35 36  1  0  0  0  0
 36 38  2  0  0  0  0
 36 37  1  0  0  0  0
M  END
>  <minimizedAffinity>
-5.65979433

$$$$

 OpenBabel03262523343D

 38 42  0  0  1  0  0  0  0  0999 V2000
   37.3100   21.7760   33.4980 C   0  0  0  0  0  0  0  0  0  0  0  0
   37.3940   22.8810   32.6810 C   0  0  0  0  0  0  0  0  0  0  0  0
   37.8430   24.0880   33.2120 C   0  0  0  0  0  0  0  0  0  0  0  0
   38.1870   24.1270   34.5470 N   0  0  0  0  0  0  0  0  0  0  0  0
   38.0860   23.0140   35.3030 C   0  0  0  0  0  0  0  0  0  0  0  0
   37.6610   21.8600   34.8070 N   0  0  0  0  0  0  0  0  0  0  0  0
   36.9590   20.8140   33.1000 H   0  0  0  0  0  0  0  0  0  0  0  0
   37.1220   22.8410   31.6350 H   0  0  0  0  0  0  0  0  0  0  0  0
   39.1160   26.0680   32.6460 C   0  0  0  0  0  0  0  0  0  0  0  0
   37.9640   25.3090   32.4470 C   0  0  0  0  0  0  0  0  0  0  0  0
   37.0220   25.7560   31.5600 C   0  0  0  0  0  0  0  0  0  0  0  0
   37.2210   26.9360   30.8820 C   0  0  0  0  0  0  0  0  0  0  0  0
   36.4330   27.5530   29.9760 N   0  0  0  0  0  0  0  0  0  0  0  0
   37.0550   28.6740   29.6040 C   0  0  0  0  0  0  0  0  0  0  0  0
   38.2250   28.7890   30.2480 N   0  0  0  0  0  0  0  0  0  0  0  0
   38.3480   27.7140   31.0520 C   0  0  0  0  0  0  0  0  0  0  0  0
   39.3070   27.2620   31.9540 C   0  0  0  0  0  0  0  0  0  0  0  0
   39.9210   25.7870   33.3350 H   0  0  0  0  0  0  0  0  0  0  0  0
   36.1330   25.1930   31.3910 H   0  0  0  0  0  0  0  0  0  0  0  0
   35.5050   27.2210   29.6280 H   0  0  0  0  0  0  0  0  0  0  0  0
   36.7260   29.4200   28.8930 H   0  0  0  0  0  0  0  0  0  0  0  0
   40.1810   27.8490   32.0970 H   0  0  0  0  0  0  0  0  0  0  0  0
   38.4790   23.1120   36.7000 C   0  0  0  0  0  0  0  0  0  0  0  0
   37.6500   23.0670   37.6460 O   0  0  0  0  0  0  0  0  0  0  0  0
   39.9460   23.2790   37.0380 C   0  0  1  0  0  0  0  0  0  0  0  0
   40.6820   21.9640   37.3660 C   0  0  0  0  0  0  0  0  0  0  0  0
   40.9640   22.7420   36.1350 C   0  0  2  0  0  0  0  0  0  0  0  0
   40.1440   24.0970   37.7430 H   0  0  0  0  0  0  0  0  0  0  0  0
   40.0740   21.0520   37.3310 H   0  0  0  0  0  0  0  0  0  0  0  0
   41.3800   22.0520   38.2010 H   0  0  0  0  0  0  0  0  0  0  0  0
   40.5690   22.2550   35.2060 H   0  0  0  0  0  0  0  0  0  0  0  0
   42.2530   23.4820   35.9990 C   0  0  0  0  0  0  0  0  0  0  0  0
   42.1850   24.6750   35.1620 C   0  0  0  0  0  0  0  0  0  0  0  0
   41.4270   25.0850   34.6620 H   0  0  0  0  0  0  0  0  0  0  0  0
   43.9270   25.2430   35.2750 S   0  0  0  0  0  0  0  0  0  0  0  0
   44.4430   23.8050   36.4090 C   0  0  0  0  0  0  0  0  0  0  0  0
   45.3790   23.5030   36.8860 H   0  0  0  0  0  0  0  0  0  0  0  0
   43.3400   23.0290   36.6230 N   0  0  0  0  0  0  0  0  0  0  0  0
  1  6  1  0  0  0  0
  2  3  1  0  0  0  0
  2  1  2  0  0  0  0
  3  4  2  0  0  0  0
  4  5  1  0  0  0  0
  5 23  1  0  0  0  0
  6  5  2  0  0  0  0
  7  1  1  0  0  0  0
  8  2  1  0  0  0  0
  9 18  1  0  0  0  0
 10  9  1  0  0  0  0
 10  3  1  0  0  0  0
 11 10  2  0  0  0  0
 12 16  2  0  0  0  0
 12 11  1  0  0  0  0
 13 12  1  0  0  0  0
 14 13  1  0  0  0  0
 14 15  2  0  0  0  0
 15 16  1  0  0  0  0
 16 17  1  0  0  0  0
 17 22  1  0  0  0  0
 17  9  2  0  0  0  0
 19 11  1  0  0  0  0
 20 13  1  0  0  0  0
 21 14  1  0  0  0  0
 23 25  1  0  0  0  0
 23 24  2  0  0  0  0
 25 26  1  0  0  0  0
 25 28  1  1  0  0  0
 26 30  1  0  0  0  0
 27 31  1  6  0  0  0
 27 25  1  0  0  0  0
 27 26  1  0  0  0  0
 29 26  1  0  0  0  0
 32 27  1  0  0  0  0
 32 38  1  0  0  0  0
 33 35  1  0  0  0  0
 33 32  2  0  0  0  0
 34 33  1  0  0  0  0
 35 36  1  0  0  0  0
 36 38  2  0  0  0  0
 36 37  1  0  0  0  0
M  END
>  <minimizedAffinity>
-5.59706783

$$$$

 OpenBabel03262523343D

 38 42  0  0  1  0  0  0  0  0999 V2000
   38.1720   26.4200   35.4400 C   0  0  0  0  0  0  0  0  0  0  0  0
   37.4720   27.5740   35.1680 C   0  0  0  0  0  0  0  0  0  0  0  0
   36.8690   27.7270   33.9220 C   0  0  0  0  0  0  0  0  0  0  0  0
   36.9990   26.7070   33.0040 N   0  0  0  0  0  0  0  0  0  0  0  0
   37.6960   25.5960   33.3210 C   0  0  0  0  0  0  0  0  0  0  0  0
   38.2740   25.4410   34.5050 N   0  0  0  0  0  0  0  0  0  0  0  0
   38.6550   26.2780   36.4160 H   0  0  0  0  0  0  0  0  0  0  0  0
   37.3750   28.3690   35.8950 H   0  0  0  0  0  0  0  0  0  0  0  0
   35.6170   29.7020   34.5530 C   0  0  0  0  0  0  0  0  0  0  0  0
   36.1160   28.8970   33.5300 C   0  0  0  0  0  0  0  0  0  0  0  0
   35.8640   29.2470   32.2300 C   0  0  0  0  0  0  0  0  0  0  0  0
   35.1300   30.3770   31.9520 C   0  0  0  0  0  0  0  0  0  0  0  0
   34.7680   30.8980   30.7610 N   0  0  0  0  0  0  0  0  0  0  0  0
   34.0600   32.0020   31.0070 C   0  0  0  0  0  0  0  0  0  0  0  0
   33.9590   32.2020   32.3290 N   0  0  0  0  0  0  0  0  0  0  0  0
   34.6200   31.1980   32.9370 C   0  0  0  0  0  0  0  0  0  0  0  0
   34.8750   30.8430   34.2600 C   0  0  0  0  0  0  0  0  0  0  0  0
   35.7700   29.4980   35.6190 H   0  0  0  0  0  0  0  0  0  0  0  0
   36.2340   28.6480   31.4310 H   0  0  0  0  0  0  0  0  0  0  0  0
   34.9970   30.5130   29.8160 H   0  0  0  0  0  0  0  0  0  0  0  0
   33.6070   32.6820   30.2980 H   0  0  0  0  0  0  0  0  0  0  0  0
   34.4900   31.4640   35.0310 H   0  0  0  0  0  0  0  0  0  0  0  0
   37.7850   24.5480   32.3170 C   0  0  0  0  0  0  0  0  0  0  0  0
   38.6790   24.5280   31.4310 O   0  0  0  0  0  0  0  0  0  0  0  0
   36.7620   23.4310   32.3310 C   0  0  1  0  0  0  0  0  0  0  0  0
   35.5360   23.6740   31.4270 C   0  0  0  0  0  0  0  0  0  0  0  0
   36.5470   22.6300   31.1260 C   0  0  2  0  0  0  0  0  0  0  0  0
   36.5180   23.0710   33.3390 H   0  0  0  0  0  0  0  0  0  0  0  0
   35.5250   24.6240   30.8790 H   0  0  0  0  0  0  0  0  0  0  0  0
   34.5930   23.3610   31.8790 H   0  0  0  0  0  0  0  0  0  0  0  0
   37.2040   22.8910   30.2560 H   0  0  0  0  0  0  0  0  0  0  0  0
   36.2000   21.1870   31.2860 C   0  0  0  0  0  0  0  0  0  0  0  0
   35.2590   20.9030   32.3640 C   0  0  0  0  0  0  0  0  0  0  0  0
   34.8050   21.5040   33.0170 H   0  0  0  0  0  0  0  0  0  0  0  0
   35.1260   19.0790   32.1970 S   0  0  0  0  0  0  0  0  0  0  0  0
   36.3370   19.0100   30.7310 C   0  0  0  0  0  0  0  0  0  0  0  0
   36.7380   18.2080   30.1070 H   0  0  0  0  0  0  0  0  0  0  0  0
   36.7450   20.2860   30.4700 N   0  0  0  0  0  0  0  0  0  0  0  0
  1  7  1  0  0  0  0
  2  1  1  0  0  0  0
  2  8  1  0  0  0  0
  3  2  2  0  0  0  0
  4  5  2  0  0  0  0
  4  3  1  0  0  0  0
  5  6  1  0  0  0  0
  6  1  2  0  0  0  0
  9 18  1  0  0  0  0
 10  3  1  0  0  0  0
 10  9  2  0  0  0  0
 11 10  1  0  0  0  0
 12 11  2  0  0  0  0
 12 16  1  0  0  0  0
 13 14  1  0  0  0  0
 13 12  1  0  0  0  0
 14 15  2  0  0  0  0
 15 16  1  0  0  0  0
 16 17  2  0  0  0  0
 17  9  1  0  0  0  0
 17 22  1  0  0  0  0
 19 11  1  0  0  0  0
 20 13  1  0  0  0  0
 21 14  1  0  0  0  0
 23 25  1  0  0  0  0
 23  5  1  0  0  0  0
 24 23  2  0  0  0  0
 25 28  1  1  0  0  0
 26 30  1  0  0  0  0
 26 25  1  0  0  0  0
 27 31  1  6  0  0  0
 27 32  1  0  0  0  0
 27 26  1  0  0  0  0
 27 25  1  0  0  0  0
 29 26  1  0  0  0  0
 32 33  2  0  0  0  0
 33 34  1  0  0  0  0
 35 33  1  0  0  0  0
 36 35  1  0  0  0  0
 37 36  1  0  0  0  0
 38 36  2  0  0  0  0
 38 32  1  0  0  0  0
M  END
>  <minimizedAffinity>
-5.59244251

$$$$
