
 OpenBabel03272510203D

 34 37  0  0  0  0  0  0  0  0999 V2000
   37.4760   29.1830   50.8280 Br  0  0  0  0  0  0  0  0  0  0  0  0
   36.0510   29.2940   49.5700 C   0  0  0  0  0  0  0  0  0  0  0  0
   36.0230   30.2990   48.6110 C   0  0  0  0  0  0  0  0  0  0  0  0
   34.9620   30.3130   47.7390 C   0  0  0  0  0  0  0  0  0  0  0  0
   33.9340   29.3900   47.7660 C   0  0  0  0  0  0  0  0  0  0  0  0
   33.9950   28.4090   48.7300 C   0  0  0  0  0  0  0  0  0  0  0  0
   35.0470   28.3700   49.6190 C   0  0  0  0  0  0  0  0  0  0  0  0
   34.8970   31.0760   46.9760 H   0  0  0  0  0  0  0  0  0  0  0  0
   33.2200   27.6530   48.8090 H   0  0  0  0  0  0  0  0  0  0  0  0
   35.0580   27.5800   50.3640 H   0  0  0  0  0  0  0  0  0  0  0  0
   38.0430   33.2090   49.4560 C   0  0  0  0  0  0  0  0  0  0  0  0
   39.0590   33.2000   48.4660 C   0  0  0  0  0  0  0  0  0  0  0  0
   39.0310   32.1950   47.5250 C   0  0  0  0  0  0  0  0  0  0  0  0
   38.0390   31.2670   47.5940 N   0  0  0  0  0  0  0  0  0  0  0  0
   37.0780   31.2900   48.5430 C   0  0  0  0  0  0  0  0  0  0  0  0
   37.0940   32.2720   49.4710 N   0  0  0  0  0  0  0  0  0  0  0  0
   38.1260   34.0260   50.1600 H   0  0  0  0  0  0  0  0  0  0  0  0
   39.8600   33.9090   48.3730 H   0  0  0  0  0  0  0  0  0  0  0  0
   39.6990   32.0190   46.7130 H   0  0  0  0  0  0  0  0  0  0  0  0
   32.8190   29.4050   46.8490 C   0  0  0  0  0  0  0  0  0  0  0  0
   31.9190   28.3660   46.6830 C   0  0  0  0  0  0  0  0  0  0  0  0
   30.8590   28.4070   45.7970 C   0  0  0  0  0  0  0  0  0  0  0  0
   30.6880   29.5150   45.0540 N   0  0  0  0  0  0  0  0  0  0  0  0
   31.5500   30.5320   45.2000 C   0  0  0  0  0  0  0  0  0  0  0  0
   32.5740   30.4660   46.0710 N   0  0  0  0  0  0  0  0  0  0  0  0
   32.0630   27.4650   47.2940 H   0  0  0  0  0  0  0  0  0  0  0  0
   30.2240   27.5420   45.7520 H   0  0  0  0  0  0  0  0  0  0  0  0
   31.2700   31.6840   44.3410 C   0  0  0  0  0  0  0  0  0  0  0  0
   32.4840   32.0630   43.6340 C   0  0  0  0  0  0  0  0  0  0  0  0
   33.5210   31.7320   43.5700 H   0  0  0  0  0  0  0  0  0  0  0  0
   31.9250   33.5410   42.5960 S   0  0  0  0  0  0  0  0  0  0  0  0
   30.1760   33.3490   43.3220 C   0  0  0  0  0  0  0  0  0  0  0  0
   29.0450   33.7820   43.3320 H   0  0  0  0  0  0  0  0  0  0  0  0
   30.2660   32.4730   44.0150 N   0  0  0  0  0  0  0  0  0  0  0  0
  2  7  1  0  0  0  0
  2  1  1  0  0  0  0
  3  2  2  0  0  0  0
  4  5  2  0  0  0  0
  4  3  1  0  0  0  0
  5  6  1  0  0  0  0
  6  9  1  0  0  0  0
  6  7  2  0  0  0  0
  7 10  1  0  0  0  0
  8  4  1  0  0  0  0
 11 16  1  0  0  0  0
 11 17  1  0  0  0  0
 12 11  2  0  0  0  0
 13 14  2  0  0  0  0
 13 12  1  0  0  0  0
 14 15  1  0  0  0  0
 15  3  1  0  0  0  0
 15 16  2  0  0  0  0
 18 12  1  0  0  0  0
 19 13  1  0  0  0  0
 20  5  1  0  0  0  0
 21 20  1  0  0  0  0
 21 26  1  0  0  0  0
 22 21  2  0  0  0  0
 23 24  2  0  0  0  0
 23 22  1  0  0  0  0
 24 25  1  0  0  0  0
 25 20  2  0  0  0  0
 27 22  1  0  0  0  0
 28 24  1  0  0  0  0
 29 28  2  0  0  0  0
 30 29  1  0  0  0  0
 31 32  1  0  0  0  0
 31 29  1  0  0  0  0
 32 33  1  0  0  0  0
 32 34  2  0  0  0  0
 34 28  1  0  0  0  0
M  END
>  <minimizedAffinity>
-6.22300339

>  <minimizedRMSD>
0.410745412

$$$$
