
 OpenBabel03272510073D

 28 30  0  0  0  0  0  0  0  0999 V2000
   36.4750   31.2410   49.3770 C   0  0  0  0  0  0  0  0  0  0  0  0
   37.2440   31.5960   48.2670 C   0  0  0  0  0  0  0  0  0  0  0  0
   36.9590   30.9780   47.0500 C   0  0  0  0  0  0  0  0  0  0  0  0
   35.9510   30.0630   47.0000 N   0  0  0  0  0  0  0  0  0  0  0  0
   35.2300   29.7480   48.1070 C   0  0  0  0  0  0  0  0  0  0  0  0
   35.4800   30.3230   49.2840 N   0  0  0  0  0  0  0  0  0  0  0  0
   34.1850   28.7680   47.9640 N   0  0  0  0  0  0  0  0  0  0  0  0
   33.0460   28.9140   47.0880 C   0  0  0  0  0  0  0  0  0  0  0  0
   32.4010   27.5670   47.0850 C   0  0  0  0  0  0  0  0  0  0  0  0
   33.3490   26.6250   47.7930 C   0  0  0  0  0  0  0  0  0  0  0  0
   34.1520   27.4980   48.6930 C   0  0  0  0  0  0  0  0  0  0  0  0
   36.6790   31.7100   50.3360 H   0  0  0  0  0  0  0  0  0  0  0  0
   37.5130   31.2050   46.1500 H   0  0  0  0  0  0  0  0  0  0  0  0
   32.3550   29.6400   47.5690 H   0  0  0  0  0  0  0  0  0  0  0  0
   33.3240   29.1980   46.0600 H   0  0  0  0  0  0  0  0  0  0  0  0
   31.4350   27.5820   47.6090 H   0  0  0  0  0  0  0  0  0  0  0  0
   32.2260   27.2150   46.0320 H   0  0  0  0  0  0  0  0  0  0  0  0
   34.0120   26.1630   47.0360 H   0  0  0  0  0  0  0  0  0  0  0  0
   32.8000   25.8880   48.3940 H   0  0  0  0  0  0  0  0  0  0  0  0
   33.7140   27.6290   49.6970 H   0  0  0  0  0  0  0  0  0  0  0  0
   35.2060   27.1650   48.7750 H   0  0  0  0  0  0  0  0  0  0  0  0
   38.3240   32.5920   48.3690 C   0  0  0  0  0  0  0  0  0  0  0  0
   39.1710   32.8700   47.2690 C   0  0  0  0  0  0  0  0  0  0  0  0
   39.1520   32.4140   46.2380 H   0  0  0  0  0  0  0  0  0  0  0  0
   40.3040   34.1490   47.9260 S   0  0  0  0  0  0  0  0  0  0  0  0
   39.4260   34.0920   49.6100 C   0  0  0  0  0  0  0  0  0  0  0  0
   39.5880   34.6590   50.6040 H   0  0  0  0  0  0  0  0  0  0  0  0
   38.6250   33.3160   49.4450 N   0  0  0  0  0  0  0  0  0  0  0  0
  1 12  1  0  0  0  0
  2 22  1  0  0  0  0
  2  1  2  0  0  0  0
  3  2  1  0  0  0  0
  4  3  2  0  0  0  0
  4  5  1  0  0  0  0
  5  6  2  0  0  0  0
  6  1  1  0  0  0  0
  7  5  1  0  0  0  0
  7 11  1  0  0  0  0
  8 14  1  0  0  0  0
  8  7  1  0  0  0  0
  9  8  1  0  0  0  0
  9 16  1  0  0  0  0
  9 10  1  0  0  0  0
 10 19  1  0  0  0  0
 10 11  1  0  0  0  0
 11 21  1  0  0  0  0
 11 20  1  0  0  0  0
 13  3  1  0  0  0  0
 15  8  1  0  0  0  0
 17  9  1  0  0  0  0
 18 10  1  0  0  0  0
 22 28  1  0  0  0  0
 23 25  1  0  0  0  0
 23 22  2  0  0  0  0
 24 23  1  0  0  0  0
 25 26  1  0  0  0  0
 26 27  1  0  0  0  0
 28 26  2  0  0  0  0
M  END
>  <minimizedAffinity>
-3.9825387

>  <minimizedRMSD>
2.44902897

$$$$
