
 OpenBabel03272508123D

 32 34  0  0  0  0  0  0  0  0999 V2000
   36.6540   29.4590   44.0570 Cl  0  0  0  0  0  0  0  0  0  0  0  0
   38.3150   29.8240   43.5230 C   0  0  0  0  0  0  0  0  0  0  0  0
   39.3010   30.3030   44.3690 C   0  0  0  0  0  0  0  0  0  0  0  0
   40.5370   30.5380   43.8080 C   0  0  0  0  0  0  0  0  0  0  0  0
   40.7980   30.3170   42.4830 C   0  0  0  0  0  0  0  0  0  0  0  0
   39.8310   29.8480   41.6580 C   0  0  0  0  0  0  0  0  0  0  0  0
   38.5680   29.5930   42.1630 C   0  0  0  0  0  0  0  0  0  0  0  0
   41.2630   30.9100   44.5160 H   0  0  0  0  0  0  0  0  0  0  0  0
   41.8050   30.5380   42.1570 H   0  0  0  0  0  0  0  0  0  0  0  0
   40.0550   29.6800   40.6180 H   0  0  0  0  0  0  0  0  0  0  0  0
   37.4870   29.0780   41.2850 C   0  0  0  0  0  0  0  0  0  0  0  0
   37.3930   27.7160   41.0320 C   0  0  0  0  0  0  0  0  0  0  0  0
   37.9740   26.8340   41.3480 H   0  0  0  0  0  0  0  0  0  0  0  0
   35.8860   27.6130   39.8930 S   0  0  0  0  0  0  0  0  0  0  0  0
   35.7020   29.4970   40.0080 C   0  0  0  0  0  0  0  0  0  0  0  0
   34.9630   30.3260   39.5660 H   0  0  0  0  0  0  0  0  0  0  0  0
   36.5500   29.7950   40.6820 N   0  0  0  0  0  0  0  0  0  0  0  0
   38.8630   30.4630   45.6540 O   0  0  0  0  0  0  0  0  0  0  0  0
   39.4450   32.5070   47.1170 O   0  0  0  0  0  0  0  0  0  0  0  0
   38.3070   31.8430   46.4280 P   0  0  1  0  0  0  0  0  0  0  0  0
   37.7290   32.8450   45.1720 O   0  0  0  0  0  0  0  0  0  0  0  0
   38.5210   33.2970   44.7590 H   0  0  0  0  0  0  0  0  0  0  0  0
   37.0260   31.4290   47.4580 O   0  0  0  0  0  0  0  0  0  0  0  0
   37.6160   30.5260   50.9900 C   0  0  0  0  0  0  0  0  0  0  0  0
   37.7100   31.3070   49.8390 C   0  0  0  0  0  0  0  0  0  0  0  0
   37.0740   30.8510   48.6780 C   0  0  0  0  0  0  0  0  0  0  0  0
   36.3970   29.6660   48.7420 N   0  0  0  0  0  0  0  0  0  0  0  0
   36.3280   28.9380   49.8750 C   0  0  0  0  0  0  0  0  0  0  0  0
   36.9360   29.3680   50.9940 N   0  0  0  0  0  0  0  0  0  0  0  0
   38.1360   30.9690   51.8120 H   0  0  0  0  0  0  0  0  0  0  0  0
   38.2150   32.2340   49.7160 H   0  0  0  0  0  0  0  0  0  0  0  0
   35.7920   27.9990   49.9250 H   0  0  0  0  0  0  0  0  0  0  0  0
  2  1  1  0  0  0  0
  2  3  1  0  0  0  0
  3 18  1  0  0  0  0
  4  3  2  0  0  0  0
  4  8  1  0  0  0  0
  5  4  1  0  0  0  0
  6  7  1  0  0  0  0
  6  5  2  0  0  0  0
  7  2  2  0  0  0  0
  9  5  1  0  0  0  0
 10  6  1  0  0  0  0
 11  7  1  0  0  0  0
 12 11  2  0  0  0  0
 12 13  1  0  0  0  0
 14 15  1  0  0  0  0
 14 12  1  0  0  0  0
 15 17  2  0  0  0  0
 16 15  1  0  0  0  0
 17 11  1  0  0  0  0
 18 20  1  0  0  0  0
 20 19  2  1  0  0  0
 20 23  1  0  0  0  0
 21 20  1  0  0  0  0
 22 21  1  0  0  0  0
 23 26  1  0  0  0  0
 24 29  1  0  0  0  0
 24 30  1  0  0  0  0
 25 24  2  0  0  0  0
 26 27  2  0  0  0  0
 26 25  1  0  0  0  0
 27 28  1  0  0  0  0
 28 32  1  0  0  0  0
 28 29  2  0  0  0  0
 31 25  1  0  0  0  0
M  END
>  <minimizedAffinity>
-4.79247808

>  <minimizedRMSD>
0.469162196

$$$$
