
 OpenBabel03272505013D

 26 28  0  0  0  0  0  0  0  0999 V2000
   37.9200   22.8670   33.7140 Cl  0  0  0  0  0  0  0  0  0  0  0  0
   36.9700   23.8490   32.6420 C   0  0  0  0  0  0  0  0  0  0  0  0
   36.1570   23.2130   31.7340 C   0  0  0  0  0  0  0  0  0  0  0  0
   35.4010   24.0380   30.8910 C   0  0  0  0  0  0  0  0  0  0  0  0
   35.5070   25.4210   31.0100 C   0  0  0  0  0  0  0  0  0  0  0  0
   36.3230   26.0100   31.9230 C   0  0  0  0  0  0  0  0  0  0  0  0
   37.0840   25.1910   32.7710 C   0  0  0  0  0  0  0  0  0  0  0  0
   34.7320   23.6370   30.1420 H   0  0  0  0  0  0  0  0  0  0  0  0
   34.9100   26.0220   30.3430 H   0  0  0  0  0  0  0  0  0  0  0  0
   36.3400   27.0900   31.9430 H   0  0  0  0  0  0  0  0  0  0  0  0
   35.0110   21.0500   32.2500 C   0  0  0  0  0  0  0  0  0  0  0  0
   36.0350   21.7750   31.6000 C   0  0  0  0  0  0  0  0  0  0  0  0
   36.9290   21.0440   30.8270 C   0  0  0  0  0  0  0  0  0  0  0  0
   36.7820   19.6960   30.7350 N   0  0  0  0  0  0  0  0  0  0  0  0
   35.8020   19.0450   31.3650 C   0  0  0  0  0  0  0  0  0  0  0  0
   34.8960   19.7190   32.1360 N   0  0  0  0  0  0  0  0  0  0  0  0
   34.3140   21.6220   32.8530 H   0  0  0  0  0  0  0  0  0  0  0  0
   37.7430   21.5260   30.2950 H   0  0  0  0  0  0  0  0  0  0  0  0
   35.6920   17.9720   31.2860 H   0  0  0  0  0  0  0  0  0  0  0  0
   37.8990   25.9650   33.7010 C   0  0  0  0  0  0  0  0  0  0  0  0
   37.3520   26.3280   34.8980 C   0  0  0  0  0  0  0  0  0  0  0  0
   36.5260   26.3240   35.5550 H   0  0  0  0  0  0  0  0  0  0  0  0
   38.7270   27.2520   35.7470 S   0  0  0  0  0  0  0  0  0  0  0  0
   39.8430   26.9530   34.2350 C   0  0  0  0  0  0  0  0  0  0  0  0
   40.9340   27.2220   33.9340 H   0  0  0  0  0  0  0  0  0  0  0  0
   39.1490   26.3740   33.5680 N   0  0  0  0  0  0  0  0  0  0  0  0
  2  7  1  0  0  0  0
  2  1  1  0  0  0  0
  3  2  2  0  0  0  0
  4  5  2  0  0  0  0
  4  3  1  0  0  0  0
  5  6  1  0  0  0  0
  6 10  1  0  0  0  0
  6  7  2  0  0  0  0
  7 20  1  0  0  0  0
  8  4  1  0  0  0  0
  9  5  1  0  0  0  0
 11 17  1  0  0  0  0
 12  3  1  0  0  0  0
 12 11  2  0  0  0  0
 13 12  1  0  0  0  0
 14 13  2  0  0  0  0
 14 15  1  0  0  0  0
 15 16  2  0  0  0  0
 16 11  1  0  0  0  0
 18 13  1  0  0  0  0
 19 15  1  0  0  0  0
 20 21  2  0  0  0  0
 21 22  1  0  0  0  0
 21 23  1  0  0  0  0
 24 23  1  0  0  0  0
 25 24  1  0  0  0  0
 26 20  1  0  0  0  0
 26 24  2  0  0  0  0
M  END
>  <minimizedAffinity>
-4.68346357

$$$$

 OpenBabel03272505013D

 26 28  0  0  0  0  0  0  0  0999 V2000
   38.1630   26.9320   35.7460 Cl  0  0  0  0  0  0  0  0  0  0  0  0
   37.7390   25.9310   34.3930 C   0  0  0  0  0  0  0  0  0  0  0  0
   38.1440   24.6180   34.4090 C   0  0  0  0  0  0  0  0  0  0  0  0
   37.7770   23.8400   33.3030 C   0  0  0  0  0  0  0  0  0  0  0  0
   37.0420   24.4170   32.2720 C   0  0  0  0  0  0  0  0  0  0  0  0
   36.6600   25.7210   32.2950 C   0  0  0  0  0  0  0  0  0  0  0  0
   37.0240   26.5070   33.3990 C   0  0  0  0  0  0  0  0  0  0  0  0
   38.0470   22.7950   33.2200 H   0  0  0  0  0  0  0  0  0  0  0  0
   36.7790   23.7850   31.4380 H   0  0  0  0  0  0  0  0  0  0  0  0
   36.0910   26.0820   31.4510 H   0  0  0  0  0  0  0  0  0  0  0  0
   38.2990   23.5730   36.6770 C   0  0  0  0  0  0  0  0  0  0  0  0
   38.9070   24.0020   35.4770 C   0  0  0  0  0  0  0  0  0  0  0  0
   40.2800   23.8120   35.3650 C   0  0  0  0  0  0  0  0  0  0  0  0
   40.9570   23.2380   36.3940 N   0  0  0  0  0  0  0  0  0  0  0  0
   40.3480   22.8460   37.5140 C   0  0  0  0  0  0  0  0  0  0  0  0
   38.9990   23.0090   37.6710 N   0  0  0  0  0  0  0  0  0  0  0  0
   37.2270   23.7210   36.7620 H   0  0  0  0  0  0  0  0  0  0  0  0
   40.8220   24.1140   34.4750 H   0  0  0  0  0  0  0  0  0  0  0  0
   40.8950   22.3890   38.3280 H   0  0  0  0  0  0  0  0  0  0  0  0
   36.5340   27.8770   33.2860 C   0  0  0  0  0  0  0  0  0  0  0  0
   36.6670   28.5190   32.0890 C   0  0  0  0  0  0  0  0  0  0  0  0
   36.9940   28.5070   31.0860 H   0  0  0  0  0  0  0  0  0  0  0  0
   35.8990   30.1870   32.3970 S   0  0  0  0  0  0  0  0  0  0  0  0
   35.5230   29.6670   34.1890 C   0  0  0  0  0  0  0  0  0  0  0  0
   35.0230   30.1610   35.1150 H   0  0  0  0  0  0  0  0  0  0  0  0
   35.9370   28.6240   34.2000 N   0  0  0  0  0  0  0  0  0  0  0  0
  2  3  1  0  0  0  0
  2  1  1  0  0  0  0
  3 12  1  0  0  0  0
  4  3  2  0  0  0  0
  5  6  2  0  0  0  0
  5  4  1  0  0  0  0
  6  7  1  0  0  0  0
  7  2  2  0  0  0  0
  8  4  1  0  0  0  0
  9  5  1  0  0  0  0
 10  6  1  0  0  0  0
 11 17  1  0  0  0  0
 11 16  1  0  0  0  0
 12 11  2  0  0  0  0
 13 12  1  0  0  0  0
 13 14  2  0  0  0  0
 14 15  1  0  0  0  0
 15 16  2  0  0  0  0
 15 19  1  0  0  0  0
 18 13  1  0  0  0  0
 20  7  1  0  0  0  0
 20 26  1  0  0  0  0
 21 23  1  0  0  0  0
 21 20  2  0  0  0  0
 22 21  1  0  0  0  0
 23 24  1  0  0  0  0
 24 26  2  0  0  0  0
 24 25  1  0  0  0  0
M  END
>  <minimizedAffinity>
-4.57474947

$$$$

 OpenBabel03272505013D

 26 28  0  0  0  0  0  0  0  0999 V2000
   36.4070   28.0630   34.5820 Cl  0  0  0  0  0  0  0  0  0  0  0  0
   36.1460   29.0340   33.1670 C   0  0  0  0  0  0  0  0  0  0  0  0
   35.5080   30.2420   33.3210 C   0  0  0  0  0  0  0  0  0  0  0  0
   35.3210   31.0010   32.1580 C   0  0  0  0  0  0  0  0  0  0  0  0
   35.7770   30.5090   30.9380 C   0  0  0  0  0  0  0  0  0  0  0  0
   36.4040   29.3090   30.8290 C   0  0  0  0  0  0  0  0  0  0  0  0
   36.5950   28.5430   31.9890 C   0  0  0  0  0  0  0  0  0  0  0  0
   34.8310   31.9650   32.1730 H   0  0  0  0  0  0  0  0  0  0  0  0
   35.6140   31.1220   30.0660 H   0  0  0  0  0  0  0  0  0  0  0  0
   36.7240   29.0090   29.8410 H   0  0  0  0  0  0  0  0  0  0  0  0
   33.7080   30.5540   35.0310 C   0  0  0  0  0  0  0  0  0  0  0  0
   35.0310   30.7690   34.5850 C   0  0  0  0  0  0  0  0  0  0  0  0
   35.8590   31.5180   35.4120 C   0  0  0  0  0  0  0  0  0  0  0  0
   35.3680   32.0000   36.5850 N   0  0  0  0  0  0  0  0  0  0  0  0
   34.1110   31.7760   36.9730 C   0  0  0  0  0  0  0  0  0  0  0  0
   33.2580   31.0440   36.1950 N   0  0  0  0  0  0  0  0  0  0  0  0
   33.0630   29.9680   34.3840 H   0  0  0  0  0  0  0  0  0  0  0  0
   36.8890   31.7280   35.1410 H   0  0  0  0  0  0  0  0  0  0  0  0
   33.7300   32.1620   37.9080 H   0  0  0  0  0  0  0  0  0  0  0  0
   37.2910   27.2890   31.7150 C   0  0  0  0  0  0  0  0  0  0  0  0
   38.6500   27.2620   31.8300 C   0  0  0  0  0  0  0  0  0  0  0  0
   39.5520   27.7670   32.0440 H   0  0  0  0  0  0  0  0  0  0  0  0
   39.0900   25.4990   31.4250 S   0  0  0  0  0  0  0  0  0  0  0  0
   37.2450   25.1140   31.1630 C   0  0  0  0  0  0  0  0  0  0  0  0
   36.6200   24.1780   30.8710 H   0  0  0  0  0  0  0  0  0  0  0  0
   36.7850   26.1160   31.3730 N   0  0  0  0  0  0  0  0  0  0  0  0
  2  3  1  0  0  0  0
  2  1  1  0  0  0  0
  3 12  1  0  0  0  0
  4  8  1  0  0  0  0
  4  3  2  0  0  0  0
  5  4  1  0  0  0  0
  6  5  2  0  0  0  0
  6  7  1  0  0  0  0
  7  2  2  0  0  0  0
  9  5  1  0  0  0  0
 10  6  1  0  0  0  0
 11 16  1  0  0  0  0
 12 11  2  0  0  0  0
 12 13  1  0  0  0  0
 13 14  2  0  0  0  0
 14 15  1  0  0  0  0
 15 19  1  0  0  0  0
 16 15  2  0  0  0  0
 17 11  1  0  0  0  0
 18 13  1  0  0  0  0
 20 21  2  0  0  0  0
 20  7  1  0  0  0  0
 21 22  1  0  0  0  0
 23 21  1  0  0  0  0
 24 26  2  0  0  0  0
 24 23  1  0  0  0  0
 25 24  1  0  0  0  0
 26 20  1  0  0  0  0
M  END
>  <minimizedAffinity>
-4.47273254

$$$$

 OpenBabel03272505013D

 26 28  0  0  0  0  0  0  0  0999 V2000
   36.6650   25.6430   32.2870 Cl  0  0  0  0  0  0  0  0  0  0  0  0
   37.3860   26.2480   33.7460 C   0  0  0  0  0  0  0  0  0  0  0  0
   37.1180   27.5460   34.1090 C   0  0  0  0  0  0  0  0  0  0  0  0
   37.7120   27.9970   35.2950 C   0  0  0  0  0  0  0  0  0  0  0  0
   38.5220   27.1330   36.0270 C   0  0  0  0  0  0  0  0  0  0  0  0
   38.7620   25.8550   35.6330 C   0  0  0  0  0  0  0  0  0  0  0  0
   38.1710   25.3960   34.4460 C   0  0  0  0  0  0  0  0  0  0  0  0
   37.5640   29.0010   35.6680 H   0  0  0  0  0  0  0  0  0  0  0  0
   38.9610   27.5170   36.9340 H   0  0  0  0  0  0  0  0  0  0  0  0
   39.4030   25.2570   36.2650 H   0  0  0  0  0  0  0  0  0  0  0  0
   36.5830   28.8400   32.0350 C   0  0  0  0  0  0  0  0  0  0  0  0
   36.2740   28.4560   33.3590 C   0  0  0  0  0  0  0  0  0  0  0  0
   35.1230   28.9980   33.9180 C   0  0  0  0  0  0  0  0  0  0  0  0
   34.3650   29.8530   33.1820 N   0  0  0  0  0  0  0  0  0  0  0  0
   34.6890   30.1930   31.9330 C   0  0  0  0  0  0  0  0  0  0  0  0
   35.8110   29.6860   31.3390 N   0  0  0  0  0  0  0  0  0  0  0  0
   37.4820   28.4150   31.6000 H   0  0  0  0  0  0  0  0  0  0  0  0
   34.8160   28.7530   34.9300 H   0  0  0  0  0  0  0  0  0  0  0  0
   34.0800   30.8740   31.3540 H   0  0  0  0  0  0  0  0  0  0  0  0
   38.5100   24.0060   34.1620 C   0  0  0  0  0  0  0  0  0  0  0  0
   39.7540   23.7260   33.6750 C   0  0  0  0  0  0  0  0  0  0  0  0
   40.7030   24.0680   33.3640 H   0  0  0  0  0  0  0  0  0  0  0  0
   39.7480   21.8740   33.4930 S   0  0  0  0  0  0  0  0  0  0  0  0
   37.9620   21.8290   34.1470 C   0  0  0  0  0  0  0  0  0  0  0  0
   37.1700   21.0040   34.3580 H   0  0  0  0  0  0  0  0  0  0  0  0
   37.7720   22.9210   34.3260 N   0  0  0  0  0  0  0  0  0  0  0  0
  1  2  1  0  0  0  0
  2  3  2  0  0  0  0
  2  7  1  0  0  0  0
  3  4  1  0  0  0  0
  4  8  1  0  0  0  0
  4  5  2  0  0  0  0
  5  9  1  0  0  0  0
  6  5  1  0  0  0  0
  6 10  1  0  0  0  0
  7  6  2  0  0  0  0
 11 12  1  0  0  0  0
 12 13  2  0  0  0  0
 12  3  1  0  0  0  0
 13 18  1  0  0  0  0
 14 13  1  0  0  0  0
 15 14  2  0  0  0  0
 16 15  1  0  0  0  0
 16 11  2  0  0  0  0
 17 11  1  0  0  0  0
 19 15  1  0  0  0  0
 20 26  1  0  0  0  0
 20  7  1  0  0  0  0
 21 20  2  0  0  0  0
 22 21  1  0  0  0  0
 23 21  1  0  0  0  0
 23 24  1  0  0  0  0
 24 26  2  0  0  0  0
 24 25  1  0  0  0  0
M  END
>  <minimizedAffinity>
-4.45848656

$$$$

 OpenBabel03272505013D

 26 28  0  0  0  0  0  0  0  0999 V2000
   40.6590   24.5860   34.0650 Cl  0  0  0  0  0  0  0  0  0  0  0  0
   39.7850   24.1680   35.5060 C   0  0  0  0  0  0  0  0  0  0  0  0
   38.5560   24.7500   35.7070 C   0  0  0  0  0  0  0  0  0  0  0  0
   37.8770   24.3840   36.8770 C   0  0  0  0  0  0  0  0  0  0  0  0
   38.4640   23.4760   37.7530 C   0  0  0  0  0  0  0  0  0  0  0  0
   39.6820   22.9230   37.5170 C   0  0  0  0  0  0  0  0  0  0  0  0
   40.3680   23.2840   36.3480 C   0  0  0  0  0  0  0  0  0  0  0  0
   36.9050   24.7850   37.1270 H   0  0  0  0  0  0  0  0  0  0  0  0
   37.9110   23.2190   38.6430 H   0  0  0  0  0  0  0  0  0  0  0  0
   40.0580   22.2270   38.2530 H   0  0  0  0  0  0  0  0  0  0  0  0
   37.4350   25.3010   33.5390 C   0  0  0  0  0  0  0  0  0  0  0  0
   37.9310   25.6950   34.8010 C   0  0  0  0  0  0  0  0  0  0  0  0
   37.8000   27.0370   35.1380 C   0  0  0  0  0  0  0  0  0  0  0  0
   37.2150   27.8890   34.2560 N   0  0  0  0  0  0  0  0  0  0  0  0
   36.7580   27.4810   33.0710 C   0  0  0  0  0  0  0  0  0  0  0  0
   36.8630   26.1700   32.6940 N   0  0  0  0  0  0  0  0  0  0  0  0
   37.5380   24.2530   33.2780 H   0  0  0  0  0  0  0  0  0  0  0  0
   38.1550   27.4180   36.0900 H   0  0  0  0  0  0  0  0  0  0  0  0
   36.2930   28.1660   32.3750 H   0  0  0  0  0  0  0  0  0  0  0  0
   41.6530   22.6020   36.2280 C   0  0  0  0  0  0  0  0  0  0  0  0
   42.7840   23.3580   36.1240 C   0  0  0  0  0  0  0  0  0  0  0  0
   43.2360   24.3110   36.0800 H   0  0  0  0  0  0  0  0  0  0  0  0
   44.1480   22.0960   36.0220 S   0  0  0  0  0  0  0  0  0  0  0  0
   42.8540   20.7070   36.1470 C   0  0  0  0  0  0  0  0  0  0  0  0
   42.8740   19.5440   36.1590 H   0  0  0  0  0  0  0  0  0  0  0  0
   41.9060   21.3040   36.2200 N   0  0  0  0  0  0  0  0  0  0  0  0
  1  2  1  0  0  0  0
  2  3  2  0  0  0  0
  2  7  1  0  0  0  0
  3  4  1  0  0  0  0
  4  8  1  0  0  0  0
  4  5  2  0  0  0  0
  5  9  1  0  0  0  0
  6  5  1  0  0  0  0
  6 10  1  0  0  0  0
  7  6  2  0  0  0  0
 11 12  1  0  0  0  0
 12 13  2  0  0  0  0
 12  3  1  0  0  0  0
 13 18  1  0  0  0  0
 14 13  1  0  0  0  0
 15 14  2  0  0  0  0
 16 15  1  0  0  0  0
 16 11  2  0  0  0  0
 17 11  1  0  0  0  0
 19 15  1  0  0  0  0
 20  7  1  0  0  0  0
 21 20  2  0  0  0  0
 22 21  1  0  0  0  0
 23 21  1  0  0  0  0
 23 24  1  0  0  0  0
 24 25  1  0  0  0  0
 24 26  2  0  0  0  0
 26 20  1  0  0  0  0
M  END
>  <minimizedAffinity>
-4.39046049

$$$$

 OpenBabel03272505013D

 26 28  0  0  0  0  0  0  0  0999 V2000
   35.0880   25.0540   30.7590 Cl  0  0  0  0  0  0  0  0  0  0  0  0
   36.4300   25.0330   31.8600 C   0  0  0  0  0  0  0  0  0  0  0  0
   36.9580   26.2390   32.2580 C   0  0  0  0  0  0  0  0  0  0  0  0
   38.0350   26.1820   33.1520 C   0  0  0  0  0  0  0  0  0  0  0  0
   38.5050   24.9450   33.5810 C   0  0  0  0  0  0  0  0  0  0  0  0
   37.9540   23.7750   33.1640 C   0  0  0  0  0  0  0  0  0  0  0  0
   36.8750   23.8220   32.2680 C   0  0  0  0  0  0  0  0  0  0  0  0
   38.5200   27.0740   33.5250 H   0  0  0  0  0  0  0  0  0  0  0  0
   39.3360   24.9430   34.2690 H   0  0  0  0  0  0  0  0  0  0  0  0
   38.3850   22.8630   33.5510 H   0  0  0  0  0  0  0  0  0  0  0  0
   36.9100   28.1240   30.6130 C   0  0  0  0  0  0  0  0  0  0  0  0
   36.4770   27.5350   31.8220 C   0  0  0  0  0  0  0  0  0  0  0  0
   35.5680   28.2600   32.5840 C   0  0  0  0  0  0  0  0  0  0  0  0
   35.1500   29.4750   32.1420 N   0  0  0  0  0  0  0  0  0  0  0  0
   35.5820   30.0000   30.9930 C   0  0  0  0  0  0  0  0  0  0  0  0
   36.4750   29.3250   30.2080 N   0  0  0  0  0  0  0  0  0  0  0  0
   37.6190   27.5560   30.0200 H   0  0  0  0  0  0  0  0  0  0  0  0
   35.1870   27.8780   33.5250 H   0  0  0  0  0  0  0  0  0  0  0  0
   35.2430   30.9680   30.6490 H   0  0  0  0  0  0  0  0  0  0  0  0
   36.3850   22.4920   31.9220 C   0  0  0  0  0  0  0  0  0  0  0  0
   37.1190   21.7330   31.0570 C   0  0  0  0  0  0  0  0  0  0  0  0
   37.9690   21.6300   30.4400 H   0  0  0  0  0  0  0  0  0  0  0  0
   36.1510   20.1480   30.9330 S   0  0  0  0  0  0  0  0  0  0  0  0
   34.8650   20.8550   32.1450 C   0  0  0  0  0  0  0  0  0  0  0  0
   33.8760   20.4790   32.6270 H   0  0  0  0  0  0  0  0  0  0  0  0
   35.2990   21.8700   32.3490 N   0  0  0  0  0  0  0  0  0  0  0  0
  1  2  1  0  0  0  0
  2  3  2  0  0  0  0
  2  7  1  0  0  0  0
  3  4  1  0  0  0  0
  4  8  1  0  0  0  0
  4  5  2  0  0  0  0
  5  9  1  0  0  0  0
  6 10  1  0  0  0  0
  6  5  1  0  0  0  0
  7  6  2  0  0  0  0
 11 12  1  0  0  0  0
 12  3  1  0  0  0  0
 12 13  2  0  0  0  0
 13 18  1  0  0  0  0
 14 13  1  0  0  0  0
 15 14  2  0  0  0  0
 16 11  2  0  0  0  0
 16 15  1  0  0  0  0
 17 11  1  0  0  0  0
 19 15  1  0  0  0  0
 20  7  1  0  0  0  0
 20 26  1  0  0  0  0
 21 20  2  0  0  0  0
 22 21  1  0  0  0  0
 23 21  1  0  0  0  0
 23 24  1  0  0  0  0
 24 26  2  0  0  0  0
 24 25  1  0  0  0  0
M  END
>  <minimizedAffinity>
-4.3666358

$$$$

 OpenBabel03272505013D

 26 28  0  0  0  0  0  0  0  0999 V2000
   38.0250   27.1370   33.5600 Cl  0  0  0  0  0  0  0  0  0  0  0  0
   37.0880   26.0210   32.6160 C   0  0  0  0  0  0  0  0  0  0  0  0
   36.1670   26.5350   31.7340 C   0  0  0  0  0  0  0  0  0  0  0  0
   35.4360   25.6040   30.9850 C   0  0  0  0  0  0  0  0  0  0  0  0
   35.6690   24.2440   31.1640 C   0  0  0  0  0  0  0  0  0  0  0  0
   36.5900   23.7770   32.0480 C   0  0  0  0  0  0  0  0  0  0  0  0
   37.3270   24.7020   32.8020 C   0  0  0  0  0  0  0  0  0  0  0  0
   34.6880   25.9070   30.2640 H   0  0  0  0  0  0  0  0  0  0  0  0
   35.0850   23.5590   30.5700 H   0  0  0  0  0  0  0  0  0  0  0  0
   36.7030   22.7050   32.1190 H   0  0  0  0  0  0  0  0  0  0  0  0
   35.0200   28.6710   32.3530 C   0  0  0  0  0  0  0  0  0  0  0  0
   35.9160   27.9490   31.5330 C   0  0  0  0  0  0  0  0  0  0  0  0
   36.5450   28.6560   30.5150 C   0  0  0  0  0  0  0  0  0  0  0  0
   36.2730   29.9780   30.3580 N   0  0  0  0  0  0  0  0  0  0  0  0
   35.4200   30.6270   31.1520 C   0  0  0  0  0  0  0  0  0  0  0  0
   34.7770   29.9760   32.1690 N   0  0  0  0  0  0  0  0  0  0  0  0
   34.5300   28.1170   33.1480 H   0  0  0  0  0  0  0  0  0  0  0  0
   37.2470   28.1740   29.8430 H   0  0  0  0  0  0  0  0  0  0  0  0
   35.2100   31.6800   31.0200 H   0  0  0  0  0  0  0  0  0  0  0  0
   38.2810   24.0520   33.6940 C   0  0  0  0  0  0  0  0  0  0  0  0
   39.5120   23.7240   33.2030 C   0  0  0  0  0  0  0  0  0  0  0  0
   40.1890   23.7070   32.3930 H   0  0  0  0  0  0  0  0  0  0  0  0
   40.3790   22.9630   34.6630 S   0  0  0  0  0  0  0  0  0  0  0  0
   38.8230   23.2500   35.7200 C   0  0  0  0  0  0  0  0  0  0  0  0
   38.5120   23.0470   36.8220 H   0  0  0  0  0  0  0  0  0  0  0  0
   38.1410   23.7320   34.9690 N   0  0  0  0  0  0  0  0  0  0  0  0
  2  7  1  0  0  0  0
  2  1  1  0  0  0  0
  3  2  2  0  0  0  0
  4  5  2  0  0  0  0
  4  3  1  0  0  0  0
  5  6  1  0  0  0  0
  6 10  1  0  0  0  0
  6  7  2  0  0  0  0
  7 20  1  0  0  0  0
  8  4  1  0  0  0  0
  9  5  1  0  0  0  0
 11 17  1  0  0  0  0
 12  3  1  0  0  0  0
 12 11  2  0  0  0  0
 13 12  1  0  0  0  0
 14 13  2  0  0  0  0
 14 15  1  0  0  0  0
 15 16  2  0  0  0  0
 16 11  1  0  0  0  0
 18 13  1  0  0  0  0
 19 15  1  0  0  0  0
 20 26  1  0  0  0  0
 21 20  2  0  0  0  0
 21 23  1  0  0  0  0
 22 21  1  0  0  0  0
 23 24  1  0  0  0  0
 24 25  1  0  0  0  0
 26 24  2  0  0  0  0
M  END
>  <minimizedAffinity>
-4.36236906

$$$$

 OpenBabel03272505013D

 26 28  0  0  0  0  0  0  0  0999 V2000
   35.9450   30.4710   31.6190 Cl  0  0  0  0  0  0  0  0  0  0  0  0
   36.5390   29.0740   32.4590 C   0  0  0  0  0  0  0  0  0  0  0  0
   36.1230   28.8730   33.7540 C   0  0  0  0  0  0  0  0  0  0  0  0
   36.6190   27.7310   34.3970 C   0  0  0  0  0  0  0  0  0  0  0  0
   37.4830   26.8810   33.7150 C   0  0  0  0  0  0  0  0  0  0  0  0
   37.8700   27.1150   32.4330 C   0  0  0  0  0  0  0  0  0  0  0  0
   37.3790   28.2570   31.7820 C   0  0  0  0  0  0  0  0  0  0  0  0
   36.3520   27.4840   35.4160 H   0  0  0  0  0  0  0  0  0  0  0  0
   37.8440   26.0130   34.2440 H   0  0  0  0  0  0  0  0  0  0  0  0
   38.5440   26.4000   31.9840 H   0  0  0  0  0  0  0  0  0  0  0  0
   35.6880   30.8630   35.2070 C   0  0  0  0  0  0  0  0  0  0  0  0
   35.2210   29.7480   34.4770 C   0  0  0  0  0  0  0  0  0  0  0  0
   33.8490   29.5210   34.4860 C   0  0  0  0  0  0  0  0  0  0  0  0
   33.0410   30.3610   35.1830 N   0  0  0  0  0  0  0  0  0  0  0  0
   33.5190   31.4050   35.8630 C   0  0  0  0  0  0  0  0  0  0  0  0
   34.8600   31.6710   35.8830 N   0  0  0  0  0  0  0  0  0  0  0  0
   36.7590   31.0390   35.1990 H   0  0  0  0  0  0  0  0  0  0  0  0
   33.4110   28.6860   33.9490 H   0  0  0  0  0  0  0  0  0  0  0  0
   32.8680   32.0690   36.4140 H   0  0  0  0  0  0  0  0  0  0  0  0
   37.8720   28.3670   30.4130 C   0  0  0  0  0  0  0  0  0  0  0  0
   38.8990   27.5560   30.0240 C   0  0  0  0  0  0  0  0  0  0  0  0
   39.5960   26.8000   30.2620 H   0  0  0  0  0  0  0  0  0  0  0  0
   39.1680   28.0130   28.2400 S   0  0  0  0  0  0  0  0  0  0  0  0
   37.7590   29.2860   28.3680 C   0  0  0  0  0  0  0  0  0  0  0  0
   37.2520   30.0470   27.6490 H   0  0  0  0  0  0  0  0  0  0  0  0
   37.4470   29.1530   29.4380 N   0  0  0  0  0  0  0  0  0  0  0  0
  1  2  1  0  0  0  0
  2  3  1  0  0  0  0
  3  4  2  0  0  0  0
  3 12  1  0  0  0  0
  4  8  1  0  0  0  0
  5  9  1  0  0  0  0
  5  4  1  0  0  0  0
  6  5  2  0  0  0  0
  7  6  1  0  0  0  0
  7  2  2  0  0  0  0
 10  6  1  0  0  0  0
 11 16  1  0  0  0  0
 12 13  1  0  0  0  0
 12 11  2  0  0  0  0
 13 14  2  0  0  0  0
 14 15  1  0  0  0  0
 15 16  2  0  0  0  0
 15 19  1  0  0  0  0
 17 11  1  0  0  0  0
 18 13  1  0  0  0  0
 20  7  1  0  0  0  0
 21 22  1  0  0  0  0
 21 20  2  0  0  0  0
 23 24  1  0  0  0  0
 23 21  1  0  0  0  0
 24 26  2  0  0  0  0
 25 24  1  0  0  0  0
 26 20  1  0  0  0  0
M  END
>  <minimizedAffinity>
-4.351964

$$$$

 OpenBabel03272505013D

 26 28  0  0  0  0  0  0  0  0999 V2000
   37.0460   25.4840   32.8620 Cl  0  0  0  0  0  0  0  0  0  0  0  0
   38.6330   26.0340   33.3010 C   0  0  0  0  0  0  0  0  0  0  0  0
   39.2210   27.0010   32.5220 C   0  0  0  0  0  0  0  0  0  0  0  0
   40.4980   27.4240   32.9120 C   0  0  0  0  0  0  0  0  0  0  0  0
   41.0930   26.8610   34.0360 C   0  0  0  0  0  0  0  0  0  0  0  0
   40.4770   25.9060   34.7810 C   0  0  0  0  0  0  0  0  0  0  0  0
   39.1980   25.4760   34.3970 C   0  0  0  0  0  0  0  0  0  0  0  0
   41.0450   28.1800   32.3650 H   0  0  0  0  0  0  0  0  0  0  0  0
   42.0770   27.2120   34.3040 H   0  0  0  0  0  0  0  0  0  0  0  0
   41.0150   25.5260   35.6380 H   0  0  0  0  0  0  0  0  0  0  0  0
   39.1120   27.3690   30.0490 C   0  0  0  0  0  0  0  0  0  0  0  0
   38.6120   27.6000   31.3490 C   0  0  0  0  0  0  0  0  0  0  0  0
   37.5080   28.4370   31.4590 C   0  0  0  0  0  0  0  0  0  0  0  0
   36.9740   28.9830   30.3350 N   0  0  0  0  0  0  0  0  0  0  0  0
   37.4750   28.7420   29.1210 C   0  0  0  0  0  0  0  0  0  0  0  0
   38.5590   27.9240   28.9620 N   0  0  0  0  0  0  0  0  0  0  0  0
   39.9740   26.7140   29.9660 H   0  0  0  0  0  0  0  0  0  0  0  0
   37.0640   28.6640   32.4220 H   0  0  0  0  0  0  0  0  0  0  0  0
   37.0430   29.1810   28.2320 H   0  0  0  0  0  0  0  0  0  0  0  0
   38.6620   24.4600   35.2980 C   0  0  0  0  0  0  0  0  0  0  0  0
   38.0560   24.8670   36.4510 C   0  0  0  0  0  0  0  0  0  0  0  0
   37.7520   25.6540   37.0860 H   0  0  0  0  0  0  0  0  0  0  0  0
   37.5180   23.2750   37.2500 S   0  0  0  0  0  0  0  0  0  0  0  0
   38.2580   22.3070   35.7880 C   0  0  0  0  0  0  0  0  0  0  0  0
   38.3520   21.1870   35.4880 H   0  0  0  0  0  0  0  0  0  0  0  0
   38.6570   23.1450   35.1570 N   0  0  0  0  0  0  0  0  0  0  0  0
  1  2  1  0  0  0  0
  2  7  1  0  0  0  0
  3  4  1  0  0  0  0
  3  2  2  0  0  0  0
  4  5  2  0  0  0  0
  5  9  1  0  0  0  0
  5  6  1  0  0  0  0
  6 10  1  0  0  0  0
  7  6  2  0  0  0  0
  7 20  1  0  0  0  0
  8  4  1  0  0  0  0
 11 12  1  0  0  0  0
 12 13  2  0  0  0  0
 12  3  1  0  0  0  0
 13 18  1  0  0  0  0
 14 13  1  0  0  0  0
 15 14  2  0  0  0  0
 16 15  1  0  0  0  0
 16 11  2  0  0  0  0
 17 11  1  0  0  0  0
 19 15  1  0  0  0  0
 20 21  2  0  0  0  0
 21 22  1  0  0  0  0
 21 23  1  0  0  0  0
 24 23  1  0  0  0  0
 25 24  1  0  0  0  0
 26 20  1  0  0  0  0
 26 24  2  0  0  0  0
M  END
>  <minimizedAffinity>
-4.31496143

$$$$
