
 OpenBabel03262520523D

 46 50  0  0  1  0  0  0  0  0999 V2000
   38.6320   25.8070   34.9940 C   0  0  0  0  0  0  0  0  0  0  0  0
   39.6990   26.0590   34.9300 H   0  0  0  0  0  0  0  0  0  0  0  0
   38.4150   24.7520   34.7320 H   0  0  0  0  0  0  0  0  0  0  0  0
   36.9860   27.6270   34.6290 C   0  0  0  0  0  0  0  0  0  0  0  0
   37.9210   26.7630   34.0840 C   0  0  0  0  0  0  0  0  0  0  0  0
   38.1680   26.8120   32.7210 C   0  0  0  0  0  0  0  0  0  0  0  0
   37.5190   27.6860   31.8950 C   0  0  0  0  0  0  0  0  0  0  0  0
   37.5850   27.9200   30.5790 N   0  0  0  0  0  0  0  0  0  0  0  0
   36.7200   28.9020   30.2960 C   0  0  0  0  0  0  0  0  0  0  0  0
   36.0620   29.3420   31.4120 C   0  0  0  0  0  0  0  0  0  0  0  0
   36.5930   28.5430   32.4370 C   0  0  0  0  0  0  0  0  0  0  0  0
   36.3180   28.5230   33.7960 C   0  0  0  0  0  0  0  0  0  0  0  0
   36.7480   27.6480   35.6770 H   0  0  0  0  0  0  0  0  0  0  0  0
   38.9080   26.1060   32.3840 H   0  0  0  0  0  0  0  0  0  0  0  0
   38.2230   27.3980   29.9120 H   0  0  0  0  0  0  0  0  0  0  0  0
   36.5950   29.2660   29.2850 H   0  0  0  0  0  0  0  0  0  0  0  0
   35.3180   30.1200   31.4500 H   0  0  0  0  0  0  0  0  0  0  0  0
   35.3100   29.4580   34.3680 C   0  0  0  0  0  0  0  0  0  0  0  0
   35.7190   30.6540   35.0060 C   0  0  0  0  0  0  0  0  0  0  0  0
   36.7360   31.0870   35.1880 H   0  0  0  0  0  0  0  0  0  0  0  0
   34.0840   31.4060   35.5090 S   0  0  0  0  0  0  0  0  0  0  0  0
   33.1420   29.9420   34.7550 C   0  0  0  0  0  0  0  0  0  0  0  0
   32.0740   29.8380   34.7550 H   0  0  0  0  0  0  0  0  0  0  0  0
   34.0250   29.2360   34.3160 N   0  0  0  0  0  0  0  0  0  0  0  0
   38.1330   26.0600   36.3980 C   0  0  0  0  0  0  0  0  0  0  0  0
   37.0650   26.3480   36.2990 H   0  0  0  0  0  0  0  0  0  0  0  0
   38.7830   26.8680   36.8110 H   0  0  0  0  0  0  0  0  0  0  0  0
   38.9580   23.7080   36.7890 C   0  0  1  0  0  0  0  0  0  0  0  0
   37.4600   23.6100   36.9610 C   0  0  0  0  0  0  0  0  0  0  0  0
   38.1780   24.8610   37.2720 C   0  0  2  0  0  0  0  0  0  0  0  0
   39.3690   23.7430   35.7440 H   0  0  0  0  0  0  0  0  0  0  0  0
   36.8420   23.6220   36.0190 H   0  0  0  0  0  0  0  0  0  0  0  0
   37.0170   22.9970   37.7500 H   0  0  0  0  0  0  0  0  0  0  0  0
   38.2740   25.0500   38.3820 H   0  0  0  0  0  0  0  0  0  0  0  0
   39.7710   22.8660   37.7260 C   0  0  0  0  0  0  0  0  0  0  0  0
   39.0860   22.0810   38.1610 H   0  0  0  0  0  0  0  0  0  0  0  0
   40.1200   23.4980   38.5540 H   0  0  0  0  0  0  0  0  0  0  0  0
   41.9450   21.5810   34.9730 C   0  0  0  0  0  0  0  0  0  0  0  0
   40.9310   22.2960   35.6740 C   0  0  0  0  0  0  0  0  0  0  0  0
   40.8270   22.1160   37.0220 C   0  0  0  0  0  0  0  0  0  0  0  0
   41.6840   21.2760   37.6220 N   0  0  0  0  0  0  0  0  0  0  0  0
   42.6340   20.6060   36.9630 C   0  0  0  0  0  0  0  0  0  0  0  0
   42.7490   20.7730   35.6370 N   0  0  0  0  0  0  0  0  0  0  0  0
   41.9650   21.7750   33.9080 H   0  0  0  0  0  0  0  0  0  0  0  0
   40.2690   22.9590   35.1320 H   0  0  0  0  0  0  0  0  0  0  0  0
   43.3250   19.9290   37.4480 H   0  0  0  0  0  0  0  0  0  0  0  0
  1 25  1  0  0  0  0
  2  1  1  0  0  0  0
  3  1  1  0  0  0  0
  4 13  1  0  0  0  0
  5  4  1  0  0  0  0
  5  1  1  0  0  0  0
  6  5  2  0  0  0  0
  7 11  2  0  0  0  0
  7  6  1  0  0  0  0
  8  7  1  0  0  0  0
  9  8  1  0  0  0  0
  9 10  2  0  0  0  0
 10 17  1  0  0  0  0
 10 11  1  0  0  0  0
 11 12  1  0  0  0  0
 12 18  1  0  0  0  0
 12  4  2  0  0  0  0
 14  6  1  0  0  0  0
 15  8  1  0  0  0  0
 16  9  1  0  0  0  0
 18 19  2  0  0  0  0
 19 20  1  0  0  0  0
 19 21  1  0  0  0  0
 22 21  1  0  0  0  0
 23 22  1  0  0  0  0
 24 18  1  0  0  0  0
 24 22  2  0  0  0  0
 25 27  1  0  0  0  0
 25 30  1  0  0  0  0
 26 25  1  0  0  0  0
 28 31  1  6  0  0  0
 28 29  1  0  0  0  0
 28 30  1  0  0  0  0
 28 35  1  0  0  0  0
 29 30  1  0  0  0  0
 29 33  1  0  0  0  0
 30 34  1  1  0  0  0
 32 29  1  0  0  0  0
 35 36  1  0  0  0  0
 35 37  1  0  0  0  0
 38 43  2  0  0  0  0
 38 39  1  0  0  0  0
 39 40  2  0  0  0  0
 40 41  1  0  0  0  0
 40 35  1  0  0  0  0
 42 46  1  0  0  0  0
 42 41  2  0  0  0  0
 43 42  1  0  0  0  0
 44 38  1  0  0  0  0
 45 39  1  0  0  0  0
M  END
>  <minimizedAffinity>
-5.80980253

$$$$

 OpenBabel03262520523D

 46 50  0  0  1  0  0  0  0  0999 V2000
   37.0940   26.8870   33.1170 C   0  0  0  0  0  0  0  0  0  0  0  0
   37.0210   26.3830   32.1440 H   0  0  0  0  0  0  0  0  0  0  0  0
   36.6570   26.2990   33.9490 H   0  0  0  0  0  0  0  0  0  0  0  0
   35.8780   28.8270   34.0750 C   0  0  0  0  0  0  0  0  0  0  0  0
   36.4090   28.2110   32.9540 C   0  0  0  0  0  0  0  0  0  0  0  0
   36.2920   28.8380   31.7230 C   0  0  0  0  0  0  0  0  0  0  0  0
   35.6690   30.0460   31.5780 C   0  0  0  0  0  0  0  0  0  0  0  0
   35.4370   30.8340   30.5210 N   0  0  0  0  0  0  0  0  0  0  0  0
   34.7800   31.9160   30.9560 C   0  0  0  0  0  0  0  0  0  0  0  0
   34.5610   31.8730   32.3070 C   0  0  0  0  0  0  0  0  0  0  0  0
   35.1430   30.6560   32.6910 C   0  0  0  0  0  0  0  0  0  0  0  0
   35.2400   30.0590   33.9390 C   0  0  0  0  0  0  0  0  0  0  0  0
   35.9370   28.4020   35.0600 H   0  0  0  0  0  0  0  0  0  0  0  0
   36.7320   28.2890   30.9080 H   0  0  0  0  0  0  0  0  0  0  0  0
   35.7370   30.6060   29.5310 H   0  0  0  0  0  0  0  0  0  0  0  0
   34.4810   32.7020   30.2770 H   0  0  0  0  0  0  0  0  0  0  0  0
   34.0550   32.6200   32.8950 H   0  0  0  0  0  0  0  0  0  0  0  0
   34.6650   30.7330   35.1350 C   0  0  0  0  0  0  0  0  0  0  0  0
   33.3190   30.5060   35.5110 C   0  0  0  0  0  0  0  0  0  0  0  0
   32.5210   29.8650   35.0570 H   0  0  0  0  0  0  0  0  0  0  0  0
   33.1530   31.5760   37.0340 S   0  0  0  0  0  0  0  0  0  0  0  0
   34.9580   32.1380   36.8740 C   0  0  0  0  0  0  0  0  0  0  0  0
   35.4470   32.8210   37.5430 H   0  0  0  0  0  0  0  0  0  0  0  0
   35.3490   31.5510   35.8870 N   0  0  0  0  0  0  0  0  0  0  0  0
   38.5440   27.1640   33.4400 C   0  0  0  0  0  0  0  0  0  0  0  0
   38.6540   28.2690   33.4460 H   0  0  0  0  0  0  0  0  0  0  0  0
   39.1360   26.6530   32.6430 H   0  0  0  0  0  0  0  0  0  0  0  0
   37.9250   26.0350   35.6100 C   0  0  1  0  0  0  0  0  0  0  0  0
   38.5520   27.3430   36.0360 C   0  0  0  0  0  0  0  0  0  0  0  0
   38.9580   26.6810   34.7810 C   0  0  2  0  0  0  0  0  0  0  0  0
   36.8630   26.0520   35.2460 H   0  0  0  0  0  0  0  0  0  0  0  0
   37.9190   28.2670   35.9190 H   0  0  0  0  0  0  0  0  0  0  0  0
   39.2260   27.3970   36.8950 H   0  0  0  0  0  0  0  0  0  0  0  0
   39.9750   26.1930   34.8490 H   0  0  0  0  0  0  0  0  0  0  0  0
   38.2450   24.8550   36.4770 C   0  0  0  0  0  0  0  0  0  0  0  0
   37.2670   24.3870   36.7920 H   0  0  0  0  0  0  0  0  0  0  0  0
   38.7510   25.2110   37.3840 H   0  0  0  0  0  0  0  0  0  0  0  0
   38.9330   22.1030   34.0450 C   0  0  0  0  0  0  0  0  0  0  0  0
   38.2620   23.1260   34.7750 C   0  0  0  0  0  0  0  0  0  0  0  0
   38.9600   23.8000   35.7350 C   0  0  0  0  0  0  0  0  0  0  0  0
   40.2430   23.4670   35.9430 N   0  0  0  0  0  0  0  0  0  0  0  0
   40.8700   22.5080   35.2580 C   0  0  0  0  0  0  0  0  0  0  0  0
   40.1980   21.8360   34.3110 N   0  0  0  0  0  0  0  0  0  0  0  0
   38.3160   21.6140   33.3030 H   0  0  0  0  0  0  0  0  0  0  0  0
   37.2250   23.3470   34.5600 H   0  0  0  0  0  0  0  0  0  0  0  0
   41.9060   22.2400   35.4260 H   0  0  0  0  0  0  0  0  0  0  0  0
  1 25  1  0  0  0  0
  1  3  1  0  0  0  0
  2  1  1  0  0  0  0
  4 13  1  0  0  0  0
  5  1  1  0  0  0  0
  5  4  2  0  0  0  0
  6  5  1  0  0  0  0
  7  6  2  0  0  0  0
  7 11  1  0  0  0  0
  8  9  1  0  0  0  0
  8  7  1  0  0  0  0
  9 10  2  0  0  0  0
 10 11  1  0  0  0  0
 10 17  1  0  0  0  0
 11 12  2  0  0  0  0
 12  4  1  0  0  0  0
 12 18  1  0  0  0  0
 14  6  1  0  0  0  0
 15  8  1  0  0  0  0
 16  9  1  0  0  0  0
 18 19  2  0  0  0  0
 18 24  1  0  0  0  0
 19 21  1  0  0  0  0
 20 19  1  0  0  0  0
 22 21  1  0  0  0  0
 22 23  1  0  0  0  0
 24 22  2  0  0  0  0
 25 26  1  0  0  0  0
 25 30  1  0  0  0  0
 27 25  1  0  0  0  0
 28 31  1  6  0  0  0
 28 29  1  0  0  0  0
 28 35  1  0  0  0  0
 29 33  1  0  0  0  0
 30 34  1  1  0  0  0
 30 28  1  0  0  0  0
 30 29  1  0  0  0  0
 32 29  1  0  0  0  0
 35 36  1  0  0  0  0
 35 37  1  0  0  0  0
 38 43  2  0  0  0  0
 38 39  1  0  0  0  0
 39 40  2  0  0  0  0
 40 41  1  0  0  0  0
 40 35  1  0  0  0  0
 42 46  1  0  0  0  0
 42 41  2  0  0  0  0
 43 42  1  0  0  0  0
 44 38  1  0  0  0  0
 45 39  1  0  0  0  0
M  END
>  <minimizedAffinity>
-5.80263233

$$$$

 OpenBabel03262520523D

 46 50  0  0  1  0  0  0  0  0999 V2000
   37.7820   24.6560   36.4610 C   0  0  0  0  0  0  0  0  0  0  0  0
   37.4630   24.6290   37.5120 H   0  0  0  0  0  0  0  0  0  0  0  0
   37.0460   24.2040   35.7670 H   0  0  0  0  0  0  0  0  0  0  0  0
   40.0660   24.4090   35.5230 C   0  0  0  0  0  0  0  0  0  0  0  0
   39.1030   23.9500   36.4070 C   0  0  0  0  0  0  0  0  0  0  0  0
   39.3940   22.8580   37.2110 C   0  0  0  0  0  0  0  0  0  0  0  0
   40.6000   22.2180   37.1610 C   0  0  0  0  0  0  0  0  0  0  0  0
   41.1070   21.1700   37.8210 N   0  0  0  0  0  0  0  0  0  0  0  0
   42.3520   20.9690   37.3720 C   0  0  0  0  0  0  0  0  0  0  0  0
   42.7010   21.8740   36.4070 C   0  0  0  0  0  0  0  0  0  0  0  0
   41.5550   22.6740   36.2840 C   0  0  0  0  0  0  0  0  0  0  0  0
   41.3000   23.7630   35.4630 C   0  0  0  0  0  0  0  0  0  0  0  0
   39.9120   25.2520   34.8750 H   0  0  0  0  0  0  0  0  0  0  0  0
   38.5900   22.5700   37.8660 H   0  0  0  0  0  0  0  0  0  0  0  0
   40.5830   20.6230   38.5620 H   0  0  0  0  0  0  0  0  0  0  0  0
   42.9670   20.1690   37.7610 H   0  0  0  0  0  0  0  0  0  0  0  0
   43.6440   21.9250   35.8890 H   0  0  0  0  0  0  0  0  0  0  0  0
   42.3450   24.2450   34.5180 C   0  0  0  0  0  0  0  0  0  0  0  0
   42.4090   23.7380   33.1980 C   0  0  0  0  0  0  0  0  0  0  0  0
   41.7810   22.9810   32.6630 H   0  0  0  0  0  0  0  0  0  0  0  0
   43.8660   24.6720   32.4930 S   0  0  0  0  0  0  0  0  0  0  0  0
   44.1190   25.5830   34.1370 C   0  0  0  0  0  0  0  0  0  0  0  0
   44.8860   26.3110   34.3200 H   0  0  0  0  0  0  0  0  0  0  0  0
   43.2380   25.1390   34.8430 N   0  0  0  0  0  0  0  0  0  0  0  0
   38.0160   26.0880   36.0390 C   0  0  0  0  0  0  0  0  0  0  0  0
   39.0180   26.1100   35.5610 H   0  0  0  0  0  0  0  0  0  0  0  0
   37.9460   26.6970   36.9720 H   0  0  0  0  0  0  0  0  0  0  0  0
   37.5660   26.8590   33.6780 C   0  0  1  0  0  0  0  0  0  0  0  0
   37.0170   27.9710   34.5440 C   0  0  0  0  0  0  0  0  0  0  0  0
   37.0450   26.5770   35.0270 C   0  0  2  0  0  0  0  0  0  0  0  0
   38.6760   26.8150   33.5160 H   0  0  0  0  0  0  0  0  0  0  0  0
   37.7720   28.6650   35.0110 H   0  0  0  0  0  0  0  0  0  0  0  0
   36.0770   28.4700   34.3000 H   0  0  0  0  0  0  0  0  0  0  0  0
   36.0240   26.0930   35.0350 H   0  0  0  0  0  0  0  0  0  0  0  0
   36.7650   26.5450   32.4500 C   0  0  0  0  0  0  0  0  0  0  0  0
   37.2810   27.0330   31.5720 H   0  0  0  0  0  0  0  0  0  0  0  0
   35.7720   27.0030   32.5500 H   0  0  0  0  0  0  0  0  0  0  0  0
   37.9170   23.0040   32.1380 C   0  0  0  0  0  0  0  0  0  0  0  0
   37.8980   24.4000   32.4220 C   0  0  0  0  0  0  0  0  0  0  0  0
   36.7610   25.1020   32.1470 C   0  0  0  0  0  0  0  0  0  0  0  0
   35.7170   24.4440   31.6220 N   0  0  0  0  0  0  0  0  0  0  0  0
   35.7350   23.1350   31.3560 C   0  0  0  0  0  0  0  0  0  0  0  0
   36.8460   22.4310   31.6210 N   0  0  0  0  0  0  0  0  0  0  0  0
   38.8510   22.5160   32.3830 H   0  0  0  0  0  0  0  0  0  0  0  0
   38.7750   24.8730   32.8460 H   0  0  0  0  0  0  0  0  0  0  0  0
   34.8920   22.6040   30.9330 H   0  0  0  0  0  0  0  0  0  0  0  0
  1  2  1  0  0  0  0
  3  1  1  0  0  0  0
  4  5  1  0  0  0  0
  5  1  1  0  0  0  0
  5  6  2  0  0  0  0
  6 14  1  0  0  0  0
  7  6  1  0  0  0  0
  7  8  1  0  0  0  0
  8 15  1  0  0  0  0
  9 16  1  0  0  0  0
  9  8  1  0  0  0  0
 10  9  2  0  0  0  0
 11 10  1  0  0  0  0
 11  7  2  0  0  0  0
 12  4  2  0  0  0  0
 12 11  1  0  0  0  0
 13  4  1  0  0  0  0
 17 10  1  0  0  0  0
 18 24  1  0  0  0  0
 18 12  1  0  0  0  0
 19 18  2  0  0  0  0
 20 19  1  0  0  0  0
 21 19  1  0  0  0  0
 21 22  1  0  0  0  0
 22 23  1  0  0  0  0
 22 24  2  0  0  0  0
 25  1  1  0  0  0  0
 25 27  1  0  0  0  0
 26 25  1  0  0  0  0
 28 31  1  6  0  0  0
 28 29  1  0  0  0  0
 28 30  1  0  0  0  0
 29 32  1  0  0  0  0
 29 30  1  0  0  0  0
 30 34  1  1  0  0  0
 30 25  1  0  0  0  0
 33 29  1  0  0  0  0
 35 37  1  0  0  0  0
 35 28  1  0  0  0  0
 36 35  1  0  0  0  0
 38 44  1  0  0  0  0
 38 39  1  0  0  0  0
 39 45  1  0  0  0  0
 40 39  2  0  0  0  0
 40 35  1  0  0  0  0
 41 40  1  0  0  0  0
 42 43  1  0  0  0  0
 42 41  2  0  0  0  0
 43 38  2  0  0  0  0
 46 42  1  0  0  0  0
M  END
>  <minimizedAffinity>
-5.66552973

$$$$

 OpenBabel03262520523D

 46 50  0  0  1  0  0  0  0  0999 V2000
   34.8200   31.4940   33.8370 C   0  0  0  0  0  0  0  0  0  0  0  0
   33.8340   31.0300   33.9820 H   0  0  0  0  0  0  0  0  0  0  0  0
   34.7660   32.5820   33.6300 H   0  0  0  0  0  0  0  0  0  0  0  0
   35.6010   29.3710   32.8190 C   0  0  0  0  0  0  0  0  0  0  0  0
   35.4730   30.7460   32.7150 C   0  0  0  0  0  0  0  0  0  0  0  0
   35.9500   31.3820   31.5790 C   0  0  0  0  0  0  0  0  0  0  0  0
   36.5430   30.6960   30.5560 C   0  0  0  0  0  0  0  0  0  0  0  0
   37.0690   31.0750   29.3850 N   0  0  0  0  0  0  0  0  0  0  0  0
   37.5150   29.9770   28.7640 C   0  0  0  0  0  0  0  0  0  0  0  0
   37.2990   28.8470   29.5040 C   0  0  0  0  0  0  0  0  0  0  0  0
   36.6690   29.3330   30.6600 C   0  0  0  0  0  0  0  0  0  0  0  0
   36.2050   28.6610   31.7820 C   0  0  0  0  0  0  0  0  0  0  0  0
   35.2500   28.8120   33.6670 H   0  0  0  0  0  0  0  0  0  0  0  0
   35.8100   32.4490   31.5820 H   0  0  0  0  0  0  0  0  0  0  0  0
   37.1040   32.0790   29.0450 H   0  0  0  0  0  0  0  0  0  0  0  0
   37.9850   30.0340   27.7910 H   0  0  0  0  0  0  0  0  0  0  0  0
   37.5660   27.8410   29.2270 H   0  0  0  0  0  0  0  0  0  0  0  0
   36.3490   27.1830   31.8800 C   0  0  0  0  0  0  0  0  0  0  0  0
   35.4810   26.3260   31.1620 C   0  0  0  0  0  0  0  0  0  0  0  0
   34.6290   26.5460   30.4700 H   0  0  0  0  0  0  0  0  0  0  0  0
   36.1100   24.6360   31.6500 S   0  0  0  0  0  0  0  0  0  0  0  0
   37.4460   25.4150   32.7490 C   0  0  0  0  0  0  0  0  0  0  0  0
   38.1620   24.8610   33.3250 H   0  0  0  0  0  0  0  0  0  0  0  0
   37.2610   26.6060   32.6140 N   0  0  0  0  0  0  0  0  0  0  0  0
   35.6650   31.2870   35.0730 C   0  0  0  0  0  0  0  0  0  0  0  0
   36.4000   32.1200   35.0880 H   0  0  0  0  0  0  0  0  0  0  0  0
   36.1270   30.2770   34.9600 H   0  0  0  0  0  0  0  0  0  0  0  0
   33.4960   31.8150   36.2490 C   0  0  1  0  0  0  0  0  0  0  0  0
   34.5270   32.6430   36.9810 C   0  0  0  0  0  0  0  0  0  0  0  0
   34.8970   31.3660   36.3410 C   0  0  2  0  0  0  0  0  0  0  0  0
   33.1220   32.1920   35.2600 H   0  0  0  0  0  0  0  0  0  0  0  0
   34.8890   33.5740   36.4590 H   0  0  0  0  0  0  0  0  0  0  0  0
   34.5040   32.7490   38.0680 H   0  0  0  0  0  0  0  0  0  0  0  0
   35.0660   30.5330   37.0850 H   0  0  0  0  0  0  0  0  0  0  0  0
   32.4250   31.2140   37.1090 C   0  0  0  0  0  0  0  0  0  0  0  0
   31.5600   31.9390   37.1340 H   0  0  0  0  0  0  0  0  0  0  0  0
   32.8090   31.1170   38.1330 H   0  0  0  0  0  0  0  0  0  0  0  0
   31.1590   27.7100   36.8240 C   0  0  0  0  0  0  0  0  0  0  0  0
   31.6870   28.9170   37.3660 C   0  0  0  0  0  0  0  0  0  0  0  0
   31.8780   29.9740   36.5250 C   0  0  0  0  0  0  0  0  0  0  0  0
   31.5600   29.8260   35.2310 N   0  0  0  0  0  0  0  0  0  0  0  0
   31.0660   28.6930   34.7240 C   0  0  0  0  0  0  0  0  0  0  0  0
   30.8720   27.6440   35.5380 N   0  0  0  0  0  0  0  0  0  0  0  0
   31.0360   26.9170   37.5500 H   0  0  0  0  0  0  0  0  0  0  0  0
   31.9240   28.9740   38.4200 H   0  0  0  0  0  0  0  0  0  0  0  0
   30.8090   28.5750   33.6790 H   0  0  0  0  0  0  0  0  0  0  0  0
  1  2  1  0  0  0  0
  1 25  1  0  0  0  0
  3  1  1  0  0  0  0
  4 13  1  0  0  0  0
  5  4  1  0  0  0  0
  5  1  1  0  0  0  0
  6 14  1  0  0  0  0
  6  5  2  0  0  0  0
  7 11  2  0  0  0  0
  7  6  1  0  0  0  0
  8  7  1  0  0  0  0
  9  8  1  0  0  0  0
  9 10  2  0  0  0  0
 10 11  1  0  0  0  0
 11 12  1  0  0  0  0
 12 18  1  0  0  0  0
 12  4  2  0  0  0  0
 15  8  1  0  0  0  0
 16  9  1  0  0  0  0
 17 10  1  0  0  0  0
 18 24  1  0  0  0  0
 19 21  1  0  0  0  0
 19 18  2  0  0  0  0
 20 19  1  0  0  0  0
 21 22  1  0  0  0  0
 22 23  1  0  0  0  0
 24 22  2  0  0  0  0
 25 26  1  0  0  0  0
 25 30  1  0  0  0  0
 27 25  1  0  0  0  0
 28 31  1  6  0  0  0
 28 30  1  0  0  0  0
 28 29  1  0  0  0  0
 28 35  1  0  0  0  0
 29 33  1  0  0  0  0
 30 29  1  0  0  0  0
 30 34  1  1  0  0  0
 32 29  1  0  0  0  0
 35 36  1  0  0  0  0
 35 37  1  0  0  0  0
 38 39  1  0  0  0  0
 38 44  1  0  0  0  0
 39 45  1  0  0  0  0
 40 35  1  0  0  0  0
 40 39  2  0  0  0  0
 41 40  1  0  0  0  0
 42 41  2  0  0  0  0
 42 43  1  0  0  0  0
 43 38  2  0  0  0  0
 46 42  1  0  0  0  0
M  END
>  <minimizedAffinity>
-5.61393738

$$$$

 OpenBabel03262520523D

 46 50  0  0  1  0  0  0  0  0999 V2000
   37.0490   27.1040   33.2070 C   0  0  0  0  0  0  0  0  0  0  0  0
   36.3090   26.3080   33.0450 H   0  0  0  0  0  0  0  0  0  0  0  0
   37.5550   27.0380   34.1910 H   0  0  0  0  0  0  0  0  0  0  0  0
   35.8070   29.0200   34.1760 C   0  0  0  0  0  0  0  0  0  0  0  0
   36.3130   28.3990   33.0460 C   0  0  0  0  0  0  0  0  0  0  0  0
   36.1230   28.9960   31.8090 C   0  0  0  0  0  0  0  0  0  0  0  0
   35.4530   30.1780   31.6670 C   0  0  0  0  0  0  0  0  0  0  0  0
   35.1500   30.9360   30.6050 N   0  0  0  0  0  0  0  0  0  0  0  0
   34.4740   32.0040   31.0460 C   0  0  0  0  0  0  0  0  0  0  0  0
   34.3130   31.9820   32.4040 C   0  0  0  0  0  0  0  0  0  0  0  0
   34.9530   30.7940   32.7880 C   0  0  0  0  0  0  0  0  0  0  0  0
   35.1220   30.2270   34.0430 C   0  0  0  0  0  0  0  0  0  0  0  0
   35.9210   28.6180   35.1660 H   0  0  0  0  0  0  0  0  0  0  0  0
   36.5480   28.4450   30.9870 H   0  0  0  0  0  0  0  0  0  0  0  0
   35.4170   30.6970   29.6070 H   0  0  0  0  0  0  0  0  0  0  0  0
   34.1210   32.7650   30.3640 H   0  0  0  0  0  0  0  0  0  0  0  0
   33.8060   32.7240   32.9990 H   0  0  0  0  0  0  0  0  0  0  0  0
   34.5730   30.9060   35.2480 C   0  0  0  0  0  0  0  0  0  0  0  0
   33.2410   30.6670   35.6650 C   0  0  0  0  0  0  0  0  0  0  0  0
   32.4380   30.0130   35.2400 H   0  0  0  0  0  0  0  0  0  0  0  0
   33.1060   31.7500   37.1810 S   0  0  0  0  0  0  0  0  0  0  0  0
   34.8990   32.3320   36.9640 C   0  0  0  0  0  0  0  0  0  0  0  0
   35.3980   33.0270   37.6120 H   0  0  0  0  0  0  0  0  0  0  0  0
   35.2680   31.7400   35.9720 N   0  0  0  0  0  0  0  0  0  0  0  0
   38.1030   27.0440   32.1260 C   0  0  0  0  0  0  0  0  0  0  0  0
   38.2910   28.0950   31.8180 H   0  0  0  0  0  0  0  0  0  0  0  0
   37.6750   26.4050   31.3170 H   0  0  0  0  0  0  0  0  0  0  0  0
   39.9410   27.0190   33.8550 C   0  0  1  0  0  0  0  0  0  0  0  0
   40.6630   27.2560   32.5480 C   0  0  0  0  0  0  0  0  0  0  0  0
   39.4010   26.4920   32.5890 C   0  0  2  0  0  0  0  0  0  0  0  0
   39.4180   27.8900   34.3350 H   0  0  0  0  0  0  0  0  0  0  0  0
   40.5930   28.2930   32.1130 H   0  0  0  0  0  0  0  0  0  0  0  0
   41.6160   26.7690   32.3290 H   0  0  0  0  0  0  0  0  0  0  0  0
   39.5540   25.3810   32.4510 H   0  0  0  0  0  0  0  0  0  0  0  0
   40.6520   26.1310   34.8320 C   0  0  0  0  0  0  0  0  0  0  0  0
   40.9160   26.7570   35.7330 H   0  0  0  0  0  0  0  0  0  0  0  0
   41.5910   25.7880   34.3780 H   0  0  0  0  0  0  0  0  0  0  0  0
   39.3430   22.7210   35.6190 C   0  0  0  0  0  0  0  0  0  0  0  0
   40.1730   23.7720   35.1320 C   0  0  0  0  0  0  0  0  0  0  0  0
   39.7770   25.0600   35.3430 C   0  0  0  0  0  0  0  0  0  0  0  0
   38.6260   25.2750   35.9990 N   0  0  0  0  0  0  0  0  0  0  0  0
   37.8490   24.2880   36.4540 C   0  0  0  0  0  0  0  0  0  0  0  0
   38.2250   23.0150   36.2540 N   0  0  0  0  0  0  0  0  0  0  0  0
   39.7230   21.7290   35.4140 H   0  0  0  0  0  0  0  0  0  0  0  0
   41.0910   23.5340   34.6100 H   0  0  0  0  0  0  0  0  0  0  0  0
   36.9200   24.4610   36.9830 H   0  0  0  0  0  0  0  0  0  0  0  0
  1  3  1  0  0  0  0
  2  1  1  0  0  0  0
  4 13  1  0  0  0  0
  5  1  1  0  0  0  0
  5  4  2  0  0  0  0
  6  5  1  0  0  0  0
  7  6  2  0  0  0  0
  7 11  1  0  0  0  0
  8  9  1  0  0  0  0
  8  7  1  0  0  0  0
  9 10  2  0  0  0  0
 10 11  1  0  0  0  0
 10 17  1  0  0  0  0
 11 12  2  0  0  0  0
 12  4  1  0  0  0  0
 12 18  1  0  0  0  0
 14  6  1  0  0  0  0
 15  8  1  0  0  0  0
 16  9  1  0  0  0  0
 18 19  2  0  0  0  0
 18 24  1  0  0  0  0
 19 21  1  0  0  0  0
 20 19  1  0  0  0  0
 22 21  1  0  0  0  0
 22 23  1  0  0  0  0
 24 22  2  0  0  0  0
 25 30  1  0  0  0  0
 25  1  1  0  0  0  0
 26 25  1  0  0  0  0
 27 25  1  0  0  0  0
 28 31  1  1  0  0  0
 28 35  1  0  0  0  0
 29 30  1  0  0  0  0
 29 28  1  0  0  0  0
 30 34  1  6  0  0  0
 30 28  1  0  0  0  0
 32 29  1  0  0  0  0
 33 29  1  0  0  0  0
 35 40  1  0  0  0  0
 35 36  1  0  0  0  0
 37 35  1  0  0  0  0
 38 43  1  0  0  0  0
 39 40  1  0  0  0  0
 39 38  2  0  0  0  0
 40 41  2  0  0  0  0
 41 42  1  0  0  0  0
 42 46  1  0  0  0  0
 43 42  2  0  0  0  0
 44 38  1  0  0  0  0
 45 39  1  0  0  0  0
M  END
>  <minimizedAffinity>
-5.58379459

$$$$

 OpenBabel03262520523D

 46 50  0  0  1  0  0  0  0  0999 V2000
   37.0020   21.9700   31.3560 C   0  0  0  0  0  0  0  0  0  0  0  0
   37.5520   21.5430   32.2060 H   0  0  0  0  0  0  0  0  0  0  0  0
   37.3420   21.5810   30.3750 H   0  0  0  0  0  0  0  0  0  0  0  0
   38.2520   23.9570   32.1590 C   0  0  0  0  0  0  0  0  0  0  0  0
   37.1710   23.4560   31.4530 C   0  0  0  0  0  0  0  0  0  0  0  0
   36.2860   24.3430   30.8600 C   0  0  0  0  0  0  0  0  0  0  0  0
   36.4440   25.6980   30.9480 C   0  0  0  0  0  0  0  0  0  0  0  0
   35.7430   26.7330   30.4720 N   0  0  0  0  0  0  0  0  0  0  0  0
   36.3580   27.8560   30.8620 C   0  0  0  0  0  0  0  0  0  0  0  0
   37.4780   27.5950   31.6040 C   0  0  0  0  0  0  0  0  0  0  0  0
   37.5170   26.1930   31.6480 C   0  0  0  0  0  0  0  0  0  0  0  0
   38.4240   25.3370   32.2560 C   0  0  0  0  0  0  0  0  0  0  0  0
   38.9800   23.3290   32.6390 H   0  0  0  0  0  0  0  0  0  0  0  0
   35.4760   23.8680   30.3330 H   0  0  0  0  0  0  0  0  0  0  0  0
   34.8610   26.6390   29.8920 H   0  0  0  0  0  0  0  0  0  0  0  0
   35.9710   28.8300   30.5940 H   0  0  0  0  0  0  0  0  0  0  0  0
   38.1440   28.3250   32.0330 H   0  0  0  0  0  0  0  0  0  0  0  0
   39.5810   25.8900   33.0110 C   0  0  0  0  0  0  0  0  0  0  0  0
   40.8280   26.0910   32.3720 C   0  0  0  0  0  0  0  0  0  0  0  0
   41.1590   25.9050   31.3180 H   0  0  0  0  0  0  0  0  0  0  0  0
   41.8710   26.7820   33.7590 S   0  0  0  0  0  0  0  0  0  0  0  0
   40.4070   26.6670   34.9600 C   0  0  0  0  0  0  0  0  0  0  0  0
   40.4400   26.9570   35.9930 H   0  0  0  0  0  0  0  0  0  0  0  0
   39.5160   26.2130   34.2740 N   0  0  0  0  0  0  0  0  0  0  0  0
   35.5280   21.6700   31.5020 C   0  0  0  0  0  0  0  0  0  0  0  0
   35.2870   20.9160   30.7240 H   0  0  0  0  0  0  0  0  0  0  0  0
   35.0040   22.6460   31.3670 H   0  0  0  0  0  0  0  0  0  0  0  0
   36.2710   20.8220   33.7600 C   0  0  1  0  0  0  0  0  0  0  0  0
   35.4860   19.6720   33.1700 C   0  0  0  0  0  0  0  0  0  0  0  0
   35.1700   21.0680   32.8120 C   0  0  2  0  0  0  0  0  0  0  0  0
   37.3240   20.9790   33.4050 H   0  0  0  0  0  0  0  0  0  0  0  0
   36.0010   19.0670   32.3710 H   0  0  0  0  0  0  0  0  0  0  0  0
   34.8060   19.0740   33.7820 H   0  0  0  0  0  0  0  0  0  0  0  0
   34.2210   21.4440   33.2960 H   0  0  0  0  0  0  0  0  0  0  0  0
   36.0940   21.0330   35.2340 C   0  0  0  0  0  0  0  0  0  0  0  0
   36.2420   20.0350   35.7420 H   0  0  0  0  0  0  0  0  0  0  0  0
   35.0610   21.3530   35.4230 H   0  0  0  0  0  0  0  0  0  0  0  0
   39.3330   22.8520   35.6370 C   0  0  0  0  0  0  0  0  0  0  0  0
   38.3130   22.0060   35.1130 C   0  0  0  0  0  0  0  0  0  0  0  0
   37.1350   21.9140   35.7950 C   0  0  0  0  0  0  0  0  0  0  0  0
   36.9940   22.6240   36.9240 N   0  0  0  0  0  0  0  0  0  0  0  0
   37.9510   23.4170   37.4140 C   0  0  0  0  0  0  0  0  0  0  0  0
   39.1160   23.5180   36.7550 N   0  0  0  0  0  0  0  0  0  0  0  0
   40.2360   22.8730   35.0420 H   0  0  0  0  0  0  0  0  0  0  0  0
   38.4880   21.4580   34.1960 H   0  0  0  0  0  0  0  0  0  0  0  0
   37.8370   23.9900   38.3250 H   0  0  0  0  0  0  0  0  0  0  0  0
  1  5  1  0  0  0  0
  1 25  1  0  0  0  0
  1  2  1  0  0  0  0
  3  1  1  0  0  0  0
  4 12  1  0  0  0  0
  4 13  1  0  0  0  0
  5  4  2  0  0  0  0
  6  7  2  0  0  0  0
  6  5  1  0  0  0  0
  7 11  1  0  0  0  0
  8  9  1  0  0  0  0
  8  7  1  0  0  0  0
  9 10  2  0  0  0  0
 10 11  1  0  0  0  0
 10 17  1  0  0  0  0
 11 12  2  0  0  0  0
 12 18  1  0  0  0  0
 14  6  1  0  0  0  0
 15  8  1  0  0  0  0
 16  9  1  0  0  0  0
 18 24  1  0  0  0  0
 19 18  2  0  0  0  0
 19 21  1  0  0  0  0
 20 19  1  0  0  0  0
 21 22  1  0  0  0  0
 22 23  1  0  0  0  0
 24 22  2  0  0  0  0
 25 30  1  0  0  0  0
 26 25  1  0  0  0  0
 27 25  1  0  0  0  0
 28 31  1  6  0  0  0
 28 35  1  0  0  0  0
 29 28  1  0  0  0  0
 29 33  1  0  0  0  0
 30 29  1  0  0  0  0
 30 34  1  1  0  0  0
 30 28  1  0  0  0  0
 32 29  1  0  0  0  0
 35 37  1  0  0  0  0
 35 36  1  0  0  0  0
 35 40  1  0  0  0  0
 38 43  1  0  0  0  0
 39 38  2  0  0  0  0
 39 40  1  0  0  0  0
 40 41  2  0  0  0  0
 41 42  1  0  0  0  0
 42 46  1  0  0  0  0
 43 42  2  0  0  0  0
 44 38  1  0  0  0  0
 45 39  1  0  0  0  0
M  END
>  <minimizedAffinity>
-5.56233358

$$$$

 OpenBabel03262520523D

 46 50  0  0  1  0  0  0  0  0999 V2000
   39.0380   25.8120   35.2460 C   0  0  0  0  0  0  0  0  0  0  0  0
   39.6870   26.6890   35.1160 H   0  0  0  0  0  0  0  0  0  0  0  0
   39.5970   24.8560   35.2830 H   0  0  0  0  0  0  0  0  0  0  0  0
   37.5420   27.0610   33.7100 C   0  0  0  0  0  0  0  0  0  0  0  0
   38.0630   25.8410   34.1070 C   0  0  0  0  0  0  0  0  0  0  0  0
   37.6680   24.6920   33.4400 C   0  0  0  0  0  0  0  0  0  0  0  0
   36.7810   24.7220   32.4010 C   0  0  0  0  0  0  0  0  0  0  0  0
   36.2590   23.7720   31.6160 N   0  0  0  0  0  0  0  0  0  0  0  0
   35.4340   24.3680   30.7470 C   0  0  0  0  0  0  0  0  0  0  0  0
   35.3870   25.7230   30.9330 C   0  0  0  0  0  0  0  0  0  0  0  0
   36.2650   25.9330   32.0070 C   0  0  0  0  0  0  0  0  0  0  0  0
   36.6360   27.1040   32.6520 C   0  0  0  0  0  0  0  0  0  0  0  0
   37.8070   27.9920   34.1780 H   0  0  0  0  0  0  0  0  0  0  0  0
   38.1220   23.7900   33.8150 H   0  0  0  0  0  0  0  0  0  0  0  0
   36.4860   22.7400   31.6990 H   0  0  0  0  0  0  0  0  0  0  0  0
   34.8920   23.7980   30.0060 H   0  0  0  0  0  0  0  0  0  0  0  0
   34.8000   26.4260   30.3660 H   0  0  0  0  0  0  0  0  0  0  0  0
   36.0680   28.4090   32.2140 C   0  0  0  0  0  0  0  0  0  0  0  0
   36.7570   29.2150   31.2750 C   0  0  0  0  0  0  0  0  0  0  0  0
   37.7300   29.0640   30.7420 H   0  0  0  0  0  0  0  0  0  0  0  0
   35.6120   30.6810   31.1060 S   0  0  0  0  0  0  0  0  0  0  0  0
   34.4010   29.9210   32.3530 C   0  0  0  0  0  0  0  0  0  0  0  0
   33.4800   30.3750   32.6650 H   0  0  0  0  0  0  0  0  0  0  0  0
   34.9320   28.8730   32.6570 N   0  0  0  0  0  0  0  0  0  0  0  0
   38.2450   25.9500   36.5250 C   0  0  0  0  0  0  0  0  0  0  0  0
   37.1870   26.0930   36.2190 H   0  0  0  0  0  0  0  0  0  0  0  0
   38.6840   26.8250   37.0620 H   0  0  0  0  0  0  0  0  0  0  0  0
   39.0340   23.5790   36.8730 C   0  0  1  0  0  0  0  0  0  0  0  0
   37.5380   23.5070   37.0780 C   0  0  0  0  0  0  0  0  0  0  0  0
   38.2870   24.7410   37.3850 C   0  0  2  0  0  0  0  0  0  0  0  0
   39.4220   23.6170   35.8190 H   0  0  0  0  0  0  0  0  0  0  0  0
   36.9000   23.5410   36.1500 H   0  0  0  0  0  0  0  0  0  0  0  0
   37.1020   22.8940   37.8700 H   0  0  0  0  0  0  0  0  0  0  0  0
   38.4120   24.9160   38.4950 H   0  0  0  0  0  0  0  0  0  0  0  0
   39.8510   22.7120   37.7830 C   0  0  0  0  0  0  0  0  0  0  0  0
   39.3190   21.7210   37.8810 H   0  0  0  0  0  0  0  0  0  0  0  0
   39.8800   23.1740   38.7790 H   0  0  0  0  0  0  0  0  0  0  0  0
   42.9230   20.7980   36.8560 C   0  0  0  0  0  0  0  0  0  0  0  0
   41.6520   21.1300   37.4070 C   0  0  0  0  0  0  0  0  0  0  0  0
   41.1690   22.3900   37.2050 C   0  0  0  0  0  0  0  0  0  0  0  0
   41.9150   23.2540   36.4990 N   0  0  0  0  0  0  0  0  0  0  0  0
   43.1070   22.9400   35.9840 C   0  0  0  0  0  0  0  0  0  0  0  0
   43.5950   21.7050   36.1730 N   0  0  0  0  0  0  0  0  0  0  0  0
   43.2390   19.7820   37.0580 H   0  0  0  0  0  0  0  0  0  0  0  0
   41.0990   20.3880   37.9680 H   0  0  0  0  0  0  0  0  0  0  0  0
   43.7080   23.6370   35.4140 H   0  0  0  0  0  0  0  0  0  0  0  0
  1  3  1  0  0  0  0
  1 25  1  0  0  0  0
  2  1  1  0  0  0  0
  4  5  1  0  0  0  0
  4 13  1  0  0  0  0
  5  1  1  0  0  0  0
  6 14  1  0  0  0  0
  6  5  2  0  0  0  0
  7  6  1  0  0  0  0
  8 15  1  0  0  0  0
  8  7  1  0  0  0  0
  9 10  2  0  0  0  0
  9  8  1  0  0  0  0
 10 11  1  0  0  0  0
 11  7  2  0  0  0  0
 11 12  1  0  0  0  0
 12  4  2  0  0  0  0
 16  9  1  0  0  0  0
 17 10  1  0  0  0  0
 18 12  1  0  0  0  0
 18 24  1  0  0  0  0
 19 18  2  0  0  0  0
 20 19  1  0  0  0  0
 21 19  1  0  0  0  0
 21 22  1  0  0  0  0
 22 24  2  0  0  0  0
 22 23  1  0  0  0  0
 25 27  1  0  0  0  0
 25 30  1  0  0  0  0
 26 25  1  0  0  0  0
 28 31  1  6  0  0  0
 28 29  1  0  0  0  0
 28 30  1  0  0  0  0
 28 35  1  0  0  0  0
 29 30  1  0  0  0  0
 29 33  1  0  0  0  0
 30 34  1  1  0  0  0
 32 29  1  0  0  0  0
 35 36  1  0  0  0  0
 35 37  1  0  0  0  0
 38 44  1  0  0  0  0
 38 39  1  0  0  0  0
 39 45  1  0  0  0  0
 40 39  2  0  0  0  0
 40 35  1  0  0  0  0
 41 40  1  0  0  0  0
 42 43  1  0  0  0  0
 42 41  2  0  0  0  0
 43 38  2  0  0  0  0
 46 42  1  0  0  0  0
M  END
>  <minimizedAffinity>
-5.54936838

$$$$

 OpenBabel03262520523D

 46 50  0  0  1  0  0  0  0  0999 V2000
   36.6800   28.2540   34.5680 C   0  0  0  0  0  0  0  0  0  0  0  0
   36.1840   27.4720   35.1610 H   0  0  0  0  0  0  0  0  0  0  0  0
   37.5860   28.6660   35.0570 H   0  0  0  0  0  0  0  0  0  0  0  0
   35.6090   30.4070   35.1800 C   0  0  0  0  0  0  0  0  0  0  0  0
   35.6480   29.3150   34.3300 C   0  0  0  0  0  0  0  0  0  0  0  0
   34.7350   29.2400   33.2890 C   0  0  0  0  0  0  0  0  0  0  0  0
   33.7970   30.2100   33.0720 C   0  0  0  0  0  0  0  0  0  0  0  0
   32.8330   30.3620   32.1560 N   0  0  0  0  0  0  0  0  0  0  0  0
   32.2020   31.5130   32.4150 C   0  0  0  0  0  0  0  0  0  0  0  0
   32.7290   32.1520   33.5050 C   0  0  0  0  0  0  0  0  0  0  0  0
   33.7600   31.2930   33.9160 C   0  0  0  0  0  0  0  0  0  0  0  0
   34.6560   31.4020   34.9690 C   0  0  0  0  0  0  0  0  0  0  0  0
   36.2880   30.5330   36.0040 H   0  0  0  0  0  0  0  0  0  0  0  0
   34.8370   28.3590   32.6780 H   0  0  0  0  0  0  0  0  0  0  0  0
   32.6360   29.6690   31.3780 H   0  0  0  0  0  0  0  0  0  0  0  0
   31.3770   31.8520   31.8030 H   0  0  0  0  0  0  0  0  0  0  0  0
   32.3990   33.0910   33.9160 H   0  0  0  0  0  0  0  0  0  0  0  0
   34.6020   32.5820   35.8750 C   0  0  0  0  0  0  0  0  0  0  0  0
   33.8170   32.5500   37.0540 C   0  0  0  0  0  0  0  0  0  0  0  0
   33.1680   31.7490   37.4890 H   0  0  0  0  0  0  0  0  0  0  0  0
   34.1230   34.2470   37.7720 S   0  0  0  0  0  0  0  0  0  0  0  0
   35.2680   34.6890   36.3260 C   0  0  0  0  0  0  0  0  0  0  0  0
   35.7720   35.6290   36.2120 H   0  0  0  0  0  0  0  0  0  0  0  0
   35.2580   33.6870   35.6430 N   0  0  0  0  0  0  0  0  0  0  0  0
   37.0770   27.6960   33.2210 C   0  0  0  0  0  0  0  0  0  0  0  0
   37.4050   28.5640   32.6120 H   0  0  0  0  0  0  0  0  0  0  0  0
   36.1690   27.1810   32.8250 H   0  0  0  0  0  0  0  0  0  0  0  0
   38.4780   26.0900   34.5730 C   0  0  1  0  0  0  0  0  0  0  0  0
   39.4810   27.0580   33.9880 C   0  0  0  0  0  0  0  0  0  0  0  0
   38.2220   26.7530   33.2820 C   0  0  2  0  0  0  0  0  0  0  0  0
   37.8850   26.4210   35.4680 H   0  0  0  0  0  0  0  0  0  0  0  0
   39.5390   28.0760   34.4660 H   0  0  0  0  0  0  0  0  0  0  0  0
   40.4450   26.7150   33.6050 H   0  0  0  0  0  0  0  0  0  0  0  0
   38.3710   26.0840   32.3830 H   0  0  0  0  0  0  0  0  0  0  0  0
   38.9270   24.6620   34.6430 C   0  0  0  0  0  0  0  0  0  0  0  0
   40.0010   24.6240   34.2970 H   0  0  0  0  0  0  0  0  0  0  0  0
   38.3290   24.0690   33.9370 H   0  0  0  0  0  0  0  0  0  0  0  0
   37.9570   24.1090   38.2080 C   0  0  0  0  0  0  0  0  0  0  0  0
   37.9590   24.5870   36.8660 C   0  0  0  0  0  0  0  0  0  0  0  0
   38.9440   24.1540   36.0270 C   0  0  0  0  0  0  0  0  0  0  0  0
   39.8620   23.3010   36.5060 N   0  0  0  0  0  0  0  0  0  0  0  0
   39.8580   22.8540   37.7660 C   0  0  0  0  0  0  0  0  0  0  0  0
   38.8960   23.2700   38.6030 N   0  0  0  0  0  0  0  0  0  0  0  0
   37.1460   24.4950   38.8120 H   0  0  0  0  0  0  0  0  0  0  0  0
   37.1910   25.2750   36.5390 H   0  0  0  0  0  0  0  0  0  0  0  0
   40.5980   22.1650   38.1520 H   0  0  0  0  0  0  0  0  0  0  0  0
  1  3  1  0  0  0  0
  1  2  1  0  0  0  0
  4 13  1  0  0  0  0
  5  1  1  0  0  0  0
  5  4  2  0  0  0  0
  6  5  1  0  0  0  0
  7  6  2  0  0  0  0
  7 11  1  0  0  0  0
  8  9  1  0  0  0  0
  8  7  1  0  0  0  0
  9 10  2  0  0  0  0
 10 11  1  0  0  0  0
 10 17  1  0  0  0  0
 11 12  2  0  0  0  0
 12  4  1  0  0  0  0
 12 18  1  0  0  0  0
 14  6  1  0  0  0  0
 15  8  1  0  0  0  0
 16  9  1  0  0  0  0
 18 19  2  0  0  0  0
 19 20  1  0  0  0  0
 19 21  1  0  0  0  0
 22 21  1  0  0  0  0
 23 22  1  0  0  0  0
 24 18  1  0  0  0  0
 24 22  2  0  0  0  0
 25 30  1  0  0  0  0
 25  1  1  0  0  0  0
 26 25  1  0  0  0  0
 27 25  1  0  0  0  0
 28 35  1  0  0  0  0
 28 31  1  1  0  0  0
 29 32  1  0  0  0  0
 29 28  1  0  0  0  0
 30 34  1  6  0  0  0
 30 29  1  0  0  0  0
 30 28  1  0  0  0  0
 33 29  1  0  0  0  0
 35 40  1  0  0  0  0
 36 35  1  0  0  0  0
 37 35  1  0  0  0  0
 38 43  1  0  0  0  0
 38 44  1  0  0  0  0
 39 38  2  0  0  0  0
 40 41  2  0  0  0  0
 40 39  1  0  0  0  0
 41 42  1  0  0  0  0
 42 46  1  0  0  0  0
 42 43  2  0  0  0  0
 45 39  1  0  0  0  0
M  END
>  <minimizedAffinity>
-5.52653742

$$$$

 OpenBabel03262520523D

 46 50  0  0  1  0  0  0  0  0999 V2000
   38.8470   26.3720   35.5650 C   0  0  0  0  0  0  0  0  0  0  0  0
   39.1430   27.1370   36.2960 H   0  0  0  0  0  0  0  0  0  0  0  0
   39.7080   25.8310   35.1240 H   0  0  0  0  0  0  0  0  0  0  0  0
   37.0580   27.9660   34.9230 C   0  0  0  0  0  0  0  0  0  0  0  0
   38.0450   27.0830   34.5170 C   0  0  0  0  0  0  0  0  0  0  0  0
   38.2560   26.8880   33.1610 C   0  0  0  0  0  0  0  0  0  0  0  0
   37.5240   27.5400   32.2090 C   0  0  0  0  0  0  0  0  0  0  0  0
   37.5420   27.5220   30.8710 N   0  0  0  0  0  0  0  0  0  0  0  0
   36.5980   28.3670   30.4390 C   0  0  0  0  0  0  0  0  0  0  0  0
   35.9330   28.9650   31.4760 C   0  0  0  0  0  0  0  0  0  0  0  0
   36.5460   28.4170   32.6120 C   0  0  0  0  0  0  0  0  0  0  0  0
   36.3040   28.6370   33.9610 C   0  0  0  0  0  0  0  0  0  0  0  0
   36.8420   28.1700   35.9560 H   0  0  0  0  0  0  0  0  0  0  0  0
   39.0410   26.1860   32.9370 H   0  0  0  0  0  0  0  0  0  0  0  0
   38.2030   26.9300   30.2920 H   0  0  0  0  0  0  0  0  0  0  0  0
   36.4230   28.5220   29.3830 H   0  0  0  0  0  0  0  0  0  0  0  0
   35.1320   29.6810   31.3930 H   0  0  0  0  0  0  0  0  0  0  0  0
   35.2410   29.5890   34.3820 C   0  0  0  0  0  0  0  0  0  0  0  0
   35.5550   30.9420   34.6580 C   0  0  0  0  0  0  0  0  0  0  0  0
   36.5250   31.5000   34.6230 H   0  0  0  0  0  0  0  0  0  0  0  0
   33.8860   31.6420   35.1230 S   0  0  0  0  0  0  0  0  0  0  0  0
   33.0660   29.9530   34.8540 C   0  0  0  0  0  0  0  0  0  0  0  0
   32.0200   29.7530   34.9900 H   0  0  0  0  0  0  0  0  0  0  0  0
   33.9900   29.2430   34.5170 N   0  0  0  0  0  0  0  0  0  0  0  0
   37.9380   25.3620   36.2250 C   0  0  0  0  0  0  0  0  0  0  0  0
   37.0870   25.2090   35.5280 H   0  0  0  0  0  0  0  0  0  0  0  0
   37.6460   25.8100   37.2050 H   0  0  0  0  0  0  0  0  0  0  0  0
   39.4600   23.5430   35.3630 C   0  0  1  0  0  0  0  0  0  0  0  0
   38.1690   22.8260   35.6870 C   0  0  0  0  0  0  0  0  0  0  0  0
   38.5710   24.0350   36.4310 C   0  0  2  0  0  0  0  0  0  0  0  0
   39.5140   24.1260   34.4050 H   0  0  0  0  0  0  0  0  0  0  0  0
   37.3200   22.9610   34.9580 H   0  0  0  0  0  0  0  0  0  0  0  0
   38.1690   21.8410   36.1600 H   0  0  0  0  0  0  0  0  0  0  0  0
   38.9370   23.8090   37.4760 H   0  0  0  0  0  0  0  0  0  0  0  0
   40.7140   22.7850   35.6780 C   0  0  0  0  0  0  0  0  0  0  0  0
   40.9010   22.0660   34.8280 H   0  0  0  0  0  0  0  0  0  0  0  0
   40.5480   22.1910   36.5870 H   0  0  0  0  0  0  0  0  0  0  0  0
   44.0510   24.1690   36.6300 C   0  0  0  0  0  0  0  0  0  0  0  0
   42.8980   23.3340   36.5800 C   0  0  0  0  0  0  0  0  0  0  0  0
   41.8980   23.6640   35.7130 C   0  0  0  0  0  0  0  0  0  0  0  0
   42.0490   24.7570   34.9500 N   0  0  0  0  0  0  0  0  0  0  0  0
   43.1310   25.5390   34.9990 C   0  0  0  0  0  0  0  0  0  0  0  0
   44.1230   25.2280   35.8460 N   0  0  0  0  0  0  0  0  0  0  0  0
   44.8000   23.8440   37.3400 H   0  0  0  0  0  0  0  0  0  0  0  0
   42.8360   22.4650   37.2220 H   0  0  0  0  0  0  0  0  0  0  0  0
   43.2520   26.4210   34.3830 H   0  0  0  0  0  0  0  0  0  0  0  0
  1 25  1  0  0  0  0
  1  2  1  0  0  0  0
  3  1  1  0  0  0  0
  4 13  1  0  0  0  0
  5  4  1  0  0  0  0
  5  1  1  0  0  0  0
  6  5  2  0  0  0  0
  7 11  2  0  0  0  0
  7  6  1  0  0  0  0
  8  7  1  0  0  0  0
  9  8  1  0  0  0  0
  9 10  2  0  0  0  0
 10 11  1  0  0  0  0
 11 12  1  0  0  0  0
 12 18  1  0  0  0  0
 12  4  2  0  0  0  0
 14  6  1  0  0  0  0
 15  8  1  0  0  0  0
 16  9  1  0  0  0  0
 17 10  1  0  0  0  0
 18 24  1  0  0  0  0
 18 19  2  0  0  0  0
 19 21  1  0  0  0  0
 20 19  1  0  0  0  0
 22 23  1  0  0  0  0
 22 21  1  0  0  0  0
 24 22  2  0  0  0  0
 25 30  1  0  0  0  0
 25 27  1  0  0  0  0
 26 25  1  0  0  0  0
 28 31  1  6  0  0  0
 28 35  1  0  0  0  0
 28 29  1  0  0  0  0
 28 30  1  0  0  0  0
 29 33  1  0  0  0  0
 29 30  1  0  0  0  0
 30 34  1  1  0  0  0
 32 29  1  0  0  0  0
 35 40  1  0  0  0  0
 35 37  1  0  0  0  0
 36 35  1  0  0  0  0
 38 44  1  0  0  0  0
 39 38  1  0  0  0  0
 39 45  1  0  0  0  0
 40 39  2  0  0  0  0
 41 42  2  0  0  0  0
 41 40  1  0  0  0  0
 42 43  1  0  0  0  0
 43 38  2  0  0  0  0
 46 42  1  0  0  0  0
M  END
>  <minimizedAffinity>
-5.51450682

$$$$
