
 OpenBabel03272510223D

 34 37  0  0  0  0  0  0  0  0999 V2000
   35.0270   32.2330   32.4110 Br  0  0  0  0  0  0  0  0  0  0  0  0
   35.6990   30.4830   32.7440 C   0  0  0  0  0  0  0  0  0  0  0  0
   35.5540   29.8880   33.9920 C   0  0  0  0  0  0  0  0  0  0  0  0
   36.0650   28.6240   34.1550 C   0  0  0  0  0  0  0  0  0  0  0  0
   36.7100   27.9220   33.1540 C   0  0  0  0  0  0  0  0  0  0  0  0
   36.8350   28.5430   31.9310 C   0  0  0  0  0  0  0  0  0  0  0  0
   36.3320   29.8100   31.7380 C   0  0  0  0  0  0  0  0  0  0  0  0
   35.9770   28.1220   35.1070 H   0  0  0  0  0  0  0  0  0  0  0  0
   37.3300   28.0480   31.1010 H   0  0  0  0  0  0  0  0  0  0  0  0
   36.4520   30.2640   30.7590 H   0  0  0  0  0  0  0  0  0  0  0  0
   35.0600   32.0660   36.8680 C   0  0  0  0  0  0  0  0  0  0  0  0
   33.6740   31.9370   37.1420 C   0  0  0  0  0  0  0  0  0  0  0  0
   32.9350   31.1030   36.3340 C   0  0  0  0  0  0  0  0  0  0  0  0
   33.5660   30.4510   35.3200 N   0  0  0  0  0  0  0  0  0  0  0  0
   34.8870   30.5850   35.0720 C   0  0  0  0  0  0  0  0  0  0  0  0
   35.6240   31.4000   35.8590 N   0  0  0  0  0  0  0  0  0  0  0  0
   35.5780   32.7360   37.5420 H   0  0  0  0  0  0  0  0  0  0  0  0
   33.1340   32.4300   37.9280 H   0  0  0  0  0  0  0  0  0  0  0  0
   31.8940   30.8780   36.3780 H   0  0  0  0  0  0  0  0  0  0  0  0
   37.2470   26.5930   33.3250 C   0  0  0  0  0  0  0  0  0  0  0  0
   37.5200   25.7120   32.2920 C   0  0  0  0  0  0  0  0  0  0  0  0
   38.0350   24.4450   32.4850 C   0  0  0  0  0  0  0  0  0  0  0  0
   38.2880   24.0400   33.7430 N   0  0  0  0  0  0  0  0  0  0  0  0
   38.0300   24.8790   34.7570 C   0  0  0  0  0  0  0  0  0  0  0  0
   37.5280   26.1100   34.5410 N   0  0  0  0  0  0  0  0  0  0  0  0
   37.3130   26.0490   31.2680 H   0  0  0  0  0  0  0  0  0  0  0  0
   38.2080   23.8470   31.6100 H   0  0  0  0  0  0  0  0  0  0  0  0
   38.3400   24.3350   36.0800 C   0  0  0  0  0  0  0  0  0  0  0  0
   39.5430   23.5170   35.9920 C   0  0  0  0  0  0  0  0  0  0  0  0
   40.2560   23.2070   35.2290 H   0  0  0  0  0  0  0  0  0  0  0  0
   39.7750   22.9170   37.7690 S   0  0  0  0  0  0  0  0  0  0  0  0
   38.2150   23.8840   38.2670 C   0  0  0  0  0  0  0  0  0  0  0  0
   37.4700   24.1800   39.1750 H   0  0  0  0  0  0  0  0  0  0  0  0
   37.8730   24.3580   37.3110 N   0  0  0  0  0  0  0  0  0  0  0  0
  1  2  1  0  0  0  0
  2  3  1  0  0  0  0
  3  4  2  0  0  0  0
  3 15  1  0  0  0  0
  4  8  1  0  0  0  0
  5 20  1  0  0  0  0
  5  4  1  0  0  0  0
  6  5  2  0  0  0  0
  7  6  1  0  0  0  0
  7  2  2  0  0  0  0
  9  6  1  0  0  0  0
 10  7  1  0  0  0  0
 11 12  1  0  0  0  0
 11 17  1  0  0  0  0
 12 18  1  0  0  0  0
 13 19  1  0  0  0  0
 13 12  2  0  0  0  0
 14 13  1  0  0  0  0
 15 14  2  0  0  0  0
 15 16  1  0  0  0  0
 16 11  2  0  0  0  0
 20 25  1  0  0  0  0
 21 22  1  0  0  0  0
 21 20  2  0  0  0  0
 22 23  2  0  0  0  0
 23 24  1  0  0  0  0
 24 28  1  0  0  0  0
 25 24  2  0  0  0  0
 26 21  1  0  0  0  0
 27 22  1  0  0  0  0
 28 34  1  0  0  0  0
 29 28  2  0  0  0  0
 29 31  1  0  0  0  0
 30 29  1  0  0  0  0
 31 32  1  0  0  0  0
 32 33  1  0  0  0  0
 34 32  2  0  0  0  0
M  END
>  <minimizedAffinity>
-6.11715317

$$$$

 OpenBabel03272510223D

 34 37  0  0  0  0  0  0  0  0999 V2000
   38.1760   21.8220   33.2230 Br  0  0  0  0  0  0  0  0  0  0  0  0
   37.7150   23.6680   33.1450 C   0  0  0  0  0  0  0  0  0  0  0  0
   37.9270   24.5030   34.2350 C   0  0  0  0  0  0  0  0  0  0  0  0
   37.5690   25.8220   34.1030 C   0  0  0  0  0  0  0  0  0  0  0  0
   37.0140   26.3550   32.9540 C   0  0  0  0  0  0  0  0  0  0  0  0
   36.8180   25.4970   31.8940 C   0  0  0  0  0  0  0  0  0  0  0  0
   37.1680   24.1690   31.9980 C   0  0  0  0  0  0  0  0  0  0  0  0
   37.7140   26.5090   34.9230 H   0  0  0  0  0  0  0  0  0  0  0  0
   36.3860   25.8490   30.9620 H   0  0  0  0  0  0  0  0  0  0  0  0
   36.9970   23.5260   31.1400 H   0  0  0  0  0  0  0  0  0  0  0  0
   40.3980   23.1800   36.5600 C   0  0  0  0  0  0  0  0  0  0  0  0
   39.6610   23.0130   37.7610 C   0  0  0  0  0  0  0  0  0  0  0  0
   38.3270   23.3560   37.7490 C   0  0  0  0  0  0  0  0  0  0  0  0
   37.7890   23.8370   36.5950 N   0  0  0  0  0  0  0  0  0  0  0  0
   38.5050   23.9910   35.4600 C   0  0  0  0  0  0  0  0  0  0  0  0
   39.8150   23.6560   35.4590 N   0  0  0  0  0  0  0  0  0  0  0  0
   41.4380   22.8900   36.6420 H   0  0  0  0  0  0  0  0  0  0  0  0
   40.0420   22.6380   38.6920 H   0  0  0  0  0  0  0  0  0  0  0  0
   37.6160   23.3040   38.5400 H   0  0  0  0  0  0  0  0  0  0  0  0
   36.6370   27.7410   32.8140 C   0  0  0  0  0  0  0  0  0  0  0  0
   36.8820   28.5180   31.6940 C   0  0  0  0  0  0  0  0  0  0  0  0
   36.5090   29.8440   31.5880 C   0  0  0  0  0  0  0  0  0  0  0  0
   35.8730   30.4160   32.6260 N   0  0  0  0  0  0  0  0  0  0  0  0
   35.6270   29.6800   33.7190 C   0  0  0  0  0  0  0  0  0  0  0  0
   36.0010   28.3890   33.7970 N   0  0  0  0  0  0  0  0  0  0  0  0
   37.4000   28.0440   30.8510 H   0  0  0  0  0  0  0  0  0  0  0  0
   36.7510   30.3480   30.6710 H   0  0  0  0  0  0  0  0  0  0  0  0
   34.9320   30.4050   34.7860 C   0  0  0  0  0  0  0  0  0  0  0  0
   35.8910   31.2310   35.5070 C   0  0  0  0  0  0  0  0  0  0  0  0
   36.9570   31.4520   35.4710 H   0  0  0  0  0  0  0  0  0  0  0  0
   34.8190   32.0720   36.8170 S   0  0  0  0  0  0  0  0  0  0  0  0
   33.3070   31.1450   36.1310 C   0  0  0  0  0  0  0  0  0  0  0  0
   32.1160   30.9570   36.2410 H   0  0  0  0  0  0  0  0  0  0  0  0
   33.7220   30.5380   35.2860 N   0  0  0  0  0  0  0  0  0  0  0  0
  2  1  1  0  0  0  0
  2  3  1  0  0  0  0
  3 15  1  0  0  0  0
  4  3  2  0  0  0  0
  4  8  1  0  0  0  0
  5  4  1  0  0  0  0
  6  7  1  0  0  0  0
  6  5  2  0  0  0  0
  7  2  2  0  0  0  0
  9  6  1  0  0  0  0
 10  7  1  0  0  0  0
 11 17  1  0  0  0  0
 11 12  1  0  0  0  0
 12 18  1  0  0  0  0
 13 12  2  0  0  0  0
 13 19  1  0  0  0  0
 14 13  1  0  0  0  0
 15 14  2  0  0  0  0
 16 15  1  0  0  0  0
 16 11  2  0  0  0  0
 20  5  1  0  0  0  0
 20 25  1  0  0  0  0
 21 20  2  0  0  0  0
 22 21  1  0  0  0  0
 22 23  2  0  0  0  0
 23 24  1  0  0  0  0
 24 25  2  0  0  0  0
 24 28  1  0  0  0  0
 26 21  1  0  0  0  0
 27 22  1  0  0  0  0
 28 34  1  0  0  0  0
 28 29  2  0  0  0  0
 29 31  1  0  0  0  0
 30 29  1  0  0  0  0
 32 33  1  0  0  0  0
 32 31  1  0  0  0  0
 34 32  2  0  0  0  0
M  END
>  <minimizedAffinity>
-5.67564011

$$$$

 OpenBabel03272510223D

 34 37  0  0  0  0  0  0  0  0999 V2000
   34.2140   32.2010   32.3790 Br  0  0  0  0  0  0  0  0  0  0  0  0
   35.1730   30.5750   32.6290 C   0  0  0  0  0  0  0  0  0  0  0  0
   35.2750   29.9940   33.8880 C   0  0  0  0  0  0  0  0  0  0  0  0
   35.9830   28.8210   33.9880 C   0  0  0  0  0  0  0  0  0  0  0  0
   36.5910   28.1970   32.9150 C   0  0  0  0  0  0  0  0  0  0  0  0
   36.4690   28.8030   31.6840 C   0  0  0  0  0  0  0  0  0  0  0  0
   35.7660   29.9790   31.5530 C   0  0  0  0  0  0  0  0  0  0  0  0
   36.0890   28.3320   34.9450 H   0  0  0  0  0  0  0  0  0  0  0  0
   36.9230   28.3670   30.7990 H   0  0  0  0  0  0  0  0  0  0  0  0
   35.6930   30.4240   30.5650 H   0  0  0  0  0  0  0  0  0  0  0  0
   34.8790   32.0400   36.8730 C   0  0  0  0  0  0  0  0  0  0  0  0
   33.5300   31.8120   37.2490 C   0  0  0  0  0  0  0  0  0  0  0  0
   32.7810   30.9590   36.4700 C   0  0  0  0  0  0  0  0  0  0  0  0
   33.3680   30.3830   35.3860 N   0  0  0  0  0  0  0  0  0  0  0  0
   34.6540   30.6100   35.0420 C   0  0  0  0  0  0  0  0  0  0  0  0
   35.4000   31.4450   35.7990 N   0  0  0  0  0  0  0  0  0  0  0  0
   35.4060   32.7200   37.5300 H   0  0  0  0  0  0  0  0  0  0  0  0
   33.0250   32.2440   38.0930 H   0  0  0  0  0  0  0  0  0  0  0  0
   31.7630   30.6660   36.5870 H   0  0  0  0  0  0  0  0  0  0  0  0
   37.3350   26.9650   33.0210 C   0  0  0  0  0  0  0  0  0  0  0  0
   38.6220   26.8590   33.5230 C   0  0  0  0  0  0  0  0  0  0  0  0
   39.3100   25.6650   33.6130 C   0  0  0  0  0  0  0  0  0  0  0  0
   38.7030   24.5410   33.1910 N   0  0  0  0  0  0  0  0  0  0  0  0
   37.4570   24.6230   32.7010 C   0  0  0  0  0  0  0  0  0  0  0  0
   36.8080   25.8000   32.6250 N   0  0  0  0  0  0  0  0  0  0  0  0
   39.1110   27.7790   33.8660 H   0  0  0  0  0  0  0  0  0  0  0  0
   40.3040   25.7010   34.0190 H   0  0  0  0  0  0  0  0  0  0  0  0
   36.8960   23.3410   32.2720 C   0  0  0  0  0  0  0  0  0  0  0  0
   37.4970   22.2680   33.0520 C   0  0  0  0  0  0  0  0  0  0  0  0
   38.2340   22.1620   33.8480 H   0  0  0  0  0  0  0  0  0  0  0  0
   36.6570   20.7230   32.3610 S   0  0  0  0  0  0  0  0  0  0  0  0
   35.6710   21.8290   31.1700 C   0  0  0  0  0  0  0  0  0  0  0  0
   34.8420   21.8570   30.2870 H   0  0  0  0  0  0  0  0  0  0  0  0
   36.0230   22.8650   31.4080 N   0  0  0  0  0  0  0  0  0  0  0  0
  1  2  1  0  0  0  0
  2  3  1  0  0  0  0
  3  4  2  0  0  0  0
  3 15  1  0  0  0  0
  4  8  1  0  0  0  0
  5 20  1  0  0  0  0
  5  4  1  0  0  0  0
  6  5  2  0  0  0  0
  7  6  1  0  0  0  0
  7  2  2  0  0  0  0
  9  6  1  0  0  0  0
 10  7  1  0  0  0  0
 11 12  1  0  0  0  0
 11 17  1  0  0  0  0
 12 18  1  0  0  0  0
 13 19  1  0  0  0  0
 13 12  2  0  0  0  0
 14 13  1  0  0  0  0
 15 14  2  0  0  0  0
 15 16  1  0  0  0  0
 16 11  2  0  0  0  0
 20 21  1  0  0  0  0
 21 22  2  0  0  0  0
 21 26  1  0  0  0  0
 22 27  1  0  0  0  0
 23 22  1  0  0  0  0
 24 23  2  0  0  0  0
 25 24  1  0  0  0  0
 25 20  2  0  0  0  0
 28 24  1  0  0  0  0
 28 29  2  0  0  0  0
 29 30  1  0  0  0  0
 31 29  1  0  0  0  0
 32 34  2  0  0  0  0
 32 31  1  0  0  0  0
 33 32  1  0  0  0  0
 34 28  1  0  0  0  0
M  END
>  <minimizedAffinity>
-5.59637928

$$$$

 OpenBabel03272510223D

 34 37  0  0  0  0  0  0  0  0999 V2000
   36.9600   28.6770   31.6640 Br  0  0  0  0  0  0  0  0  0  0  0  0
   37.5050   27.4350   33.0010 C   0  0  0  0  0  0  0  0  0  0  0  0
   38.5760   26.5760   32.7810 C   0  0  0  0  0  0  0  0  0  0  0  0
   38.9090   25.7090   33.7930 C   0  0  0  0  0  0  0  0  0  0  0  0
   38.2420   25.6470   35.0020 C   0  0  0  0  0  0  0  0  0  0  0  0
   37.1870   26.5120   35.1830 C   0  0  0  0  0  0  0  0  0  0  0  0
   36.8290   27.3930   34.1860 C   0  0  0  0  0  0  0  0  0  0  0  0
   39.7340   25.0220   33.6690 H   0  0  0  0  0  0  0  0  0  0  0  0
   36.6190   26.5170   36.1080 H   0  0  0  0  0  0  0  0  0  0  0  0
   35.9910   28.0590   34.3690 H   0  0  0  0  0  0  0  0  0  0  0  0
   39.5490   25.7520   29.3710 C   0  0  0  0  0  0  0  0  0  0  0  0
   40.6520   26.6110   29.1290 C   0  0  0  0  0  0  0  0  0  0  0  0
   41.0420   27.4570   30.1430 C   0  0  0  0  0  0  0  0  0  0  0  0
   40.3530   27.4280   31.3160 N   0  0  0  0  0  0  0  0  0  0  0  0
   39.3050   26.6030   31.5310 C   0  0  0  0  0  0  0  0  0  0  0  0
   38.9140   25.7670   30.5440 N   0  0  0  0  0  0  0  0  0  0  0  0
   39.3000   25.1150   28.5320 H   0  0  0  0  0  0  0  0  0  0  0  0
   41.2240   26.6690   28.2230 H   0  0  0  0  0  0  0  0  0  0  0  0
   41.8360   28.1680   30.1540 H   0  0  0  0  0  0  0  0  0  0  0  0
   38.5930   24.7350   36.0650 C   0  0  0  0  0  0  0  0  0  0  0  0
   37.9490   24.6630   37.2890 C   0  0  0  0  0  0  0  0  0  0  0  0
   38.3060   23.7800   38.2890 C   0  0  0  0  0  0  0  0  0  0  0  0
   39.3340   22.9410   38.0670 N   0  0  0  0  0  0  0  0  0  0  0  0
   39.9700   22.9950   36.8870 C   0  0  0  0  0  0  0  0  0  0  0  0
   39.6010   23.8660   35.9290 N   0  0  0  0  0  0  0  0  0  0  0  0
   37.1110   25.3500   37.4630 H   0  0  0  0  0  0  0  0  0  0  0  0
   37.7360   23.8130   39.1990 H   0  0  0  0  0  0  0  0  0  0  0  0
   41.0710   22.0400   36.7560 C   0  0  0  0  0  0  0  0  0  0  0  0
   41.5280   22.0210   35.3730 C   0  0  0  0  0  0  0  0  0  0  0  0
   41.2790   22.5120   34.4320 H   0  0  0  0  0  0  0  0  0  0  0  0
   42.9280   20.7520   35.4080 S   0  0  0  0  0  0  0  0  0  0  0  0
   42.6160   20.5050   37.2680 C   0  0  0  0  0  0  0  0  0  0  0  0
   42.9570   19.9150   38.2680 H   0  0  0  0  0  0  0  0  0  0  0  0
   41.7690   21.2030   37.4950 N   0  0  0  0  0  0  0  0  0  0  0  0
  1  2  1  0  0  0  0
  2  7  1  0  0  0  0
  3  2  2  0  0  0  0
  3  4  1  0  0  0  0
  4  5  2  0  0  0  0
  5  6  1  0  0  0  0
  5 20  1  0  0  0  0
  6  9  1  0  0  0  0
  7 10  1  0  0  0  0
  7  6  2  0  0  0  0
  8  4  1  0  0  0  0
 11 16  1  0  0  0  0
 12 11  2  0  0  0  0
 12 13  1  0  0  0  0
 13 19  1  0  0  0  0
 13 14  2  0  0  0  0
 14 15  1  0  0  0  0
 15  3  1  0  0  0  0
 16 15  2  0  0  0  0
 17 11  1  0  0  0  0
 18 12  1  0  0  0  0
 20 21  1  0  0  0  0
 21 26  1  0  0  0  0
 21 22  2  0  0  0  0
 22 27  1  0  0  0  0
 23 22  1  0  0  0  0
 24 23  2  0  0  0  0
 25 20  2  0  0  0  0
 25 24  1  0  0  0  0
 28 24  1  0  0  0  0
 28 34  1  0  0  0  0
 29 31  1  0  0  0  0
 29 28  2  0  0  0  0
 30 29  1  0  0  0  0
 31 32  1  0  0  0  0
 32 34  2  0  0  0  0
 32 33  1  0  0  0  0
M  END
>  <minimizedAffinity>
-5.42908001

$$$$

 OpenBabel03272510223D

 34 37  0  0  0  0  0  0  0  0999 V2000
   40.7510   24.5680   34.7880 Br  0  0  0  0  0  0  0  0  0  0  0  0
   39.3140   25.7600   34.4150 C   0  0  0  0  0  0  0  0  0  0  0  0
   38.1740   25.7730   35.2100 C   0  0  0  0  0  0  0  0  0  0  0  0
   37.1800   26.6600   34.8780 C   0  0  0  0  0  0  0  0  0  0  0  0
   37.2540   27.5310   33.8060 C   0  0  0  0  0  0  0  0  0  0  0  0
   38.3990   27.4890   33.0410 C   0  0  0  0  0  0  0  0  0  0  0  0
   39.4120   26.6090   33.3500 C   0  0  0  0  0  0  0  0  0  0  0  0
   36.2750   26.7070   35.4660 H   0  0  0  0  0  0  0  0  0  0  0  0
   38.5230   28.1450   32.1850 H   0  0  0  0  0  0  0  0  0  0  0  0
   40.2980   26.6080   32.7220 H   0  0  0  0  0  0  0  0  0  0  0  0
   37.5790   22.7280   37.1160 C   0  0  0  0  0  0  0  0  0  0  0  0
   37.7990   23.1340   38.4570 C   0  0  0  0  0  0  0  0  0  0  0  0
   38.1460   24.4470   38.6830 C   0  0  0  0  0  0  0  0  0  0  0  0
   38.2620   25.2820   37.6150 N   0  0  0  0  0  0  0  0  0  0  0  0
   38.0490   24.8800   36.3430 C   0  0  0  0  0  0  0  0  0  0  0  0
   37.7070   23.5940   36.1090 N   0  0  0  0  0  0  0  0  0  0  0  0
   37.3100   21.6850   37.0140 H   0  0  0  0  0  0  0  0  0  0  0  0
   37.7190   22.5120   39.3290 H   0  0  0  0  0  0  0  0  0  0  0  0
   38.3500   24.9360   39.6070 H   0  0  0  0  0  0  0  0  0  0  0  0
   36.2100   28.4630   33.4570 C   0  0  0  0  0  0  0  0  0  0  0  0
   35.9830   28.9550   32.1820 C   0  0  0  0  0  0  0  0  0  0  0  0
   34.9740   29.8480   31.8760 C   0  0  0  0  0  0  0  0  0  0  0  0
   34.1650   30.2650   32.8670 N   0  0  0  0  0  0  0  0  0  0  0  0
   34.3690   29.8010   34.1080 C   0  0  0  0  0  0  0  0  0  0  0  0
   35.3600   28.9310   34.3790 N   0  0  0  0  0  0  0  0  0  0  0  0
   36.6450   28.6090   31.3790 H   0  0  0  0  0  0  0  0  0  0  0  0
   34.8910   30.1620   30.8520 H   0  0  0  0  0  0  0  0  0  0  0  0
   33.4330   30.3230   35.1050 C   0  0  0  0  0  0  0  0  0  0  0  0
   32.2450   29.4800   35.1350 C   0  0  0  0  0  0  0  0  0  0  0  0
   31.8720   28.5890   34.6290 H   0  0  0  0  0  0  0  0  0  0  0  0
   31.1780   30.3030   36.4600 S   0  0  0  0  0  0  0  0  0  0  0  0
   32.5400   31.6070   36.7040 C   0  0  0  0  0  0  0  0  0  0  0  0
   32.8780   32.5970   37.3140 H   0  0  0  0  0  0  0  0  0  0  0  0
   33.3360   31.3070   35.9740 N   0  0  0  0  0  0  0  0  0  0  0  0
  2  1  1  0  0  0  0
  2  3  1  0  0  0  0
  3 15  1  0  0  0  0
  4  3  2  0  0  0  0
  4  8  1  0  0  0  0
  5  4  1  0  0  0  0
  6  7  1  0  0  0  0
  6  5  2  0  0  0  0
  7  2  2  0  0  0  0
  9  6  1  0  0  0  0
 10  7  1  0  0  0  0
 11 12  1  0  0  0  0
 12 13  2  0  0  0  0
 12 18  1  0  0  0  0
 13 19  1  0  0  0  0
 14 13  1  0  0  0  0
 15 14  2  0  0  0  0
 16 15  1  0  0  0  0
 16 11  2  0  0  0  0
 17 11  1  0  0  0  0
 20  5  1  0  0  0  0
 20 25  1  0  0  0  0
 21 20  2  0  0  0  0
 22 21  1  0  0  0  0
 22 23  2  0  0  0  0
 23 24  1  0  0  0  0
 24 25  2  0  0  0  0
 24 28  1  0  0  0  0
 26 21  1  0  0  0  0
 27 22  1  0  0  0  0
 28 29  2  0  0  0  0
 28 34  1  0  0  0  0
 29 31  1  0  0  0  0
 30 29  1  0  0  0  0
 31 32  1  0  0  0  0
 32 33  1  0  0  0  0
 34 32  2  0  0  0  0
M  END
>  <minimizedAffinity>
-5.33630514

$$$$

 OpenBabel03272510223D

 34 37  0  0  0  0  0  0  0  0999 V2000
   36.5910   30.6150   30.7440 Br  0  0  0  0  0  0  0  0  0  0  0  0
   36.9010   28.8790   31.4610 C   0  0  0  0  0  0  0  0  0  0  0  0
   36.2840   28.4730   32.6380 C   0  0  0  0  0  0  0  0  0  0  0  0
   36.5580   27.2060   33.0920 C   0  0  0  0  0  0  0  0  0  0  0  0
   37.4050   26.3250   32.4470 C   0  0  0  0  0  0  0  0  0  0  0  0
   37.9980   26.7620   31.2840 C   0  0  0  0  0  0  0  0  0  0  0  0
   37.7430   28.0280   30.8040 C   0  0  0  0  0  0  0  0  0  0  0  0
   36.1020   26.8460   34.0030 H   0  0  0  0  0  0  0  0  0  0  0  0
   38.6750   26.1220   30.7260 H   0  0  0  0  0  0  0  0  0  0  0  0
   38.2310   28.3340   29.8830 H   0  0  0  0  0  0  0  0  0  0  0  0
   33.2210   30.1900   33.6030 C   0  0  0  0  0  0  0  0  0  0  0  0
   33.6390   31.0270   34.6700 C   0  0  0  0  0  0  0  0  0  0  0  0
   34.9650   30.9870   35.0370 C   0  0  0  0  0  0  0  0  0  0  0  0
   35.8010   30.1510   34.3650 N   0  0  0  0  0  0  0  0  0  0  0  0
   35.3890   29.3600   33.3510 C   0  0  0  0  0  0  0  0  0  0  0  0
   34.0900   29.3910   32.9800 N   0  0  0  0  0  0  0  0  0  0  0  0
   32.1680   30.2730   33.3680 H   0  0  0  0  0  0  0  0  0  0  0  0
   33.0160   31.7000   35.2280 H   0  0  0  0  0  0  0  0  0  0  0  0
   35.4630   31.5330   35.8050 H   0  0  0  0  0  0  0  0  0  0  0  0
   37.6920   24.9930   32.9240 C   0  0  0  0  0  0  0  0  0  0  0  0
   37.5930   23.8420   32.1610 C   0  0  0  0  0  0  0  0  0  0  0  0
   37.8740   22.5790   32.6450 C   0  0  0  0  0  0  0  0  0  0  0  0
   38.2680   22.4550   33.9250 N   0  0  0  0  0  0  0  0  0  0  0  0
   38.3700   23.5590   34.6800 C   0  0  0  0  0  0  0  0  0  0  0  0
   38.0890   24.7780   34.1840 N   0  0  0  0  0  0  0  0  0  0  0  0
   37.2730   23.9500   31.1170 H   0  0  0  0  0  0  0  0  0  0  0  0
   37.7630   21.7560   31.9620 H   0  0  0  0  0  0  0  0  0  0  0  0
   38.8030   23.3070   36.0560 C   0  0  0  0  0  0  0  0  0  0  0  0
   37.7920   23.8080   36.9770 C   0  0  0  0  0  0  0  0  0  0  0  0
   36.8250   24.3080   36.9230 H   0  0  0  0  0  0  0  0  0  0  0  0
   38.5240   23.3940   38.6700 S   0  0  0  0  0  0  0  0  0  0  0  0
   40.0330   22.6340   37.7980 C   0  0  0  0  0  0  0  0  0  0  0  0
   41.1000   22.0810   37.9480 H   0  0  0  0  0  0  0  0  0  0  0  0
   39.8140   22.7710   36.7080 N   0  0  0  0  0  0  0  0  0  0  0  0
  1  2  1  0  0  0  0
  2  3  1  0  0  0  0
  3  4  2  0  0  0  0
  3 15  1  0  0  0  0
  4  8  1  0  0  0  0
  5 20  1  0  0  0  0
  5  4  1  0  0  0  0
  6  5  2  0  0  0  0
  7  6  1  0  0  0  0
  7  2  2  0  0  0  0
  9  6  1  0  0  0  0
 10  7  1  0  0  0  0
 11 12  1  0  0  0  0
 12 13  2  0  0  0  0
 12 18  1  0  0  0  0
 13 19  1  0  0  0  0
 14 13  1  0  0  0  0
 15 14  2  0  0  0  0
 16 15  1  0  0  0  0
 16 11  2  0  0  0  0
 17 11  1  0  0  0  0
 20 25  1  0  0  0  0
 21 22  1  0  0  0  0
 21 20  2  0  0  0  0
 22 23  2  0  0  0  0
 23 24  1  0  0  0  0
 24 28  1  0  0  0  0
 25 24  2  0  0  0  0
 26 21  1  0  0  0  0
 27 22  1  0  0  0  0
 28 34  1  0  0  0  0
 28 29  2  0  0  0  0
 29 31  1  0  0  0  0
 30 29  1  0  0  0  0
 32 33  1  0  0  0  0
 32 31  1  0  0  0  0
 34 32  2  0  0  0  0
M  END
>  <minimizedAffinity>
-5.3360858

$$$$

 OpenBabel03272510223D

 34 37  0  0  0  0  0  0  0  0999 V2000
   39.3630   22.7090   36.3240 Br  0  0  0  0  0  0  0  0  0  0  0  0
   38.5840   24.2330   35.4900 C   0  0  0  0  0  0  0  0  0  0  0  0
   38.1440   24.1790   34.1730 C   0  0  0  0  0  0  0  0  0  0  0  0
   37.5940   25.3190   33.6410 C   0  0  0  0  0  0  0  0  0  0  0  0
   37.4560   26.5040   34.3400 C   0  0  0  0  0  0  0  0  0  0  0  0
   37.9030   26.5200   35.6430 C   0  0  0  0  0  0  0  0  0  0  0  0
   38.4600   25.3920   36.2030 C   0  0  0  0  0  0  0  0  0  0  0  0
   37.2380   25.3250   32.6210 H   0  0  0  0  0  0  0  0  0  0  0  0
   37.8260   27.4170   36.2490 H   0  0  0  0  0  0  0  0  0  0  0  0
   38.8000   25.4460   37.2330 H   0  0  0  0  0  0  0  0  0  0  0  0
   37.3020   20.9430   32.7300 C   0  0  0  0  0  0  0  0  0  0  0  0
   38.4430   20.6280   31.9480 C   0  0  0  0  0  0  0  0  0  0  0  0
   39.4810   21.5320   31.9320 C   0  0  0  0  0  0  0  0  0  0  0  0
   39.3600   22.6750   32.6590 N   0  0  0  0  0  0  0  0  0  0  0  0
   38.2670   22.9610   33.3990 C   0  0  0  0  0  0  0  0  0  0  0  0
   37.2420   22.0810   33.4250 N   0  0  0  0  0  0  0  0  0  0  0  0
   36.5270   20.1890   32.6970 H   0  0  0  0  0  0  0  0  0  0  0  0
   38.5820   19.7410   31.3590 H   0  0  0  0  0  0  0  0  0  0  0  0
   40.4090   21.4750   31.4110 H   0  0  0  0  0  0  0  0  0  0  0  0
   36.8780   27.7020   33.7810 C   0  0  0  0  0  0  0  0  0  0  0  0
   36.9290   28.0540   32.4430 C   0  0  0  0  0  0  0  0  0  0  0  0
   36.3650   29.2090   31.9350 C   0  0  0  0  0  0  0  0  0  0  0  0
   35.7310   30.0390   32.7820 N   0  0  0  0  0  0  0  0  0  0  0  0
   35.6710   29.7150   34.0820 C   0  0  0  0  0  0  0  0  0  0  0  0
   36.2290   28.5830   34.5510 N   0  0  0  0  0  0  0  0  0  0  0  0
   37.4460   27.3710   31.7570 H   0  0  0  0  0  0  0  0  0  0  0  0
   36.4660   29.3800   30.8790 H   0  0  0  0  0  0  0  0  0  0  0  0
   34.9600   30.6900   34.9110 C   0  0  0  0  0  0  0  0  0  0  0  0
   35.8990   31.3120   35.8350 C   0  0  0  0  0  0  0  0  0  0  0  0
   36.9610   31.2490   36.0720 H   0  0  0  0  0  0  0  0  0  0  0  0
   34.8080   32.5170   36.7970 S   0  0  0  0  0  0  0  0  0  0  0  0
   33.3170   31.9440   35.7660 C   0  0  0  0  0  0  0  0  0  0  0  0
   32.1300   32.0770   35.5670 H   0  0  0  0  0  0  0  0  0  0  0  0
   33.7460   31.1740   35.0750 N   0  0  0  0  0  0  0  0  0  0  0  0
  2  7  1  0  0  0  0
  2  1  1  0  0  0  0
  3  2  2  0  0  0  0
  4  3  1  0  0  0  0
  4  5  2  0  0  0  0
  5  6  1  0  0  0  0
  6  7  2  0  0  0  0
  6  9  1  0  0  0  0
  7 10  1  0  0  0  0
  8  4  1  0  0  0  0
 11 16  1  0  0  0  0
 12 11  2  0  0  0  0
 13 12  1  0  0  0  0
 13 14  2  0  0  0  0
 14 15  1  0  0  0  0
 15 16  2  0  0  0  0
 15  3  1  0  0  0  0
 17 11  1  0  0  0  0
 18 12  1  0  0  0  0
 19 13  1  0  0  0  0
 20  5  1  0  0  0  0
 20 25  1  0  0  0  0
 21 20  2  0  0  0  0
 22 21  1  0  0  0  0
 22 23  2  0  0  0  0
 23 24  1  0  0  0  0
 24 25  2  0  0  0  0
 24 28  1  0  0  0  0
 26 21  1  0  0  0  0
 27 22  1  0  0  0  0
 28 34  1  0  0  0  0
 28 29  2  0  0  0  0
 29 30  1  0  0  0  0
 29 31  1  0  0  0  0
 32 31  1  0  0  0  0
 33 32  1  0  0  0  0
 34 32  2  0  0  0  0
M  END
>  <minimizedAffinity>
-5.33443785

$$$$

 OpenBabel03272510223D

 34 37  0  0  0  0  0  0  0  0999 V2000
   35.4720   30.6050   35.1630 Br  0  0  0  0  0  0  0  0  0  0  0  0
   35.9490   29.0970   34.1020 C   0  0  0  0  0  0  0  0  0  0  0  0
   35.4170   28.9250   32.8290 C   0  0  0  0  0  0  0  0  0  0  0  0
   35.8080   27.8120   32.1250 C   0  0  0  0  0  0  0  0  0  0  0  0
   36.6920   26.8670   32.6110 C   0  0  0  0  0  0  0  0  0  0  0  0
   37.1980   27.0710   33.8760 C   0  0  0  0  0  0  0  0  0  0  0  0
   36.8240   28.1780   34.6060 C   0  0  0  0  0  0  0  0  0  0  0  0
   35.4210   27.6350   31.1320 H   0  0  0  0  0  0  0  0  0  0  0  0
   37.8970   26.3690   34.3190 H   0  0  0  0  0  0  0  0  0  0  0  0
   37.2450   28.3020   35.5980 H   0  0  0  0  0  0  0  0  0  0  0  0
   32.2750   30.6110   32.0940 C   0  0  0  0  0  0  0  0  0  0  0  0
   32.6700   31.6870   31.2580 C   0  0  0  0  0  0  0  0  0  0  0  0
   34.0080   31.8130   30.9610 C   0  0  0  0  0  0  0  0  0  0  0  0
   34.8780   30.9070   31.4830 N   0  0  0  0  0  0  0  0  0  0  0  0
   34.4860   29.8870   32.2770 C   0  0  0  0  0  0  0  0  0  0  0  0
   33.1750   29.7520   32.5740 N   0  0  0  0  0  0  0  0  0  0  0  0
   31.2100   30.5730   32.2840 H   0  0  0  0  0  0  0  0  0  0  0  0
   32.0200   32.4250   30.8240 H   0  0  0  0  0  0  0  0  0  0  0  0
   34.4940   32.5460   30.3590 H   0  0  0  0  0  0  0  0  0  0  0  0
   37.1030   25.6980   31.8710 C   0  0  0  0  0  0  0  0  0  0  0  0
   38.1260   25.6730   30.9380 C   0  0  0  0  0  0  0  0  0  0  0  0
   38.4990   24.5380   30.2440 C   0  0  0  0  0  0  0  0  0  0  0  0
   37.8350   23.3930   30.4830 N   0  0  0  0  0  0  0  0  0  0  0  0
   36.8400   23.3980   31.3830 C   0  0  0  0  0  0  0  0  0  0  0  0
   36.4980   24.5180   32.0460 N   0  0  0  0  0  0  0  0  0  0  0  0
   38.6650   26.6100   30.7490 H   0  0  0  0  0  0  0  0  0  0  0  0
   39.3080   24.6360   29.5440 H   0  0  0  0  0  0  0  0  0  0  0  0
   36.1870   22.0990   31.5610 C   0  0  0  0  0  0  0  0  0  0  0  0
   36.9850   21.0680   30.9120 C   0  0  0  0  0  0  0  0  0  0  0  0
   37.9120   21.0000   30.3430 H   0  0  0  0  0  0  0  0  0  0  0  0
   35.9940   19.4940   31.2500 S   0  0  0  0  0  0  0  0  0  0  0  0
   34.7140   20.5390   32.1920 C   0  0  0  0  0  0  0  0  0  0  0  0
   33.6760   20.5240   32.8150 H   0  0  0  0  0  0  0  0  0  0  0  0
   35.1140   21.5830   32.1230 N   0  0  0  0  0  0  0  0  0  0  0  0
  2  7  1  0  0  0  0
  2  1  1  0  0  0  0
  3  2  2  0  0  0  0
  4  5  2  0  0  0  0
  4  3  1  0  0  0  0
  5  6  1  0  0  0  0
  6  9  1  0  0  0  0
  6  7  2  0  0  0  0
  7 10  1  0  0  0  0
  8  4  1  0  0  0  0
 11 17  1  0  0  0  0
 11 16  1  0  0  0  0
 12 11  2  0  0  0  0
 13 12  1  0  0  0  0
 13 14  2  0  0  0  0
 14 15  1  0  0  0  0
 15 16  2  0  0  0  0
 15  3  1  0  0  0  0
 18 12  1  0  0  0  0
 19 13  1  0  0  0  0
 20 25  1  0  0  0  0
 20  5  1  0  0  0  0
 21 20  2  0  0  0  0
 22 23  2  0  0  0  0
 22 21  1  0  0  0  0
 23 24  1  0  0  0  0
 24 28  1  0  0  0  0
 24 25  2  0  0  0  0
 26 21  1  0  0  0  0
 27 22  1  0  0  0  0
 28 34  1  0  0  0  0
 29 31  1  0  0  0  0
 29 28  2  0  0  0  0
 30 29  1  0  0  0  0
 31 32  1  0  0  0  0
 32 33  1  0  0  0  0
 34 32  2  0  0  0  0
M  END
>  <minimizedAffinity>
-5.32405519

$$$$

 OpenBabel03272510223D

 34 37  0  0  0  0  0  0  0  0999 V2000
   39.0700   22.5310   35.4360 Br  0  0  0  0  0  0  0  0  0  0  0  0
   38.3210   24.1800   34.8490 C   0  0  0  0  0  0  0  0  0  0  0  0
   37.8340   24.3210   33.5540 C   0  0  0  0  0  0  0  0  0  0  0  0
   37.3090   25.5410   33.2050 C   0  0  0  0  0  0  0  0  0  0  0  0
   37.2410   26.6230   34.0630 C   0  0  0  0  0  0  0  0  0  0  0  0
   37.7330   26.4460   35.3370 C   0  0  0  0  0  0  0  0  0  0  0  0
   38.2660   25.2330   35.7160 C   0  0  0  0  0  0  0  0  0  0  0  0
   36.9190   25.6990   32.2100 H   0  0  0  0  0  0  0  0  0  0  0  0
   37.7110   27.2530   36.0630 H   0  0  0  0  0  0  0  0  0  0  0  0
   38.6430   25.1350   36.7300 H   0  0  0  0  0  0  0  0  0  0  0  0
   39.1170   22.0340   31.0290 C   0  0  0  0  0  0  0  0  0  0  0  0
   38.0390   21.1350   30.8240 C   0  0  0  0  0  0  0  0  0  0  0  0
   36.8900   21.3320   31.5570 C   0  0  0  0  0  0  0  0  0  0  0  0
   36.8480   22.3700   32.4350 N   0  0  0  0  0  0  0  0  0  0  0  0
   37.8840   23.2180   32.6180 C   0  0  0  0  0  0  0  0  0  0  0  0
   39.0160   23.0350   31.9040 N   0  0  0  0  0  0  0  0  0  0  0  0
   39.9860   21.8200   30.4200 H   0  0  0  0  0  0  0  0  0  0  0  0
   38.0260   20.3040   30.1440 H   0  0  0  0  0  0  0  0  0  0  0  0
   35.9840   20.7710   31.5450 H   0  0  0  0  0  0  0  0  0  0  0  0
   36.6890   27.9050   33.6960 C   0  0  0  0  0  0  0  0  0  0  0  0
   36.6430   28.4050   32.4050 C   0  0  0  0  0  0  0  0  0  0  0  0
   36.1080   29.6370   32.0820 C   0  0  0  0  0  0  0  0  0  0  0  0
   35.6020   30.3950   33.0700 N   0  0  0  0  0  0  0  0  0  0  0  0
   35.6370   29.9280   34.3270 C   0  0  0  0  0  0  0  0  0  0  0  0
   36.1640   28.7230   34.6150 N   0  0  0  0  0  0  0  0  0  0  0  0
   37.0570   27.7800   31.6030 H   0  0  0  0  0  0  0  0  0  0  0  0
   36.1260   29.9220   31.0460 H   0  0  0  0  0  0  0  0  0  0  0  0
   35.0610   30.8360   35.3210 C   0  0  0  0  0  0  0  0  0  0  0  0
   33.6080   30.7290   35.2840 C   0  0  0  0  0  0  0  0  0  0  0  0
   32.8520   30.1710   34.7320 H   0  0  0  0  0  0  0  0  0  0  0  0
   33.0620   31.9550   36.6150 S   0  0  0  0  0  0  0  0  0  0  0  0
   34.8900   32.3610   36.9480 C   0  0  0  0  0  0  0  0  0  0  0  0
   35.6620   33.0200   37.6070 H   0  0  0  0  0  0  0  0  0  0  0  0
   35.4470   31.7090   36.2270 N   0  0  0  0  0  0  0  0  0  0  0  0
  2  1  1  0  0  0  0
  2  7  1  0  0  0  0
  3  2  2  0  0  0  0
  4  3  1  0  0  0  0
  4  5  2  0  0  0  0
  5  6  1  0  0  0  0
  6  7  2  0  0  0  0
  6  9  1  0  0  0  0
  7 10  1  0  0  0  0
  8  4  1  0  0  0  0
 11 16  1  0  0  0  0
 12 11  2  0  0  0  0
 12 13  1  0  0  0  0
 13 14  2  0  0  0  0
 14 15  1  0  0  0  0
 15  3  1  0  0  0  0
 16 15  2  0  0  0  0
 17 11  1  0  0  0  0
 18 12  1  0  0  0  0
 19 13  1  0  0  0  0
 20  5  1  0  0  0  0
 20 25  1  0  0  0  0
 21 20  2  0  0  0  0
 22 21  1  0  0  0  0
 22 23  2  0  0  0  0
 23 24  1  0  0  0  0
 24 25  2  0  0  0  0
 24 28  1  0  0  0  0
 26 21  1  0  0  0  0
 27 22  1  0  0  0  0
 28 34  1  0  0  0  0
 29 28  2  0  0  0  0
 29 31  1  0  0  0  0
 30 29  1  0  0  0  0
 31 32  1  0  0  0  0
 32 33  1  0  0  0  0
 34 32  2  0  0  0  0
M  END
>  <minimizedAffinity>
-5.30274725

$$$$
