
 OpenBabel03272508543D

 36 39  0  0  1  0  0  0  0  0999 V2000
   38.3020   31.8980   44.5390 C   0  0  0  0  0  0  0  0  0  0  0  0
   37.1470   32.3560   44.4440 O   0  0  0  0  0  0  0  0  0  0  0  0
   38.9300   31.7300   45.8360 N   0  0  0  0  0  0  0  0  0  0  0  0
   39.9390   31.5300   45.9780 H   0  0  0  0  0  0  0  0  0  0  0  0
   39.0960   31.5000   43.3500 C   0  0  0  0  0  0  0  0  0  0  0  0
   40.0830   30.5610   43.4910 C   0  0  0  0  0  0  0  0  0  0  0  0
   40.8020   30.2380   42.3490 C   0  0  0  0  0  0  0  0  0  0  0  0
   40.4930   30.8600   41.1690 C   0  0  0  0  0  0  0  0  0  0  0  0
   39.4950   31.8060   41.0300 C   0  0  0  0  0  0  0  0  0  0  0  0
   38.8430   32.0720   42.1640 N   0  0  0  0  0  0  0  0  0  0  0  0
   40.3120   30.0820   44.4330 H   0  0  0  0  0  0  0  0  0  0  0  0
   41.6030   29.5100   42.3470 H   0  0  0  0  0  0  0  0  0  0  0  0
   41.0630   30.6030   40.2620 H   0  0  0  0  0  0  0  0  0  0  0  0
   39.1400   32.4850   39.7930 C   0  0  0  0  0  0  0  0  0  0  0  0
   38.4110   33.6740   39.8920 C   0  0  0  0  0  0  0  0  0  0  0  0
   37.9760   34.3230   40.7220 H   0  0  0  0  0  0  0  0  0  0  0  0
   38.1810   34.1910   38.0900 S   0  0  0  0  0  0  0  0  0  0  0  0
   39.1490   32.6450   37.5650 C   0  0  0  0  0  0  0  0  0  0  0  0
   39.5130   32.1260   36.5370 H   0  0  0  0  0  0  0  0  0  0  0  0
   39.3960   32.1630   38.5450 N   0  0  0  0  0  0  0  0  0  0  0  0
   38.4540   31.1740   48.2170 C   0  0  2  0  0  0  0  0  0  0  0  0
   38.7320   32.6190   48.1690 C   0  0  0  0  0  0  0  0  0  0  0  0
   38.0700   31.8530   47.0020 C   0  0  1  0  0  0  0  0  0  0  0  0
   39.3570   30.5330   48.2510 H   0  0  0  0  0  0  0  0  0  0  0  0
   39.7750   32.9530   48.0310 H   0  0  0  0  0  0  0  0  0  0  0  0
   38.1110   33.3420   48.7300 H   0  0  0  0  0  0  0  0  0  0  0  0
   37.0190   32.1920   46.8330 H   0  0  0  0  0  0  0  0  0  0  0  0
   35.1180   30.2300   49.5350 C   0  0  0  0  0  0  0  0  0  0  0  0
   35.4520   29.5550   50.7450 C   0  0  0  0  0  0  0  0  0  0  0  0
   36.8530   29.4470   51.0860 C   0  0  0  0  0  0  0  0  0  0  0  0
   37.7820   29.9870   50.2480 N   0  0  0  0  0  0  0  0  0  0  0  0
   37.3820   30.6180   49.1090 C   0  0  0  0  0  0  0  0  0  0  0  0
   36.0630   30.7570   48.7240 N   0  0  0  0  0  0  0  0  0  0  0  0
   34.0630   30.2850   49.3260 H   0  0  0  0  0  0  0  0  0  0  0  0
   34.6920   29.1450   51.3750 H   0  0  0  0  0  0  0  0  0  0  0  0
   37.1150   28.9380   51.9990 H   0  0  0  0  0  0  0  0  0  0  0  0
  1  3  1  0  0  0  0
  2  1  2  0  0  0  0
  3  4  1  0  0  0  0
  3 23  1  0  0  0  0
  5  6  1  0  0  0  0
  5  1  1  0  0  0  0
  6 11  1  0  0  0  0
  7  6  2  0  0  0  0
  8  7  1  0  0  0  0
  9  8  2  0  0  0  0
  9 10  1  0  0  0  0
 10  5  2  0  0  0  0
 12  7  1  0  0  0  0
 13  8  1  0  0  0  0
 14 15  2  0  0  0  0
 14  9  1  0  0  0  0
 15 16  1  0  0  0  0
 17 15  1  0  0  0  0
 18 17  1  0  0  0  0
 18 20  2  0  0  0  0
 19 18  1  0  0  0  0
 20 14  1  0  0  0  0
 21 24  1  6  0  0  0
 21 32  1  0  0  0  0
 22 21  1  0  0  0  0
 22 26  1  0  0  0  0
 23 27  1  6  0  0  0
 23 22  1  0  0  0  0
 23 21  1  0  0  0  0
 25 22  1  0  0  0  0
 28 29  1  0  0  0  0
 29 30  2  0  0  0  0
 29 35  1  0  0  0  0
 30 36  1  0  0  0  0
 31 30  1  0  0  0  0
 32 31  2  0  0  0  0
 33 32  1  0  0  0  0
 33 28  2  0  0  0  0
 34 28  1  0  0  0  0
M  END
>  <minimizedAffinity>
-5.18381166

>  <minimizedRMSD>
0.136488095

$$$$
