
 OpenBabel03272506493D

 40 43  0  0  1  0  0  0  0  0999 V2000
   38.0440   24.5890   31.3500 C   0  0  2  0  0  0  0  0  0  0  0  0
   37.8100   23.2320   31.9430 C   0  0  1  0  0  0  0  0  0  0  0  0
   37.8010   23.3590   33.2980 O   0  0  0  0  0  0  0  0  0  0  0  0
   37.7200   24.7070   33.6310 C   0  0  0  0  0  0  0  0  0  0  0  0
   37.2610   25.4460   32.3950 C   0  0  1  0  0  0  0  0  0  0  0  0
   39.0740   24.9190   31.2980 H   0  0  0  0  0  0  0  0  0  0  0  0
   38.5810   22.5430   31.5490 H   0  0  0  0  0  0  0  0  0  0  0  0
   38.6880   24.9880   34.0200 H   0  0  0  0  0  0  0  0  0  0  0  0
   36.9180   24.7990   34.4080 H   0  0  0  0  0  0  0  0  0  0  0  0
   36.2130   25.3000   32.1590 H   0  0  0  0  0  0  0  0  0  0  0  0
   37.4070   24.6990   30.0960 O   0  0  0  0  0  0  0  0  0  0  0  0
   36.4940   25.0580   30.1790 H   0  0  0  0  0  0  0  0  0  0  0  0
   36.1480   22.6650   31.4110 S   0  0  0  0  0  0  0  0  0  0  0  0
   36.4170   18.7600   30.7930 C   0  0  0  0  0  0  0  0  0  0  0  0
   35.9030   18.1780   31.9560 C   0  0  0  0  0  0  0  0  0  0  0  0
   35.4560   19.0270   32.9740 C   0  0  0  0  0  0  0  0  0  0  0  0
   35.5440   20.3670   32.7790 N   0  0  0  0  0  0  0  0  0  0  0  0
   36.0460   20.8940   31.6430 C   0  0  0  0  0  0  0  0  0  0  0  0
   36.4890   20.1000   30.6350 N   0  0  0  0  0  0  0  0  0  0  0  0
   36.7550   18.0810   30.0230 H   0  0  0  0  0  0  0  0  0  0  0  0
   35.8360   17.1090   32.1050 H   0  0  0  0  0  0  0  0  0  0  0  0
   35.0430   18.6780   33.9110 H   0  0  0  0  0  0  0  0  0  0  0  0
   37.7470   26.7300   32.4380 O   0  0  0  0  0  0  0  0  0  0  0  0
   36.7170   27.9520   34.9070 Cl  0  0  0  0  0  0  0  0  0  0  0  0
   36.5200   28.5000   33.2560 C   0  0  0  0  0  0  0  0  0  0  0  0
   37.0680   27.8420   32.1810 C   0  0  0  0  0  0  0  0  0  0  0  0
   36.8730   28.3920   30.9130 C   0  0  0  0  0  0  0  0  0  0  0  0
   36.1540   29.5560   30.7540 C   0  0  0  0  0  0  0  0  0  0  0  0
   35.6010   30.2200   31.8290 C   0  0  0  0  0  0  0  0  0  0  0  0
   35.7940   29.6710   33.1070 C   0  0  0  0  0  0  0  0  0  0  0  0
   37.2620   27.9640   30.0060 H   0  0  0  0  0  0  0  0  0  0  0  0
   35.9820   30.0100   29.7910 H   0  0  0  0  0  0  0  0  0  0  0  0
   35.0410   31.1280   31.6960 H   0  0  0  0  0  0  0  0  0  0  0  0
   35.2260   30.3370   34.2810 C   0  0  0  0  0  0  0  0  0  0  0  0
   33.8790   30.2090   34.5930 C   0  0  0  0  0  0  0  0  0  0  0  0
   33.0110   29.6420   34.0940 H   0  0  0  0  0  0  0  0  0  0  0  0
   33.6500   31.2350   36.1610 S   0  0  0  0  0  0  0  0  0  0  0  0
   35.4940   31.6500   36.0790 C   0  0  0  0  0  0  0  0  0  0  0  0
   36.3310   32.2990   36.7080 H   0  0  0  0  0  0  0  0  0  0  0  0
   35.8400   31.1010   35.1590 N   0  0  0  0  0  0  0  0  0  0  0  0
  1  6  1  6  0  0  0
  1  2  1  0  0  0  0
  1  5  1  0  0  0  0
  2  7  1  6  0  0  0
  2  3  1  0  0  0  0
  3  4  1  0  0  0  0
  4  8  1  0  0  0  0
  4  9  1  0  0  0  0
  5 10  1  6  0  0  0
  5 23  1  0  0  0  0
  5  4  1  0  0  0  0
 11 12  1  0  0  0  0
 11  1  1  0  0  0  0
 13 18  1  0  0  0  0
 13  2  1  0  0  0  0
 14 15  1  0  0  0  0
 15 21  1  0  0  0  0
 15 16  2  0  0  0  0
 16 22  1  0  0  0  0
 17 16  1  0  0  0  0
 18 17  2  0  0  0  0
 19 14  2  0  0  0  0
 19 18  1  0  0  0  0
 20 14  1  0  0  0  0
 25 24  1  0  0  0  0
 26 23  1  0  0  0  0
 26 25  2  0  0  0  0
 27 26  1  0  0  0  0
 28 27  2  0  0  0  0
 28 29  1  0  0  0  0
 29 30  2  0  0  0  0
 30 25  1  0  0  0  0
 30 34  1  0  0  0  0
 31 27  1  0  0  0  0
 32 28  1  0  0  0  0
 33 29  1  0  0  0  0
 34 35  2  0  0  0  0
 34 40  1  0  0  0  0
 35 37  1  0  0  0  0
 36 35  1  0  0  0  0
 38 37  1  0  0  0  0
 38 39  1  0  0  0  0
 40 38  2  0  0  0  0
M  END
>  <minimizedAffinity>
-5.48587799

$$$$

 OpenBabel03272506493D

 40 43  0  0  1  0  0  0  0  0999 V2000
   37.0830   28.0410   32.9170 C   0  0  2  0  0  0  0  0  0  0  0  0
   36.2010   29.0930   32.3180 C   0  0  1  0  0  0  0  0  0  0  0  0
   36.0020   28.7840   31.0080 O   0  0  0  0  0  0  0  0  0  0  0  0
   36.4350   27.4820   30.7740 C   0  0  0  0  0  0  0  0  0  0  0  0
   36.5570   26.8040   32.1190 C   0  0  1  0  0  0  0  0  0  0  0  0
   38.1470   28.1580   32.7580 H   0  0  0  0  0  0  0  0  0  0  0  0
   36.6690   30.0800   32.4940 H   0  0  0  0  0  0  0  0  0  0  0  0
   37.3440   27.5580   30.1960 H   0  0  0  0  0  0  0  0  0  0  0  0
   35.6210   26.9700   30.2010 H   0  0  0  0  0  0  0  0  0  0  0  0
   35.6060   26.5540   32.5740 H   0  0  0  0  0  0  0  0  0  0  0  0
   36.7860   27.8640   34.2850 O   0  0  0  0  0  0  0  0  0  0  0  0
   36.1090   27.1630   34.4270 H   0  0  0  0  0  0  0  0  0  0  0  0
   34.5780   29.0220   33.1730 S   0  0  0  0  0  0  0  0  0  0  0  0
   33.4350   31.3140   36.1970 C   0  0  0  0  0  0  0  0  0  0  0  0
   34.6160   31.8870   36.6780 C   0  0  0  0  0  0  0  0  0  0  0  0
   35.8170   31.5500   36.0420 C   0  0  0  0  0  0  0  0  0  0  0  0
   35.7710   30.6880   34.9950 N   0  0  0  0  0  0  0  0  0  0  0  0
   34.6110   30.1540   34.5580 C   0  0  0  0  0  0  0  0  0  0  0  0
   33.4290   30.4580   35.1520 N   0  0  0  0  0  0  0  0  0  0  0  0
   32.5230   31.5910   36.7070 H   0  0  0  0  0  0  0  0  0  0  0  0
   34.6460   32.5730   37.5130 H   0  0  0  0  0  0  0  0  0  0  0  0
   36.7830   31.9380   36.3360 H   0  0  0  0  0  0  0  0  0  0  0  0
   37.5190   25.8270   32.0400 O   0  0  0  0  0  0  0  0  0  0  0  0
   39.1590   25.5500   34.4670 Cl  0  0  0  0  0  0  0  0  0  0  0  0
   38.1810   24.3370   33.6670 C   0  0  0  0  0  0  0  0  0  0  0  0
   37.4430   24.5990   32.5390 C   0  0  0  0  0  0  0  0  0  0  0  0
   36.6730   23.5620   32.0090 C   0  0  0  0  0  0  0  0  0  0  0  0
   36.6600   22.3200   32.6060 C   0  0  0  0  0  0  0  0  0  0  0  0
   37.3980   22.0520   33.7380 C   0  0  0  0  0  0  0  0  0  0  0  0
   38.1750   23.0910   34.2760 C   0  0  0  0  0  0  0  0  0  0  0  0
   36.0550   23.6590   31.1330 H   0  0  0  0  0  0  0  0  0  0  0  0
   36.0780   21.4950   32.2260 H   0  0  0  0  0  0  0  0  0  0  0  0
   37.3820   21.0800   34.1980 H   0  0  0  0  0  0  0  0  0  0  0  0
   38.9790   22.8570   35.4760 C   0  0  0  0  0  0  0  0  0  0  0  0
   40.2190   22.2360   35.3970 C   0  0  0  0  0  0  0  0  0  0  0  0
   40.8290   21.8190   34.5150 H   0  0  0  0  0  0  0  0  0  0  0  0
   40.8370   22.1690   37.1790 S   0  0  0  0  0  0  0  0  0  0  0  0
   39.2330   23.0270   37.6980 C   0  0  0  0  0  0  0  0  0  0  0  0
   38.6840   23.4330   38.7240 H   0  0  0  0  0  0  0  0  0  0  0  0
   38.6880   23.1650   36.7230 N   0  0  0  0  0  0  0  0  0  0  0  0
  1  6  1  6  0  0  0
  1 11  1  0  0  0  0
  2  7  1  1  0  0  0
  2  1  1  0  0  0  0
  2 13  1  0  0  0  0
  3  2  1  0  0  0  0
  4  3  1  0  0  0  0
  4  5  1  0  0  0  0
  5 10  1  1  0  0  0
  5  1  1  0  0  0  0
  8  4  1  0  0  0  0
  9  4  1  0  0  0  0
 11 12  1  0  0  0  0
 13 18  1  0  0  0  0
 14 15  1  0  0  0  0
 14 20  1  0  0  0  0
 15 21  1  0  0  0  0
 16 22  1  0  0  0  0
 16 15  2  0  0  0  0
 17 16  1  0  0  0  0
 18 17  2  0  0  0  0
 18 19  1  0  0  0  0
 19 14  2  0  0  0  0
 23  5  1  0  0  0  0
 23 26  1  0  0  0  0
 25 30  1  0  0  0  0
 25 24  1  0  0  0  0
 26 25  2  0  0  0  0
 27 26  1  0  0  0  0
 27 28  2  0  0  0  0
 28 29  1  0  0  0  0
 29 33  1  0  0  0  0
 29 30  2  0  0  0  0
 30 34  1  0  0  0  0
 31 27  1  0  0  0  0
 32 28  1  0  0  0  0
 34 40  1  0  0  0  0
 35 34  2  0  0  0  0
 35 37  1  0  0  0  0
 36 35  1  0  0  0  0
 37 38  1  0  0  0  0
 38 39  1  0  0  0  0
 40 38  2  0  0  0  0
M  END
>  <minimizedAffinity>
-5.4237895

$$$$

 OpenBabel03272506493D

 40 43  0  0  1  0  0  0  0  0999 V2000
   37.0620   28.0600   32.9070 C   0  0  2  0  0  0  0  0  0  0  0  0
   36.1550   29.1140   32.3470 C   0  0  1  0  0  0  0  0  0  0  0  0
   35.8990   28.8040   31.0470 O   0  0  0  0  0  0  0  0  0  0  0  0
   36.3200   27.5020   30.7950 C   0  0  0  0  0  0  0  0  0  0  0  0
   36.5000   26.8240   32.1340 C   0  0  1  0  0  0  0  0  0  0  0  0
   38.1180   28.1770   32.7010 H   0  0  0  0  0  0  0  0  0  0  0  0
   36.6310   30.1000   32.5020 H   0  0  0  0  0  0  0  0  0  0  0  0
   37.2030   27.5770   30.1780 H   0  0  0  0  0  0  0  0  0  0  0  0
   35.4810   26.9900   30.2580 H   0  0  0  0  0  0  0  0  0  0  0  0
   35.5700   26.5740   32.6300 H   0  0  0  0  0  0  0  0  0  0  0  0
   36.8250   27.8840   34.2870 O   0  0  0  0  0  0  0  0  0  0  0  0
   36.1550   27.1840   34.4580 H   0  0  0  0  0  0  0  0  0  0  0  0
   34.5720   29.0440   33.2730 S   0  0  0  0  0  0  0  0  0  0  0  0
   33.5160   31.4440   36.2440 C   0  0  0  0  0  0  0  0  0  0  0  0
   34.7140   32.0100   36.6890 C   0  0  0  0  0  0  0  0  0  0  0  0
   35.8990   31.6340   36.0450 C   0  0  0  0  0  0  0  0  0  0  0  0
   35.8210   30.7420   35.0250 N   0  0  0  0  0  0  0  0  0  0  0  0
   34.6460   30.2150   34.6220 C   0  0  0  0  0  0  0  0  0  0  0  0
   33.4780   30.5580   35.2250 N   0  0  0  0  0  0  0  0  0  0  0  0
   32.6160   31.7510   36.7600 H   0  0  0  0  0  0  0  0  0  0  0  0
   34.7690   32.7200   37.5030 H   0  0  0  0  0  0  0  0  0  0  0  0
   36.8750   32.0130   36.3120 H   0  0  0  0  0  0  0  0  0  0  0  0
   37.4580   25.8470   32.0130 O   0  0  0  0  0  0  0  0  0  0  0  0
   36.1620   23.5030   30.7980 Cl  0  0  0  0  0  0  0  0  0  0  0  0
   37.0110   23.6090   32.3250 C   0  0  0  0  0  0  0  0  0  0  0  0
   37.5900   24.7690   32.7780 C   0  0  0  0  0  0  0  0  0  0  0  0
   38.2710   24.7260   33.9950 C   0  0  0  0  0  0  0  0  0  0  0  0
   38.3530   23.5530   34.7130 C   0  0  0  0  0  0  0  0  0  0  0  0
   37.7740   22.3850   34.2640 C   0  0  0  0  0  0  0  0  0  0  0  0
   37.0870   22.4230   33.0400 C   0  0  0  0  0  0  0  0  0  0  0  0
   38.7650   25.5720   34.4390 H   0  0  0  0  0  0  0  0  0  0  0  0
   38.8700   23.4800   35.6570 H   0  0  0  0  0  0  0  0  0  0  0  0
   37.8430   21.4740   34.8300 H   0  0  0  0  0  0  0  0  0  0  0  0
   36.4520   21.2110   32.5210 C   0  0  0  0  0  0  0  0  0  0  0  0
   37.2070   20.2030   31.9350 C   0  0  0  0  0  0  0  0  0  0  0  0
   38.3350   20.0830   31.7410 H   0  0  0  0  0  0  0  0  0  0  0  0
   35.9490   18.8870   31.4390 S   0  0  0  0  0  0  0  0  0  0  0  0
   34.5980   20.0050   32.1500 C   0  0  0  0  0  0  0  0  0  0  0  0
   33.3750   20.0090   32.2980 H   0  0  0  0  0  0  0  0  0  0  0  0
   35.1730   20.8990   32.5200 N   0  0  0  0  0  0  0  0  0  0  0  0
  1  6  1  6  0  0  0
  1 11  1  0  0  0  0
  2  7  1  1  0  0  0
  2  1  1  0  0  0  0
  2 13  1  0  0  0  0
  3  2  1  0  0  0  0
  4  3  1  0  0  0  0
  4  5  1  0  0  0  0
  5 10  1  1  0  0  0
  5  1  1  0  0  0  0
  8  4  1  0  0  0  0
  9  4  1  0  0  0  0
 11 12  1  0  0  0  0
 13 18  1  0  0  0  0
 14 15  1  0  0  0  0
 14 20  1  0  0  0  0
 15 21  1  0  0  0  0
 16 22  1  0  0  0  0
 16 15  2  0  0  0  0
 17 16  1  0  0  0  0
 18 17  2  0  0  0  0
 18 19  1  0  0  0  0
 19 14  2  0  0  0  0
 23  5  1  0  0  0  0
 23 26  1  0  0  0  0
 24 25  1  0  0  0  0
 25 26  2  0  0  0  0
 25 30  1  0  0  0  0
 26 27  1  0  0  0  0
 27 31  1  0  0  0  0
 27 28  2  0  0  0  0
 28 32  1  0  0  0  0
 29 28  1  0  0  0  0
 29 33  1  0  0  0  0
 30 29  2  0  0  0  0
 34 30  1  0  0  0  0
 35 34  2  0  0  0  0
 36 35  1  0  0  0  0
 37 35  1  0  0  0  0
 37 38  1  0  0  0  0
 38 39  1  0  0  0  0
 38 40  2  0  0  0  0
 40 34  1  0  0  0  0
M  END
>  <minimizedAffinity>
-5.20802927

$$$$

 OpenBabel03272506493D

 40 43  0  0  1  0  0  0  0  0999 V2000
   36.9250   24.8440   30.8570 C   0  0  2  0  0  0  0  0  0  0  0  0
   37.1310   23.3650   30.9790 C   0  0  1  0  0  0  0  0  0  0  0  0
   38.1250   23.1490   31.8820 O   0  0  0  0  0  0  0  0  0  0  0  0
   38.3860   24.3310   32.5680 C   0  0  0  0  0  0  0  0  0  0  0  0
   37.2060   25.2490   32.3400 C   0  0  1  0  0  0  0  0  0  0  0  0
   37.6020   25.3700   30.1950 H   0  0  0  0  0  0  0  0  0  0  0  0
   37.3270   22.9570   29.9690 H   0  0  0  0  0  0  0  0  0  0  0  0
   39.3410   24.6890   32.2140 H   0  0  0  0  0  0  0  0  0  0  0  0
   38.4170   24.0720   33.6570 H   0  0  0  0  0  0  0  0  0  0  0  0
   36.3160   24.9650   32.8880 H   0  0  0  0  0  0  0  0  0  0  0  0
   35.5790   25.1350   30.5500 O   0  0  0  0  0  0  0  0  0  0  0  0
   35.0400   25.2790   31.3600 H   0  0  0  0  0  0  0  0  0  0  0  0
   35.5840   22.6350   31.6460 S   0  0  0  0  0  0  0  0  0  0  0  0
   36.5350   18.9120   30.6780 C   0  0  0  0  0  0  0  0  0  0  0  0
   36.0640   18.1350   31.7400 C   0  0  0  0  0  0  0  0  0  0  0  0
   35.4260   18.7890   32.8010 C   0  0  0  0  0  0  0  0  0  0  0  0
   35.2990   20.1380   32.7420 N   0  0  0  0  0  0  0  0  0  0  0  0
   35.7670   20.8570   31.7000 C   0  0  0  0  0  0  0  0  0  0  0  0
   36.3900   20.2550   30.6540 N   0  0  0  0  0  0  0  0  0  0  0  0
   37.0230   18.3810   29.8720 H   0  0  0  0  0  0  0  0  0  0  0  0
   36.1680   17.0590   31.7820 H   0  0  0  0  0  0  0  0  0  0  0  0
   35.0270   18.2810   33.6680 H   0  0  0  0  0  0  0  0  0  0  0  0
   37.6340   26.5520   32.4190 O   0  0  0  0  0  0  0  0  0  0  0  0
   36.3600   28.4920   30.6110 Cl  0  0  0  0  0  0  0  0  0  0  0  0
   36.4360   28.5180   32.3610 C   0  0  0  0  0  0  0  0  0  0  0  0
   37.0530   27.5360   33.0960 C   0  0  0  0  0  0  0  0  0  0  0  0
   37.0200   27.6450   34.4870 C   0  0  0  0  0  0  0  0  0  0  0  0
   36.3860   28.7060   35.0940 C   0  0  0  0  0  0  0  0  0  0  0  0
   35.7640   29.6950   34.3610 C   0  0  0  0  0  0  0  0  0  0  0  0
   35.7950   29.5910   32.9610 C   0  0  0  0  0  0  0  0  0  0  0  0
   37.4660   26.9310   35.1570 H   0  0  0  0  0  0  0  0  0  0  0  0
   36.3390   28.8250   36.1650 H   0  0  0  0  0  0  0  0  0  0  0  0
   35.2720   30.5210   34.8430 H   0  0  0  0  0  0  0  0  0  0  0  0
   35.1520   30.6160   32.1380 C   0  0  0  0  0  0  0  0  0  0  0  0
   35.8630   31.7200   31.6850 C   0  0  0  0  0  0  0  0  0  0  0  0
   36.9550   32.0540   31.8180 H   0  0  0  0  0  0  0  0  0  0  0  0
   34.6110   32.7220   30.6900 S   0  0  0  0  0  0  0  0  0  0  0  0
   33.3230   31.3980   31.1000 C   0  0  0  0  0  0  0  0  0  0  0  0
   32.1350   31.1550   30.8820 H   0  0  0  0  0  0  0  0  0  0  0  0
   33.9020   30.6620   31.7260 N   0  0  0  0  0  0  0  0  0  0  0  0
  1  6  1  6  0  0  0
  1  2  1  0  0  0  0
  1  5  1  0  0  0  0
  2  7  1  6  0  0  0
  2 13  1  0  0  0  0
  2  3  1  0  0  0  0
  3  4  1  0  0  0  0
  4  9  1  0  0  0  0
  5 23  1  0  0  0  0
  5  4  1  0  0  0  0
  5 10  1  1  0  0  0
  8  4  1  0  0  0  0
 11  1  1  0  0  0  0
 11 12  1  0  0  0  0
 13 18  1  0  0  0  0
 14 15  1  0  0  0  0
 15 21  1  0  0  0  0
 15 16  2  0  0  0  0
 16 22  1  0  0  0  0
 17 16  1  0  0  0  0
 18 17  2  0  0  0  0
 19 14  2  0  0  0  0
 19 18  1  0  0  0  0
 20 14  1  0  0  0  0
 23 26  1  0  0  0  0
 24 25  1  0  0  0  0
 25 30  2  0  0  0  0
 25 26  1  0  0  0  0
 26 27  2  0  0  0  0
 27 28  1  0  0  0  0
 27 31  1  0  0  0  0
 28 32  1  0  0  0  0
 29 33  1  0  0  0  0
 29 28  2  0  0  0  0
 30 29  1  0  0  0  0
 34 30  1  0  0  0  0
 35 36  1  0  0  0  0
 35 34  2  0  0  0  0
 37 38  1  0  0  0  0
 37 35  1  0  0  0  0
 38 40  2  0  0  0  0
 39 38  1  0  0  0  0
 40 34  1  0  0  0  0
M  END
>  <minimizedAffinity>
-5.15789843

$$$$

 OpenBabel03272506493D

 40 43  0  0  1  0  0  0  0  0999 V2000
   37.0290   28.2860   32.9880 C   0  0  2  0  0  0  0  0  0  0  0  0
   36.1330   29.2970   32.3380 C   0  0  1  0  0  0  0  0  0  0  0  0
   36.0870   29.0260   31.0060 O   0  0  0  0  0  0  0  0  0  0  0  0
   36.6360   27.7690   30.7740 C   0  0  0  0  0  0  0  0  0  0  0  0
   36.6760   27.0480   32.1010 C   0  0  1  0  0  0  0  0  0  0  0  0
   38.0920   28.4850   32.9400 H   0  0  0  0  0  0  0  0  0  0  0  0
   36.5070   30.3060   32.5930 H   0  0  0  0  0  0  0  0  0  0  0  0
   37.5890   27.9320   30.2920 H   0  0  0  0  0  0  0  0  0  0  0  0
   35.9210   27.2240   30.1050 H   0  0  0  0  0  0  0  0  0  0  0  0
   35.7070   26.7130   32.4500 H   0  0  0  0  0  0  0  0  0  0  0  0
   36.6150   28.0340   34.3130 O   0  0  0  0  0  0  0  0  0  0  0  0
   35.9810   27.2820   34.3630 H   0  0  0  0  0  0  0  0  0  0  0  0
   34.4450   29.0760   33.0250 S   0  0  0  0  0  0  0  0  0  0  0  0
   32.9020   30.9880   36.1340 C   0  0  0  0  0  0  0  0  0  0  0  0
   33.9770   31.6860   36.6940 C   0  0  0  0  0  0  0  0  0  0  0  0
   35.2310   31.5590   36.0860 C   0  0  0  0  0  0  0  0  0  0  0  0
   35.3370   30.7690   34.9880 N   0  0  0  0  0  0  0  0  0  0  0  0
   34.2780   30.1090   34.4750 C   0  0  0  0  0  0  0  0  0  0  0  0
   33.0470   30.2090   35.0390 N   0  0  0  0  0  0  0  0  0  0  0  0
   31.9450   31.1030   36.6240 H   0  0  0  0  0  0  0  0  0  0  0  0
   33.8850   32.3140   37.5690 H   0  0  0  0  0  0  0  0  0  0  0  0
   36.1240   32.0560   36.4400 H   0  0  0  0  0  0  0  0  0  0  0  0
   37.7120   26.1460   32.0870 O   0  0  0  0  0  0  0  0  0  0  0  0
   37.7830   23.8650   33.9420 Cl  0  0  0  0  0  0  0  0  0  0  0  0
   38.9390   25.1690   33.7730 C   0  0  0  0  0  0  0  0  0  0  0  0
   38.7990   26.1760   32.8500 C   0  0  0  0  0  0  0  0  0  0  0  0
   39.8020   27.1440   32.7840 C   0  0  0  0  0  0  0  0  0  0  0  0
   40.8940   27.0820   33.6220 C   0  0  0  0  0  0  0  0  0  0  0  0
   41.0410   26.0740   34.5500 C   0  0  0  0  0  0  0  0  0  0  0  0
   40.0340   25.0980   34.6210 C   0  0  0  0  0  0  0  0  0  0  0  0
   39.7960   27.9710   32.0960 H   0  0  0  0  0  0  0  0  0  0  0  0
   41.6890   27.8110   33.6000 H   0  0  0  0  0  0  0  0  0  0  0  0
   41.8970   26.0340   35.2000 H   0  0  0  0  0  0  0  0  0  0  0  0
   40.1410   24.0080   35.5920 C   0  0  0  0  0  0  0  0  0  0  0  0
   41.1220   23.0320   35.4660 C   0  0  0  0  0  0  0  0  0  0  0  0
   41.9590   22.8610   34.6970 H   0  0  0  0  0  0  0  0  0  0  0  0
   40.8430   21.8790   36.9340 S   0  0  0  0  0  0  0  0  0  0  0  0
   39.3980   22.9880   37.4470 C   0  0  0  0  0  0  0  0  0  0  0  0
   38.5470   23.0570   38.3340 H   0  0  0  0  0  0  0  0  0  0  0  0
   39.3940   23.7870   36.6530 N   0  0  0  0  0  0  0  0  0  0  0  0
  1  6  1  6  0  0  0
  1 11  1  0  0  0  0
  2  7  1  1  0  0  0
  2  1  1  0  0  0  0
  2 13  1  0  0  0  0
  3  2  1  0  0  0  0
  4  3  1  0  0  0  0
  4  5  1  0  0  0  0
  5 10  1  1  0  0  0
  5  1  1  0  0  0  0
  8  4  1  0  0  0  0
  9  4  1  0  0  0  0
 11 12  1  0  0  0  0
 13 18  1  0  0  0  0
 14 20  1  0  0  0  0
 14 15  1  0  0  0  0
 15 21  1  0  0  0  0
 16 22  1  0  0  0  0
 16 15  2  0  0  0  0
 17 16  1  0  0  0  0
 18 17  2  0  0  0  0
 18 19  1  0  0  0  0
 19 14  2  0  0  0  0
 23  5  1  0  0  0  0
 23 26  1  0  0  0  0
 25 24  1  0  0  0  0
 25 30  1  0  0  0  0
 26 25  2  0  0  0  0
 27 26  1  0  0  0  0
 27 28  2  0  0  0  0
 28 29  1  0  0  0  0
 29 30  2  0  0  0  0
 29 33  1  0  0  0  0
 30 34  1  0  0  0  0
 31 27  1  0  0  0  0
 32 28  1  0  0  0  0
 34 40  1  0  0  0  0
 35 34  2  0  0  0  0
 35 37  1  0  0  0  0
 36 35  1  0  0  0  0
 37 38  1  0  0  0  0
 38 39  1  0  0  0  0
 40 38  2  0  0  0  0
M  END
>  <minimizedAffinity>
-5.12828445

$$$$

 OpenBabel03272506493D

 40 43  0  0  1  0  0  0  0  0999 V2000
   36.4040   28.8290   33.1150 C   0  0  2  0  0  0  0  0  0  0  0  0
   35.6110   30.0760   32.8600 C   0  0  1  0  0  0  0  0  0  0  0  0
   35.5300   30.2590   31.5140 O   0  0  0  0  0  0  0  0  0  0  0  0
   35.9480   29.0990   30.8690 C   0  0  0  0  0  0  0  0  0  0  0  0
   35.9230   27.9860   31.8900 C   0  0  1  0  0  0  0  0  0  0  0  0
   37.4810   28.9330   33.0930 H   0  0  0  0  0  0  0  0  0  0  0  0
   36.0870   30.9090   33.4120 H   0  0  0  0  0  0  0  0  0  0  0  0
   36.9100   29.3190   30.4300 H   0  0  0  0  0  0  0  0  0  0  0  0
   35.1790   28.8700   30.0880 H   0  0  0  0  0  0  0  0  0  0  0  0
   34.9270   27.6480   32.1490 H   0  0  0  0  0  0  0  0  0  0  0  0
   35.9730   28.2010   34.3020 O   0  0  0  0  0  0  0  0  0  0  0  0
   35.2670   27.5370   34.1310 H   0  0  0  0  0  0  0  0  0  0  0  0
   33.9140   29.8040   33.5030 S   0  0  0  0  0  0  0  0  0  0  0  0
   32.4100   31.2250   36.8830 C   0  0  0  0  0  0  0  0  0  0  0  0
   33.4530   31.9600   37.4560 C   0  0  0  0  0  0  0  0  0  0  0  0
   34.6720   32.0180   36.7700 C   0  0  0  0  0  0  0  0  0  0  0  0
   34.7760   31.3600   35.5880 N   0  0  0  0  0  0  0  0  0  0  0  0
   33.7490   30.6600   35.0650 C   0  0  0  0  0  0  0  0  0  0  0  0
   32.5530   30.5820   35.7030 N   0  0  0  0  0  0  0  0  0  0  0  0
   31.4810   31.1960   37.4340 H   0  0  0  0  0  0  0  0  0  0  0  0
   33.3620   32.4820   38.3990 H   0  0  0  0  0  0  0  0  0  0  0  0
   35.5370   32.5580   37.1270 H   0  0  0  0  0  0  0  0  0  0  0  0
   36.8620   27.0440   31.5460 O   0  0  0  0  0  0  0  0  0  0  0  0
   38.6990   26.1140   33.6470 Cl  0  0  0  0  0  0  0  0  0  0  0  0
   37.5920   25.1720   32.6720 C   0  0  0  0  0  0  0  0  0  0  0  0
   36.7690   25.7310   31.7250 C   0  0  0  0  0  0  0  0  0  0  0  0
   35.9030   24.8850   31.0320 C   0  0  0  0  0  0  0  0  0  0  0  0
   35.8810   23.5330   31.2960 C   0  0  0  0  0  0  0  0  0  0  0  0
   36.7050   22.9650   32.2440 C   0  0  0  0  0  0  0  0  0  0  0  0
   37.5790   23.8120   32.9440 C   0  0  0  0  0  0  0  0  0  0  0  0
   35.2130   25.2170   30.2760 H   0  0  0  0  0  0  0  0  0  0  0  0
   35.2260   22.8470   30.7810 H   0  0  0  0  0  0  0  0  0  0  0  0
   36.6820   21.9090   32.4440 H   0  0  0  0  0  0  0  0  0  0  0  0
   38.4760   23.2580   33.9600 C   0  0  0  0  0  0  0  0  0  0  0  0
   39.7510   22.8210   33.6270 C   0  0  0  0  0  0  0  0  0  0  0  0
   40.3310   22.7890   32.6340 H   0  0  0  0  0  0  0  0  0  0  0  0
   40.4890   22.2090   35.2520 S   0  0  0  0  0  0  0  0  0  0  0  0
   38.8620   22.6830   36.0940 C   0  0  0  0  0  0  0  0  0  0  0  0
   38.3520   22.6620   37.2150 H   0  0  0  0  0  0  0  0  0  0  0  0
   38.2450   23.0940   35.2460 N   0  0  0  0  0  0  0  0  0  0  0  0
  1  6  1  6  0  0  0
  1 11  1  0  0  0  0
  2  1  1  0  0  0  0
  2  7  1  1  0  0  0
  2 13  1  0  0  0  0
  3  2  1  0  0  0  0
  4  3  1  0  0  0  0
  4  5  1  0  0  0  0
  5 10  1  1  0  0  0
  5  1  1  0  0  0  0
  8  4  1  0  0  0  0
  9  4  1  0  0  0  0
 12 11  1  0  0  0  0
 13 18  1  0  0  0  0
 14 20  1  0  0  0  0
 14 15  1  0  0  0  0
 15 21  1  0  0  0  0
 16 22  1  0  0  0  0
 16 15  2  0  0  0  0
 17 16  1  0  0  0  0
 18 17  2  0  0  0  0
 18 19  1  0  0  0  0
 19 14  2  0  0  0  0
 23 26  1  0  0  0  0
 23  5  1  0  0  0  0
 25 30  1  0  0  0  0
 25 24  1  0  0  0  0
 26 25  2  0  0  0  0
 27 28  2  0  0  0  0
 27 26  1  0  0  0  0
 28 29  1  0  0  0  0
 29 33  1  0  0  0  0
 29 30  2  0  0  0  0
 30 34  1  0  0  0  0
 31 27  1  0  0  0  0
 32 28  1  0  0  0  0
 34 40  1  0  0  0  0
 35 34  2  0  0  0  0
 35 37  1  0  0  0  0
 36 35  1  0  0  0  0
 37 38  1  0  0  0  0
 38 39  1  0  0  0  0
 40 38  2  0  0  0  0
M  END
>  <minimizedAffinity>
-5.08406162

$$$$

 OpenBabel03272506493D

 40 43  0  0  1  0  0  0  0  0999 V2000
   36.9850   25.3040   32.7980 C   0  0  2  0  0  0  0  0  0  0  0  0
   37.8850   24.1280   33.0270 C   0  0  1  0  0  0  0  0  0  0  0  0
   38.3220   23.6870   31.8160 O   0  0  0  0  0  0  0  0  0  0  0  0
   38.0200   24.6390   30.8470 C   0  0  0  0  0  0  0  0  0  0  0  0
   37.7180   25.9310   31.5690 C   0  0  1  0  0  0  0  0  0  0  0  0
   35.9570   25.0800   32.5420 H   0  0  0  0  0  0  0  0  0  0  0  0
   37.3300   23.3760   33.6200 H   0  0  0  0  0  0  0  0  0  0  0  0
   37.2180   24.2290   30.2500 H   0  0  0  0  0  0  0  0  0  0  0  0
   38.9510   24.7890   30.2430 H   0  0  0  0  0  0  0  0  0  0  0  0
   38.5930   26.4230   31.9770 H   0  0  0  0  0  0  0  0  0  0  0  0
   37.0570   26.2030   33.8830 O   0  0  0  0  0  0  0  0  0  0  0  0
   37.7450   26.8940   33.7430 H   0  0  0  0  0  0  0  0  0  0  0  0
   39.3410   24.7110   33.9810 S   0  0  0  0  0  0  0  0  0  0  0  0
   38.0350   24.2460   37.6940 C   0  0  0  0  0  0  0  0  0  0  0  0
   38.9050   23.3110   38.2640 C   0  0  0  0  0  0  0  0  0  0  0  0
   39.9380   22.8030   37.4670 C   0  0  0  0  0  0  0  0  0  0  0  0
   40.0400   23.2430   36.1880 N   0  0  0  0  0  0  0  0  0  0  0  0
   39.1820   24.1460   35.6710 C   0  0  0  0  0  0  0  0  0  0  0  0
   38.1690   24.6600   36.4140 N   0  0  0  0  0  0  0  0  0  0  0  0
   37.2470   24.6220   38.3310 H   0  0  0  0  0  0  0  0  0  0  0  0
   38.8180   22.9650   39.2840 H   0  0  0  0  0  0  0  0  0  0  0  0
   40.6620   22.0780   37.8120 H   0  0  0  0  0  0  0  0  0  0  0  0
   36.8480   26.6740   30.8070 O   0  0  0  0  0  0  0  0  0  0  0  0
   35.0660   28.4950   32.2770 Cl  0  0  0  0  0  0  0  0  0  0  0  0
   36.2230   28.8800   31.0210 C   0  0  0  0  0  0  0  0  0  0  0  0
   37.0130   27.9320   30.4180 C   0  0  0  0  0  0  0  0  0  0  0  0
   37.9250   28.3620   29.4520 C   0  0  0  0  0  0  0  0  0  0  0  0
   38.0210   29.6960   29.1210 C   0  0  0  0  0  0  0  0  0  0  0  0
   37.2310   30.6520   29.7220 C   0  0  0  0  0  0  0  0  0  0  0  0
   36.3120   30.2250   30.6950 C   0  0  0  0  0  0  0  0  0  0  0  0
   38.5940   27.7070   28.9230 H   0  0  0  0  0  0  0  0  0  0  0  0
   38.7130   30.0660   28.3810 H   0  0  0  0  0  0  0  0  0  0  0  0
   37.3130   31.6910   29.4580 H   0  0  0  0  0  0  0  0  0  0  0  0
   35.4480   31.2010   31.3610 C   0  0  0  0  0  0  0  0  0  0  0  0
   35.9050   31.9370   32.4470 C   0  0  0  0  0  0  0  0  0  0  0  0
   36.9100   31.9630   33.0050 H   0  0  0  0  0  0  0  0  0  0  0  0
   34.4450   33.0290   32.9350 S   0  0  0  0  0  0  0  0  0  0  0  0
   33.4680   32.2430   31.5180 C   0  0  0  0  0  0  0  0  0  0  0  0
   32.3480   32.3110   31.0090 H   0  0  0  0  0  0  0  0  0  0  0  0
   34.2030   31.5170   31.0710 N   0  0  0  0  0  0  0  0  0  0  0  0
  1  6  1  6  0  0  0
  1  2  1  0  0  0  0
  1 11  1  0  0  0  0
  2  7  1  1  0  0  0
  2 13  1  0  0  0  0
  3  2  1  0  0  0  0
  4  5  1  0  0  0  0
  4  3  1  0  0  0  0
  5 10  1  1  0  0  0
  5  1  1  0  0  0  0
  8  4  1  0  0  0  0
  9  4  1  0  0  0  0
 12 11  1  0  0  0  0
 13 18  1  0  0  0  0
 14 15  1  0  0  0  0
 14 20  1  0  0  0  0
 15 21  1  0  0  0  0
 16 22  1  0  0  0  0
 16 15  2  0  0  0  0
 17 16  1  0  0  0  0
 18 17  2  0  0  0  0
 18 19  1  0  0  0  0
 19 14  2  0  0  0  0
 23  5  1  0  0  0  0
 25 24  1  0  0  0  0
 26 23  1  0  0  0  0
 26 25  2  0  0  0  0
 27 26  1  0  0  0  0
 28 27  2  0  0  0  0
 28 29  1  0  0  0  0
 29 30  2  0  0  0  0
 30 25  1  0  0  0  0
 30 34  1  0  0  0  0
 31 27  1  0  0  0  0
 32 28  1  0  0  0  0
 33 29  1  0  0  0  0
 34 35  2  0  0  0  0
 35 37  1  0  0  0  0
 35 36  1  0  0  0  0
 38 37  1  0  0  0  0
 39 38  1  0  0  0  0
 40 34  1  0  0  0  0
 40 38  2  0  0  0  0
M  END
>  <minimizedAffinity>
-5.063591

$$$$

 OpenBabel03272506493D

 40 43  0  0  1  0  0  0  0  0999 V2000
   37.3520   24.6630   31.0950 C   0  0  2  0  0  0  0  0  0  0  0  0
   37.9450   23.4910   30.3730 C   0  0  1  0  0  0  0  0  0  0  0  0
   39.0280   23.9280   29.6750 O   0  0  0  0  0  0  0  0  0  0  0  0
   39.3610   25.2100   30.1020 C   0  0  0  0  0  0  0  0  0  0  0  0
   38.6710   25.4320   31.4270 C   0  0  1  0  0  0  0  0  0  0  0  0
   36.6890   25.2960   30.5190 H   0  0  0  0  0  0  0  0  0  0  0  0
   37.1530   23.0260   29.7550 H   0  0  0  0  0  0  0  0  0  0  0  0
   39.0860   25.8830   29.3030 H   0  0  0  0  0  0  0  0  0  0  0  0
   40.4670   25.2110   30.2820 H   0  0  0  0  0  0  0  0  0  0  0  0
   39.1170   24.8920   32.2530 H   0  0  0  0  0  0  0  0  0  0  0  0
   36.7460   24.2490   32.3000 O   0  0  0  0  0  0  0  0  0  0  0  0
   37.3720   24.2900   33.0590 H   0  0  0  0  0  0  0  0  0  0  0  0
   38.5260   22.2890   31.6330 S   0  0  0  0  0  0  0  0  0  0  0  0
   35.5680   20.2910   33.3540 C   0  0  0  0  0  0  0  0  0  0  0  0
   35.2250   19.2960   32.4330 C   0  0  0  0  0  0  0  0  0  0  0  0
   35.9380   19.2410   31.2290 C   0  0  0  0  0  0  0  0  0  0  0  0
   36.9200   20.1530   31.0210 N   0  0  0  0  0  0  0  0  0  0  0  0
   37.2230   21.1000   31.9330 C   0  0  0  0  0  0  0  0  0  0  0  0
   36.5530   21.1830   33.1110 N   0  0  0  0  0  0  0  0  0  0  0  0
   35.0020   20.3110   34.2750 H   0  0  0  0  0  0  0  0  0  0  0  0
   34.4410   18.5720   32.6060 H   0  0  0  0  0  0  0  0  0  0  0  0
   35.7510   18.5120   30.4530 H   0  0  0  0  0  0  0  0  0  0  0  0
   38.4270   26.7750   31.5820 O   0  0  0  0  0  0  0  0  0  0  0  0
   36.3390   28.5760   30.5580 Cl  0  0  0  0  0  0  0  0  0  0  0  0
   36.7570   28.2270   32.2220 C   0  0  0  0  0  0  0  0  0  0  0  0
   37.7530   27.3480   32.5730 C   0  0  0  0  0  0  0  0  0  0  0  0
   37.9740   27.1230   33.9320 C   0  0  0  0  0  0  0  0  0  0  0  0
   37.2140   27.7670   34.8840 C   0  0  0  0  0  0  0  0  0  0  0  0
   36.2140   28.6510   34.5380 C   0  0  0  0  0  0  0  0  0  0  0  0
   35.9870   28.8810   33.1710 C   0  0  0  0  0  0  0  0  0  0  0  0
   38.7220   26.4520   34.3170 H   0  0  0  0  0  0  0  0  0  0  0  0
   37.3550   27.6190   35.9430 H   0  0  0  0  0  0  0  0  0  0  0  0
   35.6250   29.1490   35.2870 H   0  0  0  0  0  0  0  0  0  0  0  0
   34.9380   29.8120   32.7520 C   0  0  0  0  0  0  0  0  0  0  0  0
   33.6080   29.4170   32.7040 C   0  0  0  0  0  0  0  0  0  0  0  0
   33.0790   28.4230   32.9410 H   0  0  0  0  0  0  0  0  0  0  0  0
   32.6730   30.9460   32.1140 S   0  0  0  0  0  0  0  0  0  0  0  0
   34.3320   31.8540   32.0470 C   0  0  0  0  0  0  0  0  0  0  0  0
   34.7730   32.9670   31.7610 H   0  0  0  0  0  0  0  0  0  0  0  0
   35.0670   31.0690   32.3820 N   0  0  0  0  0  0  0  0  0  0  0  0
  1  6  1  6  0  0  0
  1  5  1  0  0  0  0
  1 11  1  0  0  0  0
  2  7  1  6  0  0  0
  2  1  1  0  0  0  0
  2 13  1  0  0  0  0
  3  4  1  0  0  0  0
  3  2  1  0  0  0  0
  4  9  1  0  0  0  0
  4  5  1  0  0  0  0
  5 23  1  0  0  0  0
  5 10  1  1  0  0  0
  8  4  1  0  0  0  0
 11 12  1  0  0  0  0
 13 18  1  0  0  0  0
 14 20  1  0  0  0  0
 15 21  1  0  0  0  0
 15 14  2  0  0  0  0
 16 15  1  0  0  0  0
 17 16  2  0  0  0  0
 17 18  1  0  0  0  0
 18 19  2  0  0  0  0
 19 14  1  0  0  0  0
 22 16  1  0  0  0  0
 23 26  1  0  0  0  0
 24 25  1  0  0  0  0
 25 26  2  0  0  0  0
 25 30  1  0  0  0  0
 26 27  1  0  0  0  0
 27 31  1  0  0  0  0
 27 28  2  0  0  0  0
 28 32  1  0  0  0  0
 29 28  1  0  0  0  0
 29 33  1  0  0  0  0
 30 29  2  0  0  0  0
 34 30  1  0  0  0  0
 35 34  2  0  0  0  0
 35 36  1  0  0  0  0
 37 35  1  0  0  0  0
 38 37  1  0  0  0  0
 38 40  2  0  0  0  0
 39 38  1  0  0  0  0
 40 34  1  0  0  0  0
M  END
>  <minimizedAffinity>
-5.04198503

$$$$

 OpenBabel03272506493D

 40 43  0  0  1  0  0  0  0  0999 V2000
   37.0140   25.6380   32.8150 C   0  0  2  0  0  0  0  0  0  0  0  0
   38.0010   24.5170   32.9500 C   0  0  1  0  0  0  0  0  0  0  0  0
   38.5250   24.2640   31.7200 O   0  0  0  0  0  0  0  0  0  0  0  0
   38.1850   25.3000   30.8560 C   0  0  0  0  0  0  0  0  0  0  0  0
   37.7430   26.4660   31.7090 C   0  0  1  0  0  0  0  0  0  0  0  0
   36.0220   25.3650   32.4800 H   0  0  0  0  0  0  0  0  0  0  0  0
   37.4870   23.6570   33.4200 H   0  0  0  0  0  0  0  0  0  0  0  0
   37.4470   24.9040   30.1740 H   0  0  0  0  0  0  0  0  0  0  0  0
   39.1250   25.5960   30.3240 H   0  0  0  0  0  0  0  0  0  0  0  0
   38.5550   26.9720   32.2180 H   0  0  0  0  0  0  0  0  0  0  0  0
   36.9640   26.4000   34.0010 O   0  0  0  0  0  0  0  0  0  0  0  0
   37.5950   27.1550   33.9800 H   0  0  0  0  0  0  0  0  0  0  0  0
   39.3600   25.0930   34.0420 S   0  0  0  0  0  0  0  0  0  0  0  0
   37.9230   24.2800   37.6450 C   0  0  0  0  0  0  0  0  0  0  0  0
   38.7670   23.2870   38.1500 C   0  0  0  0  0  0  0  0  0  0  0  0
   39.8250   22.8490   37.3440 C   0  0  0  0  0  0  0  0  0  0  0  0
   39.9740   23.4110   36.1180 N   0  0  0  0  0  0  0  0  0  0  0  0
   39.1380   24.3680   35.6620 C   0  0  0  0  0  0  0  0  0  0  0  0
   38.1030   24.8160   36.4170 N   0  0  0  0  0  0  0  0  0  0  0  0
   37.1150   24.6000   38.2880 H   0  0  0  0  0  0  0  0  0  0  0  0
   38.6430   22.8440   39.1290 H   0  0  0  0  0  0  0  0  0  0  0  0
   40.5320   22.0880   37.6410 H   0  0  0  0  0  0  0  0  0  0  0  0
   36.8460   27.2250   30.9960 O   0  0  0  0  0  0  0  0  0  0  0  0
   37.8970   28.5500   28.5900 Cl  0  0  0  0  0  0  0  0  0  0  0  0
   37.1630   29.2780   30.0020 C   0  0  0  0  0  0  0  0  0  0  0  0
   36.6950   28.5430   31.0630 C   0  0  0  0  0  0  0  0  0  0  0  0
   36.0970   29.2310   32.1200 C   0  0  0  0  0  0  0  0  0  0  0  0
   35.9860   30.6040   32.0910 C   0  0  0  0  0  0  0  0  0  0  0  0
   36.4540   31.3480   31.0300 C   0  0  0  0  0  0  0  0  0  0  0  0
   37.0570   30.6600   29.9630 C   0  0  0  0  0  0  0  0  0  0  0  0
   35.6920   28.7540   32.9960 H   0  0  0  0  0  0  0  0  0  0  0  0
   35.5310   31.1700   32.8890 H   0  0  0  0  0  0  0  0  0  0  0  0
   36.3630   32.4190   31.0150 H   0  0  0  0  0  0  0  0  0  0  0  0
   37.5720   31.4040   28.8130 C   0  0  0  0  0  0  0  0  0  0  0  0
   38.8570   31.9330   28.8200 C   0  0  0  0  0  0  0  0  0  0  0  0
   39.7020   31.9210   29.6010 H   0  0  0  0  0  0  0  0  0  0  0  0
   39.0360   32.7820   27.1440 S   0  0  0  0  0  0  0  0  0  0  0  0
   37.2690   32.2330   26.7510 C   0  0  0  0  0  0  0  0  0  0  0  0
   36.4490   32.3180   25.8350 H   0  0  0  0  0  0  0  0  0  0  0  0
   36.9600   31.6760   27.6800 N   0  0  0  0  0  0  0  0  0  0  0  0
  1  6  1  6  0  0  0
  1  2  1  0  0  0  0
  1 11  1  0  0  0  0
  2  7  1  1  0  0  0
  2 13  1  0  0  0  0
  3  2  1  0  0  0  0
  4  5  1  0  0  0  0
  4  3  1  0  0  0  0
  5 10  1  1  0  0  0
  5  1  1  0  0  0  0
  8  4  1  0  0  0  0
  9  4  1  0  0  0  0
 12 11  1  0  0  0  0
 13 18  1  0  0  0  0
 14 15  1  0  0  0  0
 14 20  1  0  0  0  0
 15 21  1  0  0  0  0
 16 22  1  0  0  0  0
 16 15  2  0  0  0  0
 17 16  1  0  0  0  0
 18 17  2  0  0  0  0
 18 19  1  0  0  0  0
 19 14  2  0  0  0  0
 23 26  1  0  0  0  0
 23  5  1  0  0  0  0
 24 25  1  0  0  0  0
 25 26  1  0  0  0  0
 26 27  2  0  0  0  0
 27 31  1  0  0  0  0
 28 27  1  0  0  0  0
 28 32  1  0  0  0  0
 29 28  2  0  0  0  0
 30 25  2  0  0  0  0
 30 29  1  0  0  0  0
 33 29  1  0  0  0  0
 34 35  2  0  0  0  0
 34 30  1  0  0  0  0
 35 36  1  0  0  0  0
 37 35  1  0  0  0  0
 38 37  1  0  0  0  0
 38 40  2  0  0  0  0
 39 38  1  0  0  0  0
 40 34  1  0  0  0  0
M  END
>  <minimizedAffinity>
-5.00675154

$$$$
