
 OpenBabel03272508113D

 32 34  0  0  0  0  0  0  0  0999 V2000
   36.6070   29.4820   44.0660 Cl  0  0  0  0  0  0  0  0  0  0  0  0
   38.2570   29.8430   43.4950 C   0  0  0  0  0  0  0  0  0  0  0  0
   39.2660   30.3070   44.3220 C   0  0  0  0  0  0  0  0  0  0  0  0
   40.4890   30.5410   43.7330 C   0  0  0  0  0  0  0  0  0  0  0  0
   40.7170   30.3330   42.4000 C   0  0  0  0  0  0  0  0  0  0  0  0
   39.7270   29.8780   41.5940 C   0  0  0  0  0  0  0  0  0  0  0  0
   38.4760   29.6250   42.1270 C   0  0  0  0  0  0  0  0  0  0  0  0
   41.2340   30.9010   44.4270 H   0  0  0  0  0  0  0  0  0  0  0  0
   41.7160   30.5520   42.0510 H   0  0  0  0  0  0  0  0  0  0  0  0
   39.9240   29.7200   40.5470 H   0  0  0  0  0  0  0  0  0  0  0  0
   37.3710   29.1260   41.2700 C   0  0  0  0  0  0  0  0  0  0  0  0
   36.5840   30.0280   40.5620 C   0  0  0  0  0  0  0  0  0  0  0  0
   36.5730   31.1260   40.4660 H   0  0  0  0  0  0  0  0  0  0  0  0
   35.3660   28.8940   39.6650 S   0  0  0  0  0  0  0  0  0  0  0  0
   36.2070   27.3960   40.4660 C   0  0  0  0  0  0  0  0  0  0  0  0
   36.0700   26.2080   40.4480 H   0  0  0  0  0  0  0  0  0  0  0  0
   37.0200   27.8620   41.0870 N   0  0  0  0  0  0  0  0  0  0  0  0
   38.8600   30.4560   45.6180 O   0  0  0  0  0  0  0  0  0  0  0  0
   39.4430   32.4780   47.1120 O   0  0  0  0  0  0  0  0  0  0  0  0
   38.3040   31.8250   46.4120 P   0  0  1  0  0  0  0  0  0  0  0  0
   37.7280   32.8460   45.1710 O   0  0  0  0  0  0  0  0  0  0  0  0
   38.5210   33.3040   44.7650 H   0  0  0  0  0  0  0  0  0  0  0  0
   37.0220   31.3970   47.4350 O   0  0  0  0  0  0  0  0  0  0  0  0
   37.6120   30.5330   50.9770 C   0  0  0  0  0  0  0  0  0  0  0  0
   37.7060   31.3020   49.8170 C   0  0  0  0  0  0  0  0  0  0  0  0
   37.0700   30.8330   48.6610 C   0  0  0  0  0  0  0  0  0  0  0  0
   36.3930   29.6490   48.7390 N   0  0  0  0  0  0  0  0  0  0  0  0
   36.3240   28.9330   49.8800 C   0  0  0  0  0  0  0  0  0  0  0  0
   36.9320   29.3760   50.9940 N   0  0  0  0  0  0  0  0  0  0  0  0
   38.1320   30.9850   51.7930 H   0  0  0  0  0  0  0  0  0  0  0  0
   38.2120   32.2270   49.6830 H   0  0  0  0  0  0  0  0  0  0  0  0
   35.7870   27.9950   49.9410 H   0  0  0  0  0  0  0  0  0  0  0  0
  2  1  1  0  0  0  0
  2  3  1  0  0  0  0
  3 18  1  0  0  0  0
  4  3  2  0  0  0  0
  4  8  1  0  0  0  0
  5  4  1  0  0  0  0
  6  7  1  0  0  0  0
  6  5  2  0  0  0  0
  7  2  2  0  0  0  0
  9  5  1  0  0  0  0
 10  6  1  0  0  0  0
 11  7  1  0  0  0  0
 12 11  2  0  0  0  0
 13 12  1  0  0  0  0
 14 15  1  0  0  0  0
 14 12  1  0  0  0  0
 15 17  2  0  0  0  0
 16 15  1  0  0  0  0
 17 11  1  0  0  0  0
 18 20  1  0  0  0  0
 20 19  2  1  0  0  0
 20 23  1  0  0  0  0
 21 20  1  0  0  0  0
 22 21  1  0  0  0  0
 23 26  1  0  0  0  0
 24 29  1  0  0  0  0
 24 30  1  0  0  0  0
 25 24  2  0  0  0  0
 26 27  2  0  0  0  0
 26 25  1  0  0  0  0
 27 28  1  0  0  0  0
 28 32  1  0  0  0  0
 28 29  2  0  0  0  0
 31 25  1  0  0  0  0
M  END
>  <minimizedAffinity>
-4.80133533

>  <minimizedRMSD>
0.49794358

$$$$
