
 OpenBabel03272505013D

 26 28  0  0  0  0  0  0  0  0999 V2000
   37.5010   30.2260   46.9660 Cl  0  0  0  0  0  0  0  0  0  0  0  0
   38.1580   31.6150   47.7720 C   0  0  0  0  0  0  0  0  0  0  0  0
   37.8090   31.8250   49.0850 C   0  0  0  0  0  0  0  0  0  0  0  0
   38.3640   32.9530   49.7040 C   0  0  0  0  0  0  0  0  0  0  0  0
   39.2170   33.7810   48.9810 C   0  0  0  0  0  0  0  0  0  0  0  0
   39.5370   33.5380   47.6830 C   0  0  0  0  0  0  0  0  0  0  0  0
   38.9850   32.4110   47.0560 C   0  0  0  0  0  0  0  0  0  0  0  0
   38.1530   33.2060   50.7340 H   0  0  0  0  0  0  0  0  0  0  0  0
   39.6240   34.6390   49.4930 H   0  0  0  0  0  0  0  0  0  0  0  0
   40.2070   34.2360   47.2030 H   0  0  0  0  0  0  0  0  0  0  0  0
   37.3690   30.2730   50.9980 C   0  0  0  0  0  0  0  0  0  0  0  0
   36.9250   30.9690   49.8520 C   0  0  0  0  0  0  0  0  0  0  0  0
   35.5960   30.7910   49.4840 C   0  0  0  0  0  0  0  0  0  0  0  0
   34.8050   29.9730   50.2270 N   0  0  0  0  0  0  0  0  0  0  0  0
   35.2610   29.3310   51.3050 C   0  0  0  0  0  0  0  0  0  0  0  0
   36.5590   29.4750   51.7070 N   0  0  0  0  0  0  0  0  0  0  0  0
   38.4070   30.4140   51.2840 H   0  0  0  0  0  0  0  0  0  0  0  0
   35.1780   31.2900   48.6160 H   0  0  0  0  0  0  0  0  0  0  0  0
   34.6230   28.6830   51.8900 H   0  0  0  0  0  0  0  0  0  0  0  0
   39.4290   32.2760   45.6720 C   0  0  0  0  0  0  0  0  0  0  0  0
   40.1850   31.1910   45.3350 C   0  0  0  0  0  0  0  0  0  0  0  0
   40.6650   30.2960   45.6230 H   0  0  0  0  0  0  0  0  0  0  0  0
   40.4890   31.4160   43.5120 S   0  0  0  0  0  0  0  0  0  0  0  0
   39.4770   33.0270   43.5570 C   0  0  0  0  0  0  0  0  0  0  0  0
   39.1610   33.8380   42.7860 H   0  0  0  0  0  0  0  0  0  0  0  0
   39.1880   33.0690   44.6410 N   0  0  0  0  0  0  0  0  0  0  0  0
  1  2  1  0  0  0  0
  2  3  1  0  0  0  0
  3  4  2  0  0  0  0
  3 12  1  0  0  0  0
  4  8  1  0  0  0  0
  5  9  1  0  0  0  0
  5  4  1  0  0  0  0
  6  5  2  0  0  0  0
  7  6  1  0  0  0  0
  7  2  2  0  0  0  0
 10  6  1  0  0  0  0
 11 17  1  0  0  0  0
 11 16  1  0  0  0  0
 12 11  2  0  0  0  0
 13 12  1  0  0  0  0
 13 14  2  0  0  0  0
 14 15  1  0  0  0  0
 15 16  2  0  0  0  0
 15 19  1  0  0  0  0
 18 13  1  0  0  0  0
 20  7  1  0  0  0  0
 21 22  1  0  0  0  0
 21 20  2  0  0  0  0
 23 24  1  0  0  0  0
 23 21  1  0  0  0  0
 24 26  2  0  0  0  0
 25 24  1  0  0  0  0
 26 20  1  0  0  0  0
M  END
>  <minimizedAffinity>
-5.91580153

>  <minimizedRMSD>
0.870745301

$$$$
