
 OpenBabel03272508123D

 32 34  0  0  0  0  0  0  0  0999 V2000
   36.6540   29.4590   44.0560 Cl  0  0  0  0  0  0  0  0  0  0  0  0
   38.3160   29.8250   43.5220 C   0  0  0  0  0  0  0  0  0  0  0  0
   39.3010   30.3030   44.3690 C   0  0  0  0  0  0  0  0  0  0  0  0
   40.5370   30.5380   43.8070 C   0  0  0  0  0  0  0  0  0  0  0  0
   40.7990   30.3180   42.4820 C   0  0  0  0  0  0  0  0  0  0  0  0
   39.8310   29.8490   41.6570 C   0  0  0  0  0  0  0  0  0  0  0  0
   38.5690   29.5940   42.1620 C   0  0  0  0  0  0  0  0  0  0  0  0
   41.2640   30.9100   44.5150 H   0  0  0  0  0  0  0  0  0  0  0  0
   41.8050   30.5390   42.1560 H   0  0  0  0  0  0  0  0  0  0  0  0
   40.0550   29.6820   40.6170 H   0  0  0  0  0  0  0  0  0  0  0  0
   37.4870   29.0800   41.2840 C   0  0  0  0  0  0  0  0  0  0  0  0
   37.3930   27.7160   41.0290 C   0  0  0  0  0  0  0  0  0  0  0  0
   37.9730   26.8350   41.3460 H   0  0  0  0  0  0  0  0  0  0  0  0
   35.8880   27.6160   39.8890 S   0  0  0  0  0  0  0  0  0  0  0  0
   35.7040   29.4980   40.0050 C   0  0  0  0  0  0  0  0  0  0  0  0
   34.9650   30.3290   39.5630 H   0  0  0  0  0  0  0  0  0  0  0  0
   36.5520   29.7960   40.6790 N   0  0  0  0  0  0  0  0  0  0  0  0
   38.8630   30.4630   45.6530 O   0  0  0  0  0  0  0  0  0  0  0  0
   39.4440   32.5070   47.1170 O   0  0  0  0  0  0  0  0  0  0  0  0
   38.3070   31.8420   46.4270 P   0  0  1  0  0  0  0  0  0  0  0  0
   37.7280   32.8440   45.1720 O   0  0  0  0  0  0  0  0  0  0  0  0
   38.5210   33.2970   44.7590 H   0  0  0  0  0  0  0  0  0  0  0  0
   37.0260   31.4270   47.4570 O   0  0  0  0  0  0  0  0  0  0  0  0
   37.6160   30.5260   50.9900 C   0  0  0  0  0  0  0  0  0  0  0  0
   37.7100   31.3070   49.8380 C   0  0  0  0  0  0  0  0  0  0  0  0
   37.0740   30.8500   48.6770 C   0  0  0  0  0  0  0  0  0  0  0  0
   36.3960   29.6660   48.7420 N   0  0  0  0  0  0  0  0  0  0  0  0
   36.3270   28.9380   49.8760 C   0  0  0  0  0  0  0  0  0  0  0  0
   36.9360   29.3690   50.9940 N   0  0  0  0  0  0  0  0  0  0  0  0
   38.1360   30.9690   51.8110 H   0  0  0  0  0  0  0  0  0  0  0  0
   38.2160   32.2330   49.7140 H   0  0  0  0  0  0  0  0  0  0  0  0
   35.7900   27.9990   49.9270 H   0  0  0  0  0  0  0  0  0  0  0  0
  2  1  1  0  0  0  0
  2  3  1  0  0  0  0
  3 18  1  0  0  0  0
  4  3  2  0  0  0  0
  4  8  1  0  0  0  0
  5  4  1  0  0  0  0
  6  7  1  0  0  0  0
  6  5  2  0  0  0  0
  7  2  2  0  0  0  0
  9  5  1  0  0  0  0
 10  6  1  0  0  0  0
 11  7  1  0  0  0  0
 12 11  2  0  0  0  0
 12 13  1  0  0  0  0
 14 15  1  0  0  0  0
 14 12  1  0  0  0  0
 15 17  2  0  0  0  0
 16 15  1  0  0  0  0
 17 11  1  0  0  0  0
 18 20  1  0  0  0  0
 20 19  2  1  0  0  0
 20 23  1  0  0  0  0
 21 20  1  0  0  0  0
 22 21  1  0  0  0  0
 23 26  1  0  0  0  0
 24 29  1  0  0  0  0
 24 30  1  0  0  0  0
 25 24  2  0  0  0  0
 26 27  2  0  0  0  0
 26 25  1  0  0  0  0
 27 28  1  0  0  0  0
 28 32  1  0  0  0  0
 28 29  2  0  0  0  0
 31 25  1  0  0  0  0
M  END
>  <minimizedAffinity>
-4.79326677

>  <minimizedRMSD>
0.305872083

$$$$
