
 OpenBabel03272505113D

 37 40  0  0  0  0  0  0  0  0999 V2000
   36.4030   30.9060   45.7080 Cl  0  0  0  0  0  0  0  0  0  0  0  0
   36.6880   30.7790   47.4190 C   0  0  0  0  0  0  0  0  0  0  0  0
   37.9490   31.1090   47.8790 C   0  0  0  0  0  0  0  0  0  0  0  0
   38.1850   31.0110   49.2340 C   0  0  0  0  0  0  0  0  0  0  0  0
   37.1840   30.5960   50.0800 C   0  0  0  0  0  0  0  0  0  0  0  0
   35.9290   30.2770   49.5510 C   0  0  0  0  0  0  0  0  0  0  0  0
   35.6320   30.3530   48.2160 C   0  0  0  0  0  0  0  0  0  0  0  0
   39.1510   31.2610   49.6120 H   0  0  0  0  0  0  0  0  0  0  0  0
   37.3730   30.5220   51.1410 H   0  0  0  0  0  0  0  0  0  0  0  0
   35.1670   29.9540   50.2470 H   0  0  0  0  0  0  0  0  0  0  0  0
   40.2110   33.3250   46.0750 C   0  0  0  0  0  0  0  0  0  0  0  0
   40.9260   32.4580   45.2120 C   0  0  0  0  0  0  0  0  0  0  0  0
   40.6070   31.1010   45.2720 C   0  0  0  0  0  0  0  0  0  0  0  0
   39.6410   30.6880   46.1420 N   0  0  0  0  0  0  0  0  0  0  0  0
   38.9930   31.5500   46.9370 C   0  0  0  0  0  0  0  0  0  0  0  0
   39.2820   32.8440   46.8960 N   0  0  0  0  0  0  0  0  0  0  0  0
   40.4880   34.3730   45.9990 H   0  0  0  0  0  0  0  0  0  0  0  0
   41.6880   32.7330   44.5170 H   0  0  0  0  0  0  0  0  0  0  0  0
   41.0700   30.3200   44.6730 H   0  0  0  0  0  0  0  0  0  0  0  0
   34.0640   29.9590   47.5220 S   0  0  0  0  0  0  0  0  0  0  0  0
   33.8290   29.1990   44.4860 Cl  0  0  0  0  0  0  0  0  0  0  0  0
   33.8370   27.9670   45.7460 C   0  0  0  0  0  0  0  0  0  0  0  0
   33.9370   28.2190   47.1080 C   0  0  0  0  0  0  0  0  0  0  0  0
   33.9280   27.1580   47.9740 C   0  0  0  0  0  0  0  0  0  0  0  0
   33.8250   25.8750   47.5470 C   0  0  0  0  0  0  0  0  0  0  0  0
   33.7240   25.5870   46.1910 C   0  0  0  0  0  0  0  0  0  0  0  0
   33.7310   26.6510   45.2970 C   0  0  0  0  0  0  0  0  0  0  0  0
   34.0100   27.4580   49.0090 H   0  0  0  0  0  0  0  0  0  0  0  0
   33.8250   25.0970   48.2980 H   0  0  0  0  0  0  0  0  0  0  0  0
   33.6450   24.5500   45.8980 H   0  0  0  0  0  0  0  0  0  0  0  0
   33.6240   26.3360   43.8440 C   0  0  0  0  0  0  0  0  0  0  0  0
   34.7340   26.0790   43.0740 C   0  0  0  0  0  0  0  0  0  0  0  0
   35.7870   26.0520   43.3220 H   0  0  0  0  0  0  0  0  0  0  0  0
   34.0080   25.7650   41.4090 S   0  0  0  0  0  0  0  0  0  0  0  0
   32.2670   26.0490   42.0800 C   0  0  0  0  0  0  0  0  0  0  0  0
   31.3000   26.0060   41.5500 H   0  0  0  0  0  0  0  0  0  0  0  0
   32.4840   26.2800   43.1920 N   0  0  0  0  0  0  0  0  0  0  0  0
  1  2  1  0  0  0  0
  2  3  2  0  0  0  0
  2  7  1  0  0  0  0
  3  4  1  0  0  0  0
  4  8  1  0  0  0  0
  4  5  2  0  0  0  0
  5  9  1  0  0  0  0
  6  5  1  0  0  0  0
  6 10  1  0  0  0  0
  7  6  2  0  0  0  0
 11 16  1  0  0  0  0
 12 13  1  0  0  0  0
 12 11  2  0  0  0  0
 13 14  2  0  0  0  0
 14 15  1  0  0  0  0
 15  3  1  0  0  0  0
 16 15  2  0  0  0  0
 17 11  1  0  0  0  0
 18 12  1  0  0  0  0
 19 13  1  0  0  0  0
 20  7  1  0  0  0  0
 21 22  1  0  0  0  0
 22 23  1  0  0  0  0
 23 20  1  0  0  0  0
 23 24  2  0  0  0  0
 24 28  1  0  0  0  0
 25 24  1  0  0  0  0
 25 29  1  0  0  0  0
 26 25  2  0  0  0  0
 27 22  2  0  0  0  0
 27 26  1  0  0  0  0
 30 26  1  0  0  0  0
 31 27  1  0  0  0  0
 32 33  1  0  0  0  0
 32 31  2  0  0  0  0
 34 35  1  0  0  0  0
 34 32  1  0  0  0  0
 35 37  2  0  0  0  0
 36 35  1  0  0  0  0
 37 31  1  0  0  0  0
M  END
>  <minimizedAffinity>
-5.60786629

>  <minimizedRMSD>
0.066437915

$$$$
