
 OpenBabel03272505123D

 37 40  0  0  0  0  0  0  0  0999 V2000
   36.4040   30.9060   45.7080 Cl  0  0  0  0  0  0  0  0  0  0  0  0
   36.6880   30.7790   47.4190 C   0  0  0  0  0  0  0  0  0  0  0  0
   37.9490   31.1100   47.8790 C   0  0  0  0  0  0  0  0  0  0  0  0
   38.1850   31.0120   49.2340 C   0  0  0  0  0  0  0  0  0  0  0  0
   37.1840   30.5970   50.0800 C   0  0  0  0  0  0  0  0  0  0  0  0
   35.9290   30.2770   49.5510 C   0  0  0  0  0  0  0  0  0  0  0  0
   35.6320   30.3540   48.2160 C   0  0  0  0  0  0  0  0  0  0  0  0
   39.1510   31.2620   49.6120 H   0  0  0  0  0  0  0  0  0  0  0  0
   37.3730   30.5220   51.1410 H   0  0  0  0  0  0  0  0  0  0  0  0
   35.1660   29.9550   50.2460 H   0  0  0  0  0  0  0  0  0  0  0  0
   40.2110   33.3250   46.0750 C   0  0  0  0  0  0  0  0  0  0  0  0
   40.9270   32.4580   45.2130 C   0  0  0  0  0  0  0  0  0  0  0  0
   40.6080   31.1010   45.2730 C   0  0  0  0  0  0  0  0  0  0  0  0
   39.6410   30.6880   46.1430 N   0  0  0  0  0  0  0  0  0  0  0  0
   38.9940   31.5500   46.9370 C   0  0  0  0  0  0  0  0  0  0  0  0
   39.2820   32.8450   46.8960 N   0  0  0  0  0  0  0  0  0  0  0  0
   40.4880   34.3740   45.9990 H   0  0  0  0  0  0  0  0  0  0  0  0
   41.6890   32.7330   44.5170 H   0  0  0  0  0  0  0  0  0  0  0  0
   41.0710   30.3200   44.6750 H   0  0  0  0  0  0  0  0  0  0  0  0
   34.0640   29.9590   47.5210 S   0  0  0  0  0  0  0  0  0  0  0  0
   33.8290   29.1990   44.4850 Cl  0  0  0  0  0  0  0  0  0  0  0  0
   33.8370   27.9670   45.7460 C   0  0  0  0  0  0  0  0  0  0  0  0
   33.9370   28.2190   47.1070 C   0  0  0  0  0  0  0  0  0  0  0  0
   33.9280   27.1590   47.9740 C   0  0  0  0  0  0  0  0  0  0  0  0
   33.8250   25.8750   47.5480 C   0  0  0  0  0  0  0  0  0  0  0  0
   33.7250   25.5870   46.1910 C   0  0  0  0  0  0  0  0  0  0  0  0
   33.7320   26.6510   45.2980 C   0  0  0  0  0  0  0  0  0  0  0  0
   34.0100   27.4580   49.0090 H   0  0  0  0  0  0  0  0  0  0  0  0
   33.8260   25.0980   48.2980 H   0  0  0  0  0  0  0  0  0  0  0  0
   33.6450   24.5500   45.8990 H   0  0  0  0  0  0  0  0  0  0  0  0
   33.6240   26.3360   43.8440 C   0  0  0  0  0  0  0  0  0  0  0  0
   34.7350   26.0790   43.0740 C   0  0  0  0  0  0  0  0  0  0  0  0
   35.7870   26.0530   43.3220 H   0  0  0  0  0  0  0  0  0  0  0  0
   34.0090   25.7650   41.4080 S   0  0  0  0  0  0  0  0  0  0  0  0
   32.2670   26.0490   42.0790 C   0  0  0  0  0  0  0  0  0  0  0  0
   31.3010   26.0060   41.5500 H   0  0  0  0  0  0  0  0  0  0  0  0
   32.4850   26.2800   43.1920 N   0  0  0  0  0  0  0  0  0  0  0  0
  1  2  1  0  0  0  0
  2  3  2  0  0  0  0
  2  7  1  0  0  0  0
  3  4  1  0  0  0  0
  4  8  1  0  0  0  0
  4  5  2  0  0  0  0
  5  9  1  0  0  0  0
  6  5  1  0  0  0  0
  6 10  1  0  0  0  0
  7  6  2  0  0  0  0
 11 16  1  0  0  0  0
 12 13  1  0  0  0  0
 12 11  2  0  0  0  0
 13 14  2  0  0  0  0
 14 15  1  0  0  0  0
 15  3  1  0  0  0  0
 16 15  2  0  0  0  0
 17 11  1  0  0  0  0
 18 12  1  0  0  0  0
 19 13  1  0  0  0  0
 20  7  1  0  0  0  0
 21 22  1  0  0  0  0
 22 23  1  0  0  0  0
 23 20  1  0  0  0  0
 23 24  2  0  0  0  0
 24 28  1  0  0  0  0
 25 24  1  0  0  0  0
 25 29  1  0  0  0  0
 26 25  2  0  0  0  0
 27 22  2  0  0  0  0
 27 26  1  0  0  0  0
 30 26  1  0  0  0  0
 31 27  1  0  0  0  0
 32 33  1  0  0  0  0
 32 31  2  0  0  0  0
 34 35  1  0  0  0  0
 34 32  1  0  0  0  0
 35 37  2  0  0  0  0
 36 35  1  0  0  0  0
 37 31  1  0  0  0  0
M  END
>  <minimizedAffinity>
-5.60752296

>  <minimizedRMSD>
0.425658405

$$$$
