
 OpenBabel03272505583D

 42 45  0  0  1  0  0  0  0  0999 V2000
   35.1950   30.3230   50.0940 C   0  0  2  0  0  0  0  0  0  0  0  0
   36.1250   31.2310   49.3800 C   0  0  0  0  0  0  0  0  0  0  0  0
   37.5820   30.7550   49.4430 C   0  0  2  0  0  0  0  0  0  0  0  0
   38.0850   30.5520   50.8030 C   0  0  0  0  0  0  0  0  0  0  0  0
   37.0590   29.9340   51.7460 C   0  0  0  0  0  0  0  0  0  0  0  0
   35.9020   29.3380   50.9960 C   0  0  0  0  0  0  0  0  0  0  0  0
   34.4840   30.8650   50.7890 H   0  0  0  0  0  0  0  0  0  0  0  0
   36.1590   32.1810   50.0140 H   0  0  0  0  0  0  0  0  0  0  0  0
   35.9920   31.4960   48.3620 H   0  0  0  0  0  0  0  0  0  0  0  0
   37.6320   29.8670   48.8040 H   0  0  0  0  0  0  0  0  0  0  0  0
   39.0180   29.9560   50.7700 H   0  0  0  0  0  0  0  0  0  0  0  0
   38.3650   31.5140   51.2690 H   0  0  0  0  0  0  0  0  0  0  0  0
   37.5710   29.0910   52.2550 H   0  0  0  0  0  0  0  0  0  0  0  0
   36.7420   30.6150   52.5500 H   0  0  0  0  0  0  0  0  0  0  0  0
   35.1820   28.9390   51.7100 H   0  0  0  0  0  0  0  0  0  0  0  0
   36.2590   28.5120   50.3580 H   0  0  0  0  0  0  0  0  0  0  0  0
   38.0280   30.3570   46.5570 Cl  0  0  0  0  0  0  0  0  0  0  0  0
   38.6460   31.7620   47.4280 C   0  0  0  0  0  0  0  0  0  0  0  0
   38.3440   31.8490   48.7740 C   0  0  0  0  0  0  0  0  0  0  0  0
   38.8550   32.9830   49.3550 C   0  0  0  0  0  0  0  0  0  0  0  0
   39.5890   33.9280   48.6690 C   0  0  0  0  0  0  0  0  0  0  0  0
   39.8440   33.7580   47.3130 C   0  0  0  0  0  0  0  0  0  0  0  0
   39.3500   32.6280   46.6710 C   0  0  0  0  0  0  0  0  0  0  0  0
   38.6650   33.1400   50.4100 H   0  0  0  0  0  0  0  0  0  0  0  0
   39.9590   34.8020   49.2040 H   0  0  0  0  0  0  0  0  0  0  0  0
   40.4170   34.5100   46.8080 H   0  0  0  0  0  0  0  0  0  0  0  0
   39.5990   32.4170   45.2440 C   0  0  0  0  0  0  0  0  0  0  0  0
   40.4550   31.3600   44.7820 C   0  0  0  0  0  0  0  0  0  0  0  0
   41.0250   30.5840   45.4150 H   0  0  0  0  0  0  0  0  0  0  0  0
   40.4290   31.5290   42.9720 S   0  0  0  0  0  0  0  0  0  0  0  0
   39.2570   33.0180   43.1150 C   0  0  0  0  0  0  0  0  0  0  0  0
   38.7360   33.7410   42.3470 H   0  0  0  0  0  0  0  0  0  0  0  0
   39.1260   33.1000   44.2260 N   0  0  0  0  0  0  0  0  0  0  0  0
   34.3280   29.5510   49.1900 C   0  0  0  0  0  0  0  0  0  0  0  0
   34.3710   29.9420   47.8510 C   0  0  0  0  0  0  0  0  0  0  0  0
   33.5740   29.2300   46.9420 C   0  0  0  0  0  0  0  0  0  0  0  0
   32.7920   28.1820   47.4140 N   0  0  0  0  0  0  0  0  0  0  0  0
   32.7840   27.8420   48.7180 C   0  0  0  0  0  0  0  0  0  0  0  0
   33.5510   28.5350   49.5640 N   0  0  0  0  0  0  0  0  0  0  0  0
   34.8440   30.6730   47.2220 H   0  0  0  0  0  0  0  0  0  0  0  0
   33.4210   29.3130   45.8950 H   0  0  0  0  0  0  0  0  0  0  0  0
   32.1770   27.0290   49.0900 H   0  0  0  0  0  0  0  0  0  0  0  0
  1  7  1  1  0  0  0
  1  6  1  0  0  0  0
  2  3  1  0  0  0  0
  2  8  1  0  0  0  0
  2  1  1  0  0  0  0
  3 10  1  6  0  0  0
  3  4  1  0  0  0  0
  4 12  1  0  0  0  0
  4  5  1  0  0  0  0
  5 13  1  0  0  0  0
  5 14  1  0  0  0  0
  6 15  1  0  0  0  0
  6  5  1  0  0  0  0
  9  2  1  0  0  0  0
 11  4  1  0  0  0  0
 16  6  1  0  0  0  0
 17 18  1  0  0  0  0
 18 19  1  0  0  0  0
 19 20  2  0  0  0  0
 19  3  1  0  0  0  0
 20 24  1  0  0  0  0
 21 25  1  0  0  0  0
 21 20  1  0  0  0  0
 22 21  2  0  0  0  0
 23 22  1  0  0  0  0
 23 18  2  0  0  0  0
 26 22  1  0  0  0  0
 27 23  1  0  0  0  0
 28 27  2  0  0  0  0
 28 29  1  0  0  0  0
 30 31  1  0  0  0  0
 30 28  1  0  0  0  0
 31 33  2  0  0  0  0
 32 31  1  0  0  0  0
 33 27  1  0  0  0  0
 34 39  1  0  0  0  0
 34  1  1  0  0  0  0
 35 34  2  0  0  0  0
 36 37  2  0  0  0  0
 36 35  1  0  0  0  0
 37 38  1  0  0  0  0
 38 42  1  0  0  0  0
 38 39  2  0  0  0  0
 40 35  1  0  0  0  0
 41 36  1  0  0  0  0
M  END
>  <minimizedAffinity>
-7.56951761

>  <minimizedRMSD>
0.621090055

$$$$
