
 OpenBabel03272508413D

 40 43  0  0  1  0  0  0  0  0999 V2000
   31.5230   27.3600   48.5960 N   0  0  0  0  0  0  0  0  0  0  0  0
   32.5820   28.1760   49.1790 C   0  0  0  0  0  0  0  0  0  0  0  0
   33.6240   28.5850   48.2340 C   0  0  2  0  0  0  0  0  0  0  0  0
   34.0540   27.4680   47.3520 N   0  0  0  0  0  0  0  0  0  0  0  0
   32.8370   26.9470   46.6980 C   0  0  0  0  0  0  0  0  0  0  0  0
   32.0890   26.2980   47.8430 C   0  0  0  0  0  0  0  0  0  0  0  0
   33.0610   27.3930   49.8630 H   0  0  0  0  0  0  0  0  0  0  0  0
   32.1570   29.0150   49.7250 H   0  0  0  0  0  0  0  0  0  0  0  0
   33.3350   29.3130   47.4500 H   0  0  0  0  0  0  0  0  0  0  0  0
   34.4080   26.6800   47.9370 H   0  0  0  0  0  0  0  0  0  0  0  0
   33.1430   26.1630   45.9890 H   0  0  0  0  0  0  0  0  0  0  0  0
   32.2270   27.7430   46.2520 H   0  0  0  0  0  0  0  0  0  0  0  0
   31.2950   25.6180   47.5080 H   0  0  0  0  0  0  0  0  0  0  0  0
   32.8000   25.7000   48.4580 H   0  0  0  0  0  0  0  0  0  0  0  0
   35.4840   30.2750   46.6450 Cl  0  0  0  0  0  0  0  0  0  0  0  0
   35.6950   29.9200   48.3520 C   0  0  0  0  0  0  0  0  0  0  0  0
   34.7810   29.0870   48.9530 C   0  0  0  0  0  0  0  0  0  0  0  0
   34.8280   28.7170   50.3030 C   0  0  0  0  0  0  0  0  0  0  0  0
   35.9020   29.2580   51.0310 C   0  0  0  0  0  0  0  0  0  0  0  0
   36.8330   30.1020   50.4280 C   0  0  0  0  0  0  0  0  0  0  0  0
   36.7150   30.4170   49.1070 C   0  0  0  0  0  0  0  0  0  0  0  0
   34.2620   28.1210   50.9780 H   0  0  0  0  0  0  0  0  0  0  0  0
   36.0910   29.0730   52.0920 H   0  0  0  0  0  0  0  0  0  0  0  0
   37.6520   30.4970   51.0390 H   0  0  0  0  0  0  0  0  0  0  0  0
   37.6870   31.3190   48.4190 C   0  0  0  0  0  0  0  0  0  0  0  0
   38.3130   30.7860   47.2120 C   0  0  0  0  0  0  0  0  0  0  0  0
   38.2280   29.8380   46.6740 H   0  0  0  0  0  0  0  0  0  0  0  0
   39.4150   32.2470   46.7370 S   0  0  0  0  0  0  0  0  0  0  0  0
   38.8390   33.2570   48.2050 C   0  0  0  0  0  0  0  0  0  0  0  0
   39.1700   34.2440   48.4390 H   0  0  0  0  0  0  0  0  0  0  0  0
   37.9650   32.5120   48.8680 N   0  0  0  0  0  0  0  0  0  0  0  0
   30.1480   27.6280   48.7980 C   0  0  0  0  0  0  0  0  0  0  0  0
   29.4110   28.4290   47.9220 C   0  0  0  0  0  0  0  0  0  0  0  0
   28.0650   28.6430   48.1900 C   0  0  0  0  0  0  0  0  0  0  0  0
   27.5200   28.0490   49.3160 N   0  0  0  0  0  0  0  0  0  0  0  0
   28.2780   27.2820   50.1330 C   0  0  0  0  0  0  0  0  0  0  0  0
   29.5600   27.0700   49.8890 N   0  0  0  0  0  0  0  0  0  0  0  0
   29.9140   28.8550   47.0660 H   0  0  0  0  0  0  0  0  0  0  0  0
   27.4810   29.2600   47.5230 H   0  0  0  0  0  0  0  0  0  0  0  0
   27.7290   26.8790   50.9740 H   0  0  0  0  0  0  0  0  0  0  0  0
  1 32  1  0  0  0  0
  1  2  1  0  0  0  0
  2  8  1  0  0  0  0
  2  7  1  0  0  0  0
  3  9  1  6  0  0  0
  3 17  1  0  0  0  0
  3  2  1  0  0  0  0
  4 10  1  0  0  0  0
  4  3  1  0  0  0  0
  5  4  1  0  0  0  0
  5  6  1  0  0  0  0
  6 14  1  0  0  0  0
  6  1  1  0  0  0  0
 11  5  1  0  0  0  0
 12  5  1  0  0  0  0
 13  6  1  0  0  0  0
 15 16  1  0  0  0  0
 16 17  2  0  0  0  0
 16 21  1  0  0  0  0
 17 18  1  0  0  0  0
 18 22  1  0  0  0  0
 18 19  2  0  0  0  0
 19 23  1  0  0  0  0
 20 19  1  0  0  0  0
 20 24  1  0  0  0  0
 21 20  2  0  0  0  0
 25 31  1  0  0  0  0
 25 21  1  0  0  0  0
 26 25  2  0  0  0  0
 27 26  1  0  0  0  0
 28 26  1  0  0  0  0
 28 29  1  0  0  0  0
 29 30  1  0  0  0  0
 29 31  2  0  0  0  0
 32 37  1  0  0  0  0
 33 34  1  0  0  0  0
 33 32  2  0  0  0  0
 34 35  2  0  0  0  0
 35 36  1  0  0  0  0
 36 40  1  0  0  0  0
 37 36  2  0  0  0  0
 38 33  1  0  0  0  0
 39 34  1  0  0  0  0
M  END
>  <minimizedAffinity>
-6.5390954

>  <minimizedRMSD>
4.52988052

$$$$
