REMARK  Name = 
REMARK  5 active torsions:
REMARK  status: ('A' for Active; 'I' for Inactive)
REMARK    1  A    between atoms: C_1  and  C_8
REMARK    2  A    between atoms: C_6  and  N_15
REMARK    3  A    between atoms: C_13  and  O_16
REMARK    4  A    between atoms: O_16  and  C_17
REMARK    5  A    between atoms: C_17  and  C_27
REMARK                            x       y       z     vdW  Elec       q    Type
REMARK                         _______ _______ _______ _____ _____    ______ ____
ROOT
ATOM      1  C   UNL     1      38.109  31.880  47.417  0.00  0.00    +0.000 A 
ATOM      2  C   UNL     1      38.582  32.796  48.318  0.00  0.00    +0.000 A 
ATOM      3  C   UNL     1      38.087  32.865  49.617  0.00  0.00    +0.000 A 
ATOM      4  C   UNL     1      37.045  31.927  49.990  0.00  0.00    +0.000 A 
ATOM      5  C   UNL     1      36.622  31.044  49.047  0.00  0.00    +0.000 A 
ATOM      6  C   UNL     1      37.099  30.982  47.797  0.00  0.00    +0.000 A 
ATOM      7  H   UNL     1      39.369  33.518  48.067  0.00  0.00    +0.000 HD
ATOM      8  H   UNL     1      38.491  33.606  50.294  0.00  0.00    +0.000 HD
ATOM      9  H   UNL     1      36.765  32.095  51.008  0.00  0.00    +0.000 HD
ATOM     10  H   UNL     1      35.879  30.439  49.542  0.00  0.00    +0.000 HD
ENDROOT
BRANCH   1  12
ATOM     11  C   UNL     1      40.001  31.257  45.990  0.00  0.00    +0.000 A 
ATOM     12  C   UNL     1      38.744  31.914  46.115  0.00  0.00    +0.000 A 
ATOM     13  C   UNL     1      38.277  32.503  44.966  0.00  0.00    +0.000 A 
ATOM     14  N   UNL     1      38.982  32.442  43.826  0.00  0.00    +0.000 NA
ATOM     15  C   UNL     1      40.159  31.821  43.727  0.00  0.00    +0.000 A 
ATOM     16  N   UNL     1      40.654  31.236  44.812  0.00  0.00    +0.000 NA
ATOM     17  H   UNL     1      40.425  30.769  46.875  0.00  0.00    +0.000 HD
ATOM     18  H   UNL     1      37.323  33.002  45.061  0.00  0.00    +0.000 HD
ATOM     19  H   UNL     1      40.749  31.757  42.819  0.00  0.00    +0.000 HD
ENDBRANCH   1  12
BRANCH   6  22
ATOM     20  C   UNL     1      35.125  30.015  46.963  0.00  0.00    +0.000 C 
ATOM     21  O   UNL     1      34.513  30.685  47.881  0.00  0.00    +0.000 OA
ATOM     22  N   UNL     1      36.606  30.087  46.882  0.00  0.00    +0.000 N 
ATOM     23  H   UNL     1      37.100  29.492  46.188  0.00  0.00    +0.000 HD
BRANCH  20  24
ATOM     24  O   UNL     1      34.475  29.194  45.995  0.00  0.00    +0.000 OA
BRANCH  24  25
ATOM     25  C   UNL     1      33.298  29.620  45.409  0.00  0.00    +0.000 C 
ATOM     26  O   UNL     1      33.431  30.602  44.616  0.00  0.00    +0.000 OA
BRANCH  25  27
ATOM     27  C   UNL     1      31.908  29.122  45.560  0.00  0.00    +0.000 A 
ATOM     28  C   UNL     1      30.973  30.034  46.053  0.00  0.00    +0.000 A 
ATOM     29  H   UNL     1      30.902  31.063  46.393  0.00  0.00    +0.000 HD
ATOM     30  S   UNL     1      29.441  29.041  46.072  0.00  0.00    +0.000 S 
ATOM     31  C   UNL     1      30.344  27.525  45.396  0.00  0.00    +0.000 A 
ATOM     32  H   UNL     1      30.116  26.432  45.100  0.00  0.00    +0.000 HD
ATOM     33  N   UNL     1      31.413  27.935  45.293  0.00  0.00    +0.000 NA
ENDBRANCH  25  27
ENDBRANCH  24  25
ENDBRANCH  20  24
ENDBRANCH   6  22
TORSDOF 5
