
 OpenBabel03272500563D

 33 35  0  0  0  0  0  0  0  0999 V2000
   38.1600   31.8850   47.4120 C   0  0  0  0  0  0  0  0  0  0  0  0
   38.6700   32.7870   48.3070 C   0  0  0  0  0  0  0  0  0  0  0  0
   38.2050   32.8590   49.6170 C   0  0  0  0  0  0  0  0  0  0  0  0
   37.1530   31.9400   50.0080 C   0  0  0  0  0  0  0  0  0  0  0  0
   36.6930   31.0700   49.0700 C   0  0  0  0  0  0  0  0  0  0  0  0
   37.1410   31.0050   47.8100 C   0  0  0  0  0  0  0  0  0  0  0  0
   39.4650   33.4950   48.0420 H   0  0  0  0  0  0  0  0  0  0  0  0
   38.6380   33.5890   50.2880 H   0  0  0  0  0  0  0  0  0  0  0  0
   36.8980   32.1080   51.0320 H   0  0  0  0  0  0  0  0  0  0  0  0
   35.9490   30.4770   49.5780 H   0  0  0  0  0  0  0  0  0  0  0  0
   40.0200   31.2540   45.9470 C   0  0  0  0  0  0  0  0  0  0  0  0
   38.7670   31.9140   46.0970 C   0  0  0  0  0  0  0  0  0  0  0  0
   38.2770   32.5010   44.9560 C   0  0  0  0  0  0  0  0  0  0  0  0
   38.9580   32.4350   43.8020 N   0  0  0  0  0  0  0  0  0  0  0  0
   40.1310   31.8100   43.6790 C   0  0  0  0  0  0  0  0  0  0  0  0
   40.6470   31.2280   44.7550 N   0  0  0  0  0  0  0  0  0  0  0  0
   40.4610   30.7670   46.8240 H   0  0  0  0  0  0  0  0  0  0  0  0
   37.3270   33.0020   45.0700 H   0  0  0  0  0  0  0  0  0  0  0  0
   40.7010   31.7420   42.7590 H   0  0  0  0  0  0  0  0  0  0  0  0
   35.1380   30.0290   47.0600 C   0  0  0  0  0  0  0  0  0  0  0  0
   34.5680   30.6690   48.0260 O   0  0  0  0  0  0  0  0  0  0  0  0
   36.6110   30.1250   46.9010 N   0  0  0  0  0  0  0  0  0  0  0  0
   37.0750   29.5530   46.1680 H   0  0  0  0  0  0  0  0  0  0  0  0
   34.4470   29.2220   46.1090 O   0  0  0  0  0  0  0  0  0  0  0  0
   33.0920   29.4040   45.9050 C   0  0  0  0  0  0  0  0  0  0  0  0
   32.8050   30.1730   44.9370 O   0  0  0  0  0  0  0  0  0  0  0  0
   31.9230   28.8540   46.6340 C   0  0  0  0  0  0  0  0  0  0  0  0
   30.6660   29.2860   46.2090 C   0  0  0  0  0  0  0  0  0  0  0  0
   30.2080   29.9400   45.4720 H   0  0  0  0  0  0  0  0  0  0  0  0
   29.5470   28.3870   47.3350 S   0  0  0  0  0  0  0  0  0  0  0  0
   31.0000   27.5590   48.2130 C   0  0  0  0  0  0  0  0  0  0  0  0
   31.1900   26.8130   49.0760 H   0  0  0  0  0  0  0  0  0  0  0  0
   31.8890   28.0040   47.6340 N   0  0  0  0  0  0  0  0  0  0  0  0
  1  6  2  0  0  0  0
  1  2  1  0  0  0  0
  2  3  2  0  0  0  0
  3  4  1  0  0  0  0
  3  8  1  0  0  0  0
  4  9  1  0  0  0  0
  5 10  1  0  0  0  0
  5  4  2  0  0  0  0
  6  5  1  0  0  0  0
  7  2  1  0  0  0  0
 11 12  1  0  0  0  0
 11 17  1  0  0  0  0
 12  1  1  0  0  0  0
 13 18  1  0  0  0  0
 13 12  2  0  0  0  0
 14 13  1  0  0  0  0
 15 14  2  0  0  0  0
 15 16  1  0  0  0  0
 16 11  2  0  0  0  0
 19 15  1  0  0  0  0
 20 21  2  0  0  0  0
 22 20  1  0  0  0  0
 22  6  1  0  0  0  0
 23 22  1  0  0  0  0
 24 20  1  0  0  0  0
 25 24  1  0  0  0  0
 25 27  1  0  0  0  0
 26 25  2  0  0  0  0
 27 33  1  0  0  0  0
 28 27  2  0  0  0  0
 28 30  1  0  0  0  0
 29 28  1  0  0  0  0
 30 31  1  0  0  0  0
 31 32  1  0  0  0  0
 33 31  2  0  0  0  0
M  END
>  <minimizedAffinity>
-5.60211325

>  <minimizedRMSD>
0.803426683

$$$$
