
 OpenBabel03272500563D

 33 35  0  0  0  0  0  0  0  0999 V2000
   38.1000   31.9170   47.4480 C   0  0  0  0  0  0  0  0  0  0  0  0
   38.5670   32.8600   48.3230 C   0  0  0  0  0  0  0  0  0  0  0  0
   38.0810   32.9530   49.6240 C   0  0  0  0  0  0  0  0  0  0  0  0
   37.0560   32.0090   50.0280 C   0  0  0  0  0  0  0  0  0  0  0  0
   36.6380   31.0980   49.1100 C   0  0  0  0  0  0  0  0  0  0  0  0
   37.1060   31.0140   47.8580 C   0  0  0  0  0  0  0  0  0  0  0  0
   39.3410   33.5870   48.0490 H   0  0  0  0  0  0  0  0  0  0  0  0
   38.4800   33.7160   50.2800 H   0  0  0  0  0  0  0  0  0  0  0  0
   36.7820   32.1970   51.0440 H   0  0  0  0  0  0  0  0  0  0  0  0
   35.9080   30.4950   49.6250 H   0  0  0  0  0  0  0  0  0  0  0  0
   39.9910   31.2890   46.0210 C   0  0  0  0  0  0  0  0  0  0  0  0
   38.7240   31.9290   46.1410 C   0  0  0  0  0  0  0  0  0  0  0  0
   38.2390   32.4820   44.9810 C   0  0  0  0  0  0  0  0  0  0  0  0
   38.9360   32.4040   43.8380 N   0  0  0  0  0  0  0  0  0  0  0  0
   40.1220   31.8000   43.7440 C   0  0  0  0  0  0  0  0  0  0  0  0
   40.6350   31.2490   44.8390 N   0  0  0  0  0  0  0  0  0  0  0  0
   40.4290   30.8290   46.9140 H   0  0  0  0  0  0  0  0  0  0  0  0
   37.2780   32.9680   45.0720 H   0  0  0  0  0  0  0  0  0  0  0  0
   40.7060   31.7230   42.8330 H   0  0  0  0  0  0  0  0  0  0  0  0
   35.1400   30.0010   47.0610 C   0  0  0  0  0  0  0  0  0  0  0  0
   34.5250   30.6860   47.9660 O   0  0  0  0  0  0  0  0  0  0  0  0
   36.6190   30.0900   46.9680 N   0  0  0  0  0  0  0  0  0  0  0  0
   37.1160   29.4850   46.2860 H   0  0  0  0  0  0  0  0  0  0  0  0
   34.4940   29.1480   46.1180 O   0  0  0  0  0  0  0  0  0  0  0  0
   33.1170   29.1640   46.0040 C   0  0  0  0  0  0  0  0  0  0  0  0
   32.6820   29.7550   44.9690 O   0  0  0  0  0  0  0  0  0  0  0  0
   32.0680   28.6100   46.8960 C   0  0  0  0  0  0  0  0  0  0  0  0
   30.7450   28.8200   46.5020 C   0  0  0  0  0  0  0  0  0  0  0  0
   30.1690   29.2870   45.7090 H   0  0  0  0  0  0  0  0  0  0  0  0
   29.8110   27.9940   47.8360 S   0  0  0  0  0  0  0  0  0  0  0  0
   31.4030   27.4940   48.7220 C   0  0  0  0  0  0  0  0  0  0  0  0
   31.7330   26.9270   49.6740 H   0  0  0  0  0  0  0  0  0  0  0  0
   32.1960   27.9370   48.0160 N   0  0  0  0  0  0  0  0  0  0  0  0
  1  6  2  0  0  0  0
  1  2  1  0  0  0  0
  2  3  2  0  0  0  0
  3  4  1  0  0  0  0
  3  8  1  0  0  0  0
  4  9  1  0  0  0  0
  5 10  1  0  0  0  0
  5  4  2  0  0  0  0
  6  5  1  0  0  0  0
  7  2  1  0  0  0  0
 11 12  1  0  0  0  0
 11 17  1  0  0  0  0
 12  1  1  0  0  0  0
 13 18  1  0  0  0  0
 13 12  2  0  0  0  0
 14 13  1  0  0  0  0
 15 14  2  0  0  0  0
 15 16  1  0  0  0  0
 16 11  2  0  0  0  0
 19 15  1  0  0  0  0
 20 21  2  0  0  0  0
 22 20  1  0  0  0  0
 22  6  1  0  0  0  0
 23 22  1  0  0  0  0
 24 20  1  0  0  0  0
 25 24  1  0  0  0  0
 25 27  1  0  0  0  0
 26 25  2  0  0  0  0
 27 33  1  0  0  0  0
 28 27  2  0  0  0  0
 28 30  1  0  0  0  0
 29 28  1  0  0  0  0
 30 31  1  0  0  0  0
 31 32  1  0  0  0  0
 33 31  2  0  0  0  0
M  END
>  <minimizedAffinity>
-5.60197401

>  <minimizedRMSD>
1.05530572

$$$$
