
 OpenBabel03272500563D

 33 35  0  0  0  0  0  0  0  0999 V2000
   38.2560   31.9340   47.3960 C   0  0  0  0  0  0  0  0  0  0  0  0
   38.8090   32.8420   48.2600 C   0  0  0  0  0  0  0  0  0  0  0  0
   38.3890   32.9390   49.5830 C   0  0  0  0  0  0  0  0  0  0  0  0
   37.3380   32.0400   50.0230 C   0  0  0  0  0  0  0  0  0  0  0  0
   36.8340   31.1640   49.1140 C   0  0  0  0  0  0  0  0  0  0  0  0
   37.2390   31.0750   47.8400 C   0  0  0  0  0  0  0  0  0  0  0  0
   39.6040   33.5340   47.9580 H   0  0  0  0  0  0  0  0  0  0  0  0
   38.8540   33.6720   50.2290 H   0  0  0  0  0  0  0  0  0  0  0  0
   37.1200   32.2260   51.0530 H   0  0  0  0  0  0  0  0  0  0  0  0
   36.1000   30.5890   49.6550 H   0  0  0  0  0  0  0  0  0  0  0  0
   40.0580   31.2580   45.8800 C   0  0  0  0  0  0  0  0  0  0  0  0
   38.8190   31.9350   46.0610 C   0  0  0  0  0  0  0  0  0  0  0  0
   38.2980   32.5100   44.9280 C   0  0  0  0  0  0  0  0  0  0  0  0
   38.9390   32.4180   43.7530 N   0  0  0  0  0  0  0  0  0  0  0  0
   40.1000   31.7780   43.6010 C   0  0  0  0  0  0  0  0  0  0  0  0
   40.6450   31.2060   44.6690 N   0  0  0  0  0  0  0  0  0  0  0  0
   40.5240   30.7800   46.7490 H   0  0  0  0  0  0  0  0  0  0  0  0
   37.3580   33.0250   45.0660 H   0  0  0  0  0  0  0  0  0  0  0  0
   40.6380   31.6890   42.6640 H   0  0  0  0  0  0  0  0  0  0  0  0
   35.2090   30.0660   47.2170 C   0  0  0  0  0  0  0  0  0  0  0  0
   34.6920   30.6910   48.2210 O   0  0  0  0  0  0  0  0  0  0  0  0
   36.6670   30.1890   46.9630 N   0  0  0  0  0  0  0  0  0  0  0  0
   37.0920   29.6290   46.1980 H   0  0  0  0  0  0  0  0  0  0  0  0
   34.4730   29.2510   46.3080 O   0  0  0  0  0  0  0  0  0  0  0  0
   33.0960   29.3560   46.2490 C   0  0  0  0  0  0  0  0  0  0  0  0
   32.6700   30.2420   45.4460 O   0  0  0  0  0  0  0  0  0  0  0  0
   32.0370   28.6080   46.9720 C   0  0  0  0  0  0  0  0  0  0  0  0
   32.4710   27.7090   47.9480 C   0  0  0  0  0  0  0  0  0  0  0  0
   33.3860   27.3330   48.3970 H   0  0  0  0  0  0  0  0  0  0  0  0
   30.8960   27.0320   48.5750 S   0  0  0  0  0  0  0  0  0  0  0  0
   29.8920   28.1040   47.3850 C   0  0  0  0  0  0  0  0  0  0  0  0
   28.7890   28.3070   47.1090 H   0  0  0  0  0  0  0  0  0  0  0  0
   30.7320   28.6660   46.8370 N   0  0  0  0  0  0  0  0  0  0  0  0
  1  6  2  0  0  0  0
  1  2  1  0  0  0  0
  2  3  2  0  0  0  0
  3  4  1  0  0  0  0
  3  8  1  0  0  0  0
  4  9  1  0  0  0  0
  5 10  1  0  0  0  0
  5  4  2  0  0  0  0
  6  5  1  0  0  0  0
  7  2  1  0  0  0  0
 11 12  1  0  0  0  0
 11 17  1  0  0  0  0
 12  1  1  0  0  0  0
 13 18  1  0  0  0  0
 13 12  2  0  0  0  0
 14 13  1  0  0  0  0
 15 14  2  0  0  0  0
 15 16  1  0  0  0  0
 16 11  2  0  0  0  0
 19 15  1  0  0  0  0
 20 21  2  0  0  0  0
 22 20  1  0  0  0  0
 22  6  1  0  0  0  0
 23 22  1  0  0  0  0
 24 20  1  0  0  0  0
 25 24  1  0  0  0  0
 25 27  1  0  0  0  0
 26 25  2  0  0  0  0
 27 28  2  0  0  0  0
 28 29  1  0  0  0  0
 28 30  1  0  0  0  0
 31 30  1  0  0  0  0
 32 31  1  0  0  0  0
 33 27  1  0  0  0  0
 33 31  2  0  0  0  0
M  END
>  <minimizedAffinity>
-5.69784927

>  <minimizedRMSD>
1.09650075

$$$$
