
 OpenBabel03272500563D

 33 35  0  0  0  0  0  0  0  0999 V2000
   38.1020   31.8950   47.4180 C   0  0  0  0  0  0  0  0  0  0  0  0
   38.5420   32.8290   48.3170 C   0  0  0  0  0  0  0  0  0  0  0  0
   38.0280   32.8990   49.6090 C   0  0  0  0  0  0  0  0  0  0  0  0
   37.0030   31.9400   49.9770 C   0  0  0  0  0  0  0  0  0  0  0  0
   36.6130   31.0390   49.0360 C   0  0  0  0  0  0  0  0  0  0  0  0
   37.1080   30.9770   47.7930 C   0  0  0  0  0  0  0  0  0  0  0  0
   39.3160   33.5670   48.0700 H   0  0  0  0  0  0  0  0  0  0  0  0
   38.4060   33.6550   50.2840 H   0  0  0  0  0  0  0  0  0  0  0  0
   36.7060   32.1110   50.9890 H   0  0  0  0  0  0  0  0  0  0  0  0
   35.8780   30.4220   49.5270 H   0  0  0  0  0  0  0  0  0  0  0  0
   40.0160   31.2810   46.0160 C   0  0  0  0  0  0  0  0  0  0  0  0
   38.7540   31.9320   46.1250 C   0  0  0  0  0  0  0  0  0  0  0  0
   38.2990   32.5180   44.9700 C   0  0  0  0  0  0  0  0  0  0  0  0
   39.0180   32.4610   43.8390 N   0  0  0  0  0  0  0  0  0  0  0  0
   40.2000   31.8460   43.7550 C   0  0  0  0  0  0  0  0  0  0  0  0
   40.6840   31.2630   44.8460 N   0  0  0  0  0  0  0  0  0  0  0  0
   40.4310   30.7950   46.9060 H   0  0  0  0  0  0  0  0  0  0  0  0
   37.3410   33.0120   45.0520 H   0  0  0  0  0  0  0  0  0  0  0  0
   40.8020   31.7840   42.8540 H   0  0  0  0  0  0  0  0  0  0  0  0
   35.1660   29.9860   46.9150 C   0  0  0  0  0  0  0  0  0  0  0  0
   34.5220   30.6700   47.8000 O   0  0  0  0  0  0  0  0  0  0  0  0
   36.6480   30.0630   46.8800 N   0  0  0  0  0  0  0  0  0  0  0  0
   37.1670   29.4570   46.2140 H   0  0  0  0  0  0  0  0  0  0  0  0
   34.5500   29.1440   45.9430 O   0  0  0  0  0  0  0  0  0  0  0  0
   33.4850   29.6150   45.1980 C   0  0  0  0  0  0  0  0  0  0  0  0
   33.7810   30.5470   44.3890 O   0  0  0  0  0  0  0  0  0  0  0  0
   32.0560   29.2140   45.1950 C   0  0  0  0  0  0  0  0  0  0  0  0
   31.1940   29.9920   45.9700 C   0  0  0  0  0  0  0  0  0  0  0  0
   31.2030   30.8560   46.6270 H   0  0  0  0  0  0  0  0  0  0  0  0
   29.5830   29.1810   45.6830 S   0  0  0  0  0  0  0  0  0  0  0  0
   30.3660   27.8970   44.5390 C   0  0  0  0  0  0  0  0  0  0  0  0
   30.0510   26.9830   43.9050 H   0  0  0  0  0  0  0  0  0  0  0  0
   31.4680   28.2260   44.5620 N   0  0  0  0  0  0  0  0  0  0  0  0
  1  6  2  0  0  0  0
  1  2  1  0  0  0  0
  2  3  2  0  0  0  0
  3  4  1  0  0  0  0
  3  8  1  0  0  0  0
  4  9  1  0  0  0  0
  5 10  1  0  0  0  0
  5  4  2  0  0  0  0
  6  5  1  0  0  0  0
  7  2  1  0  0  0  0
 11 12  1  0  0  0  0
 11 17  1  0  0  0  0
 12  1  1  0  0  0  0
 13 18  1  0  0  0  0
 13 12  2  0  0  0  0
 14 13  1  0  0  0  0
 15 14  2  0  0  0  0
 15 16  1  0  0  0  0
 16 11  2  0  0  0  0
 19 15  1  0  0  0  0
 20 21  2  0  0  0  0
 22 20  1  0  0  0  0
 22  6  1  0  0  0  0
 23 22  1  0  0  0  0
 24 20  1  0  0  0  0
 25 24  1  0  0  0  0
 26 25  2  0  0  0  0
 27 25  1  0  0  0  0
 27 28  2  0  0  0  0
 28 29  1  0  0  0  0
 30 28  1  0  0  0  0
 31 33  2  0  0  0  0
 31 30  1  0  0  0  0
 32 31  1  0  0  0  0
 33 27  1  0  0  0  0
M  END
>  <minimizedAffinity>
-5.18769455

>  <minimizedRMSD>
0.289431065

$$$$
