
 OpenBabel03272500563D

 33 35  0  0  0  0  0  0  0  0999 V2000
   38.1450   31.8800   47.4120 C   0  0  0  0  0  0  0  0  0  0  0  0
   38.6530   32.7780   48.3120 C   0  0  0  0  0  0  0  0  0  0  0  0
   38.1810   32.8470   49.6200 C   0  0  0  0  0  0  0  0  0  0  0  0
   37.1240   31.9300   50.0020 C   0  0  0  0  0  0  0  0  0  0  0  0
   36.6660   31.0650   49.0590 C   0  0  0  0  0  0  0  0  0  0  0  0
   37.1210   31.0020   47.8010 C   0  0  0  0  0  0  0  0  0  0  0  0
   39.4520   33.4840   48.0540 H   0  0  0  0  0  0  0  0  0  0  0  0
   38.6120   33.5730   50.2960 H   0  0  0  0  0  0  0  0  0  0  0  0
   36.8640   32.0960   51.0260 H   0  0  0  0  0  0  0  0  0  0  0  0
   35.9170   30.4730   49.5620 H   0  0  0  0  0  0  0  0  0  0  0  0
   40.0140   31.2540   45.9570 C   0  0  0  0  0  0  0  0  0  0  0  0
   38.7590   31.9110   46.1000 C   0  0  0  0  0  0  0  0  0  0  0  0
   38.2730   32.4950   44.9560 C   0  0  0  0  0  0  0  0  0  0  0  0
   38.9600   32.4310   43.8060 N   0  0  0  0  0  0  0  0  0  0  0  0
   40.1360   31.8110   43.6900 C   0  0  0  0  0  0  0  0  0  0  0  0
   40.6490   31.2300   44.7690 N   0  0  0  0  0  0  0  0  0  0  0  0
   40.4530   30.7690   46.8370 H   0  0  0  0  0  0  0  0  0  0  0  0
   37.3200   32.9940   45.0650 H   0  0  0  0  0  0  0  0  0  0  0  0
   40.7120   31.7450   42.7730 H   0  0  0  0  0  0  0  0  0  0  0  0
   35.1200   30.0260   47.0460 C   0  0  0  0  0  0  0  0  0  0  0  0
   34.5480   30.6580   48.0160 O   0  0  0  0  0  0  0  0  0  0  0  0
   36.5930   30.1260   46.8870 N   0  0  0  0  0  0  0  0  0  0  0  0
   37.0570   29.5610   46.1500 H   0  0  0  0  0  0  0  0  0  0  0  0
   34.4310   29.2230   46.0900 O   0  0  0  0  0  0  0  0  0  0  0  0
   33.1180   29.5100   45.7670 C   0  0  0  0  0  0  0  0  0  0  0  0
   32.9790   30.2650   44.7560 O   0  0  0  0  0  0  0  0  0  0  0  0
   31.8490   29.0870   46.4100 C   0  0  0  0  0  0  0  0  0  0  0  0
   30.6880   29.7260   45.9700 C   0  0  0  0  0  0  0  0  0  0  0  0
   30.3630   30.4860   45.2650 H   0  0  0  0  0  0  0  0  0  0  0  0
   29.4000   28.9240   46.9860 S   0  0  0  0  0  0  0  0  0  0  0  0
   30.6780   27.8370   47.8550 C   0  0  0  0  0  0  0  0  0  0  0  0
   30.7200   27.0160   48.6660 H   0  0  0  0  0  0  0  0  0  0  0  0
   31.6470   28.1860   47.3440 N   0  0  0  0  0  0  0  0  0  0  0  0
  1  6  2  0  0  0  0
  1  2  1  0  0  0  0
  2  3  2  0  0  0  0
  3  4  1  0  0  0  0
  3  8  1  0  0  0  0
  4  9  1  0  0  0  0
  5 10  1  0  0  0  0
  5  4  2  0  0  0  0
  6  5  1  0  0  0  0
  7  2  1  0  0  0  0
 11 12  1  0  0  0  0
 11 17  1  0  0  0  0
 12  1  1  0  0  0  0
 13 18  1  0  0  0  0
 13 12  2  0  0  0  0
 14 13  1  0  0  0  0
 15 14  2  0  0  0  0
 15 16  1  0  0  0  0
 16 11  2  0  0  0  0
 19 15  1  0  0  0  0
 20 21  2  0  0  0  0
 22 20  1  0  0  0  0
 22  6  1  0  0  0  0
 23 22  1  0  0  0  0
 24 20  1  0  0  0  0
 25 24  1  0  0  0  0
 25 27  1  0  0  0  0
 26 25  2  0  0  0  0
 27 33  1  0  0  0  0
 28 27  2  0  0  0  0
 28 30  1  0  0  0  0
 29 28  1  0  0  0  0
 30 31  1  0  0  0  0
 31 32  1  0  0  0  0
 33 31  2  0  0  0  0
M  END
>  <minimizedAffinity>
-5.62831259

>  <minimizedRMSD>
0.749480128

$$$$
