REMARK  Name = 
REMARK  6 active torsions:
REMARK  status: ('A' for Active; 'I' for Inactive)
REMARK    1  A    between atoms: C_1  and  C_13
REMARK    2  A    between atoms: C_2  and  O_14
REMARK    3  A    between atoms: C_6  and  C_7
REMARK    4  A    between atoms: O_14  and  C_15
REMARK    5  A    between atoms: C_16  and  N_23
REMARK    6  A    between atoms: C_21  and  C_33
REMARK                            x       y       z     vdW  Elec       q    Type
REMARK                         _______ _______ _______ _____ _____    ______ ____
ROOT
ATOM      1  O   UNL     1      36.821  32.311  49.391  0.00  0.00    +0.000 OA
ENDROOT
BRANCH   1   3
ATOM      2  C   UNL     1      38.268  32.288  47.393  0.00  0.00    +0.000 A 
ATOM      3  C   UNL     1      37.909  32.731  48.659  0.00  0.00    +0.000 A 
ATOM      4  C   UNL     1      38.675  33.684  49.302  0.00  0.00    +0.000 A 
ATOM      5  C   UNL     1      39.804  34.200  48.684  0.00  0.00    +0.000 A 
ATOM      6  C   UNL     1      40.158  33.756  47.424  0.00  0.00    +0.000 A 
ATOM      7  C   UNL     1      39.373  32.807  46.813  0.00  0.00    +0.000 A 
ATOM      8  H   UNL     1      38.455  34.075  50.287  0.00  0.00    +0.000 HD
ATOM      9  H   UNL     1      40.423  34.936  49.144  0.00  0.00    +0.000 HD
ATOM     10  H   UNL     1      41.039  34.158  46.940  0.00  0.00    +0.000 HD
BRANCH   7  11
ATOM     11  C   UNL     1      39.763  32.337  45.458  0.00  0.00    +0.000 A 
ATOM     12  C   UNL     1      40.614  31.324  45.091  0.00  0.00    +0.000 A 
ATOM     13  C   UNL     1      40.640  31.288  43.700  0.00  0.00    +0.000 A 
ATOM     14  C   UNL     1      39.788  32.300  43.304  0.00  0.00    +0.000 A 
ATOM     15  O   UNL     1      39.282  32.906  44.365  0.00  0.00    +0.000 OA
ATOM     16  H   UNL     1      41.128  30.715  45.837  0.00  0.00    +0.000 HD
ATOM     17  H   UNL     1      41.235  30.578  43.136  0.00  0.00    +0.000 HD
ATOM     18  H   UNL     1      39.594  32.528  42.268  0.00  0.00    +0.000 HD
ENDBRANCH   7  11
BRANCH   2  20
ATOM     19  N   UNL     1      36.755  30.519  46.297  0.00  0.00    +0.000 NA
ATOM     20  C   UNL     1      37.428  31.305  46.797  0.00  0.00    +0.000 C 
ENDBRANCH   2  20
ENDBRANCH   1   3
BRANCH   1  21
ATOM     21  C   UNL     1      36.787  31.206  50.163  0.00  0.00    +0.000 A 
ATOM     22  C   UNL     1      35.653  30.425  49.954  0.00  0.00    +0.000 A 
ATOM     23  C   UNL     1      35.434  29.260  50.645  0.00  0.00    +0.000 A 
ATOM     24  N   UNL     1      36.376  28.888  51.554  0.00  0.00    +0.000 NA
ATOM     25  C   UNL     1      37.488  29.657  51.756  0.00  0.00    +0.000 A 
ATOM     26  N   UNL     1      37.669  30.776  51.073  0.00  0.00    +0.000 NA
ATOM     27  H   UNL     1      34.581  28.609  50.534  0.00  0.00    +0.000 HD
ATOM     28  H   UNL     1      38.232  29.354  52.480  0.00  0.00    +0.000 HD
BRANCH  22  31
ATOM     29  C   UNL     1      34.129  29.721  48.147  0.00  0.00    +0.000 C 
ATOM     30  O   UNL     1      34.565  28.515  47.876  0.00  0.00    +0.000 OA
ATOM     31  N   UNL     1      34.623  30.709  49.036  0.00  0.00    +0.000 N 
ATOM     32  H   UNL     1      34.210  31.663  49.001  0.00  0.00    +0.000 HD
BRANCH  29  33
ATOM     33  C   UNL     1      32.902  30.088  47.375  0.00  0.00    +0.000 A 
ATOM     34  C   UNL     1      31.747  29.509  47.796  0.00  0.00    +0.000 A 
ATOM     35  H   UNL     1      31.308  28.829  48.528  0.00  0.00    +0.000 HD
ATOM     36  S   UNL     1      30.446  30.158  46.655  0.00  0.00    +0.000 S 
ATOM     37  C   UNL     1      31.796  31.170  45.746  0.00  0.00    +0.000 A 
ATOM     38  H   UNL     1      32.119  31.983  44.819  0.00  0.00    +0.000 HD
ATOM     39  N   UNL     1      32.719  30.880  46.344  0.00  0.00    +0.000 NA
ENDBRANCH  29  33
ENDBRANCH  22  31
ENDBRANCH   1  21
TORSDOF 6
