
 OpenBabel03272508153D

 28 30  0  0  0  0  0  0  0  0999 V2000
   35.4370   31.6150   49.7830 Cl  0  0  0  0  0  0  0  0  0  0  0  0
   36.5550   31.4530   48.4690 C   0  0  0  0  0  0  0  0  0  0  0  0
   36.3140   30.3610   47.6790 C   0  0  0  0  0  0  0  0  0  0  0  0
   37.1620   30.1430   46.5660 C   0  0  0  0  0  0  0  0  0  0  0  0
   38.1890   30.9840   46.2770 C   0  0  0  0  0  0  0  0  0  0  0  0
   38.4010   32.0750   47.0960 C   0  0  0  0  0  0  0  0  0  0  0  0
   39.7060   33.1850   46.7380 Cl  0  0  0  0  0  0  0  0  0  0  0  0
   37.5870   32.2940   48.1770 C   0  0  0  0  0  0  0  0  0  0  0  0
   37.0500   29.3100   45.8860 H   0  0  0  0  0  0  0  0  0  0  0  0
   38.8530   30.8410   45.4310 H   0  0  0  0  0  0  0  0  0  0  0  0
   35.2700   28.5660   49.0010 C   0  0  0  0  0  0  0  0  0  0  0  0
   35.2840   29.3190   47.7930 C   0  0  0  0  0  0  0  0  0  0  0  0
   34.3480   29.0290   46.8230 C   0  0  0  0  0  0  0  0  0  0  0  0
   33.4510   28.0340   47.0640 N   0  0  0  0  0  0  0  0  0  0  0  0
   33.4630   27.3320   48.2300 C   0  0  0  0  0  0  0  0  0  0  0  0
   34.3680   27.6000   49.1880 N   0  0  0  0  0  0  0  0  0  0  0  0
   35.9690   28.7290   49.8130 H   0  0  0  0  0  0  0  0  0  0  0  0
   34.3730   29.6100   45.9120 H   0  0  0  0  0  0  0  0  0  0  0  0
   32.6700   26.5910   48.2160 H   0  0  0  0  0  0  0  0  0  0  0  0
   37.7970   33.4210   49.0820 C   0  0  0  0  0  0  0  0  0  0  0  0
   37.0570   34.4390   49.2300 O   0  0  0  0  0  0  0  0  0  0  0  0
   39.0140   33.3870   49.9290 C   0  0  0  0  0  0  0  0  0  0  0  0
   39.2990   32.0920   50.6100 C   0  0  0  0  0  0  0  0  0  0  0  0
   38.8640   31.1460   50.6560 H   0  0  0  0  0  0  0  0  0  0  0  0
   40.8070   32.4470   51.5330 S   0  0  0  0  0  0  0  0  0  0  0  0
   40.8480   34.2380   50.8980 C   0  0  0  0  0  0  0  0  0  0  0  0
   41.4850   35.1820   50.9930 H   0  0  0  0  0  0  0  0  0  0  0  0
   39.9180   34.3240   50.2140 N   0  0  0  0  0  0  0  0  0  0  0  0
  2  1  1  0  0  0  0
  3 12  1  0  0  0  0
  3  2  2  0  0  0  0
  4  3  1  0  0  0  0
  5  4  2  0  0  0  0
  5  6  1  0  0  0  0
  6  8  2  0  0  0  0
  7  6  1  0  0  0  0
  8  2  1  0  0  0  0
  8 20  1  0  0  0  0
  9  4  1  0  0  0  0
 10  5  1  0  0  0  0
 11 16  1  0  0  0  0
 11 17  1  0  0  0  0
 12 11  2  0  0  0  0
 13 14  2  0  0  0  0
 13 12  1  0  0  0  0
 14 15  1  0  0  0  0
 15 16  2  0  0  0  0
 18 13  1  0  0  0  0
 19 15  1  0  0  0  0
 20 21  2  0  0  0  0
 20 22  1  0  0  0  0
 22 28  1  0  0  0  0
 22 23  2  0  0  0  0
 23 24  1  0  0  0  0
 23 25  1  0  0  0  0
 26 27  1  0  0  0  0
 26 25  1  0  0  0  0
 28 26  2  0  0  0  0
M  END
>  <minimizedAffinity>
4.20410681

>  <minimizedRMSD>
1.21803331

$$$$
