
 OpenBabel03272507403D

 39 42  0  0  0  0  0  0  0  0999 V2000
   36.7860   32.2810   49.2510 O   0  0  0  0  0  0  0  0  0  0  0  0
   38.2580   32.2550   47.2710 C   0  0  0  0  0  0  0  0  0  0  0  0
   37.8900   32.6920   48.5370 C   0  0  0  0  0  0  0  0  0  0  0  0
   38.6620   33.6270   49.1990 C   0  0  0  0  0  0  0  0  0  0  0  0
   39.8060   34.1320   48.6000 C   0  0  0  0  0  0  0  0  0  0  0  0
   40.1690   33.6940   47.3400 C   0  0  0  0  0  0  0  0  0  0  0  0
   39.3780   32.7630   46.7100 C   0  0  0  0  0  0  0  0  0  0  0  0
   38.4350   34.0120   50.1850 H   0  0  0  0  0  0  0  0  0  0  0  0
   40.4300   34.8540   49.0750 H   0  0  0  0  0  0  0  0  0  0  0  0
   41.0620   34.0880   46.8710 H   0  0  0  0  0  0  0  0  0  0  0  0
   39.7780   32.3000   45.3560 C   0  0  0  0  0  0  0  0  0  0  0  0
   40.6050   31.2670   44.9890 C   0  0  0  0  0  0  0  0  0  0  0  0
   40.6550   31.2490   43.5990 C   0  0  0  0  0  0  0  0  0  0  0  0
   39.8410   32.2920   43.2020 C   0  0  0  0  0  0  0  0  0  0  0  0
   39.3340   32.8990   44.2630 O   0  0  0  0  0  0  0  0  0  0  0  0
   41.0870   30.6330   45.7360 H   0  0  0  0  0  0  0  0  0  0  0  0
   41.2380   30.5300   43.0350 H   0  0  0  0  0  0  0  0  0  0  0  0
   39.6720   32.5400   42.1660 H   0  0  0  0  0  0  0  0  0  0  0  0
   36.7330   30.5200   46.1390 N   0  0  0  0  0  0  0  0  0  0  0  0
   37.4110   31.2910   46.6550 C   0  0  0  0  0  0  0  0  0  0  0  0
   36.7580   31.2320   50.0980 C   0  0  0  0  0  0  0  0  0  0  0  0
   35.7260   30.3370   49.8290 C   0  0  0  0  0  0  0  0  0  0  0  0
   35.5290   29.2060   50.5800 C   0  0  0  0  0  0  0  0  0  0  0  0
   36.3890   28.9840   51.6100 N   0  0  0  0  0  0  0  0  0  0  0  0
   37.4020   29.8650   51.8710 C   0  0  0  0  0  0  0  0  0  0  0  0
   37.5640   30.9480   51.1280 N   0  0  0  0  0  0  0  0  0  0  0  0
   34.7520   28.4720   50.4280 H   0  0  0  0  0  0  0  0  0  0  0  0
   38.0810   29.6810   52.6920 H   0  0  0  0  0  0  0  0  0  0  0  0
   34.3360   29.3340   48.0550 C   0  0  0  0  0  0  0  0  0  0  0  0
   34.7520   28.0910   48.0520 O   0  0  0  0  0  0  0  0  0  0  0  0
   34.7870   30.4620   48.7860 N   0  0  0  0  0  0  0  0  0  0  0  0
   34.4110   31.4000   48.5390 H   0  0  0  0  0  0  0  0  0  0  0  0
   33.1910   29.5720   47.1220 C   0  0  0  0  0  0  0  0  0  0  0  0
   32.2880   28.5600   47.0310 C   0  0  0  0  0  0  0  0  0  0  0  0
   32.0310   27.5630   47.3870 H   0  0  0  0  0  0  0  0  0  0  0  0
   31.0250   29.1600   45.8200 S   0  0  0  0  0  0  0  0  0  0  0  0
   32.0180   30.7890   45.6430 C   0  0  0  0  0  0  0  0  0  0  0  0
   32.1480   31.9410   45.1140 H   0  0  0  0  0  0  0  0  0  0  0  0
   32.8830   30.5920   46.3560 N   0  0  0  0  0  0  0  0  0  0  0  0
  1 21  1  0  0  0  0
  2  3  1  0  0  0  0
  3  4  2  0  0  0  0
  3  1  1  0  0  0  0
  4  8  1  0  0  0  0
  5  9  1  0  0  0  0
  5  4  1  0  0  0  0
  6  5  2  0  0  0  0
  7  2  2  0  0  0  0
  7  6  1  0  0  0  0
 10  6  1  0  0  0  0
 11  7  1  0  0  0  0
 12 11  2  0  0  0  0
 12 16  1  0  0  0  0
 13 12  1  0  0  0  0
 14 13  2  0  0  0  0
 14 15  1  0  0  0  0
 15 11  1  0  0  0  0
 17 13  1  0  0  0  0
 18 14  1  0  0  0  0
 19 20  3  0  0  0  0
 20  2  1  0  0  0  0
 21 26  1  0  0  0  0
 22 21  2  0  0  0  0
 22 23  1  0  0  0  0
 23 24  2  0  0  0  0
 24 25  1  0  0  0  0
 25 28  1  0  0  0  0
 26 25  2  0  0  0  0
 27 23  1  0  0  0  0
 29 31  1  0  0  0  0
 30 29  2  0  0  0  0
 31 22  1  0  0  0  0
 32 31  1  0  0  0  0
 33 29  1  0  0  0  0
 34 33  2  0  0  0  0
 34 35  1  0  0  0  0
 36 34  1  0  0  0  0
 37 36  1  0  0  0  0
 37 39  2  0  0  0  0
 38 37  1  0  0  0  0
 39 33  1  0  0  0  0
M  END
>  <minimizedAffinity>
-6.02054691

>  <minimizedRMSD>
0.393311352

$$$$
