
 OpenBabel03272508153D

 28 30  0  0  0  0  0  0  0  0999 V2000
   35.2520   29.9390   43.8020 Cl  0  0  0  0  0  0  0  0  0  0  0  0
   36.9280   29.5590   43.5830 C   0  0  0  0  0  0  0  0  0  0  0  0
   37.1400   28.3550   42.9680 C   0  0  0  0  0  0  0  0  0  0  0  0
   38.4760   27.9550   42.7280 C   0  0  0  0  0  0  0  0  0  0  0  0
   39.5300   28.7320   43.0910 C   0  0  0  0  0  0  0  0  0  0  0  0
   39.2780   29.9410   43.7090 C   0  0  0  0  0  0  0  0  0  0  0  0
   40.6150   30.9710   44.1720 Cl  0  0  0  0  0  0  0  0  0  0  0  0
   37.9870   30.3370   43.9480 C   0  0  0  0  0  0  0  0  0  0  0  0
   38.7420   27.0230   42.2490 H   0  0  0  0  0  0  0  0  0  0  0  0
   40.5630   28.4490   42.9190 H   0  0  0  0  0  0  0  0  0  0  0  0
   35.8650   26.2930   43.3980 C   0  0  0  0  0  0  0  0  0  0  0  0
   36.1760   27.3500   42.4970 C   0  0  0  0  0  0  0  0  0  0  0  0
   35.5650   27.3660   41.2610 C   0  0  0  0  0  0  0  0  0  0  0  0
   34.6910   26.3670   40.9580 N   0  0  0  0  0  0  0  0  0  0  0  0
   34.4140   25.3710   41.8410 C   0  0  0  0  0  0  0  0  0  0  0  0
   34.9990   25.3390   43.0510 N   0  0  0  0  0  0  0  0  0  0  0  0
   36.2990   26.2060   44.3870 H   0  0  0  0  0  0  0  0  0  0  0  0
   35.8120   28.1760   40.5890 H   0  0  0  0  0  0  0  0  0  0  0  0
   33.6960   24.6850   41.4020 H   0  0  0  0  0  0  0  0  0  0  0  0
   37.6820   31.5950   44.6230 C   0  0  0  0  0  0  0  0  0  0  0  0
   37.2880   32.6770   44.0950 O   0  0  0  0  0  0  0  0  0  0  0  0
   37.8500   31.6270   46.0970 C   0  0  0  0  0  0  0  0  0  0  0  0
   36.9540   30.7260   46.8770 C   0  0  0  0  0  0  0  0  0  0  0  0
   36.2030   30.0330   46.6660 H   0  0  0  0  0  0  0  0  0  0  0  0
   37.4390   31.0540   48.5810 S   0  0  0  0  0  0  0  0  0  0  0  0
   38.7430   32.3230   48.0320 C   0  0  0  0  0  0  0  0  0  0  0  0
   39.5230   33.0240   48.4880 H   0  0  0  0  0  0  0  0  0  0  0  0
   38.6650   32.3360   46.8770 N   0  0  0  0  0  0  0  0  0  0  0  0
  2  1  1  0  0  0  0
  2  8  1  0  0  0  0
  3  2  2  0  0  0  0
  4  3  1  0  0  0  0
  4  5  2  0  0  0  0
  5  6  1  0  0  0  0
  6  8  2  0  0  0  0
  6  7  1  0  0  0  0
  8 20  1  0  0  0  0
  9  4  1  0  0  0  0
 10  5  1  0  0  0  0
 11 17  1  0  0  0  0
 12  3  1  0  0  0  0
 12 11  2  0  0  0  0
 13 12  1  0  0  0  0
 14 13  2  0  0  0  0
 14 15  1  0  0  0  0
 15 16  2  0  0  0  0
 16 11  1  0  0  0  0
 18 13  1  0  0  0  0
 19 15  1  0  0  0  0
 20 22  1  0  0  0  0
 21 20  2  0  0  0  0
 22 23  2  0  0  0  0
 22 28  1  0  0  0  0
 23 25  1  0  0  0  0
 24 23  1  0  0  0  0
 26 27  1  0  0  0  0
 26 25  1  0  0  0  0
 28 26  2  0  0  0  0
M  END
>  <minimizedAffinity>
-3.65730429

>  <minimizedRMSD>
5.55256128

$$$$
