
 OpenBabel03272507273D

 37 39  0  0  1  0  0  0  0  0999 V2000
   37.7850   31.2420   49.3540 C   0  0  0  0  0  0  0  0  0  0  0  0
   38.6160   31.7530   48.3350 C   0  0  0  0  0  0  0  0  0  0  0  0
   38.1650   31.6320   47.0120 C   0  0  0  0  0  0  0  0  0  0  0  0
   36.9830   31.0440   46.7920 N   0  0  0  0  0  0  0  0  0  0  0  0
   36.2090   30.5650   47.7930 C   0  0  0  0  0  0  0  0  0  0  0  0
   36.6170   30.6680   49.0580 N   0  0  0  0  0  0  0  0  0  0  0  0
   38.9430   32.1180   45.9520 N   0  0  0  0  0  0  0  0  0  0  0  0
   39.8790   33.2420   46.0230 C   0  0  0  0  0  0  0  0  0  0  0  0
   40.3240   33.5420   44.6330 C   0  0  0  0  0  0  0  0  0  0  0  0
   39.2790   32.8960   43.8170 C   0  0  0  0  0  0  0  0  0  0  0  0
   39.0050   31.6450   44.5990 C   0  0  2  0  0  0  0  0  0  0  0  0
   38.1400   31.3410   50.3630 H   0  0  0  0  0  0  0  0  0  0  0  0
   39.5600   32.2200   48.5280 H   0  0  0  0  0  0  0  0  0  0  0  0
   35.2570   30.0950   47.5760 H   0  0  0  0  0  0  0  0  0  0  0  0
   39.3940   34.0980   46.5350 H   0  0  0  0  0  0  0  0  0  0  0  0
   40.7500   32.8620   46.6280 H   0  0  0  0  0  0  0  0  0  0  0  0
   40.3010   34.6680   44.5350 H   0  0  0  0  0  0  0  0  0  0  0  0
   41.3570   33.2680   44.3830 H   0  0  0  0  0  0  0  0  0  0  0  0
   39.5790   32.6850   42.7680 H   0  0  0  0  0  0  0  0  0  0  0  0
   38.3610   33.4990   43.7990 H   0  0  0  0  0  0  0  0  0  0  0  0
   37.8590   30.8540   44.0920 C   0  0  0  0  0  0  0  0  0  0  0  0
   36.7120   31.5390   44.4890 F   0  0  0  0  0  0  0  0  0  0  0  0
   37.7460   29.5770   44.5300 F   0  0  0  0  0  0  0  0  0  0  0  0
   37.8960   30.9550   42.7120 F   0  0  0  0  0  0  0  0  0  0  0  0
   40.2160   30.7810   44.5290 C   0  0  0  0  0  0  0  0  0  0  0  0
   40.1010   30.0860   45.4090 H   0  0  0  0  0  0  0  0  0  0  0  0
   41.0820   31.4440   44.8370 H   0  0  0  0  0  0  0  0  0  0  0  0
   40.4130   30.4850   43.3500 O   0  0  0  0  0  0  0  0  0  0  0  0
   40.6320   29.4000   42.5770 C   0  0  0  0  0  0  0  0  0  0  0  0
   41.7040   29.6040   41.8920 O   0  0  0  0  0  0  0  0  0  0  0  0
   40.0560   28.0560   42.2580 C   0  0  0  0  0  0  0  0  0  0  0  0
   40.2160   27.7230   40.8700 C   0  0  0  0  0  0  0  0  0  0  0  0
   40.5780   28.0210   39.9100 H   0  0  0  0  0  0  0  0  0  0  0  0
   39.4800   26.1360   40.7830 S   0  0  0  0  0  0  0  0  0  0  0  0
   39.0290   26.0720   42.6140 C   0  0  0  0  0  0  0  0  0  0  0  0
   38.5570   25.4730   43.4300 H   0  0  0  0  0  0  0  0  0  0  0  0
   39.4480   27.0970   42.9150 N   0  0  0  0  0  0  0  0  0  0  0  0
  1 12  1  0  0  0  0
  2 13  1  0  0  0  0
  2  1  2  0  0  0  0
  3  2  1  0  0  0  0
  4  3  2  0  0  0  0
  4  5  1  0  0  0  0
  5  6  2  0  0  0  0
  6  1  1  0  0  0  0
  7  8  1  0  0  0  0
  7  3  1  0  0  0  0
  8 15  1  0  0  0  0
  8 16  1  0  0  0  0
  9  8  1  0  0  0  0
 10 11  1  0  0  0  0
 10  9  1  0  0  0  0
 11 21  1  6  0  0  0
 11  7  1  0  0  0  0
 14  5  1  0  0  0  0
 17  9  1  0  0  0  0
 18  9  1  0  0  0  0
 19 10  1  0  0  0  0
 20 10  1  0  0  0  0
 21 22  1  0  0  0  0
 21 23  1  0  0  0  0
 24 21  1  0  0  0  0
 25 11  1  0  0  0  0
 25 27  1  0  0  0  0
 25 26  1  0  0  0  0
 28 25  1  0  0  0  0
 29 28  1  0  0  0  0
 30 29  2  0  0  0  0
 31 29  1  0  0  0  0
 31 37  1  0  0  0  0
 32 31  2  0  0  0  0
 33 32  1  0  0  0  0
 34 32  1  0  0  0  0
 34 35  1  0  0  0  0
 35 37  2  0  0  0  0
 35 36  1  0  0  0  0
M  END
>  <minimizedAffinity>
-5.17733622

>  <minimizedRMSD>
1.76342297

$$$$
