
 OpenBabel03272507273D

 37 39  0  0  1  0  0  0  0  0999 V2000
   36.7560   29.9580   49.3250 C   0  0  0  0  0  0  0  0  0  0  0  0
   37.7570   30.6280   48.5920 C   0  0  0  0  0  0  0  0  0  0  0  0
   37.4960   30.8980   47.2390 C   0  0  0  0  0  0  0  0  0  0  0  0
   36.3230   30.5090   46.7260 N   0  0  0  0  0  0  0  0  0  0  0  0
   35.3830   29.8680   47.4590 C   0  0  0  0  0  0  0  0  0  0  0  0
   35.6090   29.6010   48.7450 N   0  0  0  0  0  0  0  0  0  0  0  0
   38.4500   31.5590   46.4530 N   0  0  0  0  0  0  0  0  0  0  0  0
   39.4360   32.5270   46.9390 C   0  0  0  0  0  0  0  0  0  0  0  0
   40.0970   33.1280   45.7460 C   0  0  0  0  0  0  0  0  0  0  0  0
   39.1410   32.8240   44.6640 C   0  0  0  0  0  0  0  0  0  0  0  0
   38.6760   31.4480   45.0420 C   0  0  2  0  0  0  0  0  0  0  0  0
   36.9670   29.7560   50.3590 H   0  0  0  0  0  0  0  0  0  0  0  0
   38.6920   30.9320   49.0170 H   0  0  0  0  0  0  0  0  0  0  0  0
   34.4440   29.5690   47.0080 H   0  0  0  0  0  0  0  0  0  0  0  0
   38.9380   33.2670   47.5990 H   0  0  0  0  0  0  0  0  0  0  0  0
   40.1830   31.9180   47.5210 H   0  0  0  0  0  0  0  0  0  0  0  0
   40.1610   34.2380   45.9530 H   0  0  0  0  0  0  0  0  0  0  0  0
   41.1340   32.8260   45.5600 H   0  0  0  0  0  0  0  0  0  0  0  0
   39.5760   32.8610   43.6420 H   0  0  0  0  0  0  0  0  0  0  0  0
   38.2770   33.5010   44.6970 H   0  0  0  0  0  0  0  0  0  0  0  0
   37.5670   30.9340   44.2030 C   0  0  0  0  0  0  0  0  0  0  0  0
   36.4290   31.6370   44.5960 F   0  0  0  0  0  0  0  0  0  0  0  0
   37.2840   29.6130   44.2940 F   0  0  0  0  0  0  0  0  0  0  0  0
   37.8340   31.3460   42.9090 F   0  0  0  0  0  0  0  0  0  0  0  0
   39.8270   30.5130   44.8900 C   0  0  0  0  0  0  0  0  0  0  0  0
   39.5960   29.6840   45.6180 H   0  0  0  0  0  0  0  0  0  0  0  0
   40.7100   31.0380   45.3690 H   0  0  0  0  0  0  0  0  0  0  0  0
   40.0920   30.4170   43.6910 O   0  0  0  0  0  0  0  0  0  0  0  0
   40.3760   29.4770   42.7660 C   0  0  0  0  0  0  0  0  0  0  0  0
   41.3530   29.9060   42.0430 O   0  0  0  0  0  0  0  0  0  0  0  0
   39.9450   28.1190   42.3080 C   0  0  0  0  0  0  0  0  0  0  0  0
   40.2070   27.9200   40.9090 C   0  0  0  0  0  0  0  0  0  0  0  0
   40.5880   28.3300   40.0000 H   0  0  0  0  0  0  0  0  0  0  0  0
   39.6270   26.2870   40.6540 S   0  0  0  0  0  0  0  0  0  0  0  0
   39.0910   26.0300   42.4450 C   0  0  0  0  0  0  0  0  0  0  0  0
   38.6340   25.3240   43.1810 H   0  0  0  0  0  0  0  0  0  0  0  0
   39.3960   27.0580   42.8490 N   0  0  0  0  0  0  0  0  0  0  0  0
  1 12  1  0  0  0  0
  2 13  1  0  0  0  0
  2  1  2  0  0  0  0
  3  2  1  0  0  0  0
  4  3  2  0  0  0  0
  4  5  1  0  0  0  0
  5  6  2  0  0  0  0
  6  1  1  0  0  0  0
  7  8  1  0  0  0  0
  7  3  1  0  0  0  0
  8 16  1  0  0  0  0
  8 15  1  0  0  0  0
  9 17  1  0  0  0  0
  9  8  1  0  0  0  0
 10 20  1  0  0  0  0
 10 11  1  0  0  0  0
 10  9  1  0  0  0  0
 11 21  1  6  0  0  0
 11  7  1  0  0  0  0
 14  5  1  0  0  0  0
 18  9  1  0  0  0  0
 19 10  1  0  0  0  0
 21 23  1  0  0  0  0
 21 22  1  0  0  0  0
 24 21  1  0  0  0  0
 25 11  1  0  0  0  0
 25 27  1  0  0  0  0
 25 26  1  0  0  0  0
 28 25  1  0  0  0  0
 29 28  1  0  0  0  0
 30 29  2  0  0  0  0
 31 29  1  0  0  0  0
 31 37  1  0  0  0  0
 32 31  2  0  0  0  0
 33 32  1  0  0  0  0
 34 32  1  0  0  0  0
 34 35  1  0  0  0  0
 35 37  2  0  0  0  0
 35 36  1  0  0  0  0
M  END
>  <minimizedAffinity>
-5.04702282

>  <minimizedRMSD>
1.55972254

$$$$
