REMARK  Name = 
REMARK  3 active torsions:
REMARK  status: ('A' for Active; 'I' for Inactive)
REMARK    1  A    between atoms: C_1  and  C_8
REMARK    2  A    between atoms: C_3  and  N_12
REMARK    3  A    between atoms: C_10  and  C_21
REMARK                            x       y       z     vdW  Elec       q    Type
REMARK                         _______ _______ _______ _____ _____    ______ ____
ROOT
ATOM      1  C   UNL     1      38.372  30.588  47.096  0.00  0.00    +0.000 C 
ATOM      2  C   UNL     1      36.979  30.554  47.521  0.00  0.00    +0.000 C 
ATOM      3  C   UNL     1      38.087  31.131  48.422  0.00  0.00    +0.000 C 
ATOM      4  H   UNL     1      38.987  29.628  47.116  0.00  0.00    +0.000 HD
ATOM      5  H   UNL     1      36.242  31.270  47.074  0.00  0.00    +0.000 HD
ATOM      6  H   UNL     1      36.507  29.646  47.888  0.00  0.00    +0.000 HD
ATOM      7  H   UNL     1      37.844  32.169  48.688  0.00  0.00    +0.000 HD
ENDROOT
BRANCH   1  12
ATOM      8  C   UNL     1      40.607  32.685  45.022  0.00  0.00    +0.000 A 
ATOM      9  C   UNL     1      39.727  33.187  44.028  0.00  0.00    +0.000 A 
ATOM     10  C   UNL     1      38.353  32.778  44.106  0.00  0.00    +0.000 A 
ATOM     11  N   UNL     1      37.966  31.947  45.105  0.00  0.00    +0.000 NA
ATOM     12  C   UNL     1      38.864  31.503  46.025  0.00  0.00    +0.000 A 
ATOM     13  N   UNL     1      40.172  31.849  46.010  0.00  0.00    +0.000 NA
ATOM     14  H   UNL     1      41.621  33.039  44.894  0.00  0.00    +0.000 HD
ATOM     15  H   UNL     1      40.058  33.837  43.256  0.00  0.00    +0.000 HD
ATOM     16  H   UNL     1      37.645  33.126  43.383  0.00  0.00    +0.000 HD
ENDBRANCH   1  12
BRANCH   3  19
ATOM     17  C   UNL     1      37.701  30.537  50.788  0.00  0.00    +0.000 C 
ATOM     18  O   UNL     1      36.736  31.340  50.805  0.00  0.00    +0.000 OA
ATOM     19  N   UNL     1      38.410  30.273  49.566  0.00  0.00    +0.000 N 
ATOM     20  H   UNL     1      39.095  29.506  49.560  0.00  0.00    +0.000 HD
BRANCH  17  21
ATOM     21  C   UNL     1      38.128  29.847  52.029  0.00  0.00    +0.000 A 
ATOM     22  C   UNL     1      38.874  30.692  52.996  0.00  0.00    +0.000 A 
ATOM     23  H   UNL     1      39.160  31.660  52.988  0.00  0.00    +0.000 HD
ATOM     24  S   UNL     1      39.201  29.562  54.296  0.00  0.00    +0.000 S 
ATOM     25  C   UNL     1      38.326  28.112  53.431  0.00  0.00    +0.000 A 
ATOM     26  H   UNL     1      38.142  27.076  53.676  0.00  0.00    +0.000 HD
ATOM     27  N   UNL     1      37.889  28.583  52.300  0.00  0.00    +0.000 NA
ENDBRANCH  17  21
ENDBRANCH   3  19
TORSDOF 3
