
 OpenBabel03272508503D

 27 29  0  0  1  0  0  0  0  0999 V2000
   39.7480   32.0510   46.3570 C   0  0  2  0  0  0  0  0  0  0  0  0
   40.1710   33.3070   45.7510 C   0  0  0  0  0  0  0  0  0  0  0  0
   39.1870   32.3560   45.0430 C   0  0  1  0  0  0  0  0  0  0  0  0
   40.4610   31.1610   46.3550 H   0  0  0  0  0  0  0  0  0  0  0  0
   39.7700   34.2770   46.1430 H   0  0  0  0  0  0  0  0  0  0  0  0
   41.1370   33.4200   45.2660 H   0  0  0  0  0  0  0  0  0  0  0  0
   38.2540   32.8910   44.8160 H   0  0  0  0  0  0  0  0  0  0  0  0
   37.2720   30.8460   48.8290 C   0  0  0  0  0  0  0  0  0  0  0  0
   37.1900   31.9310   49.7400 C   0  0  0  0  0  0  0  0  0  0  0  0
   38.0120   33.0770   49.4660 C   0  0  0  0  0  0  0  0  0  0  0  0
   38.8130   33.0700   48.3720 N   0  0  0  0  0  0  0  0  0  0  0  0
   38.8420   31.9940   47.5410 C   0  0  0  0  0  0  0  0  0  0  0  0
   38.0940   30.8840   47.7390 N   0  0  0  0  0  0  0  0  0  0  0  0
   36.6240   30.0250   49.1040 H   0  0  0  0  0  0  0  0  0  0  0  0
   36.5530   31.9090   50.5900 H   0  0  0  0  0  0  0  0  0  0  0  0
   37.9900   33.9240   50.1190 H   0  0  0  0  0  0  0  0  0  0  0  0
   39.2850   30.3340   43.6280 C   0  0  0  0  0  0  0  0  0  0  0  0
   38.2800   29.8910   44.2370 O   0  0  0  0  0  0  0  0  0  0  0  0
   39.7780   31.6570   43.8980 N   0  0  0  0  0  0  0  0  0  0  0  0
   40.5070   32.0370   43.2810 H   0  0  0  0  0  0  0  0  0  0  0  0
   39.9830   29.5000   42.6210 C   0  0  0  0  0  0  0  0  0  0  0  0
   39.1570   28.4290   42.0060 C   0  0  0  0  0  0  0  0  0  0  0  0
   38.1970   28.1420   42.1310 H   0  0  0  0  0  0  0  0  0  0  0  0
   40.2900   27.6780   40.9000 S   0  0  0  0  0  0  0  0  0  0  0  0
   41.7180   28.8470   41.3640 C   0  0  0  0  0  0  0  0  0  0  0  0
   42.7470   28.9550   41.0540 H   0  0  0  0  0  0  0  0  0  0  0  0
   41.2380   29.6560   42.2630 N   0  0  0  0  0  0  0  0  0  0  0  0
  1  4  1  6  0  0  0
  1 12  1  0  0  0  0
  2  5  1  0  0  0  0
  2  1  1  0  0  0  0
  3  7  1  6  0  0  0
  3  2  1  0  0  0  0
  3  1  1  0  0  0  0
  6  2  1  0  0  0  0
  8 14  1  0  0  0  0
  8  9  1  0  0  0  0
  9 15  1  0  0  0  0
 10  9  2  0  0  0  0
 10 16  1  0  0  0  0
 11 10  1  0  0  0  0
 12 13  1  0  0  0  0
 12 11  2  0  0  0  0
 13  8  2  0  0  0  0
 17 19  1  0  0  0  0
 17 18  2  0  0  0  0
 19  3  1  0  0  0  0
 20 19  1  0  0  0  0
 21 17  1  0  0  0  0
 22 23  1  0  0  0  0
 22 21  2  0  0  0  0
 24 25  1  0  0  0  0
 24 22  1  0  0  0  0
 25 27  2  0  0  0  0
 26 25  1  0  0  0  0
 27 21  1  0  0  0  0
M  END
>  <minimizedAffinity>
-4.86525536

>  <minimizedRMSD>
7.53894806

$$$$
