REMARK  Name = 
REMARK  3 active torsions:
REMARK  status: ('A' for Active; 'I' for Inactive)
REMARK    1  A    between atoms: C_1  and  C_7
REMARK    2  A    between atoms: C_6  and  N_15
REMARK    3  A    between atoms: C_13  and  C_30
REMARK                            x       y       z     vdW  Elec       q    Type
REMARK                         _______ _______ _______ _____ _____    ______ ____
ROOT
ATOM      1  C   UNL     1      36.077  30.687  49.068  0.00  0.00    +0.000 C 
ATOM      2  C   UNL     1      37.016  31.642  49.743  0.00  0.00    +0.000 C 
ATOM      3  C   UNL     1      38.047  30.944  50.603  0.00  0.00    +0.000 C 
ATOM      4  C   UNL     1      37.358  30.070  51.652  0.00  0.00    +0.000 C 
ATOM      5  C   UNL     1      36.120  29.377  51.152  0.00  0.00    +0.000 C 
ATOM      6  C   UNL     1      36.199  29.306  49.615  0.00  0.00    +0.000 C 
ATOM      7  H   UNL     1      34.985  30.994  49.156  0.00  0.00    +0.000 HD
ATOM      8  H   UNL     1      37.449  32.414  49.138  0.00  0.00    +0.000 HD
ATOM      9  H   UNL     1      36.359  32.178  50.509  0.00  0.00    +0.000 HD
ATOM     10  H   UNL     1      38.611  31.729  51.115  0.00  0.00    +0.000 HD
ATOM     11  H   UNL     1      38.719  30.286  50.042  0.00  0.00    +0.000 HD
ATOM     12  H   UNL     1      37.058  30.770  52.465  0.00  0.00    +0.000 HD
ATOM     13  H   UNL     1      38.117  29.373  52.067  0.00  0.00    +0.000 HD
ATOM     14  H   UNL     1      35.186  29.883  51.399  0.00  0.00    +0.000 HD
ATOM     15  H   UNL     1      36.137  28.318  51.483  0.00  0.00    +0.000 HD
ATOM     16  H   UNL     1      37.186  28.928  49.497  0.00  0.00    +0.000 HD
ENDROOT
BRANCH   1  17
ATOM     17  C   UNL     1      36.316  30.646  47.602  0.00  0.00    +0.000 A 
ATOM     18  C   UNL     1      37.577  31.111  47.179  0.00  0.00    +0.000 A 
ATOM     19  C   UNL     1      37.827  31.079  45.802  0.00  0.00    +0.000 A 
ATOM     20  N   UNL     1      36.846  30.604  44.960  0.00  0.00    +0.000 NA
ATOM     21  C   UNL     1      35.636  30.163  45.425  0.00  0.00    +0.000 A 
ATOM     22  N   UNL     1      35.392  30.193  46.751  0.00  0.00    +0.000 NA
ATOM     23  H   UNL     1      38.421  31.492  47.720  0.00  0.00    +0.000 HD
ATOM     24  H   UNL     1      38.742  31.401  45.334  0.00  0.00    +0.000 HD
ATOM     25  H   UNL     1      34.911  29.802  44.709  0.00  0.00    +0.000 HD
ENDBRANCH   1  17
BRANCH   6  28
ATOM     26  C   UNL     1      33.943  28.165  49.239  0.00  0.00    +0.000 C 
ATOM     27  O   UNL     1      33.123  28.893  49.918  0.00  0.00    +0.000 OA
ATOM     28  N   UNL     1      35.330  28.358  49.018  0.00  0.00    +0.000 N 
ATOM     29  H   UNL     1      35.761  27.695  48.296  0.00  0.00    +0.000 HD
BRANCH  26  30
ATOM     30  C   UNL     1      33.283  26.973  48.627  0.00  0.00    +0.000 A 
ATOM     31  C   UNL     1      32.376  26.268  49.555  0.00  0.00    +0.000 A 
ATOM     32  H   UNL     1      32.002  26.294  50.542  0.00  0.00    +0.000 HD
ATOM     33  S   UNL     1      31.770  24.875  48.430  0.00  0.00    +0.000 S 
ATOM     34  C   UNL     1      32.795  25.474  47.002  0.00  0.00    +0.000 A 
ATOM     35  H   UNL     1      33.088  25.272  45.885  0.00  0.00    +0.000 HD
ATOM     36  N   UNL     1      33.472  26.567  47.382  0.00  0.00    +0.000 NA
ENDBRANCH  26  30
ENDBRANCH   6  28
TORSDOF 3
