
     RDKit          3D

 36 38  0  0  0  0  0  0  0  0999 V2000
   36.0772   30.6871   49.0678 C   0  0  2  0  0  0  0  0  0  0  0  0
   37.0162   31.6425   49.7427 C   0  0  0  0  0  0  0  0  0  0  0  0
   38.0474   30.9440   50.6033 C   0  0  0  0  0  0  0  0  0  0  0  0
   37.3575   30.0695   51.6518 C   0  0  0  0  0  0  0  0  0  0  0  0
   36.1196   29.3768   51.1516 C   0  0  0  0  0  0  0  0  0  0  0  0
   36.1994   29.3057   49.6151 C   0  0  1  0  0  0  0  0  0  0  0  0
   36.3157   30.6462   47.6022 C   0  0  0  0  0  0  0  0  0  0  0  0
   37.5772   31.1112   47.1795 C   0  0  0  0  0  0  0  0  0  0  0  0
   37.8274   31.0790   45.8020 C   0  0  0  0  0  0  0  0  0  0  0  0
   36.8463   30.6036   44.9603 N   0  0  0  0  0  0  0  0  0  0  0  0
   35.6365   30.1626   45.4255 C   0  0  0  0  0  0  0  0  0  0  0  0
   35.3915   30.1927   46.7513 N   0  0  0  0  0  0  0  0  0  0  0  0
   33.9434   28.1652   49.2386 C   0  0  0  0  0  0  0  0  0  0  0  0
   33.1226   28.8930   49.9183 O   0  0  0  0  0  0  0  0  0  0  0  0
   35.3301   28.3579   49.0179 N   0  0  0  0  0  0  0  0  0  0  0  0
   34.9848   30.9941   49.1555 H   0  0  0  0  0  0  0  0  0  0  0  0
   37.4489   32.4141   49.1375 H   0  0  0  0  0  0  0  0  0  0  0  0
   36.3592   32.1782   50.5089 H   0  0  0  0  0  0  0  0  0  0  0  0
   38.6107   31.7287   51.1148 H   0  0  0  0  0  0  0  0  0  0  0  0
   38.7190   30.2863   50.0419 H   0  0  0  0  0  0  0  0  0  0  0  0
   37.0582   30.7696   52.4649 H   0  0  0  0  0  0  0  0  0  0  0  0
   38.1171   29.3734   52.0672 H   0  0  0  0  0  0  0  0  0  0  0  0
   35.1858   29.8828   51.3990 H   0  0  0  0  0  0  0  0  0  0  0  0
   36.1369   28.3176   51.4830 H   0  0  0  0  0  0  0  0  0  0  0  0
   37.1862   28.9281   49.4968 H   0  0  0  0  0  0  0  0  0  0  0  0
   38.4206   31.4919   47.7202 H   0  0  0  0  0  0  0  0  0  0  0  0
   38.7425   31.4015   45.3340 H   0  0  0  0  0  0  0  0  0  0  0  0
   34.9113   29.8018   44.7090 H   0  0  0  0  0  0  0  0  0  0  0  0
   35.7611   27.6946   48.2960 H   0  0  0  0  0  0  0  0  0  0  0  0
   33.2826   26.9733   48.6268 C   0  0  0  0  0  0  0  0  0  0  0  0
   31.8091   27.0649   48.6153 C   0  0  0  0  0  0  0  0  0  0  0  0
   31.0063   27.6927   48.8930 H   0  0  0  0  0  0  0  0  0  0  0  0
   31.3817   25.4187   47.7903 S   0  0  0  0  0  0  0  0  0  0  0  0
   33.1701   24.9458   47.6265 C   0  0  0  0  0  0  0  0  0  0  0  0
   33.9087   24.1174   47.2480 H   0  0  0  0  0  0  0  0  0  0  0  0
   33.9279   25.9268   48.1375 N   0  0  0  0  0  0  0  0  0  0  0  0
  1  6  1  0
  1  2  1  0
  2  3  1  0
  3  4  1  0
  5  4  1  0
  6  5  1  0
  7  1  1  0
  8  7  2  0
  9  8  1  0
 10 11  1  0
 10  9  2  0
 11 12  2  0
 12  7  1  0
 13 14  2  0
 15 13  1  0
 15  6  1  0
  1 16  1  6
  2 17  1  0
  2 18  1  0
  3 19  1  0
  3 20  1  0
  4 21  1  0
  4 22  1  0
  5 23  1  0
  5 24  1  0
  6 25  1  1
  8 26  1  0
  9 27  1  0
 11 28  1  0
 15 29  1  0
 30 31  2  0
 31 32  1  0
 31 33  1  0
 33 34  1  0
 34 35  1  0
 34 36  2  0
 36 30  1  0
 13 30  1  0
M  ISO  8  16  13  17  13  18  13  19  13  20  13  21  13  22  13  23  13
M  ISO  7  24  13  25  13  26  14  27  14  28  14  32  15  35  16
M  END
>  <DihAtoms>  (1) 
13,12,29,30

>  <DihDeg>  (1) 
0.41390179481420825

$$$$
