
 OpenBabel03272503303D

 37 40  0  0  1  0  0  0  0  0999 V2000
   34.8120   29.3530   48.0610 C   0  0  0  0  0  0  0  0  0  0  0  0
   34.3420   30.3310   47.1750 C   0  0  0  0  0  0  0  0  0  0  0  0
   33.1430   30.0610   46.5290 C   0  0  0  0  0  0  0  0  0  0  0  0
   32.5240   28.8740   46.8060 N   0  0  0  0  0  0  0  0  0  0  0  0
   32.9920   27.9670   47.6490 C   0  0  0  0  0  0  0  0  0  0  0  0
   34.1600   28.2170   48.2850 N   0  0  0  0  0  0  0  0  0  0  0  0
   34.8290   31.2550   46.9620 H   0  0  0  0  0  0  0  0  0  0  0  0
   32.6740   30.7180   45.8320 H   0  0  0  0  0  0  0  0  0  0  0  0
   36.0540   29.6240   48.7340 N   0  0  0  0  0  0  0  0  0  0  0  0
   37.1810   30.3470   48.2130 C   0  0  0  0  0  0  0  0  0  0  0  0
   37.8100   30.9270   49.4800 C   0  0  2  0  0  0  0  0  0  0  0  0
   36.8880   30.5500   50.6210 C   0  0  0  0  0  0  0  0  0  0  0  0
   36.4050   29.2150   50.0730 C   0  0  0  0  0  0  0  0  0  0  0  0
   37.8790   29.6290   47.7590 H   0  0  0  0  0  0  0  0  0  0  0  0
   36.8890   31.1470   47.5110 H   0  0  0  0  0  0  0  0  0  0  0  0
   38.7740   30.4170   49.6830 H   0  0  0  0  0  0  0  0  0  0  0  0
   37.4430   30.3420   51.5380 H   0  0  0  0  0  0  0  0  0  0  0  0
   36.0440   31.2550   50.7550 H   0  0  0  0  0  0  0  0  0  0  0  0
   35.4980   28.9500   50.6520 H   0  0  0  0  0  0  0  0  0  0  0  0
   37.2090   28.4870   50.1460 H   0  0  0  0  0  0  0  0  0  0  0  0
   38.0290   32.4110   49.4000 C   0  0  0  0  0  0  0  0  0  0  0  0
   36.9200   33.0090   49.9570 F   0  0  0  0  0  0  0  0  0  0  0  0
   38.0160   32.7580   48.0560 F   0  0  0  0  0  0  0  0  0  0  0  0
   39.1930   32.8320   49.9740 F   0  0  0  0  0  0  0  0  0  0  0  0
   32.1300   26.4430   47.9620 S   0  0  0  0  0  0  0  0  0  0  0  0
   29.3650   26.9610   47.3930 C   0  0  0  0  0  3  0  0  0  0  0  0
   30.4070   26.8560   48.2870 C   0  0  0  0  0  0  0  0  0  0  0  0
   30.1880   27.0830   49.6360 C   0  0  0  0  0  0  0  0  0  0  0  0
   30.9290   27.0310   50.4430 H   0  0  0  0  0  0  0  0  0  0  0  0
   28.9200   27.4200   50.1200 C   0  0  0  0  0  0  0  0  0  0  0  0
   28.4060   27.6930   51.3490 N   0  0  0  0  0  0  0  0  0  0  0  0
   27.0950   27.9580   51.2190 C   0  0  0  0  0  0  0  0  0  0  0  0
   26.4510   28.2100   52.0690 H   0  0  0  0  0  0  0  0  0  0  0  0
   26.7820   27.8500   49.9030 N   0  0  0  0  0  0  0  0  0  0  0  0
   27.8910   27.5200   49.2090 C   0  0  0  0  0  0  0  0  0  0  0  0
   28.1240   27.2930   47.8800 C   0  0  0  0  0  3  0  0  0  0  0  0
   28.9690   27.6910   52.2420 H   0  0  0  0  0  0  0  0  0  0  0  0
  1  6  1  0  0  0  0
  1  9  1  0  0  0  0
  2  1  2  0  0  0  0
  3  4  2  0  0  0  0
  3  2  1  0  0  0  0
  4  5  1  0  0  0  0
  5 25  1  0  0  0  0
  5  6  2  0  0  0  0
  7  2  1  0  0  0  0
  8  3  1  0  0  0  0
  9 13  1  0  0  0  0
 10  9  1  0  0  0  0
 10 11  1  0  0  0  0
 11 16  1  1  0  0  0
 11 12  1  0  0  0  0
 12 18  1  0  0  0  0
 12 17  1  0  0  0  0
 13 20  1  0  0  0  0
 13 12  1  0  0  0  0
 13 19  1  0  0  0  0
 14 10  1  0  0  0  0
 15 10  1  0  0  0  0
 21 11  1  0  0  0  0
 21 22  1  0  0  0  0
 21 24  1  0  0  0  0
 23 21  1  0  0  0  0
 25 27  1  0  0  0  0
 26 36  2  0  0  0  0
 26 27  1  0  0  0  0
 27 28  2  0  0  0  0
 28 30  1  0  0  0  0
 28 29  1  0  0  0  0
 30 31  1  0  0  0  0
 31 37  1  0  0  0  0
 32 31  1  0  0  0  0
 32 33  1  0  0  0  0
 34 32  2  0  0  0  0
 35 34  1  0  0  0  0
 35 30  2  0  0  0  0
 36 35  1  0  0  0  0
M  END
>  <minimizedAffinity>
-7.30979729

>  <minimizedRMSD>
3.02759266

$$$$
