
 OpenBabel03262521463D

 33 35  0  0  0  0  0  0  0  0999 V2000
   34.6650   30.7170   49.3110 O   0  0  0  0  0  0  0  0  0  0  0  0
   34.4740   29.4790   50.1690 P   0  0  2  0  0  0  0  0  0  0  0  0
   32.9560   29.6280   50.8800 O   0  0  0  0  0  0  0  0  0  0  0  0
   33.0720   29.3830   51.8300 H   0  0  0  0  0  0  0  0  0  0  0  0
   35.6970   29.4700   51.3520 O   0  0  0  0  0  0  0  0  0  0  0  0
   36.9550   29.2570   50.7780 C   0  0  0  0  0  0  0  0  0  0  0  0
   36.7880   29.0050   49.7240 H   0  0  0  0  0  0  0  0  0  0  0  0
   37.4320   28.3720   51.2470 H   0  0  0  0  0  0  0  0  0  0  0  0
   37.7350   30.5230   50.9000 C   0  0  0  0  0  0  0  0  0  0  0  0
   37.2710   31.2850   51.5730 H   0  0  0  0  0  0  0  0  0  0  0  0
   38.7110   30.2450   51.3940 H   0  0  0  0  0  0  0  0  0  0  0  0
   38.0890   31.1640   49.6330 C   0  0  0  0  0  0  0  0  0  0  0  0
   38.5520   32.4630   49.5560 C   0  0  0  0  0  0  0  0  0  0  0  0
   38.8620   32.9740   48.2780 C   0  0  0  0  0  0  0  0  0  0  0  0
   38.6880   32.1620   47.1890 N   0  0  0  0  0  0  0  0  0  0  0  0
   38.2260   30.8830   47.3230 C   0  0  0  0  0  0  0  0  0  0  0  0
   37.9290   30.3950   48.5520 N   0  0  0  0  0  0  0  0  0  0  0  0
   38.6580   33.0320   50.4700 H   0  0  0  0  0  0  0  0  0  0  0  0
   39.2220   33.9800   48.2040 H   0  0  0  0  0  0  0  0  0  0  0  0
   38.1140   30.3000   46.4190 H   0  0  0  0  0  0  0  0  0  0  0  0
   34.5180   28.0830   49.2540 O   0  0  0  0  0  0  0  0  0  0  0  0
   33.6780   26.8580   47.2540 C   0  0  0  0  0  3  0  0  0  0  0  0
   34.2330   27.9200   47.9230 C   0  0  0  0  0  0  0  0  0  0  0  0
   34.5910   29.0570   47.1890 C   0  0  0  0  0  0  0  0  0  0  0  0
   35.0420   29.9730   47.5940 H   0  0  0  0  0  0  0  0  0  0  0  0
   34.3900   29.1140   45.8070 C   0  0  0  0  0  0  0  0  0  0  0  0
   34.6150   30.0250   44.8440 N   0  0  0  0  0  0  0  0  0  0  0  0
   34.2050   29.5090   43.6550 C   0  0  0  0  0  0  0  0  0  0  0  0
   34.2780   30.0520   42.7070 H   0  0  0  0  0  0  0  0  0  0  0  0
   33.7140   28.2570   43.8670 N   0  0  0  0  0  0  0  0  0  0  0  0
   33.8270   28.0170   45.1830 C   0  0  0  0  0  0  0  0  0  0  0  0
   33.4700   26.8880   45.9000 C   0  0  0  0  0  3  0  0  0  0  0  0
   35.0330   30.9470   45.0330 H   0  0  0  0  0  0  0  0  0  0  0  0
  2  1  2  6  0  0  0
  2  3  1  0  0  0  0
  2  5  1  0  0  0  0
  3  4  1  0  0  0  0
  6  9  1  0  0  0  0
  6  8  1  0  0  0  0
  6  5  1  0  0  0  0
  7  6  1  0  0  0  0
  9 11  1  0  0  0  0
  9 10  1  0  0  0  0
 12  9  1  0  0  0  0
 13 12  1  0  0  0  0
 13 18  1  0  0  0  0
 14 13  2  0  0  0  0
 15 16  2  0  0  0  0
 15 14  1  0  0  0  0
 16 17  1  0  0  0  0
 17 12  2  0  0  0  0
 19 14  1  0  0  0  0
 20 16  1  0  0  0  0
 21  2  1  0  0  0  0
 22 23  1  0  0  0  0
 23 21  1  0  0  0  0
 24 25  1  0  0  0  0
 24 23  2  0  0  0  0
 26 24  1  0  0  0  0
 27 33  1  0  0  0  0
 27 26  1  0  0  0  0
 28 30  2  0  0  0  0
 28 27  1  0  0  0  0
 29 28  1  0  0  0  0
 30 31  1  0  0  0  0
 31 26  2  0  0  0  0
 31 32  1  0  0  0  0
 32 22  2  0  0  0  0
M  END
>  <minimizedAffinity>
-5.3929019

>  <minimizedRMSD>
0.364333272

$$$$
