
 OpenBabel03272503043D

 35 38  0  0  0  0  0  0  0  0999 V2000
   38.1160   30.1460   47.4940 F   0  0  0  0  0  0  0  0  0  0  0  0
   38.3750   31.3950   47.9800 C   0  0  0  0  0  0  0  0  0  0  0  0
   37.7120   31.8310   49.0940 C   0  0  0  0  0  0  0  0  0  0  0  0
   38.0220   33.0930   49.5250 C   0  0  0  0  0  0  0  0  0  0  0  0
   38.9390   33.9020   48.9020 C   0  0  0  0  0  0  0  0  0  0  0  0
   39.5890   33.4270   47.7780 C   0  0  0  0  0  0  0  0  0  0  0  0
   39.3040   32.1590   47.3130 C   0  0  0  0  0  0  0  0  0  0  0  0
   37.4900   33.4480   50.4210 H   0  0  0  0  0  0  0  0  0  0  0  0
   39.1130   34.8890   49.3240 H   0  0  0  0  0  0  0  0  0  0  0  0
   40.3090   34.0640   47.2900 H   0  0  0  0  0  0  0  0  0  0  0  0
   36.0820   29.3610   51.4470 C   0  0  0  0  0  0  0  0  0  0  0  0
   37.0380   30.2140   50.8610 C   0  0  0  0  0  0  0  0  0  0  0  0
   36.7450   30.9380   49.7260 C   0  0  0  0  0  0  0  0  0  0  0  0
   35.4930   30.7890   49.2040 N   0  0  0  0  0  0  0  0  0  0  0  0
   34.5820   29.9730   49.7640 C   0  0  0  0  0  0  0  0  0  0  0  0
   34.8730   29.2770   50.8610 N   0  0  0  0  0  0  0  0  0  0  0  0
   36.3740   28.8140   52.3450 H   0  0  0  0  0  0  0  0  0  0  0  0
   38.0360   30.3580   51.2460 H   0  0  0  0  0  0  0  0  0  0  0  0
   33.6160   29.9200   49.2770 H   0  0  0  0  0  0  0  0  0  0  0  0
   39.2730   31.9030   44.9290 C   0  0  0  0  0  0  0  0  0  0  0  0
   38.1940   32.5540   45.0470 O   0  0  0  0  0  0  0  0  0  0  0  0
   39.9590   31.6350   46.1510 N   0  0  0  0  0  0  0  0  0  0  0  0
   40.8370   31.1050   46.1040 H   0  0  0  0  0  0  0  0  0  0  0  0
   39.1970   32.2040   42.5510 C   0  0  0  0  0  3  0  0  0  0  0  0
   39.7160   31.4970   43.6170 C   0  0  0  0  0  0  0  0  0  0  0  0
   40.6090   30.4570   43.4610 C   0  0  0  0  0  0  0  0  0  0  0  0
   41.0180   29.9030   44.2950 H   0  0  0  0  0  0  0  0  0  0  0  0
   41.0090   30.0980   42.1860 C   0  0  0  0  0  0  0  0  0  0  0  0
   41.8470   29.1500   41.7310 N   0  0  0  0  0  0  0  0  0  0  0  0
   41.8640   29.2480   40.4000 C   0  0  0  0  0  0  0  0  0  0  0  0
   42.4690   28.5880   39.7890 H   0  0  0  0  0  0  0  0  0  0  0  0
   41.0510   30.2410   40.0120 N   0  0  0  0  0  0  0  0  0  0  0  0
   40.4900   30.8040   41.1190 C   0  0  0  0  0  0  0  0  0  0  0  0
   39.5940   31.8480   41.2590 C   0  0  0  0  0  3  0  0  0  0  0  0
   42.3630   28.4870   42.3530 H   0  0  0  0  0  0  0  0  0  0  0  0
  1  2  1  0  0  0  0
  2  3  1  0  0  0  0
  3  4  2  0  0  0  0
  3 13  1  0  0  0  0
  4  8  1  0  0  0  0
  5  9  1  0  0  0  0
  5  4  1  0  0  0  0
  6  5  2  0  0  0  0
  7  6  1  0  0  0  0
  7  2  2  0  0  0  0
 10  6  1  0  0  0  0
 11 17  1  0  0  0  0
 12 18  1  0  0  0  0
 12 11  1  0  0  0  0
 13 12  2  0  0  0  0
 14 13  1  0  0  0  0
 14 15  2  0  0  0  0
 15 16  1  0  0  0  0
 16 11  2  0  0  0  0
 19 15  1  0  0  0  0
 20 21  2  0  0  0  0
 20 22  1  0  0  0  0
 22  7  1  0  0  0  0
 23 22  1  0  0  0  0
 24 25  1  0  0  0  0
 25 20  1  0  0  0  0
 26 25  2  0  0  0  0
 26 27  1  0  0  0  0
 28 26  1  0  0  0  0
 29 28  1  0  0  0  0
 29 35  1  0  0  0  0
 30 29  1  0  0  0  0
 31 30  1  0  0  0  0
 32 30  2  0  0  0  0
 32 33  1  0  0  0  0
 33 34  1  0  0  0  0
 33 28  2  0  0  0  0
 34 24  2  0  0  0  0
M  END
>  <minimizedAffinity>
-7.36122513

>  <minimizedRMSD>
0.680400372

$$$$
