
 OpenBabel03272507523D

 35 38  0  0  0  0  0  0  0  0999 V2000
   37.0770   31.3740   48.1860 N   0  0  0  0  0  0  0  0  0  0  0  0
   37.6990   32.1530   49.0620 C   0  0  0  0  0  0  0  0  0  0  0  0
   38.7790   32.9350   48.6450 C   0  0  0  0  0  0  0  0  0  0  0  0
   39.1020   32.8160   47.3220 C   0  0  0  0  0  0  0  0  0  0  0  0
   40.0880   33.5410   46.9800 O   0  0  0  0  0  0  0  0  0  0  0  0
   38.5060   32.0510   46.4180 N   0  0  0  0  0  0  0  0  0  0  0  0
   37.4670   31.3150   46.8750 C   0  0  0  0  0  0  0  0  0  0  0  0
   36.8850   30.5760   46.0180 O   0  0  0  0  0  0  0  0  0  0  0  0
   37.3010   32.1140   50.0620 H   0  0  0  0  0  0  0  0  0  0  0  0
   39.2540   33.5460   49.3710 H   0  0  0  0  0  0  0  0  0  0  0  0
   38.6220   32.8320   44.0050 C   0  0  0  0  0  3  0  0  0  0  0  0
   38.9110   31.9870   45.0480 C   0  0  0  0  0  0  0  0  0  0  0  0
   39.7150   30.8640   44.8370 C   0  0  0  0  0  0  0  0  0  0  0  0
   40.0130   30.1230   45.5760 H   0  0  0  0  0  0  0  0  0  0  0  0
   40.2310   30.5900   43.5780 C   0  0  0  0  0  0  0  0  0  0  0  0
   41.0200   29.6170   43.0470 N   0  0  0  0  0  0  0  0  0  0  0  0
   41.2030   29.8640   41.7300 C   0  0  0  0  0  0  0  0  0  0  0  0
   41.8040   29.2060   41.1130 H   0  0  0  0  0  0  0  0  0  0  0  0
   40.5230   31.0060   41.4190 N   0  0  0  0  0  0  0  0  0  0  0  0
   39.9340   31.4460   42.5380 C   0  0  0  0  0  0  0  0  0  0  0  0
   39.1390   32.5530   42.7560 C   0  0  0  0  0  3  0  0  0  0  0  0
   41.4080   28.8080   43.6170 H   0  0  0  0  0  0  0  0  0  0  0  0
   35.8270   30.1730   49.8910 C   0  0  0  0  0  0  0  0  0  0  0  0
   35.9630   30.5380   48.5360 C   0  0  0  0  0  0  0  0  0  0  0  0
   35.0200   30.0720   47.6050 C   0  0  0  0  0  0  0  0  0  0  0  0
   34.0210   29.2880   48.0700 N   0  0  0  0  0  0  0  0  0  0  0  0
   33.8920   28.9450   49.3410 C   0  0  0  0  0  0  0  0  0  0  0  0
   34.7900   29.3850   50.2430 N   0  0  0  0  0  0  0  0  0  0  0  0
   35.1520   30.3680   46.5780 H   0  0  0  0  0  0  0  0  0  0  0  0
   33.0970   28.3190   49.7210 H   0  0  0  0  0  0  0  0  0  0  0  0
   37.6150   29.8830   51.7710 C   0  0  0  0  0  0  0  0  0  0  0  0
   37.7870   28.6510   51.6680 O   0  0  0  0  0  0  0  0  0  0  0  0
   36.7140   30.5980   50.9040 N   0  0  0  0  0  0  0  0  0  0  0  0
   38.1830   30.3700   52.5460 H   0  0  0  0  0  0  0  0  0  0  0  0
   36.7680   31.6400   51.1050 H   0  0  0  0  0  0  0  0  0  0  0  0
  1 24  1  0  0  0  0
  1  2  1  0  0  0  0
  2  9  1  0  0  0  0
  3  2  2  0  0  0  0
  3 10  1  0  0  0  0
  4  3  1  0  0  0  0
  5  4  2  0  0  0  0
  6  7  1  0  0  0  0
  6  4  1  0  0  0  0
  7  1  1  0  0  0  0
  8  7  2  0  0  0  0
 11 12  1  0  0  0  0
 12  6  1  0  0  0  0
 13 12  2  0  0  0  0
 13 14  1  0  0  0  0
 15 13  1  0  0  0  0
 16 15  1  0  0  0  0
 16 22  1  0  0  0  0
 17 16  1  0  0  0  0
 18 17  1  0  0  0  0
 19 17  2  0  0  0  0
 19 20  1  0  0  0  0
 20 21  1  0  0  0  0
 20 15  2  0  0  0  0
 21 11  2  0  0  0  0
 23 28  1  0  0  0  0
 23 33  1  0  0  0  0
 24 23  2  0  0  0  0
 25 26  2  0  0  0  0
 25 24  1  0  0  0  0
 26 27  1  0  0  0  0
 27 30  1  0  0  0  0
 27 28  2  0  0  0  0
 29 25  1  0  0  0  0
 31 34  1  0  0  0  0
 32 31  2  0  0  0  0
 33 35  1  0  0  0  0
 33 31  1  0  0  0  0
M  END
>  <minimizedAffinity>
-7.00007486

>  <minimizedRMSD>
3.0120604

$$$$
