
     RDKit          3D

 42 45  0  0  0  0  0  0  0  0999 V2000
   37.3465   30.1150   48.3019 O   0  0  0  0  0  0  0  0  0  0  0  0
   38.0658   31.3048   48.2226 C   0  0  0  0  0  0  0  0  0  0  0  0
   38.2172   32.0124   49.4016 C   0  0  0  0  0  0  0  0  0  0  0  0
   38.9299   33.2048   49.3586 C   0  0  0  0  0  0  0  0  0  0  0  0
   39.4421   33.6227   48.1783 N   0  0  0  0  0  0  0  0  0  0  0  0
   39.2859   32.9205   47.0342 C   0  0  0  0  0  0  0  0  0  0  0  0
   38.6054   31.7837   47.0805 N   0  0  0  0  0  0  0  0  0  0  0  0
   40.7640   32.4708   45.2386 C   0  0  0  0  0  0  0  0  0  0  0  0
   41.1287   31.3451   45.6863 O   0  0  0  0  0  0  0  0  0  0  0  0
   39.8358   33.3891   45.8082 N   0  0  0  0  0  0  0  0  0  0  0  0
   35.4832   28.6726   50.0550 O   0  0  0  0  0  0  0  0  0  0  0  0
   35.2595   29.0492   48.8903 C   0  0  0  0  0  0  0  0  0  0  0  0
   35.9168   30.2131   48.3280 C   0  0  2  0  0  0  0  0  0  0  0  0
   35.4626   30.1148   46.8381 C   0  0  0  0  0  0  0  0  0  0  0  0
   34.1642   29.3813   46.9223 C   0  0  0  0  0  0  0  0  0  0  0  0
   34.3562   28.4054   47.9839 N   0  0  0  0  0  0  0  0  0  0  0  0
   33.7491   27.0876   48.0723 C   0  0  0  0  0  0  0  0  0  0  0  0
   37.7938   31.6471   50.3242 H   0  0  0  0  0  0  0  0  0  0  0  0
   39.0435   33.7454   50.2690 H   0  0  0  0  0  0  0  0  0  0  0  0
   41.2665   32.6924   44.2994 H   0  0  0  0  0  0  0  0  0  0  0  0
   39.6017   34.2975   45.3578 H   0  0  0  0  0  0  0  0  0  0  0  0
   35.5817   31.2031   48.6306 H   0  0  0  0  0  0  0  0  0  0  0  0
   36.2140   29.4981   46.3214 H   0  0  0  0  0  0  0  0  0  0  0  0
   35.3654   31.1305   46.4079 H   0  0  0  0  0  0  0  0  0  0  0  0
   33.3212   30.0082   47.2216 H   0  0  0  0  0  0  0  0  0  0  0  0
   33.9251   28.8237   45.9924 H   0  0  0  0  0  0  0  0  0  0  0  0
   32.7533   27.1112   47.5988 H   0  0  0  0  0  0  0  0  0  0  0  0
   33.5821   26.8812   49.1497 H   0  0  0  0  0  0  0  0  0  0  0  0
   34.7298   24.8654   48.1568 C   0  0  0  0  0  0  0  0  0  0  0  0
   34.5787   26.0463   47.4274 C   0  0  0  0  0  0  0  0  0  0  0  0
   35.1738   26.2039   46.1922 C   0  0  0  0  0  0  0  0  0  0  0  0
   35.0430   27.1190   45.6524 H   0  0  0  0  0  0  0  0  0  0  0  0
   35.9295   25.1667   45.6804 C   0  0  0  0  0  0  0  0  0  0  0  0
   36.6241   25.0050   44.5340 N   0  0  0  0  0  0  0  0  0  0  0  0
   37.1764   23.7726   44.5649 C   0  0  0  0  0  0  0  0  0  0  0  0
   37.8009   23.2791   43.8316 H   0  0  0  0  0  0  0  0  0  0  0  0
   36.8342   23.1574   45.7235 N   0  0  0  0  0  0  0  0  0  0  0  0
   36.0616   23.9982   46.4344 C   0  0  0  0  0  0  0  0  0  0  0  0
   35.4749   23.8237   47.6684 C   0  0  0  0  0  0  0  0  0  0  0  0
   34.2623   24.7352   49.1326 H   0  0  0  0  0  0  0  0  0  0  0  0
   36.7197   25.7019   43.7619 H   0  0  0  0  0  0  0  0  0  0  0  0
   35.6035   22.9004   48.2194 H   0  0  0  0  0  0  0  0  0  0  0  0
  2  1  1  0
  2  3  2  0
  4  3  1  0
  5  4  2  0
  6  7  2  0
  6  5  1  0
  7  2  1  0
  8  9  2  0
  8 10  1  0
 10  6  1  0
 12 11  2  0
 13  1  1  0
 13 12  1  0
 14 15  1  0
 14 13  1  0
 15 16  1  0
 16 17  1  0
 16 12  1  0
  3 18  1  0
  4 19  1  0
  8 20  1  0
 10 21  1  0
 13 22  1  1
 14 23  1  0
 14 24  1  0
 15 25  1  0
 15 26  1  0
 17 27  1  0
 17 28  1  0
 29 30  2  0
 30 31  1  0
 31 32  1  0
 31 33  2  0
 33 34  1  0
 34 35  1  0
 35 36  1  0
 35 37  2  0
 37 38  1  0
 38 39  2  0
 39 29  1  0
 38 33  1  0
 29 40  1  0
 34 41  1  0
 39 42  1  0
 17 30  1  0
M  ISO  8  18  14  19  14  20   6  22  13  23  13  24  13  25  13  26  13
M  ISO  4  27   8  28   8  32  15  36  14
M  END
>  <DihAtoms>  (1) 
15,16,29,28

>  <DihDeg>  (1) 
89.99865679240402

$$$$
