
     RDKit          3D

 39 42  0  0  0  0  0  0  0  0999 V2000
   32.6824   30.3020   46.5702 Cl  0  0  0  0  0  0  0  0  0  0  0  0
   32.6302   28.5523   46.7283 C   0  0  0  0  0  0  0  0  0  0  0  0
   33.5096   27.9152   47.5954 C   0  0  0  0  0  0  0  0  0  0  0  0
   33.5122   26.5197   47.7569 C   0  0  0  0  0  0  0  0  0  0  0  0
   32.5804   25.8144   46.9955 C   0  0  0  0  0  0  0  0  0  0  0  0
   31.7092   26.4185   46.1397 C   0  0  0  0  0  0  0  0  0  0  0  0
   30.5901   25.4252   45.2420 Cl  0  0  0  0  0  0  0  0  0  0  0  0
   31.7409   27.8028   46.0105 C   0  0  0  0  0  0  0  0  0  0  0  0
   35.3965   29.2936   50.4407 C   0  0  0  0  0  0  0  0  0  0  0  0
   36.3346   30.1242   49.7883 C   0  0  0  0  0  0  0  0  0  0  0  0
   36.3018   30.1973   48.4043 C   0  0  0  0  0  0  0  0  0  0  0  0
   35.3530   29.4535   47.7547 N   0  0  0  0  0  0  0  0  0  0  0  0
   34.4821   28.6804   48.3840 C   0  0  0  0  0  0  0  0  0  0  0  0
   34.4986   28.5971   49.7145 N   0  0  0  0  0  0  0  0  0  0  0  0
   37.3030   30.9098   50.5966 C   0  0  0  0  0  0  0  0  0  0  0  0
   38.5947   30.7640   50.1276 F   0  0  0  0  0  0  0  0  0  0  0  0
   36.9478   32.2505   50.5492 F   0  0  0  0  0  0  0  0  0  0  0  0
   37.2896   30.5382   51.9303 F   0  0  0  0  0  0  0  0  0  0  0  0
   30.7977   28.4780   45.0835 C   0  0  0  0  0  0  0  0  0  0  0  0
   29.8302   27.5743   44.6361 F   0  0  0  0  0  0  0  0  0  0  0  0
   31.4253   29.0767   44.0393 F   0  0  0  0  0  0  0  0  0  0  0  0
   30.0903   29.4564   45.7853 F   0  0  0  0  0  0  0  0  0  0  0  0
   34.2022   26.0325   48.4359 H   0  0  0  0  0  0  0  0  0  0  0  0
   32.5695   24.7298   47.1092 H   0  0  0  0  0  0  0  0  0  0  0  0
   35.4442   29.2554   51.5113 H   0  0  0  0  0  0  0  0  0  0  0  0
   38.3966   31.2099   48.0681 C   0  0  0  0  0  0  0  0  0  0  0  0
   37.1149   31.0003   47.5299 C   0  0  0  0  0  0  0  0  0  0  0  0
   36.9393   31.6420   46.3322 C   0  0  0  0  0  0  0  0  0  0  0  0
   35.9857   31.5551   45.8899 H   0  0  0  0  0  0  0  0  0  0  0  0
   37.9081   32.4024   45.7248 C   0  0  0  0  0  0  0  0  0  0  0  0
   37.8530   33.0717   44.5606 N   0  0  0  0  0  0  0  0  0  0  0  0
   39.0430   33.6637   44.3901 C   0  0  0  0  0  0  0  0  0  0  0  0
   39.3049   34.2846   43.5271 H   0  0  0  0  0  0  0  0  0  0  0  0
   39.8225   33.3699   45.4248 N   0  0  0  0  0  0  0  0  0  0  0  0
   39.1540   32.5845   46.2826 C   0  0  0  0  0  0  0  0  0  0  0  0
   39.3931   31.9660   47.4890 C   0  0  0  0  0  0  0  0  0  0  0  0
   38.7467   30.7858   49.0249 H   0  0  0  0  0  0  0  0  0  0  0  0
   37.0343   33.1341   43.8882 H   0  0  0  0  0  0  0  0  0  0  0  0
   40.3749   32.1224   47.9081 H   0  0  0  0  0  0  0  0  0  0  0  0
  1  2  1  0
  2  3  2  0
  3  4  1  0
  3 13  1  0
  5  4  2  0
  6  5  1  0
  7  6  1  0
  8  6  2  0
  8  2  1  0
 10  9  2  0
 10 15  1  0
 11 10  1  0
 12 13  1  0
 12 11  2  0
 13 14  2  0
 14  9  1  0
 15 18  1  0
 16 15  1  0
 17 15  1  0
 19 22  1  0
 19  8  1  0
 20 19  1  0
 21 19  1  0
  4 23  1  0
  5 24  1  0
  9 25  1  0
 26 27  2  0
 27 28  1  0
 28 29  1  0
 28 30  2  0
 30 31  1  0
 31 32  1  0
 32 33  1  0
 32 34  2  0
 34 35  1  0
 35 36  2  0
 36 26  1  0
 35 30  1  0
 26 37  1  0
 31 38  1  0
 36 39  1  0
 11 27  1  0
M  ISO  5  23  14  24  14  25  14  29  15  33  14
M  END
>  <DihAtoms>  (1) 
9,10,26,25

>  <DihDeg>  (1) 
-118.915655013127

$$$$
