
 OpenBabel03272503463D

 27 29  0  0  0  0  0  0  0  0999 V2000
   35.5160   30.2010   46.6110 O   0  0  0  0  0  0  0  0  0  0  0  0
   34.2660   29.9710   47.4460 P   0  0  2  0  0  0  0  0  0  0  0  0
   33.0040   30.7830   46.6750 O   0  0  0  0  0  0  0  0  0  0  0  0
   32.1310   30.3440   46.8180 H   0  0  0  0  0  0  0  0  0  0  0  0
   34.4270   30.5000   49.0600 O   0  0  0  0  0  0  0  0  0  0  0  0
   35.6360   30.4210   49.7470 C   0  0  0  0  0  0  0  0  0  0  0  0
   35.9490   29.4380   50.6850 C   0  0  0  0  0  0  0  0  0  0  0  0
   37.2120   29.5020   51.2880 C   0  0  0  0  0  0  0  0  0  0  0  0
   38.0680   30.5000   50.9410 N   0  0  0  0  0  0  0  0  0  0  0  0
   37.7120   31.4420   50.0130 C   0  0  0  0  0  0  0  0  0  0  0  0
   36.5050   31.4020   49.4210 N   0  0  0  0  0  0  0  0  0  0  0  0
   35.2070   28.6970   50.8870 H   0  0  0  0  0  0  0  0  0  0  0  0
   37.4590   28.7420   52.0150 H   0  0  0  0  0  0  0  0  0  0  0  0
   38.4000   32.2420   49.7370 H   0  0  0  0  0  0  0  0  0  0  0  0
   33.9270   28.2980   47.5290 O   0  0  0  0  0  0  0  0  0  0  0  0
   31.8390   27.6150   46.4140 C   0  0  0  0  0  0  0  0  0  0  0  0
   32.5680   27.9430   47.5370 C   0  0  0  0  0  0  0  0  0  0  0  0
   32.0220   27.9530   48.7980 C   0  0  0  0  0  0  0  0  0  0  0  0
   32.5740   28.2080   49.7090 H   0  0  0  0  0  0  0  0  0  0  0  0
   30.6900   27.6290   49.0010 C   0  0  0  0  0  0  0  0  0  0  0  0
   29.9180   27.5610   50.1030 N   0  0  0  0  0  0  0  0  0  0  0  0
   28.6930   27.1910   49.6870 C   0  0  0  0  0  0  0  0  0  0  0  0
   27.8710   27.0630   50.4010 H   0  0  0  0  0  0  0  0  0  0  0  0
   28.7080   27.0330   48.3500 N   0  0  0  0  0  0  0  0  0  0  0  0
   29.9430   27.2990   47.8850 C   0  0  0  0  0  0  0  0  0  0  0  0
   30.5120   27.2970   46.6410 C   0  0  0  0  0  0  0  0  0  0  0  0
   30.2390   27.7630   51.0770 H   0  0  0  0  0  0  0  0  0  0  0  0
  2  1  2  6  0  0  0
  2 15  1  0  0  0  0
  2  5  1  0  0  0  0
  3  4  1  0  0  0  0
  3  2  1  0  0  0  0
  5  6  1  0  0  0  0
  6  7  1  0  0  0  0
  7 12  1  0  0  0  0
  7  8  2  0  0  0  0
  8 13  1  0  0  0  0
  9  8  1  0  0  0  0
 10  9  2  0  0  0  0
 11  6  2  0  0  0  0
 11 10  1  0  0  0  0
 14 10  1  0  0  0  0
 15 17  1  0  0  0  0
 16 26  2  0  0  0  0
 16 17  1  0  0  0  0
 17 18  2  0  0  0  0
 18 20  1  0  0  0  0
 18 19  1  0  0  0  0
 20 21  1  0  0  0  0
 21 27  1  0  0  0  0
 22 21  1  0  0  0  0
 22 23  1  0  0  0  0
 24 22  2  0  0  0  0
 25 24  1  0  0  0  0
 25 20  2  0  0  0  0
 26 25  1  0  0  0  0
M  END
>  <minimizedAffinity>
-5.23316145

>  <minimizedRMSD>
2.36564708

$$$$
