REMARK  Name = 
REMARK  3 active torsions:
REMARK  status: ('A' for Active; 'I' for Inactive)
REMARK    1  A    between atoms: N_1  and  C_7
REMARK    2  A    between atoms: C_6  and  O_13
REMARK    3  A    between atoms: O_13  and  C_27
REMARK                            x       y       z     vdW  Elec       q    Type
REMARK                         _______ _______ _______ _____ _____    ______ ____
ROOT
ATOM      1  N   UNL     1      35.971  29.630  48.863  0.00  0.00    +0.000 N 
ATOM      2  C   UNL     1      36.572  28.855  49.928  0.00  0.00    +0.000 C 
ATOM      3  C   UNL     1      37.045  29.568  51.110  0.00  0.00    +0.000 C 
ATOM      4  C   UNL     1      37.424  30.989  50.978  0.00  0.00    +0.000 C 
ATOM      5  C   UNL     1      36.813  31.681  49.798  0.00  0.00    +0.000 C 
ATOM      6  C   UNL     1      36.846  30.758  48.573  0.00  0.00    +0.000 C 
ATOM      7  H   UNL     1      35.826  28.072  50.198  0.00  0.00    +0.000 HD
ATOM      8  H   UNL     1      37.420  28.298  49.438  0.00  0.00    +0.000 HD
ATOM      9  H   UNL     1      36.259  29.485  51.910  0.00  0.00    +0.000 HD
ATOM     10  H   UNL     1      37.928  29.013  51.537  0.00  0.00    +0.000 HD
ATOM     11  H   UNL     1      37.115  31.572  51.885  0.00  0.00    +0.000 HD
ATOM     12  H   UNL     1      38.529  31.111  50.942  0.00  0.00    +0.000 HD
ATOM     13  H   UNL     1      37.299  32.644  49.603  0.00  0.00    +0.000 HD
ATOM     14  H   UNL     1      35.735  31.848  50.007  0.00  0.00    +0.000 HD
ATOM     15  H   UNL     1      36.520  31.326  47.698  0.00  0.00    +0.000 HD
ENDROOT
BRANCH   1  16
ATOM     16  C   UNL     1      34.740  29.328  48.221  0.00  0.00    +0.000 A 
ATOM     17  C   UNL     1      34.251  29.994  47.101  0.00  0.00    +0.000 A 
ATOM     18  C   UNL     1      33.036  29.611  46.561  0.00  0.00    +0.000 A 
ATOM     19  N   UNL     1      32.375  28.587  47.168  0.00  0.00    +0.000 NA
ATOM     20  C   UNL     1      32.872  27.965  48.246  0.00  0.00    +0.000 A 
ATOM     21  N   UNL     1      34.050  28.340  48.765  0.00  0.00    +0.000 NA
ATOM     22  H   UNL     1      34.846  30.795  46.687  0.00  0.00    +0.000 HD
ATOM     23  H   UNL     1      32.679  30.148  45.687  0.00  0.00    +0.000 HD
ATOM     24  H   UNL     1      32.288  27.143  48.690  0.00  0.00    +0.000 HD
ENDBRANCH   1  16
BRANCH   6  25
ATOM     25  O   UNL     1      38.175  30.353  48.474  0.00  0.00    +0.000 OA
BRANCH  25  27
ATOM     26  C   UNL     1      40.322  30.736  47.807  0.00  0.00    +0.000 A 
ATOM     27  C   UNL     1      38.982  30.635  47.413  0.00  0.00    +0.000 A 
ATOM     28  C   UNL     1      38.718  30.829  46.076  0.00  0.00    +0.000 A 
ATOM     29  H   UNL     1      37.675  30.740  45.834  0.00  0.00    +0.000 HD
ATOM     30  C   UNL     1      39.693  31.107  45.168  0.00  0.00    +0.000 A 
ATOM     31  N   UNL     1      39.630  31.325  43.842  0.00  0.00    +0.000 N 
ATOM     32  C   UNL     1      40.879  31.557  43.399  0.00  0.00    +0.000 A 
ATOM     33  H   UNL     1      41.077  31.760  42.354  0.00  0.00    +0.000 HD
ATOM     34  N   UNL     1      41.727  31.485  44.443  0.00  0.00    +0.000 NA
ATOM     35  C   UNL     1      41.006  31.206  45.549  0.00  0.00    +0.000 A 
ATOM     36  C   UNL     1      41.332  31.018  46.894  0.00  0.00    +0.000 A 
ATOM     37  H   UNL     1      38.756  31.313  43.270  0.00  0.00    +0.000 HD
ENDBRANCH  25  27
ENDBRANCH   6  25
TORSDOF 3
