
 OpenBabel03262522193D

 27 29  0  0  0  0  0  0  0  0999 V2000
   37.4740   23.8770   30.3190 O   0  0  0  0  0  0  0  0  0  0  0  0
   36.9000   24.0580   31.7130 P   0  0  1  0  0  0  0  0  0  0  0  0
   36.2180   25.6200   31.7880 O   0  0  0  0  0  0  0  0  0  0  0  0
   36.7890   26.2230   31.2140 H   0  0  0  0  0  0  0  0  0  0  0  0
   35.6020   22.9850   31.8620 O   0  0  0  0  0  0  0  0  0  0  0  0
   35.8920   20.8160   30.8870 C   0  0  0  0  0  0  0  0  0  0  0  0
   35.6630   21.6250   32.0220 C   0  0  0  0  0  0  0  0  0  0  0  0
   35.5110   20.9720   33.2540 C   0  0  0  0  0  0  0  0  0  0  0  0
   35.5940   19.6140   33.2760 N   0  0  0  0  0  0  0  0  0  0  0  0
   35.8130   18.8760   32.1770 C   0  0  0  0  0  0  0  0  0  0  0  0
   35.9630   19.4860   30.9750 N   0  0  0  0  0  0  0  0  0  0  0  0
   36.0180   21.2480   29.9090 H   0  0  0  0  0  0  0  0  0  0  0  0
   35.3390   21.6080   34.0930 H   0  0  0  0  0  0  0  0  0  0  0  0
   35.8630   17.8150   32.2880 H   0  0  0  0  0  0  0  0  0  0  0  0
   38.1260   23.8520   32.8090 O   0  0  0  0  0  0  0  0  0  0  0  0
   38.0890   25.3250   34.6100 C   0  0  0  0  0  3  0  0  0  0  0  0
   38.1060   24.0160   34.1660 C   0  0  0  0  0  0  0  0  0  0  0  0
   38.1030   23.0160   35.1440 C   0  0  0  0  0  0  0  0  0  0  0  0
   38.1170   22.0170   34.7730 H   0  0  0  0  0  0  0  0  0  0  0  0
   38.0820   23.3760   36.4950 C   0  0  0  0  0  0  0  0  0  0  0  0
   38.0760   22.5620   37.5670 N   0  0  0  0  0  0  0  0  0  0  0  0
   38.0540   23.4000   38.6200 C   0  0  0  0  0  0  0  0  0  0  0  0
   38.0420   23.1820   39.6860 H   0  0  0  0  0  0  0  0  0  0  0  0
   38.0460   24.6970   38.2580 N   0  0  0  0  0  0  0  0  0  0  0  0
   38.0640   24.6980   36.9100 C   0  0  0  0  0  0  0  0  0  0  0  0
   38.0670   25.6790   35.9610 C   0  0  0  0  0  3  0  0  0  0  0  0
   38.0840   21.5250   37.6300 H   0  0  0  0  0  0  0  0  0  0  0  0
  2  1  2  6  0  0  0
  2  3  1  0  0  0  0
  2  5  1  0  0  0  0
  2 15  1  0  0  0  0
  4  3  1  0  0  0  0
  5  7  1  0  0  0  0
  6 11  2  0  0  0  0
  6  7  1  0  0  0  0
  7  8  2  0  0  0  0
  8  9  1  0  0  0  0
  8 13  1  0  0  0  0
 10 14  1  0  0  0  0
 10  9  2  0  0  0  0
 11 10  1  0  0  0  0
 12  6  1  0  0  0  0
 15 17  1  0  0  0  0
 16 26  1  0  0  0  0
 17 16  2  0  0  0  0
 17 18  1  0  0  0  0
 18 20  2  0  0  0  0
 19 18  1  0  0  0  0
 20 25  1  0  0  0  0
 20 21  1  0  0  0  0
 21 27  1  0  0  0  0
 21 22  1  0  0  0  0
 22 23  1  0  0  0  0
 24 22  2  0  0  0  0
 25 24  1  0  0  0  0
 26 25  2  0  0  0  0
M  END
>  <minimizedAffinity>
-5.07809258

$$$$

 OpenBabel03262522193D

 27 29  0  0  0  0  0  0  0  0999 V2000
   39.1730   27.4400   35.0260 O   0  0  0  0  0  0  0  0  0  0  0  0
   37.8230   26.8230   34.7050 P   0  0  1  0  0  0  0  0  0  0  0  0
   36.6500   28.0550   34.8400 O   0  0  0  0  0  0  0  0  0  0  0  0
   36.9480   28.6700   35.5830 H   0  0  0  0  0  0  0  0  0  0  0  0
   37.8470   26.3920   33.0710 O   0  0  0  0  0  0  0  0  0  0  0  0
   36.0150   25.7570   31.6630 C   0  0  0  0  0  0  0  0  0  0  0  0
   37.1230   25.3990   32.4630 C   0  0  0  0  0  0  0  0  0  0  0  0
   37.4110   24.0320   32.5820 C   0  0  0  0  0  0  0  0  0  0  0  0
   36.6120   23.1480   31.9260 N   0  0  0  0  0  0  0  0  0  0  0  0
   35.5670   23.5230   31.1740 C   0  0  0  0  0  0  0  0  0  0  0  0
   35.2690   24.8400   31.0440 N   0  0  0  0  0  0  0  0  0  0  0  0
   35.7350   26.7890   31.5260 H   0  0  0  0  0  0  0  0  0  0  0  0
   38.2530   23.7910   33.1930 H   0  0  0  0  0  0  0  0  0  0  0  0
   34.9950   22.7600   30.6940 H   0  0  0  0  0  0  0  0  0  0  0  0
   37.5560   25.5800   35.7680 O   0  0  0  0  0  0  0  0  0  0  0  0
   38.2130   24.1770   37.5050 C   0  0  0  0  0  3  0  0  0  0  0  0
   38.4280   24.6270   36.2160 C   0  0  0  0  0  0  0  0  0  0  0  0
   39.5030   24.0630   35.5200 C   0  0  0  0  0  0  0  0  0  0  0  0
   39.6440   24.4280   34.5290 H   0  0  0  0  0  0  0  0  0  0  0  0
   40.2920   23.0920   36.1450 C   0  0  0  0  0  0  0  0  0  0  0  0
   41.3580   22.4430   35.6390 N   0  0  0  0  0  0  0  0  0  0  0  0
   41.7500   21.6250   36.6340 C   0  0  0  0  0  0  0  0  0  0  0  0
   42.5740   20.9150   36.6700 H   0  0  0  0  0  0  0  0  0  0  0  0
   40.9820   21.7320   37.7350 N   0  0  0  0  0  0  0  0  0  0  0  0
   40.0510   22.6610   37.4400 C   0  0  0  0  0  0  0  0  0  0  0  0
   39.0040   23.2070   38.1250 C   0  0  0  0  0  3  0  0  0  0  0  0
   41.8140   22.5130   34.7090 H   0  0  0  0  0  0  0  0  0  0  0  0
  2  3  1  0  0  0  0
  2  1  2  1  0  0  0
  2 15  1  0  0  0  0
  3  4  1  0  0  0  0
  5  2  1  0  0  0  0
  6  7  1  0  0  0  0
  7  8  2  0  0  0  0
  7  5  1  0  0  0  0
  8 13  1  0  0  0  0
  9  8  1  0  0  0  0
 10  9  2  0  0  0  0
 11 10  1  0  0  0  0
 11  6  2  0  0  0  0
 12  6  1  0  0  0  0
 14 10  1  0  0  0  0
 15 17  1  0  0  0  0
 16 26  1  0  0  0  0
 17 16  2  0  0  0  0
 18 20  2  0  0  0  0
 18 17  1  0  0  0  0
 19 18  1  0  0  0  0
 20 25  1  0  0  0  0
 21 20  1  0  0  0  0
 21 22  1  0  0  0  0
 22 23  1  0  0  0  0
 22 24  2  0  0  0  0
 25 24  1  0  0  0  0
 25 26  2  0  0  0  0
 27 21  1  0  0  0  0
M  END
>  <minimizedAffinity>
-5.05051565

$$$$

 OpenBabel03262522193D

 27 29  0  0  0  0  0  0  0  0999 V2000
   36.6440   27.5160   34.7730 O   0  0  0  0  0  0  0  0  0  0  0  0
   37.7960   26.5250   34.7670 P   0  0  1  0  0  0  0  0  0  0  0  0
   39.1930   27.3600   35.2780 O   0  0  0  0  0  0  0  0  0  0  0  0
   39.1200   28.3060   34.9320 H   0  0  0  0  0  0  0  0  0  0  0  0
   37.4790   25.3840   35.9720 O   0  0  0  0  0  0  0  0  0  0  0  0
   38.1450   24.0660   37.8580 C   0  0  0  0  0  0  0  0  0  0  0  0
   38.3640   24.4990   36.5320 C   0  0  0  0  0  0  0  0  0  0  0  0
   39.4880   23.9880   35.8680 C   0  0  0  0  0  0  0  0  0  0  0  0
   40.2880   23.1150   36.5380 N   0  0  0  0  0  0  0  0  0  0  0  0
   40.0500   22.7230   37.7990 C   0  0  0  0  0  0  0  0  0  0  0  0
   38.9690   23.2050   38.4610 N   0  0  0  0  0  0  0  0  0  0  0  0
   37.3020   24.4170   38.4290 H   0  0  0  0  0  0  0  0  0  0  0  0
   39.6280   24.3330   34.8680 H   0  0  0  0  0  0  0  0  0  0  0  0
   40.7310   22.0340   38.2480 H   0  0  0  0  0  0  0  0  0  0  0  0
   37.9490   25.9200   33.2320 O   0  0  0  0  0  0  0  0  0  0  0  0
   36.2540   25.0810   31.8750 C   0  0  0  0  0  3  0  0  0  0  0  0
   37.3520   24.8230   32.6740 C   0  0  0  0  0  0  0  0  0  0  0  0
   37.7260   23.4840   32.8240 C   0  0  0  0  0  0  0  0  0  0  0  0
   38.5750   23.3150   33.4450 H   0  0  0  0  0  0  0  0  0  0  0  0
   36.9910   22.4880   32.1720 C   0  0  0  0  0  0  0  0  0  0  0  0
   37.1990   21.1580   32.1960 N   0  0  0  0  0  0  0  0  0  0  0  0
   36.2250   20.6560   31.4140 C   0  0  0  0  0  0  0  0  0  0  0  0
   36.0050   19.6250   31.1470 H   0  0  0  0  0  0  0  0  0  0  0  0
   35.4200   21.6080   30.9030 N   0  0  0  0  0  0  0  0  0  0  0  0
   35.8940   22.7770   31.3760 C   0  0  0  0  0  0  0  0  0  0  0  0
   35.5240   24.0830   31.2260 C   0  0  0  0  0  3  0  0  0  0  0  0
   37.9220   20.5950   32.6840 H   0  0  0  0  0  0  0  0  0  0  0  0
  2  1  2  6  0  0  0
  2  3  1  0  0  0  0
  2  5  1  0  0  0  0
  4  3  1  0  0  0  0
  5  7  1  0  0  0  0
  6 12  1  0  0  0  0
  6 11  1  0  0  0  0
  7  6  2  0  0  0  0
  8  7  1  0  0  0  0
  8  9  2  0  0  0  0
  9 10  1  0  0  0  0
 10 14  1  0  0  0  0
 10 11  2  0  0  0  0
 13  8  1  0  0  0  0
 15  2  1  0  0  0  0
 16 17  1  0  0  0  0
 17 18  2  0  0  0  0
 17 15  1  0  0  0  0
 18 19  1  0  0  0  0
 20 21  1  0  0  0  0
 20 18  1  0  0  0  0
 21 27  1  0  0  0  0
 22 21  1  0  0  0  0
 23 22  1  0  0  0  0
 24 25  1  0  0  0  0
 24 22  2  0  0  0  0
 25 20  2  0  0  0  0
 26 25  1  0  0  0  0
 26 16  2  0  0  0  0
M  END
>  <minimizedAffinity>
-4.99414635

$$$$

 OpenBabel03262522193D

 27 29  0  0  0  0  0  0  0  0999 V2000
   37.2350   23.5650   37.4470 O   0  0  0  0  0  0  0  0  0  0  0  0
   38.6180   23.2540   36.9000 P   0  0  1  0  0  0  0  0  0  0  0  0
   39.6090   22.8270   38.2220 O   0  0  0  0  0  0  0  0  0  0  0  0
   39.3070   23.3790   39.0120 H   0  0  0  0  0  0  0  0  0  0  0  0
   38.4810   21.8560   35.9610 O   0  0  0  0  0  0  0  0  0  0  0  0
   37.6990   21.8860   33.6970 C   0  0  0  0  0  0  0  0  0  0  0  0
   37.4960   21.5570   35.0550 C   0  0  0  0  0  0  0  0  0  0  0  0
   36.2840   20.9370   35.3900 C   0  0  0  0  0  0  0  0  0  0  0  0
   35.3900   20.6950   34.3940 N   0  0  0  0  0  0  0  0  0  0  0  0
   35.6140   21.0210   33.1130 C   0  0  0  0  0  0  0  0  0  0  0  0
   36.7800   21.6210   32.7650 N   0  0  0  0  0  0  0  0  0  0  0  0
   38.6060   22.3630   33.3670 H   0  0  0  0  0  0  0  0  0  0  0  0
   36.1590   20.7010   36.4230 H   0  0  0  0  0  0  0  0  0  0  0  0
   34.8560   20.7930   32.3960 H   0  0  0  0  0  0  0  0  0  0  0  0
   39.1740   24.5970   36.1050 O   0  0  0  0  0  0  0  0  0  0  0  0
   38.3150   26.7580   36.0170 C   0  0  0  0  0  3  0  0  0  0  0  0
   38.4710   25.5330   35.3980 C   0  0  0  0  0  0  0  0  0  0  0  0
   37.8980   25.3870   34.1300 C   0  0  0  0  0  0  0  0  0  0  0  0
   38.0350   24.4330   33.6760 H   0  0  0  0  0  0  0  0  0  0  0  0
   37.2100   26.4620   33.5590 C   0  0  0  0  0  0  0  0  0  0  0  0
   36.5990   26.5090   32.3600 N   0  0  0  0  0  0  0  0  0  0  0  0
   36.0960   27.7560   32.2930 C   0  0  0  0  0  0  0  0  0  0  0  0
   35.5230   28.2370   31.5030 H   0  0  0  0  0  0  0  0  0  0  0  0
   36.3630   28.4890   33.3910 N   0  0  0  0  0  0  0  0  0  0  0  0
   37.0700   27.6800   34.2050 C   0  0  0  0  0  0  0  0  0  0  0  0
   37.6260   27.8300   35.4420 C   0  0  0  0  0  3  0  0  0  0  0  0
   36.5050   25.7880   31.6190 H   0  0  0  0  0  0  0  0  0  0  0  0
  2  1  2  1  0  0  0
  2  3  1  0  0  0  0
  3  4  1  0  0  0  0
  5  2  1  0  0  0  0
  6  7  1  0  0  0  0
  7  8  2  0  0  0  0
  7  5  1  0  0  0  0
  8 13  1  0  0  0  0
  9  8  1  0  0  0  0
 10  9  2  0  0  0  0
 11 10  1  0  0  0  0
 11  6  2  0  0  0  0
 12  6  1  0  0  0  0
 14 10  1  0  0  0  0
 15  2  1  0  0  0  0
 17 16  2  0  0  0  0
 17 15  1  0  0  0  0
 18 17  1  0  0  0  0
 19 18  1  0  0  0  0
 20 18  2  0  0  0  0
 20 25  1  0  0  0  0
 21 20  1  0  0  0  0
 22 21  1  0  0  0  0
 22 24  2  0  0  0  0
 23 22  1  0  0  0  0
 24 25  1  0  0  0  0
 25 26  2  0  0  0  0
 26 16  1  0  0  0  0
 27 21  1  0  0  0  0
M  END
>  <minimizedAffinity>
-4.97041893

$$$$

 OpenBabel03262522193D

 27 29  0  0  0  0  0  0  0  0999 V2000
   39.1170   22.5280   32.5010 O   0  0  0  0  0  0  0  0  0  0  0  0
   38.0690   23.0860   33.4490 P   0  0  1  0  0  0  0  0  0  0  0  0
   37.3730   21.7660   34.2780 O   0  0  0  0  0  0  0  0  0  0  0  0
   37.3510   20.9880   33.6350 H   0  0  0  0  0  0  0  0  0  0  0  0
   38.8870   23.9830   34.6240 O   0  0  0  0  0  0  0  0  0  0  0  0
   39.7670   23.0520   36.6480 C   0  0  0  0  0  0  0  0  0  0  0  0
   38.8030   23.8420   35.9860 C   0  0  0  0  0  0  0  0  0  0  0  0
   37.8100   24.4380   36.7760 C   0  0  0  0  0  0  0  0  0  0  0  0
   37.8400   24.2180   38.1180 N   0  0  0  0  0  0  0  0  0  0  0  0
   38.7720   23.4610   38.7160 C   0  0  0  0  0  0  0  0  0  0  0  0
   39.7420   22.8740   37.9710 N   0  0  0  0  0  0  0  0  0  0  0  0
   40.5590   22.5630   36.1050 H   0  0  0  0  0  0  0  0  0  0  0  0
   37.0950   25.0290   36.2480 H   0  0  0  0  0  0  0  0  0  0  0  0
   38.7180   23.3430   39.7760 H   0  0  0  0  0  0  0  0  0  0  0  0
   36.9560   23.9260   32.5540 O   0  0  0  0  0  0  0  0  0  0  0  0
   37.0690   26.1160   33.3320 C   0  0  0  0  0  3  0  0  0  0  0  0
   36.9180   25.2600   32.2580 C   0  0  0  0  0  0  0  0  0  0  0  0
   36.7440   25.8470   31.0000 C   0  0  0  0  0  0  0  0  0  0  0  0
   36.6310   25.1630   30.1910 H   0  0  0  0  0  0  0  0  0  0  0  0
   36.7320   27.2410   30.8890 C   0  0  0  0  0  0  0  0  0  0  0  0
   36.5790   27.9790   29.7730 N   0  0  0  0  0  0  0  0  0  0  0  0
   36.6420   29.2520   30.2070 C   0  0  0  0  0  0  0  0  0  0  0  0
   36.5660   30.1840   29.6500 H   0  0  0  0  0  0  0  0  0  0  0  0
   36.8270   29.3450   31.5370 N   0  0  0  0  0  0  0  0  0  0  0  0
   36.8860   28.0750   31.9850 C   0  0  0  0  0  0  0  0  0  0  0  0
   37.0560   27.5080   33.2150 C   0  0  0  0  0  3  0  0  0  0  0  0
   36.4410   27.6920   28.7850 H   0  0  0  0  0  0  0  0  0  0  0  0
  2  1  2  6  0  0  0
  2  3  1  0  0  0  0
  2  5  1  0  0  0  0
  4  3  1  0  0  0  0
  5  7  1  0  0  0  0
  6 11  1  0  0  0  0
  7  6  2  0  0  0  0
  7  8  1  0  0  0  0
  8  9  2  0  0  0  0
  9 10  1  0  0  0  0
 10 14  1  0  0  0  0
 11 10  2  0  0  0  0
 12  6  1  0  0  0  0
 13  8  1  0  0  0  0
 15  2  1  0  0  0  0
 17 15  1  0  0  0  0
 17 16  2  0  0  0  0
 18 17  1  0  0  0  0
 19 18  1  0  0  0  0
 20 18  2  0  0  0  0
 20 25  1  0  0  0  0
 21 22  1  0  0  0  0
 21 20  1  0  0  0  0
 22 24  2  0  0  0  0
 23 22  1  0  0  0  0
 24 25  1  0  0  0  0
 25 26  2  0  0  0  0
 26 16  1  0  0  0  0
 27 21  1  0  0  0  0
M  END
>  <minimizedAffinity>
-4.95079184

$$$$

 OpenBabel03262522193D

 27 29  0  0  0  0  0  0  0  0999 V2000
   36.7640   27.5880   34.8220 O   0  0  0  0  0  0  0  0  0  0  0  0
   37.9020   26.5860   34.9160 P   0  0  1  0  0  0  0  0  0  0  0  0
   39.2400   27.3920   35.6030 O   0  0  0  0  0  0  0  0  0  0  0  0
   39.2110   28.3490   35.2790 H   0  0  0  0  0  0  0  0  0  0  0  0
   37.4450   25.4150   36.0440 O   0  0  0  0  0  0  0  0  0  0  0  0
   39.3180   23.9220   35.9820 C   0  0  0  0  0  0  0  0  0  0  0  0
   38.2610   24.5270   36.6970 C   0  0  0  0  0  0  0  0  0  0  0  0
   38.1160   24.1730   38.0460 C   0  0  0  0  0  0  0  0  0  0  0  0
   38.9950   23.2790   38.5740 N   0  0  0  0  0  0  0  0  0  0  0  0
   39.9890   22.7230   37.8650 C   0  0  0  0  0  0  0  0  0  0  0  0
   40.1490   23.0500   36.5580 N   0  0  0  0  0  0  0  0  0  0  0  0
   39.4900   24.1460   34.9420 H   0  0  0  0  0  0  0  0  0  0  0  0
   37.3100   24.6450   38.5610 H   0  0  0  0  0  0  0  0  0  0  0  0
   40.6330   22.0300   38.3610 H   0  0  0  0  0  0  0  0  0  0  0  0
   38.2220   26.0220   33.3910 O   0  0  0  0  0  0  0  0  0  0  0  0
   39.7260   27.0200   31.9210 C   0  0  0  0  0  3  0  0  0  0  0  0
   38.4120   26.7260   32.2340 C   0  0  0  0  0  0  0  0  0  0  0  0
   37.4330   27.1760   31.3420 C   0  0  0  0  0  0  0  0  0  0  0  0
   36.4300   26.9350   31.6080 H   0  0  0  0  0  0  0  0  0  0  0  0
   37.8180   27.8860   30.2000 C   0  0  0  0  0  0  0  0  0  0  0  0
   37.0260   28.3940   29.2370 N   0  0  0  0  0  0  0  0  0  0  0  0
   37.8830   28.9760   28.3770 C   0  0  0  0  0  0  0  0  0  0  0  0
   37.6860   29.5110   27.4500 H   0  0  0  0  0  0  0  0  0  0  0  0
   39.1690   28.8560   28.7560 N   0  0  0  0  0  0  0  0  0  0  0  0
   39.1450   28.1660   29.9130 C   0  0  0  0  0  0  0  0  0  0  0  0
   40.1050   27.7300   30.7790 C   0  0  0  0  0  3  0  0  0  0  0  0
   35.9940   28.3730   29.1280 H   0  0  0  0  0  0  0  0  0  0  0  0
  2  1  2  6  0  0  0
  2  3  1  0  0  0  0
  2  5  1  0  0  0  0
  4  3  1  0  0  0  0
  5  7  1  0  0  0  0
  6 11  2  0  0  0  0
  6  7  1  0  0  0  0
  7  8  2  0  0  0  0
  8 13  1  0  0  0  0
  8  9  1  0  0  0  0
 10 14  1  0  0  0  0
 10  9  2  0  0  0  0
 11 10  1  0  0  0  0
 12  6  1  0  0  0  0
 15  2  1  0  0  0  0
 16 17  1  0  0  0  0
 17 15  1  0  0  0  0
 18 19  1  0  0  0  0
 18 17  2  0  0  0  0
 20 18  1  0  0  0  0
 21 20  1  0  0  0  0
 22 24  2  0  0  0  0
 22 21  1  0  0  0  0
 23 22  1  0  0  0  0
 24 25  1  0  0  0  0
 25 20  2  0  0  0  0
 25 26  1  0  0  0  0
 26 16  2  0  0  0  0
 27 21  1  0  0  0  0
M  END
>  <minimizedAffinity>
-4.93508625

$$$$

 OpenBabel03262522193D

 27 29  0  0  0  0  0  0  0  0999 V2000
   37.0090   22.7370   37.1220 O   0  0  0  0  0  0  0  0  0  0  0  0
   38.4400   23.1790   37.3790 P   0  0  1  0  0  0  0  0  0  0  0  0
   38.8260   22.7550   38.9860 O   0  0  0  0  0  0  0  0  0  0  0  0
   37.9830   22.8570   39.5330 H   0  0  0  0  0  0  0  0  0  0  0  0
   39.4400   22.2290   36.4030 O   0  0  0  0  0  0  0  0  0  0  0  0
   41.4040   23.3330   35.5900 C   0  0  0  0  0  0  0  0  0  0  0  0
   40.8070   22.2790   36.3170 C   0  0  0  0  0  0  0  0  0  0  0  0
   41.6660   21.3430   36.9090 C   0  0  0  0  0  0  0  0  0  0  0  0
   43.0070   21.5080   36.7470 N   0  0  0  0  0  0  0  0  0  0  0  0
   43.5410   22.5220   36.0500 C   0  0  0  0  0  0  0  0  0  0  0  0
   42.7290   23.4400   35.4670 N   0  0  0  0  0  0  0  0  0  0  0  0
   40.8060   24.0890   35.1080 H   0  0  0  0  0  0  0  0  0  0  0  0
   41.1870   20.5580   37.4510 H   0  0  0  0  0  0  0  0  0  0  0  0
   44.6040   22.5740   35.9740 H   0  0  0  0  0  0  0  0  0  0  0  0
   38.5310   24.8130   37.1190 O   0  0  0  0  0  0  0  0  0  0  0  0
   38.1400   26.9000   36.1670 C   0  0  0  0  0  3  0  0  0  0  0  0
   38.1940   25.5280   36.0040 C   0  0  0  0  0  0  0  0  0  0  0  0
   37.9000   25.0300   34.7310 C   0  0  0  0  0  0  0  0  0  0  0  0
   37.9500   23.9700   34.6350 H   0  0  0  0  0  0  0  0  0  0  0  0
   37.5740   25.9210   33.7030 C   0  0  0  0  0  0  0  0  0  0  0  0
   37.2640   25.6300   32.4250 N   0  0  0  0  0  0  0  0  0  0  0  0
   37.0350   26.8290   31.8590 C   0  0  0  0  0  0  0  0  0  0  0  0
   36.7550   27.0770   30.8370 H   0  0  0  0  0  0  0  0  0  0  0  0
   37.1860   27.8540   32.7190 N   0  0  0  0  0  0  0  0  0  0  0  0
   37.5280   27.2920   33.8960 C   0  0  0  0  0  0  0  0  0  0  0  0
   37.8140   27.7850   35.1370 C   0  0  0  0  0  3  0  0  0  0  0  0
   37.2020   24.7170   31.9340 H   0  0  0  0  0  0  0  0  0  0  0  0
  2  1  2  6  0  0  0
  2  3  1  0  0  0  0
  3  4  1  0  0  0  0
  5  2  1  0  0  0  0
  6  7  1  0  0  0  0
  7  5  1  0  0  0  0
  7  8  2  0  0  0  0
  8 13  1  0  0  0  0
  9  8  1  0  0  0  0
 10  9  2  0  0  0  0
 11  6  2  0  0  0  0
 11 10  1  0  0  0  0
 12  6  1  0  0  0  0
 14 10  1  0  0  0  0
 15  2  1  0  0  0  0
 17 16  1  0  0  0  0
 17 15  1  0  0  0  0
 18 17  2  0  0  0  0
 19 18  1  0  0  0  0
 20 25  2  0  0  0  0
 20 18  1  0  0  0  0
 21 20  1  0  0  0  0
 22 21  1  0  0  0  0
 22 24  2  0  0  0  0
 23 22  1  0  0  0  0
 24 25  1  0  0  0  0
 25 26  1  0  0  0  0
 26 16  2  0  0  0  0
 27 21  1  0  0  0  0
M  END
>  <minimizedAffinity>
-4.87373829

$$$$

 OpenBabel03262522193D

 27 29  0  0  0  0  0  0  0  0999 V2000
   35.3460   26.6550   31.4610 O   0  0  0  0  0  0  0  0  0  0  0  0
   36.3080   27.8070   31.2260 P   0  0  1  0  0  0  0  0  0  0  0  0
   36.6490   27.8570   29.5550 O   0  0  0  0  0  0  0  0  0  0  0  0
   36.6480   26.9030   29.2210 H   0  0  0  0  0  0  0  0  0  0  0  0
   35.4700   29.2340   31.5640 O   0  0  0  0  0  0  0  0  0  0  0  0
   35.4490   30.1570   33.7750 C   0  0  0  0  0  0  0  0  0  0  0  0
   34.7690   29.5370   32.7030 C   0  0  0  0  0  0  0  0  0  0  0  0
   33.4050   29.2680   32.8800 C   0  0  0  0  0  0  0  0  0  0  0  0
   32.8290   29.6200   34.0610 N   0  0  0  0  0  0  0  0  0  0  0  0
   33.5040   30.2080   35.0590 C   0  0  0  0  0  0  0  0  0  0  0  0
   34.8260   30.4770   34.9110 N   0  0  0  0  0  0  0  0  0  0  0  0
   36.4980   30.3930   33.7100 H   0  0  0  0  0  0  0  0  0  0  0  0
   32.9180   28.7990   32.0540 H   0  0  0  0  0  0  0  0  0  0  0  0
   32.9710   30.4500   35.9520 H   0  0  0  0  0  0  0  0  0  0  0  0
   37.6660   27.5420   32.1380 O   0  0  0  0  0  0  0  0  0  0  0  0
   37.8150   27.5140   34.4600 C   0  0  0  0  0  3  0  0  0  0  0  0
   37.8070   26.8000   33.2770 C   0  0  0  0  0  0  0  0  0  0  0  0
   37.9450   25.4110   33.3760 C   0  0  0  0  0  0  0  0  0  0  0  0
   37.9360   24.8860   32.4490 H   0  0  0  0  0  0  0  0  0  0  0  0
   38.0800   24.8220   34.6370 C   0  0  0  0  0  0  0  0  0  0  0  0
   38.2220   23.5150   34.9280 N   0  0  0  0  0  0  0  0  0  0  0  0
   38.3100   23.4810   36.2710 C   0  0  0  0  0  0  0  0  0  0  0  0
   38.4320   22.6330   36.9420 H   0  0  0  0  0  0  0  0  0  0  0  0
   38.2300   24.7020   36.8320 N   0  0  0  0  0  0  0  0  0  0  0  0
   38.0840   25.5650   35.8070 C   0  0  0  0  0  0  0  0  0  0  0  0
   37.9500   26.9210   35.7180 C   0  0  0  0  0  3  0  0  0  0  0  0
   38.2610   22.6830   34.3060 H   0  0  0  0  0  0  0  0  0  0  0  0
  2  1  2  1  0  0  0
  2  5  1  0  0  0  0
  2 15  1  0  0  0  0
  3  2  1  0  0  0  0
  4  3  1  0  0  0  0
  5  7  1  0  0  0  0
  6 11  1  0  0  0  0
  7  8  1  0  0  0  0
  7  6  2  0  0  0  0
  8  9  2  0  0  0  0
  9 10  1  0  0  0  0
 10 14  1  0  0  0  0
 11 10  2  0  0  0  0
 12  6  1  0  0  0  0
 13  8  1  0  0  0  0
 15 17  1  0  0  0  0
 16 26  1  0  0  0  0
 17 18  1  0  0  0  0
 17 16  2  0  0  0  0
 18 20  2  0  0  0  0
 19 18  1  0  0  0  0
 20 21  1  0  0  0  0
 20 25  1  0  0  0  0
 21 22  1  0  0  0  0
 22 24  2  0  0  0  0
 22 23  1  0  0  0  0
 25 24  1  0  0  0  0
 26 25  2  0  0  0  0
 27 21  1  0  0  0  0
M  END
>  <minimizedAffinity>
-4.76277828

$$$$

 OpenBabel03262522193D

 27 29  0  0  0  0  0  0  0  0999 V2000
   34.5650   25.9090   31.1340 O   0  0  0  0  0  0  0  0  0  0  0  0
   36.0390   26.2730   31.1850 P   0  0  1  0  0  0  0  0  0  0  0  0
   36.3530   27.3270   29.8810 O   0  0  0  0  0  0  0  0  0  0  0  0
   35.7580   27.0420   29.1160 H   0  0  0  0  0  0  0  0  0  0  0  0
   36.2770   27.1920   32.5830 O   0  0  0  0  0  0  0  0  0  0  0  0
   37.0740   27.0670   34.8390 C   0  0  0  0  0  0  0  0  0  0  0  0
   37.3350   27.1230   33.4530 C   0  0  0  0  0  0  0  0  0  0  0  0
   38.6790   27.1050   33.0530 C   0  0  0  0  0  0  0  0  0  0  0  0
   39.6350   27.0350   34.0180 N   0  0  0  0  0  0  0  0  0  0  0  0
   39.3510   26.9820   35.3280 C   0  0  0  0  0  0  0  0  0  0  0  0
   38.0580   26.9980   35.7380 N   0  0  0  0  0  0  0  0  0  0  0  0
   36.0650   27.0770   35.2190 H   0  0  0  0  0  0  0  0  0  0  0  0
   38.8470   27.1490   32.0000 H   0  0  0  0  0  0  0  0  0  0  0  0
   40.1660   26.9270   36.0170 H   0  0  0  0  0  0  0  0  0  0  0  0
   36.9220   24.8740   31.0910 O   0  0  0  0  0  0  0  0  0  0  0  0
   37.4280   23.3540   32.7790 C   0  0  0  0  0  3  0  0  0  0  0  0
   36.6720   23.6570   31.6630 C   0  0  0  0  0  0  0  0  0  0  0  0
   35.7470   22.6950   31.2450 C   0  0  0  0  0  0  0  0  0  0  0  0
   35.1780   22.9560   30.3820 H   0  0  0  0  0  0  0  0  0  0  0  0
   35.6290   21.4990   31.9590 C   0  0  0  0  0  0  0  0  0  0  0  0
   34.8020   20.4660   31.7100 N   0  0  0  0  0  0  0  0  0  0  0  0
   35.0830   19.5750   32.6810 C   0  0  0  0  0  0  0  0  0  0  0  0
   34.6560   18.5930   32.8720 H   0  0  0  0  0  0  0  0  0  0  0  0
   36.0440   20.0020   33.5220 N   0  0  0  0  0  0  0  0  0  0  0  0
   36.4010   21.2230   33.0760 C   0  0  0  0  0  0  0  0  0  0  0  0
   37.3070   22.1570   33.4900 C   0  0  0  0  0  3  0  0  0  0  0  0
   34.0940   20.3300   30.9630 H   0  0  0  0  0  0  0  0  0  0  0  0
  2  1  2  6  0  0  0
  2  5  1  0  0  0  0
  3  2  1  0  0  0  0
  4  3  1  0  0  0  0
  5  7  1  0  0  0  0
  6 12  1  0  0  0  0
  6 11  1  0  0  0  0
  7  6  2  0  0  0  0
  8  7  1  0  0  0  0
  8  9  2  0  0  0  0
  9 10  1  0  0  0  0
 10 11  2  0  0  0  0
 10 14  1  0  0  0  0
 13  8  1  0  0  0  0
 15  2  1  0  0  0  0
 15 17  1  0  0  0  0
 16 26  1  0  0  0  0
 17 16  2  0  0  0  0
 18 17  1  0  0  0  0
 18 20  2  0  0  0  0
 19 18  1  0  0  0  0
 20 25  1  0  0  0  0
 21 20  1  0  0  0  0
 21 22  1  0  0  0  0
 22 23  1  0  0  0  0
 22 24  2  0  0  0  0
 25 26  2  0  0  0  0
 25 24  1  0  0  0  0
 27 21  1  0  0  0  0
M  END
>  <minimizedAffinity>
-4.74588919

$$$$
