
 OpenBabel03272507373D

 26 28  0  0  0  0  0  0  0  0999 V2000
   36.9920   29.7030   49.2030 C   0  0  0  0  0  0  0  0  0  0  0  0
   35.7230   29.1210   49.2240 C   0  0  0  0  0  0  0  0  0  0  0  0
   35.0590   28.9440   50.4170 C   0  0  0  0  0  0  0  0  0  0  0  0
   35.6960   29.3580   51.5630 N   0  0  0  0  0  0  0  0  0  0  0  0
   36.9280   29.9210   51.5320 C   0  0  0  0  0  0  0  0  0  0  0  0
   37.5360   30.0760   50.3660 N   0  0  0  0  0  0  0  0  0  0  0  0
   34.0740   28.5010   50.5090 H   0  0  0  0  0  0  0  0  0  0  0  0
   37.4090   30.2400   52.4480 H   0  0  0  0  0  0  0  0  0  0  0  0
   34.1410   29.5520   47.4160 C   0  0  0  0  0  0  0  0  0  0  0  0
   33.7590   30.7600   47.5740 O   0  0  0  0  0  0  0  0  0  0  0  0
   35.0160   28.6770   48.0930 N   0  0  0  0  0  0  0  0  0  0  0  0
   33.5990   29.2300   46.5200 H   0  0  0  0  0  0  0  0  0  0  0  0
   35.0900   27.7300   47.7070 H   0  0  0  0  0  0  0  0  0  0  0  0
   37.5010   29.8010   47.9370 O   0  0  0  0  0  0  0  0  0  0  0  0
   38.6980   31.9570   47.9490 C   0  0  0  0  0  0  0  0  0  0  0  0
   38.1560   30.8560   47.3700 C   0  0  0  0  0  0  0  0  0  0  0  0
   38.2520   30.7280   45.9790 C   0  0  0  0  0  0  0  0  0  0  0  0
   37.8660   29.9070   45.3860 H   0  0  0  0  0  0  0  0  0  0  0  0
   38.8850   31.7010   45.2130 C   0  0  0  0  0  0  0  0  0  0  0  0
   39.1440   31.8850   43.9040 N   0  0  0  0  0  0  0  0  0  0  0  0
   39.8150   33.0540   43.7250 C   0  0  0  0  0  0  0  0  0  0  0  0
   40.1700   33.4910   42.7970 H   0  0  0  0  0  0  0  0  0  0  0  0
   39.9680   33.5930   44.9490 N   0  0  0  0  0  0  0  0  0  0  0  0
   39.4150   32.7990   45.8750 C   0  0  0  0  0  0  0  0  0  0  0  0
   39.3320   32.9430   47.2400 C   0  0  0  0  0  0  0  0  0  0  0  0
   38.8780   31.2420   43.1450 H   0  0  0  0  0  0  0  0  0  0  0  0
  1  2  2  0  0  0  0
  1  6  1  0  0  0  0
  2  3  1  0  0  0  0
  3  7  1  0  0  0  0
  3  4  2  0  0  0  0
  5  4  1  0  0  0  0
  5  8  1  0  0  0  0
  6  5  2  0  0  0  0
  9 10  2  0  0  0  0
  9 11  1  0  0  0  0
 11  2  1  0  0  0  0
 12  9  1  0  0  0  0
 13 11  1  0  0  0  0
 14  1  1  0  0  0  0
 16 14  1  0  0  0  0
 16 15  1  0  0  0  0
 17 16  2  0  0  0  0
 18 17  1  0  0  0  0
 19 24  2  0  0  0  0
 19 17  1  0  0  0  0
 20 19  1  0  0  0  0
 21 20  1  0  0  0  0
 21 23  2  0  0  0  0
 22 21  1  0  0  0  0
 23 24  1  0  0  0  0
 24 25  1  0  0  0  0
 25 15  2  0  0  0  0
 26 20  1  0  0  0  0
M  END
>  <minimizedAffinity>
-5.02182436

>  <minimizedRMSD>
7.86638451

$$$$
