
 OpenBabel03262521093D

 27 29  0  0  0  0  0  0  0  0999 V2000
   35.8120   30.1000   46.1960 O   0  0  0  0  0  0  0  0  0  0  0  0
   34.4800   29.8070   46.8630 P   0  0  1  0  0  0  0  0  0  0  0  0
   34.3050   28.1240   47.1020 O   0  0  0  0  0  0  0  0  0  0  0  0
   33.4900   27.9710   47.6180 H   0  0  0  0  0  0  0  0  0  0  0  0
   34.3650   30.5050   48.4210 O   0  0  0  0  0  0  0  0  0  0  0  0
   35.3810   30.4130   49.3570 C   0  0  0  0  0  0  0  0  0  0  0  0
   35.4550   29.4440   50.3700 C   0  0  0  0  0  0  0  0  0  0  0  0
   36.5320   29.4730   51.2380 C   0  0  0  0  0  0  0  0  0  0  0  0
   37.4820   30.4500   51.0720 N   0  0  0  0  0  0  0  0  0  0  0  0
   37.3760   31.3800   50.0700 C   0  0  0  0  0  0  0  0  0  0  0  0
   36.3300   31.3540   49.2240 N   0  0  0  0  0  0  0  0  0  0  0  0
   34.6630   28.7400   50.4020 H   0  0  0  0  0  0  0  0  0  0  0  0
   36.5940   28.7380   52.0110 H   0  0  0  0  0  0  0  0  0  0  0  0
   38.1460   32.1420   49.9630 H   0  0  0  0  0  0  0  0  0  0  0  0
   33.2780   30.4080   45.8540 O   0  0  0  0  0  0  0  0  0  0  0  0
   31.3500   29.1190   46.6310 C   0  0  0  0  0  3  0  0  0  0  0  0
   31.9350   30.1280   45.8940 C   0  0  0  0  0  0  0  0  0  0  0  0
   31.1600   30.9770   45.0950 C   0  0  0  0  0  0  0  0  0  0  0  0
   31.5290   31.7840   44.4910 H   0  0  0  0  0  0  0  0  0  0  0  0
   29.7850   30.7700   45.0710 C   0  0  0  0  0  0  0  0  0  0  0  0
   28.7670   31.3740   44.4360 N   0  0  0  0  0  0  0  0  0  0  0  0
   27.5940   30.7790   44.7540 C   0  0  0  0  0  0  0  0  0  0  0  0
   26.5760   30.9910   44.4390 H   0  0  0  0  0  0  0  0  0  0  0  0
   27.8760   29.7660   45.6180 N   0  0  0  0  0  0  0  0  0  0  0  0
   29.2230   29.7550   45.8150 C   0  0  0  0  0  0  0  0  0  0  0  0
   29.9690   28.8970   46.6180 C   0  0  0  0  0  3  0  0  0  0  0  0
   28.8330   32.1980   43.7770 H   0  0  0  0  0  0  0  0  0  0  0  0
  2  1  2  6  0  0  0
  2  3  1  0  0  0  0
  2  5  1  0  0  0  0
  3  4  1  0  0  0  0
  5  6  1  0  0  0  0
  6  7  1  0  0  0  0
  7 12  1  0  0  0  0
  7  8  2  0  0  0  0
  8 13  1  0  0  0  0
  9  8  1  0  0  0  0
 10  9  2  0  0  0  0
 11  6  2  0  0  0  0
 11 10  1  0  0  0  0
 14 10  1  0  0  0  0
 15 17  1  0  0  0  0
 15  2  1  0  0  0  0
 17 16  2  0  0  0  0
 18 17  1  0  0  0  0
 19 18  1  0  0  0  0
 20 18  2  0  0  0  0
 20 25  1  0  0  0  0
 21 22  1  0  0  0  0
 21 20  1  0  0  0  0
 22 24  2  0  0  0  0
 23 22  1  0  0  0  0
 24 25  1  0  0  0  0
 25 26  2  0  0  0  0
 26 16  1  0  0  0  0
 27 21  1  0  0  0  0
M  END
>  <minimizedAffinity>
-4.18543863

>  <minimizedRMSD>
0.85524714

$$$$
