
 OpenBabel03272509573D

 49 53  0  0  0  0  0  0  0  0999 V2000
   33.4760   27.5900   47.6340 C   0  0  0  0  0  0  0  0  0  0  0  0
   33.6990   27.3820   46.5500 H   0  0  0  0  0  0  0  0  0  0  0  0
   33.6870   26.6610   48.1640 H   0  0  0  0  0  0  0  0  0  0  0  0
   32.0260   27.9020   47.7460 C   0  0  0  0  0  0  0  0  0  0  0  0
   31.3420   27.4230   48.8500 C   0  0  0  0  0  0  0  0  0  0  0  0
   30.0000   27.6680   49.0280 C   0  0  0  0  0  0  0  0  0  0  0  0
   29.3370   28.3830   48.1190 N   0  0  0  0  0  0  0  0  0  0  0  0
   30.0200   28.8500   47.0340 C   0  0  0  0  0  0  0  0  0  0  0  0
   31.3310   28.6210   46.8450 N   0  0  0  0  0  0  0  0  0  0  0  0
   31.8740   26.8420   49.5910 H   0  0  0  0  0  0  0  0  0  0  0  0
   29.4330   27.3110   49.8790 H   0  0  0  0  0  0  0  0  0  0  0  0
   29.2580   29.6470   46.0310 C   0  0  0  0  0  0  0  0  0  0  0  0
   29.9970   30.0100   45.2850 H   0  0  0  0  0  0  0  0  0  0  0  0
   28.7780   30.5340   46.4890 H   0  0  0  0  0  0  0  0  0  0  0  0
   26.8890   28.9350   45.4200 C   0  0  0  0  0  3  0  0  0  0  0  0
   28.2700   28.7850   45.3280 C   0  0  0  0  0  0  0  0  0  0  0  0
   28.7560   27.7560   44.5210 C   0  0  0  0  0  0  0  0  0  0  0  0
   29.8450   27.6320   44.4440 H   0  0  0  0  0  0  0  0  0  0  0  0
   27.9320   26.9030   43.8290 C   0  0  0  0  0  0  0  0  0  0  0  0
   28.1270   25.8680   43.0120 N   0  0  0  0  0  0  0  0  0  0  0  0
   26.9720   25.3500   42.5800 C   0  0  0  0  0  0  0  0  0  0  0  0
   26.9020   24.4980   41.9020 H   0  0  0  0  0  0  0  0  0  0  0  0
   25.9780   26.0930   43.1480 N   0  0  0  0  0  0  0  0  0  0  0  0
   26.5450   27.0460   43.9160 C   0  0  0  0  0  0  0  0  0  0  0  0
   26.0910   28.0720   44.7200 C   0  0  0  0  0  3  0  0  0  0  0  0
   29.1030   25.5490   42.7780 H   0  0  0  0  0  0  0  0  0  0  0  0
   34.3460   28.6920   48.1690 C   0  0  0  0  0  0  0  0  0  0  0  0
   33.8690   29.6810   48.1870 H   0  0  0  0  0  0  0  0  0  0  0  0
   35.2140   28.7810   47.4840 H   0  0  0  0  0  0  0  0  0  0  0  0
   34.8840   28.3420   49.4360 O   0  0  0  0  0  0  0  0  0  0  0  0
   37.1950   30.0630   51.6120 C   0  0  0  0  0  0  0  0  0  0  0  0
   37.9440   30.7720   50.6490 C   0  0  0  0  0  0  0  0  0  0  0  0
   37.6140   30.6200   49.3160 C   0  0  0  0  0  0  0  0  0  0  0  0
   36.5700   29.7770   49.0480 N   0  0  0  0  0  0  0  0  0  0  0  0
   35.8660   29.1100   49.9650 C   0  0  0  0  0  0  0  0  0  0  0  0
   36.1920   29.2620   51.2590 N   0  0  0  0  0  0  0  0  0  0  0  0
   37.4810   30.2070   52.6430 H   0  0  0  0  0  0  0  0  0  0  0  0
   38.7590   31.4310   50.8560 H   0  0  0  0  0  0  0  0  0  0  0  0
   38.8080   33.2500   49.2310 F   0  0  0  0  0  0  0  0  0  0  0  0
   38.8320   32.4830   48.1420 C   0  0  0  0  0  0  0  0  0  0  0  0
   38.2710   31.2670   48.2030 C   0  0  0  0  0  0  0  0  0  0  0  0
   38.3510   30.5490   47.0100 C   0  0  0  0  0  0  0  0  0  0  0  0
   38.9450   31.0400   45.8830 C   0  0  0  0  0  0  0  0  0  0  0  0
   39.5050   32.2990   45.8760 C   0  0  0  0  0  0  0  0  0  0  0  0
   39.4390   33.0190   47.0320 C   0  0  0  0  0  0  0  0  0  0  0  0
   37.9430   29.5350   46.8900 H   0  0  0  0  0  0  0  0  0  0  0  0
   39.0080   30.4820   44.9510 H   0  0  0  0  0  0  0  0  0  0  0  0
   39.9790   32.6920   44.9760 H   0  0  0  0  0  0  0  0  0  0  0  0
   39.8750   34.0100   47.0420 H   0  0  0  0  0  0  0  0  0  0  0  0
  1  4  1  0  0  0  0
  1  3  1  0  0  0  0
  1 27  1  0  0  0  0
  2  1  1  0  0  0  0
  4  5  1  0  0  0  0
  5  6  2  0  0  0  0
  5 10  1  0  0  0  0
  6 11  1  0  0  0  0
  7  6  1  0  0  0  0
  8  7  2  0  0  0  0
  9  8  1  0  0  0  0
  9  4  2  0  0  0  0
 12 14  1  0  0  0  0
 12  8  1  0  0  0  0
 13 12  1  0  0  0  0
 16 15  1  0  0  0  0
 16 12  1  0  0  0  0
 17 16  2  0  0  0  0
 18 17  1  0  0  0  0
 19 24  2  0  0  0  0
 19 17  1  0  0  0  0
 20 19  1  0  0  0  0
 21 20  1  0  0  0  0
 21 23  2  0  0  0  0
 22 21  1  0  0  0  0
 23 24  1  0  0  0  0
 24 25  1  0  0  0  0
 25 15  2  0  0  0  0
 26 20  1  0  0  0  0
 27 28  1  0  0  0  0
 27 30  1  0  0  0  0
 29 27  1  0  0  0  0
 30 35  1  0  0  0  0
 31 37  1  0  0  0  0
 32 38  1  0  0  0  0
 32 31  2  0  0  0  0
 33 32  1  0  0  0  0
 34 33  2  0  0  0  0
 34 35  1  0  0  0  0
 35 36  2  0  0  0  0
 36 31  1  0  0  0  0
 40 41  1  0  0  0  0
 40 39  1  0  0  0  0
 41 33  1  0  0  0  0
 42 41  2  0  0  0  0
 43 42  1  0  0  0  0
 44 43  2  0  0  0  0
 44 45  1  0  0  0  0
 45 49  1  0  0  0  0
 45 40  2  0  0  0  0
 46 42  1  0  0  0  0
 47 43  1  0  0  0  0
 48 44  1  0  0  0  0
M  END
>  <minimizedAffinity>
-6.79565763

>  <minimizedRMSD>
0.893357813

$$$$
