
 OpenBabel03272506383D

 40 43  0  0  1  0  0  0  0  0999 V2000
   34.5640   29.7420   49.9930 O   0  0  0  0  0  0  0  0  0  0  0  0
   34.3750   29.6640   48.7660 C   0  0  0  0  0  0  0  0  0  0  0  0
   35.1860   30.4090   47.8230 C   0  0  2  0  0  0  0  0  0  0  0  0
   34.6910   29.8070   46.4710 C   0  0  0  0  0  0  0  0  0  0  0  0
   33.2990   29.3620   46.7820 C   0  0  0  0  0  0  0  0  0  0  0  0
   33.3650   28.8580   48.1450 N   0  0  0  0  0  0  0  0  0  0  0  0
   35.0100   31.4760   47.7060 H   0  0  0  0  0  0  0  0  0  0  0  0
   35.3300   28.9350   46.2620 H   0  0  0  0  0  0  0  0  0  0  0  0
   34.7370   30.5790   45.6770 H   0  0  0  0  0  0  0  0  0  0  0  0
   32.5660   30.1720   46.7830 H   0  0  0  0  0  0  0  0  0  0  0  0
   32.9590   28.5290   46.1310 H   0  0  0  0  0  0  0  0  0  0  0  0
   32.5700   27.7830   48.7120 C   0  0  0  0  0  0  0  0  0  0  0  0
   31.5420   28.1410   48.8890 H   0  0  0  0  0  0  0  0  0  0  0  0
   33.0000   27.5550   49.7100 H   0  0  0  0  0  0  0  0  0  0  0  0
   33.7810   26.0470   47.5170 C   0  0  0  0  0  3  0  0  0  0  0  0
   32.5350   26.5910   47.8350 C   0  0  0  0  0  0  0  0  0  0  0  0
   31.3670   26.0370   47.3520 C   0  0  0  0  0  0  0  0  0  0  0  0
   30.4250   26.4740   47.6100 H   0  0  0  0  0  0  0  0  0  0  0  0
   31.4470   24.9230   46.5380 C   0  0  0  0  0  0  0  0  0  0  0  0
   30.5220   24.1600   45.9180 N   0  0  0  0  0  0  0  0  0  0  0  0
   31.1790   23.1890   45.2480 C   0  0  0  0  0  0  0  0  0  0  0  0
   30.7850   22.3890   44.6350 H   0  0  0  0  0  0  0  0  0  0  0  0
   32.5120   23.3350   45.4420 N   0  0  0  0  0  0  0  0  0  0  0  0
   32.7090   24.4010   46.2380 C   0  0  0  0  0  0  0  0  0  0  0  0
   33.8830   24.9420   46.7120 C   0  0  0  0  0  3  0  0  0  0  0  0
   29.4860   24.2940   45.9480 H   0  0  0  0  0  0  0  0  0  0  0  0
   36.5840   30.1000   47.8920 O   0  0  0  0  0  0  0  0  0  0  0  0
   37.4660   31.1680   48.0430 C   0  0  0  0  0  0  0  0  0  0  0  0
   37.6020   31.6780   49.3210 C   0  0  0  0  0  0  0  0  0  0  0  0
   38.4750   32.7440   49.5070 C   0  0  0  0  0  0  0  0  0  0  0  0
   39.1480   33.2370   48.4420 N   0  0  0  0  0  0  0  0  0  0  0  0
   39.0040   32.7270   47.1980 C   0  0  0  0  0  0  0  0  0  0  0  0
   38.1710   31.7110   47.0270 N   0  0  0  0  0  0  0  0  0  0  0  0
   40.5670   32.3080   45.4690 C   0  0  0  0  0  0  0  0  0  0  0  0
   40.7290   31.0900   45.7700 O   0  0  0  0  0  0  0  0  0  0  0  0
   39.7270   33.2690   46.0980 N   0  0  0  0  0  0  0  0  0  0  0  0
   37.0480   31.2590   50.1460 H   0  0  0  0  0  0  0  0  0  0  0  0
   38.5770   33.1320   50.4930 H   0  0  0  0  0  0  0  0  0  0  0  0
   41.1820   32.5760   44.6110 H   0  0  0  0  0  0  0  0  0  0  0  0
   39.6640   34.2550   45.7720 H   0  0  0  0  0  0  0  0  0  0  0  0
  2  1  2  0  0  0  0
  3  7  1  1  0  0  0
  3 27  1  0  0  0  0
  3  2  1  0  0  0  0
  4  5  1  0  0  0  0
  4  3  1  0  0  0  0
  5 10  1  0  0  0  0
  5  6  1  0  0  0  0
  6 12  1  0  0  0  0
  6  2  1  0  0  0  0
  8  4  1  0  0  0  0
  9  4  1  0  0  0  0
 11  5  1  0  0  0  0
 12 13  1  0  0  0  0
 12 14  1  0  0  0  0
 15 16  1  0  0  0  0
 16 12  1  0  0  0  0
 17 18  1  0  0  0  0
 17 16  2  0  0  0  0
 19 17  1  0  0  0  0
 20 26  1  0  0  0  0
 20 19  1  0  0  0  0
 21 23  2  0  0  0  0
 21 20  1  0  0  0  0
 22 21  1  0  0  0  0
 23 24  1  0  0  0  0
 24 19  2  0  0  0  0
 24 25  1  0  0  0  0
 25 15  2  0  0  0  0
 27 28  1  0  0  0  0
 28 29  1  0  0  0  0
 29 30  2  0  0  0  0
 29 37  1  0  0  0  0
 30 38  1  0  0  0  0
 31 30  1  0  0  0  0
 32 31  2  0  0  0  0
 33 32  1  0  0  0  0
 33 28  2  0  0  0  0
 34 35  2  0  0  0  0
 34 36  1  0  0  0  0
 36 32  1  0  0  0  0
 39 34  1  0  0  0  0
 40 36  1  0  0  0  0
M  END
>  <minimizedAffinity>
-5.98541594

>  <minimizedRMSD>
2.24001551

$$$$
