REMARK  Name = 
REMARK  4 active torsions:
REMARK  status: ('A' for Active; 'I' for Inactive)
REMARK    1  A    between atoms: C_2  and  S_8
REMARK    2  A    between atoms: C_6  and  O_7
REMARK    3  A    between atoms: S_8  and  C_9
REMARK    4  A    between atoms: C_13  and  C_26
REMARK                            x       y       z     vdW  Elec       q    Type
REMARK                         _______ _______ _______ _____ _____    ______ ____
ROOT
ATOM      1  C   UNL     1      37.289  30.746  48.811  0.00  0.00    +0.000 A 
ATOM      2  C   UNL     1      37.213  31.860  49.667  0.00  0.00    +0.000 A 
ATOM      3  C   UNL     1      38.046  32.947  49.371  0.00  0.00    +0.000 A 
ATOM      4  N   UNL     1      38.869  32.856  48.281  0.00  0.00    +0.000 NA
ATOM      5  C   UNL     1      38.903  31.770  47.496  0.00  0.00    +0.000 A 
ATOM      6  N   UNL     1      38.119  30.727  47.761  0.00  0.00    +0.000 NA
ATOM      7  H   UNL     1      36.584  31.963  50.524  0.00  0.00    +0.000 HD
ATOM      8  H   UNL     1      38.042  33.833  49.982  0.00  0.00    +0.000 HD
ENDROOT
BRANCH   5  10
ATOM      9  C   UNL     1      40.831  32.666  46.241  0.00  0.00    +0.000 A 
ATOM     10  C   UNL     1      39.804  31.739  46.350  0.00  0.00    +0.000 A 
ATOM     11  C   UNL     1      39.698  30.816  45.331  0.00  0.00    +0.000 A 
ATOM     12  H   UNL     1      38.876  30.095  45.445  0.00  0.00    +0.000 HD
ATOM     13  C   UNL     1      40.568  30.799  44.240  0.00  0.00    +0.000 A 
ATOM     14  N   UNL     1      40.613  29.975  43.160  0.00  0.00    +0.000 N 
ATOM     15  C   UNL     1      41.670  30.431  42.428  0.00  0.00    +0.000 A 
ATOM     16  H   UNL     1      42.022  30.027  41.493  0.00  0.00    +0.000 HD
ATOM     17  N   UNL     1      42.254  31.489  43.027  0.00  0.00    +0.000 NA
ATOM     18  C   UNL     1      41.575  31.741  44.175  0.00  0.00    +0.000 A 
ATOM     19  C   UNL     1      41.703  32.674  45.179  0.00  0.00    +0.000 A 
ATOM     20  H   UNL     1      39.988  29.184  42.943  0.00  0.00    +0.000 HD
ENDBRANCH   5  10
BRANCH   1  21
ATOM     21  S   UNL     1      36.180  29.446  49.307  0.00  0.00    +0.000 S 
BRANCH  21  23
ATOM     22  N   UNL     1      33.597  28.712  49.033  0.00  0.00    +0.000 NA
ATOM     23  C   UNL     1      34.444  29.879  48.918  0.00  0.00    +0.000 C 
ATOM     24  C   UNL     1      34.375  30.385  47.504  0.00  0.00    +0.000 C 
ATOM     25  O   UNL     1      33.246  29.862  46.838  0.00  0.00    +0.000 OA
ATOM     26  C   UNL     1      33.544  28.494  46.663  0.00  0.00    +0.000 C 
ATOM     27  C   UNL     1      33.930  27.814  47.946  0.00  0.00    +0.000 C 
ATOM     28  H   UNL     1      32.609  28.989  49.061  0.00  0.00    +0.000 HD
ATOM     29  H   UNL     1      34.068  30.639  49.663  0.00  0.00    +0.000 HD
ATOM     30  H   UNL     1      35.282  30.151  46.907  0.00  0.00    +0.000 HD
ATOM     31  H   UNL     1      34.206  31.481  47.543  0.00  0.00    +0.000 HD
ATOM     32  H   UNL     1      32.575  28.054  46.312  0.00  0.00    +0.000 HD
ATOM     33  H   UNL     1      34.267  28.316  45.846  0.00  0.00    +0.000 HD
ATOM     34  H   UNL     1      35.007  27.609  48.012  0.00  0.00    +0.000 HD
BRANCH  27  35
ATOM     35  O   UNL     1      33.170  26.641  48.135  0.00  0.00    +0.000 OA
ATOM     36  H   UNL     1      32.536  26.558  47.396  0.00  0.00    +0.000 HD
ENDBRANCH  27  35
ENDBRANCH  21  23
ENDBRANCH   1  21
TORSDOF 4
