
 OpenBabel03272502263D

 43 47  0  0  0  0  0  0  0  0999 V2000
   33.5780   26.6490   46.7450 N   0  0  0  0  0  0  0  0  0  0  0  0
   34.0840   26.8550   47.9750 C   0  0  0  0  0  0  0  0  0  0  0  0
   34.1320   28.1300   48.5000 C   0  0  0  0  0  0  0  0  0  0  0  0
   33.6460   29.1800   47.7260 C   0  0  0  0  0  0  0  0  0  0  0  0
   33.5910   30.4120   48.0020 O   0  0  0  0  0  0  0  0  0  0  0  0
   33.1440   28.9230   46.4900 N   0  0  0  0  0  0  0  0  0  0  0  0
   33.1120   27.6630   46.0060 C   0  0  0  0  0  0  0  0  0  0  0  0
   32.6540   27.3730   44.8600 O   0  0  0  0  0  0  0  0  0  0  0  0
   33.5800   25.6610   46.4300 H   0  0  0  0  0  0  0  0  0  0  0  0
   34.4800   26.1010   48.6370 H   0  0  0  0  0  0  0  0  0  0  0  0
   33.5690   30.3310   44.7080 C   0  0  0  0  0  3  0  0  0  0  0  0
   32.6220   29.9200   45.6170 C   0  0  0  0  0  0  0  0  0  0  0  0
   31.3540   30.4630   45.6040 C   0  0  0  0  0  0  0  0  0  0  0  0
   30.7010   30.0800   46.3420 H   0  0  0  0  0  0  0  0  0  0  0  0
   31.0870   31.4230   44.6530 C   0  0  0  0  0  0  0  0  0  0  0  0
   29.9410   32.0980   44.4350 N   0  0  0  0  0  0  0  0  0  0  0  0
   30.1230   32.9410   43.4030 C   0  0  0  0  0  0  0  0  0  0  0  0
   29.3780   33.6140   42.9990 H   0  0  0  0  0  0  0  0  0  0  0  0
   31.4070   32.7770   42.9810 N   0  0  0  0  0  0  0  0  0  0  0  0
   32.0340   31.8520   43.7250 C   0  0  0  0  0  0  0  0  0  0  0  0
   33.3010   31.3020   43.7440 C   0  0  0  0  0  3  0  0  0  0  0  0
   29.0510   32.0120   44.9510 H   0  0  0  0  0  0  0  0  0  0  0  0
   34.6050   28.5610   49.7210 O   0  0  0  0  0  0  0  0  0  0  0  0
   37.6200   30.1630   50.8970 C   0  0  0  0  0  0  0  0  0  0  0  0
   38.1140   30.7320   49.7120 C   0  0  0  0  0  0  0  0  0  0  0  0
   37.3790   30.5330   48.5620 C   0  0  0  0  0  0  0  0  0  0  0  0
   36.2470   29.8120   48.6570 N   0  0  0  0  0  0  0  0  0  0  0  0
   35.7890   29.2760   49.7970 C   0  0  0  0  0  0  0  0  0  0  0  0
   36.4890   29.4560   50.9310 N   0  0  0  0  0  0  0  0  0  0  0  0
   38.2070   30.3290   51.7810 H   0  0  0  0  0  0  0  0  0  0  0  0
   39.0330   31.3100   49.6650 H   0  0  0  0  0  0  0  0  0  0  0  0
   37.7680   31.0700   47.2760 C   0  0  0  0  0  0  0  0  0  0  0  0
   37.0450   30.7630   46.1280 C   0  0  0  0  0  0  0  0  0  0  0  0
   37.3700   31.2490   44.8910 C   0  0  0  0  0  0  0  0  0  0  0  0
   38.4440   32.0710   44.7600 N   0  0  0  0  0  0  0  0  0  0  0  0
   39.1250   32.3530   45.8830 C   0  0  0  0  0  0  0  0  0  0  0  0
   38.8250   31.8870   47.1020 N   0  0  0  0  0  0  0  0  0  0  0  0
   36.1900   30.1070   46.2410 H   0  0  0  0  0  0  0  0  0  0  0  0
   36.7680   30.9730   44.0360 H   0  0  0  0  0  0  0  0  0  0  0  0
   40.3050   33.2500   45.7740 C   0  0  0  0  0  0  0  0  0  0  0  0
   40.3750   33.9840   46.9770 F   0  0  0  0  0  0  0  0  0  0  0  0
   41.4490   32.5560   45.5290 F   0  0  0  0  0  0  0  0  0  0  0  0
   40.1190   34.2180   44.8010 F   0  0  0  0  0  0  0  0  0  0  0  0
  1  2  1  0  0  0  0
  2  3  2  0  0  0  0
  2 10  1  0  0  0  0
  3 23  1  0  0  0  0
  4  5  2  0  0  0  0
  4  3  1  0  0  0  0
  6  4  1  0  0  0  0
  7  6  1  0  0  0  0
  7  1  1  0  0  0  0
  8  7  2  0  0  0  0
  9  1  1  0  0  0  0
 11 12  1  0  0  0  0
 12  6  1  0  0  0  0
 13 12  2  0  0  0  0
 13 14  1  0  0  0  0
 15 13  1  0  0  0  0
 16 15  1  0  0  0  0
 16 22  1  0  0  0  0
 17 16  1  0  0  0  0
 18 17  1  0  0  0  0
 19 17  2  0  0  0  0
 19 20  1  0  0  0  0
 20 21  1  0  0  0  0
 20 15  2  0  0  0  0
 21 11  2  0  0  0  0
 23 28  1  0  0  0  0
 24 29  1  0  0  0  0
 24 30  1  0  0  0  0
 25 24  2  0  0  0  0
 26 27  2  0  0  0  0
 26 25  1  0  0  0  0
 27 28  1  0  0  0  0
 28 29  2  0  0  0  0
 31 25  1  0  0  0  0
 32 26  1  0  0  0  0
 33 38  1  0  0  0  0
 33 32  2  0  0  0  0
 34 33  1  0  0  0  0
 35 34  2  0  0  0  0
 35 36  1  0  0  0  0
 36 37  2  0  0  0  0
 37 32  1  0  0  0  0
 39 34  1  0  0  0  0
 40 36  1  0  0  0  0
 40 41  1  0  0  0  0
 42 40  1  0  0  0  0
 43 40  1  0  0  0  0
M  END
>  <minimizedAffinity>
-6.993927

>  <minimizedRMSD>
1.66888392

$$$$
