
 OpenBabel03272500383D

 39 42  0  0  1  0  0  0  0  0999 V2000
   36.6000   30.9850   48.7780 C   0  0  0  0  0  0  0  0  0  0  0  0
   36.8970   31.9930   49.6970 C   0  0  0  0  0  0  0  0  0  0  0  0
   37.8840   32.9280   49.3520 C   0  0  0  0  0  0  0  0  0  0  0  0
   38.4800   32.7790   48.1330 N   0  0  0  0  0  0  0  0  0  0  0  0
   38.1630   31.7860   47.2670 C   0  0  0  0  0  0  0  0  0  0  0  0
   37.2230   30.9000   47.6060 N   0  0  0  0  0  0  0  0  0  0  0  0
   38.8630   31.7400   46.0220 N   0  0  0  0  0  0  0  0  0  0  0  0
   40.0930   30.9830   45.9500 C   0  0  0  0  0  0  0  0  0  0  0  0
   41.0580   31.8770   45.1780 C   0  0  0  0  0  0  0  0  0  0  0  0
   40.5150   31.9070   43.7660 C   0  0  0  0  0  0  0  0  0  0  0  0
   39.2550   32.7130   43.7860 C   0  0  0  0  0  0  0  0  0  0  0  0
   38.3230   32.4320   44.9150 C   0  0  1  0  0  0  0  0  0  0  0  0
   36.4080   32.0750   50.6410 H   0  0  0  0  0  0  0  0  0  0  0  0
   38.1700   33.7380   50.0100 H   0  0  0  0  0  0  0  0  0  0  0  0
   39.9590   30.0720   45.3430 H   0  0  0  0  0  0  0  0  0  0  0  0
   40.4980   30.7290   46.9500 H   0  0  0  0  0  0  0  0  0  0  0  0
   40.9530   32.8920   45.5940 H   0  0  0  0  0  0  0  0  0  0  0  0
   42.0940   31.4830   45.2250 H   0  0  0  0  0  0  0  0  0  0  0  0
   41.2230   32.4000   43.0670 H   0  0  0  0  0  0  0  0  0  0  0  0
   40.3380   30.8510   43.4740 H   0  0  0  0  0  0  0  0  0  0  0  0
   38.7430   32.5280   42.8070 H   0  0  0  0  0  0  0  0  0  0  0  0
   39.5640   33.7790   43.7230 H   0  0  0  0  0  0  0  0  0  0  0  0
   37.9990   33.4410   45.3120 H   0  0  0  0  0  0  0  0  0  0  0  0
   36.2630   32.4310   43.4680 C   0  0  0  0  0  3  0  0  0  0  0  0
   37.0740   31.8100   44.3980 C   0  0  0  0  0  0  0  0  0  0  0  0
   36.6430   30.5540   44.8190 C   0  0  0  0  0  0  0  0  0  0  0  0
   37.2350   30.0090   45.5490 H   0  0  0  0  0  0  0  0  0  0  0  0
   35.4870   29.9720   44.3430 C   0  0  0  0  0  0  0  0  0  0  0  0
   34.9040   28.7740   44.6260 N   0  0  0  0  0  0  0  0  0  0  0  0
   33.7830   28.7280   43.8640 C   0  0  0  0  0  0  0  0  0  0  0  0
   33.1090   27.8700   43.8870 H   0  0  0  0  0  0  0  0  0  0  0  0
   33.6560   29.8450   43.1300 N   0  0  0  0  0  0  0  0  0  0  0  0
   34.7030   30.6260   43.4150 C   0  0  0  0  0  0  0  0  0  0  0  0
   35.1020   31.8720   42.9760 C   0  0  0  0  0  3  0  0  0  0  0  0
   35.2450   28.0430   45.2870 H   0  0  0  0  0  0  0  0  0  0  0  0
   35.5450   29.9800   49.1390 C   0  0  0  0  0  0  0  0  0  0  0  0
   34.5280   30.6050   49.8620 F   0  0  0  0  0  0  0  0  0  0  0  0
   35.1140   29.3710   48.0040 F   0  0  0  0  0  0  0  0  0  0  0  0
   36.1280   29.0710   50.0110 F   0  0  0  0  0  0  0  0  0  0  0  0
  1 36  1  0  0  0  0
  1  2  1  0  0  0  0
  2 13  1  0  0  0  0
  3  2  2  0  0  0  0
  3 14  1  0  0  0  0
  4  3  1  0  0  0  0
  5  6  1  0  0  0  0
  5  4  2  0  0  0  0
  6  1  2  0  0  0  0
  7  5  1  0  0  0  0
  8  7  1  0  0  0  0
  8 16  1  0  0  0  0
  9 18  1  0  0  0  0
  9 17  1  0  0  0  0
  9  8  1  0  0  0  0
 10 11  1  0  0  0  0
 10  9  1  0  0  0  0
 11 12  1  0  0  0  0
 12 23  1  1  0  0  0
 12  7  1  0  0  0  0
 15  8  1  0  0  0  0
 19 10  1  0  0  0  0
 20 10  1  0  0  0  0
 21 11  1  0  0  0  0
 22 11  1  0  0  0  0
 24 25  1  0  0  0  0
 25 26  2  0  0  0  0
 25 12  1  0  0  0  0
 26 27  1  0  0  0  0
 28 29  1  0  0  0  0
 28 26  1  0  0  0  0
 29 35  1  0  0  0  0
 30 31  1  0  0  0  0
 30 29  1  0  0  0  0
 32 33  1  0  0  0  0
 32 30  2  0  0  0  0
 33 28  2  0  0  0  0
 34 33  1  0  0  0  0
 34 24  2  0  0  0  0
 36 37  1  0  0  0  0
 36 39  1  0  0  0  0
 38 36  1  0  0  0  0
M  END
>  <minimizedAffinity>
-6.51143503

>  <minimizedRMSD>
0.693187594

$$$$
