
 OpenBabel03272502173D

 36 39  0  0  1  0  0  0  0  0999 V2000
   37.2770   30.4560   49.1600 C   0  0  0  0  0  0  0  0  0  0  0  0
   37.5430   31.5330   50.0260 C   0  0  0  0  0  0  0  0  0  0  0  0
   38.3790   32.5470   49.5400 C   0  0  0  0  0  0  0  0  0  0  0  0
   38.8760   32.4260   48.2710 N   0  0  0  0  0  0  0  0  0  0  0  0
   38.5910   31.3780   47.4850 C   0  0  0  0  0  0  0  0  0  0  0  0
   37.7990   30.4040   47.9290 N   0  0  0  0  0  0  0  0  0  0  0  0
   37.1730   31.6570   51.0200 H   0  0  0  0  0  0  0  0  0  0  0  0
   38.6260   33.4010   50.1470 H   0  0  0  0  0  0  0  0  0  0  0  0
   39.7460   32.4320   45.5740 C   0  0  0  0  0  3  0  0  0  0  0  0
   39.1540   31.3120   46.1420 C   0  0  0  0  0  0  0  0  0  0  0  0
   39.1380   30.1680   45.3720 C   0  0  0  0  0  0  0  0  0  0  0  0
   38.6620   29.2990   45.8470 H   0  0  0  0  0  0  0  0  0  0  0  0
   39.6810   30.1210   44.0870 C   0  0  0  0  0  0  0  0  0  0  0  0
   39.7530   29.0970   43.1970 N   0  0  0  0  0  0  0  0  0  0  0  0
   40.3870   29.6300   42.1130 C   0  0  0  0  0  0  0  0  0  0  0  0
   40.6280   29.1180   41.1970 H   0  0  0  0  0  0  0  0  0  0  0  0
   40.6950   30.9270   42.3230 N   0  0  0  0  0  0  0  0  0  0  0  0
   40.2580   31.2600   43.5640 C   0  0  0  0  0  0  0  0  0  0  0  0
   40.2890   32.4160   44.3120 C   0  0  0  0  0  3  0  0  0  0  0  0
   39.4050   28.1330   43.3140 H   0  0  0  0  0  0  0  0  0  0  0  0
   36.2060   29.2470   49.9080 S   0  0  0  0  0  0  0  0  0  0  0  0
   33.7790   28.2770   49.2340 N   0  0  0  0  0  0  0  0  0  0  0  0
   34.4600   29.5370   49.4390 C   0  0  2  0  0  0  0  0  0  0  0  0
   34.4250   30.3170   48.1550 C   0  0  0  0  0  0  0  0  0  0  0  0
   33.4330   29.8120   47.2870 O   0  0  0  0  0  0  0  0  0  0  0  0
   33.9320   28.5590   46.8750 C   0  0  0  0  0  0  0  0  0  0  0  0
   34.3140   27.6760   48.0290 C   0  0  2  0  0  0  0  0  0  0  0  0
   32.7630   28.4190   49.2160 H   0  0  0  0  0  0  0  0  0  0  0  0
   33.9280   30.0710   50.2790 H   0  0  0  0  0  0  0  0  0  0  0  0
   35.3980   30.3270   47.6180 H   0  0  0  0  0  0  0  0  0  0  0  0
   34.1020   31.3510   48.3940 H   0  0  0  0  0  0  0  0  0  0  0  0
   33.0630   28.0870   46.3470 H   0  0  0  0  0  0  0  0  0  0  0  0
   34.7310   28.6460   46.1160 H   0  0  0  0  0  0  0  0  0  0  0  0
   35.4010   27.5950   48.1610 H   0  0  0  0  0  0  0  0  0  0  0  0
   33.7140   26.4060   47.9030 O   0  0  0  0  0  0  0  0  0  0  0  0
   33.1550   26.4030   47.1020 H   0  0  0  0  0  0  0  0  0  0  0  0
  1 21  1  0  0  0  0
  1  2  1  0  0  0  0
  2  7  1  0  0  0  0
  3  2  2  0  0  0  0
  3  8  1  0  0  0  0
  4  3  1  0  0  0  0
  5  6  1  0  0  0  0
  5  4  2  0  0  0  0
  6  1  2  0  0  0  0
  9 10  1  0  0  0  0
 10  5  1  0  0  0  0
 11 12  1  0  0  0  0
 11 10  2  0  0  0  0
 13 11  1  0  0  0  0
 14 20  1  0  0  0  0
 14 13  1  0  0  0  0
 15 17  2  0  0  0  0
 15 14  1  0  0  0  0
 16 15  1  0  0  0  0
 17 18  1  0  0  0  0
 18 13  2  0  0  0  0
 18 19  1  0  0  0  0
 19  9  2  0  0  0  0
 22 23  1  0  0  0  0
 23 21  1  0  0  0  0
 23 29  1  1  0  0  0
 24 31  1  0  0  0  0
 24 23  1  0  0  0  0
 25 24  1  0  0  0  0
 26 25  1  0  0  0  0
 26 27  1  0  0  0  0
 27 34  1  1  0  0  0
 27 22  1  0  0  0  0
 28 22  1  0  0  0  0
 30 24  1  0  0  0  0
 32 26  1  0  0  0  0
 33 26  1  0  0  0  0
 35 27  1  0  0  0  0
 36 35  1  0  0  0  0
M  END
>  <minimizedAffinity>
-6.43861103

>  <minimizedRMSD>
0.955530703

$$$$
