REMARK  Name = 
REMARK  4 active torsions:
REMARK  status: ('A' for Active; 'I' for Inactive)
REMARK    1  A    between atoms: C_3  and  C_13
REMARK    2  A    between atoms: C_8  and  C_19
REMARK    3  A    between atoms: C_10  and  C_15
REMARK    4  A    between atoms: C_11  and  C_27
REMARK                            x       y       z     vdW  Elec       q    Type
REMARK                         _______ _______ _______ _____ _____    ______ ____
ROOT
ATOM      1  C   UNL     1      35.397  29.294  50.441  0.00  0.00    +0.000 A 
ATOM      2  C   UNL     1      36.335  30.124  49.788  0.00  0.00    +0.000 A 
ATOM      3  C   UNL     1      36.302  30.197  48.404  0.00  0.00    +0.000 A 
ATOM      4  N   UNL     1      35.353  29.453  47.755  0.00  0.00    +0.000 NA
ATOM      5  C   UNL     1      34.482  28.680  48.384  0.00  0.00    +0.000 A 
ATOM      6  N   UNL     1      34.499  28.597  49.715  0.00  0.00    +0.000 NA
ATOM      7  H   UNL     1      35.444  29.255  51.511  0.00  0.00    +0.000 HD
ENDROOT
BRANCH   3   9
ATOM      8  C   UNL     1      38.397  31.210  48.068  0.00  0.00    +0.000 A 
ATOM      9  C   UNL     1      37.115  31.000  47.530  0.00  0.00    +0.000 A 
ATOM     10  C   UNL     1      36.939  31.642  46.332  0.00  0.00    +0.000 A 
ATOM     11  H   UNL     1      35.986  31.555  45.890  0.00  0.00    +0.000 HD
ATOM     12  C   UNL     1      37.908  32.402  45.725  0.00  0.00    +0.000 A 
ATOM     13  N   UNL     1      37.853  33.072  44.561  0.00  0.00    +0.000 N 
ATOM     14  C   UNL     1      39.043  33.664  44.390  0.00  0.00    +0.000 A 
ATOM     15  H   UNL     1      39.305  34.285  43.527  0.00  0.00    +0.000 HD
ATOM     16  N   UNL     1      39.822  33.370  45.425  0.00  0.00    +0.000 NA
ATOM     17  C   UNL     1      39.154  32.584  46.283  0.00  0.00    +0.000 A 
ATOM     18  C   UNL     1      39.393  31.966  47.489  0.00  0.00    +0.000 A 
ATOM     19  H   UNL     1      37.034  33.134  43.888  0.00  0.00    +0.000 HD
ENDBRANCH   3   9
BRANCH   5  22
ATOM     20 CL   UNL     1      32.682  30.302  46.570  0.00  0.00    +0.000 Cl
ATOM     21  C   UNL     1      32.630  28.552  46.728  0.00  0.00    +0.000 A 
ATOM     22  C   UNL     1      33.510  27.915  47.595  0.00  0.00    +0.000 A 
ATOM     23  C   UNL     1      33.512  26.520  47.757  0.00  0.00    +0.000 A 
ATOM     24  C   UNL     1      32.580  25.814  46.995  0.00  0.00    +0.000 A 
ATOM     25  C   UNL     1      31.709  26.419  46.140  0.00  0.00    +0.000 A 
ATOM     26 CL   UNL     1      30.590  25.425  45.242  0.00  0.00    +0.000 Cl
ATOM     27  C   UNL     1      31.741  27.803  46.011  0.00  0.00    +0.000 A 
ATOM     28  H   UNL     1      34.202  26.032  48.436  0.00  0.00    +0.000 HD
ATOM     29  H   UNL     1      32.569  24.730  47.109  0.00  0.00    +0.000 HD
BRANCH  27  30
ATOM     30  C   UNL     1      30.798  28.478  45.084  0.00  0.00    +0.000 C 
ATOM     31  F   UNL     1      29.830  27.574  44.636  0.00  0.00    +0.000 F 
ATOM     32  F   UNL     1      31.425  29.077  44.039  0.00  0.00    +0.000 F 
ATOM     33  F   UNL     1      30.090  29.456  45.785  0.00  0.00    +0.000 F 
ENDBRANCH  27  30
ENDBRANCH   5  22
BRANCH   2  34
ATOM     34  C   UNL     1      37.303  30.910  50.597  0.00  0.00    +0.000 C 
ATOM     35  F   UNL     1      38.595  30.764  50.128  0.00  0.00    +0.000 F 
ATOM     36  F   UNL     1      36.948  32.251  50.549  0.00  0.00    +0.000 F 
ATOM     37  F   UNL     1      37.290  30.538  51.930  0.00  0.00    +0.000 F 
ENDBRANCH   2  34
TORSDOF 4
