REMARK  Name = 
REMARK  2 active torsions:
REMARK  status: ('A' for Active; 'I' for Inactive)
REMARK    1  A    between atoms: C_1  and  C_13
REMARK    2  A    between atoms: C_12  and  C_29
REMARK                            x       y       z     vdW  Elec       q    Type
REMARK                         _______ _______ _______ _____ _____    ______ ____
ROOT
ATOM      1  C   UNL     1      36.717  31.105  49.093  0.00  0.00    +0.000 A 
ATOM      2  C   UNL     1      37.064  32.160  49.938  0.00  0.00    +0.000 A 
ATOM      3  C   UNL     1      37.992  33.101  49.468  0.00  0.00    +0.000 A 
ATOM      4  N   UNL     1      38.486  32.910  48.210  0.00  0.00    +0.000 NA
ATOM      5  C   UNL     1      38.123  31.872  47.419  0.00  0.00    +0.000 A 
ATOM      6  N   UNL     1      37.239  30.981  47.876  0.00  0.00    +0.000 NA
ATOM      7  N   UNL     1      38.715  31.785  46.121  0.00  0.00    +0.000 N 
ATOM      8  C   UNL     1      39.954  31.055  45.975  0.00  0.00    +0.000 C 
ATOM      9  C   UNL     1      40.825  31.935  45.085  0.00  0.00    +0.000 C 
ATOM     10  C   UNL     1      40.163  31.888  43.725  0.00  0.00    +0.000 C 
ATOM     11  C   UNL     1      38.888  32.664  43.819  0.00  0.00    +0.000 C 
ATOM     12  C   UNL     1      38.064  32.414  45.036  0.00  0.00    +0.000 C 
ATOM     13  H   UNL     1      36.655  32.274  50.916  0.00  0.00    +0.000 HD
ATOM     14  H   UNL     1      38.312  33.946  50.063  0.00  0.00    +0.000 HD
ATOM     15  H   UNL     1      39.793  30.114  45.422  0.00  0.00    +0.000 HD
ATOM     16  H   UNL     1      40.450  30.856  46.947  0.00  0.00    +0.000 HD
ATOM     17  H   UNL     1      40.729  32.965  45.464  0.00  0.00    +0.000 HD
ATOM     18  H   UNL     1      41.871  31.567  45.059  0.00  0.00    +0.000 HD
ATOM     19  H   UNL     1      40.795  32.365  42.947  0.00  0.00    +0.000 HD
ATOM     20  H   UNL     1      39.990  30.816  43.496  0.00  0.00    +0.000 HD
ATOM     21  H   UNL     1      38.299  32.423  42.897  0.00  0.00    +0.000 HD
ATOM     22  H   UNL     1      39.161  33.733  43.684  0.00  0.00    +0.000 HD
ATOM     23  H   UNL     1      37.748  33.432  45.415  0.00  0.00    +0.000 HD
ENDROOT
BRANCH  12  25
ATOM     24  C   UNL     1      36.149  31.985  43.457  0.00  0.00    +0.000 A 
ATOM     25  C   UNL     1      36.792  31.740  44.656  0.00  0.00    +0.000 A 
ATOM     26  C   UNL     1      36.166  30.816  45.488  0.00  0.00    +0.000 A 
ATOM     27  H   UNL     1      36.618  30.575  46.447  0.00  0.00    +0.000 HD
ATOM     28  C   UNL     1      34.988  30.188  45.141  0.00  0.00    +0.000 A 
ATOM     29  N   UNL     1      34.233  29.270  45.805  0.00  0.00    +0.000 N 
ATOM     30  C   UNL     1      33.182  29.006  44.987  0.00  0.00    +0.000 A 
ATOM     31  H   UNL     1      32.404  28.296  45.267  0.00  0.00    +0.000 HD
ATOM     32  N   UNL     1      33.265  29.723  43.855  0.00  0.00    +0.000 NA
ATOM     33  C   UNL     1      34.378  30.460  43.935  0.00  0.00    +0.000 A 
ATOM     34  C   UNL     1      34.971  31.372  43.086  0.00  0.00    +0.000 A 
ATOM     35  H   UNL     1      34.418  28.854  46.744  0.00  0.00    +0.000 HD
ENDBRANCH  12  25
BRANCH   1  36
ATOM     36  C   UNL     1      35.724  30.093  49.587  0.00  0.00    +0.000 C 
ATOM     37  F   UNL     1      34.442  30.644  49.567  0.00  0.00    +0.000 F 
ATOM     38  F   UNL     1      35.845  28.962  48.844  0.00  0.00    +0.000 F 
ATOM     39  F   UNL     1      36.014  29.854  50.923  0.00  0.00    +0.000 F 
ENDBRANCH   1  36
TORSDOF 2
