
 OpenBabel03262523073D

 44 49  0  0  0  0  0  0  0  0999 V2000
   36.7620   27.1380   31.4480 C   0  0  0  0  0  0  0  0  0  0  0  0
   37.0430   27.8340   30.2950 C   0  0  0  0  0  0  0  0  0  0  0  0
   36.6370   29.1340   30.1950 C   0  0  0  0  0  0  0  0  0  0  0  0
   35.9650   29.7270   31.2220 N   0  0  0  0  0  0  0  0  0  0  0  0
   35.7120   29.0170   32.3240 C   0  0  0  0  0  0  0  0  0  0  0  0
   36.1000   27.7280   32.4560 N   0  0  0  0  0  0  0  0  0  0  0  0
   37.5660   27.3920   29.4810 H   0  0  0  0  0  0  0  0  0  0  0  0
   36.8520   29.6940   29.2910 H   0  0  0  0  0  0  0  0  0  0  0  0
   34.9980   29.6510   33.4130 C   0  0  0  0  0  0  0  0  0  0  0  0
   33.6560   29.4030   33.6250 C   0  0  0  0  0  0  0  0  0  0  0  0
   32.8440   29.9220   34.6060 C   0  0  0  0  0  0  0  0  0  0  0  0
   33.4940   30.8000   35.4670 C   0  0  0  0  0  0  0  0  0  0  0  0
   32.7560   31.3570   36.4680 N   0  0  0  0  0  0  0  0  0  0  0  0
   33.2930   32.2200   37.3580 C   0  0  0  0  0  0  0  0  0  0  0  0
   34.6400   32.5520   37.2490 C   0  0  0  0  0  0  0  0  0  0  0  0
   35.3780   31.9810   36.2310 C   0  0  0  0  0  0  0  0  0  0  0  0
   34.8270   31.0910   35.3140 C   0  0  0  0  0  0  0  0  0  0  0  0
   35.5690   30.5230   34.3000 C   0  0  0  0  0  0  0  0  0  0  0  0
   33.1710   28.7040   32.9260 H   0  0  0  0  0  0  0  0  0  0  0  0
   31.8090   29.6500   34.6670 H   0  0  0  0  0  0  0  0  0  0  0  0
   32.6960   32.6570   38.1480 H   0  0  0  0  0  0  0  0  0  0  0  0
   35.1370   33.2370   37.9260 H   0  0  0  0  0  0  0  0  0  0  0  0
   36.4420   32.2440   36.1470 H   0  0  0  0  0  0  0  0  0  0  0  0
   36.6180   30.7650   34.1940 H   0  0  0  0  0  0  0  0  0  0  0  0
   37.5370   23.6120   30.7660 C   0  0  0  0  0  0  0  0  0  0  0  0
   37.9790   23.1530   32.0220 C   0  0  0  0  0  0  0  0  0  0  0  0
   38.0010   24.0770   33.0880 C   0  0  0  0  0  0  0  0  0  0  0  0
   37.5960   25.3410   32.8320 N   0  0  0  0  0  0  0  0  0  0  0  0
   37.1760   25.7440   31.6030 C   0  0  0  0  0  0  0  0  0  0  0  0
   37.1490   24.8800   30.5800 N   0  0  0  0  0  0  0  0  0  0  0  0
   37.5230   22.8960   29.9520 H   0  0  0  0  0  0  0  0  0  0  0  0
   38.3020   22.1400   32.2180 H   0  0  0  0  0  0  0  0  0  0  0  0
   39.3980   22.7730   34.5540 C   0  0  0  0  0  3  0  0  0  0  0  0
   38.4320   23.7440   34.4350 C   0  0  0  0  0  0  0  0  0  0  0  0
   37.9340   24.3390   35.5690 C   0  0  0  0  0  0  0  0  0  0  0  0
   37.1840   25.0950   35.4970 H   0  0  0  0  0  0  0  0  0  0  0  0
   38.3660   24.0000   36.8340 C   0  0  0  0  0  0  0  0  0  0  0  0
   38.0500   24.4190   38.0860 N   0  0  0  0  0  0  0  0  0  0  0  0
   38.8130   23.7120   38.9490 C   0  0  0  0  0  0  0  0  0  0  0  0
   38.6770   23.9320   39.9970 H   0  0  0  0  0  0  0  0  0  0  0  0
   39.5840   22.8730   38.2300 N   0  0  0  0  0  0  0  0  0  0  0  0
   39.3350   23.0220   36.9210 C   0  0  0  0  0  0  0  0  0  0  0  0
   39.8690   22.3940   35.8160 C   0  0  0  0  0  3  0  0  0  0  0  0
   37.3270   25.1630   38.2320 H   0  0  0  0  0  0  0  0  0  0  0  0
  1 29  1  0  0  0  0
  1  6  1  0  0  0  0
  2  1  2  0  0  0  0
  3  2  1  0  0  0  0
  3  4  2  0  0  0  0
  4  5  1  0  0  0  0
  5  6  2  0  0  0  0
  5  9  1  0  0  0  0
  7  2  1  0  0  0  0
  8  3  1  0  0  0  0
  9 10  2  0  0  0  0
  9 18  1  0  0  0  0
 10 11  1  0  0  0  0
 11 20  1  0  0  0  0
 11 12  2  0  0  0  0
 12 13  1  0  0  0  0
 13 14  2  0  0  0  0
 14 21  1  0  0  0  0
 15 14  1  0  0  0  0
 15 22  1  0  0  0  0
 16 15  2  0  0  0  0
 17 12  1  0  0  0  0
 17 16  1  0  0  0  0
 18 17  2  0  0  0  0
 19 10  1  0  0  0  0
 23 16  1  0  0  0  0
 24 18  1  0  0  0  0
 25 26  1  0  0  0  0
 26 32  1  0  0  0  0
 26 27  2  0  0  0  0
 27 34  1  0  0  0  0
 28 27  1  0  0  0  0
 29 28  2  0  0  0  0
 30 25  2  0  0  0  0
 30 29  1  0  0  0  0
 31 25  1  0  0  0  0
 33 43  1  0  0  0  0
 34 33  2  0  0  0  0
 34 35  1  0  0  0  0
 35 37  2  0  0  0  0
 36 35  1  0  0  0  0
 37 42  1  0  0  0  0
 37 38  1  0  0  0  0
 38 44  1  0  0  0  0
 38 39  1  0  0  0  0
 39 40  1  0  0  0  0
 41 39  2  0  0  0  0
 42 41  1  0  0  0  0
 43 42  2  0  0  0  0
M  END
>  <minimizedAffinity>
-7.37691879

$$$$

 OpenBabel03262523073D

 44 49  0  0  0  0  0  0  0  0999 V2000
   36.2600   26.0920   31.7510 C   0  0  0  0  0  0  0  0  0  0  0  0
   35.4070   25.2990   31.0190 C   0  0  0  0  0  0  0  0  0  0  0  0
   35.5070   23.9420   31.1360 C   0  0  0  0  0  0  0  0  0  0  0  0
   36.4390   23.3880   31.9630 N   0  0  0  0  0  0  0  0  0  0  0  0
   37.2480   24.1940   32.6560 C   0  0  0  0  0  0  0  0  0  0  0  0
   37.1750   25.5410   32.5640 N   0  0  0  0  0  0  0  0  0  0  0  0
   34.6730   25.7080   30.3670 H   0  0  0  0  0  0  0  0  0  0  0  0
   34.8400   23.3050   30.5650 H   0  0  0  0  0  0  0  0  0  0  0  0
   38.2360   23.6020   33.5350 C   0  0  0  0  0  0  0  0  0  0  0  0
   39.2760   22.8480   33.0310 C   0  0  0  0  0  0  0  0  0  0  0  0
   40.2850   22.2250   33.7260 C   0  0  0  0  0  0  0  0  0  0  0  0
   40.2090   22.4010   35.1040 C   0  0  0  0  0  0  0  0  0  0  0  0
   41.1740   21.8140   35.8650 N   0  0  0  0  0  0  0  0  0  0  0  0
   41.1910   21.9260   37.2120 C   0  0  0  0  0  0  0  0  0  0  0  0
   40.1920   22.6620   37.8410 C   0  0  0  0  0  0  0  0  0  0  0  0
   39.2190   23.2530   37.0590 C   0  0  0  0  0  0  0  0  0  0  0  0
   39.2000   23.1400   35.6720 C   0  0  0  0  0  0  0  0  0  0  0  0
   38.2270   23.7330   34.8970 C   0  0  0  0  0  0  0  0  0  0  0  0
   39.3080   22.7270   31.9370 H   0  0  0  0  0  0  0  0  0  0  0  0
   41.0430   21.6630   33.2180 H   0  0  0  0  0  0  0  0  0  0  0  0
   41.9630   21.4540   37.8060 H   0  0  0  0  0  0  0  0  0  0  0  0
   40.1430   22.7940   38.9160 H   0  0  0  0  0  0  0  0  0  0  0  0
   38.4310   23.8360   37.5580 H   0  0  0  0  0  0  0  0  0  0  0  0
   37.4390   24.3110   35.3620 H   0  0  0  0  0  0  0  0  0  0  0  0
   36.5080   29.5460   30.5230 C   0  0  0  0  0  0  0  0  0  0  0  0
   36.0110   30.2890   31.6120 C   0  0  0  0  0  0  0  0  0  0  0  0
   35.5980   29.5770   32.7570 C   0  0  0  0  0  0  0  0  0  0  0  0
   35.7050   28.2300   32.7320 N   0  0  0  0  0  0  0  0  0  0  0  0
   36.1910   27.5500   31.6600 C   0  0  0  0  0  0  0  0  0  0  0  0
   36.5890   28.2110   30.5640 N   0  0  0  0  0  0  0  0  0  0  0  0
   36.8240   30.1010   29.6460 H   0  0  0  0  0  0  0  0  0  0  0  0
   35.9280   31.3660   31.6230 H   0  0  0  0  0  0  0  0  0  0  0  0
   35.9720   30.8390   34.7750 C   0  0  0  0  0  3  0  0  0  0  0  0
   35.0660   30.2110   33.9520 C   0  0  0  0  0  0  0  0  0  0  0  0
   33.7350   30.2140   34.2900 C   0  0  0  0  0  0  0  0  0  0  0  0
   33.0180   29.7320   33.6650 H   0  0  0  0  0  0  0  0  0  0  0  0
   33.2630   30.8260   35.4330 C   0  0  0  0  0  0  0  0  0  0  0  0
   32.0330   30.9730   35.9890 N   0  0  0  0  0  0  0  0  0  0  0  0
   32.1920   31.6790   37.1300 C   0  0  0  0  0  0  0  0  0  0  0  0
   31.2940   31.8820   37.6950 H   0  0  0  0  0  0  0  0  0  0  0  0
   33.5030   31.9580   37.2670 N   0  0  0  0  0  0  0  0  0  0  0  0
   34.1950   31.4470   36.2380 C   0  0  0  0  0  0  0  0  0  0  0  0
   35.5420   31.4740   35.9450 C   0  0  0  0  0  3  0  0  0  0  0  0
   31.1870   30.5670   35.5240 H   0  0  0  0  0  0  0  0  0  0  0  0
  1  6  1  0  0  0  0
  2  3  1  0  0  0  0
  2  1  2  0  0  0  0
  3  4  2  0  0  0  0
  4  5  1  0  0  0  0
  5  9  1  0  0  0  0
  6  5  2  0  0  0  0
  7  2  1  0  0  0  0
  8  3  1  0  0  0  0
  9 18  1  0  0  0  0
 10  9  2  0  0  0  0
 10 11  1  0  0  0  0
 11 12  2  0  0  0  0
 12 17  1  0  0  0  0
 12 13  1  0  0  0  0
 13 14  2  0  0  0  0
 14 21  1  0  0  0  0
 14 15  1  0  0  0  0
 15 22  1  0  0  0  0
 16 23  1  0  0  0  0
 16 15  2  0  0  0  0
 17 16  1  0  0  0  0
 18 24  1  0  0  0  0
 18 17  2  0  0  0  0
 19 10  1  0  0  0  0
 20 11  1  0  0  0  0
 25 30  2  0  0  0  0
 25 26  1  0  0  0  0
 26 32  1  0  0  0  0
 26 27  2  0  0  0  0
 27 34  1  0  0  0  0
 28 27  1  0  0  0  0
 29  1  1  0  0  0  0
 29 28  2  0  0  0  0
 30 29  1  0  0  0  0
 31 25  1  0  0  0  0
 33 43  1  0  0  0  0
 34 35  1  0  0  0  0
 34 33  2  0  0  0  0
 35 37  2  0  0  0  0
 36 35  1  0  0  0  0
 37 38  1  0  0  0  0
 37 42  1  0  0  0  0
 38 39  1  0  0  0  0
 39 41  2  0  0  0  0
 39 40  1  0  0  0  0
 42 41  1  0  0  0  0
 43 42  2  0  0  0  0
 44 38  1  0  0  0  0
M  END
>  <minimizedAffinity>
-7.37051249

$$$$

 OpenBabel03262523073D

 44 49  0  0  0  0  0  0  0  0999 V2000
   37.3520   27.0680   33.1220 C   0  0  0  0  0  0  0  0  0  0  0  0
   37.5890   27.4570   31.8240 C   0  0  0  0  0  0  0  0  0  0  0  0
   37.0300   28.6180   31.3720 C   0  0  0  0  0  0  0  0  0  0  0  0
   36.2520   29.3750   32.1960 N   0  0  0  0  0  0  0  0  0  0  0  0
   36.0460   28.9620   33.4500 C   0  0  0  0  0  0  0  0  0  0  0  0
   36.5840   27.8180   33.9290 N   0  0  0  0  0  0  0  0  0  0  0  0
   38.1920   26.8820   31.1630 H   0  0  0  0  0  0  0  0  0  0  0  0
   37.2100   28.9360   30.3500 H   0  0  0  0  0  0  0  0  0  0  0  0
   35.2190   29.7700   34.3230 C   0  0  0  0  0  0  0  0  0  0  0  0
   33.8870   29.4650   34.5240 C   0  0  0  0  0  0  0  0  0  0  0  0
   32.9770   30.1270   35.3140 C   0  0  0  0  0  0  0  0  0  0  0  0
   33.5050   31.2330   35.9720 C   0  0  0  0  0  0  0  0  0  0  0  0
   32.6650   31.9430   36.7760 N   0  0  0  0  0  0  0  0  0  0  0  0
   33.0800   33.0320   37.4610 C   0  0  0  0  0  0  0  0  0  0  0  0
   34.4040   33.4420   37.3410 C   0  0  0  0  0  0  0  0  0  0  0  0
   35.2470   32.7140   36.5230 C   0  0  0  0  0  0  0  0  0  0  0  0
   34.8220   31.5920   35.8180 C   0  0  0  0  0  0  0  0  0  0  0  0
   35.6670   30.8690   35.0040 C   0  0  0  0  0  0  0  0  0  0  0  0
   33.5000   28.5850   33.9880 H   0  0  0  0  0  0  0  0  0  0  0  0
   31.9630   29.7910   35.3890 H   0  0  0  0  0  0  0  0  0  0  0  0
   32.4030   33.5880   38.0960 H   0  0  0  0  0  0  0  0  0  0  0  0
   34.8060   34.3040   37.8600 H   0  0  0  0  0  0  0  0  0  0  0  0
   36.2930   33.0390   36.4300 H   0  0  0  0  0  0  0  0  0  0  0  0
   36.7020   31.1660   34.8930 H   0  0  0  0  0  0  0  0  0  0  0  0
   39.3620   24.6860   35.0680 C   0  0  0  0  0  0  0  0  0  0  0  0
   38.9270   23.4440   34.5640 C   0  0  0  0  0  0  0  0  0  0  0  0
   37.9420   23.4540   33.5550 C   0  0  0  0  0  0  0  0  0  0  0  0
   37.4800   24.6550   33.1400 N   0  0  0  0  0  0  0  0  0  0  0  0
   37.9270   25.8330   33.6520 C   0  0  0  0  0  0  0  0  0  0  0  0
   38.8630   25.8410   34.6110 N   0  0  0  0  0  0  0  0  0  0  0  0
   40.1200   24.6700   35.8440 H   0  0  0  0  0  0  0  0  0  0  0  0
   39.3010   22.4890   34.9030 H   0  0  0  0  0  0  0  0  0  0  0  0
   37.6980   22.0430   31.6180 C   0  0  0  0  0  3  0  0  0  0  0  0
   37.4010   22.2520   32.9440 C   0  0  0  0  0  0  0  0  0  0  0  0
   36.6270   21.3350   33.6120 C   0  0  0  0  0  0  0  0  0  0  0  0
   36.3850   21.4790   34.6410 H   0  0  0  0  0  0  0  0  0  0  0  0
   36.1290   20.2020   33.0030 C   0  0  0  0  0  0  0  0  0  0  0  0
   35.3610   19.1630   33.4180 N   0  0  0  0  0  0  0  0  0  0  0  0
   35.1950   18.3390   32.3600 C   0  0  0  0  0  0  0  0  0  0  0  0
   34.6000   17.4550   32.5320 H   0  0  0  0  0  0  0  0  0  0  0  0
   35.8560   18.8710   31.3130 N   0  0  0  0  0  0  0  0  0  0  0  0
   36.4440   20.0200   31.6720 C   0  0  0  0  0  0  0  0  0  0  0  0
   37.2170   20.9100   30.9550 C   0  0  0  0  0  3  0  0  0  0  0  0
   35.0160   19.1180   34.4060 H   0  0  0  0  0  0  0  0  0  0  0  0
  1 29  1  0  0  0  0
  1  6  1  0  0  0  0
  2  1  2  0  0  0  0
  3  2  1  0  0  0  0
  3  4  2  0  0  0  0
  4  5  1  0  0  0  0
  5  6  2  0  0  0  0
  5  9  1  0  0  0  0
  7  2  1  0  0  0  0
  8  3  1  0  0  0  0
  9 10  2  0  0  0  0
  9 18  1  0  0  0  0
 10 11  1  0  0  0  0
 11 20  1  0  0  0  0
 11 12  2  0  0  0  0
 12 13  1  0  0  0  0
 13 14  2  0  0  0  0
 14 21  1  0  0  0  0
 15 14  1  0  0  0  0
 15 22  1  0  0  0  0
 16 15  2  0  0  0  0
 17 12  1  0  0  0  0
 17 16  1  0  0  0  0
 18 17  2  0  0  0  0
 19 10  1  0  0  0  0
 23 16  1  0  0  0  0
 24 18  1  0  0  0  0
 25 31  1  0  0  0  0
 26 32  1  0  0  0  0
 26 25  2  0  0  0  0
 27 26  1  0  0  0  0
 28 27  2  0  0  0  0
 28 29  1  0  0  0  0
 29 30  2  0  0  0  0
 30 25  1  0  0  0  0
 33 34  1  0  0  0  0
 34 27  1  0  0  0  0
 34 35  2  0  0  0  0
 35 36  1  0  0  0  0
 37 38  1  0  0  0  0
 37 35  1  0  0  0  0
 38 44  1  0  0  0  0
 39 40  1  0  0  0  0
 39 38  1  0  0  0  0
 41 42  1  0  0  0  0
 41 39  2  0  0  0  0
 42 37  2  0  0  0  0
 43 33  2  0  0  0  0
 43 42  1  0  0  0  0
M  END
>  <minimizedAffinity>
-7.16793394

$$$$

 OpenBabel03262523073D

 44 49  0  0  0  0  0  0  0  0999 V2000
   37.6790   26.1710   33.8800 C   0  0  0  0  0  0  0  0  0  0  0  0
   38.4280   26.2180   35.0340 C   0  0  0  0  0  0  0  0  0  0  0  0
   38.9240   25.0530   35.5440 C   0  0  0  0  0  0  0  0  0  0  0  0
   38.6800   23.8660   34.9180 N   0  0  0  0  0  0  0  0  0  0  0  0
   37.9490   23.8650   33.8000 C   0  0  0  0  0  0  0  0  0  0  0  0
   37.4420   25.0000   33.2680 N   0  0  0  0  0  0  0  0  0  0  0  0
   38.6310   27.1310   35.5400 H   0  0  0  0  0  0  0  0  0  0  0  0
   39.5160   25.0760   36.4530 H   0  0  0  0  0  0  0  0  0  0  0  0
   37.6920   22.6020   33.1370 C   0  0  0  0  0  0  0  0  0  0  0  0
   38.4260   22.2150   32.0340 C   0  0  0  0  0  0  0  0  0  0  0  0
   38.3050   21.0590   31.3000 C   0  0  0  0  0  0  0  0  0  0  0  0
   37.3090   20.2040   31.7600 C   0  0  0  0  0  0  0  0  0  0  0  0
   37.1270   19.0340   31.0850 N   0  0  0  0  0  0  0  0  0  0  0  0
   36.1870   18.1350   31.4510 C   0  0  0  0  0  0  0  0  0  0  0  0
   35.3800   18.4110   32.5510 C   0  0  0  0  0  0  0  0  0  0  0  0
   35.5740   19.5990   33.2280 C   0  0  0  0  0  0  0  0  0  0  0  0
   36.5420   20.5260   32.8520 C   0  0  0  0  0  0  0  0  0  0  0  0
   36.7310   21.7100   33.5320 C   0  0  0  0  0  0  0  0  0  0  0  0
   39.2060   22.9140   31.6950 H   0  0  0  0  0  0  0  0  0  0  0  0
   38.9390   20.8700   30.4570 H   0  0  0  0  0  0  0  0  0  0  0  0
   36.0510   17.2100   30.9070 H   0  0  0  0  0  0  0  0  0  0  0  0
   34.6070   17.7370   32.9010 H   0  0  0  0  0  0  0  0  0  0  0  0
   34.9360   19.8160   34.0970 H   0  0  0  0  0  0  0  0  0  0  0  0
   36.1170   21.9490   34.3900 H   0  0  0  0  0  0  0  0  0  0  0  0
   36.7590   28.8200   31.5060 C   0  0  0  0  0  0  0  0  0  0  0  0
   36.0350   29.7140   32.3190 C   0  0  0  0  0  0  0  0  0  0  0  0
   35.8780   29.3820   33.6810 C   0  0  0  0  0  0  0  0  0  0  0  0
   36.4330   28.2280   34.1140 N   0  0  0  0  0  0  0  0  0  0  0  0
   37.1250   27.3920   33.2960 C   0  0  0  0  0  0  0  0  0  0  0  0
   37.2840   27.6920   32.0000 N   0  0  0  0  0  0  0  0  0  0  0  0
   36.8760   29.0820   30.4600 H   0  0  0  0  0  0  0  0  0  0  0  0
   35.5940   30.6340   31.9640 H   0  0  0  0  0  0  0  0  0  0  0  0
   35.9160   30.9530   35.5060 C   0  0  0  0  0  3  0  0  0  0  0  0
   35.1570   30.2080   34.6340 C   0  0  0  0  0  0  0  0  0  0  0  0
   33.7870   30.2810   34.7030 C   0  0  0  0  0  0  0  0  0  0  0  0
   33.1810   29.7100   34.0360 H   0  0  0  0  0  0  0  0  0  0  0  0
   33.1330   31.0760   35.6210 C   0  0  0  0  0  0  0  0  0  0  0  0
   31.8280   31.3260   35.8980 N   0  0  0  0  0  0  0  0  0  0  0  0
   31.7970   32.2080   36.9210 C   0  0  0  0  0  0  0  0  0  0  0  0
   30.8180   32.5100   37.2620 H   0  0  0  0  0  0  0  0  0  0  0  0
   33.0690   32.4910   37.2630 N   0  0  0  0  0  0  0  0  0  0  0  0
   33.9210   31.8120   36.4830 C   0  0  0  0  0  0  0  0  0  0  0  0
   35.2990   31.7760   36.4550 C   0  0  0  0  0  3  0  0  0  0  0  0
   31.0690   30.8590   35.3480 H   0  0  0  0  0  0  0  0  0  0  0  0
  1  2  1  0  0  0  0
  2  7  1  0  0  0  0
  2  3  2  0  0  0  0
  3  8  1  0  0  0  0
  4  3  1  0  0  0  0
  5  4  2  0  0  0  0
  6  5  1  0  0  0  0
  6  1  2  0  0  0  0
  9 18  1  0  0  0  0
  9  5  1  0  0  0  0
 10  9  2  0  0  0  0
 11 12  2  0  0  0  0
 11 10  1  0  0  0  0
 12 17  1  0  0  0  0
 13 14  2  0  0  0  0
 13 12  1  0  0  0  0
 14 15  1  0  0  0  0
 15 22  1  0  0  0  0
 15 16  2  0  0  0  0
 16 23  1  0  0  0  0
 17 16  1  0  0  0  0
 17 18  2  0  0  0  0
 18 24  1  0  0  0  0
 19 10  1  0  0  0  0
 20 11  1  0  0  0  0
 21 14  1  0  0  0  0
 25 30  2  0  0  0  0
 25 26  1  0  0  0  0
 26 27  2  0  0  0  0
 27 28  1  0  0  0  0
 27 34  1  0  0  0  0
 29  1  1  0  0  0  0
 29 28  2  0  0  0  0
 30 29  1  0  0  0  0
 31 25  1  0  0  0  0
 32 26  1  0  0  0  0
 33 43  1  0  0  0  0
 34 35  1  0  0  0  0
 34 33  2  0  0  0  0
 35 37  2  0  0  0  0
 36 35  1  0  0  0  0
 37 38  1  0  0  0  0
 37 42  1  0  0  0  0
 38 39  1  0  0  0  0
 39 40  1  0  0  0  0
 39 41  2  0  0  0  0
 42 41  1  0  0  0  0
 43 42  2  0  0  0  0
 44 38  1  0  0  0  0
M  END
>  <minimizedAffinity>
-7.09777164

$$$$

 OpenBabel03262523073D

 44 49  0  0  0  0  0  0  0  0999 V2000
   35.8430   29.0330   31.8110 C   0  0  0  0  0  0  0  0  0  0  0  0
   36.6970   29.3190   30.7710 C   0  0  0  0  0  0  0  0  0  0  0  0
   37.8270   28.5680   30.6220 C   0  0  0  0  0  0  0  0  0  0  0  0
   38.1000   27.5530   31.4900 N   0  0  0  0  0  0  0  0  0  0  0  0
   37.2450   27.3080   32.4860 C   0  0  0  0  0  0  0  0  0  0  0  0
   36.1170   28.0320   32.6630 N   0  0  0  0  0  0  0  0  0  0  0  0
   36.5050   30.1060   30.0820 H   0  0  0  0  0  0  0  0  0  0  0  0
   38.5090   28.7830   29.8060 H   0  0  0  0  0  0  0  0  0  0  0  0
   37.5380   26.2280   33.4070 C   0  0  0  0  0  0  0  0  0  0  0  0
   37.8380   24.9620   32.9460 C   0  0  0  0  0  0  0  0  0  0  0  0
   38.1360   23.8410   33.6850 C   0  0  0  0  0  0  0  0  0  0  0  0
   38.1220   24.0540   35.0590 C   0  0  0  0  0  0  0  0  0  0  0  0
   38.4080   22.9900   35.8610 N   0  0  0  0  0  0  0  0  0  0  0  0
   38.4220   23.0920   37.2090 C   0  0  0  0  0  0  0  0  0  0  0  0
   38.1340   24.3200   37.7960 C   0  0  0  0  0  0  0  0  0  0  0  0
   37.8460   25.3920   36.9730 C   0  0  0  0  0  0  0  0  0  0  0  0
   37.8320   25.2890   35.5850 C   0  0  0  0  0  0  0  0  0  0  0  0
   37.5440   26.3620   34.7690 C   0  0  0  0  0  0  0  0  0  0  0  0
   37.8400   24.8260   31.8540 H   0  0  0  0  0  0  0  0  0  0  0  0
   38.3530   22.9060   33.2080 H   0  0  0  0  0  0  0  0  0  0  0  0
   38.6500   22.2390   37.8350 H   0  0  0  0  0  0  0  0  0  0  0  0
   38.1270   24.4760   38.8680 H   0  0  0  0  0  0  0  0  0  0  0  0
   37.6200   26.3620   37.4390 H   0  0  0  0  0  0  0  0  0  0  0  0
   37.3170   27.3280   35.2010 H   0  0  0  0  0  0  0  0  0  0  0  0
   33.1940   31.5570   31.4760 C   0  0  0  0  0  0  0  0  0  0  0  0
   32.2920   31.1840   32.4920 C   0  0  0  0  0  0  0  0  0  0  0  0
   32.6200   30.0600   33.2790 C   0  0  0  0  0  0  0  0  0  0  0  0
   33.7760   29.4160   33.0040 N   0  0  0  0  0  0  0  0  0  0  0  0
   34.6200   29.8090   32.0130 C   0  0  0  0  0  0  0  0  0  0  0  0
   34.3250   30.8750   31.2570 N   0  0  0  0  0  0  0  0  0  0  0  0
   32.9360   32.4230   30.8750 H   0  0  0  0  0  0  0  0  0  0  0  0
   31.3700   31.7040   32.7040 H   0  0  0  0  0  0  0  0  0  0  0  0
   30.4260   29.6990   34.2050 C   0  0  0  0  0  3  0  0  0  0  0  0
   31.7860   29.5610   34.3590 C   0  0  0  0  0  0  0  0  0  0  0  0
   32.2780   28.9720   35.4980 C   0  0  0  0  0  0  0  0  0  0  0  0
   33.3290   28.8560   35.6350 H   0  0  0  0  0  0  0  0  0  0  0  0
   31.4580   28.5090   36.5050 C   0  0  0  0  0  0  0  0  0  0  0  0
   31.6750   27.9040   37.7010 N   0  0  0  0  0  0  0  0  0  0  0  0
   30.4670   27.6800   38.2630 C   0  0  0  0  0  0  0  0  0  0  0  0
   30.4720   27.1990   39.2290 H   0  0  0  0  0  0  0  0  0  0  0  0
   29.5250   28.1430   37.4180 N   0  0  0  0  0  0  0  0  0  0  0  0
   30.0990   28.6610   36.3230 C   0  0  0  0  0  0  0  0  0  0  0  0
   29.5530   29.2450   35.1990 C   0  0  0  0  0  3  0  0  0  0  0  0
   32.6510   27.7000   38.0240 H   0  0  0  0  0  0  0  0  0  0  0  0
  1 29  1  0  0  0  0
  1  6  1  0  0  0  0
  2  1  2  0  0  0  0
  3  2  1  0  0  0  0
  3  4  2  0  0  0  0
  4  5  1  0  0  0  0
  5  6  2  0  0  0  0
  5  9  1  0  0  0  0
  7  2  1  0  0  0  0
  8  3  1  0  0  0  0
  9 18  1  0  0  0  0
 10  9  2  0  0  0  0
 10 11  1  0  0  0  0
 11 12  2  0  0  0  0
 12 17  1  0  0  0  0
 12 13  1  0  0  0  0
 13 14  2  0  0  0  0
 14 15  1  0  0  0  0
 14 21  1  0  0  0  0
 15 22  1  0  0  0  0
 16 23  1  0  0  0  0
 16 15  2  0  0  0  0
 17 16  1  0  0  0  0
 18 24  1  0  0  0  0
 18 17  2  0  0  0  0
 19 10  1  0  0  0  0
 20 11  1  0  0  0  0
 25 26  1  0  0  0  0
 26 32  1  0  0  0  0
 26 27  2  0  0  0  0
 27 34  1  0  0  0  0
 28 27  1  0  0  0  0
 29 28  2  0  0  0  0
 30 25  2  0  0  0  0
 30 29  1  0  0  0  0
 31 25  1  0  0  0  0
 33 34  2  0  0  0  0
 33 43  1  0  0  0  0
 34 35  1  0  0  0  0
 35 36  1  0  0  0  0
 35 37  2  0  0  0  0
 37 38  1  0  0  0  0
 38 44  1  0  0  0  0
 38 39  1  0  0  0  0
 39 40  1  0  0  0  0
 41 39  2  0  0  0  0
 42 37  1  0  0  0  0
 42 41  1  0  0  0  0
 43 42  2  0  0  0  0
M  END
>  <minimizedAffinity>
-6.9671607

$$$$

 OpenBabel03262523073D

 44 49  0  0  0  0  0  0  0  0999 V2000
   37.3780   26.0110   33.3840 C   0  0  0  0  0  0  0  0  0  0  0  0
   37.9950   25.8590   34.6030 C   0  0  0  0  0  0  0  0  0  0  0  0
   38.3690   24.6070   35.0000 C   0  0  0  0  0  0  0  0  0  0  0  0
   38.1320   23.5300   34.1980 N   0  0  0  0  0  0  0  0  0  0  0  0
   37.5290   23.7220   33.0210 C   0  0  0  0  0  0  0  0  0  0  0  0
   37.1470   24.9470   32.5980 N   0  0  0  0  0  0  0  0  0  0  0  0
   38.1900   26.6840   35.2460 H   0  0  0  0  0  0  0  0  0  0  0  0
   38.8580   24.4720   35.9590 H   0  0  0  0  0  0  0  0  0  0  0  0
   37.2790   22.5750   32.1710 C   0  0  0  0  0  0  0  0  0  0  0  0
   36.0570   21.9340   32.1810 C   0  0  0  0  0  0  0  0  0  0  0  0
   35.6660   20.8430   31.4420 C   0  0  0  0  0  0  0  0  0  0  0  0
   36.6550   20.3580   30.5930 C   0  0  0  0  0  0  0  0  0  0  0  0
   36.3450   19.2760   29.8240 N   0  0  0  0  0  0  0  0  0  0  0  0
   37.2340   18.7290   28.9660 C   0  0  0  0  0  0  0  0  0  0  0  0
   38.5060   19.2850   28.8650 C   0  0  0  0  0  0  0  0  0  0  0  0
   38.8080   20.3820   29.6490 C   0  0  0  0  0  0  0  0  0  0  0  0
   37.8940   20.9470   30.5320 C   0  0  0  0  0  0  0  0  0  0  0  0
   38.2010   22.0420   31.3110 C   0  0  0  0  0  0  0  0  0  0  0  0
   35.2960   22.3430   32.8650 H   0  0  0  0  0  0  0  0  0  0  0  0
   34.6810   20.4330   31.5390 H   0  0  0  0  0  0  0  0  0  0  0  0
   36.9760   17.8690   28.3610 H   0  0  0  0  0  0  0  0  0  0  0  0
   39.2690   18.9000   28.1990 H   0  0  0  0  0  0  0  0  0  0  0  0
   39.8130   20.8210   29.5670 H   0  0  0  0  0  0  0  0  0  0  0  0
   39.1830   22.4940   31.2510 H   0  0  0  0  0  0  0  0  0  0  0  0
   36.8040   28.9690   31.2810 C   0  0  0  0  0  0  0  0  0  0  0  0
   36.1170   29.8330   32.1570 C   0  0  0  0  0  0  0  0  0  0  0  0
   35.8650   29.3730   33.4670 C   0  0  0  0  0  0  0  0  0  0  0  0
   36.2980   28.1340   33.7920 N   0  0  0  0  0  0  0  0  0  0  0  0
   36.9580   27.3320   32.9150 C   0  0  0  0  0  0  0  0  0  0  0  0
   37.2070   27.7530   31.6680 N   0  0  0  0  0  0  0  0  0  0  0  0
   36.9950   29.3300   30.2760 H   0  0  0  0  0  0  0  0  0  0  0  0
   35.7740   30.8210   31.8890 H   0  0  0  0  0  0  0  0  0  0  0  0
   35.9480   30.9000   35.3270 C   0  0  0  0  0  3  0  0  0  0  0  0
   35.1680   30.1530   34.4750 C   0  0  0  0  0  0  0  0  0  0  0  0
   33.8020   30.1820   34.6140 C   0  0  0  0  0  0  0  0  0  0  0  0
   33.1810   29.6100   33.9630 H   0  0  0  0  0  0  0  0  0  0  0  0
   33.1720   30.9350   35.5830 C   0  0  0  0  0  0  0  0  0  0  0  0
   31.8760   31.1390   35.9300 N   0  0  0  0  0  0  0  0  0  0  0  0
   31.8710   31.9940   36.9760 C   0  0  0  0  0  0  0  0  0  0  0  0
   30.9010   32.2580   37.3720 H   0  0  0  0  0  0  0  0  0  0  0  0
   33.1490   32.3080   37.2620 N   0  0  0  0  0  0  0  0  0  0  0  0
   33.9800   31.6730   36.4230 C   0  0  0  0  0  0  0  0  0  0  0  0
   35.3560   31.6810   36.3260 C   0  0  0  0  0  3  0  0  0  0  0  0
   31.1040   30.6610   35.4070 H   0  0  0  0  0  0  0  0  0  0  0  0
  1  2  1  0  0  0  0
  2  3  2  0  0  0  0
  2  7  1  0  0  0  0
  3  8  1  0  0  0  0
  4  3  1  0  0  0  0
  5  4  2  0  0  0  0
  6  5  1  0  0  0  0
  6  1  2  0  0  0  0
  9 10  1  0  0  0  0
  9  5  1  0  0  0  0
 10 19  1  0  0  0  0
 11 20  1  0  0  0  0
 11 10  2  0  0  0  0
 12 11  1  0  0  0  0
 13 12  2  0  0  0  0
 14 13  1  0  0  0  0
 15 14  2  0  0  0  0
 15 16  1  0  0  0  0
 16 17  2  0  0  0  0
 17 12  1  0  0  0  0
 17 18  1  0  0  0  0
 18  9  2  0  0  0  0
 21 14  1  0  0  0  0
 22 15  1  0  0  0  0
 23 16  1  0  0  0  0
 24 18  1  0  0  0  0
 25 30  2  0  0  0  0
 25 26  1  0  0  0  0
 26 27  2  0  0  0  0
 27 28  1  0  0  0  0
 27 34  1  0  0  0  0
 29  1  1  0  0  0  0
 29 28  2  0  0  0  0
 30 29  1  0  0  0  0
 31 25  1  0  0  0  0
 32 26  1  0  0  0  0
 33 43  1  0  0  0  0
 34 35  1  0  0  0  0
 34 33  2  0  0  0  0
 35 37  2  0  0  0  0
 36 35  1  0  0  0  0
 37 38  1  0  0  0  0
 37 42  1  0  0  0  0
 38 39  1  0  0  0  0
 39 41  2  0  0  0  0
 39 40  1  0  0  0  0
 42 41  1  0  0  0  0
 43 42  2  0  0  0  0
 44 38  1  0  0  0  0
M  END
>  <minimizedAffinity>
-6.95337391

$$$$

 OpenBabel03262523073D

 44 49  0  0  0  0  0  0  0  0999 V2000
   38.1850   27.2920   31.2850 C   0  0  0  0  0  0  0  0  0  0  0  0
   38.7920   26.7600   30.1710 C   0  0  0  0  0  0  0  0  0  0  0  0
   39.5150   25.6090   30.3020 C   0  0  0  0  0  0  0  0  0  0  0  0
   39.6310   25.0010   31.5170 N   0  0  0  0  0  0  0  0  0  0  0  0
   39.0270   25.5510   32.5740 C   0  0  0  0  0  0  0  0  0  0  0  0
   38.3040   26.6900   32.4800 N   0  0  0  0  0  0  0  0  0  0  0  0
   38.7150   27.2160   29.2130 H   0  0  0  0  0  0  0  0  0  0  0  0
   39.9980   25.1780   29.4310 H   0  0  0  0  0  0  0  0  0  0  0  0
   39.1520   24.9030   33.8630 C   0  0  0  0  0  0  0  0  0  0  0  0
   40.0630   23.8850   34.0630 C   0  0  0  0  0  0  0  0  0  0  0  0
   40.3010   23.1750   35.2160 C   0  0  0  0  0  0  0  0  0  0  0  0
   39.5040   23.5630   36.2880 C   0  0  0  0  0  0  0  0  0  0  0  0
   39.6800   22.9070   37.4690 N   0  0  0  0  0  0  0  0  0  0  0  0
   38.9580   23.2080   38.5700 C   0  0  0  0  0  0  0  0  0  0  0  0
   38.0040   24.2190   38.4970 C   0  0  0  0  0  0  0  0  0  0  0  0
   37.8350   24.8780   37.2940 C   0  0  0  0  0  0  0  0  0  0  0  0
   38.5780   24.5690   36.1590 C   0  0  0  0  0  0  0  0  0  0  0  0
   38.4050   25.2300   34.9620 C   0  0  0  0  0  0  0  0  0  0  0  0
   40.6780   23.6010   33.1940 H   0  0  0  0  0  0  0  0  0  0  0  0
   41.0410   22.4010   35.2460 H   0  0  0  0  0  0  0  0  0  0  0  0
   39.1060   22.6790   39.5030 H   0  0  0  0  0  0  0  0  0  0  0  0
   37.3890   24.5140   39.3390 H   0  0  0  0  0  0  0  0  0  0  0  0
   37.0810   25.6760   37.2380 H   0  0  0  0  0  0  0  0  0  0  0  0
   37.6700   26.0200   34.8790 H   0  0  0  0  0  0  0  0  0  0  0  0
   36.7370   30.4510   30.0930 C   0  0  0  0  0  0  0  0  0  0  0  0
   35.8770   30.8060   31.1500 C   0  0  0  0  0  0  0  0  0  0  0  0
   35.8140   29.9410   32.2630 C   0  0  0  0  0  0  0  0  0  0  0  0
   36.5830   28.8290   32.2390 N   0  0  0  0  0  0  0  0  0  0  0  0
   37.4010   28.5230   31.1970 C   0  0  0  0  0  0  0  0  0  0  0  0
   37.4730   29.3340   30.1330 N   0  0  0  0  0  0  0  0  0  0  0  0
   36.7800   31.1210   29.2410 H   0  0  0  0  0  0  0  0  0  0  0  0
   35.2650   31.6960   31.1610 H   0  0  0  0  0  0  0  0  0  0  0  0
   33.7730   29.5090   33.4680 C   0  0  0  0  0  3  0  0  0  0  0  0
   34.9730   30.1800   33.4240 C   0  0  0  0  0  0  0  0  0  0  0  0
   35.3110   31.0220   34.4550 C   0  0  0  0  0  0  0  0  0  0  0  0
   36.2370   31.5510   34.4390 H   0  0  0  0  0  0  0  0  0  0  0  0
   34.4890   31.2260   35.5430 C   0  0  0  0  0  0  0  0  0  0  0  0
   34.5770   31.9820   36.6680 N   0  0  0  0  0  0  0  0  0  0  0  0
   33.4480   31.7730   37.3800 C   0  0  0  0  0  0  0  0  0  0  0  0
   33.3660   32.3100   38.3140 H   0  0  0  0  0  0  0  0  0  0  0  0
   32.6830   30.8990   36.6980 N   0  0  0  0  0  0  0  0  0  0  0  0
   33.2920   30.5410   35.5590 C   0  0  0  0  0  0  0  0  0  0  0  0
   32.9050   29.6830   34.5510 C   0  0  0  0  0  3  0  0  0  0  0  0
   35.4190   32.5820   36.8410 H   0  0  0  0  0  0  0  0  0  0  0  0
  1  6  1  0  0  0  0
  2  3  1  0  0  0  0
  2  1  2  0  0  0  0
  3  4  2  0  0  0  0
  4  5  1  0  0  0  0
  5  9  1  0  0  0  0
  6  5  2  0  0  0  0
  7  2  1  0  0  0  0
  8  3  1  0  0  0  0
  9 10  2  0  0  0  0
  9 18  1  0  0  0  0
 10 11  1  0  0  0  0
 11 20  1  0  0  0  0
 11 12  2  0  0  0  0
 12 13  1  0  0  0  0
 13 14  2  0  0  0  0
 14 21  1  0  0  0  0
 15 14  1  0  0  0  0
 15 22  1  0  0  0  0
 16 15  2  0  0  0  0
 17 12  1  0  0  0  0
 17 16  1  0  0  0  0
 18 17  2  0  0  0  0
 19 10  1  0  0  0  0
 23 16  1  0  0  0  0
 24 18  1  0  0  0  0
 25 30  2  0  0  0  0
 25 26  1  0  0  0  0
 26 32  1  0  0  0  0
 26 27  2  0  0  0  0
 27 34  1  0  0  0  0
 28 27  1  0  0  0  0
 29  1  1  0  0  0  0
 29 28  2  0  0  0  0
 30 29  1  0  0  0  0
 31 25  1  0  0  0  0
 33 43  1  0  0  0  0
 34 33  2  0  0  0  0
 34 35  1  0  0  0  0
 35 37  2  0  0  0  0
 36 35  1  0  0  0  0
 37 42  1  0  0  0  0
 37 38  1  0  0  0  0
 38 44  1  0  0  0  0
 38 39  1  0  0  0  0
 39 40  1  0  0  0  0
 41 39  2  0  0  0  0
 42 41  1  0  0  0  0
 43 42  2  0  0  0  0
M  END
>  <minimizedAffinity>
-6.90311718

$$$$

 OpenBabel03262523073D

 44 49  0  0  0  0  0  0  0  0999 V2000
   37.9030   26.4210   33.2490 C   0  0  0  0  0  0  0  0  0  0  0  0
   38.9710   26.6400   34.0880 C   0  0  0  0  0  0  0  0  0  0  0  0
   39.6880   25.5680   34.5340 C   0  0  0  0  0  0  0  0  0  0  0  0
   39.3480   24.3030   34.1530 N   0  0  0  0  0  0  0  0  0  0  0  0
   38.3040   24.1350   33.3370 C   0  0  0  0  0  0  0  0  0  0  0  0
   37.5730   25.1740   32.8760 N   0  0  0  0  0  0  0  0  0  0  0  0
   39.2540   27.6170   34.3990 H   0  0  0  0  0  0  0  0  0  0  0  0
   40.5330   25.7260   35.1960 H   0  0  0  0  0  0  0  0  0  0  0  0
   37.9460   22.7900   32.9330 C   0  0  0  0  0  0  0  0  0  0  0  0
   38.9090   21.8900   32.5220 C   0  0  0  0  0  0  0  0  0  0  0  0
   38.7320   20.5900   32.1110 C   0  0  0  0  0  0  0  0  0  0  0  0
   37.4060   20.1710   32.1270 C   0  0  0  0  0  0  0  0  0  0  0  0
   37.1480   18.8930   31.7340 N   0  0  0  0  0  0  0  0  0  0  0  0
   35.8940   18.3890   31.7150 C   0  0  0  0  0  0  0  0  0  0  0  0
   34.8340   19.2000   32.1090 C   0  0  0  0  0  0  0  0  0  0  0  0
   35.1080   20.4940   32.5060 C   0  0  0  0  0  0  0  0  0  0  0  0
   36.3980   21.0150   32.5260 C   0  0  0  0  0  0  0  0  0  0  0  0
   36.6650   22.3070   32.9240 C   0  0  0  0  0  0  0  0  0  0  0  0
   39.9490   22.2520   32.5190 H   0  0  0  0  0  0  0  0  0  0  0  0
   39.5660   19.9860   31.8130 H   0  0  0  0  0  0  0  0  0  0  0  0
   35.7010   17.3710   31.4000 H   0  0  0  0  0  0  0  0  0  0  0  0
   33.8030   18.8630   32.1190 H   0  0  0  0  0  0  0  0  0  0  0  0
   34.2690   21.1340   32.8170 H   0  0  0  0  0  0  0  0  0  0  0  0
   35.8590   22.9580   33.2350 H   0  0  0  0  0  0  0  0  0  0  0  0
   36.2810   28.8500   31.0190 C   0  0  0  0  0  0  0  0  0  0  0  0
   35.5680   29.6600   31.9250 C   0  0  0  0  0  0  0  0  0  0  0  0
   35.6630   29.3500   33.2980 C   0  0  0  0  0  0  0  0  0  0  0  0
   36.4310   28.2950   33.6520 N   0  0  0  0  0  0  0  0  0  0  0  0
   37.1040   27.5370   32.7450 C   0  0  0  0  0  0  0  0  0  0  0  0
   37.0250   27.8190   31.4370 N   0  0  0  0  0  0  0  0  0  0  0  0
   36.2030   29.0950   29.9650 H   0  0  0  0  0  0  0  0  0  0  0  0
   34.9560   30.5010   31.6330 H   0  0  0  0  0  0  0  0  0  0  0  0
   33.7280   29.6640   34.6970 C   0  0  0  0  0  3  0  0  0  0  0  0
   34.9840   30.0970   34.3420 C   0  0  0  0  0  0  0  0  0  0  0  0
   35.5230   31.1890   34.9780 C   0  0  0  0  0  0  0  0  0  0  0  0
   36.4960   31.5400   34.7160 H   0  0  0  0  0  0  0  0  0  0  0  0
   34.8520   31.8770   35.9670 C   0  0  0  0  0  0  0  0  0  0  0  0
   35.1450   32.9570   36.7350 N   0  0  0  0  0  0  0  0  0  0  0  0
   34.0830   33.1740   37.5420 C   0  0  0  0  0  0  0  0  0  0  0  0
   34.1630   34.0090   38.2220 H   0  0  0  0  0  0  0  0  0  0  0  0
   33.1550   32.2370   37.2680 N   0  0  0  0  0  0  0  0  0  0  0  0
   33.5940   31.4190   36.3010 C   0  0  0  0  0  0  0  0  0  0  0  0
   33.0070   30.3280   35.6950 C   0  0  0  0  0  3  0  0  0  0  0  0
   36.0620   33.4510   36.6300 H   0  0  0  0  0  0  0  0  0  0  0  0
  1  2  1  0  0  0  0
  2  7  1  0  0  0  0
  2  3  2  0  0  0  0
  3  8  1  0  0  0  0
  4  3  1  0  0  0  0
  5  4  2  0  0  0  0
  6  1  2  0  0  0  0
  6  5  1  0  0  0  0
  9  5  1  0  0  0  0
 10  9  2  0  0  0  0
 11 12  2  0  0  0  0
 11 10  1  0  0  0  0
 12 17  1  0  0  0  0
 13 12  1  0  0  0  0
 14 13  2  0  0  0  0
 14 15  1  0  0  0  0
 15 22  1  0  0  0  0
 15 16  2  0  0  0  0
 16 17  1  0  0  0  0
 16 23  1  0  0  0  0
 17 18  2  0  0  0  0
 18  9  1  0  0  0  0
 18 24  1  0  0  0  0
 19 10  1  0  0  0  0
 20 11  1  0  0  0  0
 21 14  1  0  0  0  0
 25 30  2  0  0  0  0
 25 26  1  0  0  0  0
 26 27  2  0  0  0  0
 27 28  1  0  0  0  0
 27 34  1  0  0  0  0
 29  1  1  0  0  0  0
 29 28  2  0  0  0  0
 30 29  1  0  0  0  0
 31 25  1  0  0  0  0
 32 26  1  0  0  0  0
 33 43  1  0  0  0  0
 34 33  2  0  0  0  0
 34 35  1  0  0  0  0
 35 37  2  0  0  0  0
 36 35  1  0  0  0  0
 37 42  1  0  0  0  0
 37 38  1  0  0  0  0
 38 39  1  0  0  0  0
 39 40  1  0  0  0  0
 41 39  2  0  0  0  0
 42 41  1  0  0  0  0
 43 42  2  0  0  0  0
 44 38  1  0  0  0  0
M  END
>  <minimizedAffinity>
-6.78250408

$$$$

 OpenBabel03262523073D

 44 49  0  0  0  0  0  0  0  0999 V2000
   36.9460   27.3370   33.6790 C   0  0  0  0  0  0  0  0  0  0  0  0
   37.0320   27.5250   32.3190 C   0  0  0  0  0  0  0  0  0  0  0  0
   36.4840   28.6500   31.7740 C   0  0  0  0  0  0  0  0  0  0  0  0
   35.8640   29.5700   32.5670 N   0  0  0  0  0  0  0  0  0  0  0  0
   35.8020   29.3490   33.8830 C   0  0  0  0  0  0  0  0  0  0  0  0
   36.3330   28.2460   34.4560 N   0  0  0  0  0  0  0  0  0  0  0  0
   37.5110   26.8220   31.6800 H   0  0  0  0  0  0  0  0  0  0  0  0
   36.5450   28.8110   30.7030 H   0  0  0  0  0  0  0  0  0  0  0  0
   35.1420   30.3280   34.7230 C   0  0  0  0  0  0  0  0  0  0  0  0
   35.8610   31.1120   35.6030 C   0  0  0  0  0  0  0  0  0  0  0  0
   35.3870   32.0760   36.4600 C   0  0  0  0  0  0  0  0  0  0  0  0
   34.0080   32.2510   36.4010 C   0  0  0  0  0  0  0  0  0  0  0  0
   33.4600   33.1910   37.2220 N   0  0  0  0  0  0  0  0  0  0  0  0
   32.1320   33.4380   37.2400 C   0  0  0  0  0  0  0  0  0  0  0  0
   31.2980   32.7110   36.3960 C   0  0  0  0  0  0  0  0  0  0  0  0
   31.8650   31.7610   35.5690 C   0  0  0  0  0  0  0  0  0  0  0  0
   33.2320   31.5050   35.5480 C   0  0  0  0  0  0  0  0  0  0  0  0
   33.7920   30.5570   34.7200 C   0  0  0  0  0  0  0  0  0  0  0  0
   36.9500   30.9480   35.6260 H   0  0  0  0  0  0  0  0  0  0  0  0
   36.0510   32.6220   37.1000 H   0  0  0  0  0  0  0  0  0  0  0  0
   31.7080   34.1870   37.8960 H   0  0  0  0  0  0  0  0  0  0  0  0
   30.2240   32.8560   36.3570 H   0  0  0  0  0  0  0  0  0  0  0  0
   31.2040   31.1880   34.9020 H   0  0  0  0  0  0  0  0  0  0  0  0
   33.1660   29.9780   34.0540 H   0  0  0  0  0  0  0  0  0  0  0  0
   38.5310   25.0630   36.0900 C   0  0  0  0  0  0  0  0  0  0  0  0
   38.5580   23.8450   35.3830 C   0  0  0  0  0  0  0  0  0  0  0  0
   38.0240   23.8340   34.0770 C   0  0  0  0  0  0  0  0  0  0  0  0
   37.5220   24.9920   33.5930 N   0  0  0  0  0  0  0  0  0  0  0  0
   37.5160   26.1480   34.3100 C   0  0  0  0  0  0  0  0  0  0  0  0
   38.0190   26.1760   35.5510 N   0  0  0  0  0  0  0  0  0  0  0  0
   38.9430   25.0630   37.0940 H   0  0  0  0  0  0  0  0  0  0  0  0
   38.9600   22.9230   35.7770 H   0  0  0  0  0  0  0  0  0  0  0  0
   39.0840   21.8260   33.2720 C   0  0  0  0  0  3  0  0  0  0  0  0
   37.9850   22.6520   33.2320 C   0  0  0  0  0  0  0  0  0  0  0  0
   36.9290   22.3270   32.4160 C   0  0  0  0  0  0  0  0  0  0  0  0
   36.0680   22.9560   32.3720 H   0  0  0  0  0  0  0  0  0  0  0  0
   36.9240   21.1970   31.6270 C   0  0  0  0  0  0  0  0  0  0  0  0
   36.0360   20.6550   30.7540 N   0  0  0  0  0  0  0  0  0  0  0  0
   36.5890   19.5200   30.2730 C   0  0  0  0  0  0  0  0  0  0  0  0
   35.9980   18.9670   29.5580 H   0  0  0  0  0  0  0  0  0  0  0  0
   37.7990   19.3720   30.8460 N   0  0  0  0  0  0  0  0  0  0  0  0
   38.0400   20.3880   31.6870 C   0  0  0  0  0  0  0  0  0  0  0  0
   39.1270   20.6670   32.4890 C   0  0  0  0  0  3  0  0  0  0  0  0
   35.1180   21.1260   30.5680 H   0  0  0  0  0  0  0  0  0  0  0  0
  1 29  1  0  0  0  0
  1  6  1  0  0  0  0
  2  1  2  0  0  0  0
  3  2  1  0  0  0  0
  3  4  2  0  0  0  0
  4  5  1  0  0  0  0
  5  6  2  0  0  0  0
  5  9  1  0  0  0  0
  7  2  1  0  0  0  0
  8  3  1  0  0  0  0
  9 10  1  0  0  0  0
 10 19  1  0  0  0  0
 10 11  2  0  0  0  0
 11 20  1  0  0  0  0
 12 11  1  0  0  0  0
 12 13  1  0  0  0  0
 13 14  2  0  0  0  0
 14 21  1  0  0  0  0
 15 14  1  0  0  0  0
 16 15  2  0  0  0  0
 17 16  1  0  0  0  0
 17 12  2  0  0  0  0
 18  9  2  0  0  0  0
 18 17  1  0  0  0  0
 22 15  1  0  0  0  0
 23 16  1  0  0  0  0
 24 18  1  0  0  0  0
 25 31  1  0  0  0  0
 26 32  1  0  0  0  0
 26 25  2  0  0  0  0
 27 26  1  0  0  0  0
 28 27  2  0  0  0  0
 28 29  1  0  0  0  0
 29 30  2  0  0  0  0
 30 25  1  0  0  0  0
 34 33  1  0  0  0  0
 34 27  1  0  0  0  0
 35 34  2  0  0  0  0
 36 35  1  0  0  0  0
 37 42  2  0  0  0  0
 37 35  1  0  0  0  0
 38 37  1  0  0  0  0
 39 38  1  0  0  0  0
 39 41  2  0  0  0  0
 40 39  1  0  0  0  0
 41 42  1  0  0  0  0
 42 43  1  0  0  0  0
 43 33  2  0  0  0  0
 44 38  1  0  0  0  0
M  END
>  <minimizedAffinity>
-6.73617697

$$$$
