
 OpenBabel03272506393D

 40 43  0  0  1  0  0  0  0  0999 V2000
   34.5610   29.7440   49.9920 O   0  0  0  0  0  0  0  0  0  0  0  0
   34.3740   29.6650   48.7650 C   0  0  0  0  0  0  0  0  0  0  0  0
   35.1870   30.4080   47.8220 C   0  0  2  0  0  0  0  0  0  0  0  0
   34.6940   29.8050   46.4700 C   0  0  0  0  0  0  0  0  0  0  0  0
   33.3010   29.3600   46.7790 C   0  0  0  0  0  0  0  0  0  0  0  0
   33.3650   28.8580   48.1440 N   0  0  0  0  0  0  0  0  0  0  0  0
   35.0110   31.4750   47.7030 H   0  0  0  0  0  0  0  0  0  0  0  0
   35.3330   28.9330   46.2640 H   0  0  0  0  0  0  0  0  0  0  0  0
   34.7410   30.5760   45.6760 H   0  0  0  0  0  0  0  0  0  0  0  0
   32.5680   30.1700   46.7780 H   0  0  0  0  0  0  0  0  0  0  0  0
   32.9630   28.5260   46.1300 H   0  0  0  0  0  0  0  0  0  0  0  0
   32.5690   27.7840   48.7110 C   0  0  0  0  0  0  0  0  0  0  0  0
   31.5410   28.1430   48.8860 H   0  0  0  0  0  0  0  0  0  0  0  0
   32.9990   27.5560   49.7100 H   0  0  0  0  0  0  0  0  0  0  0  0
   33.7800   26.0470   47.5180 C   0  0  0  0  0  0  0  0  0  0  0  0
   32.5340   26.5910   47.8350 C   0  0  0  0  0  0  0  0  0  0  0  0
   31.3670   26.0360   47.3520 C   0  0  0  0  0  0  0  0  0  0  0  0
   30.4250   26.4730   47.6090 H   0  0  0  0  0  0  0  0  0  0  0  0
   31.4480   24.9220   46.5400 C   0  0  0  0  0  0  0  0  0  0  0  0
   30.5220   24.1590   45.9190 N   0  0  0  0  0  0  0  0  0  0  0  0
   31.1790   23.1870   45.2500 C   0  0  0  0  0  0  0  0  0  0  0  0
   30.7870   22.3870   44.6370 H   0  0  0  0  0  0  0  0  0  0  0  0
   32.5130   23.3330   45.4450 N   0  0  0  0  0  0  0  0  0  0  0  0
   32.7090   24.4000   46.2400 C   0  0  0  0  0  0  0  0  0  0  0  0
   33.8840   24.9410   46.7150 C   0  0  0  0  0  0  0  0  0  0  0  0
   29.4860   24.2930   45.9480 H   0  0  0  0  0  0  0  0  0  0  0  0
   36.5840   30.1000   47.8940 O   0  0  0  0  0  0  0  0  0  0  0  0
   37.4670   31.1680   48.0440 C   0  0  0  0  0  0  0  0  0  0  0  0
   37.6030   31.6770   49.3230 C   0  0  0  0  0  0  0  0  0  0  0  0
   38.4760   32.7440   49.5080 C   0  0  0  0  0  0  0  0  0  0  0  0
   39.1490   33.2370   48.4420 N   0  0  0  0  0  0  0  0  0  0  0  0
   39.0040   32.7270   47.1990 C   0  0  0  0  0  0  0  0  0  0  0  0
   38.1710   31.7100   47.0280 N   0  0  0  0  0  0  0  0  0  0  0  0
   40.5670   32.3080   45.4690 C   0  0  0  0  0  0  0  0  0  0  0  0
   40.7290   31.0900   45.7700 O   0  0  0  0  0  0  0  0  0  0  0  0
   39.7260   33.2700   46.0980 N   0  0  0  0  0  0  0  0  0  0  0  0
   37.0500   31.2590   50.1470 H   0  0  0  0  0  0  0  0  0  0  0  0
   38.5780   33.1320   50.4940 H   0  0  0  0  0  0  0  0  0  0  0  0
   41.1810   32.5760   44.6110 H   0  0  0  0  0  0  0  0  0  0  0  0
   39.6630   34.2550   45.7720 H   0  0  0  0  0  0  0  0  0  0  0  0
  2  1  2  0  0  0  0
  3  7  1  1  0  0  0
  3 27  1  0  0  0  0
  3  2  1  0  0  0  0
  4  5  1  0  0  0  0
  4  3  1  0  0  0  0
  5  6  1  0  0  0  0
  6 12  1  0  0  0  0
  6  2  1  0  0  0  0
  8  4  1  0  0  0  0
  9  4  1  0  0  0  0
 10  5  1  0  0  0  0
 11  5  1  0  0  0  0
 12 13  1  0  0  0  0
 12 14  1  0  0  0  0
 15 16  1  0  0  0  0
 16 12  1  0  0  0  0
 17 18  1  0  0  0  0
 17 16  2  0  0  0  0
 19 17  1  0  0  0  0
 20 26  1  0  0  0  0
 20 19  1  0  0  0  0
 21 23  2  0  0  0  0
 21 20  1  0  0  0  0
 22 21  1  0  0  0  0
 23 24  1  0  0  0  0
 24 19  2  0  0  0  0
 24 25  1  0  0  0  0
 25 15  2  0  0  0  0
 27 28  1  0  0  0  0
 28 29  1  0  0  0  0
 29 30  2  0  0  0  0
 29 37  1  0  0  0  0
 30 38  1  0  0  0  0
 31 30  1  0  0  0  0
 32 31  2  0  0  0  0
 33 32  1  0  0  0  0
 33 28  2  0  0  0  0
 34 35  2  0  0  0  0
 34 36  1  0  0  0  0
 36 32  1  0  0  0  0
 39 34  1  0  0  0  0
 40 36  1  0  0  0  0
M  END
>  <minimizedAffinity>
-5.98608971

>  <minimizedRMSD>
2.3291595

$$$$
