
 OpenBabel03272503303D

 37 40  0  0  1  0  0  0  0  0999 V2000
   34.5860   29.2460   48.0560 C   0  0  0  0  0  0  0  0  0  0  0  0
   34.2310   30.1480   47.0450 C   0  0  0  0  0  0  0  0  0  0  0  0
   33.0220   29.9200   46.4020 C   0  0  0  0  0  0  0  0  0  0  0  0
   32.2820   28.8420   46.8040 N   0  0  0  0  0  0  0  0  0  0  0  0
   32.6430   28.0050   47.7630 C   0  0  0  0  0  0  0  0  0  0  0  0
   33.8190   28.2160   48.3980 N   0  0  0  0  0  0  0  0  0  0  0  0
   34.8130   30.9870   46.7360 H   0  0  0  0  0  0  0  0  0  0  0  0
   32.6330   30.5280   45.6180 H   0  0  0  0  0  0  0  0  0  0  0  0
   35.8370   29.4750   48.7280 N   0  0  0  0  0  0  0  0  0  0  0  0
   36.9730   30.1950   48.2190 C   0  0  0  0  0  0  0  0  0  0  0  0
   37.6210   30.7250   49.4980 C   0  0  2  0  0  0  0  0  0  0  0  0
   36.7020   30.3290   50.6350 C   0  0  0  0  0  0  0  0  0  0  0  0
   36.1920   29.0200   50.0500 C   0  0  0  0  0  0  0  0  0  0  0  0
   37.6550   29.4790   47.7380 H   0  0  0  0  0  0  0  0  0  0  0  0
   36.6890   31.0210   47.5440 H   0  0  0  0  0  0  0  0  0  0  0  0
   38.5780   30.1940   49.6780 H   0  0  0  0  0  0  0  0  0  0  0  0
   37.2600   30.0840   51.5400 H   0  0  0  0  0  0  0  0  0  0  0  0
   35.8710   31.0440   50.7970 H   0  0  0  0  0  0  0  0  0  0  0  0
   35.2850   28.7520   50.6280 H   0  0  0  0  0  0  0  0  0  0  0  0
   36.9840   28.2770   50.0950 H   0  0  0  0  0  0  0  0  0  0  0  0
   37.8650   32.2070   49.4610 C   0  0  0  0  0  0  0  0  0  0  0  0
   36.7680   32.8070   50.0420 F   0  0  0  0  0  0  0  0  0  0  0  0
   37.8510   32.5940   48.1290 F   0  0  0  0  0  0  0  0  0  0  0  0
   39.0380   32.5910   50.0420 F   0  0  0  0  0  0  0  0  0  0  0  0
   31.6270   26.6220   48.2340 S   0  0  0  0  0  0  0  0  0  0  0  0
   28.9960   26.6240   47.0840 C   0  0  0  0  0  3  0  0  0  0  0  0
   29.9090   27.1110   47.9940 C   0  0  0  0  0  0  0  0  0  0  0  0
   29.5400   28.1120   48.8780 C   0  0  0  0  0  0  0  0  0  0  0  0
   30.1700   28.5800   49.6440 H   0  0  0  0  0  0  0  0  0  0  0  0
   28.2490   28.6470   48.8730 C   0  0  0  0  0  0  0  0  0  0  0  0
   27.6060   29.6040   49.5930 N   0  0  0  0  0  0  0  0  0  0  0  0
   26.3430   29.7070   49.1470 C   0  0  0  0  0  0  0  0  0  0  0  0
   25.6170   30.4110   49.5660 H   0  0  0  0  0  0  0  0  0  0  0  0
   26.1890   28.8080   48.1400 N   0  0  0  0  0  0  0  0  0  0  0  0
   27.3510   28.1460   47.9560 C   0  0  0  0  0  0  0  0  0  0  0  0
   27.7300   27.1580   47.0890 C   0  0  0  0  0  3  0  0  0  0  0  0
   28.0520   30.1620   50.3700 H   0  0  0  0  0  0  0  0  0  0  0  0
  1  6  1  0  0  0  0
  1  9  1  0  0  0  0
  2  1  2  0  0  0  0
  3  4  2  0  0  0  0
  3  2  1  0  0  0  0
  4  5  1  0  0  0  0
  5 25  1  0  0  0  0
  5  6  2  0  0  0  0
  7  2  1  0  0  0  0
  8  3  1  0  0  0  0
  9 13  1  0  0  0  0
 10  9  1  0  0  0  0
 10 11  1  0  0  0  0
 11 16  1  1  0  0  0
 11 12  1  0  0  0  0
 12 18  1  0  0  0  0
 12 17  1  0  0  0  0
 13 20  1  0  0  0  0
 13 19  1  0  0  0  0
 13 12  1  0  0  0  0
 14 10  1  0  0  0  0
 15 10  1  0  0  0  0
 21 11  1  0  0  0  0
 21 24  1  0  0  0  0
 21 22  1  0  0  0  0
 23 21  1  0  0  0  0
 26 36  2  0  0  0  0
 26 27  1  0  0  0  0
 27 25  1  0  0  0  0
 27 28  2  0  0  0  0
 28 29  1  0  0  0  0
 30 28  1  0  0  0  0
 30 31  1  0  0  0  0
 31 37  1  0  0  0  0
 32 33  1  0  0  0  0
 32 31  1  0  0  0  0
 34 32  2  0  0  0  0
 35 34  1  0  0  0  0
 35 30  2  0  0  0  0
 36 35  1  0  0  0  0
M  END
>  <minimizedAffinity>
-6.92268133

>  <minimizedRMSD>
2.31225157

$$$$
