
 OpenBabel03272508513D

 32 35  0  0  1  0  0  0  0  0999 V2000
   36.9450   29.9310   42.4370 C   0  0  2  0  0  0  0  0  0  0  0  0
   35.7960   29.0370   42.5320 C   0  0  0  0  0  0  0  0  0  0  0  0
   35.9320   30.2760   43.4320 C   0  0  1  0  0  0  0  0  0  0  0  0
   37.9580   29.7050   42.9060 H   0  0  0  0  0  0  0  0  0  0  0  0
   35.8590   28.0900   43.0620 H   0  0  0  0  0  0  0  0  0  0  0  0
   35.0900   29.0740   41.6780 H   0  0  0  0  0  0  0  0  0  0  0  0
   35.0220   30.8890   43.2970 H   0  0  0  0  0  0  0  0  0  0  0  0
   38.6040   32.0910   39.9160 C   0  0  0  0  0  0  0  0  0  0  0  0
   37.5010   32.5160   39.1370 C   0  0  0  0  0  0  0  0  0  0  0  0
   36.1870   32.0590   39.4780 C   0  0  0  0  0  0  0  0  0  0  0  0
   36.0710   31.2300   40.5480 N   0  0  0  0  0  0  0  0  0  0  0  0
   37.1580   30.8450   41.2690 C   0  0  0  0  0  0  0  0  0  0  0  0
   38.4100   31.2510   40.9830 N   0  0  0  0  0  0  0  0  0  0  0  0
   39.5500   32.4870   39.5830 H   0  0  0  0  0  0  0  0  0  0  0  0
   37.6410   33.1780   38.2930 H   0  0  0  0  0  0  0  0  0  0  0  0
   35.3320   32.3690   38.9000 H   0  0  0  0  0  0  0  0  0  0  0  0
   35.1640   30.0220   45.7640 C   0  0  0  0  0  0  0  0  0  0  0  0
   33.9840   30.1910   45.3690 O   0  0  0  0  0  0  0  0  0  0  0  0
   36.2520   29.9530   44.8280 N   0  0  0  0  0  0  0  0  0  0  0  0
   37.2280   29.6960   45.0670 H   0  0  0  0  0  0  0  0  0  0  0  0
   34.6610   29.3220   48.1530 C   0  0  0  0  0  3  0  0  0  0  0  0
   35.4640   29.8920   47.1870 C   0  0  0  0  0  0  0  0  0  0  0  0
   36.6810   30.3820   47.6590 C   0  0  0  0  0  0  0  0  0  0  0  0
   37.3500   30.8390   46.9440 H   0  0  0  0  0  0  0  0  0  0  0  0
   37.1110   30.3350   48.9680 C   0  0  0  0  0  0  0  0  0  0  0  0
   38.2310   30.7540   49.5730 N   0  0  0  0  0  0  0  0  0  0  0  0
   38.0890   30.4350   50.8820 C   0  0  0  0  0  0  0  0  0  0  0  0
   38.8290   30.6390   51.6560 H   0  0  0  0  0  0  0  0  0  0  0  0
   36.8860   29.8210   51.0890 N   0  0  0  0  0  0  0  0  0  0  0  0
   36.2740   29.7570   49.8970 C   0  0  0  0  0  0  0  0  0  0  0  0
   35.0580   29.2580   49.4730 C   0  0  0  0  0  3  0  0  0  0  0  0
   39.0510   31.2290   49.1380 H   0  0  0  0  0  0  0  0  0  0  0  0
  1  2  1  0  0  0  0
  1  4  1  1  0  0  0
  1  3  1  0  0  0  0
  2  5  1  0  0  0  0
  2  3  1  0  0  0  0
  3  7  1  6  0  0  0
  3 19  1  0  0  0  0
  6  2  1  0  0  0  0
  8 13  1  0  0  0  0
  9 10  1  0  0  0  0
  9  8  2  0  0  0  0
 10 11  2  0  0  0  0
 11 12  1  0  0  0  0
 12  1  1  0  0  0  0
 13 12  2  0  0  0  0
 14  8  1  0  0  0  0
 15  9  1  0  0  0  0
 16 10  1  0  0  0  0
 17 22  1  0  0  0  0
 18 17  2  0  0  0  0
 19 20  1  0  0  0  0
 19 17  1  0  0  0  0
 21 31  1  0  0  0  0
 22 23  1  0  0  0  0
 22 21  2  0  0  0  0
 23 25  2  0  0  0  0
 24 23  1  0  0  0  0
 25 26  1  0  0  0  0
 25 30  1  0  0  0  0
 26 27  1  0  0  0  0
 27 29  2  0  0  0  0
 27 28  1  0  0  0  0
 30 29  1  0  0  0  0
 31 30  2  0  0  0  0
 32 26  1  0  0  0  0
M  END
>  <minimizedAffinity>
-4.25348234

>  <minimizedRMSD>
5.5143013

$$$$
