
 OpenBabel03272503303D

 37 40  0  0  1  0  0  0  0  0999 V2000
   35.0890   29.4810   47.9140 C   0  0  0  0  0  0  0  0  0  0  0  0
   34.9750   30.0280   46.6290 C   0  0  0  0  0  0  0  0  0  0  0  0
   33.8120   29.7390   45.9300 C   0  0  0  0  0  0  0  0  0  0  0  0
   32.8800   28.9500   46.5440 N   0  0  0  0  0  0  0  0  0  0  0  0
   33.0140   28.4450   47.7610 C   0  0  0  0  0  0  0  0  0  0  0  0
   34.1430   28.7200   48.4540 N   0  0  0  0  0  0  0  0  0  0  0  0
   35.7060   30.6430   46.1550 H   0  0  0  0  0  0  0  0  0  0  0  0
   33.5980   30.0910   44.9460 H   0  0  0  0  0  0  0  0  0  0  0  0
   36.2910   29.7760   48.6460 N   0  0  0  0  0  0  0  0  0  0  0  0
   37.4230   30.5320   48.1830 C   0  0  0  0  0  0  0  0  0  0  0  0
   37.9780   31.1150   49.4830 C   0  0  2  0  0  0  0  0  0  0  0  0
   37.0150   30.7040   50.5770 C   0  0  0  0  0  0  0  0  0  0  0  0
   36.5910   29.3630   49.9960 C   0  0  0  0  0  0  0  0  0  0  0  0
   38.1590   29.8360   47.7560 H   0  0  0  0  0  0  0  0  0  0  0  0
   37.1430   31.3320   47.4750 H   0  0  0  0  0  0  0  0  0  0  0  0
   38.9440   30.6280   49.7260 H   0  0  0  0  0  0  0  0  0  0  0  0
   37.5330   30.5010   51.5170 H   0  0  0  0  0  0  0  0  0  0  0  0
   36.1480   31.3870   50.6790 H   0  0  0  0  0  0  0  0  0  0  0  0
   35.6660   29.0700   50.5300 H   0  0  0  0  0  0  0  0  0  0  0  0
   37.4100   28.6550   50.1000 H   0  0  0  0  0  0  0  0  0  0  0  0
   38.1630   32.6050   49.4260 C   0  0  0  0  0  0  0  0  0  0  0  0
   37.0170   33.1690   49.9420 F   0  0  0  0  0  0  0  0  0  0  0  0
   38.1970   32.9650   48.0860 F   0  0  0  0  0  0  0  0  0  0  0  0
   39.2910   33.0490   50.0530 F   0  0  0  0  0  0  0  0  0  0  0  0
   31.7560   27.4260   48.4980 S   0  0  0  0  0  0  0  0  0  0  0  0
   29.2940   28.7360   47.8190 C   0  0  0  0  0  3  0  0  0  0  0  0
   30.2210   27.7390   47.6090 C   0  0  0  0  0  0  0  0  0  0  0  0
   30.0230   26.8100   46.5990 C   0  0  0  0  0  0  0  0  0  0  0  0
   30.6820   25.9750   46.3340 H   0  0  0  0  0  0  0  0  0  0  0  0
   28.8930   26.8590   45.7780 C   0  0  0  0  0  0  0  0  0  0  0  0
   28.4330   26.1150   44.7390 N   0  0  0  0  0  0  0  0  0  0  0  0
   27.2660   26.6310   44.3190 C   0  0  0  0  0  0  0  0  0  0  0  0
   26.6890   26.2100   43.4880 H   0  0  0  0  0  0  0  0  0  0  0  0
   26.9880   27.7080   45.1000 N   0  0  0  0  0  0  0  0  0  0  0  0
   27.9780   27.8650   46.0050 C   0  0  0  0  0  0  0  0  0  0  0  0
   28.1890   28.7730   47.0050 C   0  0  0  0  0  3  0  0  0  0  0  0
   28.9320   25.2730   44.3430 H   0  0  0  0  0  0  0  0  0  0  0  0
  1  6  1  0  0  0  0
  1  9  1  0  0  0  0
  2  1  2  0  0  0  0
  3  4  2  0  0  0  0
  3  2  1  0  0  0  0
  4  5  1  0  0  0  0
  5  6  2  0  0  0  0
  5 25  1  0  0  0  0
  7  2  1  0  0  0  0
  8  3  1  0  0  0  0
  9 13  1  0  0  0  0
 10  9  1  0  0  0  0
 10 11  1  0  0  0  0
 11 16  1  1  0  0  0
 11 12  1  0  0  0  0
 12 18  1  0  0  0  0
 12 17  1  0  0  0  0
 13 20  1  0  0  0  0
 13 19  1  0  0  0  0
 13 12  1  0  0  0  0
 14 10  1  0  0  0  0
 15 10  1  0  0  0  0
 21 11  1  0  0  0  0
 21 22  1  0  0  0  0
 21 24  1  0  0  0  0
 23 21  1  0  0  0  0
 27 26  1  0  0  0  0
 27 25  1  0  0  0  0
 28 27  2  0  0  0  0
 29 28  1  0  0  0  0
 30 35  2  0  0  0  0
 30 28  1  0  0  0  0
 31 30  1  0  0  0  0
 32 31  1  0  0  0  0
 32 34  2  0  0  0  0
 33 32  1  0  0  0  0
 34 35  1  0  0  0  0
 35 36  1  0  0  0  0
 36 26  2  0  0  0  0
 37 31  1  0  0  0  0
M  END
>  <minimizedAffinity>
-6.09959412

>  <minimizedRMSD>
1.06326067

$$$$
