
 OpenBabel03272503303D

 37 40  0  0  1  0  0  0  0  0999 V2000
   34.6380   29.2290   48.0550 C   0  0  0  0  0  0  0  0  0  0  0  0
   34.2030   30.1940   47.1370 C   0  0  0  0  0  0  0  0  0  0  0  0
   32.9970   29.9460   46.4960 C   0  0  0  0  0  0  0  0  0  0  0  0
   32.3370   28.7900   46.8090 N   0  0  0  0  0  0  0  0  0  0  0  0
   32.7720   27.8940   47.6810 C   0  0  0  0  0  0  0  0  0  0  0  0
   33.9460   28.1240   48.3130 N   0  0  0  0  0  0  0  0  0  0  0  0
   34.7230   31.0940   46.8970 H   0  0  0  0  0  0  0  0  0  0  0  0
   32.5530   30.5960   45.7770 H   0  0  0  0  0  0  0  0  0  0  0  0
   35.8860   29.4780   48.7250 N   0  0  0  0  0  0  0  0  0  0  0  0
   37.0100   30.2140   48.2130 C   0  0  0  0  0  0  0  0  0  0  0  0
   37.6520   30.7560   49.4900 C   0  0  2  0  0  0  0  0  0  0  0  0
   36.7410   30.3480   50.6290 C   0  0  0  0  0  0  0  0  0  0  0  0
   36.2490   29.0310   50.0470 C   0  0  0  0  0  0  0  0  0  0  0  0
   37.7020   29.5080   47.7320 H   0  0  0  0  0  0  0  0  0  0  0  0
   36.7130   31.0340   47.5370 H   0  0  0  0  0  0  0  0  0  0  0  0
   38.6170   30.2390   49.6690 H   0  0  0  0  0  0  0  0  0  0  0  0
   37.3040   30.1130   51.5340 H   0  0  0  0  0  0  0  0  0  0  0  0
   35.8990   31.0510   50.7910 H   0  0  0  0  0  0  0  0  0  0  0  0
   35.3470   28.7510   50.6270 H   0  0  0  0  0  0  0  0  0  0  0  0
   37.0530   28.2990   50.0920 H   0  0  0  0  0  0  0  0  0  0  0  0
   37.8740   32.2420   49.4500 C   0  0  0  0  0  0  0  0  0  0  0  0
   36.7700   32.8260   50.0340 F   0  0  0  0  0  0  0  0  0  0  0  0
   37.8500   32.6260   48.1170 F   0  0  0  0  0  0  0  0  0  0  0  0
   39.0430   32.6440   50.0270 F   0  0  0  0  0  0  0  0  0  0  0  0
   31.8570   26.4110   48.0390 S   0  0  0  0  0  0  0  0  0  0  0  0
   29.2070   26.4710   46.9370 C   0  0  0  0  0  3  0  0  0  0  0  0
   30.1060   26.8180   47.9210 C   0  0  0  0  0  0  0  0  0  0  0  0
   29.6910   27.5810   49.0020 C   0  0  0  0  0  0  0  0  0  0  0  0
   30.3050   27.9200   49.8440 H   0  0  0  0  0  0  0  0  0  0  0  0
   28.3660   28.0140   49.1200 C   0  0  0  0  0  0  0  0  0  0  0  0
   27.6790   28.7500   50.0310 N   0  0  0  0  0  0  0  0  0  0  0  0
   26.4010   28.8550   49.6280 C   0  0  0  0  0  0  0  0  0  0  0  0
   25.6390   29.4020   50.1920 H   0  0  0  0  0  0  0  0  0  0  0  0
   26.2850   28.1810   48.4530 N   0  0  0  0  0  0  0  0  0  0  0  0
   27.4830   27.6550   48.1240 C   0  0  0  0  0  0  0  0  0  0  0  0
   27.9100   26.9020   47.0650 C   0  0  0  0  0  3  0  0  0  0  0  0
   28.1030   29.1600   50.9070 H   0  0  0  0  0  0  0  0  0  0  0  0
  1  6  1  0  0  0  0
  1  9  1  0  0  0  0
  2  1  2  0  0  0  0
  3  4  2  0  0  0  0
  3  2  1  0  0  0  0
  4  5  1  0  0  0  0
  5 25  1  0  0  0  0
  5  6  2  0  0  0  0
  7  2  1  0  0  0  0
  8  3  1  0  0  0  0
  9 13  1  0  0  0  0
 10  9  1  0  0  0  0
 10 11  1  0  0  0  0
 11 16  1  1  0  0  0
 11 12  1  0  0  0  0
 12 18  1  0  0  0  0
 12 17  1  0  0  0  0
 13 20  1  0  0  0  0
 13 19  1  0  0  0  0
 13 12  1  0  0  0  0
 14 10  1  0  0  0  0
 15 10  1  0  0  0  0
 21 11  1  0  0  0  0
 21 24  1  0  0  0  0
 21 22  1  0  0  0  0
 23 21  1  0  0  0  0
 26 36  2  0  0  0  0
 26 27  1  0  0  0  0
 27 25  1  0  0  0  0
 27 28  2  0  0  0  0
 28 30  1  0  0  0  0
 28 29  1  0  0  0  0
 30 31  1  0  0  0  0
 31 37  1  0  0  0  0
 32 31  1  0  0  0  0
 32 33  1  0  0  0  0
 34 32  2  0  0  0  0
 35 34  1  0  0  0  0
 35 30  2  0  0  0  0
 36 35  1  0  0  0  0
M  END
>  <minimizedAffinity>
-6.91799259

>  <minimizedRMSD>
1.70269108

$$$$
