
 OpenBabel03272509183D

 36 39  0  0  0  0  0  0  0  0999 V2000
   37.5410   31.6570   47.4130 C   0  0  0  0  0  0  0  0  0  0  0  0
   36.9890   31.1890   48.5900 C   0  0  0  0  0  0  0  0  0  0  0  0
   37.5360   31.7740   49.7460 C   0  0  0  0  0  0  0  0  0  0  0  0
   38.5480   32.7430   49.6810 C   0  0  0  0  0  0  0  0  0  0  0  0
   39.0360   33.1460   48.4230 C   0  0  0  0  0  0  0  0  0  0  0  0
   38.5080   32.5780   47.2710 C   0  0  0  0  0  0  0  0  0  0  0  0
   37.1610   31.4640   50.7060 H   0  0  0  0  0  0  0  0  0  0  0  0
   38.9370   33.1650   50.5960 H   0  0  0  0  0  0  0  0  0  0  0  0
   39.8190   33.8960   48.3960 H   0  0  0  0  0  0  0  0  0  0  0  0
   34.8350   30.3160   47.8490 C   0  0  0  0  0  0  0  0  0  0  0  0
   35.9620   30.2070   48.6630 C   0  0  0  0  0  0  0  0  0  0  0  0
   36.0310   29.1120   49.5330 C   0  0  0  0  0  0  0  0  0  0  0  0
   35.0080   28.2240   49.5390 N   0  0  0  0  0  0  0  0  0  0  0  0
   33.9260   28.3710   48.7260 C   0  0  0  0  0  0  0  0  0  0  0  0
   33.8450   29.4090   47.8900 N   0  0  0  0  0  0  0  0  0  0  0  0
   34.7570   31.1550   47.1660 H   0  0  0  0  0  0  0  0  0  0  0  0
   33.1610   27.6060   48.8060 H   0  0  0  0  0  0  0  0  0  0  0  0
   37.2080   28.9450   50.4240 C   0  0  0  0  0  0  0  0  0  0  0  0
   38.1630   29.1050   49.8580 H   0  0  0  0  0  0  0  0  0  0  0  0
   37.1640   29.7790   51.1650 H   0  0  0  0  0  0  0  0  0  0  0  0
   37.1750   27.9530   50.8840 H   0  0  0  0  0  0  0  0  0  0  0  0
   37.0600   31.1320   46.2020 O   0  0  0  0  0  0  0  0  0  0  0  0
   36.9090   30.1370   46.0740 H   0  0  0  0  0  0  0  0  0  0  0  0
   39.0350   33.0220   46.0820 O   0  0  0  0  0  0  0  0  0  0  0  0
   40.3820   31.1790   45.0570 C   0  0  0  0  0  3  0  0  0  0  0  0
   39.5360   32.2680   45.0590 C   0  0  0  0  0  0  0  0  0  0  0  0
   39.0670   32.7430   43.8280 C   0  0  0  0  0  0  0  0  0  0  0  0
   38.4000   33.5840   43.6620 H   0  0  0  0  0  0  0  0  0  0  0  0
   39.4400   32.1370   42.6230 C   0  0  0  0  0  0  0  0  0  0  0  0
   39.1730   32.3440   41.3230 N   0  0  0  0  0  0  0  0  0  0  0  0
   39.8100   31.4410   40.5600 C   0  0  0  0  0  0  0  0  0  0  0  0
   39.7750   31.3720   39.4770 H   0  0  0  0  0  0  0  0  0  0  0  0
   40.5040   30.6370   41.4080 N   0  0  0  0  0  0  0  0  0  0  0  0
   40.2880   31.0500   42.6790 C   0  0  0  0  0  0  0  0  0  0  0  0
   40.7620   30.5660   43.8810 C   0  0  0  0  0  3  0  0  0  0  0  0
   38.5520   33.1050   40.9560 H   0  0  0  0  0  0  0  0  0  0  0  0
  1  2  1  0  0  0  0
  2 11  1  0  0  0  0
  2  3  2  0  0  0  0
  3  7  1  0  0  0  0
  4  3  1  0  0  0  0
  4  8  1  0  0  0  0
  5  4  2  0  0  0  0
  6  1  2  0  0  0  0
  6  5  1  0  0  0  0
  9  5  1  0  0  0  0
 10 15  2  0  0  0  0
 10 11  1  0  0  0  0
 11 12  2  0  0  0  0
 12 13  1  0  0  0  0
 12 18  1  0  0  0  0
 14 17  1  0  0  0  0
 14 13  2  0  0  0  0
 15 14  1  0  0  0  0
 16 10  1  0  0  0  0
 18 21  1  0  0  0  0
 18 20  1  0  0  0  0
 19 18  1  0  0  0  0
 22  1  1  0  0  0  0
 23 22  1  0  0  0  0
 24  6  1  0  0  0  0
 25 26  1  0  0  0  0
 26 24  1  0  0  0  0
 27 26  2  0  0  0  0
 28 27  1  0  0  0  0
 29 34  2  0  0  0  0
 29 27  1  0  0  0  0
 30 29  1  0  0  0  0
 31 30  1  0  0  0  0
 31 33  2  0  0  0  0
 32 31  1  0  0  0  0
 33 34  1  0  0  0  0
 34 35  1  0  0  0  0
 35 25  2  0  0  0  0
 36 30  1  0  0  0  0
M  END
>  <minimizedAffinity>
-6.91608381

>  <minimizedRMSD>
2.10588884

$$$$
