
     RDKit          3D

 39 42  0  0  0  0  0  0  0  0999 V2000
   35.9714   29.6295   48.8628 N   0  0  0  0  0  0  0  0  0  0  0  0
   36.5723   28.8550   49.9283 C   0  0  0  0  0  0  0  0  0  0  0  0
   37.0446   29.5683   51.1104 C   0  0  0  0  0  0  0  0  0  0  0  0
   37.4237   30.9886   50.9781 C   0  0  0  0  0  0  0  0  0  0  0  0
   36.8127   31.6808   49.7979 C   0  0  0  0  0  0  0  0  0  0  0  0
   36.8464   30.7576   48.5731 C   0  0  1  0  0  0  0  0  0  0  0  0
   34.7398   29.3280   48.2209 C   0  0  0  0  0  0  0  0  0  0  0  0
   34.2514   29.9936   47.1010 C   0  0  0  0  0  0  0  0  0  0  0  0
   33.0356   29.6110   46.5611 C   0  0  0  0  0  0  0  0  0  0  0  0
   32.3753   28.5865   47.1680 N   0  0  0  0  0  0  0  0  0  0  0  0
   32.8718   27.9648   48.2458 C   0  0  0  0  0  0  0  0  0  0  0  0
   34.0505   28.3396   48.7649 N   0  0  0  0  0  0  0  0  0  0  0  0
   38.1745   30.3526   48.4737 O   0  0  0  0  0  0  0  0  0  0  0  0
   35.8262   28.0724   50.1983 H   0  0  0  0  0  0  0  0  0  0  0  0
   37.4197   28.2978   49.4375 H   0  0  0  0  0  0  0  0  0  0  0  0
   36.2588   29.4847   51.9096 H   0  0  0  0  0  0  0  0  0  0  0  0
   37.9281   29.0129   51.5371 H   0  0  0  0  0  0  0  0  0  0  0  0
   37.1152   31.5723   51.8849 H   0  0  0  0  0  0  0  0  0  0  0  0
   38.5292   31.1107   50.9420 H   0  0  0  0  0  0  0  0  0  0  0  0
   37.2994   32.6436   49.6026 H   0  0  0  0  0  0  0  0  0  0  0  0
   35.7349   31.8476   50.0069 H   0  0  0  0  0  0  0  0  0  0  0  0
   36.5202   31.3264   47.6979 H   0  0  0  0  0  0  0  0  0  0  0  0
   34.8457   30.7949   46.6874 H   0  0  0  0  0  0  0  0  0  0  0  0
   32.6788   30.1482   45.6868 H   0  0  0  0  0  0  0  0  0  0  0  0
   32.2885   27.1435   48.6897 H   0  0  0  0  0  0  0  0  0  0  0  0
   40.2453   31.0661   47.8361 C   0  0  0  0  0  0  0  0  0  0  0  0
   38.9824   30.6348   47.4128 C   0  0  0  0  0  0  0  0  0  0  0  0
   38.7779   30.5710   46.0530 C   0  0  0  0  0  0  0  0  0  0  0  0
   37.7927   30.2343   45.7886 H   0  0  0  0  0  0  0  0  0  0  0  0
   39.7399   30.9054   45.1504 C   0  0  0  0  0  0  0  0  0  0  0  0
   39.7272   30.9074   43.8047 N   0  0  0  0  0  0  0  0  0  0  0  0
   40.9336   31.3234   43.3786 C   0  0  0  0  0  0  0  0  0  0  0  0
   41.1590   31.4057   42.3223 H   0  0  0  0  0  0  0  0  0  0  0  0
   41.7046   31.5827   44.4512 N   0  0  0  0  0  0  0  0  0  0  0  0
   40.9777   31.3281   45.5601 C   0  0  0  0  0  0  0  0  0  0  0  0
   41.2401   31.4117   46.9287 C   0  0  0  0  0  0  0  0  0  0  0  0
   40.5735   31.1738   48.8708 H   0  0  0  0  0  0  0  0  0  0  0  0
   38.9144   30.6314   43.2090 H   0  0  0  0  0  0  0  0  0  0  0  0
   42.2228   31.7474   47.2247 H   0  0  0  0  0  0  0  0  0  0  0  0
  1  2  1  0
  2  3  1  0
  4  3  1  0
  5  4  1  0
  6  1  1  0
  6  5  1  0
  7 12  1  0
  7  1  1  0
  8  7  2  0
  9  8  1  0
  9 10  2  0
 10 11  1  0
 11 12  2  0
 13  6  1  0
  2 14  1  0
  2 15  1  0
  3 16  1  0
  3 17  1  0
  4 18  1  0
  4 19  1  0
  5 20  1  0
  5 21  1  0
  6 22  1  6
  8 23  1  0
  9 24  1  0
 11 25  1  0
 26 27  2  0
 27 28  1  0
 28 29  1  0
 28 30  2  0
 30 31  1  0
 31 32  1  0
 32 33  1  0
 32 34  2  0
 34 35  1  0
 35 36  2  0
 36 26  1  0
 35 30  1  0
 26 37  1  0
 31 38  1  0
 36 39  1  0
 13 27  1  0
M  ISO  8  14  13  15  13  16  13  17  13  18  13  19  13  20  13  21  13
M  ISO  6  22  13  23  14  24  14  25  14  29  15  33  14
M  END
>  <DihAtoms>  (1) 
5,12,26,25

>  <DihDeg>  (1) 
-179.9705904496926

$$$$
