REMARK  Name = 
REMARK  3 active torsions:
REMARK  status: ('A' for Active; 'I' for Inactive)
REMARK    1  A    between atoms: C_1  and  C_8
REMARK    2  A    between atoms: C_3  and  N_12
REMARK    3  A    between atoms: C_10  and  C_22
REMARK                            x       y       z     vdW  Elec       q    Type
REMARK                         _______ _______ _______ _____ _____    ______ ____
ROOT
ATOM      1  C   UNL     1      38.378  30.580  47.098  0.00  0.00    +0.000 C 
ATOM      2  C   UNL     1      36.982  30.543  47.520  0.00  0.00    +0.000 C 
ATOM      3  C   UNL     1      38.083  31.129  48.419  0.00  0.00    +0.000 C 
ATOM      4  H   UNL     1      39.073  29.678  47.145  0.00  0.00    +0.000 HD
ATOM      5  H   UNL     1      36.531  29.631  47.902  0.00  0.00    +0.000 HD
ATOM      6  H   UNL     1      36.303  31.239  46.987  0.00  0.00    +0.000 HD
ATOM      7  H   UNL     1      37.788  32.162  48.679  0.00  0.00    +0.000 HD
ENDROOT
BRANCH   1  12
ATOM      8  C   UNL     1      40.619  32.685  45.019  0.00  0.00    +0.000 A 
ATOM      9  C   UNL     1      39.718  33.182  44.046  0.00  0.00    +0.000 A 
ATOM     10  C   UNL     1      38.341  32.792  44.104  0.00  0.00    +0.000 A 
ATOM     11  N   UNL     1      37.970  31.954  45.106  0.00  0.00    +0.000 NA
ATOM     12  C   UNL     1      38.868  31.499  46.021  0.00  0.00    +0.000 A 
ATOM     13  N   UNL     1      40.171  31.840  46.003  0.00  0.00    +0.000 NA
ATOM     14  H   UNL     1      41.631  33.034  44.893  0.00  0.00    +0.000 HD
ATOM     15  H   UNL     1      40.059  33.848  43.265  0.00  0.00    +0.000 HD
ATOM     16  H   UNL     1      37.637  33.157  43.374  0.00  0.00    +0.000 HD
ENDBRANCH   1  12
BRANCH   3  19
ATOM     17  C   UNL     1      37.697  30.542  50.785  0.00  0.00    +0.000 C 
ATOM     18  O   UNL     1      36.733  31.346  50.803  0.00  0.00    +0.000 OA
ATOM     19  N   UNL     1      38.415  30.278  49.568  0.00  0.00    +0.000 N 
ATOM     20  H   UNL     1      39.137  29.543  49.450  0.00  0.00    +0.000 HD
BRANCH  17  22
ATOM     21  C   UNL     1      38.947  28.753  52.085  0.00  0.00    +0.000 A 
ATOM     22  C   UNL     1      38.117  29.852  52.001  0.00  0.00    +0.000 A 
ATOM     23  C   UNL     1      37.652  30.322  53.228  0.00  0.00    +0.000 A 
ATOM     24  H   UNL     1      36.997  31.181  53.221  0.00  0.00    +0.000 HD
ATOM     25  C   UNL     1      37.955  29.784  54.461  0.00  0.00    +0.000 A 
ATOM     26  N   UNL     1      37.596  30.111  55.710  0.00  0.00    +0.000 N 
ATOM     27  C   UNL     1      38.209  29.214  56.520  0.00  0.00    +0.000 A 
ATOM     28  H   UNL     1      38.125  29.200  57.607  0.00  0.00    +0.000 HD
ATOM     29  N   UNL     1      38.944  28.335  55.778  0.00  0.00    +0.000 NA
ATOM     30  C   UNL     1      38.788  28.687  54.493  0.00  0.00    +0.000 A 
ATOM     31  C   UNL     1      39.273  28.188  53.300  0.00  0.00    +0.000 A 
ATOM     32  H   UNL     1      36.975  30.892  56.010  0.00  0.00    +0.000 HD
ENDBRANCH  17  22
ENDBRANCH   3  19
TORSDOF 3
