REMARK  Name = 
REMARK  3 active torsions:
REMARK  status: ('A' for Active; 'I' for Inactive)
REMARK    1  A    between atoms: C_1  and  N_9
REMARK    2  A    between atoms: C_2  and  N_10
REMARK    3  A    between atoms: N_15  and  C_25
REMARK                            x       y       z     vdW  Elec       q    Type
REMARK                         _______ _______ _______ _____ _____    ______ ____
ROOT
ATOM      1  N   UNL     1      36.709  31.333  48.968  0.00  0.00    +0.000 N 
ATOM      2  C   UNL     1      36.552  32.334  49.826  0.00  0.00    +0.000 A 
ATOM      3  C   UNL     1      37.540  33.316  49.927  0.00  0.00    +0.000 A 
ATOM      4  C   UNL     1      38.614  33.144  49.100  0.00  0.00    +0.000 A 
ATOM      5  O   UNL     1      39.491  34.056  49.220  0.00  0.00    +0.000 OA
ATOM      6  N   UNL     1      38.806  32.160  48.232  0.00  0.00    +0.000 N 
ATOM      7  C   UNL     1      37.820  31.236  48.174  0.00  0.00    +0.000 A 
ATOM      8  O   UNL     1      37.990  30.286  47.345  0.00  0.00    +0.000 OA
ATOM      9  H   UNL     1      35.638  32.301  50.395  0.00  0.00    +0.000 HD
ATOM     10  H   UNL     1      37.383  34.102  50.623  0.00  0.00    +0.000 HD
ENDROOT
BRANCH   6  12
ATOM     11  C   UNL     1      40.241  31.178  46.382  0.00  0.00    +0.000 A 
ATOM     12  C   UNL     1      39.965  32.056  47.401  0.00  0.00    +0.000 A 
ATOM     13  C   UNL     1      40.898  33.034  47.754  0.00  0.00    +0.000 A 
ATOM     14  H   UNL     1      40.799  33.783  48.538  0.00  0.00    +0.000 HD
ATOM     15  C   UNL     1      42.110  33.131  47.083  0.00  0.00    +0.000 A 
ATOM     16  N   UNL     1      43.202  33.938  47.171  0.00  0.00    +0.000 N 
ATOM     17  C   UNL     1      44.107  33.562  46.239  0.00  0.00    +0.000 A 
ATOM     18  H   UNL     1      45.055  34.077  46.137  0.00  0.00    +0.000 HD
ATOM     19  N   UNL     1      43.586  32.505  45.550  0.00  0.00    +0.000 NA
ATOM     20  C   UNL     1      42.376  32.244  46.062  0.00  0.00    +0.000 A 
ATOM     21  C   UNL     1      41.448  31.281  45.720  0.00  0.00    +0.000 A 
ATOM     22  H   UNL     1      43.286  34.727  47.878  0.00  0.00    +0.000 HD
ENDBRANCH   6  12
BRANCH   1  24
ATOM     23  C   UNL     1      35.642  29.331  49.844  0.00  0.00    +0.000 A 
ATOM     24  C   UNL     1      35.743  30.282  48.808  0.00  0.00    +0.000 A 
ATOM     25  C   UNL     1      34.910  30.159  47.684  0.00  0.00    +0.000 A 
ATOM     26  N   UNL     1      34.046  29.119  47.660  0.00  0.00    +0.000 NA
ATOM     27  C   UNL     1      33.950  28.226  48.631  0.00  0.00    +0.000 A 
ATOM     28  N   UNL     1      34.743  28.333  49.714  0.00  0.00    +0.000 NA
ATOM     29  H   UNL     1      35.012  30.901  46.910  0.00  0.00    +0.000 HD
ATOM     30  H   UNL     1      33.262  27.392  48.620  0.00  0.00    +0.000 HD
BRANCH  23  33
ATOM     31  C   UNL     1      37.654  30.051  51.343  0.00  0.00    +0.000 C 
ATOM     32  O   UNL     1      38.207  30.831  50.540  0.00  0.00    +0.000 OA
ATOM     33  N   UNL     1      36.424  29.374  51.018  0.00  0.00    +0.000 N 
ATOM     34  H   UNL     1      38.156  29.920  52.287  0.00  0.00    +0.000 HD
ATOM     35  H   UNL     1      36.084  28.819  51.857  0.00  0.00    +0.000 HD
ENDBRANCH  23  33
ENDBRANCH   1  24
TORSDOF 3
