
 OpenBabel03272503053D

 35 38  0  0  0  0  0  0  0  0999 V2000
   38.1090   30.1220   47.4130 F   0  0  0  0  0  0  0  0  0  0  0  0
   38.4740   31.3690   47.8310 C   0  0  0  0  0  0  0  0  0  0  0  0
   38.0270   31.8270   49.0390 C   0  0  0  0  0  0  0  0  0  0  0  0
   38.4320   33.0860   49.3940 C   0  0  0  0  0  0  0  0  0  0  0  0
   39.2400   33.8710   48.6100 C   0  0  0  0  0  0  0  0  0  0  0  0
   39.6720   33.3740   47.3940 C   0  0  0  0  0  0  0  0  0  0  0  0
   39.2850   32.1090   47.0010 C   0  0  0  0  0  0  0  0  0  0  0  0
   38.0750   33.4580   50.3670 H   0  0  0  0  0  0  0  0  0  0  0  0
   39.5040   34.8570   48.9830 H   0  0  0  0  0  0  0  0  0  0  0  0
   40.3050   33.9920   46.7790 H   0  0  0  0  0  0  0  0  0  0  0  0
   36.7530   29.5320   51.7610 C   0  0  0  0  0  0  0  0  0  0  0  0
   37.6050   30.3650   51.0080 C   0  0  0  0  0  0  0  0  0  0  0  0
   37.1710   30.9590   49.8430 C   0  0  0  0  0  0  0  0  0  0  0  0
   35.8870   30.7030   49.4600 N   0  0  0  0  0  0  0  0  0  0  0  0
   35.0750   29.9080   50.1790 C   0  0  0  0  0  0  0  0  0  0  0  0
   35.5020   29.3370   51.3050 N   0  0  0  0  0  0  0  0  0  0  0  0
   37.1550   29.0910   52.6750 H   0  0  0  0  0  0  0  0  0  0  0  0
   38.6250   30.5900   51.2800 H   0  0  0  0  0  0  0  0  0  0  0  0
   34.0740   29.7640   49.7940 H   0  0  0  0  0  0  0  0  0  0  0  0
   38.7460   31.6760   44.7050 C   0  0  0  0  0  0  0  0  0  0  0  0
   37.6580   32.2330   45.0360 O   0  0  0  0  0  0  0  0  0  0  0  0
   39.7130   31.5610   45.7480 N   0  0  0  0  0  0  0  0  0  0  0  0
   40.6090   31.1120   45.5260 H   0  0  0  0  0  0  0  0  0  0  0  0
   40.0380   31.6860   42.6850 C   0  0  0  0  0  3  0  0  0  0  0  0
   38.9230   31.2160   43.3480 C   0  0  0  0  0  0  0  0  0  0  0  0
   38.0150   30.3540   42.7690 C   0  0  0  0  0  0  0  0  0  0  0  0
   37.1400   29.9850   43.2880 H   0  0  0  0  0  0  0  0  0  0  0  0
   38.2190   29.9370   41.4660 C   0  0  0  0  0  0  0  0  0  0  0  0
   37.5240   29.1210   40.6550 N   0  0  0  0  0  0  0  0  0  0  0  0
   38.1810   29.0690   39.4940 C   0  0  0  0  0  0  0  0  0  0  0  0
   37.8220   28.4710   38.6620 H   0  0  0  0  0  0  0  0  0  0  0  0
   39.2750   29.8390   39.5630 N   0  0  0  0  0  0  0  0  0  0  0  0
   39.3340   30.4060   40.8000 C   0  0  0  0  0  0  0  0  0  0  0  0
   40.2540   31.2700   41.3670 C   0  0  0  0  0  3  0  0  0  0  0  0
   36.6390   28.6420   40.9360 H   0  0  0  0  0  0  0  0  0  0  0  0
  1  2  1  0  0  0  0
  2  3  1  0  0  0  0
  3  4  2  0  0  0  0
  3 13  1  0  0  0  0
  4  8  1  0  0  0  0
  5  9  1  0  0  0  0
  5  4  1  0  0  0  0
  6  5  2  0  0  0  0
  7  6  1  0  0  0  0
  7  2  2  0  0  0  0
 10  6  1  0  0  0  0
 11 17  1  0  0  0  0
 12 18  1  0  0  0  0
 12 11  2  0  0  0  0
 13 12  1  0  0  0  0
 14 13  2  0  0  0  0
 14 15  1  0  0  0  0
 15 16  2  0  0  0  0
 16 11  1  0  0  0  0
 19 15  1  0  0  0  0
 20 21  2  0  0  0  0
 20 22  1  0  0  0  0
 22  7  1  0  0  0  0
 23 22  1  0  0  0  0
 24 25  1  0  0  0  0
 25 20  1  0  0  0  0
 26 27  1  0  0  0  0
 26 25  2  0  0  0  0
 28 26  1  0  0  0  0
 29 35  1  0  0  0  0
 29 28  1  0  0  0  0
 30 32  2  0  0  0  0
 30 29  1  0  0  0  0
 31 30  1  0  0  0  0
 32 33  1  0  0  0  0
 33 34  1  0  0  0  0
 33 28  2  0  0  0  0
 34 24  2  0  0  0  0
M  END
>  <minimizedAffinity>
-6.50438643

>  <minimizedRMSD>
0.660263181

$$$$
