
 OpenBabel03272510123D

 38 42  0  0  0  0  0  0  0  0999 V2000
   36.5690   29.2630   49.9350 O   0  0  0  0  0  0  0  0  0  0  0  0
   32.5960   28.1180   49.1080 C   0  0  0  0  0  0  0  0  0  0  0  0
   32.8780   29.0400   50.0540 C   0  0  0  0  0  0  0  0  0  0  0  0
   34.1490   29.4630   50.3780 C   0  0  0  0  0  0  0  0  0  0  0  0
   35.2240   28.9490   49.7320 C   0  0  0  0  0  0  0  0  0  0  0  0
   34.9410   27.9920   48.7490 C   0  0  0  0  0  0  0  0  0  0  0  0
   33.6800   27.6100   48.4670 N   0  0  0  0  0  0  0  0  0  0  0  0
   32.0800   29.5030   50.6200 H   0  0  0  0  0  0  0  0  0  0  0  0
   34.3580   30.2040   51.1400 H   0  0  0  0  0  0  0  0  0  0  0  0
   35.7370   27.5240   48.1790 H   0  0  0  0  0  0  0  0  0  0  0  0
   30.1660   27.7640   49.6200 C   0  0  0  0  0  0  0  0  0  0  0  0
   31.2750   27.6720   48.7630 C   0  0  0  0  0  0  0  0  0  0  0  0
   31.0220   27.1130   47.5390 C   0  0  0  0  0  0  0  0  0  0  0  0
   29.7810   26.6840   47.1880 N   0  0  0  0  0  0  0  0  0  0  0  0
   28.7530   26.8080   48.0760 C   0  0  0  0  0  0  0  0  0  0  0  0
   28.9350   27.3510   49.3020 N   0  0  0  0  0  0  0  0  0  0  0  0
   30.3120   28.1980   50.5990 H   0  0  0  0  0  0  0  0  0  0  0  0
   31.8470   27.0240   46.8510 H   0  0  0  0  0  0  0  0  0  0  0  0
   27.7430   26.4870   47.8580 H   0  0  0  0  0  0  0  0  0  0  0  0
   37.2340   30.1640   49.1200 C   0  0  0  0  0  0  0  0  0  0  0  0
   37.9490   31.1400   49.8220 C   0  0  0  0  0  0  0  0  0  0  0  0
   38.5710   31.9820   48.9020 C   0  0  0  0  0  0  0  0  0  0  0  0
   38.2140   31.4930   47.7060 N   0  0  0  0  0  0  0  0  0  0  0  0
   37.4420   30.4420   47.8180 N   0  0  0  0  0  0  0  0  0  0  0  0
   38.1150   31.3700   50.8870 H   0  0  0  0  0  0  0  0  0  0  0  0
   39.2070   32.8470   49.0380 H   0  0  0  0  0  0  0  0  0  0  0  0
   39.8290   32.6850   46.3080 C   0  0  0  0  0  3  0  0  0  0  0  0
   38.6170   32.0350   46.4460 C   0  0  0  0  0  0  0  0  0  0  0  0
   37.7530   31.8880   45.3540 C   0  0  0  0  0  0  0  0  0  0  0  0
   36.7970   31.3870   45.4140 H   0  0  0  0  0  0  0  0  0  0  0  0
   38.1950   32.4350   44.1430 C   0  0  0  0  0  0  0  0  0  0  0  0
   37.5720   32.4390   42.9490 N   0  0  0  0  0  0  0  0  0  0  0  0
   38.4040   33.0830   42.1140 C   0  0  0  0  0  0  0  0  0  0  0  0
   38.3050   33.3170   41.0490 H   0  0  0  0  0  0  0  0  0  0  0  0
   39.5180   33.4840   42.7260 N   0  0  0  0  0  0  0  0  0  0  0  0
   39.4050   33.0820   44.0180 C   0  0  0  0  0  0  0  0  0  0  0  0
   40.2380   33.2150   45.1010 C   0  0  0  0  0  3  0  0  0  0  0  0
   36.6500   32.0490   42.6540 H   0  0  0  0  0  0  0  0  0  0  0  0
  2  3  1  0  0  0  0
  3  4  2  0  0  0  0
  3  8  1  0  0  0  0
  4  9  1  0  0  0  0
  5  1  1  0  0  0  0
  5  4  1  0  0  0  0
  6  5  2  0  0  0  0
  7  6  1  0  0  0  0
  7  2  2  0  0  0  0
 10  6  1  0  0  0  0
 11 17  1  0  0  0  0
 12  2  1  0  0  0  0
 12 11  2  0  0  0  0
 13 12  1  0  0  0  0
 14 13  2  0  0  0  0
 14 15  1  0  0  0  0
 15 16  2  0  0  0  0
 16 11  1  0  0  0  0
 18 13  1  0  0  0  0
 19 15  1  0  0  0  0
 20 21  1  0  0  0  0
 20  1  1  0  0  0  0
 21 25  1  0  0  0  0
 22 26  1  0  0  0  0
 22 21  2  0  0  0  0
 23 24  1  0  0  0  0
 23 22  1  0  0  0  0
 24 20  2  0  0  0  0
 27 28  1  0  0  0  0
 28 23  1  0  0  0  0
 29 30  1  0  0  0  0
 29 28  2  0  0  0  0
 31 29  1  0  0  0  0
 32 31  1  0  0  0  0
 33 35  2  0  0  0  0
 33 32  1  0  0  0  0
 34 33  1  0  0  0  0
 35 36  1  0  0  0  0
 36 31  2  0  0  0  0
 36 37  1  0  0  0  0
 37 27  2  0  0  0  0
 38 32  1  0  0  0  0
M  END
>  <minimizedAffinity>
-6.36431742

>  <minimizedRMSD>
2.76563025

$$$$
