REMARK  Name = 
REMARK  3 active torsions:
REMARK  status: ('A' for Active; 'I' for Inactive)
REMARK    1  A    between atoms: C_3  and  C_13
REMARK    2  A    between atoms: C_8  and  C_15
REMARK    3  A    between atoms: C_15  and  C_24
REMARK                            x       y       z     vdW  Elec       q    Type
REMARK                         _______ _______ _______ _____ _____    ______ ____
ROOT
ATOM      1 CL   UNL     1      38.459  30.823  49.851  0.00  0.00    +0.000 Cl
ATOM      2  C   UNL     1      37.084  30.339  48.878  0.00  0.00    +0.000 A 
ATOM      3  C   UNL     1      37.104  30.610  47.535  0.00  0.00    +0.000 A 
ATOM      4  C   UNL     1      36.044  30.289  46.733  0.00  0.00    +0.000 A 
ATOM      5  C   UNL     1      34.916  29.678  47.262  0.00  0.00    +0.000 A 
ATOM      6  C   UNL     1      34.891  29.402  48.618  0.00  0.00    +0.000 A 
ATOM      7 CL   UNL     1      33.515  28.630  49.388  0.00  0.00    +0.000 Cl
ATOM      8  C   UNL     1      35.993  29.744  49.408  0.00  0.00    +0.000 A 
ATOM      9  H   UNL     1      36.026  30.489  45.671  0.00  0.00    +0.000 HD
ATOM     10  H   UNL     1      34.078  29.423  46.637  0.00  0.00    +0.000 HD
ENDROOT
BRANCH   3  15
ATOM     11  C   UNL     1      39.587  33.179  46.658  0.00  0.00    +0.000 A 
ATOM     12  C   UNL     1      40.453  32.486  45.797  0.00  0.00    +0.000 A 
ATOM     13  C   UNL     1      40.164  31.114  45.525  0.00  0.00    +0.000 A 
ATOM     14  N   UNL     1      39.066  30.566  46.118  0.00  0.00    +0.000 NA
ATOM     15  C   UNL     1      38.261  31.266  46.937  0.00  0.00    +0.000 A 
ATOM     16  N   UNL     1      38.542  32.561  47.189  0.00  0.00    +0.000 NA
ATOM     17  H   UNL     1      39.874  34.199  46.810  0.00  0.00    +0.000 HD
ATOM     18  H   UNL     1      41.318  32.868  45.314  0.00  0.00    +0.000 HD
ATOM     19  H   UNL     1      40.719  30.456  44.898  0.00  0.00    +0.000 HD
ENDBRANCH   3  15
BRANCH   8  20
ATOM     20  C   UNL     1      35.968  29.425  50.855  0.00  0.00    +0.000 C 
ATOM     21  H   UNL     1      36.466  30.255  51.430  0.00  0.00    +0.000 HD
ATOM     22  H   UNL     1      34.879  29.449  51.136  0.00  0.00    +0.000 HD
BRANCH  20  24
ATOM     23  C   UNL     1      37.048  27.077  50.617  0.00  0.00    +0.000 A 
ATOM     24  C   UNL     1      36.525  28.154  51.279  0.00  0.00    +0.000 A 
ATOM     25  C   UNL     1      36.617  27.913  52.669  0.00  0.00    +0.000 A 
ATOM     26  H   UNL     1      36.263  28.662  53.386  0.00  0.00    +0.000 HD
ATOM     27  C   UNL     1      37.135  26.799  53.285  0.00  0.00    +0.000 A 
ATOM     28  N   UNL     1      37.288  26.436  54.579  0.00  0.00    +0.000 N 
ATOM     29  C   UNL     1      37.870  25.215  54.609  0.00  0.00    +0.000 A 
ATOM     30  H   UNL     1      38.086  24.732  55.552  0.00  0.00    +0.000 HD
ATOM     31  N   UNL     1      38.073  24.830  53.314  0.00  0.00    +0.000 NA
ATOM     32  C   UNL     1      37.634  25.777  52.498  0.00  0.00    +0.000 A 
ATOM     33  C   UNL     1      37.586  25.926  51.129  0.00  0.00    +0.000 A 
ATOM     34  H   UNL     1      37.001  27.009  55.424  0.00  0.00    +0.000 HD
ENDBRANCH  20  24
ENDBRANCH   8  20
TORSDOF 3
