
 OpenBabel03272508083D

 27 29  0  0  0  0  0  0  0  0999 V2000
   36.8180   31.4950   46.4690 O   0  0  0  0  0  0  0  0  0  0  0  0
   35.9060   30.3070   46.5660 P   0  0  2  0  0  0  0  0  0  0  0  0
   34.2970   30.8140   46.5920 O   0  0  0  0  0  0  0  0  0  0  0  0
   33.7020   30.1650   46.1440 H   0  0  0  0  0  0  0  0  0  0  0  0
   36.2430   29.2800   47.8510 O   0  0  0  0  0  0  0  0  0  0  0  0
   38.0110   30.4670   50.8890 C   0  0  0  0  0  0  0  0  0  0  0  0
   37.8050   30.2700   49.5090 C   0  0  0  0  0  0  0  0  0  0  0  0
   36.6520   29.5860   49.1000 C   0  0  0  0  0  0  0  0  0  0  0  0
   35.7930   29.1510   50.0660 N   0  0  0  0  0  0  0  0  0  0  0  0
   36.0270   29.3600   51.3720 C   0  0  0  0  0  0  0  0  0  0  0  0
   37.1300   30.0150   51.7840 N   0  0  0  0  0  0  0  0  0  0  0  0
   38.9440   31.0090   51.0250 H   0  0  0  0  0  0  0  0  0  0  0  0
   38.4120   30.5700   48.6870 H   0  0  0  0  0  0  0  0  0  0  0  0
   35.3580   29.0230   52.1600 H   0  0  0  0  0  0  0  0  0  0  0  0
   36.1260   29.4450   45.0970 O   0  0  0  0  0  0  0  0  0  0  0  0
   36.3360   30.6880   43.1670 C   0  0  0  0  0  3  0  0  0  0  0  0
   36.9950   29.9070   44.1020 C   0  0  0  0  0  0  0  0  0  0  0  0
   38.3450   29.6540   44.0060 C   0  0  0  0  0  0  0  0  0  0  0  0
   38.7560   29.0310   44.7920 H   0  0  0  0  0  0  0  0  0  0  0  0
   39.0160   30.2110   42.9380 C   0  0  0  0  0  0  0  0  0  0  0  0
   40.3190   30.1110   42.6290 N   0  0  0  0  0  0  0  0  0  0  0  0
   40.4910   30.8280   41.4970 C   0  0  0  0  0  0  0  0  0  0  0  0
   41.4630   30.9170   41.0230 H   0  0  0  0  0  0  0  0  0  0  0  0
   39.3190   31.3480   41.1310 N   0  0  0  0  0  0  0  0  0  0  0  0
   38.3650   30.9880   42.0040 C   0  0  0  0  0  0  0  0  0  0  0  0
   37.0150   31.2450   42.0960 C   0  0  0  0  0  3  0  0  0  0  0  0
   41.0670   29.5810   43.1590 H   0  0  0  0  0  0  0  0  0  0  0  0
  2  1  2  1  0  0  0
  2  3  1  0  0  0  0
  2  5  1  0  0  0  0
  4  3  1  0  0  0  0
  5  8  1  0  0  0  0
  6 12  1  0  0  0  0
  6 11  1  0  0  0  0
  7  6  2  0  0  0  0
  8  7  1  0  0  0  0
  8  9  2  0  0  0  0
  9 10  1  0  0  0  0
 10 11  2  0  0  0  0
 10 14  1  0  0  0  0
 13  7  1  0  0  0  0
 15  2  1  0  0  0  0
 16 17  1  0  0  0  0
 17 15  1  0  0  0  0
 18 17  2  0  0  0  0
 18 19  1  0  0  0  0
 20 18  1  0  0  0  0
 21 20  1  0  0  0  0
 21 27  1  0  0  0  0
 22 21  1  0  0  0  0
 23 22  1  0  0  0  0
 24 22  2  0  0  0  0
 24 25  1  0  0  0  0
 25 26  1  0  0  0  0
 25 20  2  0  0  0  0
 26 16  2  0  0  0  0
M  END
>  <minimizedAffinity>
-3.4237349

>  <minimizedRMSD>
4.78079939

$$$$
