
 OpenBabel03272508513D

 32 35  0  0  1  0  0  0  0  0999 V2000
   34.4770   25.8830   44.2070 C   0  0  2  0  0  0  0  0  0  0  0  0
   33.9990   26.5490   45.4140 C   0  0  0  0  0  0  0  0  0  0  0  0
   34.0320   27.2660   44.0540 C   0  0  1  0  0  0  0  0  0  0  0  0
   35.5810   25.7500   43.9590 H   0  0  0  0  0  0  0  0  0  0  0  0
   34.6900   26.9520   46.1490 H   0  0  0  0  0  0  0  0  0  0  0  0
   33.0240   26.1910   45.8030 H   0  0  0  0  0  0  0  0  0  0  0  0
   33.0120   27.6360   43.8460 H   0  0  0  0  0  0  0  0  0  0  0  0
   32.2170   24.1050   41.8610 C   0  0  0  0  0  0  0  0  0  0  0  0
   32.3080   22.7740   42.3340 C   0  0  0  0  0  0  0  0  0  0  0  0
   33.1480   22.4870   43.4590 C   0  0  0  0  0  0  0  0  0  0  0  0
   33.8210   23.5260   44.0180 N   0  0  0  0  0  0  0  0  0  0  0  0
   33.7050   24.7920   43.5320 C   0  0  0  0  0  0  0  0  0  0  0  0
   32.9280   25.1040   42.4770 N   0  0  0  0  0  0  0  0  0  0  0  0
   31.5620   24.2210   41.0130 H   0  0  0  0  0  0  0  0  0  0  0  0
   31.7540   21.9770   41.8570 H   0  0  0  0  0  0  0  0  0  0  0  0
   33.2340   21.4820   43.8360 H   0  0  0  0  0  0  0  0  0  0  0  0
   35.4480   28.6980   42.6270 C   0  0  0  0  0  0  0  0  0  0  0  0
   34.7820   28.3240   41.6310 O   0  0  0  0  0  0  0  0  0  0  0  0
   35.0860   28.2830   43.9540 N   0  0  0  0  0  0  0  0  0  0  0  0
   35.5110   28.6460   44.8280 H   0  0  0  0  0  0  0  0  0  0  0  0
   37.2190   29.9250   41.2790 C   0  0  0  0  0  3  0  0  0  0  0  0
   36.6110   29.5650   42.4640 C   0  0  0  0  0  0  0  0  0  0  0  0
   37.2010   30.1070   43.6060 C   0  0  0  0  0  0  0  0  0  0  0  0
   36.7650   29.8580   44.5630 H   0  0  0  0  0  0  0  0  0  0  0  0
   38.2990   30.9400   43.6240 C   0  0  0  0  0  0  0  0  0  0  0  0
   38.9750   31.5350   44.6160 N   0  0  0  0  0  0  0  0  0  0  0  0
   39.9680   32.2380   44.0220 C   0  0  0  0  0  0  0  0  0  0  0  0
   40.7070   32.8410   44.5510 H   0  0  0  0  0  0  0  0  0  0  0  0
   39.9100   32.0800   42.6670 N   0  0  0  0  0  0  0  0  0  0  0  0
   38.8710   31.2720   42.4140 C   0  0  0  0  0  0  0  0  0  0  0  0
   38.3180   30.7570   41.2580 C   0  0  0  0  0  3  0  0  0  0  0  0
   38.7850   31.4780   45.6400 H   0  0  0  0  0  0  0  0  0  0  0  0
  1  4  1  6  0  0  0
  1  2  1  0  0  0  0
  2  6  1  0  0  0  0
  2  5  1  0  0  0  0
  3  7  1  6  0  0  0
  3  1  1  0  0  0  0
  3  2  1  0  0  0  0
  8  9  2  0  0  0  0
  8 13  1  0  0  0  0
  9 10  1  0  0  0  0
 10 16  1  0  0  0  0
 10 11  2  0  0  0  0
 12 11  1  0  0  0  0
 12  1  1  0  0  0  0
 13 12  2  0  0  0  0
 14  8  1  0  0  0  0
 15  9  1  0  0  0  0
 17 19  1  0  0  0  0
 18 17  2  0  0  0  0
 19  3  1  0  0  0  0
 19 20  1  0  0  0  0
 21 22  1  0  0  0  0
 22 17  1  0  0  0  0
 22 23  2  0  0  0  0
 23 25  1  0  0  0  0
 23 24  1  0  0  0  0
 25 26  1  0  0  0  0
 26 32  1  0  0  0  0
 27 28  1  0  0  0  0
 27 26  1  0  0  0  0
 29 27  2  0  0  0  0
 30 29  1  0  0  0  0
 30 25  2  0  0  0  0
 31 21  2  0  0  0  0
 31 30  1  0  0  0  0
M  END
>  <minimizedAffinity>
-2.10482669

>  <minimizedRMSD>
10.2718487

$$$$
