
 OpenBabel03272509253D

 27 29  0  0  0  0  0  0  0  0999 V2000
   38.5230   31.8270   47.7630 C   0  0  0  0  0  0  0  0  0  0  0  0
   37.8200   32.5250   48.2210 H   0  0  0  0  0  0  0  0  0  0  0  0
   39.5280   31.8010   48.2320 H   0  0  0  0  0  0  0  0  0  0  0  0
   39.9280   32.8520   45.9910 C   0  0  0  0  0  3  0  0  0  0  0  0
   38.7180   32.2490   46.3370 C   0  0  0  0  0  0  0  0  0  0  0  0
   37.8060   32.1020   45.3100 C   0  0  0  0  0  0  0  0  0  0  0  0
   36.8710   31.6350   45.5800 H   0  0  0  0  0  0  0  0  0  0  0  0
   38.1190   32.5350   44.0510 C   0  0  0  0  0  0  0  0  0  0  0  0
   37.4070   32.5040   42.8970 N   0  0  0  0  0  0  0  0  0  0  0  0
   38.1540   33.0620   41.9040 C   0  0  0  0  0  0  0  0  0  0  0  0
   37.8850   33.1950   40.8590 H   0  0  0  0  0  0  0  0  0  0  0  0
   39.3370   33.4460   42.4270 N   0  0  0  0  0  0  0  0  0  0  0  0
   39.3230   33.1280   43.7380 C   0  0  0  0  0  0  0  0  0  0  0  0
   40.2660   33.2980   44.7290 C   0  0  0  0  0  3  0  0  0  0  0  0
   36.4370   32.1170   42.7710 H   0  0  0  0  0  0  0  0  0  0  0  0
   37.8960   30.4390   47.7470 C   0  0  0  0  0  0  0  0  0  0  0  0
   38.7000   29.6800   47.5440 H   0  0  0  0  0  0  0  0  0  0  0  0
   37.1020   30.4110   46.9950 H   0  0  0  0  0  0  0  0  0  0  0  0
   37.2950   30.1320   51.4900 C   0  0  0  0  0  0  0  0  0  0  0  0
   37.9000   30.4630   50.2770 C   0  0  0  0  0  0  0  0  0  0  0  0
   37.3100   30.1210   49.0730 C   0  0  0  0  0  0  0  0  0  0  0  0
   36.1270   29.4580   49.1440 N   0  0  0  0  0  0  0  0  0  0  0  0
   35.5440   29.1400   50.3240 C   0  0  0  0  0  0  0  0  0  0  0  0
   36.1300   29.4790   51.4930 N   0  0  0  0  0  0  0  0  0  0  0  0
   37.8240   30.4370   52.3950 H   0  0  0  0  0  0  0  0  0  0  0  0
   38.8420   30.9900   50.2780 H   0  0  0  0  0  0  0  0  0  0  0  0
   34.5980   28.6090   50.3030 H   0  0  0  0  0  0  0  0  0  0  0  0
  1  2  1  0  0  0  0
  1  3  1  0  0  0  0
  4  5  1  0  0  0  0
  5  1  1  0  0  0  0
  6  7  1  0  0  0  0
  6  5  2  0  0  0  0
  8  6  1  0  0  0  0
  9  8  1  0  0  0  0
 10 12  2  0  0  0  0
 10  9  1  0  0  0  0
 11 10  1  0  0  0  0
 12 13  1  0  0  0  0
 13  8  2  0  0  0  0
 13 14  1  0  0  0  0
 14  4  2  0  0  0  0
 15  9  1  0  0  0  0
 16  1  1  0  0  0  0
 16 21  1  0  0  0  0
 17 16  1  0  0  0  0
 18 16  1  0  0  0  0
 19 24  1  0  0  0  0
 19 25  1  0  0  0  0
 20 26  1  0  0  0  0
 20 19  2  0  0  0  0
 21 22  2  0  0  0  0
 21 20  1  0  0  0  0
 22 23  1  0  0  0  0
 23 24  2  0  0  0  0
 27 23  1  0  0  0  0
M  END
>  <minimizedAffinity>
-5.74394846

>  <minimizedRMSD>
1.66004419

$$$$
