
 OpenBabel03272507533D

 35 38  0  0  0  0  0  0  0  0999 V2000
   36.2430   26.1030   31.8020 N   0  0  0  0  0  0  0  0  0  0  0  0
   35.5230   25.1860   31.1670 C   0  0  0  0  0  0  0  0  0  0  0  0
   35.8080   23.8320   31.3610 C   0  0  0  0  0  0  0  0  0  0  0  0
   36.8390   23.5740   32.2190 C   0  0  0  0  0  0  0  0  0  0  0  0
   37.0680   22.3330   32.3710 O   0  0  0  0  0  0  0  0  0  0  0  0
   37.5790   24.4610   32.8700 N   0  0  0  0  0  0  0  0  0  0  0  0
   37.2630   25.7570   32.6470 C   0  0  0  0  0  0  0  0  0  0  0  0
   37.9640   26.6200   33.2650 O   0  0  0  0  0  0  0  0  0  0  0  0
   34.7500   25.5810   30.5300 H   0  0  0  0  0  0  0  0  0  0  0  0
   35.2130   23.1250   30.8390 H   0  0  0  0  0  0  0  0  0  0  0  0
   40.0020   24.1030   33.5420 C   0  0  0  0  0  3  0  0  0  0  0  0
   38.6450   24.1030   33.7540 C   0  0  0  0  0  0  0  0  0  0  0  0
   38.1300   23.7080   34.9910 C   0  0  0  0  0  0  0  0  0  0  0  0
   37.0810   23.6650   35.2820 H   0  0  0  0  0  0  0  0  0  0  0  0
   38.9770   23.3130   36.0180 C   0  0  0  0  0  0  0  0  0  0  0  0
   38.8120   22.8840   37.2980 N   0  0  0  0  0  0  0  0  0  0  0  0
   40.0250   22.6340   37.8420 C   0  0  0  0  0  0  0  0  0  0  0  0
   40.1200   22.2810   38.8620 H   0  0  0  0  0  0  0  0  0  0  0  0
   40.9730   22.9060   36.8980 N   0  0  0  0  0  0  0  0  0  0  0  0
   40.3370   23.3170   35.7920 C   0  0  0  0  0  0  0  0  0  0  0  0
   40.8370   23.7090   34.5670 C   0  0  0  0  0  3  0  0  0  0  0  0
   37.8590   22.7790   37.7560 H   0  0  0  0  0  0  0  0  0  0  0  0
   36.6910   28.1700   30.6020 C   0  0  0  0  0  0  0  0  0  0  0  0
   36.0180   27.5140   31.6520 C   0  0  0  0  0  0  0  0  0  0  0  0
   35.1740   28.2580   32.4930 C   0  0  0  0  0  0  0  0  0  0  0  0
   35.0540   29.5810   32.2420 N   0  0  0  0  0  0  0  0  0  0  0  0
   35.6840   30.1980   31.2570 C   0  0  0  0  0  0  0  0  0  0  0  0
   36.4960   29.4960   30.4440 N   0  0  0  0  0  0  0  0  0  0  0  0
   34.6750   27.7270   33.2870 H   0  0  0  0  0  0  0  0  0  0  0  0
   35.5940   31.2560   31.0490 H   0  0  0  0  0  0  0  0  0  0  0  0
   38.9770   27.3130   29.6780 C   0  0  0  0  0  0  0  0  0  0  0  0
   39.7050   27.6950   30.6170 O   0  0  0  0  0  0  0  0  0  0  0  0
   37.5490   27.5110   29.6960 N   0  0  0  0  0  0  0  0  0  0  0  0
   39.4850   26.8290   28.8610 H   0  0  0  0  0  0  0  0  0  0  0  0
   37.1100   27.0510   28.8460 H   0  0  0  0  0  0  0  0  0  0  0  0
  1  7  1  0  0  0  0
  2  3  2  0  0  0  0
  2  1  1  0  0  0  0
  3  4  1  0  0  0  0
  4  5  2  0  0  0  0
  4  6  1  0  0  0  0
  6 12  1  0  0  0  0
  7  6  1  0  0  0  0
  7  8  2  0  0  0  0
  9  2  1  0  0  0  0
 10  3  1  0  0  0  0
 11 12  2  0  0  0  0
 11 21  1  0  0  0  0
 12 13  1  0  0  0  0
 13 14  1  0  0  0  0
 13 15  2  0  0  0  0
 15 16  1  0  0  0  0
 16 22  1  0  0  0  0
 16 17  1  0  0  0  0
 17 18  1  0  0  0  0
 19 17  2  0  0  0  0
 20 15  1  0  0  0  0
 20 19  1  0  0  0  0
 21 20  2  0  0  0  0
 23 24  1  0  0  0  0
 24  1  1  0  0  0  0
 24 25  2  0  0  0  0
 25 29  1  0  0  0  0
 26 25  1  0  0  0  0
 27 26  2  0  0  0  0
 28 23  2  0  0  0  0
 28 27  1  0  0  0  0
 30 27  1  0  0  0  0
 31 33  1  0  0  0  0
 31 32  2  0  0  0  0
 33 23  1  0  0  0  0
 34 31  1  0  0  0  0
 35 33  1  0  0  0  0
M  END
>  <minimizedAffinity>
-5.82689095

$$$$

 OpenBabel03272507533D

 35 38  0  0  0  0  0  0  0  0999 V2000
   37.5620   27.5160   32.7720 N   0  0  0  0  0  0  0  0  0  0  0  0
   37.6220   27.8890   31.4990 C   0  0  0  0  0  0  0  0  0  0  0  0
   36.7840   28.9080   31.0400 C   0  0  0  0  0  0  0  0  0  0  0  0
   35.9520   29.4420   31.9830 C   0  0  0  0  0  0  0  0  0  0  0  0
   35.2050   30.3650   31.5290 O   0  0  0  0  0  0  0  0  0  0  0  0
   35.8630   29.0960   33.2600 N   0  0  0  0  0  0  0  0  0  0  0  0
   36.6960   28.1050   33.6530 C   0  0  0  0  0  0  0  0  0  0  0  0
   36.6230   27.7630   34.8760 O   0  0  0  0  0  0  0  0  0  0  0  0
   38.3420   27.3510   30.9050 H   0  0  0  0  0  0  0  0  0  0  0  0
   36.8580   29.1820   30.0170 H   0  0  0  0  0  0  0  0  0  0  0  0
   33.6260   29.4700   34.4010 C   0  0  0  0  0  3  0  0  0  0  0  0
   34.9600   29.7100   34.1830 C   0  0  0  0  0  0  0  0  0  0  0  0
   35.6260   30.6870   34.9270 C   0  0  0  0  0  0  0  0  0  0  0  0
   36.6740   30.9700   34.8500 H   0  0  0  0  0  0  0  0  0  0  0  0
   34.9520   31.4230   35.8940 C   0  0  0  0  0  0  0  0  0  0  0  0
   35.2880   32.4130   36.7640 N   0  0  0  0  0  0  0  0  0  0  0  0
   34.1960   32.7580   37.4840 C   0  0  0  0  0  0  0  0  0  0  0  0
   34.2450   33.5340   38.2390 H   0  0  0  0  0  0  0  0  0  0  0  0
   33.1540   31.9810   37.0670 N   0  0  0  0  0  0  0  0  0  0  0  0
   33.6130   31.1720   36.1030 C   0  0  0  0  0  0  0  0  0  0  0  0
   32.9630   30.2050   35.3620 C   0  0  0  0  0  3  0  0  0  0  0  0
   36.2670   32.8190   36.8320 H   0  0  0  0  0  0  0  0  0  0  0  0
   37.9310   25.1470   33.1800 C   0  0  0  0  0  0  0  0  0  0  0  0
   38.3860   26.4740   33.3200 C   0  0  0  0  0  0  0  0  0  0  0  0
   39.6020   26.7130   33.9810 C   0  0  0  0  0  0  0  0  0  0  0  0
   40.2760   25.6400   34.4520 N   0  0  0  0  0  0  0  0  0  0  0  0
   39.8510   24.3950   34.3210 C   0  0  0  0  0  0  0  0  0  0  0  0
   38.6870   24.1520   33.6900 N   0  0  0  0  0  0  0  0  0  0  0  0
   39.9210   27.7380   34.0710 H   0  0  0  0  0  0  0  0  0  0  0  0
   40.3840   23.5310   34.6950 H   0  0  0  0  0  0  0  0  0  0  0  0
   36.4520   24.3310   31.1890 C   0  0  0  0  0  0  0  0  0  0  0  0
   37.3670   24.0810   30.3770 O   0  0  0  0  0  0  0  0  0  0  0  0
   36.7310   24.8010   32.5230 N   0  0  0  0  0  0  0  0  0  0  0  0
   35.4500   24.1740   30.8280 H   0  0  0  0  0  0  0  0  0  0  0  0
   35.8260   24.8830   33.0740 H   0  0  0  0  0  0  0  0  0  0  0  0
  1 24  1  0  0  0  0
  1  7  1  0  0  0  0
  2  1  1  0  0  0  0
  3  2  2  0  0  0  0
  3  4  1  0  0  0  0
  4  6  1  0  0  0  0
  5  4  2  0  0  0  0
  6  7  1  0  0  0  0
  6 12  1  0  0  0  0
  7  8  2  0  0  0  0
  9  2  1  0  0  0  0
 10  3  1  0  0  0  0
 11 21  1  0  0  0  0
 12 11  2  0  0  0  0
 12 13  1  0  0  0  0
 13 15  2  0  0  0  0
 14 13  1  0  0  0  0
 15 20  1  0  0  0  0
 15 16  1  0  0  0  0
 16 22  1  0  0  0  0
 16 17  1  0  0  0  0
 17 18  1  0  0  0  0
 19 17  2  0  0  0  0
 20 19  1  0  0  0  0
 21 20  2  0  0  0  0
 23 24  2  0  0  0  0
 23 28  1  0  0  0  0
 24 25  1  0  0  0  0
 25 29  1  0  0  0  0
 25 26  2  0  0  0  0
 27 26  1  0  0  0  0
 27 30  1  0  0  0  0
 28 27  2  0  0  0  0
 31 33  1  0  0  0  0
 32 31  2  0  0  0  0
 33 35  1  0  0  0  0
 33 23  1  0  0  0  0
 34 31  1  0  0  0  0
M  END
>  <minimizedAffinity>
-5.74263954

$$$$

 OpenBabel03272507533D

 35 38  0  0  0  0  0  0  0  0999 V2000
   38.6170   22.5300   33.9520 N   0  0  0  0  0  0  0  0  0  0  0  0
   37.7570   21.6130   33.5250 C   0  0  0  0  0  0  0  0  0  0  0  0
   36.7120   21.9900   32.6780 C   0  0  0  0  0  0  0  0  0  0  0  0
   36.6760   23.3180   32.3580 C   0  0  0  0  0  0  0  0  0  0  0  0
   35.7130   23.6220   31.5870 O   0  0  0  0  0  0  0  0  0  0  0  0
   37.5150   24.2610   32.7640 N   0  0  0  0  0  0  0  0  0  0  0  0
   38.5080   23.8440   33.5820 C   0  0  0  0  0  0  0  0  0  0  0  0
   39.3210   24.7380   33.9790 O   0  0  0  0  0  0  0  0  0  0  0  0
   37.9460   20.6150   33.8850 H   0  0  0  0  0  0  0  0  0  0  0  0
   36.0430   21.2320   32.3560 H   0  0  0  0  0  0  0  0  0  0  0  0
   36.8690   26.6990   33.0610 C   0  0  0  0  0  3  0  0  0  0  0  0
   37.4040   25.6340   32.3790 C   0  0  0  0  0  0  0  0  0  0  0  0
   37.9460   25.8200   31.1050 C   0  0  0  0  0  0  0  0  0  0  0  0
   38.3970   25.0620   30.4660 H   0  0  0  0  0  0  0  0  0  0  0  0
   37.9540   27.0780   30.5150 C   0  0  0  0  0  0  0  0  0  0  0  0
   38.3870   27.5880   29.3310 N   0  0  0  0  0  0  0  0  0  0  0  0
   38.1250   28.9150   29.2980 C   0  0  0  0  0  0  0  0  0  0  0  0
   38.3910   29.5180   28.4380 H   0  0  0  0  0  0  0  0  0  0  0  0
   37.5180   29.2530   30.4740 N   0  0  0  0  0  0  0  0  0  0  0  0
   37.4140   28.1380   31.2100 C   0  0  0  0  0  0  0  0  0  0  0  0
   36.8800   27.9450   32.4680 C   0  0  0  0  0  3  0  0  0  0  0  0
   38.8530   26.9980   28.5810 H   0  0  0  0  0  0  0  0  0  0  0  0
   39.4570   22.2330   36.2150 C   0  0  0  0  0  0  0  0  0  0  0  0
   39.7140   22.2250   34.8280 C   0  0  0  0  0  0  0  0  0  0  0  0
   41.0090   21.9270   34.3740 C   0  0  0  0  0  0  0  0  0  0  0  0
   41.9500   21.6610   35.3080 N   0  0  0  0  0  0  0  0  0  0  0  0
   41.7110   21.6680   36.6090 C   0  0  0  0  0  0  0  0  0  0  0  0
   40.4740   21.9520   37.0570 N   0  0  0  0  0  0  0  0  0  0  0  0
   41.1720   21.9300   33.3100 H   0  0  0  0  0  0  0  0  0  0  0  0
   42.4580   21.4560   37.3620 H   0  0  0  0  0  0  0  0  0  0  0  0
   37.5770   23.7230   37.2430 C   0  0  0  0  0  0  0  0  0  0  0  0
   38.1480   24.8280   37.1440 O   0  0  0  0  0  0  0  0  0  0  0  0
   38.1890   22.5070   36.7690 N   0  0  0  0  0  0  0  0  0  0  0  0
   36.6030   23.7400   37.7040 H   0  0  0  0  0  0  0  0  0  0  0  0
   37.5130   21.6950   36.8800 H   0  0  0  0  0  0  0  0  0  0  0  0
  1 24  1  0  0  0  0
  2  9  1  0  0  0  0
  2  1  1  0  0  0  0
  3  2  2  0  0  0  0
  4  3  1  0  0  0  0
  4  6  1  0  0  0  0
  5  4  2  0  0  0  0
  6  7  1  0  0  0  0
  7  1  1  0  0  0  0
  7  8  2  0  0  0  0
 10  3  1  0  0  0  0
 12  6  1  0  0  0  0
 12 11  2  0  0  0  0
 13 12  1  0  0  0  0
 14 13  1  0  0  0  0
 15 13  2  0  0  0  0
 15 20  1  0  0  0  0
 16 15  1  0  0  0  0
 17 16  1  0  0  0  0
 17 19  2  0  0  0  0
 18 17  1  0  0  0  0
 19 20  1  0  0  0  0
 20 21  2  0  0  0  0
 21 11  1  0  0  0  0
 22 16  1  0  0  0  0
 23 33  1  0  0  0  0
 23 28  1  0  0  0  0
 24 23  2  0  0  0  0
 25 24  1  0  0  0  0
 25 26  2  0  0  0  0
 26 27  1  0  0  0  0
 27 28  2  0  0  0  0
 27 30  1  0  0  0  0
 29 25  1  0  0  0  0
 31 34  1  0  0  0  0
 32 31  2  0  0  0  0
 33 35  1  0  0  0  0
 33 31  1  0  0  0  0
M  END
>  <minimizedAffinity>
-5.70478439

$$$$

 OpenBabel03272507533D

 35 38  0  0  0  0  0  0  0  0999 V2000
   35.0660   29.6840   32.4880 N   0  0  0  0  0  0  0  0  0  0  0  0
   35.5540   29.8440   31.2630 C   0  0  0  0  0  0  0  0  0  0  0  0
   36.7230   29.1750   30.8950 C   0  0  0  0  0  0  0  0  0  0  0  0
   37.2720   28.3890   31.8690 C   0  0  0  0  0  0  0  0  0  0  0  0
   38.3330   27.7960   31.4970 O   0  0  0  0  0  0  0  0  0  0  0  0
   36.8140   28.2040   33.1000 N   0  0  0  0  0  0  0  0  0  0  0  0
   35.6810   28.8750   33.4050 C   0  0  0  0  0  0  0  0  0  0  0  0
   35.2290   28.7080   34.5830 O   0  0  0  0  0  0  0  0  0  0  0  0
   34.9830   30.5050   30.6330 H   0  0  0  0  0  0  0  0  0  0  0  0
   37.0860   29.3250   29.9090 H   0  0  0  0  0  0  0  0  0  0  0  0
   38.1070   27.6870   35.2240 C   0  0  0  0  0  3  0  0  0  0  0  0
   37.4540   27.3600   34.0610 C   0  0  0  0  0  0  0  0  0  0  0  0
   37.3460   26.0230   33.6710 C   0  0  0  0  0  0  0  0  0  0  0  0
   36.8570   25.6370   32.7780 H   0  0  0  0  0  0  0  0  0  0  0  0
   37.8940   25.0110   34.4500 C   0  0  0  0  0  0  0  0  0  0  0  0
   37.9660   23.6560   34.3640 N   0  0  0  0  0  0  0  0  0  0  0  0
   38.6380   23.1790   35.4370 C   0  0  0  0  0  0  0  0  0  0  0  0
   38.8100   22.1170   35.5640 H   0  0  0  0  0  0  0  0  0  0  0  0
   38.9980   24.2430   36.2140 N   0  0  0  0  0  0  0  0  0  0  0  0
   38.5470   25.3530   35.6150 C   0  0  0  0  0  0  0  0  0  0  0  0
   38.6490   26.6760   35.9920 C   0  0  0  0  0  3  0  0  0  0  0  0
   37.5450   23.1020   33.5610 H   0  0  0  0  0  0  0  0  0  0  0  0
   34.0320   31.4890   33.7480 C   0  0  0  0  0  0  0  0  0  0  0  0
   33.8730   30.3410   32.9450 C   0  0  0  0  0  0  0  0  0  0  0  0
   32.5770   29.8970   32.6370 C   0  0  0  0  0  0  0  0  0  0  0  0
   31.5400   30.6070   33.1360 N   0  0  0  0  0  0  0  0  0  0  0  0
   31.6870   31.6840   33.8890 C   0  0  0  0  0  0  0  0  0  0  0  0
   32.9250   32.1200   34.1920 N   0  0  0  0  0  0  0  0  0  0  0  0
   32.4890   29.0170   32.0220 H   0  0  0  0  0  0  0  0  0  0  0  0
   30.8640   32.2580   34.2910 H   0  0  0  0  0  0  0  0  0  0  0  0
   35.9990   32.0890   35.3560 C   0  0  0  0  0  0  0  0  0  0  0  0
   35.5520   31.5570   36.3930 O   0  0  0  0  0  0  0  0  0  0  0  0
   35.2900   32.0210   34.1030 N   0  0  0  0  0  0  0  0  0  0  0  0
   36.9420   32.5980   35.4610 H   0  0  0  0  0  0  0  0  0  0  0  0
   35.8700   32.4690   33.3350 H   0  0  0  0  0  0  0  0  0  0  0  0
  1 24  1  0  0  0  0
  1  7  1  0  0  0  0
  2  1  1  0  0  0  0
  3  2  2  0  0  0  0
  3  4  1  0  0  0  0
  4  6  1  0  0  0  0
  5  4  2  0  0  0  0
  6  7  1  0  0  0  0
  6 12  1  0  0  0  0
  7  8  2  0  0  0  0
  9  2  1  0  0  0  0
 10  3  1  0  0  0  0
 11 21  1  0  0  0  0
 12 11  2  0  0  0  0
 13 12  1  0  0  0  0
 13 15  2  0  0  0  0
 14 13  1  0  0  0  0
 15 20  1  0  0  0  0
 16 15  1  0  0  0  0
 16 17  1  0  0  0  0
 17 18  1  0  0  0  0
 17 19  2  0  0  0  0
 20 21  2  0  0  0  0
 20 19  1  0  0  0  0
 22 16  1  0  0  0  0
 23 33  1  0  0  0  0
 23 28  1  0  0  0  0
 24 23  2  0  0  0  0
 25 24  1  0  0  0  0
 25 26  2  0  0  0  0
 26 27  1  0  0  0  0
 27 28  2  0  0  0  0
 27 30  1  0  0  0  0
 29 25  1  0  0  0  0
 31 34  1  0  0  0  0
 31 32  2  0  0  0  0
 33 31  1  0  0  0  0
 35 33  1  0  0  0  0
M  END
>  <minimizedAffinity>
-5.6076355

$$$$

 OpenBabel03272507533D

 35 38  0  0  0  0  0  0  0  0999 V2000
   35.4270   30.7730   33.4510 N   0  0  0  0  0  0  0  0  0  0  0  0
   35.5380   31.6180   32.4320 C   0  0  0  0  0  0  0  0  0  0  0  0
   36.1040   31.1800   31.2330 C   0  0  0  0  0  0  0  0  0  0  0  0
   36.5040   29.8740   31.2250 C   0  0  0  0  0  0  0  0  0  0  0  0
   37.0140   29.5120   30.1180 O   0  0  0  0  0  0  0  0  0  0  0  0
   36.4100   29.0020   32.2190 N   0  0  0  0  0  0  0  0  0  0  0  0
   35.8550   29.4760   33.3580 C   0  0  0  0  0  0  0  0  0  0  0  0
   35.7570   28.6510   34.3210 O   0  0  0  0  0  0  0  0  0  0  0  0
   35.1660   32.6100   32.6270 H   0  0  0  0  0  0  0  0  0  0  0  0
   36.1780   31.8810   30.4390 H   0  0  0  0  0  0  0  0  0  0  0  0
   38.0900   27.1050   32.3900 C   0  0  0  0  0  3  0  0  0  0  0  0
   36.8560   27.6460   32.1250 C   0  0  0  0  0  0  0  0  0  0  0  0
   35.8110   26.8270   31.6900 C   0  0  0  0  0  0  0  0  0  0  0  0
   34.7940   27.1320   31.4490 H   0  0  0  0  0  0  0  0  0  0  0  0
   36.0040   25.4620   31.5220 C   0  0  0  0  0  0  0  0  0  0  0  0
   35.2290   24.4160   31.1270 N   0  0  0  0  0  0  0  0  0  0  0  0
   35.9670   23.2830   31.1530 C   0  0  0  0  0  0  0  0  0  0  0  0
   35.5380   22.3280   30.8730 H   0  0  0  0  0  0  0  0  0  0  0  0
   37.2260   23.6100   31.5690 N   0  0  0  0  0  0  0  0  0  0  0  0
   37.2480   24.9310   31.7920 C   0  0  0  0  0  0  0  0  0  0  0  0
   38.2740   25.7480   32.2200 C   0  0  0  0  0  3  0  0  0  0  0  0
   34.2080   24.5230   30.8510 H   0  0  0  0  0  0  0  0  0  0  0  0
   33.4600   31.0690   34.8500 C   0  0  0  0  0  0  0  0  0  0  0  0
   34.8610   31.1470   34.7170 C   0  0  0  0  0  0  0  0  0  0  0  0
   35.6280   31.5810   35.8110 C   0  0  0  0  0  0  0  0  0  0  0  0
   34.9670   31.9050   36.9460 N   0  0  0  0  0  0  0  0  0  0  0  0
   33.6520   31.8320   37.0720 C   0  0  0  0  0  0  0  0  0  0  0  0
   32.9060   31.4170   36.0300 N   0  0  0  0  0  0  0  0  0  0  0  0
   36.6950   31.6300   35.6770 H   0  0  0  0  0  0  0  0  0  0  0  0
   33.1160   32.0880   37.9750 H   0  0  0  0  0  0  0  0  0  0  0  0
   31.7600   29.4730   33.6750 C   0  0  0  0  0  0  0  0  0  0  0  0
   31.6220   28.6450   34.6000 O   0  0  0  0  0  0  0  0  0  0  0  0
   32.6040   30.6330   33.8160 N   0  0  0  0  0  0  0  0  0  0  0  0
   31.2110   29.2620   32.7730 H   0  0  0  0  0  0  0  0  0  0  0  0
   32.5270   31.2430   32.9500 H   0  0  0  0  0  0  0  0  0  0  0  0
  1 24  1  0  0  0  0
  2  9  1  0  0  0  0
  2  1  1  0  0  0  0
  3  2  2  0  0  0  0
  4  3  1  0  0  0  0
  4  6  1  0  0  0  0
  5  4  2  0  0  0  0
  6  7  1  0  0  0  0
  7  1  1  0  0  0  0
  7  8  2  0  0  0  0
 10  3  1  0  0  0  0
 12  6  1  0  0  0  0
 12 11  2  0  0  0  0
 13 12  1  0  0  0  0
 14 13  1  0  0  0  0
 15 13  2  0  0  0  0
 15 20  1  0  0  0  0
 16 17  1  0  0  0  0
 16 15  1  0  0  0  0
 17 19  2  0  0  0  0
 18 17  1  0  0  0  0
 19 20  1  0  0  0  0
 20 21  2  0  0  0  0
 21 11  1  0  0  0  0
 22 16  1  0  0  0  0
 23 28  1  0  0  0  0
 24 23  2  0  0  0  0
 24 25  1  0  0  0  0
 25 26  2  0  0  0  0
 26 27  1  0  0  0  0
 27 30  1  0  0  0  0
 28 27  2  0  0  0  0
 29 25  1  0  0  0  0
 31 33  1  0  0  0  0
 31 32  2  0  0  0  0
 33 23  1  0  0  0  0
 34 31  1  0  0  0  0
 35 33  1  0  0  0  0
M  END
>  <minimizedAffinity>
-5.59659767

$$$$

 OpenBabel03272507533D

 35 38  0  0  0  0  0  0  0  0999 V2000
   34.9910   30.7880   33.6580 N   0  0  0  0  0  0  0  0  0  0  0  0
   35.0440   31.6800   32.6760 C   0  0  0  0  0  0  0  0  0  0  0  0
   35.6910   31.3540   31.4820 C   0  0  0  0  0  0  0  0  0  0  0  0
   36.2290   30.0980   31.4400 C   0  0  0  0  0  0  0  0  0  0  0  0
   36.8090   29.8380   30.3400 O   0  0  0  0  0  0  0  0  0  0  0  0
   36.1970   29.1810   32.3970 N   0  0  0  0  0  0  0  0  0  0  0  0
   35.5580   29.5480   33.5320 C   0  0  0  0  0  0  0  0  0  0  0  0
   35.5190   28.6780   34.4590 O   0  0  0  0  0  0  0  0  0  0  0  0
   34.5620   32.6190   32.8940 H   0  0  0  0  0  0  0  0  0  0  0  0
   35.7150   32.0900   30.7180 H   0  0  0  0  0  0  0  0  0  0  0  0
   38.0560   27.4610   32.5830 C   0  0  0  0  0  3  0  0  0  0  0  0
   36.7880   27.8860   32.2690 C   0  0  0  0  0  0  0  0  0  0  0  0
   35.8610   26.9870   31.7350 C   0  0  0  0  0  0  0  0  0  0  0  0
   34.8330   27.1980   31.4460 H   0  0  0  0  0  0  0  0  0  0  0  0
   36.2070   25.6590   31.5170 C   0  0  0  0  0  0  0  0  0  0  0  0
   35.5690   24.5610   31.0280 N   0  0  0  0  0  0  0  0  0  0  0  0
   36.4200   23.5100   31.0480 C   0  0  0  0  0  0  0  0  0  0  0  0
   36.1100   22.5320   30.6980 H   0  0  0  0  0  0  0  0  0  0  0  0
   37.6120   23.9430   31.5530 N   0  0  0  0  0  0  0  0  0  0  0  0
   37.4820   25.2460   31.8370 C   0  0  0  0  0  0  0  0  0  0  0  0
   38.3910   26.1410   32.3630 C   0  0  0  0  0  3  0  0  0  0  0  0
   34.5600   24.5770   30.6960 H   0  0  0  0  0  0  0  0  0  0  0  0
   35.0960   31.7350   35.8950 C   0  0  0  0  0  0  0  0  0  0  0  0
   34.3490   31.0470   34.9160 C   0  0  0  0  0  0  0  0  0  0  0  0
   33.0350   30.6510   35.2120 C   0  0  0  0  0  0  0  0  0  0  0  0
   32.5530   30.9570   36.4380 N   0  0  0  0  0  0  0  0  0  0  0  0
   33.2520   31.6020   37.3580 C   0  0  0  0  0  0  0  0  0  0  0  0
   34.5140   31.9870   37.0860 N   0  0  0  0  0  0  0  0  0  0  0  0
   32.4920   30.1280   34.4440 H   0  0  0  0  0  0  0  0  0  0  0  0
   32.8750   31.8510   38.3400 H   0  0  0  0  0  0  0  0  0  0  0  0
   36.9620   33.4690   35.3290 C   0  0  0  0  0  0  0  0  0  0  0  0
   36.2380   34.4780   35.2000 O   0  0  0  0  0  0  0  0  0  0  0  0
   36.4170   32.1850   35.6910 N   0  0  0  0  0  0  0  0  0  0  0  0
   38.0130   33.6230   35.1500 H   0  0  0  0  0  0  0  0  0  0  0  0
   37.2030   31.4820   35.8200 H   0  0  0  0  0  0  0  0  0  0  0  0
  1 24  1  0  0  0  0
  2  9  1  0  0  0  0
  2  1  1  0  0  0  0
  3  2  2  0  0  0  0
  4  3  1  0  0  0  0
  4  6  1  0  0  0  0
  5  4  2  0  0  0  0
  6  7  1  0  0  0  0
  7  1  1  0  0  0  0
  7  8  2  0  0  0  0
 10  3  1  0  0  0  0
 12  6  1  0  0  0  0
 12 11  2  0  0  0  0
 13 12  1  0  0  0  0
 14 13  1  0  0  0  0
 15 13  2  0  0  0  0
 15 20  1  0  0  0  0
 16 17  1  0  0  0  0
 16 15  1  0  0  0  0
 17 19  2  0  0  0  0
 18 17  1  0  0  0  0
 19 20  1  0  0  0  0
 20 21  2  0  0  0  0
 21 11  1  0  0  0  0
 22 16  1  0  0  0  0
 23 28  1  0  0  0  0
 24 25  1  0  0  0  0
 24 23  2  0  0  0  0
 25 26  2  0  0  0  0
 26 27  1  0  0  0  0
 27 30  1  0  0  0  0
 28 27  2  0  0  0  0
 29 25  1  0  0  0  0
 31 33  1  0  0  0  0
 32 31  2  0  0  0  0
 33 35  1  0  0  0  0
 33 23  1  0  0  0  0
 34 31  1  0  0  0  0
M  END
>  <minimizedAffinity>
-5.5308876

$$$$

 OpenBabel03272507533D

 35 38  0  0  0  0  0  0  0  0999 V2000
   37.8390   26.8410   32.9480 N   0  0  0  0  0  0  0  0  0  0  0  0
   38.1440   27.2070   31.7090 C   0  0  0  0  0  0  0  0  0  0  0  0
   37.5320   28.3320   31.1530 C   0  0  0  0  0  0  0  0  0  0  0  0
   36.6440   28.9720   31.9700 C   0  0  0  0  0  0  0  0  0  0  0  0
   36.1080   29.9900   31.4300 O   0  0  0  0  0  0  0  0  0  0  0  0
   36.3130   28.6380   33.2100 N   0  0  0  0  0  0  0  0  0  0  0  0
   36.9340   27.5410   33.7010 C   0  0  0  0  0  0  0  0  0  0  0  0
   36.6280   27.2080   34.8900 O   0  0  0  0  0  0  0  0  0  0  0  0
   38.8680   26.5780   31.2190 H   0  0  0  0  0  0  0  0  0  0  0  0
   37.7990   28.5970   30.1600 H   0  0  0  0  0  0  0  0  0  0  0  0
   34.0000   29.2710   34.0440 C   0  0  0  0  0  3  0  0  0  0  0  0
   35.3690   29.3670   33.9990 C   0  0  0  0  0  0  0  0  0  0  0  0
   36.0340   30.2890   34.8100 C   0  0  0  0  0  0  0  0  0  0  0  0
   37.1080   30.4610   34.8670 H   0  0  0  0  0  0  0  0  0  0  0  0
   35.3240   31.1170   35.6700 C   0  0  0  0  0  0  0  0  0  0  0  0
   35.6480   32.0900   36.5640 N   0  0  0  0  0  0  0  0  0  0  0  0
   34.5150   32.5660   37.1300 C   0  0  0  0  0  0  0  0  0  0  0  0
   34.5490   33.3530   37.8750 H   0  0  0  0  0  0  0  0  0  0  0  0
   33.4590   31.8890   36.5920 N   0  0  0  0  0  0  0  0  0  0  0  0
   33.9500   31.0120   35.7060 C   0  0  0  0  0  0  0  0  0  0  0  0
   33.3020   30.0980   34.9010 C   0  0  0  0  0  3  0  0  0  0  0  0
   36.6480   32.3940   36.7530 H   0  0  0  0  0  0  0  0  0  0  0  0
   39.7030   25.8480   34.1540 C   0  0  0  0  0  0  0  0  0  0  0  0
   38.4190   25.6950   33.5910 C   0  0  0  0  0  0  0  0  0  0  0  0
   37.7790   24.4480   33.6790 C   0  0  0  0  0  0  0  0  0  0  0  0
   38.4400   23.4510   34.3090 N   0  0  0  0  0  0  0  0  0  0  0  0
   39.6440   23.5930   34.8380 C   0  0  0  0  0  0  0  0  0  0  0  0
   40.2690   24.7840   34.7600 N   0  0  0  0  0  0  0  0  0  0  0  0
   36.8000   24.3630   33.2380 H   0  0  0  0  0  0  0  0  0  0  0  0
   40.1800   22.8020   35.3440 H   0  0  0  0  0  0  0  0  0  0  0  0
   41.5350   27.5160   33.3330 C   0  0  0  0  0  0  0  0  0  0  0  0
   42.0090   26.8220   32.4100 O   0  0  0  0  0  0  0  0  0  0  0  0
   40.4230   27.0610   34.1290 N   0  0  0  0  0  0  0  0  0  0  0  0
   42.0120   28.4690   33.4930 H   0  0  0  0  0  0  0  0  0  0  0  0
   40.1280   27.8240   34.8070 H   0  0  0  0  0  0  0  0  0  0  0  0
  1 24  1  0  0  0  0
  1  7  1  0  0  0  0
  2  1  1  0  0  0  0
  3  2  2  0  0  0  0
  3  4  1  0  0  0  0
  4  6  1  0  0  0  0
  5  4  2  0  0  0  0
  6  7  1  0  0  0  0
  6 12  1  0  0  0  0
  7  8  2  0  0  0  0
  9  2  1  0  0  0  0
 10  3  1  0  0  0  0
 11 21  1  0  0  0  0
 12 11  2  0  0  0  0
 12 13  1  0  0  0  0
 13 14  1  0  0  0  0
 13 15  2  0  0  0  0
 15 20  1  0  0  0  0
 15 16  1  0  0  0  0
 16 22  1  0  0  0  0
 16 17  1  0  0  0  0
 17 18  1  0  0  0  0
 19 17  2  0  0  0  0
 20 19  1  0  0  0  0
 21 20  2  0  0  0  0
 23 28  1  0  0  0  0
 24 25  1  0  0  0  0
 24 23  2  0  0  0  0
 25 26  2  0  0  0  0
 26 27  1  0  0  0  0
 27 30  1  0  0  0  0
 28 27  2  0  0  0  0
 29 25  1  0  0  0  0
 31 34  1  0  0  0  0
 31 33  1  0  0  0  0
 32 31  2  0  0  0  0
 33 23  1  0  0  0  0
 33 35  1  0  0  0  0
M  END
>  <minimizedAffinity>
-5.42354584

$$$$

 OpenBabel03272507533D

 35 38  0  0  0  0  0  0  0  0999 V2000
   38.2390   24.1290   34.6740 N   0  0  0  0  0  0  0  0  0  0  0  0
   38.4550   25.3200   34.1260 C   0  0  0  0  0  0  0  0  0  0  0  0
   38.2200   25.5030   32.7610 C   0  0  0  0  0  0  0  0  0  0  0  0
   37.7740   24.3950   32.0970 C   0  0  0  0  0  0  0  0  0  0  0  0
   37.5720   24.6010   30.8590 O   0  0  0  0  0  0  0  0  0  0  0  0
   37.5470   23.1930   32.6080 N   0  0  0  0  0  0  0  0  0  0  0  0
   37.7900   23.0690   33.9330 C   0  0  0  0  0  0  0  0  0  0  0  0
   37.5760   21.9210   34.4370 O   0  0  0  0  0  0  0  0  0  0  0  0
   38.8080   26.0730   34.8100 H   0  0  0  0  0  0  0  0  0  0  0  0
   38.4030   26.4670   32.3560 H   0  0  0  0  0  0  0  0  0  0  0  0
   35.7980   21.6220   31.6470 C   0  0  0  0  0  3  0  0  0  0  0  0
   37.0780   22.0840   31.8370 C   0  0  0  0  0  0  0  0  0  0  0  0
   38.1530   21.4370   31.2250 C   0  0  0  0  0  0  0  0  0  0  0  0
   39.2070   21.7030   31.2960 H   0  0  0  0  0  0  0  0  0  0  0  0
   37.9450   20.3240   30.4190 C   0  0  0  0  0  0  0  0  0  0  0  0
   38.7420   19.4880   29.6990 N   0  0  0  0  0  0  0  0  0  0  0  0
   37.9720   18.5540   29.0960 C   0  0  0  0  0  0  0  0  0  0  0  0
   38.4100   17.7860   28.4700 H   0  0  0  0  0  0  0  0  0  0  0  0
   36.6710   18.7980   29.4340 N   0  0  0  0  0  0  0  0  0  0  0  0
   36.6570   19.8710   30.2370 C   0  0  0  0  0  0  0  0  0  0  0  0
   35.6000   20.5160   30.8460 C   0  0  0  0  0  3  0  0  0  0  0  0
   39.7980   19.5920   29.6500 H   0  0  0  0  0  0  0  0  0  0  0  0
   39.6510   23.1880   36.4150 C   0  0  0  0  0  0  0  0  0  0  0  0
   38.4610   23.8580   36.0670 C   0  0  0  0  0  0  0  0  0  0  0  0
   37.5600   24.2220   37.0800 C   0  0  0  0  0  0  0  0  0  0  0  0
   37.8910   23.9030   38.3520 N   0  0  0  0  0  0  0  0  0  0  0  0
   39.0070   23.2740   38.6810 C   0  0  0  0  0  0  0  0  0  0  0  0
   39.8790   22.9200   37.7180 N   0  0  0  0  0  0  0  0  0  0  0  0
   36.6590   24.7320   36.7810 H   0  0  0  0  0  0  0  0  0  0  0  0
   39.2800   23.0160   39.6950 H   0  0  0  0  0  0  0  0  0  0  0  0
   41.7480   23.4800   34.8880 C   0  0  0  0  0  0  0  0  0  0  0  0
   42.0690   24.6340   35.2410 O   0  0  0  0  0  0  0  0  0  0  0  0
   40.6250   22.7920   35.4740 N   0  0  0  0  0  0  0  0  0  0  0  0
   42.3630   23.0380   34.1210 H   0  0  0  0  0  0  0  0  0  0  0  0
   40.5670   21.8030   35.0910 H   0  0  0  0  0  0  0  0  0  0  0  0
  1 24  1  0  0  0  0
  2  1  1  0  0  0  0
  2  9  1  0  0  0  0
  3  2  2  0  0  0  0
  4  6  1  0  0  0  0
  4  3  1  0  0  0  0
  5  4  2  0  0  0  0
  6  7  1  0  0  0  0
  7  8  2  0  0  0  0
  7  1  1  0  0  0  0
 10  3  1  0  0  0  0
 11 12  1  0  0  0  0
 12  6  1  0  0  0  0
 13 14  1  0  0  0  0
 13 12  2  0  0  0  0
 15 13  1  0  0  0  0
 16 15  1  0  0  0  0
 17 19  2  0  0  0  0
 17 16  1  0  0  0  0
 18 17  1  0  0  0  0
 19 20  1  0  0  0  0
 20 15  2  0  0  0  0
 20 21  1  0  0  0  0
 21 11  2  0  0  0  0
 22 16  1  0  0  0  0
 23 28  1  0  0  0  0
 24 23  2  0  0  0  0
 24 25  1  0  0  0  0
 25 26  2  0  0  0  0
 26 27  1  0  0  0  0
 27 30  1  0  0  0  0
 28 27  2  0  0  0  0
 29 25  1  0  0  0  0
 31 32  2  0  0  0  0
 31 33  1  0  0  0  0
 33 23  1  0  0  0  0
 34 31  1  0  0  0  0
 35 33  1  0  0  0  0
M  END
>  <minimizedAffinity>
-5.39407778

$$$$

 OpenBabel03272507533D

 35 38  0  0  0  0  0  0  0  0999 V2000
   38.4750   23.0080   34.5450 N   0  0  0  0  0  0  0  0  0  0  0  0
   38.2180   21.8590   33.9310 C   0  0  0  0  0  0  0  0  0  0  0  0
   38.1470   21.8240   32.5370 C   0  0  0  0  0  0  0  0  0  0  0  0
   38.3590   23.0220   31.9160 C   0  0  0  0  0  0  0  0  0  0  0  0
   38.2870   22.9500   30.6490 O   0  0  0  0  0  0  0  0  0  0  0  0
   38.6180   24.1880   32.4930 N   0  0  0  0  0  0  0  0  0  0  0  0
   38.6750   24.1670   33.8440 C   0  0  0  0  0  0  0  0  0  0  0  0
   38.9240   25.2780   34.4120 O   0  0  0  0  0  0  0  0  0  0  0  0
   38.0790   21.0180   34.5890 H   0  0  0  0  0  0  0  0  0  0  0  0
   37.9390   20.8890   32.0780 H   0  0  0  0  0  0  0  0  0  0  0  0
   39.9960   26.0580   31.4670 C   0  0  0  0  0  3  0  0  0  0  0  0
   38.8270   25.4000   31.7640 C   0  0  0  0  0  0  0  0  0  0  0  0
   37.6040   25.9160   31.3310 C   0  0  0  0  0  0  0  0  0  0  0  0
   36.6150   25.4920   31.5000 H   0  0  0  0  0  0  0  0  0  0  0  0
   37.5520   27.0950   30.5970 C   0  0  0  0  0  0  0  0  0  0  0  0
   36.5630   27.8450   30.0410 N   0  0  0  0  0  0  0  0  0  0  0  0
   37.1130   28.9190   29.4300 C   0  0  0  0  0  0  0  0  0  0  0  0
   36.4970   29.6510   28.9210 H   0  0  0  0  0  0  0  0  0  0  0  0
   38.4670   28.8510   29.5980 N   0  0  0  0  0  0  0  0  0  0  0  0
   38.7310   27.7450   30.3060 C   0  0  0  0  0  0  0  0  0  0  0  0
   39.9350   27.2280   30.7380 C   0  0  0  0  0  3  0  0  0  0  0  0
   35.5340   27.5880   30.1050 H   0  0  0  0  0  0  0  0  0  0  0  0
   39.7890   22.8020   36.5810 C   0  0  0  0  0  0  0  0  0  0  0  0
   38.5590   23.1290   35.9740 C   0  0  0  0  0  0  0  0  0  0  0  0
   37.4890   23.5490   36.7810 C   0  0  0  0  0  0  0  0  0  0  0  0
   37.7040   23.6160   38.1140 N   0  0  0  0  0  0  0  0  0  0  0  0
   38.8570   23.3100   38.6850 C   0  0  0  0  0  0  0  0  0  0  0  0
   39.8910   22.9060   37.9230 N   0  0  0  0  0  0  0  0  0  0  0  0
   36.5630   23.7900   36.2870 H   0  0  0  0  0  0  0  0  0  0  0  0
   39.0370   23.3610   39.7500 H   0  0  0  0  0  0  0  0  0  0  0  0
   42.0090   23.1090   35.2420 C   0  0  0  0  0  0  0  0  0  0  0  0
   42.1130   24.3480   35.3460 O   0  0  0  0  0  0  0  0  0  0  0  0
   40.9270   22.3840   35.8580 N   0  0  0  0  0  0  0  0  0  0  0  0
   42.7770   22.6230   34.6630 H   0  0  0  0  0  0  0  0  0  0  0  0
   41.0610   21.3400   35.7120 H   0  0  0  0  0  0  0  0  0  0  0  0
  1 24  1  0  0  0  0
  2  1  1  0  0  0  0
  2  9  1  0  0  0  0
  3  2  2  0  0  0  0
  4  6  1  0  0  0  0
  4  3  1  0  0  0  0
  5  4  2  0  0  0  0
  6  7  1  0  0  0  0
  7  8  2  0  0  0  0
  7  1  1  0  0  0  0
 10  3  1  0  0  0  0
 11 12  1  0  0  0  0
 12  6  1  0  0  0  0
 13 14  1  0  0  0  0
 13 12  2  0  0  0  0
 15 13  1  0  0  0  0
 16 22  1  0  0  0  0
 16 15  1  0  0  0  0
 17 19  2  0  0  0  0
 17 16  1  0  0  0  0
 18 17  1  0  0  0  0
 19 20  1  0  0  0  0
 20 15  2  0  0  0  0
 20 21  1  0  0  0  0
 21 11  2  0  0  0  0
 23 28  1  0  0  0  0
 24 23  2  0  0  0  0
 24 25  1  0  0  0  0
 25 26  2  0  0  0  0
 26 27  1  0  0  0  0
 27 30  1  0  0  0  0
 28 27  2  0  0  0  0
 29 25  1  0  0  0  0
 31 32  2  0  0  0  0
 31 33  1  0  0  0  0
 33 23  1  0  0  0  0
 34 31  1  0  0  0  0
 35 33  1  0  0  0  0
M  END
>  <minimizedAffinity>
-5.38765764

$$$$
