
     RDKit          3D

 36 39  0  0  0  0  0  0  0  0999 V2000
   38.4591   30.8233   49.8512 Cl  0  0  0  0  0  0  0  0  0  0  0  0
   37.0836   30.3386   48.8781 C   0  0  0  0  0  0  0  0  0  0  0  0
   37.1039   30.6100   47.5346 C   0  0  0  0  0  0  0  0  0  0  0  0
   36.0441   30.2891   46.7332 C   0  0  0  0  0  0  0  0  0  0  0  0
   34.9159   29.6778   47.2621 C   0  0  0  0  0  0  0  0  0  0  0  0
   34.8913   29.4019   48.6181 C   0  0  0  0  0  0  0  0  0  0  0  0
   33.5151   28.6295   49.3879 Cl  0  0  0  0  0  0  0  0  0  0  0  0
   35.9935   29.7437   49.4078 C   0  0  0  0  0  0  0  0  0  0  0  0
   39.5875   33.1788   46.6582 C   0  0  0  0  0  0  0  0  0  0  0  0
   40.4535   32.4855   45.7974 C   0  0  0  0  0  0  0  0  0  0  0  0
   40.1643   31.1139   45.5248 C   0  0  0  0  0  0  0  0  0  0  0  0
   39.0659   30.5663   46.1182 N   0  0  0  0  0  0  0  0  0  0  0  0
   38.2614   31.2660   46.9371 C   0  0  0  0  0  0  0  0  0  0  0  0
   38.5417   32.5608   47.1890 N   0  0  0  0  0  0  0  0  0  0  0  0
   35.9682   29.4248   50.8545 C   0  0  0  0  0  0  0  0  0  0  0  0
   36.0261   30.4889   45.6708 H   0  0  0  0  0  0  0  0  0  0  0  0
   34.0785   29.4227   46.6370 H   0  0  0  0  0  0  0  0  0  0  0  0
   39.8741   34.1986   46.8102 H   0  0  0  0  0  0  0  0  0  0  0  0
   41.3180   32.8684   45.3139 H   0  0  0  0  0  0  0  0  0  0  0  0
   40.7192   30.4560   44.8985 H   0  0  0  0  0  0  0  0  0  0  0  0
   36.4664   30.2550   51.4296 H   0  0  0  0  0  0  0  0  0  0  0  0
   34.8788   29.4489   51.1362 H   0  0  0  0  0  0  0  0  0  0  0  0
   37.0485   27.0767   50.6172 C   0  0  0  0  0  0  0  0  0  0  0  0
   36.5254   28.1544   51.2789 C   0  0  0  0  0  0  0  0  0  0  0  0
   36.6168   27.9134   52.6695 C   0  0  0  0  0  0  0  0  0  0  0  0
   36.2629   28.6620   53.3860 H   0  0  0  0  0  0  0  0  0  0  0  0
   37.1352   26.7994   53.2852 C   0  0  0  0  0  0  0  0  0  0  0  0
   37.2882   26.4364   54.5787 N   0  0  0  0  0  0  0  0  0  0  0  0
   37.8696   25.2155   54.6093 C   0  0  0  0  0  0  0  0  0  0  0  0
   38.0862   24.7320   55.5524 H   0  0  0  0  0  0  0  0  0  0  0  0
   38.0727   24.8302   53.3144 N   0  0  0  0  0  0  0  0  0  0  0  0
   37.6340   25.7775   52.4976 C   0  0  0  0  0  0  0  0  0  0  0  0
   37.5863   25.9263   51.1290 C   0  0  0  0  0  0  0  0  0  0  0  0
   37.0470   27.1225   49.5615 H   0  0  0  0  0  0  0  0  0  0  0  0
   37.0010   27.0090   55.4238 H   0  0  0  0  0  0  0  0  0  0  0  0
   37.9687   25.1435   50.4835 H   0  0  0  0  0  0  0  0  0  0  0  0
  2  8  2  0
  2  1  1  0
  3  2  1  0
  4  5  1  0
  4  3  2  0
  5  6  2  0
  6  8  1  0
  6  7  1  0
  8 15  1  0
  9 14  2  0
 10  9  1  0
 11 10  2  0
 11 12  1  0
 12 13  2  0
 13 14  1  0
 13  3  1  0
  4 16  1  0
  5 17  1  0
  9 18  1  0
 10 19  1  0
 11 20  1  0
 15 21  1  0
 15 22  1  0
 23 24  2  0
 24 25  1  0
 25 26  1  0
 25 27  2  0
 27 28  1  0
 28 29  1  0
 29 30  1  0
 29 31  2  0
 31 32  1  0
 32 33  2  0
 33 23  1  0
 32 27  1  0
 23 34  1  0
 28 35  1  0
 33 36  1  0
 15 24  1  0
M  ISO  8  16  14  17  14  18  14  19  14  20  14  21   8  22   8  26  15
M  ISO  1  30  14
M  END
>  <DihAtoms>  (1) 
7,14,23,22

>  <DihDeg>  (1) 
71.05849117821681

$$$$
