
 OpenBabel03262521463D

 33 35  0  0  0  0  0  0  0  0999 V2000
   34.6920   30.5800   49.1660 O   0  0  0  0  0  0  0  0  0  0  0  0
   34.4280   29.4240   50.1150 P   0  0  2  0  0  0  0  0  0  0  0  0
   32.9880   29.7850   50.9060 O   0  0  0  0  0  0  0  0  0  0  0  0
   33.1420   29.5850   51.8620 H   0  0  0  0  0  0  0  0  0  0  0  0
   35.7210   29.3470   51.2170 O   0  0  0  0  0  0  0  0  0  0  0  0
   36.9460   29.2190   50.5530 C   0  0  0  0  0  0  0  0  0  0  0  0
   36.7220   29.0950   49.4880 H   0  0  0  0  0  0  0  0  0  0  0  0
   37.4520   28.2890   50.8850 H   0  0  0  0  0  0  0  0  0  0  0  0
   37.7270   30.4700   50.7850 C   0  0  0  0  0  0  0  0  0  0  0  0
   37.2480   31.1840   51.4990 H   0  0  0  0  0  0  0  0  0  0  0  0
   38.6890   30.1520   51.2820 H   0  0  0  0  0  0  0  0  0  0  0  0
   38.1150   31.1970   49.5770 C   0  0  0  0  0  0  0  0  0  0  0  0
   38.5430   32.5100   49.5990 C   0  0  0  0  0  0  0  0  0  0  0  0
   38.8910   33.1080   48.3700 C   0  0  0  0  0  0  0  0  0  0  0  0
   38.7860   32.3610   47.2260 N   0  0  0  0  0  0  0  0  0  0  0  0
   38.3550   31.0650   47.2610 C   0  0  0  0  0  0  0  0  0  0  0  0
   38.0220   30.4930   48.4450 N   0  0  0  0  0  0  0  0  0  0  0  0
   38.5950   33.0230   50.5510 H   0  0  0  0  0  0  0  0  0  0  0  0
   39.2250   34.1250   48.3730 H   0  0  0  0  0  0  0  0  0  0  0  0
   38.2970   30.5360   46.3190 H   0  0  0  0  0  0  0  0  0  0  0  0
   34.2570   27.9800   49.2930 O   0  0  0  0  0  0  0  0  0  0  0  0
   31.9410   27.4750   48.5280 C   0  0  0  0  0  3  0  0  0  0  0  0
   33.2980   27.6190   48.3820 C   0  0  0  0  0  0  0  0  0  0  0  0
   33.8650   27.3730   47.1270 C   0  0  0  0  0  0  0  0  0  0  0  0
   34.9310   27.4490   46.8710 H   0  0  0  0  0  0  0  0  0  0  0  0
   33.0710   26.9890   46.0420 C   0  0  0  0  0  0  0  0  0  0  0  0
   33.2970   26.6880   44.7500 N   0  0  0  0  0  0  0  0  0  0  0  0
   32.1090   26.3790   44.1650 C   0  0  0  0  0  0  0  0  0  0  0  0
   32.0140   26.0960   43.1120 H   0  0  0  0  0  0  0  0  0  0  0  0
   31.1210   26.4860   45.0960 N   0  0  0  0  0  0  0  0  0  0  0  0
   31.7100   26.8590   46.2420 C   0  0  0  0  0  0  0  0  0  0  0  0
   31.1400   27.1000   47.4810 C   0  0  0  0  0  3  0  0  0  0  0  0
   34.2360   26.7040   44.3280 H   0  0  0  0  0  0  0  0  0  0  0  0
  2  1  2  6  0  0  0
  2  3  1  0  0  0  0
  2  5  1  0  0  0  0
  3  4  1  0  0  0  0
  6  9  1  0  0  0  0
  6  8  1  0  0  0  0
  6  5  1  0  0  0  0
  7  6  1  0  0  0  0
  9 11  1  0  0  0  0
  9 10  1  0  0  0  0
 12 13  1  0  0  0  0
 12  9  1  0  0  0  0
 13 18  1  0  0  0  0
 14 19  1  0  0  0  0
 14 13  2  0  0  0  0
 15 16  2  0  0  0  0
 15 14  1  0  0  0  0
 16 17  1  0  0  0  0
 17 12  2  0  0  0  0
 20 16  1  0  0  0  0
 21  2  1  0  0  0  0
 23 22  1  0  0  0  0
 23 21  1  0  0  0  0
 24 23  2  0  0  0  0
 25 24  1  0  0  0  0
 26 31  2  0  0  0  0
 26 24  1  0  0  0  0
 27 26  1  0  0  0  0
 28 27  1  0  0  0  0
 28 30  2  0  0  0  0
 29 28  1  0  0  0  0
 30 31  1  0  0  0  0
 31 32  1  0  0  0  0
 32 22  2  0  0  0  0
 33 27  1  0  0  0  0
M  END
>  <minimizedAffinity>
-5.36305428

>  <minimizedRMSD>
2.00384116

$$$$
