
     RDKit          3D

 37 40  0  0  0  0  0  0  0  0999 V2000
   38.4541   30.4433   47.3076 F   0  0  0  0  0  0  0  0  0  0  0  0
   38.7557   31.6817   47.7932 C   0  0  0  0  0  0  0  0  0  0  0  0
   38.2356   32.0757   48.9951 C   0  0  0  0  0  0  0  0  0  0  0  0
   38.5807   33.3310   49.4203 C   0  0  0  0  0  0  0  0  0  0  0  0
   39.3986   34.1731   48.7085 C   0  0  0  0  0  0  0  0  0  0  0  0
   39.9060   33.7400   47.4968 C   0  0  0  0  0  0  0  0  0  0  0  0
   39.5805   32.4808   47.0350 C   0  0  0  0  0  0  0  0  0  0  0  0
   36.9213   29.6015   51.5352 C   0  0  0  0  0  0  0  0  0  0  0  0
   37.7810   30.4910   50.8581 C   0  0  0  0  0  0  0  0  0  0  0  0
   37.3707   31.1494   49.7188 C   0  0  0  0  0  0  0  0  0  0  0  0
   36.1019   30.8986   49.2837 N   0  0  0  0  0  0  0  0  0  0  0  0
   35.2834   30.0502   49.9302 C   0  0  0  0  0  0  0  0  0  0  0  0
   35.6871   29.4176   51.0308 N   0  0  0  0  0  0  0  0  0  0  0  0
   39.1864   32.1663   44.6910 C   0  0  0  0  0  0  0  0  0  0  0  0
   38.0770   32.7028   44.9835 O   0  0  0  0  0  0  0  0  0  0  0  0
   40.0881   31.9999   45.7844 N   0  0  0  0  0  0  0  0  0  0  0  0
   38.1639   33.6509   50.3867 H   0  0  0  0  0  0  0  0  0  0  0  0
   39.6116   35.1504   49.1343 H   0  0  0  0  0  0  0  0  0  0  0  0
   40.5480   34.4033   46.9399 H   0  0  0  0  0  0  0  0  0  0  0  0
   37.3044   29.1110   52.4313 H   0  0  0  0  0  0  0  0  0  0  0  0
   38.7888   30.7130   51.1729 H   0  0  0  0  0  0  0  0  0  0  0  0
   34.2953   29.9163   49.5084 H   0  0  0  0  0  0  0  0  0  0  0  0
   40.9982   31.5637   45.5953 H   0  0  0  0  0  0  0  0  0  0  0  0
   39.1077   32.6959   42.3538 C   0  0  0  0  0  0  0  0  0  0  0  0
   39.4479   31.7773   43.3256 C   0  0  0  0  0  0  0  0  0  0  0  0
   40.0072   30.5503   43.0337 C   0  0  0  0  0  0  0  0  0  0  0  0
   40.2741   29.8298   43.7949 H   0  0  0  0  0  0  0  0  0  0  0  0
   40.2421   30.2151   41.7125 C   0  0  0  0  0  0  0  0  0  0  0  0
   40.7629   29.1188   41.1336 N   0  0  0  0  0  0  0  0  0  0  0  0
   40.7563   29.3315   39.8153 C   0  0  0  0  0  0  0  0  0  0  0  0
   41.1290   28.5896   39.1174 H   0  0  0  0  0  0  0  0  0  0  0  0
   40.2407   30.5416   39.5584 N   0  0  0  0  0  0  0  0  0  0  0  0
   39.9023   31.1332   40.7387 C   0  0  0  0  0  0  0  0  0  0  0  0
   39.3410   32.3666   41.0152 C   0  0  0  0  0  0  0  0  0  0  0  0
   38.6680   33.6655   42.5494 H   0  0  0  0  0  0  0  0  0  0  0  0
   41.0948   28.2846   41.6679 H   0  0  0  0  0  0  0  0  0  0  0  0
   39.1192   32.9977   40.1679 H   0  0  0  0  0  0  0  0  0  0  0  0
  1  2  1  0
  2  3  2  0
  3  4  1  0
  3 10  1  0
  5  4  2  0
  6  5  1  0
  7  6  2  0
  7  2  1  0
  9  8  2  0
 10  9  1  0
 11 10  2  0
 11 12  1  0
 12 13  2  0
 13  8  1  0
 14 15  2  0
 14 16  1  0
 16  7  1  0
  4 17  1  0
  5 18  1  0
  6 19  1  0
  8 20  1  0
  9 21  1  0
 12 22  1  0
 16 23  1  0
 24 25  2  0
 25 26  1  0
 26 27  1  0
 26 28  2  0
 28 29  1  0
 29 30  1  0
 30 31  1  0
 30 32  2  0
 32 33  1  0
 33 34  2  0
 34 24  1  0
 33 28  1  0
 24 35  1  0
 29 36  1  0
 34 37  1  0
 14 25  1  0
M  ISO  8  17  14  18  14  19  14  20  14  21  14  22  14  27  15  31  14
M  END
>  <DihAtoms>  (1) 
14,13,24,23

>  <DihDeg>  (1) 
-0.002246493962663144

$$$$
