
 OpenBabel03272503303D

 37 40  0  0  1  0  0  0  0  0999 V2000
   34.6410   29.2370   48.0530 C   0  0  0  0  0  0  0  0  0  0  0  0
   34.2240   30.1880   47.1120 C   0  0  0  0  0  0  0  0  0  0  0  0
   33.0190   29.9400   46.4690 C   0  0  0  0  0  0  0  0  0  0  0  0
   32.3430   28.7990   46.8010 N   0  0  0  0  0  0  0  0  0  0  0  0
   32.7620   27.9170   47.6940 C   0  0  0  0  0  0  0  0  0  0  0  0
   33.9350   28.1460   48.3290 N   0  0  0  0  0  0  0  0  0  0  0  0
   34.7550   31.0760   46.8570 H   0  0  0  0  0  0  0  0  0  0  0  0
   32.5860   30.5810   45.7340 H   0  0  0  0  0  0  0  0  0  0  0  0
   35.8880   29.4860   48.7250 N   0  0  0  0  0  0  0  0  0  0  0  0
   37.0150   30.2190   48.2150 C   0  0  0  0  0  0  0  0  0  0  0  0
   37.6540   30.7620   49.4930 C   0  0  2  0  0  0  0  0  0  0  0  0
   36.7390   30.3560   50.6300 C   0  0  0  0  0  0  0  0  0  0  0  0
   36.2480   29.0390   50.0490 C   0  0  0  0  0  0  0  0  0  0  0  0
   37.7060   29.5120   47.7370 H   0  0  0  0  0  0  0  0  0  0  0  0
   36.7190   31.0390   47.5370 H   0  0  0  0  0  0  0  0  0  0  0  0
   38.6180   30.2440   49.6750 H   0  0  0  0  0  0  0  0  0  0  0  0
   37.3010   30.1220   51.5370 H   0  0  0  0  0  0  0  0  0  0  0  0
   35.8980   31.0610   50.7900 H   0  0  0  0  0  0  0  0  0  0  0  0
   35.3440   28.7610   50.6270 H   0  0  0  0  0  0  0  0  0  0  0  0
   37.0510   28.3070   50.0960 H   0  0  0  0  0  0  0  0  0  0  0  0
   37.8780   32.2470   49.4520 C   0  0  0  0  0  0  0  0  0  0  0  0
   36.7740   32.8330   50.0330 F   0  0  0  0  0  0  0  0  0  0  0  0
   37.8560   32.6310   48.1180 F   0  0  0  0  0  0  0  0  0  0  0  0
   39.0460   32.6490   50.0300 F   0  0  0  0  0  0  0  0  0  0  0  0
   31.8280   26.4520   48.0770 S   0  0  0  0  0  0  0  0  0  0  0  0
   29.1650   26.4610   47.0040 C   0  0  0  0  0  3  0  0  0  0  0  0
   30.0820   26.8780   47.9430 C   0  0  0  0  0  0  0  0  0  0  0  0
   29.6940   27.7400   48.9580 C   0  0  0  0  0  0  0  0  0  0  0  0
   30.3240   28.1400   49.7610 H   0  0  0  0  0  0  0  0  0  0  0  0
   28.3790   28.2040   49.0520 C   0  0  0  0  0  0  0  0  0  0  0  0
   27.7150   29.0290   49.9040 N   0  0  0  0  0  0  0  0  0  0  0  0
   26.4330   29.1220   49.5060 C   0  0  0  0  0  0  0  0  0  0  0  0
   25.6890   29.7300   50.0280 H   0  0  0  0  0  0  0  0  0  0  0  0
   26.2920   28.3500   48.3980 N   0  0  0  0  0  0  0  0  0  0  0  0
   27.4770   27.7750   48.1020 C   0  0  0  0  0  0  0  0  0  0  0  0
   27.8760   26.9250   47.1080 C   0  0  0  0  0  3  0  0  0  0  0  0
   28.1570   29.5070   50.7340 H   0  0  0  0  0  0  0  0  0  0  0  0
  1  6  1  0  0  0  0
  1  9  1  0  0  0  0
  2  1  2  0  0  0  0
  3  4  2  0  0  0  0
  3  2  1  0  0  0  0
  4  5  1  0  0  0  0
  5 25  1  0  0  0  0
  5  6  2  0  0  0  0
  7  2  1  0  0  0  0
  8  3  1  0  0  0  0
  9 13  1  0  0  0  0
 10  9  1  0  0  0  0
 10 11  1  0  0  0  0
 11 16  1  1  0  0  0
 11 12  1  0  0  0  0
 12 18  1  0  0  0  0
 12 17  1  0  0  0  0
 13 20  1  0  0  0  0
 13 19  1  0  0  0  0
 13 12  1  0  0  0  0
 14 10  1  0  0  0  0
 15 10  1  0  0  0  0
 21 11  1  0  0  0  0
 21 24  1  0  0  0  0
 21 22  1  0  0  0  0
 23 21  1  0  0  0  0
 26 36  2  0  0  0  0
 26 27  1  0  0  0  0
 27 25  1  0  0  0  0
 27 28  2  0  0  0  0
 28 30  1  0  0  0  0
 28 29  1  0  0  0  0
 30 31  1  0  0  0  0
 31 37  1  0  0  0  0
 32 31  1  0  0  0  0
 32 33  1  0  0  0  0
 34 32  2  0  0  0  0
 35 34  1  0  0  0  0
 35 30  2  0  0  0  0
 36 35  1  0  0  0  0
M  END
>  <minimizedAffinity>
-6.94402647

>  <minimizedRMSD>
1.77229047

$$$$
