REMARK  Name = 
REMARK  3 active torsions:
REMARK  status: ('A' for Active; 'I' for Inactive)
REMARK    1  A    between atoms: C_1  and  C_7
REMARK    2  A    between atoms: C_3  and  C_12
REMARK    3  A    between atoms: N_10  and  C_21
REMARK                            x       y       z     vdW  Elec       q    Type
REMARK                         _______ _______ _______ _____ _____    ______ ____
ROOT
ATOM      1  C   UNL     1      39.095  31.104  45.902  0.00  0.00    +0.000 A 
ATOM      2  C   UNL     1      39.915  32.213  45.904  0.00  0.00    +0.000 A 
ATOM      3  C   UNL     1      40.935  32.038  44.962  0.00  0.00    +0.000 A 
ATOM      4  N   UNL     1      40.683  30.805  44.421  0.00  0.00    +0.000 N 
ATOM      5  N   UNL     1      39.612  30.271  44.973  0.00  0.00    +0.000 NA
ATOM      6  H   UNL     1      39.752  33.065  46.554  0.00  0.00    +0.000 HD
ATOM      7  H   UNL     1      41.678  32.790  44.811  0.00  0.00    +0.000 HD
ENDROOT
BRANCH   4   9
ATOM      8  C   UNL     1      42.511  29.362  43.615  0.00  0.00    +0.000 A 
ATOM      9  C   UNL     1      41.561  30.332  43.414  0.00  0.00    +0.000 A 
ATOM     10  C   UNL     1      41.380  30.942  42.180  0.00  0.00    +0.000 A 
ATOM     11  H   UNL     1      40.655  31.708  41.957  0.00  0.00    +0.000 HD
ATOM     12  C   UNL     1      42.172  30.582  41.086  0.00  0.00    +0.000 A 
ATOM     13  N   UNL     1      42.235  30.981  39.795  0.00  0.00    +0.000 N 
ATOM     14  C   UNL     1      43.222  30.260  39.199  0.00  0.00    +0.000 A 
ATOM     15  H   UNL     1      43.456  30.417  38.135  0.00  0.00    +0.000 HD
ATOM     16  N   UNL     1      43.763  29.425  40.107  0.00  0.00    +0.000 NA
ATOM     17  C   UNL     1      43.135  29.599  41.288  0.00  0.00    +0.000 A 
ATOM     18  C   UNL     1      43.283  29.016  42.534  0.00  0.00    +0.000 A 
ATOM     19  H   UNL     1      41.633  31.707  39.358  0.00  0.00    +0.000 HD
ENDBRANCH   4   9
BRANCH   1  20
ATOM     20  C   UNL     1      37.911  30.870  46.729  0.00  0.00    +0.000 A 
ATOM     21  C   UNL     1      38.067  31.039  48.141  0.00  0.00    +0.000 A 
ATOM     22  C   UNL     1      36.929  30.814  48.935  0.00  0.00    +0.000 A 
ATOM     23  N   UNL     1      35.777  30.455  48.314  0.00  0.00    +0.000 NA
ATOM     24  C   UNL     1      35.672  30.306  46.978  0.00  0.00    +0.000 A 
ATOM     25  N   UNL     1      36.750  30.517  46.205  0.00  0.00    +0.000 NA
ATOM     26  H   UNL     1      39.026  31.328  48.550  0.00  0.00    +0.000 HD
ATOM     27  H   UNL     1      34.715  30.017  46.562  0.00  0.00    +0.000 HD
BRANCH  22  28
ATOM     28  C   UNL     1      37.046  30.979  50.406  0.00  0.00    +0.000 C 
ATOM     29  F   UNL     1      36.559  32.243  50.684  0.00  0.00    +0.000 F 
ATOM     30  F   UNL     1      36.299  30.063  51.109  0.00  0.00    +0.000 F 
ATOM     31  F   UNL     1      38.373  30.937  50.827  0.00  0.00    +0.000 F 
ENDBRANCH  22  28
ENDBRANCH   1  20
TORSDOF 3
