
     RDKit          3D

 38 41  0  0  0  0  0  0  0  0999 V2000
   33.5974   28.7116   49.0335 N   0  0  0  0  0  0  0  0  0  0  0  0
   34.4441   29.8788   48.9182 C   0  0  2  0  0  0  0  0  0  0  0  0
   34.3750   30.3854   47.5038 C   0  0  0  0  0  0  0  0  0  0  0  0
   33.2461   29.8616   46.8377 O   0  0  0  0  0  0  0  0  0  0  0  0
   33.5437   28.4943   46.6635 C   0  0  0  0  0  0  0  0  0  0  0  0
   33.9301   27.8138   47.9459 C   0  0  2  0  0  0  0  0  0  0  0  0
   33.1697   26.6409   48.1345 O   0  0  0  0  0  0  0  0  0  0  0  0
   36.1799   29.4461   49.3066 S   0  0  0  0  0  0  0  0  0  0  0  0
   37.2892   30.7459   48.8106 C   0  0  0  0  0  0  0  0  0  0  0  0
   37.2133   31.8603   49.6674 C   0  0  0  0  0  0  0  0  0  0  0  0
   38.0457   32.9466   49.3710 C   0  0  0  0  0  0  0  0  0  0  0  0
   38.8692   32.8565   48.2812 N   0  0  0  0  0  0  0  0  0  0  0  0
   38.9034   31.7704   47.4958 C   0  0  0  0  0  0  0  0  0  0  0  0
   38.1192   30.7269   47.7613 N   0  0  0  0  0  0  0  0  0  0  0  0
   32.6094   28.9894   49.0610 H   0  0  0  0  0  0  0  0  0  0  0  0
   34.0680   30.6389   49.6631 H   0  0  0  0  0  0  0  0  0  0  0  0
   35.2820   30.1505   46.9072 H   0  0  0  0  0  0  0  0  0  0  0  0
   34.2059   31.4813   47.5433 H   0  0  0  0  0  0  0  0  0  0  0  0
   32.5750   28.0536   46.3118 H   0  0  0  0  0  0  0  0  0  0  0  0
   34.2665   28.3164   45.8462 H   0  0  0  0  0  0  0  0  0  0  0  0
   35.0066   27.6094   48.0123 H   0  0  0  0  0  0  0  0  0  0  0  0
   32.5360   26.5585   47.3958 H   0  0  0  0  0  0  0  0  0  0  0  0
   36.5836   31.9630   50.5239 H   0  0  0  0  0  0  0  0  0  0  0  0
   38.0419   33.8331   49.9819 H   0  0  0  0  0  0  0  0  0  0  0  0
   40.9999   32.4425   46.3794 C   0  0  0  0  0  0  0  0  0  0  0  0
   39.8044   31.7395   46.3498 C   0  0  0  0  0  0  0  0  0  0  0  0
   39.5354   31.0315   45.1972 C   0  0  0  0  0  0  0  0  0  0  0  0
   38.5813   30.4848   45.2033 H   0  0  0  0  0  0  0  0  0  0  0  0
   40.4079   31.0117   44.1084 C   0  0  0  0  0  0  0  0  0  0  0  0
   40.3082   30.3788   42.9093 N   0  0  0  0  0  0  0  0  0  0  0  0
   41.4520   30.7204   42.2484 C   0  0  0  0  0  0  0  0  0  0  0  0
   41.7343   30.4073   41.2567 H   0  0  0  0  0  0  0  0  0  0  0  0
   42.2251   31.5280   43.0031 N   0  0  0  0  0  0  0  0  0  0  0  0
   41.5854   31.7263   44.1842 C   0  0  0  0  0  0  0  0  0  0  0  0
   41.8785   32.4416   45.3229 C   0  0  0  0  0  0  0  0  0  0  0  0
   41.2867   33.0299   47.2593 H   0  0  0  0  0  0  0  0  0  0  0  0
   39.5409   29.7766   42.5757 H   0  0  0  0  0  0  0  0  0  0  0  0
   42.8158   33.0092   45.3807 H   0  0  0  0  0  0  0  0  0  0  0  0
  2  1  1  0
  2  8  1  0
  3  2  1  0
  4  3  1  0
  5  4  1  0
  5  6  1  0
  6  7  1  0
  6  1  1  0
  9  8  1  0
  9 10  2  0
 11 10  1  0
 12 11  2  0
 13 14  2  0
 13 12  1  0
 14  9  1  0
  1 15  1  0
  2 16  1  1
  3 17  1  0
  3 18  1  0
  5 19  1  0
  5 20  1  0
  6 21  1  6
  7 22  1  0
 10 23  1  0
 11 24  1  0
 25 26  2  0
 26 27  1  0
 27 28  1  0
 27 29  2  0
 29 30  1  0
 30 31  1  0
 31 32  1  0
 31 33  2  0
 33 34  1  0
 34 35  2  0
 35 25  1  0
 34 29  1  0
 25 36  1  0
 30 37  1  0
 35 38  1  0
 13 26  1  0
M  ISO  8  15   5  16  13  17  13  18  13  19  13  20  13  21  13  22   3
M  ISO  4  23  14  24  14  28  15  32  14
M  END
>  <DihAtoms>  (1) 
13,12,25,24

>  <DihDeg>  (1) 
-179.99847858810483

$$$$
