REMARK  Name = 
REMARK  8 active torsions:
REMARK  status: ('A' for Active; 'I' for Inactive)
REMARK    1  A    between atoms: P_2  and  O_3
REMARK    2  A    between atoms: P_2  and  O_4
REMARK    3  A    between atoms: P_2  and  O_12
REMARK    4  A    between atoms: O_4  and  C_5
REMARK    5  A    between atoms: C_5  and  C_6
REMARK    6  A    between atoms: O_12  and  C_14
REMARK    7  A    between atoms: C_13  and  O_18
REMARK    8  A    between atoms: O_18  and  C_32
REMARK                            x       y       z     vdW  Elec       q    Type
REMARK                         _______ _______ _______ _____ _____    ______ ____
ROOT
ATOM      1  C   UNL     1      38.841  32.484  47.807  0.00  0.00    +0.000 C 
ATOM      2  C   UNL     1      38.243  31.463  48.760  0.00  0.00    +0.000 C 
ATOM      3  C   UNL     1      38.831  32.019  50.069  0.00  0.00    +0.000 C 
ATOM      4  O   UNL     1      38.475  33.356  49.963  0.00  0.00    +0.000 OA
ATOM      5  C   UNL     1      38.685  33.736  48.659  0.00  0.00    +0.000 C 
ATOM      6  H   UNL     1      39.908  32.217  47.672  0.00  0.00    +0.000 HD
ATOM      7  H   UNL     1      38.567  30.439  48.577  0.00  0.00    +0.000 HD
ATOM      8  H   UNL     1      39.929  31.935  49.982  0.00  0.00    +0.000 HD
ATOM      9  H   UNL     1      38.403  31.540  50.949  0.00  0.00    +0.000 HD
ATOM     10  H   UNL     1      39.568  34.391  48.604  0.00  0.00    +0.000 HD
ATOM     11  H   UNL     1      37.792  34.290  48.256  0.00  0.00    +0.000 HD
ENDROOT
BRANCH   2  12
ATOM     12  O   UNL     1      36.880  31.651  48.745  0.00  0.00    +0.000 OA
BRANCH  12  14
ATOM     13  O   UNL     1      36.042  29.940  46.971  0.00  0.00    +0.000 OA
ATOM     14  P   UNL     1      36.037  30.222  48.443  0.00  0.00    +0.000 P 
BRANCH  14  15
ATOM     15  O   UNL     1      36.802  28.908  49.239  0.00  0.00    +0.000 OA
ATOM     16  H   UNL     1      37.594  28.619  48.730  0.00  0.00    +0.000 HD
ENDBRANCH  14  15
BRANCH  14  17
ATOM     17  O   UNL     1      34.441  30.364  49.020  0.00  0.00    +0.000 OA
BRANCH  17  18
ATOM     18  C   UNL     1      34.178  29.234  49.768  0.00  0.00    +0.000 C 
ATOM     19  H   UNL     1      33.620  29.593  50.675  0.00  0.00    +0.000 HD
ATOM     20  H   UNL     1      35.109  28.783  50.151  0.00  0.00    +0.000 HD
BRANCH  18  21
ATOM     21  C   UNL     1      33.316  28.257  49.068  0.00  0.00    +0.000 A 
ATOM     22  C   UNL     1      33.941  27.378  48.216  0.00  0.00    +0.000 A 
ATOM     23  C   UNL     1      33.183  26.431  47.525  0.00  0.00    +0.000 A 
ATOM     24  N   UNL     1      31.837  26.438  47.743  0.00  0.00    +0.000 NA
ATOM     25  C   UNL     1      31.245  27.312  48.585  0.00  0.00    +0.000 A 
ATOM     26  N   UNL     1      31.983  28.226  49.251  0.00  0.00    +0.000 NA
ATOM     27  H   UNL     1      34.984  27.296  47.981  0.00  0.00    +0.000 HD
ATOM     28  H   UNL     1      33.583  25.698  46.835  0.00  0.00    +0.000 HD
ATOM     29  H   UNL     1      30.168  27.294  48.739  0.00  0.00    +0.000 HD
ENDBRANCH  18  21
ENDBRANCH  17  18
ENDBRANCH  14  17
ENDBRANCH  12  14
ENDBRANCH   2  12
BRANCH   1  30
ATOM     30  O   UNL     1      38.086  32.489  46.664  0.00  0.00    +0.000 OA
BRANCH  30  32
ATOM     31  C   UNL     1      39.497  31.294  45.270  0.00  0.00    +0.000 A 
ATOM     32  C   UNL     1      38.456  32.210  45.370  0.00  0.00    +0.000 A 
ATOM     33  C   UNL     1      37.927  32.722  44.193  0.00  0.00    +0.000 A 
ATOM     34  H   UNL     1      37.120  33.428  44.357  0.00  0.00    +0.000 HD
ATOM     35  C   UNL     1      38.430  32.323  42.968  0.00  0.00    +0.000 A 
ATOM     36  N   UNL     1      38.050  32.705  41.733  0.00  0.00    +0.000 N 
ATOM     37  C   UNL     1      38.855  32.025  40.896  0.00  0.00    +0.000 A 
ATOM     38  H   UNL     1      38.763  32.147  39.809  0.00  0.00    +0.000 HD
ATOM     39  N   UNL     1      39.703  31.249  41.596  0.00  0.00    +0.000 NA
ATOM     40  C   UNL     1      39.465  31.410  42.924  0.00  0.00    +0.000 A 
ATOM     41  C   UNL     1      40.020  30.877  44.063  0.00  0.00    +0.000 A 
ATOM     42  H   UNL     1      37.298  33.379  41.480  0.00  0.00    +0.000 HD
ENDBRANCH  30  32
ENDBRANCH   1  30
TORSDOF 8
