
 OpenBabel03272509243D

 27 29  0  0  0  0  0  0  0  0999 V2000
   38.2220   31.3060   47.5370 C   0  0  0  0  0  0  0  0  0  0  0  0
   37.9240   32.1930   48.1000 H   0  0  0  0  0  0  0  0  0  0  0  0
   39.2400   30.9280   47.7630 H   0  0  0  0  0  0  0  0  0  0  0  0
   37.2070   31.1090   45.2780 C   0  0  0  0  0  3  0  0  0  0  0  0
   38.2030   31.6660   46.0810 C   0  0  0  0  0  0  0  0  0  0  0  0
   39.0890   32.5090   45.4390 C   0  0  0  0  0  0  0  0  0  0  0  0
   39.8580   32.9390   46.0610 H   0  0  0  0  0  0  0  0  0  0  0  0
   38.9540   32.7490   44.0990 C   0  0  0  0  0  0  0  0  0  0  0  0
   39.6810   33.5230   43.2550 N   0  0  0  0  0  0  0  0  0  0  0  0
   39.1470   33.4360   42.0050 C   0  0  0  0  0  0  0  0  0  0  0  0
   39.4860   33.9270   41.0970 H   0  0  0  0  0  0  0  0  0  0  0  0
   38.0830   32.6070   42.0550 N   0  0  0  0  0  0  0  0  0  0  0  0
   37.9580   32.1840   43.3310 C   0  0  0  0  0  0  0  0  0  0  0  0
   37.0500   31.3350   43.9260 C   0  0  0  0  0  3  0  0  0  0  0  0
   40.5220   34.1030   43.5080 H   0  0  0  0  0  0  0  0  0  0  0  0
   37.1780   30.2180   47.7510 C   0  0  0  0  0  0  0  0  0  0  0  0
   37.5670   29.2540   47.3230 H   0  0  0  0  0  0  0  0  0  0  0  0
   36.2360   30.5250   47.2880 H   0  0  0  0  0  0  0  0  0  0  0  0
   37.5730   30.1260   51.5330 C   0  0  0  0  0  0  0  0  0  0  0  0
   37.8510   30.3610   50.1860 C   0  0  0  0  0  0  0  0  0  0  0  0
   36.9490   29.9990   49.2010 C   0  0  0  0  0  0  0  0  0  0  0  0
   35.7980   29.4120   49.6190 N   0  0  0  0  0  0  0  0  0  0  0  0
   35.5330   29.1860   50.9270 C   0  0  0  0  0  0  0  0  0  0  0  0
   36.4220   29.5450   51.8800 N   0  0  0  0  0  0  0  0  0  0  0  0
   38.3350   30.4410   52.2480 H   0  0  0  0  0  0  0  0  0  0  0  0
   38.7830   30.8300   49.9090 H   0  0  0  0  0  0  0  0  0  0  0  0
   34.5920   28.7140   51.1880 H   0  0  0  0  0  0  0  0  0  0  0  0
  1 16  1  0  0  0  0
  1  3  1  0  0  0  0
  1  2  1  0  0  0  0
  4  5  1  0  0  0  0
  5  1  1  0  0  0  0
  6  7  1  0  0  0  0
  6  5  2  0  0  0  0
  8  6  1  0  0  0  0
  9 15  1  0  0  0  0
  9  8  1  0  0  0  0
 10 12  2  0  0  0  0
 10  9  1  0  0  0  0
 11 10  1  0  0  0  0
 12 13  1  0  0  0  0
 13 14  1  0  0  0  0
 13  8  2  0  0  0  0
 14  4  2  0  0  0  0
 16 21  1  0  0  0  0
 17 16  1  0  0  0  0
 18 16  1  0  0  0  0
 19 24  1  0  0  0  0
 19 25  1  0  0  0  0
 20 19  2  0  0  0  0
 21 22  2  0  0  0  0
 21 20  1  0  0  0  0
 22 23  1  0  0  0  0
 23 27  1  0  0  0  0
 23 24  2  0  0  0  0
 26 20  1  0  0  0  0
M  END
>  <minimizedAffinity>
-4.63491249

>  <minimizedRMSD>
2.53243876

$$$$
