
 OpenBabel03272507523D

 35 38  0  0  0  0  0  0  0  0999 V2000
   36.8680   31.0760   47.9250 N   0  0  0  0  0  0  0  0  0  0  0  0
   37.4370   31.8120   48.8720 C   0  0  0  0  0  0  0  0  0  0  0  0
   38.5360   32.6140   48.5550 C   0  0  0  0  0  0  0  0  0  0  0  0
   38.9340   32.5600   47.2480 C   0  0  0  0  0  0  0  0  0  0  0  0
   39.9350   33.3020   46.9980 O   0  0  0  0  0  0  0  0  0  0  0  0
   38.3920   31.8390   46.2760 N   0  0  0  0  0  0  0  0  0  0  0  0
   37.3320   31.0810   46.6370 C   0  0  0  0  0  0  0  0  0  0  0  0
   36.8010   30.3840   45.7140 O   0  0  0  0  0  0  0  0  0  0  0  0
   36.9840   31.7240   49.8450 H   0  0  0  0  0  0  0  0  0  0  0  0
   38.9670   33.1890   49.3350 H   0  0  0  0  0  0  0  0  0  0  0  0
   38.6690   32.7550   43.9230 C   0  0  0  0  0  3  0  0  0  0  0  0
   38.8730   31.8420   44.9300 C   0  0  0  0  0  0  0  0  0  0  0  0
   39.6570   30.7100   44.6980 C   0  0  0  0  0  0  0  0  0  0  0  0
   39.8930   29.9190   45.4080 H   0  0  0  0  0  0  0  0  0  0  0  0
   40.2380   30.4920   43.4550 C   0  0  0  0  0  0  0  0  0  0  0  0
   41.0300   29.5280   42.9140 N   0  0  0  0  0  0  0  0  0  0  0  0
   41.2950   29.8450   41.6250 C   0  0  0  0  0  0  0  0  0  0  0  0
   41.9140   29.2050   41.0060 H   0  0  0  0  0  0  0  0  0  0  0  0
   40.6660   31.0230   41.3450 N   0  0  0  0  0  0  0  0  0  0  0  0
   40.0250   31.4150   42.4540 C   0  0  0  0  0  0  0  0  0  0  0  0
   39.2490   32.5310   42.6910 C   0  0  0  0  0  3  0  0  0  0  0  0
   41.3620   28.6760   43.4560 H   0  0  0  0  0  0  0  0  0  0  0  0
   35.4710   29.8730   49.5100 C   0  0  0  0  0  0  0  0  0  0  0  0
   35.7400   30.2230   48.1710 C   0  0  0  0  0  0  0  0  0  0  0  0
   34.9060   29.7270   47.1550 C   0  0  0  0  0  0  0  0  0  0  0  0
   33.8790   28.9300   47.5260 N   0  0  0  0  0  0  0  0  0  0  0  0
   33.6260   28.6000   48.7820 C   0  0  0  0  0  0  0  0  0  0  0  0
   34.4170   29.0690   49.7650 N   0  0  0  0  0  0  0  0  0  0  0  0
   35.1380   30.0120   46.1430 H   0  0  0  0  0  0  0  0  0  0  0  0
   32.8060   27.9640   49.0870 H   0  0  0  0  0  0  0  0  0  0  0  0
   37.2620   29.7000   51.4020 C   0  0  0  0  0  0  0  0  0  0  0  0
   37.6850   28.5540   51.1460 O   0  0  0  0  0  0  0  0  0  0  0  0
   36.2400   30.3280   50.6020 N   0  0  0  0  0  0  0  0  0  0  0  0
   37.7090   30.1830   52.2550 H   0  0  0  0  0  0  0  0  0  0  0  0
   36.0760   31.3220   50.9400 H   0  0  0  0  0  0  0  0  0  0  0  0
  1 24  1  0  0  0  0
  1  2  1  0  0  0  0
  2  9  1  0  0  0  0
  3  2  2  0  0  0  0
  3 10  1  0  0  0  0
  4  3  1  0  0  0  0
  5  4  2  0  0  0  0
  6  7  1  0  0  0  0
  6  4  1  0  0  0  0
  7  1  1  0  0  0  0
  8  7  2  0  0  0  0
 11 12  1  0  0  0  0
 12  6  1  0  0  0  0
 13 12  2  0  0  0  0
 13 14  1  0  0  0  0
 15 13  1  0  0  0  0
 16 15  1  0  0  0  0
 16 22  1  0  0  0  0
 17 16  1  0  0  0  0
 18 17  1  0  0  0  0
 19 17  2  0  0  0  0
 19 20  1  0  0  0  0
 20 21  1  0  0  0  0
 20 15  2  0  0  0  0
 21 11  2  0  0  0  0
 23 28  1  0  0  0  0
 23 33  1  0  0  0  0
 24 23  2  0  0  0  0
 25 26  2  0  0  0  0
 25 24  1  0  0  0  0
 26 27  1  0  0  0  0
 27 30  1  0  0  0  0
 27 28  2  0  0  0  0
 29 25  1  0  0  0  0
 31 34  1  0  0  0  0
 32 31  2  0  0  0  0
 33 35  1  0  0  0  0
 33 31  1  0  0  0  0
M  END
>  <minimizedAffinity>
-6.94675875

>  <minimizedRMSD>
2.58179498

$$$$
