
 OpenBabel03272502583D

 37 40  0  0  1  0  0  0  0  0999 V2000
   35.5270   29.5310   48.8560 N   0  0  0  0  0  0  0  0  0  0  0  0
   36.4620   28.7250   49.6130 C   0  0  0  0  0  0  0  0  0  0  0  0
   37.0270   29.2950   50.8320 C   0  0  0  0  0  0  0  0  0  0  0  0
   37.1070   30.7640   50.9580 C   0  0  0  0  0  0  0  0  0  0  0  0
   36.1540   31.5090   50.0740 C   0  0  0  0  0  0  0  0  0  0  0  0
   36.1060   30.8570   48.6860 C   0  0  1  0  0  0  0  0  0  0  0  0
   35.9410   27.7610   49.8200 H   0  0  0  0  0  0  0  0  0  0  0  0
   37.2800   28.4670   48.8830 H   0  0  0  0  0  0  0  0  0  0  0  0
   36.4470   28.8960   51.7090 H   0  0  0  0  0  0  0  0  0  0  0  0
   38.0640   28.8780   50.9780 H   0  0  0  0  0  0  0  0  0  0  0  0
   36.8870   31.0880   52.0090 H   0  0  0  0  0  0  0  0  0  0  0  0
   38.1400   31.1300   50.7730 H   0  0  0  0  0  0  0  0  0  0  0  0
   36.4070   32.5750   50.0210 H   0  0  0  0  0  0  0  0  0  0  0  0
   35.1290   31.3950   50.4850 H   0  0  0  0  0  0  0  0  0  0  0  0
   35.5120   31.4900   48.0220 H   0  0  0  0  0  0  0  0  0  0  0  0
   34.2670   29.0890   48.3700 C   0  0  0  0  0  0  0  0  0  0  0  0
   33.7350   29.4370   47.1320 C   0  0  0  0  0  0  0  0  0  0  0  0
   32.4950   28.9450   46.7650 C   0  0  0  0  0  0  0  0  0  0  0  0
   31.8540   28.1340   47.6520 N   0  0  0  0  0  0  0  0  0  0  0  0
   32.3930   27.8170   48.8370 C   0  0  0  0  0  0  0  0  0  0  0  0
   33.5950   28.2970   49.1880 N   0  0  0  0  0  0  0  0  0  0  0  0
   34.3160   30.0860   46.4930 H   0  0  0  0  0  0  0  0  0  0  0  0
   32.1040   29.2320   45.7930 H   0  0  0  0  0  0  0  0  0  0  0  0
   31.8240   27.1560   49.5100 H   0  0  0  0  0  0  0  0  0  0  0  0
   37.4380   30.7790   48.2880 O   0  0  0  0  0  0  0  0  0  0  0  0
   37.3830   30.7960   46.0070 C   0  0  0  0  0  3  0  0  0  0  0  0
   37.9340   31.3640   47.1620 C   0  0  0  0  0  0  0  0  0  0  0  0
   38.8470   32.3770   46.9740 C   0  0  0  0  0  0  0  0  0  0  0  0
   39.2350   32.7740   47.8940 H   0  0  0  0  0  0  0  0  0  0  0  0
   39.2090   32.8180   45.7380 C   0  0  0  0  0  0  0  0  0  0  0  0
   40.0700   33.7810   45.3600 N   0  0  0  0  0  0  0  0  0  0  0  0
   40.0740   33.8300   44.0160 C   0  0  0  0  0  0  0  0  0  0  0  0
   40.6960   34.5360   43.4810 H   0  0  0  0  0  0  0  0  0  0  0  0
   39.2170   32.9030   43.5470 N   0  0  0  0  0  0  0  0  0  0  0  0
   38.6720   32.2660   44.6050 C   0  0  0  0  0  0  0  0  0  0  0  0
   37.7400   31.2340   44.7370 C   0  0  0  0  0  3  0  0  0  0  0  0
   40.6310   34.3770   46.0090 H   0  0  0  0  0  0  0  0  0  0  0  0
  1  2  1  0  0  0  0
  2  7  1  0  0  0  0
  2  3  1  0  0  0  0
  3  4  1  0  0  0  0
  3 10  1  0  0  0  0
  3  9  1  0  0  0  0
  4 11  1  0  0  0  0
  5 14  1  0  0  0  0
  5  4  1  0  0  0  0
  6 15  1  6  0  0  0
  6  1  1  0  0  0  0
  6  5  1  0  0  0  0
  8  2  1  0  0  0  0
 12  4  1  0  0  0  0
 13  5  1  0  0  0  0
 16  1  1  0  0  0  0
 16 21  1  0  0  0  0
 17 16  2  0  0  0  0
 18 17  1  0  0  0  0
 18 19  2  0  0  0  0
 19 20  1  0  0  0  0
 20 21  2  0  0  0  0
 20 24  1  0  0  0  0
 22 17  1  0  0  0  0
 23 18  1  0  0  0  0
 25  6  1  0  0  0  0
 26 27  1  0  0  0  0
 27 25  1  0  0  0  0
 28 27  2  0  0  0  0
 28 29  1  0  0  0  0
 30 28  1  0  0  0  0
 31 30  1  0  0  0  0
 31 37  1  0  0  0  0
 32 31  1  0  0  0  0
 33 32  1  0  0  0  0
 34 32  2  0  0  0  0
 34 35  1  0  0  0  0
 35 36  1  0  0  0  0
 35 30  2  0  0  0  0
 36 26  2  0  0  0  0
M  END
>  <minimizedAffinity>
-5.9945178

>  <minimizedRMSD>
1.47950196

$$$$
