REMARK  Name = 
REMARK  5 active torsions:
REMARK  status: ('A' for Active; 'I' for Inactive)
REMARK    1  A    between atoms: C_1  and  O_14
REMARK    2  A    between atoms: C_2  and  C_8
REMARK    3  A    between atoms: C_6  and  O_15
REMARK    4  A    between atoms: C_9  and  C_13
REMARK    5  A    between atoms: O_15  and  C_26
REMARK                            x       y       z     vdW  Elec       q    Type
REMARK                         _______ _______ _______ _____ _____    ______ ____
ROOT
ATOM      1  C   UNL     1      37.991  31.392  47.639  0.00  0.00    +0.000 A 
ATOM      2  C   UNL     1      37.072  31.320  48.669  0.00  0.00    +0.000 A 
ATOM      3  C   UNL     1      37.197  32.352  49.615  0.00  0.00    +0.000 A 
ATOM      4  C   UNL     1      38.174  33.352  49.500  0.00  0.00    +0.000 A 
ATOM      5  C   UNL     1      39.060  33.326  48.406  0.00  0.00    +0.000 A 
ATOM      6  C   UNL     1      38.952  32.314  47.462  0.00  0.00    +0.000 A 
ATOM      7  H   UNL     1      36.518  32.369  50.450  0.00  0.00    +0.000 HD
ATOM      8  H   UNL     1      38.232  34.125  50.252  0.00  0.00    +0.000 HD
ATOM      9  H   UNL     1      39.808  34.108  48.337  0.00  0.00    +0.000 HD
ENDROOT
BRANCH   2  11
ATOM     10  C   UNL     1      34.940  30.350  47.986  0.00  0.00    +0.000 A 
ATOM     11  C   UNL     1      36.078  30.309  48.791  0.00  0.00    +0.000 A 
ATOM     12  C   UNL     1      36.191  29.252  49.702  0.00  0.00    +0.000 A 
ATOM     13  N   UNL     1      35.198  28.332  49.753  0.00  0.00    +0.000 NA
ATOM     14  C   UNL     1      34.103  28.412  48.947  0.00  0.00    +0.000 A 
ATOM     15  N   UNL     1      33.981  29.414  48.073  0.00  0.00    +0.000 NA
ATOM     16  H   UNL     1      34.828  31.159  47.272  0.00  0.00    +0.000 HD
ATOM     17  H   UNL     1      33.365  27.627  49.065  0.00  0.00    +0.000 HD
BRANCH  12  18
ATOM     18  C   UNL     1      37.382  29.157  50.585  0.00  0.00    +0.000 C 
ATOM     19  H   UNL     1      38.325  29.326  50.003  0.00  0.00    +0.000 HD
ATOM     20  H   UNL     1      37.318  30.018  51.294  0.00  0.00    +0.000 HD
ATOM     21  H   UNL     1      37.385  28.184  51.084  0.00  0.00    +0.000 HD
ENDBRANCH  12  18
ENDBRANCH   2  11
BRANCH   1  22
ATOM     22  O   UNL     1      37.947  30.404  46.642  0.00  0.00    +0.000 OA
ATOM     23  H   UNL     1      37.845  29.420  46.869  0.00  0.00    +0.000 HD
ENDBRANCH   1  22
BRANCH   6  24
ATOM     24  O   UNL     1      39.851  32.356  46.424  0.00  0.00    +0.000 OA
BRANCH  24  26
ATOM     25  C   UNL     1      41.489  30.514  46.852  0.00  0.00    +0.000 A 
ATOM     26  C   UNL     1      40.778  31.412  46.085  0.00  0.00    +0.000 A 
ATOM     27  C   UNL     1      40.993  31.416  44.701  0.00  0.00    +0.000 A 
ATOM     28  H   UNL     1      40.517  32.057  43.965  0.00  0.00    +0.000 HD
ATOM     29  C   UNL     1      41.903  30.535  44.104  0.00  0.00    +0.000 A 
ATOM     30  N   UNL     1      42.323  30.297  42.849  0.00  0.00    +0.000 N 
ATOM     31  C   UNL     1      43.236  29.312  42.837  0.00  0.00    +0.000 A 
ATOM     32  H   UNL     1      43.742  28.914  41.963  0.00  0.00    +0.000 HD
ATOM     33  N   UNL     1      43.398  28.916  44.127  0.00  0.00    +0.000 NA
ATOM     34  C   UNL     1      42.587  29.657  44.918  0.00  0.00    +0.000 A 
ATOM     35  C   UNL     1      42.390  29.637  46.283  0.00  0.00    +0.000 A 
ATOM     36  H   UNL     1      41.983  30.808  42.001  0.00  0.00    +0.000 HD
ENDBRANCH  24  26
ENDBRANCH   6  24
TORSDOF 5
