
 OpenBabel03262521473D

 33 35  0  0  0  0  0  0  0  0999 V2000
   34.6890   30.6920   49.2720 O   0  0  0  0  0  0  0  0  0  0  0  0
   34.4820   29.4620   50.1380 P   0  0  2  0  0  0  0  0  0  0  0  0
   32.9670   29.6360   50.8490 O   0  0  0  0  0  0  0  0  0  0  0  0
   33.0810   29.3950   51.8010 H   0  0  0  0  0  0  0  0  0  0  0  0
   35.7060   29.4420   51.3180 O   0  0  0  0  0  0  0  0  0  0  0  0
   36.9650   29.2430   50.7400 C   0  0  0  0  0  0  0  0  0  0  0  0
   36.7980   29.0090   49.6830 H   0  0  0  0  0  0  0  0  0  0  0  0
   37.4450   28.3520   51.1940 H   0  0  0  0  0  0  0  0  0  0  0  0
   37.7410   30.5090   50.8830 C   0  0  0  0  0  0  0  0  0  0  0  0
   37.2720   31.2610   51.5640 H   0  0  0  0  0  0  0  0  0  0  0  0
   38.7150   30.2260   51.3780 H   0  0  0  0  0  0  0  0  0  0  0  0
   38.1000   31.1680   49.6270 C   0  0  0  0  0  0  0  0  0  0  0  0
   38.5500   32.4720   49.5680 C   0  0  0  0  0  0  0  0  0  0  0  0
   38.8660   33.0010   48.3000 C   0  0  0  0  0  0  0  0  0  0  0  0
   38.7100   32.2000   47.1990 N   0  0  0  0  0  0  0  0  0  0  0  0
   38.2600   30.9140   47.3150 C   0  0  0  0  0  0  0  0  0  0  0  0
   37.9570   30.4100   48.5360 N   0  0  0  0  0  0  0  0  0  0  0  0
   38.6420   33.0320   50.4900 H   0  0  0  0  0  0  0  0  0  0  0  0
   39.2160   34.0110   48.2400 H   0  0  0  0  0  0  0  0  0  0  0  0
   38.1620   30.3410   46.4030 H   0  0  0  0  0  0  0  0  0  0  0  0
   34.5050   28.0600   49.2300 O   0  0  0  0  0  0  0  0  0  0  0  0
   34.1390   28.7510   46.8630 C   0  0  0  0  0  3  0  0  0  0  0  0
   34.1340   27.8780   47.9230 C   0  0  0  0  0  0  0  0  0  0  0  0
   33.6890   26.5680   47.7060 C   0  0  0  0  0  0  0  0  0  0  0  0
   33.6310   25.7710   48.4590 H   0  0  0  0  0  0  0  0  0  0  0  0
   33.2580   26.1540   46.4420 C   0  0  0  0  0  0  0  0  0  0  0  0
   32.7870   25.0080   45.9190 N   0  0  0  0  0  0  0  0  0  0  0  0
   32.5280   25.2090   44.5990 C   0  0  0  0  0  0  0  0  0  0  0  0
   32.1350   24.4310   43.9390 H   0  0  0  0  0  0  0  0  0  0  0  0
   32.8380   26.4970   44.2830 N   0  0  0  0  0  0  0  0  0  0  0  0
   33.2840   27.0740   45.4100 C   0  0  0  0  0  0  0  0  0  0  0  0
   33.7230   28.3710   45.6140 C   0  0  0  0  0  3  0  0  0  0  0  0
   32.6640   24.1500   46.4740 H   0  0  0  0  0  0  0  0  0  0  0  0
  2  1  2  6  0  0  0
  2  3  1  0  0  0  0
  2  5  1  0  0  0  0
  3  4  1  0  0  0  0
  6  9  1  0  0  0  0
  6  8  1  0  0  0  0
  6  5  1  0  0  0  0
  7  6  1  0  0  0  0
  9 11  1  0  0  0  0
  9 10  1  0  0  0  0
 12  9  1  0  0  0  0
 13 12  1  0  0  0  0
 13 18  1  0  0  0  0
 14 13  2  0  0  0  0
 15 16  2  0  0  0  0
 15 14  1  0  0  0  0
 16 17  1  0  0  0  0
 17 12  2  0  0  0  0
 19 14  1  0  0  0  0
 20 16  1  0  0  0  0
 21  2  1  0  0  0  0
 22 23  1  0  0  0  0
 23 21  1  0  0  0  0
 24 23  2  0  0  0  0
 24 25  1  0  0  0  0
 26 24  1  0  0  0  0
 27 26  1  0  0  0  0
 27 33  1  0  0  0  0
 28 27  1  0  0  0  0
 29 28  1  0  0  0  0
 30 28  2  0  0  0  0
 30 31  1  0  0  0  0
 31 32  1  0  0  0  0
 31 26  2  0  0  0  0
 32 22  2  0  0  0  0
M  END
>  <minimizedAffinity>
-5.30420923

>  <minimizedRMSD>
0.594697416

$$$$
