
     RDKit          3D

 45 48  0  0  0  0  0  0  0  0999 V2000
   35.2895   30.6233   48.9622 C   0  0  1  0  0  0  0  0  0  0  0  0
   34.7903   30.1683   50.2416 C   0  0  0  0  0  0  0  0  0  0  0  0
   35.6291   29.1531   50.9883 C   0  0  0  0  0  0  0  0  0  0  0  0
   37.1070   29.3436   50.8832 C   0  0  0  0  0  0  0  0  0  0  0  0
   37.6451   29.8416   49.5933 C   0  0  0  0  0  0  0  0  0  0  0  0
   36.7789   30.8740   48.9715 C   0  0  2  0  0  0  0  0  0  0  0  0
   33.9891   28.7349   47.8286 C   0  0  0  0  0  0  0  0  0  0  0  0
   34.8776   29.8540   47.7750 C   0  0  0  0  0  0  0  0  0  0  0  0
   35.3465   30.1793   46.5122 C   0  0  0  0  0  0  0  0  0  0  0  0
   34.9517   29.4437   45.4281 N   0  0  0  0  0  0  0  0  0  0  0  0
   34.1156   28.4039   45.5413 C   0  0  0  0  0  0  0  0  0  0  0  0
   33.6294   28.0476   46.7614 N   0  0  0  0  0  0  0  0  0  0  0  0
   36.9458   32.1197   49.8815 C   0  0  0  0  0  0  0  0  0  0  0  0
   38.0574   33.0169   49.3287 C   0  0  0  0  0  0  0  0  0  0  0  0
   34.8743   31.6571   48.7503 H   0  0  0  0  0  0  0  0  0  0  0  0
   33.7602   29.8294   50.3029 H   0  0  0  0  0  0  0  0  0  0  0  0
   34.8150   31.0652   50.9335 H   0  0  0  0  0  0  0  0  0  0  0  0
   35.3879   28.1206   50.6375 H   0  0  0  0  0  0  0  0  0  0  0  0
   35.3551   29.1694   52.0634 H   0  0  0  0  0  0  0  0  0  0  0  0
   37.4593   29.9937   51.7250 H   0  0  0  0  0  0  0  0  0  0  0  0
   37.5895   28.3609   51.0845 H   0  0  0  0  0  0  0  0  0  0  0  0
   37.8875   29.0375   48.8534 H   0  0  0  0  0  0  0  0  0  0  0  0
   38.6206   30.3289   49.7990 H   0  0  0  0  0  0  0  0  0  0  0  0
   37.1831   31.1291   47.9932 H   0  0  0  0  0  0  0  0  0  0  0  0
   33.6065   28.4575   48.8031 H   0  0  0  0  0  0  0  0  0  0  0  0
   36.0188   30.9981   46.3336 H   0  0  0  0  0  0  0  0  0  0  0  0
   33.8759   27.9000   44.6172 H   0  0  0  0  0  0  0  0  0  0  0  0
   36.0265   32.7637   49.8160 H   0  0  0  0  0  0  0  0  0  0  0  0
   37.1352   31.8401   50.9203 H   0  0  0  0  0  0  0  0  0  0  0  0
   37.7583   33.3231   48.2992 H   0  0  0  0  0  0  0  0  0  0  0  0
   38.9849   32.4290   49.3348 H   0  0  0  0  0  0  0  0  0  0  0  0
   37.7163   34.3740   51.4749 C   0  0  0  0  0  0  0  0  0  0  0  0
   38.2161   34.2083   50.2002 C   0  0  0  0  0  0  0  0  0  0  0  0
   38.9410   35.2721   49.6894 C   0  0  0  0  0  0  0  0  0  0  0  0
   39.3638   35.2014   48.6823 H   0  0  0  0  0  0  0  0  0  0  0  0
   39.1979   36.4612   50.3415 C   0  0  0  0  0  0  0  0  0  0  0  0
   39.8538   37.5739   50.0332 N   0  0  0  0  0  0  0  0  0  0  0  0
   39.7567   38.3959   51.0914 C   0  0  0  0  0  0  0  0  0  0  0  0
   40.2287   39.3756   51.0531 H   0  0  0  0  0  0  0  0  0  0  0  0
   39.0360   37.7834   52.0557 N   0  0  0  0  0  0  0  0  0  0  0  0
   38.6755   36.5758   51.6136 C   0  0  0  0  0  0  0  0  0  0  0  0
   37.9383   35.5390   52.1794 C   0  0  0  0  0  0  0  0  0  0  0  0
   37.1499   33.5360   51.8671 H   0  0  0  0  0  0  0  0  0  0  0  0
   40.3407   37.7347   49.1220 H   0  0  0  0  0  0  0  0  0  0  0  0
   37.5482   35.6595   53.1652 H   0  0  0  0  0  0  0  0  0  0  0  0
  1  6  1  0
  1  2  1  0
  2  3  1  0
  4  3  1  0
  5  4  1  0
  6  5  1  0
  6 13  1  0
  8  7  2  0
  8  1  1  0
  9  8  1  0
 10 11  1  0
 10  9  2  0
 11 12  2  0
 12  7  1  0
 14 13  1  0
  1 15  1  6
  2 16  1  0
  2 17  1  0
  3 18  1  0
  3 19  1  0
  4 20  1  0
  4 21  1  0
  5 22  1  0
  5 23  1  0
  6 24  1  6
  7 25  1  0
  9 26  1  0
 11 27  1  0
 13 28  1  0
 13 29  1  0
 14 30  1  0
 14 31  1  0
 32 33  2  0
 33 34  1  0
 34 35  1  0
 34 36  2  0
 36 37  1  0
 37 38  1  0
 38 39  1  0
 38 40  2  0
 40 41  1  0
 41 42  2  0
 42 32  1  0
 41 36  1  0
 32 43  1  0
 37 44  1  0
 42 45  1  0
 14 33  1  0
M  ISO  8  15  13  16  13  17  13  18  13  19  13  20  13  21  13  22  13
M  ISO  8  23  13  24  13  25  14  26  14  27  14  28   8  29   8  30   8
M  ISO  3  31   8  35  15  39  14
M  END
>  <DihAtoms>  (1) 
12,13,32,31

>  <DihDeg>  (1) 
-90.00009860310166

$$$$
