
     RDKit          3D

 37 40  0  0  0  0  0  0  0  0999 V2000
   38.4541   30.4433   47.3076 F   0  0  0  0  0  0  0  0  0  0  0  0
   38.7557   31.6817   47.7932 C   0  0  0  0  0  0  0  0  0  0  0  0
   38.2356   32.0757   48.9951 C   0  0  0  0  0  0  0  0  0  0  0  0
   38.5807   33.3310   49.4203 C   0  0  0  0  0  0  0  0  0  0  0  0
   39.3986   34.1731   48.7085 C   0  0  0  0  0  0  0  0  0  0  0  0
   39.9060   33.7400   47.4968 C   0  0  0  0  0  0  0  0  0  0  0  0
   39.5805   32.4808   47.0350 C   0  0  0  0  0  0  0  0  0  0  0  0
   36.9213   29.6015   51.5352 C   0  0  0  0  0  0  0  0  0  0  0  0
   37.7810   30.4910   50.8581 C   0  0  0  0  0  0  0  0  0  0  0  0
   37.3707   31.1494   49.7188 C   0  0  0  0  0  0  0  0  0  0  0  0
   36.1019   30.8986   49.2837 N   0  0  0  0  0  0  0  0  0  0  0  0
   35.2834   30.0502   49.9302 C   0  0  0  0  0  0  0  0  0  0  0  0
   35.6871   29.4176   51.0308 N   0  0  0  0  0  0  0  0  0  0  0  0
   39.1864   32.1663   44.6910 C   0  0  0  0  0  0  0  0  0  0  0  0
   38.0770   32.7028   44.9835 O   0  0  0  0  0  0  0  0  0  0  0  0
   40.0881   31.9999   45.7844 N   0  0  0  0  0  0  0  0  0  0  0  0
   38.1639   33.6509   50.3867 H   0  0  0  0  0  0  0  0  0  0  0  0
   39.6116   35.1504   49.1343 H   0  0  0  0  0  0  0  0  0  0  0  0
   40.5480   34.4033   46.9399 H   0  0  0  0  0  0  0  0  0  0  0  0
   37.3044   29.1110   52.4313 H   0  0  0  0  0  0  0  0  0  0  0  0
   38.7888   30.7130   51.1729 H   0  0  0  0  0  0  0  0  0  0  0  0
   34.2953   29.9163   49.5084 H   0  0  0  0  0  0  0  0  0  0  0  0
   40.9982   31.5637   45.5953 H   0  0  0  0  0  0  0  0  0  0  0  0
   39.3834   30.4261   43.0532 C   0  0  0  0  0  0  0  0  0  0  0  0
   39.4479   31.7773   43.3256 C   0  0  0  0  0  0  0  0  0  0  0  0
   39.7438   32.7220   42.3645 C   0  0  0  0  0  0  0  0  0  0  0  0
   39.7945   33.7812   42.5774 H   0  0  0  0  0  0  0  0  0  0  0  0
   39.9882   32.3086   41.0675 C   0  0  0  0  0  0  0  0  0  0  0  0
   40.2944   32.9805   39.9437 N   0  0  0  0  0  0  0  0  0  0  0  0
   40.4236   32.0762   38.9696 C   0  0  0  0  0  0  0  0  0  0  0  0
   40.6712   32.3654   37.9540 H   0  0  0  0  0  0  0  0  0  0  0  0
   40.2036   30.8499   39.4635 N   0  0  0  0  0  0  0  0  0  0  0  0
   39.9240   30.9567   40.7931 C   0  0  0  0  0  0  0  0  0  0  0  0
   39.6289   29.9979   41.7452 C   0  0  0  0  0  0  0  0  0  0  0  0
   39.1542   29.6607   43.7834 H   0  0  0  0  0  0  0  0  0  0  0  0
   40.3990   34.0191   39.9009 H   0  0  0  0  0  0  0  0  0  0  0  0
   39.6082   28.9725   41.4083 H   0  0  0  0  0  0  0  0  0  0  0  0
  1  2  1  0
  2  3  2  0
  3  4  1  0
  3 10  1  0
  5  4  2  0
  6  5  1  0
  7  6  2  0
  7  2  1  0
  9  8  2  0
 10  9  1  0
 11 10  2  0
 11 12  1  0
 12 13  2  0
 13  8  1  0
 14 15  2  0
 14 16  1  0
 16  7  1  0
  4 17  1  0
  5 18  1  0
  6 19  1  0
  8 20  1  0
  9 21  1  0
 12 22  1  0
 16 23  1  0
 24 25  2  0
 25 26  1  0
 26 27  1  0
 26 28  2  0
 28 29  1  0
 29 30  1  0
 30 31  1  0
 30 32  2  0
 32 33  1  0
 33 34  2  0
 34 24  1  0
 33 28  1  0
 24 35  1  0
 29 36  1  0
 34 37  1  0
 14 25  1  0
M  ISO  8  17  14  18  14  19  14  20  14  21  14  22  14  27  15  31  14
M  END
>  <DihAtoms>  (1) 
14,13,24,23

>  <DihDeg>  (1) 
-0.002246493962663144

$$$$
