
     RDKit          3D

 37 40  0  0  0  0  0  0  0  0999 V2000
   35.6418   29.3313   49.8443 C   0  0  0  0  0  0  0  0  0  0  0  0
   35.7429   30.2821   48.8077 C   0  0  0  0  0  0  0  0  0  0  0  0
   34.9103   30.1589   47.6835 C   0  0  0  0  0  0  0  0  0  0  0  0
   34.0460   29.1188   47.6598 N   0  0  0  0  0  0  0  0  0  0  0  0
   33.9501   28.2258   48.6312 C   0  0  0  0  0  0  0  0  0  0  0  0
   34.7429   28.3332   49.7137 N   0  0  0  0  0  0  0  0  0  0  0  0
   37.6536   30.0507   51.3428 C   0  0  0  0  0  0  0  0  0  0  0  0
   38.2068   30.8314   50.5399 O   0  0  0  0  0  0  0  0  0  0  0  0
   36.4236   29.3739   51.0183 N   0  0  0  0  0  0  0  0  0  0  0  0
   36.7086   31.3330   48.9684 N   0  0  0  0  0  0  0  0  0  0  0  0
   36.5523   32.3345   49.8264 C   0  0  0  0  0  0  0  0  0  0  0  0
   37.5396   33.3164   49.9274 C   0  0  0  0  0  0  0  0  0  0  0  0
   38.6136   33.1444   49.1003 C   0  0  0  0  0  0  0  0  0  0  0  0
   39.4914   34.0565   49.2197 O   0  0  0  0  0  0  0  0  0  0  0  0
   38.8063   32.1605   48.2318 N   0  0  0  0  0  0  0  0  0  0  0  0
   37.8201   31.2361   48.1736 C   0  0  0  0  0  0  0  0  0  0  0  0
   37.9901   30.2857   47.3452 O   0  0  0  0  0  0  0  0  0  0  0  0
   35.0124   30.9010   46.9103 H   0  0  0  0  0  0  0  0  0  0  0  0
   33.2621   27.3919   48.6196 H   0  0  0  0  0  0  0  0  0  0  0  0
   38.1561   29.9198   52.2867 H   0  0  0  0  0  0  0  0  0  0  0  0
   36.0842   28.8193   51.8569 H   0  0  0  0  0  0  0  0  0  0  0  0
   35.6375   32.3007   50.3946 H   0  0  0  0  0  0  0  0  0  0  0  0
   37.3827   34.1025   50.6233 H   0  0  0  0  0  0  0  0  0  0  0  0
   40.2426   32.6574   46.1980 C   0  0  0  0  0  0  0  0  0  0  0  0
   39.9650   32.0562   47.4008 C   0  0  0  0  0  0  0  0  0  0  0  0
   40.8963   31.1924   47.9828 C   0  0  0  0  0  0  0  0  0  0  0  0
   40.7963   30.6579   48.9259 H   0  0  0  0  0  0  0  0  0  0  0  0
   42.1082   30.9320   47.3563 C   0  0  0  0  0  0  0  0  0  0  0  0
   43.1987   30.1693   47.6394 N   0  0  0  0  0  0  0  0  0  0  0  0
   44.1035   30.3046   46.6431 C   0  0  0  0  0  0  0  0  0  0  0  0
   45.0510   29.7782   46.6706 H   0  0  0  0  0  0  0  0  0  0  0  0
   43.5844   31.1618   45.7163 N   0  0  0  0  0  0  0  0  0  0  0  0
   42.3747   31.5420   46.1489 C   0  0  0  0  0  0  0  0  0  0  0  0
   41.4489   32.3935   45.5818 C   0  0  0  0  0  0  0  0  0  0  0  0
   39.4425   33.2964   45.8631 H   0  0  0  0  0  0  0  0  0  0  0  0
   43.2807   29.5772   48.5177 H   0  0  0  0  0  0  0  0  0  0  0  0
   41.5931   32.9033   44.6403 H   0  0  0  0  0  0  0  0  0  0  0  0
  1  9  1  0
  2 10  1  0
  2  1  2  0
  3  2  1  0
  4  3  2  0
  4  5  1  0
  5  6  2  0
  6  1  1  0
  8  7  2  0
  9  7  1  0
 10 11  1  0
 11 12  2  0
 13 14  2  0
 13 12  1  0
 15 13  1  0
 16 15  1  0
 16 10  1  0
 17 16  2  0
  3 18  1  0
  5 19  1  0
  7 20  1  0
  9 21  1  0
 11 22  1  0
 12 23  1  0
 24 25  2  0
 25 26  1  0
 26 27  1  0
 26 28  2  0
 28 29  1  0
 29 30  1  0
 30 31  1  0
 30 32  2  0
 32 33  1  0
 33 34  2  0
 34 24  1  0
 33 28  1  0
 24 35  1  0
 29 36  1  0
 34 37  1  0
 15 25  1  0
M  ISO  7  18  14  19  14  20   6  22  14  23  14  27  15  31  14
M  END
>  <DihAtoms>  (1) 
12,14,24,23

>  <DihDeg>  (1) 
51.82215458505858

$$$$
