REMARK  Name = 
REMARK  4 active torsions:
REMARK  status: ('A' for Active; 'I' for Inactive)
REMARK    1  A    between atoms: N_1  and  C_6
REMARK    2  A    between atoms: C_3  and  C_13
REMARK    3  A    between atoms: C_10  and  S_12
REMARK    4  A    between atoms: S_12  and  C_27
REMARK                            x       y       z     vdW  Elec       q    Type
REMARK                         _______ _______ _______ _____ _____    ______ ____
ROOT
ATOM      1  C   UNL     1      35.288  29.545  47.926  0.00  0.00    +0.000 A 
ATOM      2  C   UNL     1      35.225  30.007  46.605  0.00  0.00    +0.000 A 
ATOM      3  C   UNL     1      34.089  29.672  45.881  0.00  0.00    +0.000 A 
ATOM      4  N   UNL     1      33.132  28.924  46.509  0.00  0.00    +0.000 NA
ATOM      5  C   UNL     1      33.218  28.500  47.760  0.00  0.00    +0.000 A 
ATOM      6  N   UNL     1      34.320  28.820  48.477  0.00  0.00    +0.000 NA
ATOM      7  H   UNL     1      35.975  30.590  46.120  0.00  0.00    +0.000 HD
ATOM      8  H   UNL     1      33.914  29.959  44.869  0.00  0.00    +0.000 HD
ENDROOT
BRANCH   1   9
ATOM      9  N   UNL     1      36.461  29.888  48.684  0.00  0.00    +0.000 N 
ATOM     10  C   UNL     1      37.596  30.643  48.227  0.00  0.00    +0.000 C 
ATOM     11  C   UNL     1      38.100  31.286  49.519  0.00  0.00    +0.000 C 
ATOM     12  C   UNL     1      37.108  30.903  50.598  0.00  0.00    +0.000 C 
ATOM     13  C   UNL     1      36.723  29.534  50.058  0.00  0.00    +0.000 C 
ATOM     14  H   UNL     1      38.355  29.942  47.852  0.00  0.00    +0.000 HD
ATOM     15  H   UNL     1      37.327  31.409  47.479  0.00  0.00    +0.000 HD
ATOM     16  H   UNL     1      39.065  30.824  49.812  0.00  0.00    +0.000 HD
ATOM     17  H   UNL     1      37.598  30.746  51.561  0.00  0.00    +0.000 HD
ATOM     18  H   UNL     1      36.228  31.576  50.644  0.00  0.00    +0.000 HD
ATOM     19  H   UNL     1      35.785  29.247  50.574  0.00  0.00    +0.000 HD
ATOM     20  H   UNL     1      37.548  28.843  50.216  0.00  0.00    +0.000 HD
BRANCH  11  21
ATOM     21  C   UNL     1      38.265  32.775  49.408  0.00  0.00    +0.000 C 
ATOM     22  F   UNL     1      37.105  33.342  49.890  0.00  0.00    +0.000 F 
ATOM     23  F   UNL     1      38.309  33.085  48.056  0.00  0.00    +0.000 F 
ATOM     24  F   UNL     1      39.379  33.258  50.030  0.00  0.00    +0.000 F 
ENDBRANCH  11  21
ENDBRANCH   1   9
BRANCH   5  25
ATOM     25  S   UNL     1      31.931  27.530  48.513  0.00  0.00    +0.000 S 
BRANCH  25  27
ATOM     26  C   UNL     1      30.503  26.292  46.352  0.00  0.00    +0.000 A 
ATOM     27  C   UNL     1      30.638  27.302  47.279  0.00  0.00    +0.000 A 
ATOM     28  C   UNL     1      29.697  28.319  47.340  0.00  0.00    +0.000 A 
ATOM     29  H   UNL     1      29.693  29.173  48.027  0.00  0.00    +0.000 HD
ATOM     30  C   UNL     1      28.601  28.346  46.472  0.00  0.00    +0.000 A 
ATOM     31  N   UNL     1      27.545  29.182  46.292  0.00  0.00    +0.000 N 
ATOM     32  C   UNL     1      26.784  28.709  45.291  0.00  0.00    +0.000 A 
ATOM     33  H   UNL     1      25.869  29.204  44.950  0.00  0.00    +0.000 HD
ATOM     34  N   UNL     1      27.365  27.567  44.839  0.00  0.00    +0.000 NA
ATOM     35  C   UNL     1      28.485  27.327  45.552  0.00  0.00    +0.000 A 
ATOM     36  C   UNL     1      29.421  26.331  45.507  0.00  0.00    +0.000 A 
ATOM     37  H   UNL     1      27.374  30.055  46.861  0.00  0.00    +0.000 HD
ENDBRANCH  25  27
ENDBRANCH   5  25
TORSDOF 4
