
 OpenBabel03272506393D

 40 43  0  0  1  0  0  0  0  0999 V2000
   34.7580   28.2630   49.7500 O   0  0  0  0  0  0  0  0  0  0  0  0
   34.5130   28.8620   48.6870 C   0  0  0  0  0  0  0  0  0  0  0  0
   35.2430   30.0540   48.3000 C   0  0  2  0  0  0  0  0  0  0  0  0
   34.7100   30.2650   46.8480 C   0  0  0  0  0  0  0  0  0  0  0  0
   33.3560   29.6330   46.8840 C   0  0  0  0  0  0  0  0  0  0  0  0
   33.5120   28.4680   47.7410 N   0  0  0  0  0  0  0  0  0  0  0  0
   35.0130   30.9950   48.7950 H   0  0  0  0  0  0  0  0  0  0  0  0
   35.3770   29.6960   46.1830 H   0  0  0  0  0  0  0  0  0  0  0  0
   34.6820   31.3470   46.6130 H   0  0  0  0  0  0  0  0  0  0  0  0
   32.5880   30.2590   47.3440 H   0  0  0  0  0  0  0  0  0  0  0  0
   33.0230   29.2760   45.8870 H   0  0  0  0  0  0  0  0  0  0  0  0
   32.7950   27.2090   47.6320 C   0  0  0  0  0  0  0  0  0  0  0  0
   31.7980   27.3910   47.1970 H   0  0  0  0  0  0  0  0  0  0  0  0
   32.6270   26.8430   48.6670 H   0  0  0  0  0  0  0  0  0  0  0  0
   33.8100   25.0090   47.4330 C   0  0  0  0  0  3  0  0  0  0  0  0
   33.5230   26.2210   46.8030 C   0  0  0  0  0  0  0  0  0  0  0  0
   33.9020   26.4560   45.4980 C   0  0  0  0  0  0  0  0  0  0  0  0
   33.6690   27.3940   45.0380 H   0  0  0  0  0  0  0  0  0  0  0  0
   34.5780   25.4640   44.8130 C   0  0  0  0  0  0  0  0  0  0  0  0
   35.0760   25.3790   43.5610 N   0  0  0  0  0  0  0  0  0  0  0  0
   35.6450   24.1600   43.4340 C   0  0  0  0  0  0  0  0  0  0  0  0
   36.1470   23.7190   42.5820 H   0  0  0  0  0  0  0  0  0  0  0  0
   35.5090   23.4780   44.5980 N   0  0  0  0  0  0  0  0  0  0  0  0
   34.8510   24.2630   45.4710 C   0  0  0  0  0  0  0  0  0  0  0  0
   34.4800   24.0110   46.7730 C   0  0  0  0  0  3  0  0  0  0  0  0
   35.0310   26.1160   42.8230 H   0  0  0  0  0  0  0  0  0  0  0  0
   36.6550   29.8490   48.1650 O   0  0  0  0  0  0  0  0  0  0  0  0
   37.4720   30.9760   48.2350 C   0  0  0  0  0  0  0  0  0  0  0  0
   37.6210   31.5510   49.4830 C   0  0  0  0  0  0  0  0  0  0  0  0
   38.4290   32.6780   49.5890 C   0  0  0  0  0  0  0  0  0  0  0  0
   39.0320   33.1610   48.4770 N   0  0  0  0  0  0  0  0  0  0  0  0
   38.8760   32.5870   47.2640 C   0  0  0  0  0  0  0  0  0  0  0  0
   38.1040   31.5140   47.1690 N   0  0  0  0  0  0  0  0  0  0  0  0
   40.4000   32.1860   45.4960 C   0  0  0  0  0  0  0  0  0  0  0  0
   40.6500   30.9960   45.8440 O   0  0  0  0  0  0  0  0  0  0  0  0
   39.5230   33.1220   46.1140 N   0  0  0  0  0  0  0  0  0  0  0  0
   37.1240   31.1370   50.3460 H   0  0  0  0  0  0  0  0  0  0  0  0
   38.5420   33.1160   50.5520 H   0  0  0  0  0  0  0  0  0  0  0  0
   40.9660   32.4520   44.6040 H   0  0  0  0  0  0  0  0  0  0  0  0
   39.3860   34.0850   45.7470 H   0  0  0  0  0  0  0  0  0  0  0  0
  2  1  2  0  0  0  0
  3  2  1  0  0  0  0
  3  7  1  1  0  0  0
  4  5  1  0  0  0  0
  4  3  1  0  0  0  0
  5 10  1  0  0  0  0
  5  6  1  0  0  0  0
  6  2  1  0  0  0  0
  8  4  1  0  0  0  0
  9  4  1  0  0  0  0
 11  5  1  0  0  0  0
 12  6  1  0  0  0  0
 12 14  1  0  0  0  0
 13 12  1  0  0  0  0
 16 15  1  0  0  0  0
 16 12  1  0  0  0  0
 17 16  2  0  0  0  0
 18 17  1  0  0  0  0
 19 24  2  0  0  0  0
 19 17  1  0  0  0  0
 20 19  1  0  0  0  0
 21 20  1  0  0  0  0
 21 23  2  0  0  0  0
 22 21  1  0  0  0  0
 23 24  1  0  0  0  0
 24 25  1  0  0  0  0
 25 15  2  0  0  0  0
 26 20  1  0  0  0  0
 27 28  1  0  0  0  0
 27  3  1  0  0  0  0
 28 29  1  0  0  0  0
 29 30  2  0  0  0  0
 29 37  1  0  0  0  0
 30 38  1  0  0  0  0
 31 30  1  0  0  0  0
 32 31  2  0  0  0  0
 33 32  1  0  0  0  0
 33 28  2  0  0  0  0
 34 35  2  0  0  0  0
 34 36  1  0  0  0  0
 36 32  1  0  0  0  0
 39 34  1  0  0  0  0
 40 36  1  0  0  0  0
M  END
>  <minimizedAffinity>
-5.76468229

>  <minimizedRMSD>
1.08787763

$$$$
