
 OpenBabel03272502593D

 37 40  0  0  1  0  0  0  0  0999 V2000
   35.8710   29.6760   48.8690 N   0  0  0  0  0  0  0  0  0  0  0  0
   36.6770   28.8520   49.7450 C   0  0  0  0  0  0  0  0  0  0  0  0
   37.1660   29.4470   50.9840 C   0  0  0  0  0  0  0  0  0  0  0  0
   37.3320   30.9120   51.0520 C   0  0  0  0  0  0  0  0  0  0  0  0
   36.5160   31.6710   50.0510 C   0  0  0  0  0  0  0  0  0  0  0  0
   36.5500   30.9540   48.6950 C   0  0  1  0  0  0  0  0  0  0  0  0
   36.0760   27.9350   49.9440 H   0  0  0  0  0  0  0  0  0  0  0  0
   37.5390   28.5080   49.1060 H   0  0  0  0  0  0  0  0  0  0  0  0
   36.4840   29.1300   51.8200 H   0  0  0  0  0  0  0  0  0  0  0  0
   38.1550   28.9740   51.2460 H   0  0  0  0  0  0  0  0  0  0  0  0
   37.0400   31.3020   52.0630 H   0  0  0  0  0  0  0  0  0  0  0  0
   38.4010   31.2030   50.9490 H   0  0  0  0  0  0  0  0  0  0  0  0
   36.8430   32.7140   49.9750 H   0  0  0  0  0  0  0  0  0  0  0  0
   35.4520   31.6410   50.3680 H   0  0  0  0  0  0  0  0  0  0  0  0
   36.0620   31.5890   47.9510 H   0  0  0  0  0  0  0  0  0  0  0  0
   34.6340   29.2900   48.2860 C   0  0  0  0  0  0  0  0  0  0  0  0
   34.1140   29.8270   47.1120 C   0  0  0  0  0  0  0  0  0  0  0  0
   32.8960   29.3720   46.6390 C   0  0  0  0  0  0  0  0  0  0  0  0
   32.2630   28.4080   47.3630 N   0  0  0  0  0  0  0  0  0  0  0  0
   32.7900   27.9100   48.4900 C   0  0  0  0  0  0  0  0  0  0  0  0
   33.9700   28.3550   48.9440 N   0  0  0  0  0  0  0  0  0  0  0  0
   34.6880   30.5890   46.6040 H   0  0  0  0  0  0  0  0  0  0  0  0
   32.5150   29.8080   45.7200 H   0  0  0  0  0  0  0  0  0  0  0  0
   32.2270   27.1310   49.0300 H   0  0  0  0  0  0  0  0  0  0  0  0
   37.9050   30.7720   48.4270 O   0  0  0  0  0  0  0  0  0  0  0  0
   39.1000   32.3610   47.3110 C   0  0  0  0  0  3  0  0  0  0  0  0
   38.5000   31.0980   47.2460 C   0  0  0  0  0  0  0  0  0  0  0  0
   38.6080   30.4270   46.0490 C   0  0  0  0  0  0  0  0  0  0  0  0
   38.1300   29.4660   46.0580 H   0  0  0  0  0  0  0  0  0  0  0  0
   39.2610   30.9460   44.9730 C   0  0  0  0  0  0  0  0  0  0  0  0
   39.4670   30.4490   43.7400 N   0  0  0  0  0  0  0  0  0  0  0  0
   40.1730   31.3560   43.0400 C   0  0  0  0  0  0  0  0  0  0  0  0
   40.4600   31.1720   42.0110 H   0  0  0  0  0  0  0  0  0  0  0  0
   40.4100   32.4210   43.8270 N   0  0  0  0  0  0  0  0  0  0  0  0
   39.8500   32.1830   45.0320 C   0  0  0  0  0  0  0  0  0  0  0  0
   39.7700   32.9080   46.2230 C   0  0  0  0  0  3  0  0  0  0  0  0
   39.1320   29.5190   43.4010 H   0  0  0  0  0  0  0  0  0  0  0  0
  1  2  1  0  0  0  0
  2  7  1  0  0  0  0
  2  3  1  0  0  0  0
  3  4  1  0  0  0  0
  3 10  1  0  0  0  0
  3  9  1  0  0  0  0
  4 11  1  0  0  0  0
  5 14  1  0  0  0  0
  5  4  1  0  0  0  0
  6 15  1  6  0  0  0
  6  1  1  0  0  0  0
  6  5  1  0  0  0  0
  8  2  1  0  0  0  0
 12  4  1  0  0  0  0
 13  5  1  0  0  0  0
 16  1  1  0  0  0  0
 16 21  1  0  0  0  0
 17 16  2  0  0  0  0
 18 17  1  0  0  0  0
 18 19  2  0  0  0  0
 19 20  1  0  0  0  0
 20 21  2  0  0  0  0
 20 24  1  0  0  0  0
 22 17  1  0  0  0  0
 23 18  1  0  0  0  0
 25  6  1  0  0  0  0
 27 26  1  0  0  0  0
 27 25  1  0  0  0  0
 28 29  1  0  0  0  0
 28 27  2  0  0  0  0
 30 35  2  0  0  0  0
 30 28  1  0  0  0  0
 31 30  1  0  0  0  0
 32 31  1  0  0  0  0
 32 34  2  0  0  0  0
 33 32  1  0  0  0  0
 34 35  1  0  0  0  0
 35 36  1  0  0  0  0
 36 26  2  0  0  0  0
 37 31  1  0  0  0  0
M  END
>  <minimizedAffinity>
-6.30815315

>  <minimizedRMSD>
0.85224539

$$$$
