
 OpenBabel03272504213D

 42 45  0  0  1  0  0  0  0  0999 V2000
   38.8610   32.3690   47.8720 C   0  0  2  0  0  0  0  0  0  0  0  0
   38.1820   31.3800   48.8030 C   0  0  1  0  0  0  0  0  0  0  0  0
   38.7070   31.9420   50.1360 C   0  0  0  0  0  0  0  0  0  0  0  0
   38.3930   33.2860   49.9890 O   0  0  0  0  0  0  0  0  0  0  0  0
   38.6890   33.6390   48.6940 C   0  0  0  0  0  0  0  0  0  0  0  0
   39.9270   32.0730   47.8030 H   0  0  0  0  0  0  0  0  0  0  0  0
   38.4890   30.3450   48.6550 H   0  0  0  0  0  0  0  0  0  0  0  0
   39.8060   31.8280   50.1140 H   0  0  0  0  0  0  0  0  0  0  0  0
   38.2160   31.4880   50.9960 H   0  0  0  0  0  0  0  0  0  0  0  0
   39.5900   34.2700   48.6810 H   0  0  0  0  0  0  0  0  0  0  0  0
   37.8360   34.2080   48.2310 H   0  0  0  0  0  0  0  0  0  0  0  0
   36.8270   31.6020   48.7050 O   0  0  0  0  0  0  0  0  0  0  0  0
   35.8590   29.8640   47.0260 O   0  0  0  0  0  0  0  0  0  0  0  0
   35.9550   30.1750   48.4890 P   0  0  1  0  0  0  0  0  0  0  0  0
   36.7620   28.8700   49.2580 O   0  0  0  0  0  0  0  0  0  0  0  0
   37.5160   28.5640   48.7030 H   0  0  0  0  0  0  0  0  0  0  0  0
   34.4030   30.3420   49.1690 O   0  0  0  0  0  0  0  0  0  0  0  0
   34.1390   29.1820   49.8680 C   0  0  0  0  0  0  0  0  0  0  0  0
   33.5840   29.5030   50.7910 H   0  0  0  0  0  0  0  0  0  0  0  0
   35.0700   28.7130   50.2300 H   0  0  0  0  0  0  0  0  0  0  0  0
   33.2740   28.2370   49.1290 C   0  0  0  0  0  0  0  0  0  0  0  0
   33.9030   27.3450   48.2930 C   0  0  0  0  0  0  0  0  0  0  0  0
   33.1420   26.4270   47.5670 C   0  0  0  0  0  0  0  0  0  0  0  0
   31.7900   26.4740   47.7360 N   0  0  0  0  0  0  0  0  0  0  0  0
   31.1940   27.3590   48.5640 C   0  0  0  0  0  0  0  0  0  0  0  0
   31.9350   28.2450   49.2640 N   0  0  0  0  0  0  0  0  0  0  0  0
   34.9510   27.2330   48.0950 H   0  0  0  0  0  0  0  0  0  0  0  0
   33.5450   25.6870   46.8860 H   0  0  0  0  0  0  0  0  0  0  0  0
   30.1120   27.3730   48.6780 H   0  0  0  0  0  0  0  0  0  0  0  0
   38.1740   32.3750   46.6860 O   0  0  0  0  0  0  0  0  0  0  0  0
   38.8580   30.5850   45.3860 C   0  0  0  0  0  3  0  0  0  0  0  0
   38.5710   31.9440   45.4430 C   0  0  0  0  0  0  0  0  0  0  0  0
   38.7140   32.6860   44.2780 C   0  0  0  0  0  0  0  0  0  0  0  0
   38.4720   33.7350   44.4080 H   0  0  0  0  0  0  0  0  0  0  0  0
   39.1290   32.0770   43.1080 C   0  0  0  0  0  0  0  0  0  0  0  0
   39.3230   32.6280   41.8930 N   0  0  0  0  0  0  0  0  0  0  0  0
   39.7220   31.6090   41.1110 C   0  0  0  0  0  0  0  0  0  0  0  0
   39.9550   31.7740   40.0510 H   0  0  0  0  0  0  0  0  0  0  0  0
   39.7730   30.4680   41.8230 N   0  0  0  0  0  0  0  0  0  0  0  0
   39.4000   30.7250   43.1050 C   0  0  0  0  0  0  0  0  0  0  0  0
   39.2730   29.9500   44.2330 C   0  0  0  0  0  3  0  0  0  0  0  0
   39.1920   33.6230   41.6190 H   0  0  0  0  0  0  0  0  0  0  0  0
  1  6  1  6  0  0  0
  1  5  1  0  0  0  0
  1  2  1  0  0  0  0
  2  7  1  6  0  0  0
  2  3  1  0  0  0  0
  3  9  1  0  0  0  0
  4  3  1  0  0  0  0
  5  4  1  0  0  0  0
  8  3  1  0  0  0  0
 10  5  1  0  0  0  0
 11  5  1  0  0  0  0
 12  2  1  0  0  0  0
 14 13  2  6  0  0  0
 14 12  1  0  0  0  0
 14 17  1  0  0  0  0
 14 15  1  0  0  0  0
 16 15  1  0  0  0  0
 17 18  1  0  0  0  0
 18 20  1  0  0  0  0
 18 19  1  0  0  0  0
 21 26  1  0  0  0  0
 21 18  1  0  0  0  0
 22 21  2  0  0  0  0
 23 24  2  0  0  0  0
 23 22  1  0  0  0  0
 24 25  1  0  0  0  0
 25 29  1  0  0  0  0
 25 26  2  0  0  0  0
 27 22  1  0  0  0  0
 28 23  1  0  0  0  0
 30  1  1  0  0  0  0
 31 32  1  0  0  0  0
 32 30  1  0  0  0  0
 33 34  1  0  0  0  0
 33 32  2  0  0  0  0
 35 33  1  0  0  0  0
 36 35  1  0  0  0  0
 37 39  2  0  0  0  0
 37 36  1  0  0  0  0
 38 37  1  0  0  0  0
 39 40  1  0  0  0  0
 40 35  2  0  0  0  0
 40 41  1  0  0  0  0
 41 31  2  0  0  0  0
 42 36  1  0  0  0  0
M  END
>  <minimizedAffinity>
-5.15478611

>  <minimizedRMSD>
0.361258745

$$$$
