REMARK  Name = 
REMARK  3 active torsions:
REMARK  status: ('A' for Active; 'I' for Inactive)
REMARK    1  A    between atoms: C_3  and  C_10
REMARK    2  A    between atoms: C_7  and  N_16
REMARK    3  A    between atoms: C_14  and  C_25
REMARK                            x       y       z     vdW  Elec       q    Type
REMARK                         _______ _______ _______ _____ _____    ______ ____
ROOT
ATOM      1  F   UNL     1      38.454  30.443  47.308  0.00  0.00    +0.000 F 
ATOM      2  C   UNL     1      38.756  31.682  47.793  0.00  0.00    +0.000 A 
ATOM      3  C   UNL     1      38.236  32.076  48.995  0.00  0.00    +0.000 A 
ATOM      4  C   UNL     1      38.581  33.331  49.420  0.00  0.00    +0.000 A 
ATOM      5  C   UNL     1      39.399  34.173  48.709  0.00  0.00    +0.000 A 
ATOM      6  C   UNL     1      39.906  33.740  47.497  0.00  0.00    +0.000 A 
ATOM      7  C   UNL     1      39.581  32.481  47.035  0.00  0.00    +0.000 A 
ATOM      8  H   UNL     1      38.164  33.651  50.387  0.00  0.00    +0.000 HD
ATOM      9  H   UNL     1      39.612  35.150  49.134  0.00  0.00    +0.000 HD
ATOM     10  H   UNL     1      40.548  34.403  46.940  0.00  0.00    +0.000 HD
ENDROOT
BRANCH   3  13
ATOM     11  C   UNL     1      36.921  29.602  51.535  0.00  0.00    +0.000 A 
ATOM     12  C   UNL     1      37.781  30.491  50.858  0.00  0.00    +0.000 A 
ATOM     13  C   UNL     1      37.371  31.149  49.719  0.00  0.00    +0.000 A 
ATOM     14  N   UNL     1      36.102  30.899  49.284  0.00  0.00    +0.000 NA
ATOM     15  C   UNL     1      35.283  30.050  49.930  0.00  0.00    +0.000 A 
ATOM     16  N   UNL     1      35.687  29.418  51.031  0.00  0.00    +0.000 NA
ATOM     17  H   UNL     1      37.304  29.111  52.431  0.00  0.00    +0.000 HD
ATOM     18  H   UNL     1      38.789  30.713  51.173  0.00  0.00    +0.000 HD
ATOM     19  H   UNL     1      34.295  29.916  49.508  0.00  0.00    +0.000 HD
ENDBRANCH   3  13
BRANCH   7  22
ATOM     20  C   UNL     1      39.186  32.166  44.691  0.00  0.00    +0.000 C 
ATOM     21  O   UNL     1      38.077  32.703  44.983  0.00  0.00    +0.000 OA
ATOM     22  N   UNL     1      40.088  32.000  45.784  0.00  0.00    +0.000 N 
ATOM     23  H   UNL     1      40.998  31.564  45.595  0.00  0.00    +0.000 HD
BRANCH  20  25
ATOM     24  C   UNL     1      40.534  32.374  42.719  0.00  0.00    +0.000 A 
ATOM     25  C   UNL     1      39.448  31.777  43.326  0.00  0.00    +0.000 A 
ATOM     26  C   UNL     1      38.643  30.858  42.685  0.00  0.00    +0.000 A 
ATOM     27  H   UNL     1      37.791  30.390  43.160  0.00  0.00    +0.000 HD
ATOM     28  C   UNL     1      38.927  30.512  41.376  0.00  0.00    +0.000 A 
ATOM     29  N   UNL     1      38.337  29.667  40.513  0.00  0.00    +0.000 N 
ATOM     30  C   UNL     1      39.032  29.721  39.374  0.00  0.00    +0.000 A 
ATOM     31  H   UNL     1      38.757  29.125  38.510  0.00  0.00    +0.000 HD
ATOM     32  N   UNL     1      40.047  30.586  39.509  0.00  0.00    +0.000 NA
ATOM     33  C   UNL     1      40.013  31.108  40.767  0.00  0.00    +0.000 A 
ATOM     34  C   UNL     1      40.830  32.031  41.396  0.00  0.00    +0.000 A 
ATOM     35  H   UNL     1      37.492  29.098  40.746  0.00  0.00    +0.000 HD
ENDBRANCH  20  25
ENDBRANCH   7  22
TORSDOF 3
