
 OpenBabel03272504213D

 42 45  0  0  1  0  0  0  0  0999 V2000
   38.8960   32.3900   47.8750 C   0  0  2  0  0  0  0  0  0  0  0  0
   38.1830   31.3870   48.7660 C   0  0  1  0  0  0  0  0  0  0  0  0
   38.6380   31.9440   50.1260 C   0  0  0  0  0  0  0  0  0  0  0  0
   38.3180   33.2860   49.9740 O   0  0  0  0  0  0  0  0  0  0  0  0
   38.6720   33.6520   48.6980 C   0  0  0  0  0  0  0  0  0  0  0  0
   39.9670   32.1050   47.8560 H   0  0  0  0  0  0  0  0  0  0  0  0
   38.5070   30.3570   48.6250 H   0  0  0  0  0  0  0  0  0  0  0  0
   39.7370   31.8410   50.1570 H   0  0  0  0  0  0  0  0  0  0  0  0
   38.1110   31.4800   50.9590 H   0  0  0  0  0  0  0  0  0  0  0  0
   39.5670   34.2920   48.7330 H   0  0  0  0  0  0  0  0  0  0  0  0
   37.8370   34.2170   48.1980 H   0  0  0  0  0  0  0  0  0  0  0  0
   36.8330   31.5980   48.6050 O   0  0  0  0  0  0  0  0  0  0  0  0
   35.9510   29.8160   46.9240 O   0  0  0  0  0  0  0  0  0  0  0  0
   35.9800   30.1600   48.3830 P   0  0  1  0  0  0  0  0  0  0  0  0
   36.7600   28.8780   49.2160 O   0  0  0  0  0  0  0  0  0  0  0  0
   37.5390   28.5650   48.7020 H   0  0  0  0  0  0  0  0  0  0  0  0
   34.3980   30.3310   48.9890 O   0  0  0  0  0  0  0  0  0  0  0  0
   34.1320   29.2110   49.7510 C   0  0  0  0  0  0  0  0  0  0  0  0
   33.5720   29.5830   50.6520 H   0  0  0  0  0  0  0  0  0  0  0  0
   35.0610   28.7640   50.1420 H   0  0  0  0  0  0  0  0  0  0  0  0
   33.2710   28.2260   49.0620 C   0  0  0  0  0  0  0  0  0  0  0  0
   33.8980   27.3290   48.2300 C   0  0  0  0  0  0  0  0  0  0  0  0
   33.1410   26.3740   47.5500 C   0  0  0  0  0  0  0  0  0  0  0  0
   31.7940   26.3900   47.7580 N   0  0  0  0  0  0  0  0  0  0  0  0
   31.1990   27.2810   48.5800 C   0  0  0  0  0  0  0  0  0  0  0  0
   31.9360   28.2040   49.2350 N   0  0  0  0  0  0  0  0  0  0  0  0
   34.9430   27.2390   48.0040 H   0  0  0  0  0  0  0  0  0  0  0  0
   33.5430   25.6270   46.8760 H   0  0  0  0  0  0  0  0  0  0  0  0
   30.1210   27.2710   48.7260 H   0  0  0  0  0  0  0  0  0  0  0  0
   38.2670   32.3980   46.6580 O   0  0  0  0  0  0  0  0  0  0  0  0
   38.0700   32.5770   44.3580 C   0  0  0  0  0  0  0  0  0  0  0  0
   38.7310   31.9890   45.4310 C   0  0  0  0  0  0  0  0  0  0  0  0
   39.7480   31.0870   45.1500 C   0  0  0  0  0  0  0  0  0  0  0  0
   40.2110   30.6740   46.0400 H   0  0  0  0  0  0  0  0  0  0  0  0
   40.0810   30.7930   43.8410 C   0  0  0  0  0  0  0  0  0  0  0  0
   41.0280   29.9530   43.3780 N   0  0  0  0  0  0  0  0  0  0  0  0
   40.9400   30.0350   42.0370 C   0  0  0  0  0  0  0  0  0  0  0  0
   41.6060   29.4450   41.3960 H   0  0  0  0  0  0  0  0  0  0  0  0
   39.9670   30.8980   41.6890 N   0  0  0  0  0  0  0  0  0  0  0  0
   39.3940   31.4040   42.8120 C   0  0  0  0  0  0  0  0  0  0  0  0
   38.3800   32.3040   43.0410 C   0  0  0  0  0  0  0  0  0  0  0  0
   41.6860   29.3690   43.9340 H   0  0  0  0  0  0  0  0  0  0  0  0
  1  6  1  6  0  0  0
  1  5  1  0  0  0  0
  1  2  1  0  0  0  0
  2  7  1  6  0  0  0
  2  3  1  0  0  0  0
  3  8  1  0  0  0  0
  3  9  1  0  0  0  0
  4  3  1  0  0  0  0
  5 10  1  0  0  0  0
  5  4  1  0  0  0  0
 11  5  1  0  0  0  0
 12  2  1  0  0  0  0
 14 13  2  6  0  0  0
 14 12  1  0  0  0  0
 14 17  1  0  0  0  0
 14 15  1  0  0  0  0
 16 15  1  0  0  0  0
 17 18  1  0  0  0  0
 18 20  1  0  0  0  0
 18 19  1  0  0  0  0
 21 26  1  0  0  0  0
 21 18  1  0  0  0  0
 22 21  2  0  0  0  0
 23 24  2  0  0  0  0
 23 22  1  0  0  0  0
 24 25  1  0  0  0  0
 25 29  1  0  0  0  0
 25 26  2  0  0  0  0
 27 22  1  0  0  0  0
 28 23  1  0  0  0  0
 30  1  1  0  0  0  0
 31 32  1  0  0  0  0
 32 30  1  0  0  0  0
 33 32  2  0  0  0  0
 33 34  1  0  0  0  0
 35 33  1  0  0  0  0
 36 35  1  0  0  0  0
 36 42  1  0  0  0  0
 37 36  1  0  0  0  0
 38 37  1  0  0  0  0
 39 37  2  0  0  0  0
 39 40  1  0  0  0  0
 40 41  1  0  0  0  0
 40 35  2  0  0  0  0
 41 31  2  0  0  0  0
M  END
>  <minimizedAffinity>
-5.37254953

>  <minimizedRMSD>
0.43212226

$$$$
