
 OpenBabel03272507383D

 26 28  0  0  0  0  0  0  0  0999 V2000
   39.8070   23.5840   35.5100 C   0  0  0  0  0  0  0  0  0  0  0  0
   39.6030   22.9020   36.7120 C   0  0  0  0  0  0  0  0  0  0  0  0
   40.6790   22.4660   37.4540 C   0  0  0  0  0  0  0  0  0  0  0  0
   41.9350   22.7300   36.9620 N   0  0  0  0  0  0  0  0  0  0  0  0
   42.1210   23.3920   35.7940 C   0  0  0  0  0  0  0  0  0  0  0  0
   41.0630   23.7960   35.1070 N   0  0  0  0  0  0  0  0  0  0  0  0
   40.5970   21.9330   38.3940 H   0  0  0  0  0  0  0  0  0  0  0  0
   43.1200   23.5880   35.4280 H   0  0  0  0  0  0  0  0  0  0  0  0
   37.7610   23.4800   38.2030 C   0  0  0  0  0  0  0  0  0  0  0  0
   38.0960   24.5840   38.7530 O   0  0  0  0  0  0  0  0  0  0  0  0
   38.3490   22.6020   37.2710 N   0  0  0  0  0  0  0  0  0  0  0  0
   36.7740   23.2730   38.6340 H   0  0  0  0  0  0  0  0  0  0  0  0
   37.8090   21.7600   37.0460 H   0  0  0  0  0  0  0  0  0  0  0  0
   38.6310   23.9410   34.9070 O   0  0  0  0  0  0  0  0  0  0  0  0
   38.1360   26.2660   35.5660 C   0  0  0  0  0  3  0  0  0  0  0  0
   38.1190   25.1940   34.7320 C   0  0  0  0  0  0  0  0  0  0  0  0
   37.4950   25.3390   33.4870 C   0  0  0  0  0  0  0  0  0  0  0  0
   37.4060   24.5720   32.7260 H   0  0  0  0  0  0  0  0  0  0  0  0
   36.9080   26.5430   33.1160 C   0  0  0  0  0  0  0  0  0  0  0  0
   36.2500   27.0070   32.0360 N   0  0  0  0  0  0  0  0  0  0  0  0
   35.8940   28.3040   32.2320 C   0  0  0  0  0  0  0  0  0  0  0  0
   35.3570   28.9630   31.5590 H   0  0  0  0  0  0  0  0  0  0  0  0
   36.3450   28.6380   33.4560 N   0  0  0  0  0  0  0  0  0  0  0  0
   36.9650   27.5930   34.0210 C   0  0  0  0  0  0  0  0  0  0  0  0
   37.5740   27.4730   35.2470 C   0  0  0  0  0  3  0  0  0  0  0  0
   36.0430   26.4660   31.1840 H   0  0  0  0  0  0  0  0  0  0  0  0
  1  2  1  0  0  0  0
  2 11  1  0  0  0  0
  2  3  2  0  0  0  0
  3  7  1  0  0  0  0
  4  3  1  0  0  0  0
  5  4  2  0  0  0  0
  6  1  2  0  0  0  0
  6  5  1  0  0  0  0
  8  5  1  0  0  0  0
  9 12  1  0  0  0  0
  9 10  2  0  0  0  0
 11  9  1  0  0  0  0
 13 11  1  0  0  0  0
 14  1  1  0  0  0  0
 16 14  1  0  0  0  0
 16 15  2  0  0  0  0
 17 16  1  0  0  0  0
 18 17  1  0  0  0  0
 19 17  2  0  0  0  0
 19 24  1  0  0  0  0
 20 21  1  0  0  0  0
 20 19  1  0  0  0  0
 21 23  2  0  0  0  0
 22 21  1  0  0  0  0
 23 24  1  0  0  0  0
 24 25  2  0  0  0  0
 25 15  1  0  0  0  0
 26 20  1  0  0  0  0
M  END
>  <minimizedAffinity>
-5.14387751

$$$$

 OpenBabel03272507383D

 26 28  0  0  0  0  0  0  0  0999 V2000
   37.0370   25.1700   32.3400 C   0  0  0  0  0  0  0  0  0  0  0  0
   36.6360   26.3880   31.7860 C   0  0  0  0  0  0  0  0  0  0  0  0
   35.5670   26.4390   30.9190 C   0  0  0  0  0  0  0  0  0  0  0  0
   34.9310   25.2550   30.6300 N   0  0  0  0  0  0  0  0  0  0  0  0
   35.3290   24.0780   31.1720 C   0  0  0  0  0  0  0  0  0  0  0  0
   36.3600   24.0680   32.0030 N   0  0  0  0  0  0  0  0  0  0  0  0
   35.2010   27.3450   30.4530 H   0  0  0  0  0  0  0  0  0  0  0  0
   34.8110   23.1590   30.9310 H   0  0  0  0  0  0  0  0  0  0  0  0
   36.6230   28.5560   32.9050 C   0  0  0  0  0  0  0  0  0  0  0  0
   35.5410   28.5860   33.5840 O   0  0  0  0  0  0  0  0  0  0  0  0
   37.2410   27.6310   32.0390 N   0  0  0  0  0  0  0  0  0  0  0  0
   37.0900   29.5210   33.1310 H   0  0  0  0  0  0  0  0  0  0  0  0
   38.1300   27.9300   31.6250 H   0  0  0  0  0  0  0  0  0  0  0  0
   38.1120   25.3050   33.1760 O   0  0  0  0  0  0  0  0  0  0  0  0
   38.1370   26.3330   35.4180 C   0  0  0  0  0  3  0  0  0  0  0  0
   38.1250   25.2960   34.5410 C   0  0  0  0  0  0  0  0  0  0  0  0
   38.1250   23.9950   35.0590 C   0  0  0  0  0  0  0  0  0  0  0  0
   38.1170   23.0790   34.4790 H   0  0  0  0  0  0  0  0  0  0  0  0
   38.1380   23.7700   36.4310 C   0  0  0  0  0  0  0  0  0  0  0  0
   38.1410   22.6900   37.2340 N   0  0  0  0  0  0  0  0  0  0  0  0
   38.1550   23.0800   38.5370 C   0  0  0  0  0  0  0  0  0  0  0  0
   38.1610   22.4590   39.4260 H   0  0  0  0  0  0  0  0  0  0  0  0
   38.1590   24.4270   38.5260 N   0  0  0  0  0  0  0  0  0  0  0  0
   38.1490   24.8790   37.2650 C   0  0  0  0  0  0  0  0  0  0  0  0
   38.1490   26.1650   36.7780 C   0  0  0  0  0  3  0  0  0  0  0  0
   38.1350   21.7100   36.9190 H   0  0  0  0  0  0  0  0  0  0  0  0
  1 14  1  0  0  0  0
  2 11  1  0  0  0  0
  2  1  2  0  0  0  0
  3  2  1  0  0  0  0
  4  3  2  0  0  0  0
  4  5  1  0  0  0  0
  5  6  2  0  0  0  0
  6  1  1  0  0  0  0
  7  3  1  0  0  0  0
  8  5  1  0  0  0  0
  9 12  1  0  0  0  0
  9 10  2  0  0  0  0
 11  9  1  0  0  0  0
 13 11  1  0  0  0  0
 14 16  1  0  0  0  0
 15 25  1  0  0  0  0
 16 17  1  0  0  0  0
 16 15  2  0  0  0  0
 17 19  2  0  0  0  0
 18 17  1  0  0  0  0
 19 20  1  0  0  0  0
 19 24  1  0  0  0  0
 20 21  1  0  0  0  0
 21 22  1  0  0  0  0
 23 21  2  0  0  0  0
 24 23  1  0  0  0  0
 25 24  2  0  0  0  0
 26 20  1  0  0  0  0
M  END
>  <minimizedAffinity>
-4.7724514

$$$$

 OpenBabel03272507383D

 26 28  0  0  0  0  0  0  0  0999 V2000
   37.4310   26.6840   32.9970 C   0  0  0  0  0  0  0  0  0  0  0  0
   36.9180   26.3960   31.7310 C   0  0  0  0  0  0  0  0  0  0  0  0
   35.9500   27.2020   31.1730 C   0  0  0  0  0  0  0  0  0  0  0  0
   35.5230   28.2800   31.9120 N   0  0  0  0  0  0  0  0  0  0  0  0
   36.0270   28.5500   33.1410 C   0  0  0  0  0  0  0  0  0  0  0  0
   36.9570   27.7530   33.6450 N   0  0  0  0  0  0  0  0  0  0  0  0
   35.5070   27.0410   30.1980 H   0  0  0  0  0  0  0  0  0  0  0  0
   35.6750   29.4050   33.7030 H   0  0  0  0  0  0  0  0  0  0  0  0
   36.5610   24.1190   30.9300 C   0  0  0  0  0  0  0  0  0  0  0  0
   35.5240   23.6970   31.5450 O   0  0  0  0  0  0  0  0  0  0  0  0
   37.3100   25.3140   30.9240 N   0  0  0  0  0  0  0  0  0  0  0  0
   36.8390   23.2720   30.2920 H   0  0  0  0  0  0  0  0  0  0  0  0
   38.1300   25.3250   30.3090 H   0  0  0  0  0  0  0  0  0  0  0  0
   38.3810   25.7810   33.3930 O   0  0  0  0  0  0  0  0  0  0  0  0
   37.7730   25.3160   35.7380 C   0  0  0  0  0  3  0  0  0  0  0  0
   38.5120   25.1720   34.6070 C   0  0  0  0  0  0  0  0  0  0  0  0
   39.5850   24.2730   34.6320 C   0  0  0  0  0  0  0  0  0  0  0  0
   40.2560   24.0600   33.8070 H   0  0  0  0  0  0  0  0  0  0  0  0
   39.8870   23.5490   35.7800 C   0  0  0  0  0  0  0  0  0  0  0  0
   40.8120   22.6370   36.1330 N   0  0  0  0  0  0  0  0  0  0  0  0
   40.6220   22.2610   37.4260 C   0  0  0  0  0  0  0  0  0  0  0  0
   41.1930   21.5460   38.0090 H   0  0  0  0  0  0  0  0  0  0  0  0
   39.5590   22.9570   37.8690 N   0  0  0  0  0  0  0  0  0  0  0  0
   39.0880   23.7490   36.8960 C   0  0  0  0  0  0  0  0  0  0  0  0
   38.0290   24.6260   36.8930 C   0  0  0  0  0  3  0  0  0  0  0  0
   41.5570   22.2730   35.5220 H   0  0  0  0  0  0  0  0  0  0  0  0
  1 14  1  0  0  0  0
  1  6  1  0  0  0  0
  2  1  2  0  0  0  0
  3  2  1  0  0  0  0
  3  4  2  0  0  0  0
  4  5  1  0  0  0  0
  5  6  2  0  0  0  0
  5  8  1  0  0  0  0
  7  3  1  0  0  0  0
  9 10  2  0  0  0  0
 11  9  1  0  0  0  0
 11  2  1  0  0  0  0
 12  9  1  0  0  0  0
 13 11  1  0  0  0  0
 14 16  1  0  0  0  0
 15 25  1  0  0  0  0
 16 17  1  0  0  0  0
 16 15  2  0  0  0  0
 17 19  2  0  0  0  0
 18 17  1  0  0  0  0
 19 20  1  0  0  0  0
 19 24  1  0  0  0  0
 20 21  1  0  0  0  0
 21 23  2  0  0  0  0
 21 22  1  0  0  0  0
 24 23  1  0  0  0  0
 25 24  2  0  0  0  0
 26 20  1  0  0  0  0
M  END
>  <minimizedAffinity>
-4.76275206

$$$$

 OpenBabel03272507383D

 26 28  0  0  0  0  0  0  0  0999 V2000
   39.1460   24.4020   35.9070 C   0  0  0  0  0  0  0  0  0  0  0  0
   39.9950   23.3490   36.2530 C   0  0  0  0  0  0  0  0  0  0  0  0
   39.8780   22.7360   37.4810 C   0  0  0  0  0  0  0  0  0  0  0  0
   38.9050   23.2050   38.3310 N   0  0  0  0  0  0  0  0  0  0  0  0
   38.0860   24.2290   37.9860 C   0  0  0  0  0  0  0  0  0  0  0  0
   38.2280   24.7930   36.7960 N   0  0  0  0  0  0  0  0  0  0  0  0
   40.5000   21.9150   37.8170 H   0  0  0  0  0  0  0  0  0  0  0  0
   37.3270   24.5800   38.6720 H   0  0  0  0  0  0  0  0  0  0  0  0
   42.3540   23.1770   35.6540 C   0  0  0  0  0  0  0  0  0  0  0  0
   42.9720   23.9410   36.4690 O   0  0  0  0  0  0  0  0  0  0  0  0
   41.0070   22.8210   35.4330 N   0  0  0  0  0  0  0  0  0  0  0  0
   43.1590   22.7590   35.0380 H   0  0  0  0  0  0  0  0  0  0  0  0
   40.8360   22.1730   34.6570 H   0  0  0  0  0  0  0  0  0  0  0  0
   39.4020   24.8900   34.6540 O   0  0  0  0  0  0  0  0  0  0  0  0
   38.4330   26.8190   33.4620 C   0  0  0  0  0  3  0  0  0  0  0  0
   38.5390   25.5070   33.7960 C   0  0  0  0  0  0  0  0  0  0  0  0
   37.6540   24.6010   33.1980 C   0  0  0  0  0  0  0  0  0  0  0  0
   37.6240   23.5310   33.3710 H   0  0  0  0  0  0  0  0  0  0  0  0
   36.6940   25.0320   32.2900 C   0  0  0  0  0  0  0  0  0  0  0  0
   35.7230   24.4510   31.5590 N   0  0  0  0  0  0  0  0  0  0  0  0
   35.0710   25.3910   30.8240 C   0  0  0  0  0  0  0  0  0  0  0  0
   34.2450   25.2520   30.1350 H   0  0  0  0  0  0  0  0  0  0  0  0
   35.6570   26.5680   31.1120 N   0  0  0  0  0  0  0  0  0  0  0  0
   36.6450   26.3880   31.9990 C   0  0  0  0  0  0  0  0  0  0  0  0
   37.5050   27.2940   32.5740 C   0  0  0  0  0  3  0  0  0  0  0  0
   35.5010   23.4460   31.5520 H   0  0  0  0  0  0  0  0  0  0  0  0
  1  2  2  0  0  0  0
  1  6  1  0  0  0  0
  2  3  1  0  0  0  0
  3  7  1  0  0  0  0
  3  4  2  0  0  0  0
  5  4  1  0  0  0  0
  5  8  1  0  0  0  0
  6  5  2  0  0  0  0
  9 10  2  0  0  0  0
 11  9  1  0  0  0  0
 11  2  1  0  0  0  0
 12  9  1  0  0  0  0
 13 11  1  0  0  0  0
 14  1  1  0  0  0  0
 15 16  1  0  0  0  0
 16 14  1  0  0  0  0
 17 18  1  0  0  0  0
 17 16  2  0  0  0  0
 19 17  1  0  0  0  0
 20 19  1  0  0  0  0
 21 23  2  0  0  0  0
 21 20  1  0  0  0  0
 22 21  1  0  0  0  0
 23 24  1  0  0  0  0
 24 19  2  0  0  0  0
 24 25  1  0  0  0  0
 25 15  2  0  0  0  0
 26 20  1  0  0  0  0
M  END
>  <minimizedAffinity>
-4.74477386

$$$$

 OpenBabel03272507383D

 26 28  0  0  0  0  0  0  0  0999 V2000
   39.4960   23.1820   35.4650 C   0  0  0  0  0  0  0  0  0  0  0  0
   39.4350   22.7620   36.7960 C   0  0  0  0  0  0  0  0  0  0  0  0
   40.5920   22.5250   37.5040 C   0  0  0  0  0  0  0  0  0  0  0  0
   41.7850   22.7170   36.8490 N   0  0  0  0  0  0  0  0  0  0  0  0
   41.8340   23.1240   35.5570 C   0  0  0  0  0  0  0  0  0  0  0  0
   40.7000   23.3430   34.9070 N   0  0  0  0  0  0  0  0  0  0  0  0
   40.6200   22.1980   38.5370 H   0  0  0  0  0  0  0  0  0  0  0  0
   42.7850   23.2690   35.0620 H   0  0  0  0  0  0  0  0  0  0  0  0
   37.7460   23.5590   38.3660 C   0  0  0  0  0  0  0  0  0  0  0  0
   38.1140   24.7360   38.6990 O   0  0  0  0  0  0  0  0  0  0  0  0
   38.2520   22.5480   37.5240 N   0  0  0  0  0  0  0  0  0  0  0  0
   36.8130   23.4180   38.9250 H   0  0  0  0  0  0  0  0  0  0  0  0
   37.7080   21.6790   37.4900 H   0  0  0  0  0  0  0  0  0  0  0  0
   38.2560   23.3690   34.9190 O   0  0  0  0  0  0  0  0  0  0  0  0
   37.7910   23.0540   32.5170 C   0  0  0  0  0  3  0  0  0  0  0  0
   37.7070   22.7440   33.8370 C   0  0  0  0  0  0  0  0  0  0  0  0
   36.9560   21.6200   34.2030 C   0  0  0  0  0  0  0  0  0  0  0  0
   36.8030   21.2580   35.2130 H   0  0  0  0  0  0  0  0  0  0  0  0
   36.3140   20.8440   33.2440 C   0  0  0  0  0  0  0  0  0  0  0  0
   35.5410   19.7420   33.2500 N   0  0  0  0  0  0  0  0  0  0  0  0
   35.1850   19.4180   31.9790 C   0  0  0  0  0  0  0  0  0  0  0  0
   34.5710   18.5900   31.6430 H   0  0  0  0  0  0  0  0  0  0  0  0
   35.7540   20.3420   31.1810 N   0  0  0  0  0  0  0  0  0  0  0  0
   36.4460   21.2230   31.9160 C   0  0  0  0  0  0  0  0  0  0  0  0
   37.1790   22.3220   31.5350 C   0  0  0  0  0  3  0  0  0  0  0  0
   35.2570   19.2160   34.0890 H   0  0  0  0  0  0  0  0  0  0  0  0
  1  2  1  0  0  0  0
  2  3  2  0  0  0  0
  2 11  1  0  0  0  0
  3  7  1  0  0  0  0
  4  3  1  0  0  0  0
  5  4  2  0  0  0  0
  6  1  2  0  0  0  0
  6  5  1  0  0  0  0
  8  5  1  0  0  0  0
  9 10  2  0  0  0  0
  9 12  1  0  0  0  0
 11  9  1  0  0  0  0
 13 11  1  0  0  0  0
 14  1  1  0  0  0  0
 15 16  1  0  0  0  0
 16 17  2  0  0  0  0
 16 14  1  0  0  0  0
 17 18  1  0  0  0  0
 19 20  1  0  0  0  0
 19 17  1  0  0  0  0
 20 26  1  0  0  0  0
 21 20  1  0  0  0  0
 22 21  1  0  0  0  0
 23 24  1  0  0  0  0
 23 21  2  0  0  0  0
 24 19  2  0  0  0  0
 25 24  1  0  0  0  0
 25 15  2  0  0  0  0
M  END
>  <minimizedAffinity>
-4.74087524

$$$$

 OpenBabel03272507383D

 26 28  0  0  0  0  0  0  0  0999 V2000
   38.6820   23.5580   36.0870 C   0  0  0  0  0  0  0  0  0  0  0  0
   39.2530   22.8270   37.1300 C   0  0  0  0  0  0  0  0  0  0  0  0
   39.0580   23.2130   38.4380 C   0  0  0  0  0  0  0  0  0  0  0  0
   38.2900   24.3310   38.6590 N   0  0  0  0  0  0  0  0  0  0  0  0
   37.7400   25.0340   37.6390 C   0  0  0  0  0  0  0  0  0  0  0  0
   37.9490   24.6330   36.3940 N   0  0  0  0  0  0  0  0  0  0  0  0
   39.4700   22.6950   39.2960 H   0  0  0  0  0  0  0  0  0  0  0  0
   37.1380   25.9110   37.8380 H   0  0  0  0  0  0  0  0  0  0  0  0
   41.4480   21.7930   36.8700 C   0  0  0  0  0  0  0  0  0  0  0  0
   42.2840   22.7590   36.8590 O   0  0  0  0  0  0  0  0  0  0  0  0
   40.0470   21.6770   36.9750 N   0  0  0  0  0  0  0  0  0  0  0  0
   42.0850   20.9060   36.7700 H   0  0  0  0  0  0  0  0  0  0  0  0
   39.6720   20.7240   36.9290 H   0  0  0  0  0  0  0  0  0  0  0  0
   38.9790   23.0340   34.8580 O   0  0  0  0  0  0  0  0  0  0  0  0
   37.9830   23.2980   32.6170 C   0  0  0  0  0  3  0  0  0  0  0  0
   38.1210   22.7270   33.8410 C   0  0  0  0  0  0  0  0  0  0  0  0
   37.2810   21.6550   34.1670 C   0  0  0  0  0  0  0  0  0  0  0  0
   37.2790   21.1090   35.1030 H   0  0  0  0  0  0  0  0  0  0  0  0
   36.3330   21.1890   33.2630 C   0  0  0  0  0  0  0  0  0  0  0  0
   35.4010   20.2170   33.2540 N   0  0  0  0  0  0  0  0  0  0  0  0
   34.7410   20.2180   32.0650 C   0  0  0  0  0  0  0  0  0  0  0  0
   33.9390   19.5650   31.7400 H   0  0  0  0  0  0  0  0  0  0  0  0
   35.2820   21.2110   31.3350 N   0  0  0  0  0  0  0  0  0  0  0  0
   36.2510   21.8220   32.0320 C   0  0  0  0  0  0  0  0  0  0  0  0
   37.0660   22.8750   31.6920 C   0  0  0  0  0  3  0  0  0  0  0  0
   35.2100   19.5640   34.0280 H   0  0  0  0  0  0  0  0  0  0  0  0
  1  6  2  0  0  0  0
  1  2  1  0  0  0  0
  2  3  2  0  0  0  0
  3  4  1  0  0  0  0
  3  7  1  0  0  0  0
  5  8  1  0  0  0  0
  5  4  2  0  0  0  0
  6  5  1  0  0  0  0
  9 11  1  0  0  0  0
 10  9  2  0  0  0  0
 11  2  1  0  0  0  0
 12  9  1  0  0  0  0
 13 11  1  0  0  0  0
 14  1  1  0  0  0  0
 15 16  1  0  0  0  0
 16 17  2  0  0  0  0
 16 14  1  0  0  0  0
 17 18  1  0  0  0  0
 19 17  1  0  0  0  0
 20 19  1  0  0  0  0
 20 26  1  0  0  0  0
 21 20  1  0  0  0  0
 22 21  1  0  0  0  0
 23 24  1  0  0  0  0
 23 21  2  0  0  0  0
 24 19  2  0  0  0  0
 25 24  1  0  0  0  0
 25 15  2  0  0  0  0
M  END
>  <minimizedAffinity>
-4.73795462

$$$$

 OpenBabel03272507383D

 26 28  0  0  0  0  0  0  0  0999 V2000
   37.0290   24.9700   32.3690 C   0  0  0  0  0  0  0  0  0  0  0  0
   36.6310   23.7880   31.7410 C   0  0  0  0  0  0  0  0  0  0  0  0
   35.5810   23.7940   30.8500 C   0  0  0  0  0  0  0  0  0  0  0  0
   34.9570   24.9970   30.6170 N   0  0  0  0  0  0  0  0  0  0  0  0
   35.3500   26.1380   31.2330 C   0  0  0  0  0  0  0  0  0  0  0  0
   36.3640   26.0940   32.0830 N   0  0  0  0  0  0  0  0  0  0  0  0
   35.2180   22.9180   30.3260 H   0  0  0  0  0  0  0  0  0  0  0  0
   34.8430   27.0730   31.0330 H   0  0  0  0  0  0  0  0  0  0  0  0
   36.5180   21.5070   32.5980 C   0  0  0  0  0  0  0  0  0  0  0  0
   35.3700   21.4030   33.1490 O   0  0  0  0  0  0  0  0  0  0  0  0
   37.2250   22.5290   31.9320 N   0  0  0  0  0  0  0  0  0  0  0  0
   36.9560   20.5120   32.7380 H   0  0  0  0  0  0  0  0  0  0  0  0
   38.1690   22.2860   31.6150 H   0  0  0  0  0  0  0  0  0  0  0  0
   38.0840   24.7800   33.2190 O   0  0  0  0  0  0  0  0  0  0  0  0
   38.1630   26.0610   35.3260 C   0  0  0  0  0  3  0  0  0  0  0  0
   38.1130   24.9300   34.5760 C   0  0  0  0  0  0  0  0  0  0  0  0
   38.0850   23.6980   35.2420 C   0  0  0  0  0  0  0  0  0  0  0  0
   38.0460   22.7220   34.7730 H   0  0  0  0  0  0  0  0  0  0  0  0
   38.1080   23.6350   36.6300 C   0  0  0  0  0  0  0  0  0  0  0  0
   38.0920   22.6560   37.5550 N   0  0  0  0  0  0  0  0  0  0  0  0
   38.1320   23.1950   38.8020 C   0  0  0  0  0  0  0  0  0  0  0  0
   38.1310   22.6810   39.7580 H   0  0  0  0  0  0  0  0  0  0  0  0
   38.1720   24.5300   38.6350 N   0  0  0  0  0  0  0  0  0  0  0  0
   38.1590   24.8320   37.3290 C   0  0  0  0  0  0  0  0  0  0  0  0
   38.1870   26.0520   36.6950 C   0  0  0  0  0  3  0  0  0  0  0  0
   38.0550   21.6460   37.3560 H   0  0  0  0  0  0  0  0  0  0  0  0
  1 14  1  0  0  0  0
  2 11  1  0  0  0  0
  2  1  2  0  0  0  0
  3  2  1  0  0  0  0
  4  3  2  0  0  0  0
  4  5  1  0  0  0  0
  5  6  2  0  0  0  0
  6  1  1  0  0  0  0
  7  3  1  0  0  0  0
  8  5  1  0  0  0  0
  9 12  1  0  0  0  0
  9 10  2  0  0  0  0
 11  9  1  0  0  0  0
 13 11  1  0  0  0  0
 14 16  1  0  0  0  0
 15 25  1  0  0  0  0
 16 17  1  0  0  0  0
 16 15  2  0  0  0  0
 17 19  2  0  0  0  0
 18 17  1  0  0  0  0
 19 24  1  0  0  0  0
 19 20  1  0  0  0  0
 20 21  1  0  0  0  0
 21 22  1  0  0  0  0
 23 21  2  0  0  0  0
 24 23  1  0  0  0  0
 25 24  2  0  0  0  0
 26 20  1  0  0  0  0
M  END
>  <minimizedAffinity>
-4.71740532

$$$$

 OpenBabel03272507383D

 26 28  0  0  0  0  0  0  0  0999 V2000
   37.3660   24.8970   32.3480 C   0  0  0  0  0  0  0  0  0  0  0  0
   36.7740   26.1100   31.9910 C   0  0  0  0  0  0  0  0  0  0  0  0
   35.5820   26.1260   31.3010 C   0  0  0  0  0  0  0  0  0  0  0  0
   35.0180   24.9120   30.9870 N   0  0  0  0  0  0  0  0  0  0  0  0
   35.6010   23.7400   31.3380 C   0  0  0  0  0  0  0  0  0  0  0  0
   36.7480   23.7640   32.0010 N   0  0  0  0  0  0  0  0  0  0  0  0
   35.0650   27.0270   30.9920 H   0  0  0  0  0  0  0  0  0  0  0  0
   35.1370   22.7960   31.0800 H   0  0  0  0  0  0  0  0  0  0  0  0
   37.0200   27.9960   33.5190 C   0  0  0  0  0  0  0  0  0  0  0  0
   36.3410   27.6890   34.5570 O   0  0  0  0  0  0  0  0  0  0  0  0
   37.2960   27.3830   32.2800 N   0  0  0  0  0  0  0  0  0  0  0  0
   37.4360   28.9790   33.7710 H   0  0  0  0  0  0  0  0  0  0  0  0
   37.8820   27.9220   31.6340 H   0  0  0  0  0  0  0  0  0  0  0  0
   38.5420   25.0700   33.0260 O   0  0  0  0  0  0  0  0  0  0  0  0
   40.0200   23.5930   34.3370 C   0  0  0  0  0  3  0  0  0  0  0  0
   38.9670   24.4320   34.1550 C   0  0  0  0  0  0  0  0  0  0  0  0
   38.1580   24.7230   35.2600 C   0  0  0  0  0  0  0  0  0  0  0  0
   37.2890   25.3710   35.2600 H   0  0  0  0  0  0  0  0  0  0  0  0
   38.4230   24.1700   36.5070 C   0  0  0  0  0  0  0  0  0  0  0  0
   37.8700   24.2360   37.7330 N   0  0  0  0  0  0  0  0  0  0  0  0
   38.5730   23.4630   38.6020 C   0  0  0  0  0  0  0  0  0  0  0  0
   38.3900   23.3010   39.6590 H   0  0  0  0  0  0  0  0  0  0  0  0
   39.5770   22.9150   37.8920 N   0  0  0  0  0  0  0  0  0  0  0  0
   39.5160   23.3220   36.6160 C   0  0  0  0  0  0  0  0  0  0  0  0
   40.3240   23.0240   35.5450 C   0  0  0  0  0  3  0  0  0  0  0  0
   37.0360   24.7870   37.9840 H   0  0  0  0  0  0  0  0  0  0  0  0
  1 14  1  0  0  0  0
  2 11  1  0  0  0  0
  2  1  2  0  0  0  0
  3  2  1  0  0  0  0
  4  3  2  0  0  0  0
  4  5  1  0  0  0  0
  5  6  2  0  0  0  0
  6  1  1  0  0  0  0
  7  3  1  0  0  0  0
  8  5  1  0  0  0  0
  9 12  1  0  0  0  0
  9 10  2  0  0  0  0
 11  9  1  0  0  0  0
 13 11  1  0  0  0  0
 14 16  1  0  0  0  0
 15 25  1  0  0  0  0
 16 15  2  0  0  0  0
 16 17  1  0  0  0  0
 17 18  1  0  0  0  0
 17 19  2  0  0  0  0
 19 24  1  0  0  0  0
 19 20  1  0  0  0  0
 20 26  1  0  0  0  0
 20 21  1  0  0  0  0
 21 22  1  0  0  0  0
 23 21  2  0  0  0  0
 24 23  1  0  0  0  0
 25 24  2  0  0  0  0
M  END
>  <minimizedAffinity>
-4.70638275

$$$$

 OpenBabel03272507383D

 26 28  0  0  0  0  0  0  0  0999 V2000
   36.5160   28.1090   33.8280 C   0  0  0  0  0  0  0  0  0  0  0  0
   36.4700   27.3760   32.6400 C   0  0  0  0  0  0  0  0  0  0  0  0
   36.9510   26.0860   32.6000 C   0  0  0  0  0  0  0  0  0  0  0  0
   37.4680   25.5680   33.7630 N   0  0  0  0  0  0  0  0  0  0  0  0
   37.5080   26.2870   34.9110 C   0  0  0  0  0  0  0  0  0  0  0  0
   37.0360   27.5240   34.9120 N   0  0  0  0  0  0  0  0  0  0  0  0
   36.9480   25.4600   31.7150 H   0  0  0  0  0  0  0  0  0  0  0  0
   37.9190   25.8560   35.8150 H   0  0  0  0  0  0  0  0  0  0  0  0
   36.8210   28.3990   30.4530 C   0  0  0  0  0  0  0  0  0  0  0  0
   38.0740   28.6350   30.3800 O   0  0  0  0  0  0  0  0  0  0  0  0
   35.9560   27.8450   31.4190 N   0  0  0  0  0  0  0  0  0  0  0  0
   36.4410   28.7500   29.4860 H   0  0  0  0  0  0  0  0  0  0  0  0
   34.9630   27.8150   31.1660 H   0  0  0  0  0  0  0  0  0  0  0  0
   35.9980   29.3670   33.6870 O   0  0  0  0  0  0  0  0  0  0  0  0
   36.0130   31.0060   35.5290 C   0  0  0  0  0  3  0  0  0  0  0  0
   35.4310   30.1590   34.6430 C   0  0  0  0  0  0  0  0  0  0  0  0
   34.0360   30.0380   34.6660 C   0  0  0  0  0  0  0  0  0  0  0  0
   33.4400   29.4020   34.0200 H   0  0  0  0  0  0  0  0  0  0  0  0
   33.2690   30.7640   35.5710 C   0  0  0  0  0  0  0  0  0  0  0  0
   31.9580   30.8810   35.8530 N   0  0  0  0  0  0  0  0  0  0  0  0
   31.7790   31.7660   36.8690 C   0  0  0  0  0  0  0  0  0  0  0  0
   30.8500   32.0830   37.3300 H   0  0  0  0  0  0  0  0  0  0  0  0
   33.0070   32.1980   37.2130 N   0  0  0  0  0  0  0  0  0  0  0  0
   33.9350   31.6100   36.4460 C   0  0  0  0  0  0  0  0  0  0  0  0
   35.3030   31.7440   36.4390 C   0  0  0  0  0  3  0  0  0  0  0  0
   31.1960   30.3790   35.3750 H   0  0  0  0  0  0  0  0  0  0  0  0
  1  6  1  0  0  0  0
  2  1  2  0  0  0  0
  3  2  1  0  0  0  0
  3  4  2  0  0  0  0
  4  5  1  0  0  0  0
  5  6  2  0  0  0  0
  5  8  1  0  0  0  0
  7  3  1  0  0  0  0
  9 11  1  0  0  0  0
 10  9  2  0  0  0  0
 11  2  1  0  0  0  0
 12  9  1  0  0  0  0
 13 11  1  0  0  0  0
 14  1  1  0  0  0  0
 14 16  1  0  0  0  0
 15 25  1  0  0  0  0
 16 17  1  0  0  0  0
 16 15  2  0  0  0  0
 17 19  2  0  0  0  0
 18 17  1  0  0  0  0
 19 20  1  0  0  0  0
 19 24  1  0  0  0  0
 20 21  1  0  0  0  0
 21 23  2  0  0  0  0
 21 22  1  0  0  0  0
 24 23  1  0  0  0  0
 25 24  2  0  0  0  0
 26 20  1  0  0  0  0
M  END
>  <minimizedAffinity>
-4.68952417

$$$$
