
 OpenBabel03272509253D

 27 29  0  0  0  0  0  0  0  0999 V2000
   37.9340   31.4900   47.3810 C   0  0  0  0  0  0  0  0  0  0  0  0
   37.7000   32.4460   47.8510 H   0  0  0  0  0  0  0  0  0  0  0  0
   38.9090   31.0500   47.6750 H   0  0  0  0  0  0  0  0  0  0  0  0
   37.1110   30.9830   45.0930 C   0  0  0  0  0  3  0  0  0  0  0  0
   37.9850   31.7130   45.8980 C   0  0  0  0  0  0  0  0  0  0  0  0
   38.8270   32.5840   45.2340 C   0  0  0  0  0  0  0  0  0  0  0  0
   39.5020   33.1480   45.8580 H   0  0  0  0  0  0  0  0  0  0  0  0
   38.7660   32.6870   43.8700 C   0  0  0  0  0  0  0  0  0  0  0  0
   39.4710   33.4540   43.0030 N   0  0  0  0  0  0  0  0  0  0  0  0
   39.0410   33.1970   41.7370 C   0  0  0  0  0  0  0  0  0  0  0  0
   39.3930   33.6390   40.8080 H   0  0  0  0  0  0  0  0  0  0  0  0
   38.0640   32.2680   41.8000 N   0  0  0  0  0  0  0  0  0  0  0  0
   37.8900   31.9510   43.1000 C   0  0  0  0  0  0  0  0  0  0  0  0
   37.0300   31.0680   43.7170 C   0  0  0  0  0  3  0  0  0  0  0  0
   40.2300   34.1410   43.2500 H   0  0  0  0  0  0  0  0  0  0  0  0
   36.7950   30.5170   47.6560 C   0  0  0  0  0  0  0  0  0  0  0  0
   36.9990   29.5560   47.1100 H   0  0  0  0  0  0  0  0  0  0  0  0
   35.8490   30.9730   47.3490 H   0  0  0  0  0  0  0  0  0  0  0  0
   37.5920   30.1880   51.3600 C   0  0  0  0  0  0  0  0  0  0  0  0
   37.7210   30.5170   50.0110 C   0  0  0  0  0  0  0  0  0  0  0  0
   36.7250   30.1990   49.1040 C   0  0  0  0  0  0  0  0  0  0  0  0
   35.6350   29.5600   49.6000 N   0  0  0  0  0  0  0  0  0  0  0  0
   35.5140   29.2430   50.9110 C   0  0  0  0  0  0  0  0  0  0  0  0
   36.4930   29.5590   51.7860 N   0  0  0  0  0  0  0  0  0  0  0  0
   38.4210   30.4730   52.0100 H   0  0  0  0  0  0  0  0  0  0  0  0
   38.6100   31.0240   49.6690 H   0  0  0  0  0  0  0  0  0  0  0  0
   34.6140   28.7330   51.2360 H   0  0  0  0  0  0  0  0  0  0  0  0
  1 16  1  0  0  0  0
  1  3  1  0  0  0  0
  1  2  1  0  0  0  0
  4  5  1  0  0  0  0
  5  1  1  0  0  0  0
  6  7  1  0  0  0  0
  6  5  2  0  0  0  0
  8  6  1  0  0  0  0
  9 15  1  0  0  0  0
  9  8  1  0  0  0  0
 10 12  2  0  0  0  0
 10  9  1  0  0  0  0
 11 10  1  0  0  0  0
 12 13  1  0  0  0  0
 13 14  1  0  0  0  0
 13  8  2  0  0  0  0
 14  4  2  0  0  0  0
 16 21  1  0  0  0  0
 17 16  1  0  0  0  0
 18 16  1  0  0  0  0
 19 24  1  0  0  0  0
 19 25  1  0  0  0  0
 20 19  2  0  0  0  0
 21 22  2  0  0  0  0
 21 20  1  0  0  0  0
 22 23  1  0  0  0  0
 23 27  1  0  0  0  0
 23 24  2  0  0  0  0
 26 20  1  0  0  0  0
M  END
>  <minimizedAffinity>
-4.67130232

>  <minimizedRMSD>
2.70450091

$$$$
