
 OpenBabel03272500203D

 37 40  0  0  0  0  0  0  0  0999 V2000
   36.9040   28.8920   30.5040 C   0  0  0  0  0  0  0  0  0  0  0  0
   36.2750   29.7260   31.4550 C   0  0  0  0  0  0  0  0  0  0  0  0
   35.9550   29.1910   32.6930 C   0  0  0  0  0  0  0  0  0  0  0  0
   36.2740   27.8790   32.9160 N   0  0  0  0  0  0  0  0  0  0  0  0
   36.8640   27.1120   32.0130 C   0  0  0  0  0  0  0  0  0  0  0  0
   37.1790   27.6080   30.8160 N   0  0  0  0  0  0  0  0  0  0  0  0
   37.1410   29.3290   29.5550 H   0  0  0  0  0  0  0  0  0  0  0  0
   33.9880   29.5620   33.9260 C   0  0  0  0  0  3  0  0  0  0  0  0
   35.3600   29.8500   33.8260 C   0  0  0  0  0  0  0  0  0  0  0  0
   35.7850   30.7140   34.8010 C   0  0  0  0  0  0  0  0  0  0  0  0
   36.8000   31.0000   34.7620 H   0  0  0  0  0  0  0  0  0  0  0  0
   34.9640   31.2390   35.7670 C   0  0  0  0  0  0  0  0  0  0  0  0
   35.2630   32.0870   36.7650 N   0  0  0  0  0  0  0  0  0  0  0  0
   34.1310   32.3100   37.4480 C   0  0  0  0  0  0  0  0  0  0  0  0
   34.0570   32.9630   38.3230 H   0  0  0  0  0  0  0  0  0  0  0  0
   33.1470   31.6160   36.8860 N   0  0  0  0  0  0  0  0  0  0  0  0
   33.6220   30.9330   35.8340 C   0  0  0  0  0  0  0  0  0  0  0  0
   33.1320   30.0690   34.8800 C   0  0  0  0  0  3  0  0  0  0  0  0
   36.2090   32.5120   36.9910 H   0  0  0  0  0  0  0  0  0  0  0  0
   34.9890   25.0510   30.8310 Cl  0  0  0  0  0  0  0  0  0  0  0  0
   36.3630   24.6800   31.8630 C   0  0  0  0  0  0  0  0  0  0  0  0
   37.1560   25.7140   32.3480 C   0  0  0  0  0  0  0  0  0  0  0  0
   38.2650   25.4720   33.1740 C   0  0  0  0  0  0  0  0  0  0  0  0
   38.5230   24.1350   33.4770 C   0  0  0  0  0  0  0  0  0  0  0  0
   37.7590   23.1070   33.0130 C   0  0  0  0  0  0  0  0  0  0  0  0
   38.1850   21.4760   33.4640 Cl  0  0  0  0  0  0  0  0  0  0  0  0
   36.6690   23.3920   32.1980 C   0  0  0  0  0  0  0  0  0  0  0  0
   38.8780   26.2850   33.5470 H   0  0  0  0  0  0  0  0  0  0  0  0
   39.3820   23.9310   34.1170 H   0  0  0  0  0  0  0  0  0  0  0  0
   35.8250   22.2830   31.6840 C   0  0  0  0  0  0  0  0  0  0  0  0
   35.0650   22.7190   30.5940 F   0  0  0  0  0  0  0  0  0  0  0  0
   35.0320   21.7380   32.6420 F   0  0  0  0  0  0  0  0  0  0  0  0
   36.6500   21.2780   31.1780 F   0  0  0  0  0  0  0  0  0  0  0  0
   36.0010   31.1460   31.1130 C   0  0  0  0  0  0  0  0  0  0  0  0
   36.7440   32.0100   31.8960 F   0  0  0  0  0  0  0  0  0  0  0  0
   36.3120   31.3570   29.7770 F   0  0  0  0  0  0  0  0  0  0  0  0
   34.6650   31.4710   31.2710 F   0  0  0  0  0  0  0  0  0  0  0  0
  1  6  2  0  0  0  0
  1  2  1  0  0  0  0
  2  3  2  0  0  0  0
  3  4  1  0  0  0  0
  3  9  1  0  0  0  0
  5 22  1  0  0  0  0
  5  4  2  0  0  0  0
  6  5  1  0  0  0  0
  7  1  1  0  0  0  0
  8 18  1  0  0  0  0
  9  8  2  0  0  0  0
  9 10  1  0  0  0  0
 10 12  2  0  0  0  0
 11 10  1  0  0  0  0
 12 17  1  0  0  0  0
 12 13  1  0  0  0  0
 13 19  1  0  0  0  0
 13 14  1  0  0  0  0
 14 15  1  0  0  0  0
 16 14  2  0  0  0  0
 17 16  1  0  0  0  0
 18 17  2  0  0  0  0
 20 21  1  0  0  0  0
 21 27  2  0  0  0  0
 21 22  1  0  0  0  0
 22 23  2  0  0  0  0
 23 24  1  0  0  0  0
 23 28  1  0  0  0  0
 24 29  1  0  0  0  0
 25 26  1  0  0  0  0
 25 24  2  0  0  0  0
 27 25  1  0  0  0  0
 30 27  1  0  0  0  0
 30 32  1  0  0  0  0
 31 30  1  0  0  0  0
 33 30  1  0  0  0  0
 34 37  1  0  0  0  0
 34  2  1  0  0  0  0
 34 35  1  0  0  0  0
 36 34  1  0  0  0  0
M  END
>  <minimizedAffinity>
-6.8560214

$$$$

 OpenBabel03272500203D

 37 40  0  0  0  0  0  0  0  0999 V2000
   37.0540   28.9970   31.1090 C   0  0  0  0  0  0  0  0  0  0  0  0
   36.2610   29.8590   31.8980 C   0  0  0  0  0  0  0  0  0  0  0  0
   35.8470   29.4180   33.1450 C   0  0  0  0  0  0  0  0  0  0  0  0
   36.2380   28.1650   33.5340 N   0  0  0  0  0  0  0  0  0  0  0  0
   36.9810   27.3700   32.7810 C   0  0  0  0  0  0  0  0  0  0  0  0
   37.3880   27.7770   31.5770 N   0  0  0  0  0  0  0  0  0  0  0  0
   37.3610   29.3610   30.1480 H   0  0  0  0  0  0  0  0  0  0  0  0
   35.9160   30.7400   35.0880 C   0  0  0  0  0  3  0  0  0  0  0  0
   35.0820   30.1270   34.1370 C   0  0  0  0  0  0  0  0  0  0  0  0
   33.7520   30.3180   34.4070 C   0  0  0  0  0  0  0  0  0  0  0  0
   33.0700   29.8530   33.7500 H   0  0  0  0  0  0  0  0  0  0  0  0
   33.2860   31.0290   35.4850 C   0  0  0  0  0  0  0  0  0  0  0  0
   32.0180   31.2820   35.8490 N   0  0  0  0  0  0  0  0  0  0  0  0
   32.0680   32.0160   36.9700 C   0  0  0  0  0  0  0  0  0  0  0  0
   31.1880   32.3800   37.5090 H   0  0  0  0  0  0  0  0  0  0  0  0
   33.3410   32.2160   37.2970 N   0  0  0  0  0  0  0  0  0  0  0  0
   34.1350   31.6170   36.3970 C   0  0  0  0  0  0  0  0  0  0  0  0
   35.4860   31.4600   36.1810 C   0  0  0  0  0  3  0  0  0  0  0  0
   31.1300   30.9710   35.3590 H   0  0  0  0  0  0  0  0  0  0  0  0
   37.8250   27.2420   35.6840 Cl  0  0  0  0  0  0  0  0  0  0  0  0
   37.7430   25.8580   34.6030 C   0  0  0  0  0  0  0  0  0  0  0  0
   37.3380   26.0400   33.2860 C   0  0  0  0  0  0  0  0  0  0  0  0
   37.2530   24.9690   32.3820 C   0  0  0  0  0  0  0  0  0  0  0  0
   37.5960   23.7140   32.8860 C   0  0  0  0  0  0  0  0  0  0  0  0
   37.9950   23.5140   34.1730 C   0  0  0  0  0  0  0  0  0  0  0  0
   38.3980   21.8950   34.6840 Cl  0  0  0  0  0  0  0  0  0  0  0  0
   38.0660   24.6030   35.0340 C   0  0  0  0  0  0  0  0  0  0  0  0
   36.9370   25.1200   31.3560 H   0  0  0  0  0  0  0  0  0  0  0  0
   37.5350   22.8710   32.1970 H   0  0  0  0  0  0  0  0  0  0  0  0
   38.5000   24.4030   36.4400 C   0  0  0  0  0  0  0  0  0  0  0  0
   37.7940   23.3430   37.0180 F   0  0  0  0  0  0  0  0  0  0  0  0
   38.3870   25.5290   37.1910 F   0  0  0  0  0  0  0  0  0  0  0  0
   39.8370   24.0040   36.4530 F   0  0  0  0  0  0  0  0  0  0  0  0
   35.9200   31.2120   31.3850 C   0  0  0  0  0  0  0  0  0  0  0  0
   36.4710   32.2070   32.1700 F   0  0  0  0  0  0  0  0  0  0  0  0
   36.3970   31.3360   30.0880 F   0  0  0  0  0  0  0  0  0  0  0  0
   34.5530   31.4190   31.3330 F   0  0  0  0  0  0  0  0  0  0  0  0
  1  6  2  0  0  0  0
  1  2  1  0  0  0  0
  2  3  2  0  0  0  0
  3  4  1  0  0  0  0
  3  9  1  0  0  0  0
  5 22  1  0  0  0  0
  5  4  2  0  0  0  0
  6  5  1  0  0  0  0
  7  1  1  0  0  0  0
  8 18  1  0  0  0  0
  9 10  1  0  0  0  0
  9  8  2  0  0  0  0
 10 12  2  0  0  0  0
 11 10  1  0  0  0  0
 12 13  1  0  0  0  0
 12 17  1  0  0  0  0
 13 14  1  0  0  0  0
 14 16  2  0  0  0  0
 14 15  1  0  0  0  0
 17 16  1  0  0  0  0
 18 17  2  0  0  0  0
 19 13  1  0  0  0  0
 21 27  1  0  0  0  0
 21 20  1  0  0  0  0
 22 21  2  0  0  0  0
 23 24  2  0  0  0  0
 23 22  1  0  0  0  0
 24 25  1  0  0  0  0
 25 26  1  0  0  0  0
 25 27  2  0  0  0  0
 27 30  1  0  0  0  0
 28 23  1  0  0  0  0
 29 24  1  0  0  0  0
 30 33  1  0  0  0  0
 30 31  1  0  0  0  0
 30 32  1  0  0  0  0
 34  2  1  0  0  0  0
 34 35  1  0  0  0  0
 36 34  1  0  0  0  0
 37 34  1  0  0  0  0
M  END
>  <minimizedAffinity>
-6.81822014

$$$$

 OpenBabel03272500203D

 37 40  0  0  0  0  0  0  0  0999 V2000
   36.5250   29.3160   31.0820 C   0  0  0  0  0  0  0  0  0  0  0  0
   37.3500   28.2810   31.5770 C   0  0  0  0  0  0  0  0  0  0  0  0
   37.0760   27.7610   32.8320 C   0  0  0  0  0  0  0  0  0  0  0  0
   36.0140   28.2890   33.5170 N   0  0  0  0  0  0  0  0  0  0  0  0
   35.2520   29.2590   33.0370 C   0  0  0  0  0  0  0  0  0  0  0  0
   35.5010   29.7720   31.8320 N   0  0  0  0  0  0  0  0  0  0  0  0
   36.7580   29.7010   30.1100 H   0  0  0  0  0  0  0  0  0  0  0  0
   38.6750   27.1670   34.4500 C   0  0  0  0  0  3  0  0  0  0  0  0
   37.7390   26.6840   33.5190 C   0  0  0  0  0  0  0  0  0  0  0  0
   37.7150   25.3150   33.4640 C   0  0  0  0  0  0  0  0  0  0  0  0
   37.0580   24.8870   32.7590 H   0  0  0  0  0  0  0  0  0  0  0  0
   38.5150   24.5060   34.2320 C   0  0  0  0  0  0  0  0  0  0  0  0
   38.5800   23.1650   34.2660 N   0  0  0  0  0  0  0  0  0  0  0  0
   39.5100   22.8370   35.1740 C   0  0  0  0  0  0  0  0  0  0  0  0
   39.7900   21.8100   35.4270 H   0  0  0  0  0  0  0  0  0  0  0  0
   40.0150   23.9510   35.6940 N   0  0  0  0  0  0  0  0  0  0  0  0
   39.4220   25.0160   35.1350 C   0  0  0  0  0  0  0  0  0  0  0  0
   39.4950   26.3880   35.2370 C   0  0  0  0  0  3  0  0  0  0  0  0
   38.0120   22.4750   33.6930 H   0  0  0  0  0  0  0  0  0  0  0  0
   36.0330   30.8620   35.4840 Cl  0  0  0  0  0  0  0  0  0  0  0  0
   34.3790   30.5090   35.0030 C   0  0  0  0  0  0  0  0  0  0  0  0
   34.1430   29.7620   33.8550 C   0  0  0  0  0  0  0  0  0  0  0  0
   32.8420   29.4540   33.4250 C   0  0  0  0  0  0  0  0  0  0  0  0
   31.8030   29.9440   34.2180 C   0  0  0  0  0  0  0  0  0  0  0  0
   32.0130   30.6780   35.3460 C   0  0  0  0  0  0  0  0  0  0  0  0
   30.6300   31.2350   36.2530 Cl  0  0  0  0  0  0  0  0  0  0  0  0
   33.3180   30.9590   35.7360 C   0  0  0  0  0  0  0  0  0  0  0  0
   32.6670   28.8700   32.5290 H   0  0  0  0  0  0  0  0  0  0  0  0
   30.7870   29.7140   33.8970 H   0  0  0  0  0  0  0  0  0  0  0  0
   33.5640   31.7570   36.9630 C   0  0  0  0  0  0  0  0  0  0  0  0
   32.9860   33.0240   36.8400 F   0  0  0  0  0  0  0  0  0  0  0  0
   34.8830   31.8520   37.2740 F   0  0  0  0  0  0  0  0  0  0  0  0
   32.9060   31.1570   38.0380 F   0  0  0  0  0  0  0  0  0  0  0  0
   38.4600   27.7650   30.7330 C   0  0  0  0  0  0  0  0  0  0  0  0
   38.2320   26.4610   30.3350 F   0  0  0  0  0  0  0  0  0  0  0  0
   38.5850   28.5710   29.6100 F   0  0  0  0  0  0  0  0  0  0  0  0
   39.6760   27.8020   31.3930 F   0  0  0  0  0  0  0  0  0  0  0  0
  1  2  2  0  0  0  0
  1  6  1  0  0  0  0
  2  3  1  0  0  0  0
  3  4  2  0  0  0  0
  3  9  1  0  0  0  0
  5  4  1  0  0  0  0
  5 22  1  0  0  0  0
  6  5  2  0  0  0  0
  7  1  1  0  0  0  0
  8 18  1  0  0  0  0
  9  8  2  0  0  0  0
 10  9  1  0  0  0  0
 10 12  2  0  0  0  0
 11 10  1  0  0  0  0
 12 13  1  0  0  0  0
 12 17  1  0  0  0  0
 13 14  1  0  0  0  0
 14 15  1  0  0  0  0
 14 16  2  0  0  0  0
 17 18  2  0  0  0  0
 17 16  1  0  0  0  0
 19 13  1  0  0  0  0
 21 20  1  0  0  0  0
 21 27  1  0  0  0  0
 22 21  2  0  0  0  0
 23 22  1  0  0  0  0
 23 24  2  0  0  0  0
 24 25  1  0  0  0  0
 25 27  2  0  0  0  0
 25 26  1  0  0  0  0
 27 30  1  0  0  0  0
 28 23  1  0  0  0  0
 29 24  1  0  0  0  0
 30 32  1  0  0  0  0
 30 33  1  0  0  0  0
 31 30  1  0  0  0  0
 34 37  1  0  0  0  0
 34  2  1  0  0  0  0
 35 34  1  0  0  0  0
 36 34  1  0  0  0  0
M  END
>  <minimizedAffinity>
-6.77173996

$$$$

 OpenBabel03272500203D

 37 40  0  0  0  0  0  0  0  0999 V2000
   36.4540   30.5620   31.1630 C   0  0  0  0  0  0  0  0  0  0  0  0
   36.8250   29.2020   31.0670 C   0  0  0  0  0  0  0  0  0  0  0  0
   36.1540   28.2770   31.8530 C   0  0  0  0  0  0  0  0  0  0  0  0
   35.1670   28.7480   32.6780 N   0  0  0  0  0  0  0  0  0  0  0  0
   34.8340   30.0260   32.7550 C   0  0  0  0  0  0  0  0  0  0  0  0
   35.4680   30.9300   32.0070 N   0  0  0  0  0  0  0  0  0  0  0  0
   36.9890   31.2560   30.5460 H   0  0  0  0  0  0  0  0  0  0  0  0
   35.3710   26.1980   31.0850 C   0  0  0  0  0  3  0  0  0  0  0  0
   36.3190   26.8490   31.8940 C   0  0  0  0  0  0  0  0  0  0  0  0
   37.1380   25.9680   32.5510 C   0  0  0  0  0  0  0  0  0  0  0  0
   37.8510   26.3900   33.2040 H   0  0  0  0  0  0  0  0  0  0  0  0
   37.0430   24.6040   32.4320 C   0  0  0  0  0  0  0  0  0  0  0  0
   37.7830   23.6490   33.0210 N   0  0  0  0  0  0  0  0  0  0  0  0
   37.3140   22.4680   32.5950 C   0  0  0  0  0  0  0  0  0  0  0  0
   37.7170   21.4970   32.9010 H   0  0  0  0  0  0  0  0  0  0  0  0
   36.3030   22.6820   31.7590 N   0  0  0  0  0  0  0  0  0  0  0  0
   36.1000   24.0010   31.6290 C   0  0  0  0  0  0  0  0  0  0  0  0
   35.2450   24.8340   30.9410 C   0  0  0  0  0  3  0  0  0  0  0  0
   38.5900   23.7810   33.6970 H   0  0  0  0  0  0  0  0  0  0  0  0
   35.7350   30.9680   35.4860 Cl  0  0  0  0  0  0  0  0  0  0  0  0
   34.0600   30.8790   34.9600 C   0  0  0  0  0  0  0  0  0  0  0  0
   33.7670   30.4300   33.6780 C   0  0  0  0  0  0  0  0  0  0  0  0
   32.4470   30.3410   33.2060 C   0  0  0  0  0  0  0  0  0  0  0  0
   31.4500   30.7310   34.1010 C   0  0  0  0  0  0  0  0  0  0  0  0
   31.7160   31.1740   35.3620 C   0  0  0  0  0  0  0  0  0  0  0  0
   30.3800   31.6330   36.3880 Cl  0  0  0  0  0  0  0  0  0  0  0  0
   33.0370   31.2450   35.7880 C   0  0  0  0  0  0  0  0  0  0  0  0
   32.2280   29.9890   32.2040 H   0  0  0  0  0  0  0  0  0  0  0  0
   30.4200   30.6690   33.7510 H   0  0  0  0  0  0  0  0  0  0  0  0
   33.3440   31.7250   37.1590 C   0  0  0  0  0  0  0  0  0  0  0  0
   32.7110   32.9480   37.3960 F   0  0  0  0  0  0  0  0  0  0  0  0
   34.6780   31.8120   37.4000 F   0  0  0  0  0  0  0  0  0  0  0  0
   32.7910   30.8400   38.0870 F   0  0  0  0  0  0  0  0  0  0  0  0
   37.8930   28.8010   30.1150 C   0  0  0  0  0  0  0  0  0  0  0  0
   37.3800   28.0990   29.0400 F   0  0  0  0  0  0  0  0  0  0  0  0
   38.5370   29.9400   29.6530 F   0  0  0  0  0  0  0  0  0  0  0  0
   38.8570   28.0100   30.7170 F   0  0  0  0  0  0  0  0  0  0  0  0
  1  6  1  0  0  0  0
  2  1  2  0  0  0  0
  2  3  1  0  0  0  0
  3  9  1  0  0  0  0
  3  4  2  0  0  0  0
  4  5  1  0  0  0  0
  5 22  1  0  0  0  0
  6  5  2  0  0  0  0
  7  1  1  0  0  0  0
  8  9  1  0  0  0  0
  9 10  2  0  0  0  0
 10 11  1  0  0  0  0
 12 10  1  0  0  0  0
 12 13  1  0  0  0  0
 13 19  1  0  0  0  0
 14 15  1  0  0  0  0
 14 13  1  0  0  0  0
 16 14  2  0  0  0  0
 17 16  1  0  0  0  0
 17 12  2  0  0  0  0
 18  8  2  0  0  0  0
 18 17  1  0  0  0  0
 21 20  1  0  0  0  0
 21 27  1  0  0  0  0
 22 21  2  0  0  0  0
 23 22  1  0  0  0  0
 23 24  2  0  0  0  0
 24 25  1  0  0  0  0
 25 27  2  0  0  0  0
 25 26  1  0  0  0  0
 27 30  1  0  0  0  0
 28 23  1  0  0  0  0
 29 24  1  0  0  0  0
 30 31  1  0  0  0  0
 30 32  1  0  0  0  0
 30 33  1  0  0  0  0
 34 37  1  0  0  0  0
 34  2  1  0  0  0  0
 35 34  1  0  0  0  0
 36 34  1  0  0  0  0
M  END
>  <minimizedAffinity>
-6.68264675

$$$$

 OpenBabel03272500203D

 37 40  0  0  0  0  0  0  0  0999 V2000
   35.8300   24.6040   31.1220 C   0  0  0  0  0  0  0  0  0  0  0  0
   36.6980   23.9360   32.0140 C   0  0  0  0  0  0  0  0  0  0  0  0
   37.3850   24.6880   32.9540 C   0  0  0  0  0  0  0  0  0  0  0  0
   37.1740   26.0410   32.9570 N   0  0  0  0  0  0  0  0  0  0  0  0
   36.3560   26.6500   32.1130 C   0  0  0  0  0  0  0  0  0  0  0  0
   35.6870   25.9430   31.2010 N   0  0  0  0  0  0  0  0  0  0  0  0
   35.3110   23.9990   30.4050 H   0  0  0  0  0  0  0  0  0  0  0  0
   39.6210   24.4610   33.6410 C   0  0  0  0  0  3  0  0  0  0  0  0
   38.2780   24.2320   33.9860 C   0  0  0  0  0  0  0  0  0  0  0  0
   38.1490   23.5990   35.1950 C   0  0  0  0  0  0  0  0  0  0  0  0
   37.1660   23.3660   35.4980 H   0  0  0  0  0  0  0  0  0  0  0  0
   39.2120   23.2300   35.9810 C   0  0  0  0  0  0  0  0  0  0  0  0
   39.2100   22.6100   37.1730 N   0  0  0  0  0  0  0  0  0  0  0  0
   40.4890   22.4650   37.5450 C   0  0  0  0  0  0  0  0  0  0  0  0
   40.8100   21.9920   38.4780 H   0  0  0  0  0  0  0  0  0  0  0  0
   41.2720   22.9820   36.6040 N   0  0  0  0  0  0  0  0  0  0  0  0
   40.5170   23.4710   35.6090 C   0  0  0  0  0  0  0  0  0  0  0  0
   40.7130   24.1050   34.4030 C   0  0  0  0  0  3  0  0  0  0  0  0
   38.3670   22.2880   37.7330 H   0  0  0  0  0  0  0  0  0  0  0  0
   35.9690   27.7900   34.8900 Cl  0  0  0  0  0  0  0  0  0  0  0  0
   36.0230   28.7430   33.4140 C   0  0  0  0  0  0  0  0  0  0  0  0
   36.2070   28.1070   32.1920 C   0  0  0  0  0  0  0  0  0  0  0  0
   36.2600   28.8210   30.9840 C   0  0  0  0  0  0  0  0  0  0  0  0
   36.1170   30.2060   31.0860 C   0  0  0  0  0  0  0  0  0  0  0  0
   35.9350   30.8490   32.2730 C   0  0  0  0  0  0  0  0  0  0  0  0
   35.7690   32.5860   32.2680 Cl  0  0  0  0  0  0  0  0  0  0  0  0
   35.8890   30.1020   33.4450 C   0  0  0  0  0  0  0  0  0  0  0  0
   36.4040   28.3160   30.0360 H   0  0  0  0  0  0  0  0  0  0  0  0
   36.1560   30.7750   30.1570 H   0  0  0  0  0  0  0  0  0  0  0  0
   35.6900   30.7870   34.7470 C   0  0  0  0  0  0  0  0  0  0  0  0
   36.6490   30.3580   35.6700 F   0  0  0  0  0  0  0  0  0  0  0  0
   34.4350   30.6290   35.2390 F   0  0  0  0  0  0  0  0  0  0  0  0
   35.9250   32.1540   34.5840 F   0  0  0  0  0  0  0  0  0  0  0  0
   36.8270   22.4570   31.9380 C   0  0  0  0  0  0  0  0  0  0  0  0
   38.1490   22.0670   31.8260 F   0  0  0  0  0  0  0  0  0  0  0  0
   36.2810   21.8960   33.0840 F   0  0  0  0  0  0  0  0  0  0  0  0
   36.1360   21.9290   30.8620 F   0  0  0  0  0  0  0  0  0  0  0  0
  1  6  2  0  0  0  0
  1  2  1  0  0  0  0
  2  3  2  0  0  0  0
  3  4  1  0  0  0  0
  3  9  1  0  0  0  0
  5 22  1  0  0  0  0
  5  4  2  0  0  0  0
  6  5  1  0  0  0  0
  7  1  1  0  0  0  0
  8  9  2  0  0  0  0
  8 18  1  0  0  0  0
  9 10  1  0  0  0  0
 10 11  1  0  0  0  0
 10 12  2  0  0  0  0
 12 13  1  0  0  0  0
 13 14  1  0  0  0  0
 13 19  1  0  0  0  0
 14 15  1  0  0  0  0
 16 14  2  0  0  0  0
 17 12  1  0  0  0  0
 17 16  1  0  0  0  0
 18 17  2  0  0  0  0
 21 27  1  0  0  0  0
 21 20  1  0  0  0  0
 22 21  2  0  0  0  0
 23 24  2  0  0  0  0
 23 22  1  0  0  0  0
 24 25  1  0  0  0  0
 25 27  2  0  0  0  0
 26 25  1  0  0  0  0
 27 30  1  0  0  0  0
 28 23  1  0  0  0  0
 29 24  1  0  0  0  0
 30 32  1  0  0  0  0
 30 31  1  0  0  0  0
 33 30  1  0  0  0  0
 34  2  1  0  0  0  0
 34 36  1  0  0  0  0
 35 34  1  0  0  0  0
 37 34  1  0  0  0  0
M  END
>  <minimizedAffinity>
-6.65725946

$$$$

 OpenBabel03272500203D

 37 40  0  0  0  0  0  0  0  0999 V2000
   35.7430   24.6710   31.1520 C   0  0  0  0  0  0  0  0  0  0  0  0
   36.6110   23.9920   32.0370 C   0  0  0  0  0  0  0  0  0  0  0  0
   37.3080   24.7350   32.9780 C   0  0  0  0  0  0  0  0  0  0  0  0
   37.1070   26.0890   32.9880 N   0  0  0  0  0  0  0  0  0  0  0  0
   36.2890   26.7080   32.1510 C   0  0  0  0  0  0  0  0  0  0  0  0
   35.6110   26.0100   31.2380 N   0  0  0  0  0  0  0  0  0  0  0  0
   35.2170   24.0740   30.4340 H   0  0  0  0  0  0  0  0  0  0  0  0
   39.5460   24.4780   33.6490 C   0  0  0  0  0  3  0  0  0  0  0  0
   38.2020   24.2680   34.0030 C   0  0  0  0  0  0  0  0  0  0  0  0
   38.0730   23.6360   35.2130 C   0  0  0  0  0  0  0  0  0  0  0  0
   37.0900   23.4160   35.5230 H   0  0  0  0  0  0  0  0  0  0  0  0
   39.1370   23.2530   35.9910 C   0  0  0  0  0  0  0  0  0  0  0  0
   39.1360   22.6340   37.1830 N   0  0  0  0  0  0  0  0  0  0  0  0
   40.4160   22.4720   37.5460 C   0  0  0  0  0  0  0  0  0  0  0  0
   40.7370   21.9950   38.4770 H   0  0  0  0  0  0  0  0  0  0  0  0
   41.1990   22.9790   36.5990 N   0  0  0  0  0  0  0  0  0  0  0  0
   40.4420   23.4770   35.6100 C   0  0  0  0  0  0  0  0  0  0  0  0
   40.6390   24.1080   34.4020 C   0  0  0  0  0  3  0  0  0  0  0  0
   38.2930   22.3230   37.7500 H   0  0  0  0  0  0  0  0  0  0  0  0
   37.0700   28.2610   29.6730 Cl  0  0  0  0  0  0  0  0  0  0  0  0
   36.4810   28.9830   31.1630 C   0  0  0  0  0  0  0  0  0  0  0  0
   36.1510   28.1660   32.2380 C   0  0  0  0  0  0  0  0  0  0  0  0
   35.6740   28.6910   33.4500 C   0  0  0  0  0  0  0  0  0  0  0  0
   35.5490   30.0800   33.5090 C   0  0  0  0  0  0  0  0  0  0  0  0
   35.8670   30.8980   32.4670 C   0  0  0  0  0  0  0  0  0  0  0  0
   35.6670   32.6210   32.6640 Cl  0  0  0  0  0  0  0  0  0  0  0  0
   36.3370   30.3360   31.2850 C   0  0  0  0  0  0  0  0  0  0  0  0
   35.4200   28.0450   34.2830 H   0  0  0  0  0  0  0  0  0  0  0  0
   35.1790   30.5030   34.4430 H   0  0  0  0  0  0  0  0  0  0  0  0
   36.6880   31.2140   30.1410 C   0  0  0  0  0  0  0  0  0  0  0  0
   35.6440   32.1060   29.8780 F   0  0  0  0  0  0  0  0  0  0  0  0
   37.0240   30.5160   29.0260 F   0  0  0  0  0  0  0  0  0  0  0  0
   37.7740   32.0160   30.4970 F   0  0  0  0  0  0  0  0  0  0  0  0
   36.7300   22.5130   31.9530 C   0  0  0  0  0  0  0  0  0  0  0  0
   36.2390   21.8980   33.0890 F   0  0  0  0  0  0  0  0  0  0  0  0
   36.0200   22.0650   30.8480 F   0  0  0  0  0  0  0  0  0  0  0  0
   38.0410   22.1050   31.7810 F   0  0  0  0  0  0  0  0  0  0  0  0
  1  6  2  0  0  0  0
  1  2  1  0  0  0  0
  2  3  2  0  0  0  0
  3  4  1  0  0  0  0
  3  9  1  0  0  0  0
  5 22  1  0  0  0  0
  5  4  2  0  0  0  0
  6  5  1  0  0  0  0
  7  1  1  0  0  0  0
  8  9  2  0  0  0  0
  8 18  1  0  0  0  0
  9 10  1  0  0  0  0
 10 11  1  0  0  0  0
 10 12  2  0  0  0  0
 12 13  1  0  0  0  0
 13 14  1  0  0  0  0
 13 19  1  0  0  0  0
 14 15  1  0  0  0  0
 16 14  2  0  0  0  0
 17 12  1  0  0  0  0
 17 16  1  0  0  0  0
 18 17  2  0  0  0  0
 20 21  1  0  0  0  0
 21 27  2  0  0  0  0
 21 22  1  0  0  0  0
 22 23  2  0  0  0  0
 23 24  1  0  0  0  0
 23 28  1  0  0  0  0
 24 29  1  0  0  0  0
 25 26  1  0  0  0  0
 25 24  2  0  0  0  0
 27 25  1  0  0  0  0
 30 33  1  0  0  0  0
 30 27  1  0  0  0  0
 31 30  1  0  0  0  0
 32 30  1  0  0  0  0
 34  2  1  0  0  0  0
 34 35  1  0  0  0  0
 36 34  1  0  0  0  0
 37 34  1  0  0  0  0
M  END
>  <minimizedAffinity>
-6.63644075

$$$$

 OpenBabel03272500203D

 37 40  0  0  0  0  0  0  0  0999 V2000
   37.0420   27.9710   31.8550 C   0  0  0  0  0  0  0  0  0  0  0  0
   36.2730   28.9660   32.4980 C   0  0  0  0  0  0  0  0  0  0  0  0
   36.1710   28.9330   33.8800 C   0  0  0  0  0  0  0  0  0  0  0  0
   36.8280   27.9270   34.5380 N   0  0  0  0  0  0  0  0  0  0  0  0
   37.5430   27.0020   33.9180 C   0  0  0  0  0  0  0  0  0  0  0  0
   37.6530   27.0180   32.5890 N   0  0  0  0  0  0  0  0  0  0  0  0
   37.1050   28.0190   30.7870 H   0  0  0  0  0  0  0  0  0  0  0  0
   34.1150   29.5760   34.8220 C   0  0  0  0  0  3  0  0  0  0  0  0
   35.4910   29.8550   34.7500 C   0  0  0  0  0  0  0  0  0  0  0  0
   35.8400   30.9550   35.4890 C   0  0  0  0  0  0  0  0  0  0  0  0
   36.8550   31.2410   35.4510 H   0  0  0  0  0  0  0  0  0  0  0  0
   34.9470   31.7000   36.2180 C   0  0  0  0  0  0  0  0  0  0  0  0
   35.1700   32.7880   36.9750 N   0  0  0  0  0  0  0  0  0  0  0  0
   33.9890   33.1600   37.4880 C   0  0  0  0  0  0  0  0  0  0  0  0
   33.8480   34.0200   38.1510 H   0  0  0  0  0  0  0  0  0  0  0  0
   33.0500   32.3220   37.0600 N   0  0  0  0  0  0  0  0  0  0  0  0
   33.6040   31.3950   36.2650 C   0  0  0  0  0  0  0  0  0  0  0  0
   33.1890   30.3000   35.5410 C   0  0  0  0  0  3  0  0  0  0  0  0
   36.0960   33.2770   37.1480 H   0  0  0  0  0  0  0  0  0  0  0  0
   40.5160   26.6650   33.4560 Cl  0  0  0  0  0  0  0  0  0  0  0  0
   39.5640   25.7140   34.5870 C   0  0  0  0  0  0  0  0  0  0  0  0
   38.2020   25.9600   34.7150 C   0  0  0  0  0  0  0  0  0  0  0  0
   37.3960   25.2310   35.6050 C   0  0  0  0  0  0  0  0  0  0  0  0
   38.0450   24.2480   36.3520 C   0  0  0  0  0  0  0  0  0  0  0  0
   39.3790   23.9900   36.2420 C   0  0  0  0  0  0  0  0  0  0  0  0
   40.0740   22.7330   37.2330 Cl  0  0  0  0  0  0  0  0  0  0  0  0
   40.1390   24.7360   35.3480 C   0  0  0  0  0  0  0  0  0  0  0  0
   36.3350   25.4310   35.6970 H   0  0  0  0  0  0  0  0  0  0  0  0
   37.4340   23.6730   37.0480 H   0  0  0  0  0  0  0  0  0  0  0  0
   41.5930   24.4670   35.2150 C   0  0  0  0  0  0  0  0  0  0  0  0
   42.0040   23.5430   36.1800 F   0  0  0  0  0  0  0  0  0  0  0  0
   42.3440   25.5970   35.2720 F   0  0  0  0  0  0  0  0  0  0  0  0
   41.8320   23.8470   33.9870 F   0  0  0  0  0  0  0  0  0  0  0  0
   35.6260   30.0280   31.6840 C   0  0  0  0  0  0  0  0  0  0  0  0
   36.0600   31.2880   32.0530 F   0  0  0  0  0  0  0  0  0  0  0  0
   35.9240   29.8160   30.3450 F   0  0  0  0  0  0  0  0  0  0  0  0
   34.2470   30.0030   31.7980 F   0  0  0  0  0  0  0  0  0  0  0  0
  1  2  2  0  0  0  0
  1  6  1  0  0  0  0
  2  3  1  0  0  0  0
  3  4  2  0  0  0  0
  3  9  1  0  0  0  0
  5  4  1  0  0  0  0
  5 22  1  0  0  0  0
  6  5  2  0  0  0  0
  7  1  1  0  0  0  0
  8 18  1  0  0  0  0
  9  8  2  0  0  0  0
  9 10  1  0  0  0  0
 10 12  2  0  0  0  0
 11 10  1  0  0  0  0
 12 17  1  0  0  0  0
 12 13  1  0  0  0  0
 13 19  1  0  0  0  0
 13 14  1  0  0  0  0
 14 15  1  0  0  0  0
 16 14  2  0  0  0  0
 17 16  1  0  0  0  0
 18 17  2  0  0  0  0
 20 21  1  0  0  0  0
 21 22  2  0  0  0  0
 21 27  1  0  0  0  0
 22 23  1  0  0  0  0
 23 28  1  0  0  0  0
 23 24  2  0  0  0  0
 24 29  1  0  0  0  0
 25 24  1  0  0  0  0
 25 26  1  0  0  0  0
 27 25  2  0  0  0  0
 30 32  1  0  0  0  0
 30 27  1  0  0  0  0
 30 31  1  0  0  0  0
 33 30  1  0  0  0  0
 34 37  1  0  0  0  0
 34 35  1  0  0  0  0
 34  2  1  0  0  0  0
 36 34  1  0  0  0  0
M  END
>  <minimizedAffinity>
-6.63412809

$$$$

 OpenBabel03272500203D

 37 40  0  0  0  0  0  0  0  0999 V2000
   36.1300   29.2930   31.4940 C   0  0  0  0  0  0  0  0  0  0  0  0
   36.8560   28.1490   31.8920 C   0  0  0  0  0  0  0  0  0  0  0  0
   37.0060   27.9010   33.2480 C   0  0  0  0  0  0  0  0  0  0  0  0
   36.4340   28.7890   34.1190 N   0  0  0  0  0  0  0  0  0  0  0  0
   35.7570   29.8570   33.7270 C   0  0  0  0  0  0  0  0  0  0  0  0
   35.6030   30.1120   32.4270 N   0  0  0  0  0  0  0  0  0  0  0  0
   36.0290   29.4630   30.4400 H   0  0  0  0  0  0  0  0  0  0  0  0
   38.8510   27.1810   34.5140 C   0  0  0  0  0  3  0  0  0  0  0  0
   37.6550   26.7880   33.8880 C   0  0  0  0  0  0  0  0  0  0  0  0
   37.4220   25.4420   34.0040 C   0  0  0  0  0  0  0  0  0  0  0  0
   36.5570   25.0740   33.5250 H   0  0  0  0  0  0  0  0  0  0  0  0
   38.2610   24.5750   34.6590 C   0  0  0  0  0  0  0  0  0  0  0  0
   38.1380   23.2500   34.8380 N   0  0  0  0  0  0  0  0  0  0  0  0
   39.2060   22.8460   35.5400 C   0  0  0  0  0  0  0  0  0  0  0  0
   39.3890   21.8100   35.8430 H   0  0  0  0  0  0  0  0  0  0  0  0
   39.9780   23.8970   35.7940 N   0  0  0  0  0  0  0  0  0  0  0  0
   39.4260   24.9980   35.2620 C   0  0  0  0  0  0  0  0  0  0  0  0
   39.7180   26.3410   35.1790 C   0  0  0  0  0  3  0  0  0  0  0  0
   37.3540   22.6210   34.4970 H   0  0  0  0  0  0  0  0  0  0  0  0
   32.8870   29.3110   34.5190 Cl  0  0  0  0  0  0  0  0  0  0  0  0
   33.8820   30.5990   35.1840 C   0  0  0  0  0  0  0  0  0  0  0  0
   35.1910   30.7520   34.7420 C   0  0  0  0  0  0  0  0  0  0  0  0
   36.0290   31.7630   35.2410 C   0  0  0  0  0  0  0  0  0  0  0  0
   35.4690   32.6010   36.2060 C   0  0  0  0  0  0  0  0  0  0  0  0
   34.1880   32.4680   36.6520 C   0  0  0  0  0  0  0  0  0  0  0  0
   33.6030   33.5800   37.8640 Cl  0  0  0  0  0  0  0  0  0  0  0  0
   33.3930   31.4540   36.1300 C   0  0  0  0  0  0  0  0  0  0  0  0
   37.0480   31.8750   34.8910 H   0  0  0  0  0  0  0  0  0  0  0  0
   36.1060   33.3900   36.6040 H   0  0  0  0  0  0  0  0  0  0  0  0
   31.9950   31.2960   36.6050 C   0  0  0  0  0  0  0  0  0  0  0  0
   31.9290   30.3070   37.5910 F   0  0  0  0  0  0  0  0  0  0  0  0
   31.1230   31.0380   35.5970 F   0  0  0  0  0  0  0  0  0  0  0  0
   31.5920   32.4730   37.2380 F   0  0  0  0  0  0  0  0  0  0  0  0
   37.4090   27.2370   30.8570 C   0  0  0  0  0  0  0  0  0  0  0  0
   37.3260   27.7920   29.5940 F   0  0  0  0  0  0  0  0  0  0  0  0
   38.7380   26.9710   31.1530 F   0  0  0  0  0  0  0  0  0  0  0  0
   36.7510   26.0200   30.8300 F   0  0  0  0  0  0  0  0  0  0  0  0
  1  2  2  0  0  0  0
  1  6  1  0  0  0  0
  2  3  1  0  0  0  0
  3  9  1  0  0  0  0
  3  4  2  0  0  0  0
  5  4  1  0  0  0  0
  5 22  1  0  0  0  0
  6  5  2  0  0  0  0
  7  1  1  0  0  0  0
  8 18  1  0  0  0  0
  9 10  1  0  0  0  0
  9  8  2  0  0  0  0
 10 12  2  0  0  0  0
 11 10  1  0  0  0  0
 12 13  1  0  0  0  0
 12 17  1  0  0  0  0
 13 14  1  0  0  0  0
 14 16  2  0  0  0  0
 14 15  1  0  0  0  0
 17 16  1  0  0  0  0
 18 17  2  0  0  0  0
 19 13  1  0  0  0  0
 20 21  1  0  0  0  0
 21 27  1  0  0  0  0
 22 21  2  0  0  0  0
 22 23  1  0  0  0  0
 23 24  2  0  0  0  0
 24 29  1  0  0  0  0
 24 25  1  0  0  0  0
 25 26  1  0  0  0  0
 27 30  1  0  0  0  0
 27 25  2  0  0  0  0
 28 23  1  0  0  0  0
 30 33  1  0  0  0  0
 30 31  1  0  0  0  0
 32 30  1  0  0  0  0
 34 36  1  0  0  0  0
 34  2  1  0  0  0  0
 35 34  1  0  0  0  0
 37 34  1  0  0  0  0
M  END
>  <minimizedAffinity>
-6.57476902

$$$$

 OpenBabel03272500203D

 37 40  0  0  0  0  0  0  0  0999 V2000
   37.2090   28.4490   31.3420 C   0  0  0  0  0  0  0  0  0  0  0  0
   36.3310   29.3130   32.0330 C   0  0  0  0  0  0  0  0  0  0  0  0
   36.0050   29.0110   33.3470 C   0  0  0  0  0  0  0  0  0  0  0  0
   36.5610   27.8840   33.8920 N   0  0  0  0  0  0  0  0  0  0  0  0
   37.3810   27.0860   33.2280 C   0  0  0  0  0  0  0  0  0  0  0  0
   37.7060   27.3600   31.9640 N   0  0  0  0  0  0  0  0  0  0  0  0
   37.4450   28.7040   30.3280 H   0  0  0  0  0  0  0  0  0  0  0  0
   35.9490   30.6160   35.0630 C   0  0  0  0  0  3  0  0  0  0  0  0
   35.1800   29.7570   34.2590 C   0  0  0  0  0  0  0  0  0  0  0  0
   33.8450   29.8090   34.5650 C   0  0  0  0  0  0  0  0  0  0  0  0
   33.2150   29.1620   34.0210 H   0  0  0  0  0  0  0  0  0  0  0  0
   33.3180   30.6120   35.5470 C   0  0  0  0  0  0  0  0  0  0  0  0
   32.0390   30.7480   35.9340 N   0  0  0  0  0  0  0  0  0  0  0  0
   32.0210   31.6470   36.9280 C   0  0  0  0  0  0  0  0  0  0  0  0
   31.1150   31.9700   37.4510 H   0  0  0  0  0  0  0  0  0  0  0  0
   33.2630   32.0620   37.1560 N   0  0  0  0  0  0  0  0  0  0  0  0
   34.1050   31.4420   36.3160 C   0  0  0  0  0  0  0  0  0  0  0  0
   35.4570   31.4330   36.0570 C   0  0  0  0  0  3  0  0  0  0  0  0
   31.1880   30.2490   35.5420 H   0  0  0  0  0  0  0  0  0  0  0  0
   36.5120   24.4190   32.0900 Cl  0  0  0  0  0  0  0  0  0  0  0  0
   37.5860   24.6180   33.4680 C   0  0  0  0  0  0  0  0  0  0  0  0
   37.9160   25.8970   33.9010 C   0  0  0  0  0  0  0  0  0  0  0  0
   38.7710   26.1120   34.9940 C   0  0  0  0  0  0  0  0  0  0  0  0
   39.2680   24.9660   35.6170 C   0  0  0  0  0  0  0  0  0  0  0  0
   38.9570   23.7040   35.2080 C   0  0  0  0  0  0  0  0  0  0  0  0
   39.6440   22.3510   36.0700 Cl  0  0  0  0  0  0  0  0  0  0  0  0
   38.1060   23.5370   34.1210 C   0  0  0  0  0  0  0  0  0  0  0  0
   39.0230   27.1130   35.3250 H   0  0  0  0  0  0  0  0  0  0  0  0
   39.9340   25.1160   36.4670 H   0  0  0  0  0  0  0  0  0  0  0  0
   37.7550   22.1690   33.6640 C   0  0  0  0  0  0  0  0  0  0  0  0
   37.0950   21.4730   34.6810 F   0  0  0  0  0  0  0  0  0  0  0  0
   38.8310   21.4720   33.2160 F   0  0  0  0  0  0  0  0  0  0  0  0
   36.8310   22.2590   32.6210 F   0  0  0  0  0  0  0  0  0  0  0  0
   35.8100   30.5250   31.3500 C   0  0  0  0  0  0  0  0  0  0  0  0
   34.4280   30.5460   31.3340 F   0  0  0  0  0  0  0  0  0  0  0  0
   36.2770   31.6530   32.0110 F   0  0  0  0  0  0  0  0  0  0  0  0
   36.2520   30.6150   30.0410 F   0  0  0  0  0  0  0  0  0  0  0  0
  1  6  2  0  0  0  0
  1  2  1  0  0  0  0
  2  3  2  0  0  0  0
  3  4  1  0  0  0  0
  3  9  1  0  0  0  0
  5  4  2  0  0  0  0
  5 22  1  0  0  0  0
  6  5  1  0  0  0  0
  7  1  1  0  0  0  0
  8 18  1  0  0  0  0
  9 10  1  0  0  0  0
  9  8  2  0  0  0  0
 10 12  2  0  0  0  0
 11 10  1  0  0  0  0
 12 13  1  0  0  0  0
 12 17  1  0  0  0  0
 13 14  1  0  0  0  0
 14 16  2  0  0  0  0
 14 15  1  0  0  0  0
 17 16  1  0  0  0  0
 18 17  2  0  0  0  0
 19 13  1  0  0  0  0
 20 21  1  0  0  0  0
 21 22  2  0  0  0  0
 21 27  1  0  0  0  0
 22 23  1  0  0  0  0
 23 28  1  0  0  0  0
 23 24  2  0  0  0  0
 24 29  1  0  0  0  0
 25 24  1  0  0  0  0
 25 26  1  0  0  0  0
 27 25  2  0  0  0  0
 30 27  1  0  0  0  0
 30 31  1  0  0  0  0
 32 30  1  0  0  0  0
 33 30  1  0  0  0  0
 34 36  1  0  0  0  0
 34  2  1  0  0  0  0
 35 34  1  0  0  0  0
 37 34  1  0  0  0  0
M  END
>  <minimizedAffinity>
-6.56024599

$$$$
