
 OpenBabel03272509583D

 49 53  0  0  0  0  0  0  0  0999 V2000
   33.3750   27.8530   47.4120 C   0  0  0  0  0  0  0  0  0  0  0  0
   33.4400   27.8610   46.2870 H   0  0  0  0  0  0  0  0  0  0  0  0
   33.7270   26.8690   47.7220 H   0  0  0  0  0  0  0  0  0  0  0  0
   31.9440   28.0040   47.7840 C   0  0  0  0  0  0  0  0  0  0  0  0
   31.5590   27.6170   49.0570 C   0  0  0  0  0  0  0  0  0  0  0  0
   30.2550   27.7240   49.4790 C   0  0  0  0  0  0  0  0  0  0  0  0
   29.3340   28.2120   48.6480 N   0  0  0  0  0  0  0  0  0  0  0  0
   29.7220   28.5910   47.3960 C   0  0  0  0  0  0  0  0  0  0  0  0
   30.9920   28.4930   46.9670 N   0  0  0  0  0  0  0  0  0  0  0  0
   32.3020   27.2200   49.7360 H   0  0  0  0  0  0  0  0  0  0  0  0
   29.9180   27.4330   50.4670 H   0  0  0  0  0  0  0  0  0  0  0  0
   28.6750   29.1330   46.4840 C   0  0  0  0  0  0  0  0  0  0  0  0
   29.0160   30.1430   46.1730 H   0  0  0  0  0  0  0  0  0  0  0  0
   27.7010   29.2510   47.0000 H   0  0  0  0  0  0  0  0  0  0  0  0
   28.7560   28.7390   43.9680 C   0  0  0  0  0  3  0  0  0  0  0  0
   28.5570   28.2840   45.2680 C   0  0  0  0  0  0  0  0  0  0  0  0
   28.2250   26.9400   45.4400 C   0  0  0  0  0  0  0  0  0  0  0  0
   28.0670   26.5740   46.4640 H   0  0  0  0  0  0  0  0  0  0  0  0
   28.0900   26.0690   44.3860 C   0  0  0  0  0  0  0  0  0  0  0  0
   27.7900   24.7750   44.2720 N   0  0  0  0  0  0  0  0  0  0  0  0
   27.7830   24.3770   42.9950 C   0  0  0  0  0  0  0  0  0  0  0  0
   27.5620   23.3570   42.6770 H   0  0  0  0  0  0  0  0  0  0  0  0
   28.0960   25.4730   42.2450 N   0  0  0  0  0  0  0  0  0  0  0  0
   28.2880   26.5170   43.0780 C   0  0  0  0  0  0  0  0  0  0  0  0
   28.6160   27.8510   42.9370 C   0  0  0  0  0  3  0  0  0  0  0  0
   27.5920   24.1950   45.1280 H   0  0  0  0  0  0  0  0  0  0  0  0
   34.2440   28.9200   48.0170 C   0  0  0  0  0  0  0  0  0  0  0  0
   33.7030   29.8190   48.3400 H   0  0  0  0  0  0  0  0  0  0  0  0
   34.9480   29.2510   47.2260 H   0  0  0  0  0  0  0  0  0  0  0  0
   35.0500   28.3860   49.0570 O   0  0  0  0  0  0  0  0  0  0  0  0
   37.2770   30.1460   51.2900 C   0  0  0  0  0  0  0  0  0  0  0  0
   38.0450   30.8580   50.3450 C   0  0  0  0  0  0  0  0  0  0  0  0
   37.7560   30.6940   49.0040 C   0  0  0  0  0  0  0  0  0  0  0  0
   36.7300   29.8380   48.7100 N   0  0  0  0  0  0  0  0  0  0  0  0
   36.0080   29.1680   49.6100 C   0  0  0  0  0  0  0  0  0  0  0  0
   36.2930   29.3310   50.9120 N   0  0  0  0  0  0  0  0  0  0  0  0
   37.5300   30.2990   52.3270 H   0  0  0  0  0  0  0  0  0  0  0  0
   38.8470   31.5270   50.5710 H   0  0  0  0  0  0  0  0  0  0  0  0
   38.9290   33.3340   48.9400 F   0  0  0  0  0  0  0  0  0  0  0  0
   38.9900   32.5630   47.8550 C   0  0  0  0  0  0  0  0  0  0  0  0
   38.4390   31.3420   47.9070 C   0  0  0  0  0  0  0  0  0  0  0  0
   38.5590   30.6200   46.7200 C   0  0  0  0  0  0  0  0  0  0  0  0
   39.1800   31.1110   45.6070 C   0  0  0  0  0  0  0  0  0  0  0  0
   39.7280   32.3750   45.6100 C   0  0  0  0  0  0  0  0  0  0  0  0
   39.6230   33.0990   46.7600 C   0  0  0  0  0  0  0  0  0  0  0  0
   38.1630   29.6020   46.5930 H   0  0  0  0  0  0  0  0  0  0  0  0
   39.2740   30.5500   44.6800 H   0  0  0  0  0  0  0  0  0  0  0  0
   40.2240   32.7680   44.7220 H   0  0  0  0  0  0  0  0  0  0  0  0
   40.0510   34.0950   46.7780 H   0  0  0  0  0  0  0  0  0  0  0  0
  1  3  1  0  0  0  0
  1  4  1  0  0  0  0
  1 27  1  0  0  0  0
  2  1  1  0  0  0  0
  4  5  1  0  0  0  0
  5  6  2  0  0  0  0
  5 10  1  0  0  0  0
  6 11  1  0  0  0  0
  7  6  1  0  0  0  0
  8  7  2  0  0  0  0
  9  8  1  0  0  0  0
  9  4  2  0  0  0  0
 12 14  1  0  0  0  0
 12  8  1  0  0  0  0
 13 12  1  0  0  0  0
 15 16  1  0  0  0  0
 16 17  2  0  0  0  0
 16 12  1  0  0  0  0
 17 18  1  0  0  0  0
 19 17  1  0  0  0  0
 20 19  1  0  0  0  0
 20 26  1  0  0  0  0
 21 20  1  0  0  0  0
 22 21  1  0  0  0  0
 23 21  2  0  0  0  0
 23 24  1  0  0  0  0
 24 19  2  0  0  0  0
 25 24  1  0  0  0  0
 25 15  2  0  0  0  0
 27 28  1  0  0  0  0
 27 30  1  0  0  0  0
 29 27  1  0  0  0  0
 30 35  1  0  0  0  0
 31 37  1  0  0  0  0
 32 38  1  0  0  0  0
 32 31  2  0  0  0  0
 33 32  1  0  0  0  0
 34 33  2  0  0  0  0
 34 35  1  0  0  0  0
 35 36  2  0  0  0  0
 36 31  1  0  0  0  0
 40 41  1  0  0  0  0
 40 39  1  0  0  0  0
 41 33  1  0  0  0  0
 42 41  2  0  0  0  0
 43 44  2  0  0  0  0
 43 42  1  0  0  0  0
 44 45  1  0  0  0  0
 45 49  1  0  0  0  0
 45 40  2  0  0  0  0
 46 42  1  0  0  0  0
 47 43  1  0  0  0  0
 48 44  1  0  0  0  0
M  END
>  <minimizedAffinity>
-6.54238224

>  <minimizedRMSD>
0.686430633

$$$$
