
 OpenBabel03272507193D

 33 36  0  0  1  0  0  0  0  0999 V2000
   37.3340   31.2220   49.5040 C   0  0  0  0  0  0  0  0  0  0  0  0
   38.3360   32.1780   49.5420 C   0  0  0  0  0  0  0  0  0  0  0  0
   38.7950   32.5860   48.2700 C   0  0  0  0  0  0  0  0  0  0  0  0
   38.2670   32.0560   47.1290 N   0  0  0  0  0  0  0  0  0  0  0  0
   37.2830   31.1200   47.1480 C   0  0  0  0  0  0  0  0  0  0  0  0
   36.8130   30.6990   48.3660 N   0  0  0  0  0  0  0  0  0  0  0  0
   38.7300   32.5740   50.4580 H   0  0  0  0  0  0  0  0  0  0  0  0
   39.5780   33.3290   48.2080 H   0  0  0  0  0  0  0  0  0  0  0  0
   37.5270   30.5680   44.7940 C   0  0  0  0  0  3  0  0  0  0  0  0
   36.7270   30.5620   45.9180 C   0  0  0  0  0  0  0  0  0  0  0  0
   35.4510   30.0380   45.8500 C   0  0  0  0  0  0  0  0  0  0  0  0
   34.8480   30.0480   46.7480 H   0  0  0  0  0  0  0  0  0  0  0  0
   34.9230   29.5110   44.6890 C   0  0  0  0  0  0  0  0  0  0  0  0
   33.7450   28.9530   44.3530 N   0  0  0  0  0  0  0  0  0  0  0  0
   33.8380   28.6320   43.0510 C   0  0  0  0  0  0  0  0  0  0  0  0
   32.9670   28.1610   42.5900 H   0  0  0  0  0  0  0  0  0  0  0  0
   35.0500   28.9770   42.5680 N   0  0  0  0  0  0  0  0  0  0  0  0
   35.7530   29.5320   43.5740 C   0  0  0  0  0  0  0  0  0  0  0  0
   37.0320   30.0480   43.6140 C   0  0  0  0  0  3  0  0  0  0  0  0
   32.9760   28.8440   45.0590 H   0  0  0  0  0  0  0  0  0  0  0  0
   36.8030   30.7820   50.8330 C   0  0  1  0  0  0  0  0  0  0  0  0
   36.0850   29.5190   51.0010 C   0  0  2  0  0  0  0  0  0  0  0  0
   37.5360   29.5430   51.3780 C   0  0  0  0  0  0  0  0  0  0  0  0
   36.7280   31.6370   51.5450 H   0  0  0  0  0  0  0  0  0  0  0  0
   35.2660   29.5860   51.7760 H   0  0  0  0  0  0  0  0  0  0  0  0
   38.2210   28.9940   50.6960 H   0  0  0  0  0  0  0  0  0  0  0  0
   37.8420   29.6380   52.4250 H   0  0  0  0  0  0  0  0  0  0  0  0
   35.6940   28.8530   49.8480 O   0  0  0  0  0  0  0  0  0  0  0  0
   34.4600   28.4790   49.4330 C   0  0  0  0  0  0  0  0  0  0  0  0
   34.2820   27.5150   48.6570 O   0  0  0  0  0  0  0  0  0  0  0  0
   33.5260   29.3360   50.0160 N   0  0  0  0  0  0  0  0  0  0  0  0
   33.2300   28.7390   50.8430 H   0  0  0  0  0  0  0  0  0  0  0  0
   33.4560   30.2300   49.4470 H   0  0  0  0  0  0  0  0  0  0  0  0
  1  2  1  0  0  0  0
  1 21  1  0  0  0  0
  2  7  1  0  0  0  0
  3  2  2  0  0  0  0
  4  5  2  0  0  0  0
  4  3  1  0  0  0  0
  5  6  1  0  0  0  0
  6  1  2  0  0  0  0
  8  3  1  0  0  0  0
  9 10  1  0  0  0  0
 10  5  1  0  0  0  0
 11 10  2  0  0  0  0
 11 12  1  0  0  0  0
 13 11  1  0  0  0  0
 14 13  1  0  0  0  0
 14 20  1  0  0  0  0
 15 14  1  0  0  0  0
 16 15  1  0  0  0  0
 17 15  2  0  0  0  0
 17 18  1  0  0  0  0
 18 19  1  0  0  0  0
 18 13  2  0  0  0  0
 19  9  2  0  0  0  0
 21 22  1  0  0  0  0
 21 23  1  0  0  0  0
 21 24  1  1  0  0  0
 22 23  1  0  0  0  0
 22 25  1  1  0  0  0
 23 27  1  0  0  0  0
 26 23  1  0  0  0  0
 28 22  1  0  0  0  0
 29 28  1  0  0  0  0
 29 31  1  0  0  0  0
 30 29  2  0  0  0  0
 31 32  1  0  0  0  0
 33 31  1  0  0  0  0
M  END
>  <minimizedAffinity>
-5.61449862

>  <minimizedRMSD>
0.235011414

$$$$
