
     RDKit          3D

 40 44  0  0  0  0  0  0  0  0999 V2000
   38.9133   30.8869   45.7664 C   0  0  0  0  0  0  0  0  0  0  0  0
   40.1118   31.5063   46.0260 C   0  0  0  0  0  0  0  0  0  0  0  0
   40.9502   31.4514   44.9135 C   0  0  0  0  0  0  0  0  0  0  0  0
   40.2051   30.7881   44.0143 N   0  0  0  0  0  0  0  0  0  0  0  0
   39.0210   30.4561   44.5005 N   0  0  0  0  0  0  0  0  0  0  0  0
   37.7952   30.7457   46.6779 C   0  0  0  0  0  0  0  0  0  0  0  0
   38.0151   30.9705   48.0604 C   0  0  0  0  0  0  0  0  0  0  0  0
   36.9242   30.8290   48.9154 C   0  0  0  0  0  0  0  0  0  0  0  0
   35.7201   30.4861   48.3800 N   0  0  0  0  0  0  0  0  0  0  0  0
   35.5315   30.2754   47.0523 C   0  0  0  0  0  0  0  0  0  0  0  0
   36.5809   30.4093   46.2126 N   0  0  0  0  0  0  0  0  0  0  0  0
   37.1202   31.0578   50.3708 C   0  0  0  0  0  0  0  0  0  0  0  0
   36.6070   32.3097   50.6243 F   0  0  0  0  0  0  0  0  0  0  0  0
   36.4558   30.1298   51.1535 F   0  0  0  0  0  0  0  0  0  0  0  0
   38.4742   31.0820   50.7052 F   0  0  0  0  0  0  0  0  0  0  0  0
   40.5607   30.4280   42.6358 C   0  0  0  0  0  0  0  0  0  0  0  0
   40.1755   31.2084   41.5339 C   0  0  0  0  0  0  0  0  0  0  0  0
   40.5261   30.8314   40.2960 C   0  0  0  0  0  0  0  0  0  0  0  0
   41.2881   29.6378   40.1245 C   0  0  0  0  0  0  0  0  0  0  0  0
   41.4850   29.0632   41.8707 S   0  0  0  0  0  0  0  0  0  0  0  0
   40.3969   31.9844   46.9645 H   0  0  0  0  0  0  0  0  0  0  0  0
   41.9513   31.8262   44.7525 H   0  0  0  0  0  0  0  0  0  0  0  0
   38.9906   31.2407   48.4336 H   0  0  0  0  0  0  0  0  0  0  0  0
   34.5439   30.0055   46.7036 H   0  0  0  0  0  0  0  0  0  0  0  0
   39.5913   32.1238   41.6649 H   0  0  0  0  0  0  0  0  0  0  0  0
   40.3032   31.3265   39.3630 H   0  0  0  0  0  0  0  0  0  0  0  0
   40.9678   28.2954   38.1486 C   0  0  0  0  0  0  0  0  0  0  0  0
   41.7988   28.9918   38.9733 C   0  0  0  0  0  0  0  0  0  0  0  0
   43.1527   29.1033   38.7369 C   0  0  0  0  0  0  0  0  0  0  0  0
   43.8425   29.6390   39.3560 H   0  0  0  0  0  0  0  0  0  0  0  0
   43.6834   28.4744   37.6060 C   0  0  0  0  0  0  0  0  0  0  0  0
   44.9226   28.3761   37.0804 N   0  0  0  0  0  0  0  0  0  0  0  0
   44.8862   27.6397   35.9545 C   0  0  0  0  0  0  0  0  0  0  0  0
   45.7069   27.3679   35.2875 H   0  0  0  0  0  0  0  0  0  0  0  0
   43.5952   27.2619   35.7609 N   0  0  0  0  0  0  0  0  0  0  0  0
   42.8421   27.7672   36.7679 C   0  0  0  0  0  0  0  0  0  0  0  0
   41.4999   27.6719   37.0257 C   0  0  0  0  0  0  0  0  0  0  0  0
   39.9138   28.2517   38.3991 H   0  0  0  0  0  0  0  0  0  0  0  0
   45.7812   28.8052   37.4840 H   0  0  0  0  0  0  0  0  0  0  0  0
   40.8092   27.1272   36.3932 H   0  0  0  0  0  0  0  0  0  0  0  0
  1  2  1  0
  1  6  1  0
  3  2  2  0
  4  5  1  0
  4  3  1  0
  5  1  2  0
  6  7  2  0
  7  8  1  0
  8 12  1  0
  9  8  2  0
 10  9  1  0
 11  6  1  0
 11 10  2  0
 12 13  1  0
 12 15  1  0
 12 14  1  0
 16  4  1  0
 17 16  2  0
 18 17  1  0
 19 18  2  0
 19 20  1  0
 20 16  1  0
  2 21  1  0
  3 22  1  0
  7 23  1  0
 10 24  1  0
 17 25  1  0
 18 26  1  0
 27 28  2  0
 28 29  1  0
 29 30  1  0
 29 31  2  0
 31 32  1  0
 32 33  1  0
 33 34  1  0
 33 35  2  0
 35 36  1  0
 36 37  2  0
 37 27  1  0
 36 31  1  0
 27 38  1  0
 32 39  1  0
 37 40  1  0
 19 28  1  0
M  ISO  8  21  14  22  14  23  14  24  14  25  14  26  14  30  15  34  14
M  END
>  <DihAtoms>  (1) 
17,18,27,26

>  <DihDeg>  (1) 
0.0008257027254273231

$$$$
