
 OpenBabel03272509213D

 49 54  0  0  0  0  0  0  0  0999 V2000
   40.0390   30.9400   44.0800 C   0  0  0  0  0  0  0  0  0  0  0  0
   39.5130   31.7520   45.0730 C   0  0  0  0  0  0  0  0  0  0  0  0
   38.4180   32.5410   44.7640 C   0  0  0  0  0  0  0  0  0  0  0  0
   37.8430   32.5320   43.4890 C   0  0  0  0  0  0  0  0  0  0  0  0
   36.8090   33.1620   42.8990 N   0  0  0  0  0  0  0  0  0  0  0  0
   36.6920   32.7710   41.6180 C   0  0  0  0  0  0  0  0  0  0  0  0
   37.6850   31.8630   41.3880 N   0  0  0  0  0  0  0  0  0  0  0  0
   38.3960   31.7100   42.5330 C   0  0  0  0  0  0  0  0  0  0  0  0
   39.4810   30.9230   42.8220 C   0  0  0  0  0  0  0  0  0  0  0  0
   40.8880   30.3660   44.4160 H   0  0  0  0  0  0  0  0  0  0  0  0
   37.8980   33.2260   45.4350 H   0  0  0  0  0  0  0  0  0  0  0  0
   36.1860   33.8560   43.3680 H   0  0  0  0  0  0  0  0  0  0  0  0
   35.9540   33.1140   40.9140 H   0  0  0  0  0  0  0  0  0  0  0  0
   41.0910   30.3750   40.9690 C   0  0  0  0  0  3  0  0  0  0  0  0
   40.0870   30.0430   41.8260 C   0  0  0  0  0  0  0  0  0  0  0  0
   39.5640   28.7660   41.7850 C   0  0  0  0  0  0  0  0  0  0  0  0
   38.7550   28.4240   42.4440 H   0  0  0  0  0  0  0  0  0  0  0  0
   40.0700   27.8540   40.8760 C   0  0  0  0  0  0  0  0  0  0  0  0
   39.7570   26.5700   40.6190 N   0  0  0  0  0  0  0  0  0  0  0  0
   40.5590   26.1150   39.6160 C   0  0  0  0  0  0  0  0  0  0  0  0
   40.6040   25.1420   39.1390 H   0  0  0  0  0  0  0  0  0  0  0  0
   41.3990   27.1170   39.2190 N   0  0  0  0  0  0  0  0  0  0  0  0
   41.0990   28.1790   39.9890 C   0  0  0  0  0  0  0  0  0  0  0  0
   41.6110   29.4780   40.0510 C   0  0  0  0  0  3  0  0  0  0  0  0
   39.0240   25.9820   41.0930 H   0  0  0  0  0  0  0  0  0  0  0  0
   39.9030   31.9230   46.3680 O   0  0  0  0  0  0  0  0  0  0  0  0
   38.1170   31.3580   47.9050 C   0  0  0  0  0  0  0  0  0  0  0  0
   37.2830   31.5760   48.9880 C   0  0  0  0  0  0  0  0  0  0  0  0
   37.5130   32.7840   49.6550 C   0  0  0  0  0  0  0  0  0  0  0  0
   38.5060   33.6800   49.2440 C   0  0  0  0  0  0  0  0  0  0  0  0
   39.3040   33.3610   48.1230 C   0  0  0  0  0  0  0  0  0  0  0  0
   39.0860   32.1620   47.4500 C   0  0  0  0  0  0  0  0  0  0  0  0
   36.8840   33.0030   50.5140 H   0  0  0  0  0  0  0  0  0  0  0  0
   38.6580   34.6020   49.7810 H   0  0  0  0  0  0  0  0  0  0  0  0
   40.0650   34.0580   47.8160 H   0  0  0  0  0  0  0  0  0  0  0  0
   35.1390   30.4700   48.6320 C   0  0  0  0  0  0  0  0  0  0  0  0
   36.2710   30.6690   49.4120 C   0  0  0  0  0  0  0  0  0  0  0  0
   36.3620   29.9460   50.6130 C   0  0  0  0  0  0  0  0  0  0  0  0
   35.3540   29.1010   50.9460 N   0  0  0  0  0  0  0  0  0  0  0  0
   34.2650   28.9410   50.1470 C   0  0  0  0  0  0  0  0  0  0  0  0
   34.1670   29.6230   49.0030 N   0  0  0  0  0  0  0  0  0  0  0  0
   34.9720   30.9750   47.6930 H   0  0  0  0  0  0  0  0  0  0  0  0
   33.5810   28.2210   50.5960 H   0  0  0  0  0  0  0  0  0  0  0  0
   37.5510   30.1180   51.4910 C   0  0  0  0  0  0  0  0  0  0  0  0
   38.3860   29.4640   51.1700 H   0  0  0  0  0  0  0  0  0  0  0  0
   37.2820   29.8550   52.5360 H   0  0  0  0  0  0  0  0  0  0  0  0
   37.8120   31.1850   51.5030 H   0  0  0  0  0  0  0  0  0  0  0  0
   37.9630   30.1770   47.1750 O   0  0  0  0  0  0  0  0  0  0  0  0
   38.7320   29.5460   47.1590 H   0  0  0  0  0  0  0  0  0  0  0  0
  1 10  1  0  0  0  0
  1  2  1  0  0  0  0
  2 26  1  0  0  0  0
  3  2  2  0  0  0  0
  3 11  1  0  0  0  0
  4  3  1  0  0  0  0
  5 12  1  0  0  0  0
  5  4  1  0  0  0  0
  6  5  1  0  0  0  0
  7  6  2  0  0  0  0
  7  8  1  0  0  0  0
  8  9  1  0  0  0  0
  8  4  2  0  0  0  0
  9  1  2  0  0  0  0
 13  6  1  0  0  0  0
 14 15  1  0  0  0  0
 15  9  1  0  0  0  0
 16 15  2  0  0  0  0
 16 17  1  0  0  0  0
 18 16  1  0  0  0  0
 19 18  1  0  0  0  0
 19 25  1  0  0  0  0
 20 19  1  0  0  0  0
 21 20  1  0  0  0  0
 22 20  2  0  0  0  0
 22 23  1  0  0  0  0
 23 24  1  0  0  0  0
 23 18  2  0  0  0  0
 24 14  2  0  0  0  0
 26 32  1  0  0  0  0
 27 28  1  0  0  0  0
 28 37  1  0  0  0  0
 28 29  2  0  0  0  0
 29 33  1  0  0  0  0
 30 29  1  0  0  0  0
 30 34  1  0  0  0  0
 31 30  2  0  0  0  0
 32 27  2  0  0  0  0
 32 31  1  0  0  0  0
 35 31  1  0  0  0  0
 36 41  2  0  0  0  0
 36 37  1  0  0  0  0
 37 38  2  0  0  0  0
 38 39  1  0  0  0  0
 38 44  1  0  0  0  0
 40 43  1  0  0  0  0
 40 39  2  0  0  0  0
 41 40  1  0  0  0  0
 42 36  1  0  0  0  0
 44 47  1  0  0  0  0
 44 46  1  0  0  0  0
 45 44  1  0  0  0  0
 48 27  1  0  0  0  0
 49 48  1  0  0  0  0
M  END
>  <minimizedAffinity>
-7.92314529

>  <minimizedRMSD>
0.954038084

$$$$
