
 OpenBabel03272510013D

 24 26  0  0  0  0  0  0  0  0999 V2000
   38.2860   31.2830   50.4590 C   0  0  0  0  0  0  0  0  0  0  0  0
   38.4910   31.5730   49.1090 C   0  0  0  0  0  0  0  0  0  0  0  0
   37.5550   31.1080   48.1970 C   0  0  0  0  0  0  0  0  0  0  0  0
   36.4980   30.4010   48.6590 N   0  0  0  0  0  0  0  0  0  0  0  0
   36.3300   30.1370   49.9770 C   0  0  0  0  0  0  0  0  0  0  0  0
   37.2300   30.5830   50.8680 N   0  0  0  0  0  0  0  0  0  0  0  0
   39.0430   31.6670   51.1360 H   0  0  0  0  0  0  0  0  0  0  0  0
   39.3310   32.1290   48.7750 H   0  0  0  0  0  0  0  0  0  0  0  0
   36.7870   30.6550   45.9470 C   0  0  0  0  0  3  0  0  0  0  0  0
   37.6570   31.3440   46.7660 C   0  0  0  0  0  0  0  0  0  0  0  0
   38.5540   32.1970   46.1970 C   0  0  0  0  0  0  0  0  0  0  0  0
   39.2380   32.7410   46.7990 H   0  0  0  0  0  0  0  0  0  0  0  0
   38.6480   32.4180   44.8340 C   0  0  0  0  0  0  0  0  0  0  0  0
   39.4550   33.2110   44.0840 N   0  0  0  0  0  0  0  0  0  0  0  0
   39.0920   33.0200   42.7990 C   0  0  0  0  0  0  0  0  0  0  0  0
   39.6210   33.5660   42.0320 H   0  0  0  0  0  0  0  0  0  0  0  0
   38.0760   32.1230   42.7460 N   0  0  0  0  0  0  0  0  0  0  0  0
   37.7720   31.7270   43.9950 C   0  0  0  0  0  0  0  0  0  0  0  0
   36.8510   30.8530   44.5650 C   0  0  0  0  0  3  0  0  0  0  0  0
   40.2120   33.8410   44.4840 H   0  0  0  0  0  0  0  0  0  0  0  0
   35.1310   29.3540   50.3630 C   0  0  0  0  0  0  0  0  0  0  0  0
   35.1260   29.0510   51.7230 F   0  0  0  0  0  0  0  0  0  0  0  0
   33.9610   30.0630   50.1350 F   0  0  0  0  0  0  0  0  0  0  0  0
   35.0050   28.1660   49.6920 F   0  0  0  0  0  0  0  0  0  0  0  0
  1  6  1  0  0  0  0
  1  7  1  0  0  0  0
  2  1  2  0  0  0  0
  3  4  2  0  0  0  0
  3  2  1  0  0  0  0
  4  5  1  0  0  0  0
  5 21  1  0  0  0  0
  5  6  2  0  0  0  0
  8  2  1  0  0  0  0
  9 10  1  0  0  0  0
 10  3  1  0  0  0  0
 11 10  2  0  0  0  0
 11 12  1  0  0  0  0
 13 11  1  0  0  0  0
 14 20  1  0  0  0  0
 14 13  1  0  0  0  0
 15 14  1  0  0  0  0
 16 15  1  0  0  0  0
 17 15  2  0  0  0  0
 17 18  1  0  0  0  0
 18 19  1  0  0  0  0
 18 13  2  0  0  0  0
 19  9  2  0  0  0  0
 21 22  1  0  0  0  0
 23 21  1  0  0  0  0
 24 21  1  0  0  0  0
M  END
>  <minimizedAffinity>
-6.10515594

>  <minimizedRMSD>
0.716120839

$$$$
