
 OpenBabel03272509053D

 36 39  0  0  0  0  0  0  0  0999 V2000
   37.4270   30.2740   51.3300 C   0  0  0  0  0  0  0  0  0  0  0  0
   38.0700   30.8030   50.1920 C   0  0  0  0  0  0  0  0  0  0  0  0
   37.5690   30.4800   48.9160 C   0  0  0  0  0  0  0  0  0  0  0  0
   36.4740   29.6620   48.8970 N   0  0  0  0  0  0  0  0  0  0  0  0
   35.8930   29.1800   49.9890 C   0  0  0  0  0  0  0  0  0  0  0  0
   36.3590   29.4780   51.2130 N   0  0  0  0  0  0  0  0  0  0  0  0
   37.8350   30.5400   52.2810 H   0  0  0  0  0  0  0  0  0  0  0  0
   38.9120   31.4310   50.2810 H   0  0  0  0  0  0  0  0  0  0  0  0
   38.1800   30.2730   46.5050 C   0  0  0  0  0  3  0  0  0  0  0  0
   38.1620   30.9770   47.6830 C   0  0  0  0  0  0  0  0  0  0  0  0
   38.7390   32.2280   47.7070 C   0  0  0  0  0  0  0  0  0  0  0  0
   38.7800   32.8620   48.5750 H   0  0  0  0  0  0  0  0  0  0  0  0
   39.3100   32.7120   46.5300 C   0  0  0  0  0  0  0  0  0  0  0  0
   39.9380   33.8640   46.2220 N   0  0  0  0  0  0  0  0  0  0  0  0
   40.3160   33.8540   44.9200 C   0  0  0  0  0  0  0  0  0  0  0  0
   40.8350   34.5920   44.3240 H   0  0  0  0  0  0  0  0  0  0  0  0
   39.9300   32.6910   44.3870 N   0  0  0  0  0  0  0  0  0  0  0  0
   39.3160   31.9780   45.3460 C   0  0  0  0  0  0  0  0  0  0  0  0
   38.7250   30.7090   45.3400 C   0  0  0  0  0  3  0  0  0  0  0  0
   40.1200   34.6610   46.8690 H   0  0  0  0  0  0  0  0  0  0  0  0
   34.7570   28.3270   49.7640 C   0  0  0  0  0  3  0  0  0  0  0  0
   34.3720   28.0610   48.5660 C   0  0  0  0  0  3  0  0  0  0  0  0
   33.2630   27.2200   48.1020 C   0  0  0  0  0  0  0  0  0  0  0  0
   32.8400   26.7050   48.9910 H   0  0  0  0  0  0  0  0  0  0  0  0
   32.4380   27.8090   47.6540 H   0  0  0  0  0  0  0  0  0  0  0  0
   33.6780   26.1950   47.0920 C   0  0  0  0  0  0  0  0  0  0  0  0
   33.8840   24.8520   47.3540 C   0  0  0  0  0  0  0  0  0  0  0  0
   34.2640   24.0050   46.3210 C   0  0  0  0  0  0  0  0  0  0  0  0
   34.4410   24.4910   45.0140 C   0  0  0  0  0  0  0  0  0  0  0  0
   34.2360   25.8180   44.7620 C   0  0  0  0  0  0  0  0  0  0  0  0
   33.8600   26.6540   45.7900 C   0  0  0  0  0  0  0  0  0  0  0  0
   33.7350   24.5280   48.3700 H   0  0  0  0  0  0  0  0  0  0  0  0
   34.4070   22.9640   46.6050 H   0  0  0  0  0  0  0  0  0  0  0  0
   34.7390   23.7740   44.2510 H   0  0  0  0  0  0  0  0  0  0  0  0
   34.3880   26.1340   43.7400 H   0  0  0  0  0  0  0  0  0  0  0  0
   33.7050   27.6990   45.5550 H   0  0  0  0  0  0  0  0  0  0  0  0
  1  7  1  0  0  0  0
  2  8  1  0  0  0  0
  2  1  2  0  0  0  0
  3  2  1  0  0  0  0
  4  3  2  0  0  0  0
  4  5  1  0  0  0  0
  5  6  2  0  0  0  0
  6  1  1  0  0  0  0
  9 10  1  0  0  0  0
 10 11  2  0  0  0  0
 10  3  1  0  0  0  0
 11 12  1  0  0  0  0
 13 11  1  0  0  0  0
 14 13  1  0  0  0  0
 14 20  1  0  0  0  0
 15 14  1  0  0  0  0
 16 15  1  0  0  0  0
 17 15  2  0  0  0  0
 17 18  1  0  0  0  0
 18 13  2  0  0  0  0
 19 18  1  0  0  0  0
 19  9  2  0  0  0  0
 21  5  1  0  0  0  0
 22 21  2  0  0  0  0
 23 22  1  0  0  0  0
 23 24  1  0  0  0  0
 25 23  1  0  0  0  0
 26 27  1  0  0  0  0
 26 23  1  0  0  0  0
 27 32  1  0  0  0  0
 28 33  1  0  0  0  0
 28 27  2  0  0  0  0
 29 28  1  0  0  0  0
 30 29  2  0  0  0  0
 30 31  1  0  0  0  0
 31 26  2  0  0  0  0
 34 29  1  0  0  0  0
 35 30  1  0  0  0  0
 36 31  1  0  0  0  0
M  END
>  <minimizedAffinity>
-6.93413782

>  <minimizedRMSD>
0.373393446

$$$$
