
 OpenBabel03272500033D

 31 34  0  0  0  0  0  0  0  0999 V2000
   38.4480   26.6750   35.9570 C   0  0  0  0  0  0  0  0  0  0  0  0
   38.4660   25.4230   35.3130 C   0  0  0  0  0  0  0  0  0  0  0  0
   37.7200   25.2840   34.1310 C   0  0  0  0  0  0  0  0  0  0  0  0
   37.0240   26.3540   33.6690 N   0  0  0  0  0  0  0  0  0  0  0  0
   37.0240   27.5350   34.2990 C   0  0  0  0  0  0  0  0  0  0  0  0
   37.7350   27.7050   35.4480 N   0  0  0  0  0  0  0  0  0  0  0  0
   39.0190   26.7740   36.8600 H   0  0  0  0  0  0  0  0  0  0  0  0
   37.7340   24.3340   33.6440 H   0  0  0  0  0  0  0  0  0  0  0  0
   35.6900   29.5600   34.7330 C   0  0  0  0  0  3  0  0  0  0  0  0
   36.2760   28.6920   33.8070 C   0  0  0  0  0  0  0  0  0  0  0  0
   36.1270   28.9600   32.4560 C   0  0  0  0  0  0  0  0  0  0  0  0
   36.5920   28.2720   31.7440 H   0  0  0  0  0  0  0  0  0  0  0  0
   35.3990   30.0840   32.0490 C   0  0  0  0  0  0  0  0  0  0  0  0
   35.1490   30.5040   30.7860 N   0  0  0  0  0  0  0  0  0  0  0  0
   34.4080   31.6330   30.9000 C   0  0  0  0  0  0  0  0  0  0  0  0
   34.0230   32.2460   30.0950 H   0  0  0  0  0  0  0  0  0  0  0  0
   34.2190   31.8820   32.2260 N   0  0  0  0  0  0  0  0  0  0  0  0
   34.8240   30.9340   32.9710 C   0  0  0  0  0  0  0  0  0  0  0  0
   34.9710   30.6710   34.3180 C   0  0  0  0  0  3  0  0  0  0  0  0
   35.4690   30.0410   29.8900 H   0  0  0  0  0  0  0  0  0  0  0  0
   39.2330   24.3790   35.8970 N   0  0  0  0  0  0  0  0  0  0  0  0
   40.5050   24.1340   35.5020 C   0  0  0  0  0  0  0  0  0  0  0  0
   41.2310   23.1050   36.0930 C   0  0  0  0  0  0  0  0  0  0  0  0
   40.5410   22.4160   37.0610 C   0  0  0  0  0  0  0  0  0  0  0  0
   41.1820   21.4650   37.6210 O   0  0  0  0  0  0  0  0  0  0  0  0
   39.2890   22.6340   37.4720 N   0  0  0  0  0  0  0  0  0  0  0  0
   38.6410   23.6490   36.8560 C   0  0  0  0  0  0  0  0  0  0  0  0
   37.4480   23.8780   37.2290 O   0  0  0  0  0  0  0  0  0  0  0  0
   40.9660   24.7290   34.7310 H   0  0  0  0  0  0  0  0  0  0  0  0
   42.2490   22.8620   35.8190 H   0  0  0  0  0  0  0  0  0  0  0  0
   38.8590   22.0490   38.2190 H   0  0  0  0  0  0  0  0  0  0  0  0
  1  7  1  0  0  0  0
  2 21  1  0  0  0  0
  2  1  2  0  0  0  0
  3  2  1  0  0  0  0
  4  3  2  0  0  0  0
  4  5  1  0  0  0  0
  5  6  2  0  0  0  0
  6  1  1  0  0  0  0
  8  3  1  0  0  0  0
 10  5  1  0  0  0  0
 10  9  2  0  0  0  0
 11 10  1  0  0  0  0
 12 11  1  0  0  0  0
 13 11  2  0  0  0  0
 13 18  1  0  0  0  0
 14 15  1  0  0  0  0
 14 13  1  0  0  0  0
 15 17  2  0  0  0  0
 16 15  1  0  0  0  0
 17 18  1  0  0  0  0
 18 19  2  0  0  0  0
 19  9  1  0  0  0  0
 20 14  1  0  0  0  0
 21 27  1  0  0  0  0
 22 21  1  0  0  0  0
 22 23  2  0  0  0  0
 23 24  1  0  0  0  0
 24 26  1  0  0  0  0
 24 25  2  0  0  0  0
 26 31  1  0  0  0  0
 27 28  2  0  0  0  0
 27 26  1  0  0  0  0
 29 22  1  0  0  0  0
 30 23  1  0  0  0  0
M  END
>  <minimizedAffinity>
-6.15506411

$$$$

 OpenBabel03272500033D

 31 34  0  0  0  0  0  0  0  0999 V2000
   38.4440   26.5690   35.8650 C   0  0  0  0  0  0  0  0  0  0  0  0
   38.5190   25.3060   35.2470 C   0  0  0  0  0  0  0  0  0  0  0  0
   37.8280   25.1240   34.0380 C   0  0  0  0  0  0  0  0  0  0  0  0
   37.1260   26.1670   33.5260 N   0  0  0  0  0  0  0  0  0  0  0  0
   37.0700   27.3600   34.1310 C   0  0  0  0  0  0  0  0  0  0  0  0
   37.7270   27.5700   35.3040 N   0  0  0  0  0  0  0  0  0  0  0  0
   38.9730   26.6990   36.7890 H   0  0  0  0  0  0  0  0  0  0  0  0
   37.8870   24.1660   33.5710 H   0  0  0  0  0  0  0  0  0  0  0  0
   36.3020   28.6820   32.2000 C   0  0  0  0  0  3  0  0  0  0  0  0
   36.3150   28.4870   33.5850 C   0  0  0  0  0  0  0  0  0  0  0  0
   35.6140   29.3700   34.3880 C   0  0  0  0  0  0  0  0  0  0  0  0
   35.6330   29.2050   35.4690 H   0  0  0  0  0  0  0  0  0  0  0  0
   34.9110   30.4310   33.8030 C   0  0  0  0  0  0  0  0  0  0  0  0
   34.1750   31.3850   34.4200 N   0  0  0  0  0  0  0  0  0  0  0  0
   33.6920   32.1870   33.4400 C   0  0  0  0  0  0  0  0  0  0  0  0
   33.0600   33.0570   33.5590 H   0  0  0  0  0  0  0  0  0  0  0  0
   34.1400   31.7100   32.2440 N   0  0  0  0  0  0  0  0  0  0  0  0
   34.9040   30.6140   32.4360 C   0  0  0  0  0  0  0  0  0  0  0  0
   35.6020   29.7360   31.6320 C   0  0  0  0  0  3  0  0  0  0  0  0
   34.0110   31.4840   35.4610 H   0  0  0  0  0  0  0  0  0  0  0  0
   39.2870   24.2930   35.8840 N   0  0  0  0  0  0  0  0  0  0  0  0
   40.5770   24.0650   35.5400 C   0  0  0  0  0  0  0  0  0  0  0  0
   41.3030   23.0680   36.1820 C   0  0  0  0  0  0  0  0  0  0  0  0
   40.5930   22.3880   37.1420 C   0  0  0  0  0  0  0  0  0  0  0  0
   41.2340   21.4640   37.7480 O   0  0  0  0  0  0  0  0  0  0  0  0
   39.3230   22.5890   37.5030 N   0  0  0  0  0  0  0  0  0  0  0  0
   38.6770   23.5740   36.8390 C   0  0  0  0  0  0  0  0  0  0  0  0
   37.4660   23.7860   37.1640 O   0  0  0  0  0  0  0  0  0  0  0  0
   41.0530   24.6520   34.7710 H   0  0  0  0  0  0  0  0  0  0  0  0
   42.3350   22.8400   35.9500 H   0  0  0  0  0  0  0  0  0  0  0  0
   38.8790   22.0130   38.2490 H   0  0  0  0  0  0  0  0  0  0  0  0
  1  7  1  0  0  0  0
  2  1  2  0  0  0  0
  2 21  1  0  0  0  0
  3  2  1  0  0  0  0
  4  3  2  0  0  0  0
  4  5  1  0  0  0  0
  5  6  2  0  0  0  0
  6  1  1  0  0  0  0
  8  3  1  0  0  0  0
  9 10  1  0  0  0  0
 10  5  1  0  0  0  0
 10 11  2  0  0  0  0
 11 12  1  0  0  0  0
 13 11  1  0  0  0  0
 13 14  1  0  0  0  0
 14 20  1  0  0  0  0
 15 16  1  0  0  0  0
 15 14  1  0  0  0  0
 17 18  1  0  0  0  0
 17 15  2  0  0  0  0
 18 13  2  0  0  0  0
 19  9  2  0  0  0  0
 19 18  1  0  0  0  0
 21 27  1  0  0  0  0
 22 21  1  0  0  0  0
 22 23  2  0  0  0  0
 23 24  1  0  0  0  0
 24 26  1  0  0  0  0
 24 25  2  0  0  0  0
 26 31  1  0  0  0  0
 27 28  2  0  0  0  0
 27 26  1  0  0  0  0
 29 22  1  0  0  0  0
 30 23  1  0  0  0  0
M  END
>  <minimizedAffinity>
-6.06435442

$$$$

 OpenBabel03272500033D

 31 34  0  0  0  0  0  0  0  0999 V2000
   38.4590   26.7240   36.0330 C   0  0  0  0  0  0  0  0  0  0  0  0
   38.4460   25.4560   35.4210 C   0  0  0  0  0  0  0  0  0  0  0  0
   37.7000   25.3050   34.2410 C   0  0  0  0  0  0  0  0  0  0  0  0
   37.0340   26.3800   33.7490 N   0  0  0  0  0  0  0  0  0  0  0  0
   37.0620   27.5770   34.3480 C   0  0  0  0  0  0  0  0  0  0  0  0
   37.7740   27.7580   35.4940 N   0  0  0  0  0  0  0  0  0  0  0  0
   39.0290   26.8310   36.9360 H   0  0  0  0  0  0  0  0  0  0  0  0
   37.6920   24.3430   33.7780 H   0  0  0  0  0  0  0  0  0  0  0  0
   35.7820   29.6470   34.7240 C   0  0  0  0  0  3  0  0  0  0  0  0
   36.3470   28.7390   33.8230 C   0  0  0  0  0  0  0  0  0  0  0  0
   36.2070   28.9750   32.4660 C   0  0  0  0  0  0  0  0  0  0  0  0
   36.6540   28.2550   31.7730 H   0  0  0  0  0  0  0  0  0  0  0  0
   35.5090   30.1070   32.0260 C   0  0  0  0  0  0  0  0  0  0  0  0
   35.2720   30.4990   30.7520 N   0  0  0  0  0  0  0  0  0  0  0  0
   34.5610   31.6500   30.8340 C   0  0  0  0  0  0  0  0  0  0  0  0
   34.1940   32.2500   30.0120 H   0  0  0  0  0  0  0  0  0  0  0  0
   34.3770   31.9400   32.1530 N   0  0  0  0  0  0  0  0  0  0  0  0
   34.9560   30.9960   32.9240 C   0  0  0  0  0  0  0  0  0  0  0  0
   35.0940   30.7650   34.2780 C   0  0  0  0  0  3  0  0  0  0  0  0
   35.5820   30.0030   29.8700 H   0  0  0  0  0  0  0  0  0  0  0  0
   39.1840   24.4080   36.0360 N   0  0  0  0  0  0  0  0  0  0  0  0
   38.7220   23.7730   37.1390 C   0  0  0  0  0  0  0  0  0  0  0  0
   39.4670   22.7520   37.7170 C   0  0  0  0  0  0  0  0  0  0  0  0
   40.6520   22.4870   37.0740 C   0  0  0  0  0  0  0  0  0  0  0  0
   41.3590   21.5540   37.5830 O   0  0  0  0  0  0  0  0  0  0  0  0
   41.1350   23.0960   35.9870 N   0  0  0  0  0  0  0  0  0  0  0  0
   40.3590   24.0780   35.4760 C   0  0  0  0  0  0  0  0  0  0  0  0
   40.7950   24.6730   34.4400 O   0  0  0  0  0  0  0  0  0  0  0  0
   37.7760   24.0490   37.5760 H   0  0  0  0  0  0  0  0  0  0  0  0
   39.1490   22.2080   38.5980 H   0  0  0  0  0  0  0  0  0  0  0  0
   42.0500   22.8150   35.5760 H   0  0  0  0  0  0  0  0  0  0  0  0
  1  7  1  0  0  0  0
  2  1  2  0  0  0  0
  2 21  1  0  0  0  0
  3  2  1  0  0  0  0
  4  3  2  0  0  0  0
  4  5  1  0  0  0  0
  5  6  2  0  0  0  0
  6  1  1  0  0  0  0
  8  3  1  0  0  0  0
 10  5  1  0  0  0  0
 10  9  2  0  0  0  0
 11 10  1  0  0  0  0
 12 11  1  0  0  0  0
 13 11  2  0  0  0  0
 13 18  1  0  0  0  0
 14 15  1  0  0  0  0
 14 13  1  0  0  0  0
 15 17  2  0  0  0  0
 16 15  1  0  0  0  0
 17 18  1  0  0  0  0
 18 19  2  0  0  0  0
 19  9  1  0  0  0  0
 20 14  1  0  0  0  0
 21 22  1  0  0  0  0
 22 29  1  0  0  0  0
 22 23  2  0  0  0  0
 23 30  1  0  0  0  0
 24 25  2  0  0  0  0
 24 23  1  0  0  0  0
 26 24  1  0  0  0  0
 27 26  1  0  0  0  0
 27 21  1  0  0  0  0
 28 27  2  0  0  0  0
 31 26  1  0  0  0  0
M  END
>  <minimizedAffinity>
-5.71722364

$$$$

 OpenBabel03272500033D

 31 34  0  0  0  0  0  0  0  0999 V2000
   40.3420   25.2560   34.8170 C   0  0  0  0  0  0  0  0  0  0  0  0
   39.7340   24.0090   35.0620 C   0  0  0  0  0  0  0  0  0  0  0  0
   38.4280   23.8110   34.5860 C   0  0  0  0  0  0  0  0  0  0  0  0
   37.8190   24.8220   33.9150 N   0  0  0  0  0  0  0  0  0  0  0  0
   38.4180   25.9980   33.6930 C   0  0  0  0  0  0  0  0  0  0  0  0
   39.6830   26.2250   34.1410 N   0  0  0  0  0  0  0  0  0  0  0  0
   41.3400   25.4000   35.1850 H   0  0  0  0  0  0  0  0  0  0  0  0
   37.9690   22.8660   34.7730 H   0  0  0  0  0  0  0  0  0  0  0  0
   36.6350   27.6900   33.5320 C   0  0  0  0  0  3  0  0  0  0  0  0
   37.7670   27.0910   32.9710 C   0  0  0  0  0  0  0  0  0  0  0  0
   38.2290   27.5540   31.7510 C   0  0  0  0  0  0  0  0  0  0  0  0
   39.1160   27.0760   31.3240 H   0  0  0  0  0  0  0  0  0  0  0  0
   37.5610   28.6050   31.1100 C   0  0  0  0  0  0  0  0  0  0  0  0
   37.8620   29.1860   29.9240 N   0  0  0  0  0  0  0  0  0  0  0  0
   36.9320   30.1510   29.7260 C   0  0  0  0  0  0  0  0  0  0  0  0
   36.8580   30.8230   28.8810 H   0  0  0  0  0  0  0  0  0  0  0  0
   36.0810   30.1430   30.7900 N   0  0  0  0  0  0  0  0  0  0  0  0
   36.4450   29.1890   31.6720 C   0  0  0  0  0  0  0  0  0  0  0  0
   35.9810   28.7300   32.8880 C   0  0  0  0  0  3  0  0  0  0  0  0
   38.6660   28.9350   29.2830 H   0  0  0  0  0  0  0  0  0  0  0  0
   40.4770   23.0310   35.7780 N   0  0  0  0  0  0  0  0  0  0  0  0
   41.5550   22.4230   35.2270 C   0  0  0  0  0  0  0  0  0  0  0  0
   42.2620   21.4700   35.9530 C   0  0  0  0  0  0  0  0  0  0  0  0
   41.7620   21.2380   37.2110 C   0  0  0  0  0  0  0  0  0  0  0  0
   42.3900   20.3670   37.9010 O   0  0  0  0  0  0  0  0  0  0  0  0
   40.7030   21.8210   37.7810 N   0  0  0  0  0  0  0  0  0  0  0  0
   40.0630   22.7370   37.0210 C   0  0  0  0  0  0  0  0  0  0  0  0
   39.0510   23.3070   37.5390 O   0  0  0  0  0  0  0  0  0  0  0  0
   41.8750   22.6700   34.2290 H   0  0  0  0  0  0  0  0  0  0  0  0
   43.1290   20.9510   35.5670 H   0  0  0  0  0  0  0  0  0  0  0  0
   40.4070   21.5700   38.7480 H   0  0  0  0  0  0  0  0  0  0  0  0
  1  2  1  0  0  0  0
  1  7  1  0  0  0  0
  2 21  1  0  0  0  0
  3  8  1  0  0  0  0
  3  2  2  0  0  0  0
  4  3  1  0  0  0  0
  5  4  2  0  0  0  0
  5  6  1  0  0  0  0
  6  1  2  0  0  0  0
 10  9  1  0  0  0  0
 10  5  1  0  0  0  0
 11 10  2  0  0  0  0
 12 11  1  0  0  0  0
 13 18  2  0  0  0  0
 13 11  1  0  0  0  0
 14 13  1  0  0  0  0
 15 14  1  0  0  0  0
 15 17  2  0  0  0  0
 16 15  1  0  0  0  0
 17 18  1  0  0  0  0
 18 19  1  0  0  0  0
 19  9  2  0  0  0  0
 20 14  1  0  0  0  0
 21 27  1  0  0  0  0
 22 21  1  0  0  0  0
 22 23  2  0  0  0  0
 23 24  1  0  0  0  0
 24 26  1  0  0  0  0
 24 25  2  0  0  0  0
 26 31  1  0  0  0  0
 27 28  2  0  0  0  0
 27 26  1  0  0  0  0
 29 22  1  0  0  0  0
 30 23  1  0  0  0  0
M  END
>  <minimizedAffinity>
-5.69873619

$$$$

 OpenBabel03272500033D

 31 34  0  0  0  0  0  0  0  0999 V2000
   38.4160   26.6990   35.9280 C   0  0  0  0  0  0  0  0  0  0  0  0
   38.4290   25.4100   35.3610 C   0  0  0  0  0  0  0  0  0  0  0  0
   37.7150   25.2110   34.1680 C   0  0  0  0  0  0  0  0  0  0  0  0
   37.0540   26.2630   33.6210 N   0  0  0  0  0  0  0  0  0  0  0  0
   37.0570   27.4800   34.1780 C   0  0  0  0  0  0  0  0  0  0  0  0
   37.7370   27.7080   35.3350 N   0  0  0  0  0  0  0  0  0  0  0  0
   38.9620   26.8430   36.8400 H   0  0  0  0  0  0  0  0  0  0  0  0
   37.7270   24.2330   33.7390 H   0  0  0  0  0  0  0  0  0  0  0  0
   36.4110   28.8150   32.2120 C   0  0  0  0  0  3  0  0  0  0  0  0
   36.3460   28.6170   33.5940 C   0  0  0  0  0  0  0  0  0  0  0  0
   35.6110   29.5060   34.3610 C   0  0  0  0  0  0  0  0  0  0  0  0
   35.5700   29.3380   35.4410 H   0  0  0  0  0  0  0  0  0  0  0  0
   34.9530   30.5760   33.7410 C   0  0  0  0  0  0  0  0  0  0  0  0
   34.1950   31.5370   34.3190 N   0  0  0  0  0  0  0  0  0  0  0  0
   33.7760   32.3460   33.3170 C   0  0  0  0  0  0  0  0  0  0  0  0
   33.1480   33.2240   33.4040 H   0  0  0  0  0  0  0  0  0  0  0  0
   34.2840   31.8670   32.1460 N   0  0  0  0  0  0  0  0  0  0  0  0
   35.0240   30.7630   32.3760 C   0  0  0  0  0  0  0  0  0  0  0  0
   35.7550   29.8780   31.6090 C   0  0  0  0  0  3  0  0  0  0  0  0
   33.9750   31.6350   35.3500 H   0  0  0  0  0  0  0  0  0  0  0  0
   39.1590   24.3910   36.0310 N   0  0  0  0  0  0  0  0  0  0  0  0
   38.6700   23.7870   37.1400 C   0  0  0  0  0  0  0  0  0  0  0  0
   39.4080   22.7930   37.7740 C   0  0  0  0  0  0  0  0  0  0  0  0
   40.6140   22.5210   37.1740 C   0  0  0  0  0  0  0  0  0  0  0  0
   41.3140   21.6120   37.7340 O   0  0  0  0  0  0  0  0  0  0  0  0
   41.1230   23.0990   36.0820 N   0  0  0  0  0  0  0  0  0  0  0  0
   40.3530   24.0560   35.5160 C   0  0  0  0  0  0  0  0  0  0  0  0
   40.8140   24.6210   34.4750 O   0  0  0  0  0  0  0  0  0  0  0  0
   37.7100   24.0670   37.5410 H   0  0  0  0  0  0  0  0  0  0  0  0
   39.0700   22.2760   38.6620 H   0  0  0  0  0  0  0  0  0  0  0  0
   42.0530   22.8150   35.7080 H   0  0  0  0  0  0  0  0  0  0  0  0
  1  7  1  0  0  0  0
  2  1  1  0  0  0  0
  2 21  1  0  0  0  0
  3  2  2  0  0  0  0
  4  3  1  0  0  0  0
  4  5  2  0  0  0  0
  5  6  1  0  0  0  0
  6  1  2  0  0  0  0
  8  3  1  0  0  0  0
  9 10  1  0  0  0  0
 10  5  1  0  0  0  0
 10 11  2  0  0  0  0
 11 12  1  0  0  0  0
 13 14  1  0  0  0  0
 13 11  1  0  0  0  0
 14 20  1  0  0  0  0
 15 16  1  0  0  0  0
 15 14  1  0  0  0  0
 17 18  1  0  0  0  0
 17 15  2  0  0  0  0
 18 13  2  0  0  0  0
 19  9  2  0  0  0  0
 19 18  1  0  0  0  0
 21 22  1  0  0  0  0
 22 29  1  0  0  0  0
 22 23  2  0  0  0  0
 23 30  1  0  0  0  0
 24 25  2  0  0  0  0
 24 23  1  0  0  0  0
 26 24  1  0  0  0  0
 27 21  1  0  0  0  0
 27 26  1  0  0  0  0
 28 27  2  0  0  0  0
 31 26  1  0  0  0  0
M  END
>  <minimizedAffinity>
-5.65692139

$$$$

 OpenBabel03272500033D

 31 34  0  0  0  0  0  0  0  0999 V2000
   37.0340   27.2420   33.6200 C   0  0  0  0  0  0  0  0  0  0  0  0
   36.8320   27.2400   32.2260 C   0  0  0  0  0  0  0  0  0  0  0  0
   36.0170   28.2460   31.6800 C   0  0  0  0  0  0  0  0  0  0  0  0
   35.4690   29.1650   32.5150 N   0  0  0  0  0  0  0  0  0  0  0  0
   35.6770   29.1470   33.8370 C   0  0  0  0  0  0  0  0  0  0  0  0
   36.4600   28.1860   34.4000 N   0  0  0  0  0  0  0  0  0  0  0  0
   37.6560   26.4700   34.0300 H   0  0  0  0  0  0  0  0  0  0  0  0
   35.8660   28.2430   30.6230 H   0  0  0  0  0  0  0  0  0  0  0  0
   35.9390   30.9300   35.5160 C   0  0  0  0  0  3  0  0  0  0  0  0
   35.0890   30.1350   34.7420 C   0  0  0  0  0  0  0  0  0  0  0  0
   33.7210   30.3110   34.8610 C   0  0  0  0  0  0  0  0  0  0  0  0
   33.0680   29.6810   34.2490 H   0  0  0  0  0  0  0  0  0  0  0  0
   33.2210   31.2740   35.7460 C   0  0  0  0  0  0  0  0  0  0  0  0
   31.9270   31.5870   35.9950 N   0  0  0  0  0  0  0  0  0  0  0  0
   31.9460   32.5760   36.9220 C   0  0  0  0  0  0  0  0  0  0  0  0
   31.0920   33.0760   37.3610 H   0  0  0  0  0  0  0  0  0  0  0  0
   33.2470   32.8490   37.2220 N   0  0  0  0  0  0  0  0  0  0  0  0
   34.0680   32.0540   36.5060 C   0  0  0  0  0  0  0  0  0  0  0  0
   35.4330   31.8810   36.3890 C   0  0  0  0  0  3  0  0  0  0  0  0
   31.0730   31.1450   35.5530 H   0  0  0  0  0  0  0  0  0  0  0  0
   37.4610   26.2220   31.4590 N   0  0  0  0  0  0  0  0  0  0  0  0
   38.7490   26.3370   31.0570 C   0  0  0  0  0  0  0  0  0  0  0  0
   39.3370   25.3240   30.3070 C   0  0  0  0  0  0  0  0  0  0  0  0
   38.5020   24.2650   30.0440 C   0  0  0  0  0  0  0  0  0  0  0  0
   39.0140   23.3190   29.3560 O   0  0  0  0  0  0  0  0  0  0  0  0
   37.2300   24.1230   30.4260 N   0  0  0  0  0  0  0  0  0  0  0  0
   36.7220   25.1440   31.1510 C   0  0  0  0  0  0  0  0  0  0  0  0
   35.5130   25.0340   31.5280 O   0  0  0  0  0  0  0  0  0  0  0  0
   39.3290   27.2090   31.3120 H   0  0  0  0  0  0  0  0  0  0  0  0
   40.3600   25.3600   29.9580 H   0  0  0  0  0  0  0  0  0  0  0  0
   36.6840   23.2730   30.1700 H   0  0  0  0  0  0  0  0  0  0  0  0
  1  7  1  0  0  0  0
  1  6  1  0  0  0  0
  2  1  2  0  0  0  0
  3  2  1  0  0  0  0
  3  4  2  0  0  0  0
  4  5  1  0  0  0  0
  5  6  2  0  0  0  0
  5 10  1  0  0  0  0
  8  3  1  0  0  0  0
  9 19  1  0  0  0  0
 10 11  1  0  0  0  0
 10  9  2  0  0  0  0
 11 13  2  0  0  0  0
 12 11  1  0  0  0  0
 13 14  1  0  0  0  0
 13 18  1  0  0  0  0
 14 15  1  0  0  0  0
 15 17  2  0  0  0  0
 15 16  1  0  0  0  0
 18 17  1  0  0  0  0
 19 18  2  0  0  0  0
 20 14  1  0  0  0  0
 21  2  1  0  0  0  0
 22 29  1  0  0  0  0
 22 21  1  0  0  0  0
 23 22  2  0  0  0  0
 24 23  1  0  0  0  0
 24 26  1  0  0  0  0
 25 24  2  0  0  0  0
 26 27  1  0  0  0  0
 27 21  1  0  0  0  0
 27 28  2  0  0  0  0
 30 23  1  0  0  0  0
 31 26  1  0  0  0  0
M  END
>  <minimizedAffinity>
-5.64143896

$$$$

 OpenBabel03272500033D

 31 34  0  0  0  0  0  0  0  0999 V2000
   38.9330   23.5540   34.9720 C   0  0  0  0  0  0  0  0  0  0  0  0
   40.2580   23.7760   35.3950 C   0  0  0  0  0  0  0  0  0  0  0  0
   40.7710   25.0790   35.2870 C   0  0  0  0  0  0  0  0  0  0  0  0
   39.9720   26.0550   34.7850 N   0  0  0  0  0  0  0  0  0  0  0  0
   38.7140   25.8190   34.3910 C   0  0  0  0  0  0  0  0  0  0  0  0
   38.1850   24.5680   34.4800 N   0  0  0  0  0  0  0  0  0  0  0  0
   38.5480   22.5560   35.0560 H   0  0  0  0  0  0  0  0  0  0  0  0
   41.7750   25.2450   35.6080 H   0  0  0  0  0  0  0  0  0  0  0  0
   36.9670   27.5250   34.7120 C   0  0  0  0  0  3  0  0  0  0  0  0
   37.8480   26.8660   33.8500 C   0  0  0  0  0  0  0  0  0  0  0  0
   37.8680   27.2300   32.5130 C   0  0  0  0  0  0  0  0  0  0  0  0
   38.5630   26.7060   31.8510 H   0  0  0  0  0  0  0  0  0  0  0  0
   37.0140   28.2400   32.0570 C   0  0  0  0  0  0  0  0  0  0  0  0
   36.8920   28.7260   30.7990 N   0  0  0  0  0  0  0  0  0  0  0  0
   35.9410   29.6900   30.8530 C   0  0  0  0  0  0  0  0  0  0  0  0
   35.5800   30.2980   30.0330 H   0  0  0  0  0  0  0  0  0  0  0  0
   35.4980   29.7750   32.1390 N   0  0  0  0  0  0  0  0  0  0  0  0
   36.1470   28.8840   32.9160 C   0  0  0  0  0  0  0  0  0  0  0  0
   36.1240   28.5250   34.2490 C   0  0  0  0  0  3  0  0  0  0  0  0
   37.4350   28.4150   29.9450 H   0  0  0  0  0  0  0  0  0  0  0  0
   40.9940   22.6700   35.9010 N   0  0  0  0  0  0  0  0  0  0  0  0
   41.8970   22.0140   35.1340 C   0  0  0  0  0  0  0  0  0  0  0  0
   42.6010   20.9360   35.6580 C   0  0  0  0  0  0  0  0  0  0  0  0
   42.2850   20.6390   36.9620 C   0  0  0  0  0  0  0  0  0  0  0  0
   42.9160   19.6520   37.4700 O   0  0  0  0  0  0  0  0  0  0  0  0
   41.4000   21.2660   37.7420 N   0  0  0  0  0  0  0  0  0  0  0  0
   40.7510   22.3050   37.1710 C   0  0  0  0  0  0  0  0  0  0  0  0
   39.9040   22.9190   37.8920 O   0  0  0  0  0  0  0  0  0  0  0  0
   42.0800   22.3200   34.1170 H   0  0  0  0  0  0  0  0  0  0  0  0
   43.3350   20.3740   35.0950 H   0  0  0  0  0  0  0  0  0  0  0  0
   41.2360   20.9570   38.7240 H   0  0  0  0  0  0  0  0  0  0  0  0
  1  7  1  0  0  0  0
  1  2  1  0  0  0  0
  2 21  1  0  0  0  0
  3  2  2  0  0  0  0
  3  8  1  0  0  0  0
  4  3  1  0  0  0  0
  5  6  1  0  0  0  0
  5  4  2  0  0  0  0
  6  1  2  0  0  0  0
 10  5  1  0  0  0  0
 10  9  2  0  0  0  0
 11 10  1  0  0  0  0
 12 11  1  0  0  0  0
 13 11  2  0  0  0  0
 13 18  1  0  0  0  0
 14 15  1  0  0  0  0
 14 13  1  0  0  0  0
 15 17  2  0  0  0  0
 16 15  1  0  0  0  0
 17 18  1  0  0  0  0
 18 19  2  0  0  0  0
 19  9  1  0  0  0  0
 20 14  1  0  0  0  0
 21 27  1  0  0  0  0
 22 23  2  0  0  0  0
 22 21  1  0  0  0  0
 23 24  1  0  0  0  0
 24 25  2  0  0  0  0
 24 26  1  0  0  0  0
 26 31  1  0  0  0  0
 27 26  1  0  0  0  0
 27 28  2  0  0  0  0
 29 22  1  0  0  0  0
 30 23  1  0  0  0  0
M  END
>  <minimizedAffinity>
-5.63546896

$$$$

 OpenBabel03272500033D

 31 34  0  0  0  0  0  0  0  0999 V2000
   35.1810   25.7990   30.9580 C   0  0  0  0  0  0  0  0  0  0  0  0
   36.0000   26.6950   31.6700 C   0  0  0  0  0  0  0  0  0  0  0  0
   37.0000   26.1560   32.4950 C   0  0  0  0  0  0  0  0  0  0  0  0
   37.1290   24.8060   32.5660 N   0  0  0  0  0  0  0  0  0  0  0  0
   36.3390   23.9740   31.8780 C   0  0  0  0  0  0  0  0  0  0  0  0
   35.3580   24.4620   31.0690 N   0  0  0  0  0  0  0  0  0  0  0  0
   34.4180   26.2180   30.3300 H   0  0  0  0  0  0  0  0  0  0  0  0
   37.6210   26.8370   33.0340 H   0  0  0  0  0  0  0  0  0  0  0  0
   37.7500   21.9640   32.0610 C   0  0  0  0  0  3  0  0  0  0  0  0
   36.4720   22.5190   31.9490 C   0  0  0  0  0  0  0  0  0  0  0  0
   35.3790   21.6700   31.9090 C   0  0  0  0  0  0  0  0  0  0  0  0
   34.3850   22.1190   31.8210 H   0  0  0  0  0  0  0  0  0  0  0  0
   35.5740   20.2850   31.9820 C   0  0  0  0  0  0  0  0  0  0  0  0
   34.6370   19.3080   31.9580 N   0  0  0  0  0  0  0  0  0  0  0  0
   35.3080   18.1340   32.0550 C   0  0  0  0  0  0  0  0  0  0  0  0
   34.8840   17.1390   32.0680 H   0  0  0  0  0  0  0  0  0  0  0  0
   36.6390   18.4140   32.1350 N   0  0  0  0  0  0  0  0  0  0  0  0
   36.8390   19.7470   32.0920 C   0  0  0  0  0  0  0  0  0  0  0  0
   37.9320   20.5910   32.1330 C   0  0  0  0  0  3  0  0  0  0  0  0
   33.5890   19.4370   31.8800 H   0  0  0  0  0  0  0  0  0  0  0  0
   35.7640   28.0880   31.5130 N   0  0  0  0  0  0  0  0  0  0  0  0
   34.9350   28.7610   32.3460 C   0  0  0  0  0  0  0  0  0  0  0  0
   34.7240   30.1230   32.1670 C   0  0  0  0  0  0  0  0  0  0  0  0
   35.4140   30.6640   31.1080 C   0  0  0  0  0  0  0  0  0  0  0  0
   35.2390   31.9140   30.9180 O   0  0  0  0  0  0  0  0  0  0  0  0
   36.2370   30.0270   30.2700 N   0  0  0  0  0  0  0  0  0  0  0  0
   36.3970   28.7050   30.5020 C   0  0  0  0  0  0  0  0  0  0  0  0
   37.1760   28.0750   29.7190 O   0  0  0  0  0  0  0  0  0  0  0  0
   34.4340   28.2510   33.1530 H   0  0  0  0  0  0  0  0  0  0  0  0
   34.0740   30.7130   32.7990 H   0  0  0  0  0  0  0  0  0  0  0  0
   36.7130   30.5360   29.4950 H   0  0  0  0  0  0  0  0  0  0  0  0
  1  6  2  0  0  0  0
  1  2  1  0  0  0  0
  2  3  2  0  0  0  0
  3  4  1  0  0  0  0
  3  8  1  0  0  0  0
  5 10  1  0  0  0  0
  5  4  2  0  0  0  0
  6  5  1  0  0  0  0
  7  1  1  0  0  0  0
  9 19  1  0  0  0  0
 10  9  2  0  0  0  0
 11 10  1  0  0  0  0
 11 13  2  0  0  0  0
 12 11  1  0  0  0  0
 13 18  1  0  0  0  0
 14 13  1  0  0  0  0
 14 15  1  0  0  0  0
 15 16  1  0  0  0  0
 15 17  2  0  0  0  0
 18 19  2  0  0  0  0
 18 17  1  0  0  0  0
 20 14  1  0  0  0  0
 21  2  1  0  0  0  0
 21 22  1  0  0  0  0
 22 29  1  0  0  0  0
 23 22  2  0  0  0  0
 23 30  1  0  0  0  0
 24 23  1  0  0  0  0
 25 24  2  0  0  0  0
 26 27  1  0  0  0  0
 26 24  1  0  0  0  0
 27 21  1  0  0  0  0
 28 27  2  0  0  0  0
 31 26  1  0  0  0  0
M  END
>  <minimizedAffinity>
-5.6141367

$$$$

 OpenBabel03272500033D

 31 34  0  0  0  0  0  0  0  0999 V2000
   37.0690   26.1680   33.5180 C   0  0  0  0  0  0  0  0  0  0  0  0
   37.0230   27.4930   33.9940 C   0  0  0  0  0  0  0  0  0  0  0  0
   37.7310   27.7910   35.1700 C   0  0  0  0  0  0  0  0  0  0  0  0
   38.4220   26.7980   35.7850 N   0  0  0  0  0  0  0  0  0  0  0  0
   38.4520   25.5460   35.3120 C   0  0  0  0  0  0  0  0  0  0  0  0
   37.7760   25.2210   34.1760 N   0  0  0  0  0  0  0  0  0  0  0  0
   36.5250   25.9470   32.6200 H   0  0  0  0  0  0  0  0  0  0  0  0
   37.6950   28.7960   35.5290 H   0  0  0  0  0  0  0  0  0  0  0  0
   38.6970   23.9410   37.1640 C   0  0  0  0  0  3  0  0  0  0  0  0
   39.1940   24.4720   35.9700 C   0  0  0  0  0  0  0  0  0  0  0  0
   40.3730   23.9600   35.4550 C   0  0  0  0  0  0  0  0  0  0  0  0
   40.7500   24.3850   34.5200 H   0  0  0  0  0  0  0  0  0  0  0  0
   41.0370   22.9300   36.1330 C   0  0  0  0  0  0  0  0  0  0  0  0
   42.1890   22.3100   35.7860 N   0  0  0  0  0  0  0  0  0  0  0  0
   42.4300   21.3870   36.7490 C   0  0  0  0  0  0  0  0  0  0  0  0
   43.2660   20.7020   36.8040 H   0  0  0  0  0  0  0  0  0  0  0  0
   41.4240   21.4610   37.6650 N   0  0  0  0  0  0  0  0  0  0  0  0
   40.5380   22.4140   37.3110 C   0  0  0  0  0  0  0  0  0  0  0  0
   39.3630   22.9210   37.8270 C   0  0  0  0  0  3  0  0  0  0  0  0
   42.7820   22.5070   34.9320 H   0  0  0  0  0  0  0  0  0  0  0  0
   36.2620   28.4430   33.2600 N   0  0  0  0  0  0  0  0  0  0  0  0
   35.1140   28.9610   33.7570 C   0  0  0  0  0  0  0  0  0  0  0  0
   34.3910   29.8890   33.0140 C   0  0  0  0  0  0  0  0  0  0  0  0
   34.9500   30.1910   31.7960 C   0  0  0  0  0  0  0  0  0  0  0  0
   34.3090   31.0400   31.0910 O   0  0  0  0  0  0  0  0  0  0  0  0
   36.0790   29.6960   31.2790 N   0  0  0  0  0  0  0  0  0  0  0  0
   36.7310   28.8000   32.0540 C   0  0  0  0  0  0  0  0  0  0  0  0
   37.8090   28.3140   31.5860 O   0  0  0  0  0  0  0  0  0  0  0  0
   34.7510   28.6640   34.7270 H   0  0  0  0  0  0  0  0  0  0  0  0
   33.4690   30.3370   33.3580 H   0  0  0  0  0  0  0  0  0  0  0  0
   36.4160   29.9950   30.3400 H   0  0  0  0  0  0  0  0  0  0  0  0
  1  2  2  0  0  0  0
  1  6  1  0  0  0  0
  2  3  1  0  0  0  0
  3  8  1  0  0  0  0
  3  4  2  0  0  0  0
  5  4  1  0  0  0  0
  5 10  1  0  0  0  0
  6  5  2  0  0  0  0
  7  1  1  0  0  0  0
  9 19  1  0  0  0  0
 10  9  2  0  0  0  0
 11 10  1  0  0  0  0
 11 13  2  0  0  0  0
 12 11  1  0  0  0  0
 13 18  1  0  0  0  0
 14 13  1  0  0  0  0
 14 15  1  0  0  0  0
 15 16  1  0  0  0  0
 15 17  2  0  0  0  0
 18 17  1  0  0  0  0
 18 19  2  0  0  0  0
 20 14  1  0  0  0  0
 21 22  1  0  0  0  0
 21  2  1  0  0  0  0
 22 29  1  0  0  0  0
 23 30  1  0  0  0  0
 23 22  2  0  0  0  0
 24 23  1  0  0  0  0
 25 24  2  0  0  0  0
 26 24  1  0  0  0  0
 26 27  1  0  0  0  0
 27 21  1  0  0  0  0
 28 27  2  0  0  0  0
 31 26  1  0  0  0  0
M  END
>  <minimizedAffinity>
-5.55288839

$$$$
