
 OpenBabel03272509213D

 49 54  0  0  0  0  0  0  0  0999 V2000
   40.2020   31.2800   44.1630 C   0  0  0  0  0  0  0  0  0  0  0  0
   39.5210   31.9810   45.1460 C   0  0  0  0  0  0  0  0  0  0  0  0
   38.3470   32.6270   44.7970 C   0  0  0  0  0  0  0  0  0  0  0  0
   37.8460   32.5850   43.4930 C   0  0  0  0  0  0  0  0  0  0  0  0
   36.7690   33.0920   42.8620 N   0  0  0  0  0  0  0  0  0  0  0  0
   36.7730   32.7330   41.5670 C   0  0  0  0  0  0  0  0  0  0  0  0
   37.8890   31.9730   41.3690 N   0  0  0  0  0  0  0  0  0  0  0  0
   38.5540   31.8770   42.5480 C   0  0  0  0  0  0  0  0  0  0  0  0
   39.7180   31.2310   42.8770 C   0  0  0  0  0  0  0  0  0  0  0  0
   41.1020   30.8120   44.5310 H   0  0  0  0  0  0  0  0  0  0  0  0
   37.7050   33.2140   45.4560 H   0  0  0  0  0  0  0  0  0  0  0  0
   36.0350   33.6800   43.3140 H   0  0  0  0  0  0  0  0  0  0  0  0
   36.0330   32.9980   40.8310 H   0  0  0  0  0  0  0  0  0  0  0  0
   40.9970   29.2240   42.0650 C   0  0  0  0  0  3  0  0  0  0  0  0
   40.4880   30.4740   41.8930 C   0  0  0  0  0  0  0  0  0  0  0  0
   40.6950   31.1240   40.6920 C   0  0  0  0  0  0  0  0  0  0  0  0
   40.3160   32.1320   40.4790 H   0  0  0  0  0  0  0  0  0  0  0  0
   41.4130   30.4930   39.6930 C   0  0  0  0  0  0  0  0  0  0  0  0
   41.7600   30.8780   38.4520 N   0  0  0  0  0  0  0  0  0  0  0  0
   42.4760   29.8780   37.8630 C   0  0  0  0  0  0  0  0  0  0  0  0
   42.9210   29.8210   36.8770 H   0  0  0  0  0  0  0  0  0  0  0  0
   42.5920   28.8340   38.7360 N   0  0  0  0  0  0  0  0  0  0  0  0
   41.9420   29.2100   39.8540 C   0  0  0  0  0  0  0  0  0  0  0  0
   41.7190   28.5740   41.0790 C   0  0  0  0  0  3  0  0  0  0  0  0
   41.5360   31.7920   37.9780 H   0  0  0  0  0  0  0  0  0  0  0  0
   39.8160   32.1580   46.4660 O   0  0  0  0  0  0  0  0  0  0  0  0
   37.9710   31.2870   47.7730 C   0  0  0  0  0  0  0  0  0  0  0  0
   37.0620   31.3000   48.8170 C   0  0  0  0  0  0  0  0  0  0  0  0
   37.1870   32.3990   49.6730 C   0  0  0  0  0  0  0  0  0  0  0  0
   38.1550   33.3900   49.4720 C   0  0  0  0  0  0  0  0  0  0  0  0
   39.0360   33.2810   48.3720 C   0  0  0  0  0  0  0  0  0  0  0  0
   38.9220   32.1920   47.5130 C   0  0  0  0  0  0  0  0  0  0  0  0
   36.4960   32.4570   50.5100 H   0  0  0  0  0  0  0  0  0  0  0  0
   38.2250   34.2230   50.1500 H   0  0  0  0  0  0  0  0  0  0  0  0
   39.7760   34.0480   48.2270 H   0  0  0  0  0  0  0  0  0  0  0  0
   34.8990   30.3040   48.2890 C   0  0  0  0  0  0  0  0  0  0  0  0
   36.0750   30.2970   49.0290 C   0  0  0  0  0  0  0  0  0  0  0  0
   36.2340   29.2700   49.9760 C   0  0  0  0  0  0  0  0  0  0  0  0
   35.2460   28.3510   50.1170 N   0  0  0  0  0  0  0  0  0  0  0  0
   34.1120   28.4030   49.3670 C   0  0  0  0  0  0  0  0  0  0  0  0
   33.9490   29.3740   48.4640 N   0  0  0  0  0  0  0  0  0  0  0  0
   34.6780   31.0470   47.5380 H   0  0  0  0  0  0  0  0  0  0  0  0
   33.4540   27.5770   49.6360 H   0  0  0  0  0  0  0  0  0  0  0  0
   37.4730   29.2090   50.7990 C   0  0  0  0  0  0  0  0  0  0  0  0
   38.2860   28.6830   50.2620 H   0  0  0  0  0  0  0  0  0  0  0  0
   37.2630   28.6630   51.7430 H   0  0  0  0  0  0  0  0  0  0  0  0
   37.7350   30.2350   51.0920 H   0  0  0  0  0  0  0  0  0  0  0  0
   37.9240   30.2270   46.8650 O   0  0  0  0  0  0  0  0  0  0  0  0
   38.7250   29.6400   46.8060 H   0  0  0  0  0  0  0  0  0  0  0  0
  1 10  1  0  0  0  0
  1  2  1  0  0  0  0
  2 26  1  0  0  0  0
  3  2  2  0  0  0  0
  3 11  1  0  0  0  0
  4  3  1  0  0  0  0
  5 12  1  0  0  0  0
  5  4  1  0  0  0  0
  6  5  1  0  0  0  0
  7  6  2  0  0  0  0
  7  8  1  0  0  0  0
  8  9  1  0  0  0  0
  8  4  2  0  0  0  0
  9  1  2  0  0  0  0
 13  6  1  0  0  0  0
 15 14  1  0  0  0  0
 15  9  1  0  0  0  0
 16 15  2  0  0  0  0
 17 16  1  0  0  0  0
 18 23  2  0  0  0  0
 18 16  1  0  0  0  0
 19 18  1  0  0  0  0
 20 19  1  0  0  0  0
 20 22  2  0  0  0  0
 21 20  1  0  0  0  0
 22 23  1  0  0  0  0
 23 24  1  0  0  0  0
 24 14  2  0  0  0  0
 25 19  1  0  0  0  0
 26 32  1  0  0  0  0
 27 28  1  0  0  0  0
 28 37  1  0  0  0  0
 28 29  2  0  0  0  0
 29 33  1  0  0  0  0
 30 29  1  0  0  0  0
 30 34  1  0  0  0  0
 31 30  2  0  0  0  0
 32 27  2  0  0  0  0
 32 31  1  0  0  0  0
 35 31  1  0  0  0  0
 36 41  2  0  0  0  0
 36 37  1  0  0  0  0
 37 38  2  0  0  0  0
 38 39  1  0  0  0  0
 38 44  1  0  0  0  0
 40 43  1  0  0  0  0
 40 39  2  0  0  0  0
 41 40  1  0  0  0  0
 42 36  1  0  0  0  0
 44 47  1  0  0  0  0
 44 46  1  0  0  0  0
 45 44  1  0  0  0  0
 48 27  1  0  0  0  0
 49 48  1  0  0  0  0
M  END
>  <minimizedAffinity>
-8.05844212

>  <minimizedRMSD>
0.722564042

$$$$
