
 OpenBabel03272501093D

 43 47  0  0  1  0  0  0  0  0999 V2000
   40.6760   32.0320   44.5350 Cl  0  0  0  0  0  0  0  0  0  0  0  0
   39.1450   31.1950   44.4120 C   0  0  0  0  0  0  0  0  0  0  0  0
   38.2340   31.5300   45.4060 C   0  0  0  0  0  0  0  0  0  0  0  0
   37.0180   30.8790   45.3160 C   0  0  0  0  0  0  0  0  0  0  0  0
   36.7390   29.9680   44.3140 C   0  0  0  0  0  0  0  0  0  0  0  0
   37.6800   29.6810   43.3630 C   0  0  0  0  0  0  0  0  0  0  0  0
   38.8970   30.3010   43.4120 C   0  0  0  0  0  0  0  0  0  0  0  0
   36.1890   31.0090   45.9960 H   0  0  0  0  0  0  0  0  0  0  0  0
   35.7990   29.4430   44.2180 H   0  0  0  0  0  0  0  0  0  0  0  0
   37.4820   28.9720   42.5720 H   0  0  0  0  0  0  0  0  0  0  0  0
   41.0160   29.1700   42.4710 C   0  0  0  0  0  0  0  0  0  0  0  0
   39.9450   30.0370   42.4280 C   0  0  0  0  0  0  0  0  0  0  0  0
   39.7570   30.8330   41.2940 C   0  0  0  0  0  0  0  0  0  0  0  0
   38.9620   31.5550   41.1250 H   0  0  0  0  0  0  0  0  0  0  0  0
   40.6210   30.7700   40.2130 C   0  0  0  0  0  0  0  0  0  0  0  0
   40.7350   31.3660   39.0110 N   0  0  0  0  0  0  0  0  0  0  0  0
   41.8230   30.8880   38.3490 C   0  0  0  0  0  0  0  0  0  0  0  0
   42.1550   31.1910   37.3620 H   0  0  0  0  0  0  0  0  0  0  0  0
   42.4060   29.9840   39.1310 N   0  0  0  0  0  0  0  0  0  0  0  0
   41.6930   29.8880   40.2790 C   0  0  0  0  0  0  0  0  0  0  0  0
   41.8730   29.1090   41.3950 C   0  0  0  0  0  0  0  0  0  0  0  0
   40.0740   32.0910   38.6520 H   0  0  0  0  0  0  0  0  0  0  0  0
   38.2900   32.3730   46.4580 O   0  0  0  0  0  0  0  0  0  0  0  0
   38.9430   32.4480   47.6410 C   0  0  2  0  0  0  0  0  0  0  0  0
   37.9640   32.6230   48.8480 C   0  0  2  0  0  0  0  0  0  0  0  0
   38.8220   33.3140   49.7960 C   0  0  0  0  0  0  0  0  0  0  0  0
   39.6600   34.1670   49.0890 O   0  0  0  0  0  0  0  0  0  0  0  0
   39.5770   33.8630   47.7650 C   0  0  0  0  0  0  0  0  0  0  0  0
   39.6960   31.7130   47.9050 H   0  0  0  0  0  0  0  0  0  0  0  0
   37.1430   33.3120   48.4910 H   0  0  0  0  0  0  0  0  0  0  0  0
   38.1910   33.9570   50.4660 H   0  0  0  0  0  0  0  0  0  0  0  0
   39.4430   32.7160   50.4570 H   0  0  0  0  0  0  0  0  0  0  0  0
   38.9850   34.5940   47.1940 H   0  0  0  0  0  0  0  0  0  0  0  0
   40.5820   33.7990   47.3020 H   0  0  0  0  0  0  0  0  0  0  0  0
   37.3410   29.3090   50.5120 C   0  0  0  0  0  0  0  0  0  0  0  0
   37.9920   30.5280   50.1800 C   0  0  0  0  0  0  0  0  0  0  0  0
   37.3490   31.3820   49.2350 C   0  0  0  0  0  0  0  0  0  0  0  0
   36.1450   30.9920   48.6940 N   0  0  0  0  0  0  0  0  0  0  0  0
   35.5740   29.8340   49.0410 C   0  0  0  0  0  0  0  0  0  0  0  0
   36.1490   28.9880   49.9380 N   0  0  0  0  0  0  0  0  0  0  0  0
   37.8490   28.6850   51.2290 H   0  0  0  0  0  0  0  0  0  0  0  0
   38.9380   30.7850   50.6350 H   0  0  0  0  0  0  0  0  0  0  0  0
   34.6270   29.5520   48.6010 H   0  0  0  0  0  0  0  0  0  0  0  0
  2  1  1  0  0  0  0
  2  3  1  0  0  0  0
  3 23  1  0  0  0  0
  4  3  2  0  0  0  0
  4  8  1  0  0  0  0
  5  4  1  0  0  0  0
  6  7  1  0  0  0  0
  6  5  2  0  0  0  0
  7  2  2  0  0  0  0
  9  5  1  0  0  0  0
 10  6  1  0  0  0  0
 12 11  1  0  0  0  0
 12  7  1  0  0  0  0
 13 12  2  0  0  0  0
 14 13  1  0  0  0  0
 15 20  2  0  0  0  0
 15 13  1  0  0  0  0
 16 15  1  0  0  0  0
 17 16  1  0  0  0  0
 17 19  2  0  0  0  0
 18 17  1  0  0  0  0
 19 20  1  0  0  0  0
 20 21  1  0  0  0  0
 21 11  2  0  0  0  0
 22 16  1  0  0  0  0
 23 24  1  0  0  0  0
 24 28  1  0  0  0  0
 24 29  1  1  0  0  0
 24 25  1  0  0  0  0
 25 30  1  6  0  0  0
 25 37  1  0  0  0  0
 25 26  1  0  0  0  0
 26 32  1  0  0  0  0
 26 31  1  0  0  0  0
 27 26  1  0  0  0  0
 28 27  1  0  0  0  0
 33 28  1  0  0  0  0
 34 28  1  0  0  0  0
 35 41  1  0  0  0  0
 36 35  1  0  0  0  0
 36 42  1  0  0  0  0
 37 36  2  0  0  0  0
 38 39  2  0  0  0  0
 38 37  1  0  0  0  0
 39 40  1  0  0  0  0
 40 35  2  0  0  0  0
 43 39  1  0  0  0  0
M  END
>  <minimizedAffinity>
-6.54841614

>  <minimizedRMSD>
1.42816603

$$$$
