
 OpenBabel03272510023D

 24 26  0  0  0  0  0  0  0  0999 V2000
   38.3170   31.2040   50.3650 C   0  0  0  0  0  0  0  0  0  0  0  0
   38.4700   31.4940   49.0080 C   0  0  0  0  0  0  0  0  0  0  0  0
   37.4850   31.0540   48.1370 C   0  0  0  0  0  0  0  0  0  0  0  0
   36.4320   30.3700   48.6420 N   0  0  0  0  0  0  0  0  0  0  0  0
   36.3160   30.1050   49.9660 C   0  0  0  0  0  0  0  0  0  0  0  0
   37.2640   30.5270   50.8180 N   0  0  0  0  0  0  0  0  0  0  0  0
   39.1120   31.5670   51.0090 H   0  0  0  0  0  0  0  0  0  0  0  0
   39.3070   32.0320   48.6400 H   0  0  0  0  0  0  0  0  0  0  0  0
   38.3990   32.2630   46.2490 C   0  0  0  0  0  3  0  0  0  0  0  0
   37.5290   31.2940   46.7030 C   0  0  0  0  0  0  0  0  0  0  0  0
   36.7700   30.6210   45.7950 C   0  0  0  0  0  0  0  0  0  0  0  0
   36.0900   29.8680   46.1100 H   0  0  0  0  0  0  0  0  0  0  0  0
   36.8160   30.8530   44.4310 C   0  0  0  0  0  0  0  0  0  0  0  0
   36.1540   30.3020   43.3810 N   0  0  0  0  0  0  0  0  0  0  0  0
   36.6080   30.9250   42.2750 C   0  0  0  0  0  0  0  0  0  0  0  0
   36.2000   30.6280   41.3190 H   0  0  0  0  0  0  0  0  0  0  0  0
   37.5360   31.8480   42.6240 N   0  0  0  0  0  0  0  0  0  0  0  0
   37.6920   31.8320   43.9600 C   0  0  0  0  0  0  0  0  0  0  0  0
   38.4740   32.5250   44.8800 C   0  0  0  0  0  3  0  0  0  0  0  0
   35.4280   29.5310   43.4720 H   0  0  0  0  0  0  0  0  0  0  0  0
   35.1180   29.3480   50.4020 C   0  0  0  0  0  0  0  0  0  0  0  0
   35.1490   29.0700   51.7670 F   0  0  0  0  0  0  0  0  0  0  0  0
   33.9520   30.0720   50.1960 F   0  0  0  0  0  0  0  0  0  0  0  0
   34.9530   28.1510   49.7560 F   0  0  0  0  0  0  0  0  0  0  0  0
  1  6  1  0  0  0  0
  1  7  1  0  0  0  0
  2  1  2  0  0  0  0
  3  4  2  0  0  0  0
  3  2  1  0  0  0  0
  4  5  1  0  0  0  0
  5 21  1  0  0  0  0
  5  6  2  0  0  0  0
  8  2  1  0  0  0  0
  9 10  1  0  0  0  0
 10  3  1  0  0  0  0
 11 12  1  0  0  0  0
 11 10  2  0  0  0  0
 13 11  1  0  0  0  0
 14 20  1  0  0  0  0
 14 13  1  0  0  0  0
 15 17  2  0  0  0  0
 15 14  1  0  0  0  0
 16 15  1  0  0  0  0
 17 18  1  0  0  0  0
 18 13  2  0  0  0  0
 18 19  1  0  0  0  0
 19  9  2  0  0  0  0
 21 22  1  0  0  0  0
 23 21  1  0  0  0  0
 24 21  1  0  0  0  0
M  END
>  <minimizedAffinity>
-5.82701302

>  <minimizedRMSD>
0.617101371

$$$$
