
     RDKit          3D

 50 55  0  0  0  0  0  0  0  0999 V2000
   38.1090   30.1461   47.4915 F   0  0  0  0  0  0  0  0  0  0  0  0
   38.3762   31.4013   47.9777 C   0  0  0  0  0  0  0  0  0  0  0  0
   37.7075   31.8341   49.0954 C   0  0  0  0  0  0  0  0  0  0  0  0
   38.0279   33.0984   49.5211 C   0  0  0  0  0  0  0  0  0  0  0  0
   38.9425   33.8967   48.9004 C   0  0  0  0  0  0  0  0  0  0  0  0
   39.5908   33.4166   47.7773 C   0  0  0  0  0  0  0  0  0  0  0  0
   39.3034   32.1561   47.3129 C   0  0  0  0  0  0  0  0  0  0  0  0
   36.0872   29.3675   51.4493 C   0  0  0  0  0  0  0  0  0  0  0  0
   37.0263   30.2237   50.8537 C   0  0  0  0  0  0  0  0  0  0  0  0
   36.7423   30.9450   49.7199 C   0  0  0  0  0  0  0  0  0  0  0  0
   35.4961   30.7841   49.2032 N   0  0  0  0  0  0  0  0  0  0  0  0
   34.5899   29.9653   49.7683 C   0  0  0  0  0  0  0  0  0  0  0  0
   34.8788   29.2753   50.8629 N   0  0  0  0  0  0  0  0  0  0  0  0
   39.2690   31.9022   44.9353 C   0  0  0  0  0  0  0  0  0  0  0  0
   38.1928   32.5626   45.0505 O   0  0  0  0  0  0  0  0  0  0  0  0
   39.9505   31.6174   46.1530 N   0  0  0  0  0  0  0  0  0  0  0  0
   39.1990   32.1972   42.5553 C   0  0  0  0  0  0  0  0  0  0  0  0
   39.7100   31.5007   43.6209 C   0  0  0  0  0  0  0  0  0  0  0  0
   40.6093   30.4566   43.4614 C   0  0  0  0  0  0  0  0  0  0  0  0
   41.0096   30.0998   42.1818 C   0  0  0  0  0  0  0  0  0  0  0  0
   41.8465   29.1552   41.7313 N   0  0  0  0  0  0  0  0  0  0  0  0
   41.8708   29.2453   40.4028 C   0  0  0  0  0  0  0  0  0  0  0  0
   41.0519   30.2436   40.0154 N   0  0  0  0  0  0  0  0  0  0  0  0
   40.4881   30.8082   41.1220 C   0  0  0  0  0  0  0  0  0  0  0  0
   39.5967   31.8451   41.2576 C   0  0  0  0  0  0  0  0  0  0  0  0
   37.5105   33.4708   50.4105 H   0  0  0  0  0  0  0  0  0  0  0  0
   39.1914   34.8927   49.2403 H   0  0  0  0  0  0  0  0  0  0  0  0
   40.3323   33.9561   47.2039 H   0  0  0  0  0  0  0  0  0  0  0  0
   36.3579   28.8252   52.3353 H   0  0  0  0  0  0  0  0  0  0  0  0
   37.9983   30.3001   51.3223 H   0  0  0  0  0  0  0  0  0  0  0  0
   33.6605   29.9721   49.2131 H   0  0  0  0  0  0  0  0  0  0  0  0
   40.8230   31.0624   46.0684 H   0  0  0  0  0  0  0  0  0  0  0  0
   38.4996   33.0090   42.6804 H   0  0  0  0  0  0  0  0  0  0  0  0
   40.9847   29.9379   44.3222 H   0  0  0  0  0  0  0  0  0  0  0  0
   42.3752   28.4789   42.3378 H   0  0  0  0  0  0  0  0  0  0  0  0
   42.4749   28.5899   39.7808 H   0  0  0  0  0  0  0  0  0  0  0  0
   38.6762   33.9268   40.1788 C   0  0  0  0  0  0  0  0  0  0  0  0
   39.0571   32.5818   40.1188 C   0  0  0  0  0  0  0  0  0  0  0  0
   38.9102   31.9140   38.9000 C   0  0  0  0  0  0  0  0  0  0  0  0
   39.1849   30.8562   38.7654 H   0  0  0  0  0  0  0  0  0  0  0  0
   38.4067   32.5481   37.7817 C   0  0  0  0  0  0  0  0  0  0  0  0
   38.1605   32.1762   36.5214 N   0  0  0  0  0  0  0  0  0  0  0  0
   37.6559   33.2231   35.8314 C   0  0  0  0  0  0  0  0  0  0  0  0
   37.3617   33.2332   34.8007 H   0  0  0  0  0  0  0  0  0  0  0  0
   37.5665   34.3067   36.6487 N   0  0  0  0  0  0  0  0  0  0  0  0
   38.0288   33.8776   37.8360 C   0  0  0  0  0  0  0  0  0  0  0  0
   38.1750   34.5483   39.0555 C   0  0  0  0  0  0  0  0  0  0  0  0
   38.7994   34.4217   41.1326 H   0  0  0  0  0  0  0  0  0  0  0  0
   38.3498   31.2076   36.1777 H   0  0  0  0  0  0  0  0  0  0  0  0
   37.9138   35.5759   39.2069 H   0  0  0  0  0  0  0  0  0  0  0  0
  1  2  1  0
  2  3  2  0
  3  4  1  0
  3 10  1  0
  5  4  2  0
  6  5  1  0
  7  6  2  0
  7  2  1  0
  9  8  2  0
 10  9  1  0
 11 10  2  0
 11 12  1  0
 12 13  2  0
 13  8  1  0
 14 15  2  0
 14 16  1  0
 16  7  1  0
 17 18  2  0
 18 14  1  0
 19 18  1  0
 20 19  2  0
 21 20  1  0
 22 21  1  0
 23 22  2  0
 23 24  1  0
 24 25  2  0
 24 20  1  0
 25 17  1  0
  4 26  1  0
  5 27  1  0
  6 28  1  0
  8 29  1  0
  9 30  1  0
 12 31  1  0
 16 32  1  0
 17 33  1  0
 19 34  1  0
 21 35  1  0
 22 36  1  0
 37 38  2  0
 38 39  1  0
 39 40  1  0
 39 41  2  0
 41 42  1  0
 42 43  1  0
 43 44  1  0
 43 45  2  0
 45 46  1  0
 46 47  2  0
 47 37  1  0
 46 41  1  0
 37 48  1  0
 42 49  1  0
 47 50  1  0
 25 38  1  0
M  ISO  8  26  14  27  14  28  14  29  14  30  14  31  14  33  14  34  14
M  ISO  4  35   9  36  14  40  15  44  14
M  END
>  <DihAtoms>  (1) 
23,24,37,36

>  <DihDeg>  (1) 
-135.00007355974677

$$$$
