REMARK  Name = 
REMARK  2 active torsions:
REMARK  status: ('A' for Active; 'I' for Inactive)
REMARK    1  A    between atoms: C_3  and  C_14
REMARK    2  A    between atoms: C_5  and  C_7
REMARK                            x       y       z     vdW  Elec       q    Type
REMARK                         _______ _______ _______ _____ _____    ______ ____
ROOT
ATOM      1  C   UNL     1      38.305  31.239  50.116  0.00  0.00    +0.000 A 
ATOM      2  C   UNL     1      38.290  31.611  48.770  0.00  0.00    +0.000 A 
ATOM      3  C   UNL     1      37.202  31.223  48.003  0.00  0.00    +0.000 A 
ATOM      4  N   UNL     1      36.216  30.508  48.593  0.00  0.00    +0.000 NA
ATOM      5  C   UNL     1      36.263  30.163  49.902  0.00  0.00    +0.000 A 
ATOM      6  N   UNL     1      37.312  30.534  50.654  0.00  0.00    +0.000 NA
ATOM      7  H   UNL     1      39.175  31.564  50.677  0.00  0.00    +0.000 HD
ATOM      8  H   UNL     1      39.078  32.172  48.334  0.00  0.00    +0.000 HD
ENDROOT
BRANCH   3  10
ATOM      9  C   UNL     1      35.975  32.297  46.214  0.00  0.00    +0.000 A 
ATOM     10  C   UNL     1      37.070  31.549  46.592  0.00  0.00    +0.000 A 
ATOM     11  C   UNL     1      37.958  31.160  45.635  0.00  0.00    +0.000 A 
ATOM     12  H   UNL     1      38.812  30.584  45.892  0.00  0.00    +0.000 HD
ATOM     13  C   UNL     1      37.828  31.473  44.293  0.00  0.00    +0.000 A 
ATOM     14  N   UNL     1      38.588  31.187  43.204  0.00  0.00    +0.000 N 
ATOM     15  C   UNL     1      37.970  31.755  42.148  0.00  0.00    +0.000 A 
ATOM     16  H   UNL     1      38.420  31.643  41.172  0.00  0.00    +0.000 HD
ATOM     17  N   UNL     1      36.845  32.384  42.567  0.00  0.00    +0.000 NA
ATOM     18  C   UNL     1      36.724  32.230  43.898  0.00  0.00    +0.000 A 
ATOM     19  C   UNL     1      35.810  32.632  44.868  0.00  0.00    +0.000 A 
ATOM     20  H   UNL     1      39.486  30.622  43.235  0.00  0.00    +0.000 HD
ENDBRANCH   3  10
BRANCH   5  21
ATOM     21  C   UNL     1      35.124  29.379  50.437  0.00  0.00    +0.000 C 
ATOM     22  F   UNL     1      35.261  29.130  51.801  0.00  0.00    +0.000 F 
ATOM     23  F   UNL     1      33.924  30.062  50.302  0.00  0.00    +0.000 F 
ATOM     24  F   UNL     1      34.952  28.164  49.827  0.00  0.00    +0.000 F 
ENDBRANCH   5  21
TORSDOF 2
