REMARK  Name = 
REMARK  2 active torsions:
REMARK  status: ('A' for Active; 'I' for Inactive)
REMARK    1  A    between atoms: C_2  and  C_12
REMARK    2  A    between atoms: C_6  and  C_24
REMARK                            x       y       z     vdW  Elec       q    Type
REMARK                         _______ _______ _______ _____ _____    ______ ____
ROOT
ATOM      1  C   UNL     1      37.056  30.718  46.776  0.00  0.00    +0.000 A 
ATOM      2  C   UNL     1      37.703  31.143  47.923  0.00  0.00    +0.000 A 
ATOM      3  C   UNL     1      38.724  32.068  47.834  0.00  0.00    +0.000 A 
ATOM      4  C   UNL     1      39.066  32.540  46.577  0.00  0.00    +0.000 A 
ATOM      5  N   UNL     1      40.026  33.443  46.239  0.00  0.00    +0.000 N 
ATOM      6  C   UNL     1      39.989  33.588  44.907  0.00  0.00    +0.000 A 
ATOM      7  N   UNL     1      39.038  32.807  44.388  0.00  0.00    +0.000 NA
ATOM      8  C   UNL     1      38.443  32.140  45.407  0.00  0.00    +0.000 A 
ATOM      9  C   UNL     1      37.422  31.212  45.524  0.00  0.00    +0.000 A 
ATOM     10  H   UNL     1      36.248  29.999  46.756  0.00  0.00    +0.000 HD
ATOM     11  H   UNL     1      39.230  32.399  48.730  0.00  0.00    +0.000 HD
ATOM     12  H   UNL     1      40.672  33.930  46.911  0.00  0.00    +0.000 HD
ATOM     13  H   UNL     1      36.916  30.883  44.608  0.00  0.00    +0.000 HD
ENDROOT
BRANCH   6  15
ATOM     14  C   UNL     1      40.726  34.538  42.716  0.00  0.00    +0.000 A 
ATOM     15  C   UNL     1      40.853  34.468  44.098  0.00  0.00    +0.000 A 
ATOM     16  C   UNL     1      41.813  35.239  44.743  0.00  0.00    +0.000 A 
ATOM     17  H   UNL     1      41.924  35.195  45.811  0.00  0.00    +0.000 HD
ATOM     18  C   UNL     1      42.626  36.065  43.998  0.00  0.00    +0.000 A 
ATOM     19  N   UNL     1      43.639  36.930  44.291  0.00  0.00    +0.000 N 
ATOM     20  C   UNL     1      44.096  37.493  43.141  0.00  0.00    +0.000 A 
ATOM     21  H   UNL     1      44.893  38.220  43.023  0.00  0.00    +0.000 HD
ATOM     22  N   UNL     1      43.391  37.002  42.096  0.00  0.00    +0.000 NA
ATOM     23  C   UNL     1      42.495  36.133  42.611  0.00  0.00    +0.000 A 
ATOM     24  C   UNL     1      41.548  35.374  41.958  0.00  0.00    +0.000 A 
ATOM     25  H   UNL     1      43.995  37.119  45.255  0.00  0.00    +0.000 HD
ENDBRANCH   6  15
BRANCH   2  28
ATOM     26  C   UNL     1      37.380  30.163  51.538  0.00  0.00    +0.000 A 
ATOM     27  C   UNL     1      37.900  30.758  50.389  0.00  0.00    +0.000 A 
ATOM     28  C   UNL     1      37.252  30.573  49.180  0.00  0.00    +0.000 A 
ATOM     29  N   UNL     1      36.123  29.808  49.170  0.00  0.00    +0.000 NA
ATOM     30  C   UNL     1      35.633  29.236  50.310  0.00  0.00    +0.000 A 
ATOM     31  N   UNL     1      36.255  29.413  51.473  0.00  0.00    +0.000 NA
ATOM     32  H   UNL     1      37.874  30.298  52.487  0.00  0.00    +0.000 HD
ATOM     33  H   UNL     1      38.782  31.350  50.422  0.00  0.00    +0.000 HD
ATOM     34  H   UNL     1      34.733  28.661  50.140  0.00  0.00    +0.000 HD
ENDBRANCH   2  28
TORSDOF 2
