
 OpenBabel03262523393D

 48 52  0  0  1  0  0  0  0  0999 V2000
   38.8530   22.7830   36.3180 C   0  0  2  0  0  0  0  0  0  0  0  0
   39.3670   24.0150   35.6620 C   0  0  0  0  0  0  0  0  0  0  0  0
   40.7620   23.8330   35.0650 C   0  0  2  0  0  0  0  0  0  0  0  0
   41.7310   23.5150   36.1750 C   0  0  0  0  0  0  0  0  0  0  0  0
   41.1980   22.4410   37.1100 C   0  0  0  0  0  0  0  0  0  0  0  0
   39.9670   21.7820   36.5400 C   0  0  0  0  0  0  0  0  0  0  0  0
   38.4270   22.9460   37.3520 H   0  0  0  0  0  0  0  0  0  0  0  0
   38.7840   24.5820   34.9940 H   0  0  0  0  0  0  0  0  0  0  0  0
   39.5780   24.7270   36.5400 H   0  0  0  0  0  0  0  0  0  0  0  0
   40.6940   22.9230   34.4330 H   0  0  0  0  0  0  0  0  0  0  0  0
   42.6800   23.1070   35.7410 H   0  0  0  0  0  0  0  0  0  0  0  0
   41.9480   24.4760   36.7040 H   0  0  0  0  0  0  0  0  0  0  0  0
   40.8700   22.9900   38.0340 H   0  0  0  0  0  0  0  0  0  0  0  0
   41.9390   21.7180   37.4330 H   0  0  0  0  0  0  0  0  0  0  0  0
   39.6090   21.0380   37.2660 H   0  0  0  0  0  0  0  0  0  0  0  0
   40.1960   21.2870   35.5780 H   0  0  0  0  0  0  0  0  0  0  0  0
   41.1490   24.9490   34.1960 C   0  0  2  0  0  0  0  0  0  0  0  0
   42.5870   24.9960   33.7550 C   0  0  0  0  0  0  0  0  0  0  0  0
   42.5530   26.3980   33.1140 C   0  0  0  0  0  0  0  0  0  0  0  0
   41.8280   27.1640   34.0010 O   0  0  0  0  0  0  0  0  0  0  0  0
   40.9840   26.3250   34.7240 C   0  0  1  0  0  0  0  0  0  0  0  0
   40.5510   24.8800   33.2610 H   0  0  0  0  0  0  0  0  0  0  0  0
   43.2960   25.0480   34.5800 H   0  0  0  0  0  0  0  0  0  0  0  0
   42.8240   24.2360   32.9890 H   0  0  0  0  0  0  0  0  0  0  0  0
   43.5840   26.7730   32.9730 H   0  0  0  0  0  0  0  0  0  0  0  0
   41.9870   26.2930   32.1830 H   0  0  0  0  0  0  0  0  0  0  0  0
   41.2080   26.4960   35.7850 H   0  0  0  0  0  0  0  0  0  0  0  0
   38.8350   27.3450   35.5990 C   0  0  0  0  0  3  0  0  0  0  0  0
   39.5990   26.8750   34.5360 C   0  0  0  0  0  0  0  0  0  0  0  0
   39.0170   26.9400   33.2880 C   0  0  0  0  0  0  0  0  0  0  0  0
   39.5400   26.5970   32.4190 H   0  0  0  0  0  0  0  0  0  0  0  0
   37.7520   27.4300   33.0320 C   0  0  0  0  0  0  0  0  0  0  0  0
   37.0090   27.5810   31.9200 N   0  0  0  0  0  0  0  0  0  0  0  0
   35.8320   28.1250   32.2960 C   0  0  0  0  0  0  0  0  0  0  0  0
   35.0880   28.3260   31.5340 H   0  0  0  0  0  0  0  0  0  0  0  0
   35.8370   28.3150   33.6400 N   0  0  0  0  0  0  0  0  0  0  0  0
   37.0130   27.8930   34.1210 C   0  0  0  0  0  0  0  0  0  0  0  0
   37.5590   27.8470   35.3880 C   0  0  0  0  0  3  0  0  0  0  0  0
   37.3370   27.3060   30.9520 H   0  0  0  0  0  0  0  0  0  0  0  0
   37.8010   22.1050   35.5310 C   0  0  0  0  0  0  0  0  0  0  0  0
   38.0110   22.0660   34.1530 C   0  0  0  0  0  0  0  0  0  0  0  0
   37.0760   21.4310   33.3630 C   0  0  0  0  0  0  0  0  0  0  0  0
   35.9660   20.8580   33.9710 N   0  0  0  0  0  0  0  0  0  0  0  0
   35.7980   20.9210   35.3210 C   0  0  0  0  0  0  0  0  0  0  0  0
   36.7090   21.5360   36.0620 N   0  0  0  0  0  0  0  0  0  0  0  0
   38.7440   22.4120   33.4460 H   0  0  0  0  0  0  0  0  0  0  0  0
   36.9890   21.2570   32.3180 H   0  0  0  0  0  0  0  0  0  0  0  0
   34.9440   20.4830   35.8070 H   0  0  0  0  0  0  0  0  0  0  0  0
  1  6  1  0  0  0  0
  1  7  1  1  0  0  0
  2  1  1  0  0  0  0
  2  9  1  0  0  0  0
  3 10  1  6  0  0  0
  3  2  1  0  0  0  0
  3  4  1  0  0  0  0
  4 12  1  0  0  0  0
  4  5  1  0  0  0  0
  5 14  1  0  0  0  0
  5 13  1  0  0  0  0
  6  5  1  0  0  0  0
  6 15  1  0  0  0  0
  8  2  1  0  0  0  0
 11  4  1  0  0  0  0
 16  6  1  0  0  0  0
 17 22  1  6  0  0  0
 17 21  1  0  0  0  0
 17  3  1  0  0  0  0
 18 17  1  0  0  0  0
 18 23  1  0  0  0  0
 19 18  1  0  0  0  0
 19 20  1  0  0  0  0
 20 21  1  0  0  0  0
 21 27  1  1  0  0  0
 24 18  1  0  0  0  0
 25 19  1  0  0  0  0
 26 19  1  0  0  0  0
 29 21  1  0  0  0  0
 29 28  2  0  0  0  0
 30 29  1  0  0  0  0
 31 30  1  0  0  0  0
 32 30  2  0  0  0  0
 32 37  1  0  0  0  0
 33 34  1  0  0  0  0
 33 32  1  0  0  0  0
 34 36  2  0  0  0  0
 35 34  1  0  0  0  0
 36 37  1  0  0  0  0
 37 38  2  0  0  0  0
 38 28  1  0  0  0  0
 39 33  1  0  0  0  0
 40 45  1  0  0  0  0
 40  1  1  0  0  0  0
 41 40  2  0  0  0  0
 42 43  2  0  0  0  0
 42 41  1  0  0  0  0
 43 44  1  0  0  0  0
 44 48  1  0  0  0  0
 44 45  2  0  0  0  0
 46 41  1  0  0  0  0
 47 42  1  0  0  0  0
M  END
>  <minimizedAffinity>
-6.2554369

$$$$

 OpenBabel03262523393D

 48 52  0  0  1  0  0  0  0  0999 V2000
   37.7860   25.3460   35.7070 C   0  0  2  0  0  0  0  0  0  0  0  0
   37.9640   25.1430   34.2450 C   0  0  0  0  0  0  0  0  0  0  0  0
   38.8080   26.2370   33.5910 C   0  0  2  0  0  0  0  0  0  0  0  0
   38.1000   27.5590   33.7460 C   0  0  0  0  0  0  0  0  0  0  0  0
   37.6040   27.7790   35.1670 C   0  0  0  0  0  0  0  0  0  0  0  0
   38.1770   26.7520   36.1110 C   0  0  0  0  0  0  0  0  0  0  0  0
   36.7190   25.2490   36.0670 H   0  0  0  0  0  0  0  0  0  0  0  0
   38.2390   24.2140   33.8350 H   0  0  0  0  0  0  0  0  0  0  0  0
   36.9220   25.3580   33.8080 H   0  0  0  0  0  0  0  0  0  0  0  0
   39.7320   26.2990   34.2010 H   0  0  0  0  0  0  0  0  0  0  0  0
   38.8130   28.3960   33.5330 H   0  0  0  0  0  0  0  0  0  0  0  0
   37.2720   27.5760   32.9950 H   0  0  0  0  0  0  0  0  0  0  0  0
   36.4960   27.5950   35.1250 H   0  0  0  0  0  0  0  0  0  0  0  0
   37.7290   28.7910   35.5360 H   0  0  0  0  0  0  0  0  0  0  0  0
   37.7650   26.9400   37.1130 H   0  0  0  0  0  0  0  0  0  0  0  0
   39.2810   26.8180   36.1410 H   0  0  0  0  0  0  0  0  0  0  0  0
   39.2030   25.8960   32.2200 C   0  0  2  0  0  0  0  0  0  0  0  0
   40.1820   26.8200   31.5480 C   0  0  0  0  0  0  0  0  0  0  0  0
   40.0870   26.2160   30.1320 C   0  0  0  0  0  0  0  0  0  0  0  0
   38.7400   25.9920   29.9440 O   0  0  0  0  0  0  0  0  0  0  0  0
   38.1380   25.8350   31.1900 C   0  0  1  0  0  0  0  0  0  0  0  0
   39.6980   24.9010   32.2440 H   0  0  0  0  0  0  0  0  0  0  0  0
   39.8300   27.8480   31.4710 H   0  0  0  0  0  0  0  0  0  0  0  0
   41.2100   26.7120   31.9380 H   0  0  0  0  0  0  0  0  0  0  0  0
   40.5080   26.9210   29.3920 H   0  0  0  0  0  0  0  0  0  0  0  0
   40.6090   25.2540   30.1780 H   0  0  0  0  0  0  0  0  0  0  0  0
   37.3320   26.5780   31.2430 H   0  0  0  0  0  0  0  0  0  0  0  0
   36.0480   24.4020   31.2500 C   0  0  0  0  0  3  0  0  0  0  0  0
   37.4310   24.5110   31.1400 C   0  0  0  0  0  0  0  0  0  0  0  0
   38.1270   23.3320   30.9800 C   0  0  0  0  0  0  0  0  0  0  0  0
   39.1930   23.3310   30.8890 H   0  0  0  0  0  0  0  0  0  0  0  0
   37.5530   22.0770   30.9250 C   0  0  0  0  0  0  0  0  0  0  0  0
   38.0320   20.8290   30.7790 N   0  0  0  0  0  0  0  0  0  0  0  0
   36.9750   19.9890   30.7990 C   0  0  0  0  0  0  0  0  0  0  0  0
   37.1580   18.9250   30.6940 H   0  0  0  0  0  0  0  0  0  0  0  0
   35.8360   20.7090   30.9570 N   0  0  0  0  0  0  0  0  0  0  0  0
   36.1640   22.0040   31.0380 C   0  0  0  0  0  0  0  0  0  0  0  0
   35.4280   23.1620   31.1980 C   0  0  0  0  0  3  0  0  0  0  0  0
   39.0610   20.6030   30.6710 H   0  0  0  0  0  0  0  0  0  0  0  0
   38.5920   24.4120   36.5230 C   0  0  0  0  0  0  0  0  0  0  0  0
   38.1490   24.2210   37.8310 C   0  0  0  0  0  0  0  0  0  0  0  0
   38.8460   23.3470   38.6390 C   0  0  0  0  0  0  0  0  0  0  0  0
   39.9570   22.6960   38.1190 N   0  0  0  0  0  0  0  0  0  0  0  0
   40.3570   22.9140   36.8340 C   0  0  0  0  0  0  0  0  0  0  0  0
   39.6730   23.7570   36.0750 N   0  0  0  0  0  0  0  0  0  0  0  0
   37.3600   24.5780   38.4690 H   0  0  0  0  0  0  0  0  0  0  0  0
   38.7330   23.0230   39.6450 H   0  0  0  0  0  0  0  0  0  0  0  0
   41.2150   22.4180   36.4170 H   0  0  0  0  0  0  0  0  0  0  0  0
  1  7  1  1  0  0  0
  1  6  1  0  0  0  0
  1 40  1  0  0  0  0
  2  1  1  0  0  0  0
  3  4  1  0  0  0  0
  3 10  1  1  0  0  0
  3  2  1  0  0  0  0
  4  5  1  0  0  0  0
  5 14  1  0  0  0  0
  5  6  1  0  0  0  0
  6 16  1  0  0  0  0
  6 15  1  0  0  0  0
  8  2  1  0  0  0  0
  9  2  1  0  0  0  0
 11  4  1  0  0  0  0
 12  4  1  0  0  0  0
 13  5  1  0  0  0  0
 17 22  1  1  0  0  0
 17  3  1  0  0  0  0
 18 24  1  0  0  0  0
 18 17  1  0  0  0  0
 19 26  1  0  0  0  0
 19 18  1  0  0  0  0
 20 19  1  0  0  0  0
 20 21  1  0  0  0  0
 21 27  1  1  0  0  0
 21 17  1  0  0  0  0
 23 18  1  0  0  0  0
 25 19  1  0  0  0  0
 29 21  1  0  0  0  0
 29 28  2  0  0  0  0
 30 29  1  0  0  0  0
 31 30  1  0  0  0  0
 32 30  2  0  0  0  0
 32 37  1  0  0  0  0
 33 34  1  0  0  0  0
 33 32  1  0  0  0  0
 34 36  2  0  0  0  0
 35 34  1  0  0  0  0
 36 37  1  0  0  0  0
 37 38  2  0  0  0  0
 38 28  1  0  0  0  0
 39 33  1  0  0  0  0
 40 41  1  0  0  0  0
 41 46  1  0  0  0  0
 41 42  2  0  0  0  0
 42 47  1  0  0  0  0
 43 42  1  0  0  0  0
 44 43  2  0  0  0  0
 45 40  2  0  0  0  0
 45 44  1  0  0  0  0
 48 44  1  0  0  0  0
M  END
>  <minimizedAffinity>
-6.23190546

$$$$

 OpenBabel03262523393D

 48 52  0  0  1  0  0  0  0  0999 V2000
   37.8960   26.3910   33.5020 C   0  0  2  0  0  0  0  0  0  0  0  0
   38.5580   25.2320   34.1570 C   0  0  0  0  0  0  0  0  0  0  0  0
   38.0870   25.0110   35.5940 C   0  0  2  0  0  0  0  0  0  0  0  0
   38.4500   26.2180   36.4190 C   0  0  0  0  0  0  0  0  0  0  0  0
   38.0740   27.5180   35.7260 C   0  0  0  0  0  0  0  0  0  0  0  0
   37.1980   27.2640   34.5240 C   0  0  0  0  0  0  0  0  0  0  0  0
   38.6040   27.1000   32.9800 H   0  0  0  0  0  0  0  0  0  0  0  0
   38.6520   24.2960   33.6840 H   0  0  0  0  0  0  0  0  0  0  0  0
   39.6410   25.5860   34.3170 H   0  0  0  0  0  0  0  0  0  0  0  0
   36.9790   24.9850   35.5380 H   0  0  0  0  0  0  0  0  0  0  0  0
   37.8780   26.2030   37.3820 H   0  0  0  0  0  0  0  0  0  0  0  0
   39.5440   26.1490   36.6360 H   0  0  0  0  0  0  0  0  0  0  0  0
   39.0410   27.9360   35.3360 H   0  0  0  0  0  0  0  0  0  0  0  0
   37.6600   28.2760   36.3820 H   0  0  0  0  0  0  0  0  0  0  0  0
   36.9810   28.2310   34.0470 H   0  0  0  0  0  0  0  0  0  0  0  0
   36.2540   26.7730   34.8230 H   0  0  0  0  0  0  0  0  0  0  0  0
   38.5330   23.7230   36.1390 C   0  0  2  0  0  0  0  0  0  0  0  0
   39.6980   23.7590   37.0910 C   0  0  0  0  0  0  0  0  0  0  0  0
   39.9320   22.2370   37.1760 C   0  0  0  0  0  0  0  0  0  0  0  0
   39.8070   21.7970   35.8760 O   0  0  0  0  0  0  0  0  0  0  0  0
   38.9990   22.6930   35.1800 C   0  0  1  0  0  0  0  0  0  0  0  0
   37.6900   23.2830   36.7130 H   0  0  0  0  0  0  0  0  0  0  0  0
   40.6010   24.1890   36.6610 H   0  0  0  0  0  0  0  0  0  0  0  0
   39.4250   24.1560   38.0850 H   0  0  0  0  0  0  0  0  0  0  0  0
   40.9320   22.0320   37.6000 H   0  0  0  0  0  0  0  0  0  0  0  0
   39.1050   21.8350   37.7720 H   0  0  0  0  0  0  0  0  0  0  0  0
   39.5810   23.0280   34.3120 H   0  0  0  0  0  0  0  0  0  0  0  0
   36.7690   21.5000   35.3370 C   0  0  0  0  0  3  0  0  0  0  0  0
   37.8850   21.8720   34.5960 C   0  0  0  0  0  0  0  0  0  0  0  0
   37.9200   21.4460   33.2850 C   0  0  0  0  0  0  0  0  0  0  0  0
   38.7450   21.6910   32.6490 H   0  0  0  0  0  0  0  0  0  0  0  0
   36.9380   20.6900   32.6750 C   0  0  0  0  0  0  0  0  0  0  0  0
   36.7750   20.1800   31.4410 N   0  0  0  0  0  0  0  0  0  0  0  0
   35.5980   19.5190   31.4330 C   0  0  0  0  0  0  0  0  0  0  0  0
   35.2830   19.0330   30.5170 H   0  0  0  0  0  0  0  0  0  0  0  0
   35.0240   19.6160   32.6590 N   0  0  0  0  0  0  0  0  0  0  0  0
   35.8320   20.3350   33.4470 C   0  0  0  0  0  0  0  0  0  0  0  0
   35.7580   20.7410   34.7650 C   0  0  0  0  0  3  0  0  0  0  0  0
   37.4750   20.3040   30.6560 H   0  0  0  0  0  0  0  0  0  0  0  0
   36.8860   25.9900   32.5010 C   0  0  0  0  0  0  0  0  0  0  0  0
   36.8230   24.6250   32.2230 C   0  0  0  0  0  0  0  0  0  0  0  0
   35.8880   24.1820   31.3110 C   0  0  0  0  0  0  0  0  0  0  0  0
   35.0500   25.1110   30.7080 N   0  0  0  0  0  0  0  0  0  0  0  0
   35.1460   26.4370   31.0070 C   0  0  0  0  0  0  0  0  0  0  0  0
   36.0510   26.8410   31.8860 N   0  0  0  0  0  0  0  0  0  0  0  0
   37.3260   23.7230   32.5240 H   0  0  0  0  0  0  0  0  0  0  0  0
   35.6290   23.2270   30.9240 H   0  0  0  0  0  0  0  0  0  0  0  0
   34.5060   27.1690   30.5480 H   0  0  0  0  0  0  0  0  0  0  0  0
  1  7  1  6  0  0  0
  1  2  1  0  0  0  0
  1  6  1  0  0  0  0
  2  9  1  0  0  0  0
  2  3  1  0  0  0  0
  3 10  1  6  0  0  0
  3 17  1  0  0  0  0
  3  4  1  0  0  0  0
  4 12  1  0  0  0  0
  4 11  1  0  0  0  0
  5 14  1  0  0  0  0
  5  4  1  0  0  0  0
  6 16  1  0  0  0  0
  6  5  1  0  0  0  0
  8  2  1  0  0  0  0
 13  5  1  0  0  0  0
 15  6  1  0  0  0  0
 17 22  1  1  0  0  0
 17 18  1  0  0  0  0
 18 19  1  0  0  0  0
 18 24  1  0  0  0  0
 19 25  1  0  0  0  0
 19 26  1  0  0  0  0
 20 19  1  0  0  0  0
 21 27  1  6  0  0  0
 21 20  1  0  0  0  0
 21 17  1  0  0  0  0
 23 18  1  0  0  0  0
 29 21  1  0  0  0  0
 29 28  2  0  0  0  0
 30 29  1  0  0  0  0
 31 30  1  0  0  0  0
 32 30  2  0  0  0  0
 32 37  1  0  0  0  0
 33 32  1  0  0  0  0
 34 33  1  0  0  0  0
 34 36  2  0  0  0  0
 35 34  1  0  0  0  0
 36 37  1  0  0  0  0
 37 38  2  0  0  0  0
 38 28  1  0  0  0  0
 39 33  1  0  0  0  0
 40  1  1  0  0  0  0
 41 40  1  0  0  0  0
 41 46  1  0  0  0  0
 42 41  2  0  0  0  0
 43 44  2  0  0  0  0
 43 42  1  0  0  0  0
 44 45  1  0  0  0  0
 45 40  2  0  0  0  0
 47 42  1  0  0  0  0
 48 44  1  0  0  0  0
M  END
>  <minimizedAffinity>
-6.18857622

$$$$

 OpenBabel03262523393D

 48 52  0  0  1  0  0  0  0  0999 V2000
   38.6750   26.2030   34.8240 C   0  0  2  0  0  0  0  0  0  0  0  0
   37.5530   26.1120   33.8530 C   0  0  0  0  0  0  0  0  0  0  0  0
   38.0090   25.6880   32.4570 C   0  0  2  0  0  0  0  0  0  0  0  0
   38.9490   26.7310   31.9110 C   0  0  0  0  0  0  0  0  0  0  0  0
   40.0070   27.1340   32.9260 C   0  0  0  0  0  0  0  0  0  0  0  0
   40.0120   26.2020   34.1110 C   0  0  0  0  0  0  0  0  0  0  0  0
   38.6940   27.1570   35.4290 H   0  0  0  0  0  0  0  0  0  0  0  0
   36.6520   25.6190   34.0780 H   0  0  0  0  0  0  0  0  0  0  0  0
   37.2500   27.2080   33.6770 H   0  0  0  0  0  0  0  0  0  0  0  0
   38.6100   24.7680   32.6110 H   0  0  0  0  0  0  0  0  0  0  0  0
   39.5050   26.3150   31.0320 H   0  0  0  0  0  0  0  0  0  0  0  0
   38.3220   27.5950   31.5790 H   0  0  0  0  0  0  0  0  0  0  0  0
   39.6820   28.1390   33.3090 H   0  0  0  0  0  0  0  0  0  0  0  0
   40.9990   27.2750   32.5110 H   0  0  0  0  0  0  0  0  0  0  0  0
   40.7710   26.5550   34.8230 H   0  0  0  0  0  0  0  0  0  0  0  0
   40.2440   25.1680   33.7970 H   0  0  0  0  0  0  0  0  0  0  0  0
   36.8840   25.3400   31.5810 C   0  0  2  0  0  0  0  0  0  0  0  0
   35.7880   26.3630   31.4500 C   0  0  0  0  0  0  0  0  0  0  0  0
   34.7840   25.4810   30.6800 C   0  0  0  0  0  0  0  0  0  0  0  0
   34.8440   24.2590   31.3140 O   0  0  0  0  0  0  0  0  0  0  0  0
   36.0900   24.1350   31.9230 C   0  0  1  0  0  0  0  0  0  0  0  0
   37.2810   25.1930   30.5530 H   0  0  0  0  0  0  0  0  0  0  0  0
   35.3140   26.6200   32.3960 H   0  0  0  0  0  0  0  0  0  0  0  0
   36.0830   27.2290   30.8310 H   0  0  0  0  0  0  0  0  0  0  0  0
   33.7750   25.9330   30.7220 H   0  0  0  0  0  0  0  0  0  0  0  0
   35.1840   25.3800   29.6660 H   0  0  0  0  0  0  0  0  0  0  0  0
   35.8990   23.9330   32.9850 H   0  0  0  0  0  0  0  0  0  0  0  0
   37.9800   22.7910   30.9020 C   0  0  0  0  0  3  0  0  0  0  0  0
   36.6810   22.8600   31.3940 C   0  0  0  0  0  0  0  0  0  0  0  0
   35.9550   21.6890   31.3730 C   0  0  0  0  0  0  0  0  0  0  0  0
   34.9480   21.6590   31.7340 H   0  0  0  0  0  0  0  0  0  0  0  0
   36.4240   20.4770   30.9040 C   0  0  0  0  0  0  0  0  0  0  0  0
   35.8990   19.2440   30.7940 N   0  0  0  0  0  0  0  0  0  0  0  0
   36.8480   18.4510   30.2520 C   0  0  0  0  0  0  0  0  0  0  0  0
   36.6140   17.4060   30.0810 H   0  0  0  0  0  0  0  0  0  0  0  0
   37.9660   19.1860   30.0230 N   0  0  0  0  0  0  0  0  0  0  0  0
   37.7310   20.4430   30.4170 C   0  0  0  0  0  0  0  0  0  0  0  0
   38.4940   21.5950   30.4210 C   0  0  0  0  0  3  0  0  0  0  0  0
   34.9140   18.9950   31.0930 H   0  0  0  0  0  0  0  0  0  0  0  0
   38.6920   25.0880   35.7950 C   0  0  0  0  0  0  0  0  0  0  0  0
   39.7070   24.1490   35.6150 C   0  0  0  0  0  0  0  0  0  0  0  0
   39.7900   23.0930   36.4980 C   0  0  0  0  0  0  0  0  0  0  0  0
   38.8620   23.0090   37.5280 N   0  0  0  0  0  0  0  0  0  0  0  0
   37.8850   23.9480   37.6670 C   0  0  0  0  0  0  0  0  0  0  0  0
   37.8230   24.9540   36.8070 N   0  0  0  0  0  0  0  0  0  0  0  0
   40.5210   23.9720   34.9340 H   0  0  0  0  0  0  0  0  0  0  0  0
   40.4430   22.2600   36.5930 H   0  0  0  0  0  0  0  0  0  0  0  0
   37.1580   23.8960   38.4590 H   0  0  0  0  0  0  0  0  0  0  0  0
  1  7  1  1  0  0  0
  1 40  1  0  0  0  0
  2  8  1  0  0  0  0
  2  1  1  0  0  0  0
  3 10  1  1  0  0  0
  3  2  1  0  0  0  0
  4  3  1  0  0  0  0
  4  5  1  0  0  0  0
  5 13  1  0  0  0  0
  5  6  1  0  0  0  0
  6 15  1  0  0  0  0
  6  1  1  0  0  0  0
  9  2  1  0  0  0  0
 11  4  1  0  0  0  0
 12  4  1  0  0  0  0
 14  5  1  0  0  0  0
 16  6  1  0  0  0  0
 17 22  1  6  0  0  0
 17 21  1  0  0  0  0
 17  3  1  0  0  0  0
 18 17  1  0  0  0  0
 18 23  1  0  0  0  0
 19 25  1  0  0  0  0
 19 20  1  0  0  0  0
 19 18  1  0  0  0  0
 20 21  1  0  0  0  0
 21 27  1  1  0  0  0
 24 18  1  0  0  0  0
 26 19  1  0  0  0  0
 28 29  1  0  0  0  0
 29 21  1  0  0  0  0
 30 29  2  0  0  0  0
 30 31  1  0  0  0  0
 32 30  1  0  0  0  0
 33 32  1  0  0  0  0
 33 39  1  0  0  0  0
 34 33  1  0  0  0  0
 35 34  1  0  0  0  0
 36 34  2  0  0  0  0
 36 37  1  0  0  0  0
 37 38  1  0  0  0  0
 37 32  2  0  0  0  0
 38 28  2  0  0  0  0
 40 45  1  0  0  0  0
 41 40  2  0  0  0  0
 41 42  1  0  0  0  0
 42 47  1  0  0  0  0
 42 43  2  0  0  0  0
 43 44  1  0  0  0  0
 44 48  1  0  0  0  0
 45 44  2  0  0  0  0
 46 41  1  0  0  0  0
M  END
>  <minimizedAffinity>
-6.17697573

$$$$

 OpenBabel03262523393D

 48 52  0  0  1  0  0  0  0  0999 V2000
   39.5210   26.4900   35.3080 C   0  0  2  0  0  0  0  0  0  0  0  0
   38.6010   26.9160   34.2210 C   0  0  0  0  0  0  0  0  0  0  0  0
   39.1390   26.5960   32.8270 C   0  0  2  0  0  0  0  0  0  0  0  0
   40.4210   27.3570   32.6110 C   0  0  0  0  0  0  0  0  0  0  0  0
   41.3660   27.2350   33.7960 C   0  0  0  0  0  0  0  0  0  0  0  0
   40.8980   26.1750   34.7610 C   0  0  0  0  0  0  0  0  0  0  0  0
   39.7170   27.2800   36.0920 H   0  0  0  0  0  0  0  0  0  0  0  0
   37.5700   26.7080   34.2420 H   0  0  0  0  0  0  0  0  0  0  0  0
   38.6650   28.0650   34.2390 H   0  0  0  0  0  0  0  0  0  0  0  0
   39.4090   25.5200   32.8570 H   0  0  0  0  0  0  0  0  0  0  0  0
   40.9700   26.9310   31.7320 H   0  0  0  0  0  0  0  0  0  0  0  0
   40.1400   28.4170   32.3940 H   0  0  0  0  0  0  0  0  0  0  0  0
   41.2900   28.2180   34.3370 H   0  0  0  0  0  0  0  0  0  0  0  0
   42.4100   27.1160   33.5300 H   0  0  0  0  0  0  0  0  0  0  0  0
   41.5970   26.1490   35.6090 H   0  0  0  0  0  0  0  0  0  0  0  0
   40.8660   25.1840   34.2710 H   0  0  0  0  0  0  0  0  0  0  0  0
   38.1240   26.7700   31.7810 C   0  0  2  0  0  0  0  0  0  0  0  0
   37.9220   28.1660   31.2600 C   0  0  0  0  0  0  0  0  0  0  0  0
   36.6590   27.8840   30.4200 C   0  0  0  0  0  0  0  0  0  0  0  0
   35.8880   27.0700   31.2220 O   0  0  0  0  0  0  0  0  0  0  0  0
   36.7270   26.3970   32.1070 C   0  0  1  0  0  0  0  0  0  0  0  0
   38.4320   26.1630   30.9010 H   0  0  0  0  0  0  0  0  0  0  0  0
   37.6310   28.8820   32.0280 H   0  0  0  0  0  0  0  0  0  0  0  0
   38.7450   28.5020   30.6040 H   0  0  0  0  0  0  0  0  0  0  0  0
   36.1530   28.8350   30.1690 H   0  0  0  0  0  0  0  0  0  0  0  0
   36.9960   27.3150   29.5480 H   0  0  0  0  0  0  0  0  0  0  0  0
   36.3600   26.6220   33.1170 H   0  0  0  0  0  0  0  0  0  0  0  0
   35.3530   24.4840   31.1700 C   0  0  0  0  0  3  0  0  0  0  0  0
   36.4370   24.9360   31.9150 C   0  0  0  0  0  0  0  0  0  0  0  0
   37.2420   23.9660   32.4740 C   0  0  0  0  0  0  0  0  0  0  0  0
   38.0960   24.2320   33.0620 H   0  0  0  0  0  0  0  0  0  0  0  0
   37.0440   22.6050   32.3450 C   0  0  0  0  0  0  0  0  0  0  0  0
   37.6890   21.5150   32.7960 N   0  0  0  0  0  0  0  0  0  0  0  0
   37.0190   20.4350   32.3390 C   0  0  0  0  0  0  0  0  0  0  0  0
   37.3870   19.4490   32.5980 H   0  0  0  0  0  0  0  0  0  0  0  0
   35.9560   20.8490   31.6030 N   0  0  0  0  0  0  0  0  0  0  0  0
   35.9470   22.1870   31.5910 C   0  0  0  0  0  0  0  0  0  0  0  0
   35.1160   23.1260   31.0130 C   0  0  0  0  0  3  0  0  0  0  0  0
   38.5610   21.5520   33.3970 H   0  0  0  0  0  0  0  0  0  0  0  0
   39.0470   25.2890   36.0290 C   0  0  0  0  0  0  0  0  0  0  0  0
   39.6030   24.0800   35.6130 C   0  0  0  0  0  0  0  0  0  0  0  0
   39.2180   22.9230   36.2570 C   0  0  0  0  0  0  0  0  0  0  0  0
   38.2940   23.0090   37.2900 N   0  0  0  0  0  0  0  0  0  0  0  0
   37.7740   24.2120   37.6650 C   0  0  0  0  0  0  0  0  0  0  0  0
   38.1580   25.3110   37.0320 N   0  0  0  0  0  0  0  0  0  0  0  0
   40.3040   23.7340   34.8730 H   0  0  0  0  0  0  0  0  0  0  0  0
   39.4750   21.8970   36.1490 H   0  0  0  0  0  0  0  0  0  0  0  0
   37.0570   24.2950   38.4620 H   0  0  0  0  0  0  0  0  0  0  0  0
  1 40  1  0  0  0  0
  1  7  1  1  0  0  0
  2  9  1  0  0  0  0
  2  8  1  0  0  0  0
  2  1  1  0  0  0  0
  3 10  1  1  0  0  0
  3  2  1  0  0  0  0
  4  3  1  0  0  0  0
  4  5  1  0  0  0  0
  5 13  1  0  0  0  0
  5  6  1  0  0  0  0
  6  1  1  0  0  0  0
  6 15  1  0  0  0  0
 11  4  1  0  0  0  0
 12  4  1  0  0  0  0
 14  5  1  0  0  0  0
 16  6  1  0  0  0  0
 17 22  1  6  0  0  0
 17 21  1  0  0  0  0
 17  3  1  0  0  0  0
 18 17  1  0  0  0  0
 18 23  1  0  0  0  0
 19 20  1  0  0  0  0
 19 18  1  0  0  0  0
 20 21  1  0  0  0  0
 21 27  1  1  0  0  0
 24 18  1  0  0  0  0
 25 19  1  0  0  0  0
 26 19  1  0  0  0  0
 28 29  1  0  0  0  0
 29 21  1  0  0  0  0
 29 30  2  0  0  0  0
 30 31  1  0  0  0  0
 32 30  1  0  0  0  0
 32 33  1  0  0  0  0
 33 39  1  0  0  0  0
 34 35  1  0  0  0  0
 34 33  1  0  0  0  0
 36 34  2  0  0  0  0
 37 36  1  0  0  0  0
 37 32  2  0  0  0  0
 38 28  2  0  0  0  0
 38 37  1  0  0  0  0
 40 45  1  0  0  0  0
 41 40  2  0  0  0  0
 41 42  1  0  0  0  0
 42 43  2  0  0  0  0
 43 44  1  0  0  0  0
 44 48  1  0  0  0  0
 45 44  2  0  0  0  0
 46 41  1  0  0  0  0
 47 42  1  0  0  0  0
M  END
>  <minimizedAffinity>
-6.17215633

$$$$

 OpenBabel03262523393D

 48 52  0  0  1  0  0  0  0  0999 V2000
   36.0430   23.4920   30.9430 C   0  0  2  0  0  0  0  0  0  0  0  0
   37.2770   24.2760   31.2140 C   0  0  0  0  0  0  0  0  0  0  0  0
   37.0040   25.5680   31.9830 C   0  0  2  0  0  0  0  0  0  0  0  0
   36.1200   26.4580   31.1480 C   0  0  0  0  0  0  0  0  0  0  0  0
   34.9380   25.7010   30.5620 C   0  0  0  0  0  0  0  0  0  0  0  0
   34.8050   24.3320   31.1800 C   0  0  0  0  0  0  0  0  0  0  0  0
   35.9340   23.1460   29.8730 H   0  0  0  0  0  0  0  0  0  0  0  0
   38.1530   23.8340   31.5950 H   0  0  0  0  0  0  0  0  0  0  0  0
   37.5810   24.6790   30.1800 H   0  0  0  0  0  0  0  0  0  0  0  0
   36.4050   25.2630   32.8660 H   0  0  0  0  0  0  0  0  0  0  0  0
   35.6840   27.2660   31.7890 H   0  0  0  0  0  0  0  0  0  0  0  0
   36.7680   26.9170   30.3610 H   0  0  0  0  0  0  0  0  0  0  0  0
   35.1960   25.5420   29.4800 H   0  0  0  0  0  0  0  0  0  0  0  0
   34.0030   26.2490   30.5720 H   0  0  0  0  0  0  0  0  0  0  0  0
   33.9570   23.8210   30.7020 H   0  0  0  0  0  0  0  0  0  0  0  0
   34.6310   24.4080   32.2690 H   0  0  0  0  0  0  0  0  0  0  0  0
   38.2350   26.1960   32.4780 C   0  0  2  0  0  0  0  0  0  0  0  0
   39.1510   26.7960   31.4460 C   0  0  0  0  0  0  0  0  0  0  0  0
   40.3430   27.0830   32.3810 C   0  0  0  0  0  0  0  0  0  0  0  0
   40.4410   25.9560   33.1690 O   0  0  0  0  0  0  0  0  0  0  0  0
   39.1910   25.3450   33.2270 C   0  0  1  0  0  0  0  0  0  0  0  0
   37.9460   27.0360   33.1470 H   0  0  0  0  0  0  0  0  0  0  0  0
   39.5020   26.0800   30.7050 H   0  0  0  0  0  0  0  0  0  0  0  0
   38.7620   27.7420   31.0280 H   0  0  0  0  0  0  0  0  0  0  0  0
   41.2560   27.2640   31.7840 H   0  0  0  0  0  0  0  0  0  0  0  0
   40.0430   27.9320   33.0040 H   0  0  0  0  0  0  0  0  0  0  0  0
   39.3320   24.3120   32.8850 H   0  0  0  0  0  0  0  0  0  0  0  0
   38.4220   26.3000   35.4450 C   0  0  0  0  0  3  0  0  0  0  0  0
   38.8630   25.2200   34.6870 C   0  0  0  0  0  0  0  0  0  0  0  0
   38.9850   24.0170   35.3490 C   0  0  0  0  0  0  0  0  0  0  0  0
   39.3180   23.1390   34.8360 H   0  0  0  0  0  0  0  0  0  0  0  0
   38.7050   23.8200   36.6860 C   0  0  0  0  0  0  0  0  0  0  0  0
   38.7540   22.7580   37.5110 N   0  0  0  0  0  0  0  0  0  0  0  0
   38.3560   23.1790   38.7310 C   0  0  0  0  0  0  0  0  0  0  0  0
   38.3270   22.4610   39.5420 H   0  0  0  0  0  0  0  0  0  0  0  0
   38.0570   24.5020   38.6700 N   0  0  0  0  0  0  0  0  0  0  0  0
   38.2650   24.9240   37.4170 C   0  0  0  0  0  0  0  0  0  0  0  0
   38.1280   26.1480   36.7930 C   0  0  0  0  0  3  0  0  0  0  0  0
   39.0570   21.7900   37.2060 H   0  0  0  0  0  0  0  0  0  0  0  0
   35.9270   22.2870   31.7910 C   0  0  0  0  0  0  0  0  0  0  0  0
   36.7730   22.2460   32.8990 C   0  0  0  0  0  0  0  0  0  0  0  0
   36.7010   21.1570   33.7410 C   0  0  0  0  0  0  0  0  0  0  0  0
   35.7920   20.1470   33.4520 N   0  0  0  0  0  0  0  0  0  0  0  0
   34.9840   20.2260   32.3580 C   0  0  0  0  0  0  0  0  0  0  0  0
   35.0690   21.2810   31.5620 N   0  0  0  0  0  0  0  0  0  0  0  0
   37.5400   22.8560   33.3430 H   0  0  0  0  0  0  0  0  0  0  0  0
   37.2110   20.8760   34.6300 H   0  0  0  0  0  0  0  0  0  0  0  0
   34.2750   19.4520   32.1200 H   0  0  0  0  0  0  0  0  0  0  0  0
  1  7  1  6  0  0  0
  1  6  1  0  0  0  0
  1  2  1  0  0  0  0
  1 40  1  0  0  0  0
  2  8  1  0  0  0  0
  2  3  1  0  0  0  0
  3 17  1  0  0  0  0
  3 10  1  1  0  0  0
  4 11  1  0  0  0  0
  4  3  1  0  0  0  0
  5 14  1  0  0  0  0
  5  4  1  0  0  0  0
  5  6  1  0  0  0  0
  6 16  1  0  0  0  0
  9  2  1  0  0  0  0
 12  4  1  0  0  0  0
 13  5  1  0  0  0  0
 15  6  1  0  0  0  0
 17 22  1  1  0  0  0
 17 21  1  0  0  0  0
 18 19  1  0  0  0  0
 18 17  1  0  0  0  0
 19 26  1  0  0  0  0
 19 20  1  0  0  0  0
 20 21  1  0  0  0  0
 21 27  1  6  0  0  0
 21 29  1  0  0  0  0
 23 18  1  0  0  0  0
 24 18  1  0  0  0  0
 25 19  1  0  0  0  0
 28 38  1  0  0  0  0
 29 30  1  0  0  0  0
 29 28  2  0  0  0  0
 30 32  2  0  0  0  0
 31 30  1  0  0  0  0
 32 37  1  0  0  0  0
 32 33  1  0  0  0  0
 33 34  1  0  0  0  0
 34 35  1  0  0  0  0
 36 34  2  0  0  0  0
 37 36  1  0  0  0  0
 38 37  2  0  0  0  0
 39 33  1  0  0  0  0
 40 41  1  0  0  0  0
 41 46  1  0  0  0  0
 41 42  2  0  0  0  0
 42 47  1  0  0  0  0
 43 42  1  0  0  0  0
 44 43  2  0  0  0  0
 45 40  2  0  0  0  0
 45 44  1  0  0  0  0
 48 44  1  0  0  0  0
M  END
>  <minimizedAffinity>
-6.09712124

$$$$

 OpenBabel03262523393D

 48 52  0  0  1  0  0  0  0  0999 V2000
   38.7610   26.3910   35.5630 C   0  0  2  0  0  0  0  0  0  0  0  0
   37.5790   26.5480   34.6760 C   0  0  0  0  0  0  0  0  0  0  0  0
   37.8560   26.1240   33.2340 C   0  0  2  0  0  0  0  0  0  0  0  0
   38.9280   27.0140   32.6600 C   0  0  0  0  0  0  0  0  0  0  0  0
   40.1070   27.1730   33.6070 C   0  0  0  0  0  0  0  0  0  0  0  0
   40.0250   26.1940   34.7510 C   0  0  0  0  0  0  0  0  0  0  0  0
   38.9900   27.2950   36.2020 H   0  0  0  0  0  0  0  0  0  0  0  0
   36.6210   26.2090   34.9500 H   0  0  0  0  0  0  0  0  0  0  0  0
   37.4640   27.6880   34.5670 H   0  0  0  0  0  0  0  0  0  0  0  0
   38.2930   25.1070   33.3060 H   0  0  0  0  0  0  0  0  0  0  0  0
   39.3400   26.5540   31.7260 H   0  0  0  0  0  0  0  0  0  0  0  0
   38.4440   27.9900   32.4110 H   0  0  0  0  0  0  0  0  0  0  0  0
   39.9930   28.1980   34.0530 H   0  0  0  0  0  0  0  0  0  0  0  0
   41.0780   27.1590   33.1240 H   0  0  0  0  0  0  0  0  0  0  0  0
   40.8820   26.3710   35.4170 H   0  0  0  0  0  0  0  0  0  0  0  0
   40.0480   25.1520   34.3800 H   0  0  0  0  0  0  0  0  0  0  0  0
   36.6300   26.0250   32.4330 C   0  0  2  0  0  0  0  0  0  0  0  0
   36.2880   24.6660   31.8860 C   0  0  0  0  0  0  0  0  0  0  0  0
   35.1310   25.1080   30.9660 C   0  0  0  0  0  0  0  0  0  0  0  0
   35.5890   26.2620   30.3680 O   0  0  0  0  0  0  0  0  0  0  0  0
   36.5440   26.8430   31.2000 C   0  0  1  0  0  0  0  0  0  0  0  0
   35.7730   26.3120   33.0810 H   0  0  0  0  0  0  0  0  0  0  0  0
   37.0580   24.2490   31.2390 H   0  0  0  0  0  0  0  0  0  0  0  0
   35.9110   23.9750   32.6620 H   0  0  0  0  0  0  0  0  0  0  0  0
   34.9060   24.3110   30.2340 H   0  0  0  0  0  0  0  0  0  0  0  0
   34.2940   25.3540   31.6280 H   0  0  0  0  0  0  0  0  0  0  0  0
   37.4540   26.9580   30.5970 H   0  0  0  0  0  0  0  0  0  0  0  0
   36.4970   29.3210   30.6690 C   0  0  0  0  0  3  0  0  0  0  0  0
   36.0730   28.2480   31.4460 C   0  0  0  0  0  0  0  0  0  0  0  0
   35.1890   28.5400   32.4620 C   0  0  0  0  0  0  0  0  0  0  0  0
   34.8160   27.7700   33.1050 H   0  0  0  0  0  0  0  0  0  0  0  0
   34.7100   29.8020   32.7540 C   0  0  0  0  0  0  0  0  0  0  0  0
   33.8650   30.2970   33.6760 N   0  0  0  0  0  0  0  0  0  0  0  0
   33.7780   31.6280   33.4660 C   0  0  0  0  0  0  0  0  0  0  0  0
   33.1370   32.2140   34.1150 H   0  0  0  0  0  0  0  0  0  0  0  0
   34.5670   31.9660   32.4140 N   0  0  0  0  0  0  0  0  0  0  0  0
   35.1550   30.8550   31.9550 C   0  0  0  0  0  0  0  0  0  0  0  0
   36.0400   30.6060   30.9240 C   0  0  0  0  0  3  0  0  0  0  0  0
   33.3820   29.7060   34.4100 H   0  0  0  0  0  0  0  0  0  0  0  0
   38.6450   25.2420   36.4850 C   0  0  0  0  0  0  0  0  0  0  0  0
   39.2690   24.0680   36.0640 C   0  0  0  0  0  0  0  0  0  0  0  0
   39.2140   22.9630   36.8880 C   0  0  0  0  0  0  0  0  0  0  0  0
   38.5410   23.0640   38.0980 N   0  0  0  0  0  0  0  0  0  0  0  0
   37.9430   24.2310   38.4700 C   0  0  0  0  0  0  0  0  0  0  0  0
   38.0080   25.2800   37.6640 N   0  0  0  0  0  0  0  0  0  0  0  0
   39.8320   23.7210   35.2160 H   0  0  0  0  0  0  0  0  0  0  0  0
   39.5910   21.9720   36.8180 H   0  0  0  0  0  0  0  0  0  0  0  0
   37.4170   24.3250   39.4040 H   0  0  0  0  0  0  0  0  0  0  0  0
  1  7  1  1  0  0  0
  1 40  1  0  0  0  0
  2  8  1  0  0  0  0
  2  1  1  0  0  0  0
  3 10  1  1  0  0  0
  3  2  1  0  0  0  0
  4  3  1  0  0  0  0
  4  5  1  0  0  0  0
  5 13  1  0  0  0  0
  5  6  1  0  0  0  0
  6 15  1  0  0  0  0
  6  1  1  0  0  0  0
  9  2  1  0  0  0  0
 11  4  1  0  0  0  0
 12  4  1  0  0  0  0
 14  5  1  0  0  0  0
 16  6  1  0  0  0  0
 17 22  1  1  0  0  0
 17  3  1  0  0  0  0
 18 17  1  0  0  0  0
 18 24  1  0  0  0  0
 19 26  1  0  0  0  0
 19 18  1  0  0  0  0
 20 19  1  0  0  0  0
 20 21  1  0  0  0  0
 21 27  1  6  0  0  0
 21 29  1  0  0  0  0
 21 17  1  0  0  0  0
 23 18  1  0  0  0  0
 25 19  1  0  0  0  0
 28 38  2  0  0  0  0
 28 29  1  0  0  0  0
 29 30  2  0  0  0  0
 30 32  1  0  0  0  0
 30 31  1  0  0  0  0
 32 33  1  0  0  0  0
 33 39  1  0  0  0  0
 34 33  1  0  0  0  0
 34 35  1  0  0  0  0
 36 34  2  0  0  0  0
 37 36  1  0  0  0  0
 37 32  2  0  0  0  0
 38 37  1  0  0  0  0
 40 45  1  0  0  0  0
 41 40  2  0  0  0  0
 41 42  1  0  0  0  0
 42 43  2  0  0  0  0
 43 44  1  0  0  0  0
 44 48  1  0  0  0  0
 45 44  2  0  0  0  0
 46 41  1  0  0  0  0
 47 42  1  0  0  0  0
M  END
>  <minimizedAffinity>
-6.08358192

$$$$

 OpenBabel03262523393D

 48 52  0  0  1  0  0  0  0  0999 V2000
   35.5780   30.9750   32.0690 C   0  0  2  0  0  0  0  0  0  0  0  0
   35.5820   29.4910   31.9840 C   0  0  0  0  0  0  0  0  0  0  0  0
   36.8620   28.9330   31.3620 C   0  0  2  0  0  0  0  0  0  0  0  0
   36.9750   29.4320   29.9450 C   0  0  0  0  0  0  0  0  0  0  0  0
   36.7120   30.9270   29.8420 C   0  0  0  0  0  0  0  0  0  0  0  0
   36.6720   31.5700   31.2050 C   0  0  0  0  0  0  0  0  0  0  0  0
   34.6350   31.4640   31.6830 H   0  0  0  0  0  0  0  0  0  0  0  0
   35.3060   28.8800   32.7940 H   0  0  0  0  0  0  0  0  0  0  0  0
   34.8050   29.2590   31.1670 H   0  0  0  0  0  0  0  0  0  0  0  0
   37.6920   29.4010   31.9310 H   0  0  0  0  0  0  0  0  0  0  0  0
   38.0200   29.2750   29.5710 H   0  0  0  0  0  0  0  0  0  0  0  0
   36.2660   28.8280   29.3280 H   0  0  0  0  0  0  0  0  0  0  0  0
   35.6770   31.0160   29.4140 H   0  0  0  0  0  0  0  0  0  0  0  0
   37.3680   31.4540   29.1580 H   0  0  0  0  0  0  0  0  0  0  0  0
   36.4510   32.6390   31.0740 H   0  0  0  0  0  0  0  0  0  0  0  0
   37.6390   31.4480   31.7260 H   0  0  0  0  0  0  0  0  0  0  0  0
   36.9770   27.4800   31.5250 C   0  0  2  0  0  0  0  0  0  0  0  0
   35.7840   26.6570   31.1210 C   0  0  0  0  0  0  0  0  0  0  0  0
   36.2730   25.3070   31.6850 C   0  0  0  0  0  0  0  0  0  0  0  0
   36.8120   25.6230   32.9140 O   0  0  0  0  0  0  0  0  0  0  0  0
   37.2190   26.9550   32.8900 C   0  0  1  0  0  0  0  0  0  0  0  0
   37.8150   27.1280   30.8830 H   0  0  0  0  0  0  0  0  0  0  0  0
   34.8750   26.9100   31.6640 H   0  0  0  0  0  0  0  0  0  0  0  0
   35.6640   26.5870   30.0250 H   0  0  0  0  0  0  0  0  0  0  0  0
   35.4260   24.6010   31.7620 H   0  0  0  0  0  0  0  0  0  0  0  0
   37.0730   24.9710   31.0170 H   0  0  0  0  0  0  0  0  0  0  0  0
   36.7090   27.4510   33.7260 H   0  0  0  0  0  0  0  0  0  0  0  0
   39.0840   26.7610   34.5950 C   0  0  0  0  0  3  0  0  0  0  0  0
   38.6690   26.9480   33.2810 C   0  0  0  0  0  0  0  0  0  0  0  0
   39.6640   27.1280   32.3440 C   0  0  0  0  0  0  0  0  0  0  0  0
   39.4270   27.2780   31.3120 H   0  0  0  0  0  0  0  0  0  0  0  0
   41.0170   27.1350   32.6210 C   0  0  0  0  0  0  0  0  0  0  0  0
   42.1280   27.2890   31.8790 N   0  0  0  0  0  0  0  0  0  0  0  0
   43.1840   27.1990   32.7160 C   0  0  0  0  0  0  0  0  0  0  0  0
   44.1820   27.2990   32.3030 H   0  0  0  0  0  0  0  0  0  0  0  0
   42.7360   26.9880   33.9790 N   0  0  0  0  0  0  0  0  0  0  0  0
   41.3990   26.9440   33.9500 C   0  0  0  0  0  0  0  0  0  0  0  0
   40.4330   26.7590   34.9200 C   0  0  0  0  0  3  0  0  0  0  0  0
   42.1190   27.4500   30.8330 H   0  0  0  0  0  0  0  0  0  0  0  0
   35.7810   31.4760   33.4440 C   0  0  0  0  0  0  0  0  0  0  0  0
   36.2560   32.7830   33.5450 C   0  0  0  0  0  0  0  0  0  0  0  0
   36.4490   33.3180   34.8010 C   0  0  0  0  0  0  0  0  0  0  0  0
   36.1640   32.5350   35.9120 N   0  0  0  0  0  0  0  0  0  0  0  0
   35.7020   31.2610   35.7690 C   0  0  0  0  0  0  0  0  0  0  0  0
   35.5240   30.7660   34.5530 N   0  0  0  0  0  0  0  0  0  0  0  0
   36.5510   33.5800   32.8850 H   0  0  0  0  0  0  0  0  0  0  0  0
   36.7900   34.2590   35.1580 H   0  0  0  0  0  0  0  0  0  0  0  0
   35.4770   30.6410   36.6190 H   0  0  0  0  0  0  0  0  0  0  0  0
  1  7  1  6  0  0  0
  1 40  1  0  0  0  0
  2  1  1  0  0  0  0
  2  8  1  0  0  0  0
  3 17  1  0  0  0  0
  3 10  1  1  0  0  0
  3  2  1  0  0  0  0
  4  3  1  0  0  0  0
  5  4  1  0  0  0  0
  5  6  1  0  0  0  0
  6 16  1  0  0  0  0
  6  1  1  0  0  0  0
  9  2  1  0  0  0  0
 11  4  1  0  0  0  0
 12  4  1  0  0  0  0
 13  5  1  0  0  0  0
 14  5  1  0  0  0  0
 15  6  1  0  0  0  0
 17 22  1  6  0  0  0
 17 21  1  0  0  0  0
 18 17  1  0  0  0  0
 18 23  1  0  0  0  0
 18 19  1  0  0  0  0
 19 25  1  0  0  0  0
 19 20  1  0  0  0  0
 21 20  1  0  0  0  0
 21 29  1  0  0  0  0
 21 27  1  1  0  0  0
 24 18  1  0  0  0  0
 26 19  1  0  0  0  0
 28 38  1  0  0  0  0
 29 28  2  0  0  0  0
 30 32  2  0  0  0  0
 30 29  1  0  0  0  0
 31 30  1  0  0  0  0
 32 37  1  0  0  0  0
 33 32  1  0  0  0  0
 33 34  1  0  0  0  0
 34 36  2  0  0  0  0
 35 34  1  0  0  0  0
 37 36  1  0  0  0  0
 37 38  2  0  0  0  0
 39 33  1  0  0  0  0
 40 41  2  0  0  0  0
 40 45  1  0  0  0  0
 41 42  1  0  0  0  0
 42 47  1  0  0  0  0
 42 43  2  0  0  0  0
 44 43  1  0  0  0  0
 44 48  1  0  0  0  0
 45 44  2  0  0  0  0
 46 41  1  0  0  0  0
M  END
>  <minimizedAffinity>
-5.96174955

$$$$

 OpenBabel03262523393D

 48 52  0  0  1  0  0  0  0  0999 V2000
   38.4930   21.8680   34.2690 C   0  0  2  0  0  0  0  0  0  0  0  0
   38.8480   22.8390   33.2020 C   0  0  0  0  0  0  0  0  0  0  0  0
   37.6240   23.4970   32.5650 C   0  0  2  0  0  0  0  0  0  0  0  0
   36.7880   22.4350   31.9000 C   0  0  0  0  0  0  0  0  0  0  0  0
   36.5740   21.2280   32.8010 C   0  0  0  0  0  0  0  0  0  0  0  0
   37.0210   21.5140   34.2130 C   0  0  0  0  0  0  0  0  0  0  0  0
   39.0130   20.8680   34.1850 H   0  0  0  0  0  0  0  0  0  0  0  0
   39.5960   23.5680   33.3300 H   0  0  0  0  0  0  0  0  0  0  0  0
   39.2320   22.1770   32.3420 H   0  0  0  0  0  0  0  0  0  0  0  0
   37.0260   23.8880   33.4140 H   0  0  0  0  0  0  0  0  0  0  0  0
   35.7680   22.8410   31.6780 H   0  0  0  0  0  0  0  0  0  0  0  0
   37.2980   22.1690   30.9420 H   0  0  0  0  0  0  0  0  0  0  0  0
   37.2620   20.4350   32.4010 H   0  0  0  0  0  0  0  0  0  0  0  0
   35.5740   20.8100   32.7630 H   0  0  0  0  0  0  0  0  0  0  0  0
   36.8710   20.6040   34.8110 H   0  0  0  0  0  0  0  0  0  0  0  0
   36.4390   22.3480   34.6470 H   0  0  0  0  0  0  0  0  0  0  0  0
   37.9810   24.6370   31.7120 C   0  0  2  0  0  0  0  0  0  0  0  0
   38.8780   24.3500   30.5390 C   0  0  0  0  0  0  0  0  0  0  0  0
   39.1500   25.8130   30.1340 C   0  0  0  0  0  0  0  0  0  0  0  0
   39.3620   26.4670   31.3290 O   0  0  0  0  0  0  0  0  0  0  0  0
   38.7090   25.7670   32.3390 C   0  0  1  0  0  0  0  0  0  0  0  0
   37.0430   25.0480   31.2790 H   0  0  0  0  0  0  0  0  0  0  0  0
   39.8390   23.9210   30.8190 H   0  0  0  0  0  0  0  0  0  0  0  0
   38.3570   23.8220   29.7210 H   0  0  0  0  0  0  0  0  0  0  0  0
   40.0260   25.8620   29.4610 H   0  0  0  0  0  0  0  0  0  0  0  0
   38.2220   26.1810   29.6830 H   0  0  0  0  0  0  0  0  0  0  0  0
   39.4680   25.5290   33.0950 H   0  0  0  0  0  0  0  0  0  0  0  0
   37.8810   27.0370   34.3710 C   0  0  0  0  0  3  0  0  0  0  0  0
   37.8050   26.7620   33.0090 C   0  0  0  0  0  0  0  0  0  0  0  0
   36.8500   27.4550   32.2970 C   0  0  0  0  0  0  0  0  0  0  0  0
   36.7270   27.3000   31.2450 H   0  0  0  0  0  0  0  0  0  0  0  0
   35.9820   28.3840   32.8370 C   0  0  0  0  0  0  0  0  0  0  0  0
   34.9990   29.1550   32.3380 N   0  0  0  0  0  0  0  0  0  0  0  0
   34.4950   29.8750   33.3620 C   0  0  0  0  0  0  0  0  0  0  0  0
   33.6840   30.5650   33.1600 H   0  0  0  0  0  0  0  0  0  0  0  0
   35.1610   29.5560   34.5020 N   0  0  0  0  0  0  0  0  0  0  0  0
   36.0850   28.6360   34.2060 C   0  0  0  0  0  0  0  0  0  0  0  0
   37.0300   27.9630   34.9560 C   0  0  0  0  0  3  0  0  0  0  0  0
   34.7140   29.1570   31.3180 H   0  0  0  0  0  0  0  0  0  0  0  0
   38.7720   22.3750   35.6290 C   0  0  0  0  0  0  0  0  0  0  0  0
   37.7580   23.1380   36.2070 C   0  0  0  0  0  0  0  0  0  0  0  0
   37.9480   23.6260   37.4830 C   0  0  0  0  0  0  0  0  0  0  0  0
   39.1390   23.3390   38.1380 N   0  0  0  0  0  0  0  0  0  0  0  0
   40.1050   22.5890   37.5360 C   0  0  0  0  0  0  0  0  0  0  0  0
   39.9020   22.1310   36.3100 N   0  0  0  0  0  0  0  0  0  0  0  0
   36.7820   23.5030   35.9420 H   0  0  0  0  0  0  0  0  0  0  0  0
   37.3600   24.2170   38.1420 H   0  0  0  0  0  0  0  0  0  0  0  0
   41.0320   22.3590   38.0300 H   0  0  0  0  0  0  0  0  0  0  0  0
  1  7  1  6  0  0  0
  1 40  1  0  0  0  0
  2  8  1  0  0  0  0
  2  1  1  0  0  0  0
  3  2  1  0  0  0  0
  3 10  1  1  0  0  0
  4  3  1  0  0  0  0
  4  5  1  0  0  0  0
  5  6  1  0  0  0  0
  6  1  1  0  0  0  0
  6 16  1  0  0  0  0
  6 15  1  0  0  0  0
  9  2  1  0  0  0  0
 11  4  1  0  0  0  0
 12  4  1  0  0  0  0
 13  5  1  0  0  0  0
 14  5  1  0  0  0  0
 17 22  1  6  0  0  0
 17 21  1  0  0  0  0
 17  3  1  0  0  0  0
 18 23  1  0  0  0  0
 18 17  1  0  0  0  0
 19 18  1  0  0  0  0
 19 20  1  0  0  0  0
 20 21  1  0  0  0  0
 21 29  1  0  0  0  0
 21 27  1  1  0  0  0
 24 18  1  0  0  0  0
 25 19  1  0  0  0  0
 26 19  1  0  0  0  0
 28 38  1  0  0  0  0
 29 28  2  0  0  0  0
 30 32  2  0  0  0  0
 30 29  1  0  0  0  0
 31 30  1  0  0  0  0
 32 37  1  0  0  0  0
 33 32  1  0  0  0  0
 33 34  1  0  0  0  0
 34 36  2  0  0  0  0
 35 34  1  0  0  0  0
 37 36  1  0  0  0  0
 37 38  2  0  0  0  0
 39 33  1  0  0  0  0
 40 41  2  0  0  0  0
 40 45  1  0  0  0  0
 41 42  1  0  0  0  0
 42 43  2  0  0  0  0
 42 47  1  0  0  0  0
 44 48  1  0  0  0  0
 44 43  1  0  0  0  0
 45 44  2  0  0  0  0
 46 41  1  0  0  0  0
M  END
>  <minimizedAffinity>
-5.84790325

$$$$
