
     RDKit          3D

 33 36  0  0  0  0  0  0  0  0999 V2000
   37.9352   30.4298   50.6621 C   0  0  0  0  0  0  0  0  0  0  0  0
   37.4692   31.2351   49.6107 C   0  0  0  0  0  0  0  0  0  0  0  0
   36.1308   31.0850   49.2351 C   0  0  0  0  0  0  0  0  0  0  0  0
   35.3690   30.1799   49.9013 N   0  0  0  0  0  0  0  0  0  0  0  0
   35.8473   29.4268   50.9015 C   0  0  0  0  0  0  0  0  0  0  0  0
   37.1362   29.5505   51.2856 N   0  0  0  0  0  0  0  0  0  0  0  0
   38.3946   30.5868   46.7862 Cl  0  0  0  0  0  0  0  0  0  0  0  0
   38.8270   32.0237   47.6656 C   0  0  0  0  0  0  0  0  0  0  0  0
   38.3370   32.1884   48.9353 C   0  0  0  0  0  0  0  0  0  0  0  0
   38.7176   33.3655   49.5986 C   0  0  0  0  0  0  0  0  0  0  0  0
   39.5434   34.2807   48.9663 C   0  0  0  0  0  0  0  0  0  0  0  0
   40.0121   34.0808   47.6982 C   0  0  0  0  0  0  0  0  0  0  0  0
   39.6397   32.9240   47.0427 C   0  0  0  0  0  0  0  0  0  0  0  0
   38.9647   30.5106   50.9881 H   0  0  0  0  0  0  0  0  0  0  0  0
   35.7594   31.7058   48.4198 H   0  0  0  0  0  0  0  0  0  0  0  0
   35.0902   28.7736   51.2992 H   0  0  0  0  0  0  0  0  0  0  0  0
   38.3285   33.4977   50.6087 H   0  0  0  0  0  0  0  0  0  0  0  0
   39.7818   35.1517   49.5507 H   0  0  0  0  0  0  0  0  0  0  0  0
   40.6503   34.8214   47.2515 H   0  0  0  0  0  0  0  0  0  0  0  0
   40.7385   33.7447   44.9166 C   0  0  0  0  0  0  0  0  0  0  0  0
   40.1651   32.7547   45.6907 C   0  0  0  0  0  0  0  0  0  0  0  0
   40.0781   31.4999   45.1488 C   0  0  0  0  0  0  0  0  0  0  0  0
   39.6395   30.6772   45.7020 H   0  0  0  0  0  0  0  0  0  0  0  0
   40.5247   31.1655   43.8861 C   0  0  0  0  0  0  0  0  0  0  0  0
   40.5517   30.0290   43.1432 N   0  0  0  0  0  0  0  0  0  0  0  0
   41.1271   30.3059   41.9386 C   0  0  0  0  0  0  0  0  0  0  0  0
   41.2480   29.5311   41.1882 H   0  0  0  0  0  0  0  0  0  0  0  0
   41.4562   31.6110   41.9343 N   0  0  0  0  0  0  0  0  0  0  0  0
   41.1039   32.1762   43.1105 C   0  0  0  0  0  0  0  0  0  0  0  0
   41.1947   33.4424   43.6501 C   0  0  0  0  0  0  0  0  0  0  0  0
   40.8007   34.7270   45.3549 H   0  0  0  0  0  0  0  0  0  0  0  0
   40.1687   29.1153   43.5094 H   0  0  0  0  0  0  0  0  0  0  0  0
   41.6310   34.2346   43.0845 H   0  0  0  0  0  0  0  0  0  0  0  0
  1  6  2  0
  2  1  1  0
  3  2  2  0
  3  4  1  0
  4  5  2  0
  5  6  1  0
  7  8  1  0
  8  9  2  0
  9 10  1  0
  9  2  1  0
 11 10  2  0
 12 11  1  0
 13  8  1  0
 13 12  2  0
  1 14  1  0
  3 15  1  0
  5 16  1  0
 10 17  1  0
 11 18  1  0
 12 19  1  0
 20 21  2  0
 21 22  1  0
 22 23  1  0
 22 24  2  0
 24 25  1  0
 25 26  1  0
 26 27  1  0
 26 28  2  0
 28 29  1  0
 29 30  2  0
 30 20  1  0
 29 24  1  0
 20 31  1  0
 25 32  1  0
 30 33  1  0
 13 21  1  0
M  ISO  8  14  14  15  14  16  14  17  14  18  14  19  14  23  15  27  14
M  END
>  <DihAtoms>  (1) 
7,12,20,19

>  <DihDeg>  (1) 
-45.000929851767594

$$$$
