REMARK  Name = 
REMARK  4 active torsions:
REMARK  status: ('A' for Active; 'I' for Inactive)
REMARK    1  A    between atoms: C_3  and  C_10
REMARK    2  A    between atoms: C_7  and  N_16
REMARK    3  A    between atoms: C_14  and  C_18
REMARK    4  A    between atoms: C_25  and  C_38
REMARK                            x       y       z     vdW  Elec       q    Type
REMARK                         _______ _______ _______ _____ _____    ______ ____
ROOT
ATOM      1  C   UNL     1      39.199  32.197  42.555  0.00  0.00    +0.000 A 
ATOM      2  C   UNL     1      39.710  31.501  43.621  0.00  0.00    +0.000 A 
ATOM      3  C   UNL     1      40.609  30.457  43.461  0.00  0.00    +0.000 A 
ATOM      4  C   UNL     1      41.010  30.100  42.182  0.00  0.00    +0.000 A 
ATOM      5  N   UNL     1      41.846  29.155  41.731  0.00  0.00    +0.000 N 
ATOM      6  C   UNL     1      41.871  29.245  40.403  0.00  0.00    +0.000 A 
ATOM      7  N   UNL     1      41.052  30.244  40.015  0.00  0.00    +0.000 NA
ATOM      8  C   UNL     1      40.488  30.808  41.122  0.00  0.00    +0.000 A 
ATOM      9  C   UNL     1      39.597  31.845  41.258  0.00  0.00    +0.000 A 
ATOM     10  H   UNL     1      38.500  33.009  42.680  0.00  0.00    +0.000 HD
ATOM     11  H   UNL     1      40.985  29.938  44.322  0.00  0.00    +0.000 HD
ATOM     12  H   UNL     1      42.375  28.479  42.338  0.00  0.00    +0.000 HD
ATOM     13  H   UNL     1      42.475  28.590  39.781  0.00  0.00    +0.000 HD
ENDROOT
BRANCH   9  15
ATOM     14  C   UNL     1      38.676  33.927  40.179  0.00  0.00    +0.000 A 
ATOM     15  C   UNL     1      39.057  32.582  40.119  0.00  0.00    +0.000 A 
ATOM     16  C   UNL     1      38.910  31.914  38.900  0.00  0.00    +0.000 A 
ATOM     17  H   UNL     1      39.185  30.856  38.765  0.00  0.00    +0.000 HD
ATOM     18  C   UNL     1      38.407  32.548  37.782  0.00  0.00    +0.000 A 
ATOM     19  N   UNL     1      38.160  32.176  36.521  0.00  0.00    +0.000 N 
ATOM     20  C   UNL     1      37.656  33.223  35.831  0.00  0.00    +0.000 A 
ATOM     21  H   UNL     1      37.362  33.233  34.801  0.00  0.00    +0.000 HD
ATOM     22  N   UNL     1      37.566  34.307  36.649  0.00  0.00    +0.000 NA
ATOM     23  C   UNL     1      38.029  33.878  37.836  0.00  0.00    +0.000 A 
ATOM     24  C   UNL     1      38.175  34.548  39.056  0.00  0.00    +0.000 A 
ATOM     25  H   UNL     1      38.350  31.208  36.178  0.00  0.00    +0.000 HD
ENDBRANCH   9  15
BRANCH   2  26
ATOM     26  C   UNL     1      39.269  31.902  44.935  0.00  0.00    +0.000 C 
ATOM     27  O   UNL     1      38.193  32.563  45.050  0.00  0.00    +0.000 OA
ATOM     28  N   UNL     1      39.950  31.617  46.153  0.00  0.00    +0.000 N 
ATOM     29  H   UNL     1      40.823  31.062  46.068  0.00  0.00    +0.000 HD
BRANCH  28  36
ATOM     30  F   UNL     1      38.109  30.146  47.492  0.00  0.00    +0.000 F 
ATOM     31  C   UNL     1      38.376  31.401  47.978  0.00  0.00    +0.000 A 
ATOM     32  C   UNL     1      37.708  31.834  49.095  0.00  0.00    +0.000 A 
ATOM     33  C   UNL     1      38.028  33.098  49.521  0.00  0.00    +0.000 A 
ATOM     34  C   UNL     1      38.943  33.897  48.900  0.00  0.00    +0.000 A 
ATOM     35  C   UNL     1      39.591  33.417  47.777  0.00  0.00    +0.000 A 
ATOM     36  C   UNL     1      39.303  32.156  47.313  0.00  0.00    +0.000 A 
ATOM     37  H   UNL     1      37.511  33.471  50.410  0.00  0.00    +0.000 HD
ATOM     38  H   UNL     1      39.191  34.893  49.240  0.00  0.00    +0.000 HD
ATOM     39  H   UNL     1      40.332  33.956  47.204  0.00  0.00    +0.000 HD
BRANCH  32  42
ATOM     40  C   UNL     1      36.087  29.367  51.449  0.00  0.00    +0.000 A 
ATOM     41  C   UNL     1      37.026  30.224  50.854  0.00  0.00    +0.000 A 
ATOM     42  C   UNL     1      36.742  30.945  49.720  0.00  0.00    +0.000 A 
ATOM     43  N   UNL     1      35.496  30.784  49.203  0.00  0.00    +0.000 NA
ATOM     44  C   UNL     1      34.590  29.965  49.768  0.00  0.00    +0.000 A 
ATOM     45  N   UNL     1      34.879  29.275  50.863  0.00  0.00    +0.000 NA
ATOM     46  H   UNL     1      36.358  28.825  52.335  0.00  0.00    +0.000 HD
ATOM     47  H   UNL     1      37.998  30.300  51.322  0.00  0.00    +0.000 HD
ATOM     48  H   UNL     1      33.660  29.972  49.213  0.00  0.00    +0.000 HD
ENDBRANCH  32  42
ENDBRANCH  28  36
ENDBRANCH   2  26
TORSDOF 4
