
 OpenBabel03272510233D

 34 38  0  0  0  0  0  0  0  0999 V2000
   33.5910   27.7330   45.0960 C   0  0  0  0  0  0  0  0  0  0  0  0
   33.4890   28.1190   46.4210 C   0  0  0  0  0  0  0  0  0  0  0  0
   34.3160   29.1090   46.9150 C   0  0  0  0  0  0  0  0  0  0  0  0
   35.2300   29.6840   46.0470 C   0  0  0  0  0  0  0  0  0  0  0  0
   36.1400   30.6650   46.2970 N   0  0  0  0  0  0  0  0  0  0  0  0
   36.8030   30.8970   45.1560 C   0  0  0  0  0  0  0  0  0  0  0  0
   36.3460   30.0960   44.1900 N   0  0  0  0  0  0  0  0  0  0  0  0
   35.3620   29.3260   44.7160 C   0  0  0  0  0  0  0  0  0  0  0  0
   34.5210   28.3320   44.2470 C   0  0  0  0  0  0  0  0  0  0  0  0
   32.9840   26.9690   44.6300 H   0  0  0  0  0  0  0  0  0  0  0  0
   34.2370   29.4090   47.9500 H   0  0  0  0  0  0  0  0  0  0  0  0
   36.2840   31.1440   47.2220 H   0  0  0  0  0  0  0  0  0  0  0  0
   34.6100   28.0350   43.1940 H   0  0  0  0  0  0  0  0  0  0  0  0
   38.7970   32.1680   45.9630 C   0  0  0  0  0  3  0  0  0  0  0  0
   37.8840   31.8810   44.9560 C   0  0  0  0  0  0  0  0  0  0  0  0
   37.9820   32.5280   43.7300 C   0  0  0  0  0  0  0  0  0  0  0  0
   37.2840   32.3150   42.9420 H   0  0  0  0  0  0  0  0  0  0  0  0
   38.9870   33.4490   43.5320 C   0  0  0  0  0  0  0  0  0  0  0  0
   39.3670   34.2440   42.4910 N   0  0  0  0  0  0  0  0  0  0  0  0
   40.4550   34.9730   42.8550 C   0  0  0  0  0  0  0  0  0  0  0  0
   41.0030   35.6980   42.2630 H   0  0  0  0  0  0  0  0  0  0  0  0
   40.7910   34.6620   44.1280 N   0  0  0  0  0  0  0  0  0  0  0  0
   39.9020   33.7350   44.5460 C   0  0  0  0  0  0  0  0  0  0  0  0
   39.8180   33.1000   45.7670 C   0  0  0  0  0  3  0  0  0  0  0  0
   38.8850   34.2740   41.5650 H   0  0  0  0  0  0  0  0  0  0  0  0
   30.8300   27.3020   48.9500 C   0  0  0  0  0  0  0  0  0  0  0  0
   31.7650   28.0500   48.2360 C   0  0  0  0  0  0  0  0  0  0  0  0
   32.4920   27.4390   47.2280 C   0  0  0  0  0  0  0  0  0  0  0  0
   32.2560   26.1190   46.9800 N   0  0  0  0  0  0  0  0  0  0  0  0
   31.3330   25.4080   47.6940 C   0  0  0  0  0  0  0  0  0  0  0  0
   30.6350   25.9940   48.6630 N   0  0  0  0  0  0  0  0  0  0  0  0
   30.2570   27.7640   49.7380 H   0  0  0  0  0  0  0  0  0  0  0  0
   31.9320   29.0780   48.4480 H   0  0  0  0  0  0  0  0  0  0  0  0
   31.2610   24.3760   47.3790 H   0  0  0  0  0  0  0  0  0  0  0  0
  1  2  1  0  0  0  0
  2  3  2  0  0  0  0
  2 28  1  0  0  0  0
  3 11  1  0  0  0  0
  4  5  1  0  0  0  0
  4  3  1  0  0  0  0
  5 12  1  0  0  0  0
  6  5  1  0  0  0  0
  7  8  1  0  0  0  0
  7  6  2  0  0  0  0
  8  4  2  0  0  0  0
  9  8  1  0  0  0  0
  9  1  2  0  0  0  0
 10  1  1  0  0  0  0
 13  9  1  0  0  0  0
 15  6  1  0  0  0  0
 15 14  2  0  0  0  0
 16 15  1  0  0  0  0
 17 16  1  0  0  0  0
 18 16  2  0  0  0  0
 18 23  1  0  0  0  0
 19 20  1  0  0  0  0
 19 18  1  0  0  0  0
 20 22  2  0  0  0  0
 21 20  1  0  0  0  0
 22 23  1  0  0  0  0
 23 24  2  0  0  0  0
 24 14  1  0  0  0  0
 25 19  1  0  0  0  0
 26 32  1  0  0  0  0
 27 33  1  0  0  0  0
 27 26  2  0  0  0  0
 28 27  1  0  0  0  0
 29 28  2  0  0  0  0
 29 30  1  0  0  0  0
 30 31  2  0  0  0  0
 31 26  1  0  0  0  0
 34 30  1  0  0  0  0
M  END
>  <minimizedAffinity>
-1.70377278

>  <minimizedRMSD>
5.01130438

$$$$
