
 OpenBabel03262523383D

 48 52  0  0  1  0  0  0  0  0999 V2000
   35.3620   29.8090   49.0040 C   0  0  2  0  0  0  0  0  0  0  0  0
   36.2090   30.7600   48.2370 C   0  0  0  0  0  0  0  0  0  0  0  0
   37.7030   30.4590   48.3590 C   0  0  2  0  0  0  0  0  0  0  0  0
   38.1150   30.6030   49.8010 C   0  0  0  0  0  0  0  0  0  0  0  0
   37.1540   29.8950   50.7440 C   0  0  0  0  0  0  0  0  0  0  0  0
   36.1960   29.0110   49.9860 C   0  0  0  0  0  0  0  0  0  0  0  0
   34.5780   30.2990   49.6520 H   0  0  0  0  0  0  0  0  0  0  0  0
   35.9980   31.0250   47.2410 H   0  0  0  0  0  0  0  0  0  0  0  0
   36.1200   31.7450   48.8250 H   0  0  0  0  0  0  0  0  0  0  0  0
   37.8070   29.3830   48.1050 H   0  0  0  0  0  0  0  0  0  0  0  0
   39.1140   30.1220   49.9580 H   0  0  0  0  0  0  0  0  0  0  0  0
   38.1920   31.6980   50.0110 H   0  0  0  0  0  0  0  0  0  0  0  0
   36.5390   30.7130   51.2080 H   0  0  0  0  0  0  0  0  0  0  0  0
   37.6320   29.3720   51.5650 H   0  0  0  0  0  0  0  0  0  0  0  0
   35.5100   28.5490   50.7090 H   0  0  0  0  0  0  0  0  0  0  0  0
   36.7410   28.2250   49.4310 H   0  0  0  0  0  0  0  0  0  0  0  0
   38.5090   31.2210   47.3990 C   0  0  2  0  0  0  0  0  0  0  0  0
   39.0520   32.5430   47.8700 C   0  0  0  0  0  0  0  0  0  0  0  0
   39.5760   33.0400   46.5070 C   0  0  0  0  0  0  0  0  0  0  0  0
   38.5800   32.7090   45.6140 O   0  0  0  0  0  0  0  0  0  0  0  0
   37.8630   31.6310   46.1280 C   0  0  1  0  0  0  0  0  0  0  0  0
   39.3980   30.6090   47.1350 H   0  0  0  0  0  0  0  0  0  0  0  0
   38.2810   33.2460   48.1810 H   0  0  0  0  0  0  0  0  0  0  0  0
   39.8900   32.4320   48.5800 H   0  0  0  0  0  0  0  0  0  0  0  0
   39.7650   34.1280   46.5500 H   0  0  0  0  0  0  0  0  0  0  0  0
   40.4670   32.4420   46.2890 H   0  0  0  0  0  0  0  0  0  0  0  0
   36.8120   31.9450   46.1660 H   0  0  0  0  0  0  0  0  0  0  0  0
   39.0710   29.8860   44.7420 C   0  0  0  0  0  0  0  0  0  0  0  0
   37.9030   30.5690   45.0670 C   0  0  0  0  0  0  0  0  0  0  0  0
   36.7730   30.2190   44.3600 C   0  0  0  0  0  0  0  0  0  0  0  0
   35.8350   30.6980   44.5510 H   0  0  0  0  0  0  0  0  0  0  0  0
   36.7260   29.2550   43.3720 C   0  0  0  0  0  0  0  0  0  0  0  0
   35.7560   28.7690   42.5770 N   0  0  0  0  0  0  0  0  0  0  0  0
   36.3160   27.8220   41.7950 C   0  0  0  0  0  0  0  0  0  0  0  0
   35.6880   27.3060   41.0770 H   0  0  0  0  0  0  0  0  0  0  0  0
   37.6340   27.7140   42.1000 N   0  0  0  0  0  0  0  0  0  0  0  0
   37.9150   28.5900   43.0710 C   0  0  0  0  0  0  0  0  0  0  0  0
   39.0710   28.9090   43.7570 C   0  0  0  0  0  0  0  0  0  0  0  0
   34.7520   29.1050   42.6020 H   0  0  0  0  0  0  0  0  0  0  0  0
   34.6520   28.8410   48.1410 C   0  0  0  0  0  0  0  0  0  0  0  0
   34.4010   29.2700   46.8370 C   0  0  0  0  0  0  0  0  0  0  0  0
   33.7580   28.4070   45.9740 C   0  0  0  0  0  0  0  0  0  0  0  0
   33.3880   27.1510   46.4370 N   0  0  0  0  0  0  0  0  0  0  0  0
   33.6510   26.7730   47.7200 C   0  0  0  0  0  0  0  0  0  0  0  0
   34.2700   27.6170   48.5320 N   0  0  0  0  0  0  0  0  0  0  0  0
   34.5650   30.1480   46.2380 H   0  0  0  0  0  0  0  0  0  0  0  0
   33.4510   28.4720   44.9590 H   0  0  0  0  0  0  0  0  0  0  0  0
   33.3700   25.8040   48.0930 H   0  0  0  0  0  0  0  0  0  0  0  0
  1  7  1  1  0  0  0
  1  6  1  0  0  0  0
  2  3  1  0  0  0  0
  2  9  1  0  0  0  0
  2  1  1  0  0  0  0
  3 10  1  6  0  0  0
  3  4  1  0  0  0  0
  4 11  1  0  0  0  0
  4 12  1  0  0  0  0
  4  5  1  0  0  0  0
  5 13  1  0  0  0  0
  5 14  1  0  0  0  0
  6 15  1  0  0  0  0
  6  5  1  0  0  0  0
  8  2  1  0  0  0  0
 16  6  1  0  0  0  0
 17 22  1  6  0  0  0
 17 18  1  0  0  0  0
 17  3  1  0  0  0  0
 18 23  1  0  0  0  0
 18 24  1  0  0  0  0
 19 25  1  0  0  0  0
 19 18  1  0  0  0  0
 20 21  1  0  0  0  0
 20 19  1  0  0  0  0
 21 27  1  1  0  0  0
 21 17  1  0  0  0  0
 26 19  1  0  0  0  0
 28 29  1  0  0  0  0
 29 21  1  0  0  0  0
 30 31  1  0  0  0  0
 30 29  2  0  0  0  0
 32 30  1  0  0  0  0
 33 39  1  0  0  0  0
 33 32  1  0  0  0  0
 34 36  2  0  0  0  0
 34 33  1  0  0  0  0
 35 34  1  0  0  0  0
 36 37  1  0  0  0  0
 37 32  2  0  0  0  0
 37 38  1  0  0  0  0
 38 28  2  0  0  0  0
 40 45  1  0  0  0  0
 40  1  1  0  0  0  0
 41 40  2  0  0  0  0
 42 43  2  0  0  0  0
 42 41  1  0  0  0  0
 43 44  1  0  0  0  0
 44 48  1  0  0  0  0
 44 45  2  0  0  0  0
 46 41  1  0  0  0  0
 47 42  1  0  0  0  0
M  END
>  <minimizedAffinity>
-7.00851393

>  <minimizedRMSD>
2.07102156

$$$$
