
 OpenBabel03272503113D

 48 53  0  0  0  0  0  0  0  0999 V2000
   36.6370   28.1170   34.8180 C   0  0  0  0  0  0  0  0  0  0  0  0
   37.4870   27.2160   34.2280 C   0  0  0  0  0  0  0  0  0  0  0  0
   37.7360   27.2170   32.8640 C   0  0  0  0  0  0  0  0  0  0  0  0
   37.1090   28.1590   32.0620 C   0  0  0  0  0  0  0  0  0  0  0  0
   37.1550   28.3940   30.7440 N   0  0  0  0  0  0  0  0  0  0  0  0
   36.3520   29.4260   30.4940 C   0  0  0  0  0  0  0  0  0  0  0  0
   35.7980   29.8420   31.6520 N   0  0  0  0  0  0  0  0  0  0  0  0
   36.2580   29.0560   32.6690 C   0  0  0  0  0  0  0  0  0  0  0  0
   35.9970   29.0730   34.0170 C   0  0  0  0  0  0  0  0  0  0  0  0
   36.4440   28.1160   35.8790 H   0  0  0  0  0  0  0  0  0  0  0  0
   38.4090   26.4940   32.4420 H   0  0  0  0  0  0  0  0  0  0  0  0
   37.7310   27.8490   30.0540 H   0  0  0  0  0  0  0  0  0  0  0  0
   36.2050   29.8280   29.4960 H   0  0  0  0  0  0  0  0  0  0  0  0
   33.7580   30.2050   34.2480 C   0  0  0  0  0  3  0  0  0  0  0  0
   35.0910   30.0360   34.6390 C   0  0  0  0  0  0  0  0  0  0  0  0
   35.5740   30.8340   35.6790 C   0  0  0  0  0  0  0  0  0  0  0  0
   36.6100   30.7650   36.0480 H   0  0  0  0  0  0  0  0  0  0  0  0
   34.7740   31.7640   36.3110 C   0  0  0  0  0  0  0  0  0  0  0  0
   34.9570   32.6400   37.3050 N   0  0  0  0  0  0  0  0  0  0  0  0
   33.8090   33.3180   37.5260 C   0  0  0  0  0  0  0  0  0  0  0  0
   33.6440   34.0840   38.2580 H   0  0  0  0  0  0  0  0  0  0  0  0
   32.8500   32.8840   36.6640 N   0  0  0  0  0  0  0  0  0  0  0  0
   33.4560   31.9350   35.9290 C   0  0  0  0  0  0  0  0  0  0  0  0
   32.9690   31.1370   34.8880 C   0  0  0  0  0  3  0  0  0  0  0  0
   35.8710   32.7410   37.8000 H   0  0  0  0  0  0  0  0  0  0  0  0
   38.1210   26.2520   35.0950 C   0  0  0  0  0  0  0  0  0  0  0  0
   38.8360   26.6640   36.0580 O   0  0  0  0  0  0  0  0  0  0  0  0
   38.0170   24.8380   34.9670 N   0  0  0  0  0  0  0  0  0  0  0  0
   37.4200   24.4930   34.1900 H   0  0  0  0  0  0  0  0  0  0  0  0
   40.5400   24.0160   34.4150 F   0  0  0  0  0  0  0  0  0  0  0  0
   40.0420   23.7060   35.6560 C   0  0  0  0  0  0  0  0  0  0  0  0
   40.8340   23.0100   36.5320 C   0  0  0  0  0  0  0  0  0  0  0  0
   40.2680   22.7380   37.7520 C   0  0  0  0  0  0  0  0  0  0  0  0
   39.0050   23.1190   38.1010 C   0  0  0  0  0  0  0  0  0  0  0  0
   38.2440   23.8180   37.1840 C   0  0  0  0  0  0  0  0  0  0  0  0
   38.7690   24.1140   35.9490 C   0  0  0  0  0  0  0  0  0  0  0  0
   40.8760   22.1840   38.4720 H   0  0  0  0  0  0  0  0  0  0  0  0
   38.5630   22.9010   39.0640 H   0  0  0  0  0  0  0  0  0  0  0  0
   37.2350   24.1710   37.3470 H   0  0  0  0  0  0  0  0  0  0  0  0
   44.5750   22.9860   36.0200 C   0  0  0  0  0  0  0  0  0  0  0  0
   43.2870   23.3630   36.4320 C   0  0  0  0  0  0  0  0  0  0  0  0
   42.1720   22.6270   36.1120 C   0  0  0  0  0  0  0  0  0  0  0  0
   42.3840   21.5080   35.3720 N   0  0  0  0  0  0  0  0  0  0  0  0
   43.6160   21.1390   34.9740 C   0  0  0  0  0  0  0  0  0  0  0  0
   44.6830   21.8600   35.2910 N   0  0  0  0  0  0  0  0  0  0  0  0
   45.4140   23.5950   36.2960 H   0  0  0  0  0  0  0  0  0  0  0  0
   43.1970   24.2670   37.0180 H   0  0  0  0  0  0  0  0  0  0  0  0
   43.5800   20.2240   34.3970 H   0  0  0  0  0  0  0  0  0  0  0  0
  1 10  1  0  0  0  0
  2  1  1  0  0  0  0
  2 26  1  0  0  0  0
  3  2  2  0  0  0  0
  4  8  2  0  0  0  0
  4  3  1  0  0  0  0
  5  4  1  0  0  0  0
  6  5  1  0  0  0  0
  6  7  2  0  0  0  0
  7  8  1  0  0  0  0
  8  9  1  0  0  0  0
  9 15  1  0  0  0  0
  9  1  2  0  0  0  0
 11  3  1  0  0  0  0
 12  5  1  0  0  0  0
 13  6  1  0  0  0  0
 14 15  2  0  0  0  0
 14 24  1  0  0  0  0
 15 16  1  0  0  0  0
 16 17  1  0  0  0  0
 16 18  2  0  0  0  0
 18 19  1  0  0  0  0
 19 20  1  0  0  0  0
 19 25  1  0  0  0  0
 20 21  1  0  0  0  0
 22 20  2  0  0  0  0
 23 18  1  0  0  0  0
 23 22  1  0  0  0  0
 24 23  2  0  0  0  0
 26 27  2  0  0  0  0
 28 26  1  0  0  0  0
 28 36  1  0  0  0  0
 29 28  1  0  0  0  0
 30 31  1  0  0  0  0
 31 36  2  0  0  0  0
 31 32  1  0  0  0  0
 32 33  2  0  0  0  0
 33 34  1  0  0  0  0
 33 37  1  0  0  0  0
 34 38  1  0  0  0  0
 35 39  1  0  0  0  0
 35 34  2  0  0  0  0
 36 35  1  0  0  0  0
 40 46  1  0  0  0  0
 40 41  1  0  0  0  0
 41 47  1  0  0  0  0
 42 41  2  0  0  0  0
 42 32  1  0  0  0  0
 43 42  1  0  0  0  0
 44 45  1  0  0  0  0
 44 43  2  0  0  0  0
 45 40  2  0  0  0  0
 48 44  1  0  0  0  0
M  END
>  <minimizedAffinity>
-7.84883308

$$$$

 OpenBabel03272503113D

 48 53  0  0  0  0  0  0  0  0999 V2000
   36.5870   28.6070   35.2060 C   0  0  0  0  0  0  0  0  0  0  0  0
   37.1910   27.5570   34.5620 C   0  0  0  0  0  0  0  0  0  0  0  0
   37.2070   27.4480   33.1790 C   0  0  0  0  0  0  0  0  0  0  0  0
   36.5950   28.4320   32.4160 C   0  0  0  0  0  0  0  0  0  0  0  0
   36.4550   28.5880   31.0930 N   0  0  0  0  0  0  0  0  0  0  0  0
   35.7760   29.7160   30.8940 C   0  0  0  0  0  0  0  0  0  0  0  0
   35.4870   30.2710   32.0890 N   0  0  0  0  0  0  0  0  0  0  0  0
   35.9930   29.4790   33.0780 C   0  0  0  0  0  0  0  0  0  0  0  0
   35.9650   29.6060   34.4450 C   0  0  0  0  0  0  0  0  0  0  0  0
   36.5740   28.6910   36.2820 H   0  0  0  0  0  0  0  0  0  0  0  0
   37.6910   26.6110   32.7140 H   0  0  0  0  0  0  0  0  0  0  0  0
   36.8250   27.9260   30.3650 H   0  0  0  0  0  0  0  0  0  0  0  0
   35.5230   30.0820   29.9030 H   0  0  0  0  0  0  0  0  0  0  0  0
   36.0230   31.8080   35.6680 C   0  0  0  0  0  3  0  0  0  0  0  0
   35.3200   30.7260   35.1250 C   0  0  0  0  0  0  0  0  0  0  0  0
   33.9280   30.7240   35.2450 C   0  0  0  0  0  0  0  0  0  0  0  0
   33.2990   29.9130   34.8470 H   0  0  0  0  0  0  0  0  0  0  0  0
   33.2530   31.7500   35.8760 C   0  0  0  0  0  0  0  0  0  0  0  0
   31.9670   32.0100   36.1320 N   0  0  0  0  0  0  0  0  0  0  0  0
   31.8660   33.1830   36.7950 C   0  0  0  0  0  0  0  0  0  0  0  0
   30.9660   33.6560   37.1360 H   0  0  0  0  0  0  0  0  0  0  0  0
   33.1070   33.7090   36.9800 N   0  0  0  0  0  0  0  0  0  0  0  0
   33.9420   32.8210   36.4130 C   0  0  0  0  0  0  0  0  0  0  0  0
   35.3370   32.8260   36.2950 C   0  0  0  0  0  3  0  0  0  0  0  0
   31.1970   31.3660   35.8400 H   0  0  0  0  0  0  0  0  0  0  0  0
   37.8170   26.5550   35.3900 C   0  0  0  0  0  0  0  0  0  0  0  0
   38.6430   26.9180   36.2800 O   0  0  0  0  0  0  0  0  0  0  0  0
   37.5870   25.1520   35.2970 N   0  0  0  0  0  0  0  0  0  0  0  0
   36.9000   24.8490   34.5810 H   0  0  0  0  0  0  0  0  0  0  0  0
   39.9910   24.1400   34.5580 F   0  0  0  0  0  0  0  0  0  0  0  0
   39.5720   23.8770   35.8370 C   0  0  0  0  0  0  0  0  0  0  0  0
   40.3780   23.1300   36.6570 C   0  0  0  0  0  0  0  0  0  0  0  0
   39.8930   22.9090   37.9210 C   0  0  0  0  0  0  0  0  0  0  0  0
   38.6940   23.3850   38.3650 C   0  0  0  0  0  0  0  0  0  0  0  0
   37.9150   24.1340   37.5020 C   0  0  0  0  0  0  0  0  0  0  0  0
   38.3600   24.3810   36.2260 C   0  0  0  0  0  0  0  0  0  0  0  0
   40.5140   22.3150   38.5980 H   0  0  0  0  0  0  0  0  0  0  0  0
   38.3150   23.2070   39.3620 H   0  0  0  0  0  0  0  0  0  0  0  0
   36.9520   24.5620   37.7400 H   0  0  0  0  0  0  0  0  0  0  0  0
   44.0560   22.8100   35.8680 C   0  0  0  0  0  0  0  0  0  0  0  0
   42.8380   23.2850   36.3770 C   0  0  0  0  0  0  0  0  0  0  0  0
   41.6460   22.6450   36.1370 C   0  0  0  0  0  0  0  0  0  0  0  0
   41.7120   21.5200   35.3770 N   0  0  0  0  0  0  0  0  0  0  0  0
   42.8760   21.0580   34.8870 C   0  0  0  0  0  0  0  0  0  0  0  0
   44.0190   21.6870   35.1270 N   0  0  0  0  0  0  0  0  0  0  0  0
   44.9610   23.3470   36.0840 H   0  0  0  0  0  0  0  0  0  0  0  0
   42.8640   24.1870   36.9720 H   0  0  0  0  0  0  0  0  0  0  0  0
   42.7240   20.1540   34.3100 H   0  0  0  0  0  0  0  0  0  0  0  0
  1 10  1  0  0  0  0
  2  1  1  0  0  0  0
  2 26  1  0  0  0  0
  3  2  2  0  0  0  0
  4  8  2  0  0  0  0
  4  3  1  0  0  0  0
  5  4  1  0  0  0  0
  6  5  1  0  0  0  0
  6  7  2  0  0  0  0
  7  8  1  0  0  0  0
  8  9  1  0  0  0  0
  9 15  1  0  0  0  0
  9  1  2  0  0  0  0
 11  3  1  0  0  0  0
 12  5  1  0  0  0  0
 13  6  1  0  0  0  0
 14 24  1  0  0  0  0
 15 16  1  0  0  0  0
 15 14  2  0  0  0  0
 16 18  2  0  0  0  0
 17 16  1  0  0  0  0
 18 19  1  0  0  0  0
 18 23  1  0  0  0  0
 19 20  1  0  0  0  0
 20 22  2  0  0  0  0
 20 21  1  0  0  0  0
 23 22  1  0  0  0  0
 24 23  2  0  0  0  0
 25 19  1  0  0  0  0
 26 27  2  0  0  0  0
 28 26  1  0  0  0  0
 28 36  1  0  0  0  0
 29 28  1  0  0  0  0
 30 31  1  0  0  0  0
 31 36  2  0  0  0  0
 31 32  1  0  0  0  0
 32 33  2  0  0  0  0
 33 34  1  0  0  0  0
 33 37  1  0  0  0  0
 34 38  1  0  0  0  0
 35 39  1  0  0  0  0
 35 34  2  0  0  0  0
 36 35  1  0  0  0  0
 40 46  1  0  0  0  0
 40 41  1  0  0  0  0
 41 47  1  0  0  0  0
 42 41  2  0  0  0  0
 42 32  1  0  0  0  0
 43 42  1  0  0  0  0
 44 45  1  0  0  0  0
 44 43  2  0  0  0  0
 45 40  2  0  0  0  0
 48 44  1  0  0  0  0
M  END
>  <minimizedAffinity>
-7.61657572

$$$$

 OpenBabel03272503113D

 48 53  0  0  0  0  0  0  0  0999 V2000
   36.5860   27.8600   34.0690 C   0  0  0  0  0  0  0  0  0  0  0  0
   37.7010   27.1190   33.7690 C   0  0  0  0  0  0  0  0  0  0  0  0
   38.3360   27.2020   32.5390 C   0  0  0  0  0  0  0  0  0  0  0  0
   37.8330   28.0630   31.5750 C   0  0  0  0  0  0  0  0  0  0  0  0
   38.2270   28.3460   30.3260 N   0  0  0  0  0  0  0  0  0  0  0  0
   37.3820   29.2520   29.8370 C   0  0  0  0  0  0  0  0  0  0  0  0
   36.4560   29.5400   30.7740 N   0  0  0  0  0  0  0  0  0  0  0  0
   36.7130   28.8010   31.8910 C   0  0  0  0  0  0  0  0  0  0  0  0
   36.0680   28.7340   33.1030 C   0  0  0  0  0  0  0  0  0  0  0  0
   36.0920   27.7950   35.0260 H   0  0  0  0  0  0  0  0  0  0  0  0
   39.2060   26.6050   32.3450 H   0  0  0  0  0  0  0  0  0  0  0  0
   39.0570   27.9180   29.8450 H   0  0  0  0  0  0  0  0  0  0  0  0
   37.4740   29.6590   28.8330 H   0  0  0  0  0  0  0  0  0  0  0  0
   34.8950   30.6270   34.2790 C   0  0  0  0  0  3  0  0  0  0  0  0
   34.8820   29.5260   33.4160 C   0  0  0  0  0  0  0  0  0  0  0  0
   33.6660   29.1700   32.8260 C   0  0  0  0  0  0  0  0  0  0  0  0
   33.5680   28.3180   32.1360 H   0  0  0  0  0  0  0  0  0  0  0  0
   32.5050   29.8740   33.0770 C   0  0  0  0  0  0  0  0  0  0  0  0
   31.2360   29.7690   32.6700 N   0  0  0  0  0  0  0  0  0  0  0  0
   30.4960   30.7440   33.2410 C   0  0  0  0  0  0  0  0  0  0  0  0
   29.4470   30.9190   33.1070 H   0  0  0  0  0  0  0  0  0  0  0  0
   31.2890   31.5080   34.0410 N   0  0  0  0  0  0  0  0  0  0  0  0
   32.5130   30.9630   33.9290 C   0  0  0  0  0  0  0  0  0  0  0  0
   33.7290   31.3220   34.5210 C   0  0  0  0  0  3  0  0  0  0  0  0
   30.9220   29.0240   32.0080 H   0  0  0  0  0  0  0  0  0  0  0  0
   38.1940   26.2350   34.7970 C   0  0  0  0  0  0  0  0  0  0  0  0
   38.9350   26.7060   35.7130 O   0  0  0  0  0  0  0  0  0  0  0  0
   37.9190   24.8400   34.8840 N   0  0  0  0  0  0  0  0  0  0  0  0
   37.2990   24.4520   34.1470 H   0  0  0  0  0  0  0  0  0  0  0  0
   40.3790   23.7410   34.5900 F   0  0  0  0  0  0  0  0  0  0  0  0
   39.7990   23.6460   35.8300 C   0  0  0  0  0  0  0  0  0  0  0  0
   40.4840   23.0120   36.8340 C   0  0  0  0  0  0  0  0  0  0  0  0
   39.8400   22.9570   38.0440 C   0  0  0  0  0  0  0  0  0  0  0  0
   38.6030   23.4860   38.2690 C   0  0  0  0  0  0  0  0  0  0  0  0
   37.9510   24.1170   37.2250 C   0  0  0  0  0  0  0  0  0  0  0  0
   38.5570   24.1960   35.9940 C   0  0  0  0  0  0  0  0  0  0  0  0
   40.3630   22.4560   38.8650 H   0  0  0  0  0  0  0  0  0  0  0  0
   38.1010   23.4400   39.2250 H   0  0  0  0  0  0  0  0  0  0  0  0
   36.9730   24.5720   37.2830 H   0  0  0  0  0  0  0  0  0  0  0  0
   44.1850   22.7110   36.1490 C   0  0  0  0  0  0  0  0  0  0  0  0
   42.9190   23.2500   36.4300 C   0  0  0  0  0  0  0  0  0  0  0  0
   41.7990   22.4630   36.5450 C   0  0  0  0  0  0  0  0  0  0  0  0
   41.9830   21.1280   36.3710 N   0  0  0  0  0  0  0  0  0  0  0  0
   43.1920   20.6040   36.1010 C   0  0  0  0  0  0  0  0  0  0  0  0
   44.2650   21.3760   35.9940 N   0  0  0  0  0  0  0  0  0  0  0  0
   45.0290   23.3680   36.0690 H   0  0  0  0  0  0  0  0  0  0  0  0
   42.8510   24.3220   36.5550 H   0  0  0  0  0  0  0  0  0  0  0  0
   43.1350   19.5280   35.9980 H   0  0  0  0  0  0  0  0  0  0  0  0
  1 10  1  0  0  0  0
  2  1  1  0  0  0  0
  2 26  1  0  0  0  0
  3  2  2  0  0  0  0
  4  8  2  0  0  0  0
  4  3  1  0  0  0  0
  5  4  1  0  0  0  0
  6  5  1  0  0  0  0
  6  7  2  0  0  0  0
  7  8  1  0  0  0  0
  8  9  1  0  0  0  0
  9 15  1  0  0  0  0
  9  1  2  0  0  0  0
 11  3  1  0  0  0  0
 12  5  1  0  0  0  0
 13  6  1  0  0  0  0
 14 24  1  0  0  0  0
 15 14  2  0  0  0  0
 16 18  2  0  0  0  0
 16 15  1  0  0  0  0
 17 16  1  0  0  0  0
 18 23  1  0  0  0  0
 19 18  1  0  0  0  0
 19 20  1  0  0  0  0
 20 22  2  0  0  0  0
 21 20  1  0  0  0  0
 23 22  1  0  0  0  0
 23 24  2  0  0  0  0
 25 19  1  0  0  0  0
 26 28  1  0  0  0  0
 26 27  2  0  0  0  0
 28 36  1  0  0  0  0
 29 28  1  0  0  0  0
 30 31  1  0  0  0  0
 31 36  2  0  0  0  0
 31 32  1  0  0  0  0
 32 33  2  0  0  0  0
 33 34  1  0  0  0  0
 33 37  1  0  0  0  0
 34 38  1  0  0  0  0
 35 39  1  0  0  0  0
 35 34  2  0  0  0  0
 36 35  1  0  0  0  0
 40 41  1  0  0  0  0
 41 42  2  0  0  0  0
 41 47  1  0  0  0  0
 42 32  1  0  0  0  0
 43 42  1  0  0  0  0
 44 43  2  0  0  0  0
 45 44  1  0  0  0  0
 45 40  2  0  0  0  0
 46 40  1  0  0  0  0
 48 44  1  0  0  0  0
M  END
>  <minimizedAffinity>
-7.57212114

$$$$

 OpenBabel03272503113D

 48 53  0  0  0  0  0  0  0  0999 V2000
   37.9530   27.3360   32.8820 C   0  0  0  0  0  0  0  0  0  0  0  0
   37.3790   27.3230   34.1280 C   0  0  0  0  0  0  0  0  0  0  0  0
   36.3210   28.1530   34.4640 C   0  0  0  0  0  0  0  0  0  0  0  0
   35.8200   29.0290   33.5120 C   0  0  0  0  0  0  0  0  0  0  0  0
   34.8280   29.9290   33.5500 N   0  0  0  0  0  0  0  0  0  0  0  0
   34.7670   30.5060   32.3520 C   0  0  0  0  0  0  0  0  0  0  0  0
   35.7190   29.9730   31.5590 N   0  0  0  0  0  0  0  0  0  0  0  0
   36.4070   29.0310   32.2660 C   0  0  0  0  0  0  0  0  0  0  0  0
   37.4550   28.2170   31.9120 C   0  0  0  0  0  0  0  0  0  0  0  0
   38.7770   26.6900   32.6210 H   0  0  0  0  0  0  0  0  0  0  0  0
   35.9000   28.1110   35.4510 H   0  0  0  0  0  0  0  0  0  0  0  0
   34.2220   30.1230   34.3870 H   0  0  0  0  0  0  0  0  0  0  0  0
   34.0430   31.2800   32.1080 H   0  0  0  0  0  0  0  0  0  0  0  0
   38.1420   29.3840   29.7880 C   0  0  0  0  0  3  0  0  0  0  0  0
   38.0620   28.2360   30.5840 C   0  0  0  0  0  0  0  0  0  0  0  0
   38.5920   27.0480   30.0740 C   0  0  0  0  0  0  0  0  0  0  0  0
   38.5700   26.1000   30.6330 H   0  0  0  0  0  0  0  0  0  0  0  0
   39.1790   26.9930   28.8260 C   0  0  0  0  0  0  0  0  0  0  0  0
   39.7530   26.0290   28.0990 N   0  0  0  0  0  0  0  0  0  0  0  0
   40.1690   26.5390   26.9190 C   0  0  0  0  0  0  0  0  0  0  0  0
   40.6640   26.0110   26.1280 H   0  0  0  0  0  0  0  0  0  0  0  0
   39.8650   27.8640   26.8630 N   0  0  0  0  0  0  0  0  0  0  0  0
   39.2610   28.1250   28.0360 C   0  0  0  0  0  0  0  0  0  0  0  0
   38.7320   29.3160   28.5440 C   0  0  0  0  0  3  0  0  0  0  0  0
   39.8390   25.0460   28.4430 H   0  0  0  0  0  0  0  0  0  0  0  0
   37.9280   26.3980   35.0900 C   0  0  0  0  0  0  0  0  0  0  0  0
   38.6240   26.8470   36.0510 O   0  0  0  0  0  0  0  0  0  0  0  0
   37.7580   24.9850   35.0620 N   0  0  0  0  0  0  0  0  0  0  0  0
   37.1760   24.6110   34.2870 H   0  0  0  0  0  0  0  0  0  0  0  0
   40.2180   23.9230   34.6550 F   0  0  0  0  0  0  0  0  0  0  0  0
   39.6740   23.7720   35.9060 C   0  0  0  0  0  0  0  0  0  0  0  0
   40.3920   23.1040   36.8640 C   0  0  0  0  0  0  0  0  0  0  0  0
   39.7840   22.9940   38.0880 C   0  0  0  0  0  0  0  0  0  0  0  0
   38.5490   23.5010   38.3680 C   0  0  0  0  0  0  0  0  0  0  0  0
   37.8620   24.1670   37.3700 C   0  0  0  0  0  0  0  0  0  0  0  0
   38.4320   24.3020   36.1270 C   0  0  0  0  0  0  0  0  0  0  0  0
   40.3330   22.4650   38.8730 H   0  0  0  0  0  0  0  0  0  0  0  0
   38.0730   23.4110   39.3350 H   0  0  0  0  0  0  0  0  0  0  0  0
   36.8820   24.6100   37.4730 H   0  0  0  0  0  0  0  0  0  0  0  0
   44.0950   22.8480   36.1700 C   0  0  0  0  0  0  0  0  0  0  0  0
   42.8330   23.3620   36.5090 C   0  0  0  0  0  0  0  0  0  0  0  0
   41.7040   22.5810   36.5160 C   0  0  0  0  0  0  0  0  0  0  0  0
   41.8740   21.2770   36.1770 N   0  0  0  0  0  0  0  0  0  0  0  0
   43.0800   20.7760   35.8520 C   0  0  0  0  0  0  0  0  0  0  0  0
   44.1620   21.5430   35.8490 N   0  0  0  0  0  0  0  0  0  0  0  0
   44.9470   23.5000   36.1790 H   0  0  0  0  0  0  0  0  0  0  0  0
   42.7760   24.4110   36.7670 H   0  0  0  0  0  0  0  0  0  0  0  0
   43.0120   19.7220   35.6140 H   0  0  0  0  0  0  0  0  0  0  0  0
  1  2  1  0  0  0  0
  2  3  2  0  0  0  0
  2 26  1  0  0  0  0
  3 11  1  0  0  0  0
  4  5  1  0  0  0  0
  4  3  1  0  0  0  0
  5 12  1  0  0  0  0
  6  5  1  0  0  0  0
  7  8  1  0  0  0  0
  7  6  2  0  0  0  0
  8  4  2  0  0  0  0
  9  8  1  0  0  0  0
  9  1  2  0  0  0  0
 10  1  1  0  0  0  0
 13  6  1  0  0  0  0
 14 15  1  0  0  0  0
 15  9  1  0  0  0  0
 16 15  2  0  0  0  0
 16 17  1  0  0  0  0
 18 16  1  0  0  0  0
 19 25  1  0  0  0  0
 19 18  1  0  0  0  0
 20 19  1  0  0  0  0
 21 20  1  0  0  0  0
 22 20  2  0  0  0  0
 22 23  1  0  0  0  0
 23 24  1  0  0  0  0
 23 18  2  0  0  0  0
 24 14  2  0  0  0  0
 26 27  2  0  0  0  0
 28 26  1  0  0  0  0
 28 36  1  0  0  0  0
 29 28  1  0  0  0  0
 30 31  1  0  0  0  0
 31 36  2  0  0  0  0
 31 32  1  0  0  0  0
 32 33  2  0  0  0  0
 33 34  1  0  0  0  0
 33 37  1  0  0  0  0
 34 38  1  0  0  0  0
 35 39  1  0  0  0  0
 35 34  2  0  0  0  0
 36 35  1  0  0  0  0
 40 46  1  0  0  0  0
 40 41  1  0  0  0  0
 41 42  2  0  0  0  0
 41 47  1  0  0  0  0
 42 32  1  0  0  0  0
 43 42  1  0  0  0  0
 44 43  2  0  0  0  0
 45 44  1  0  0  0  0
 45 40  2  0  0  0  0
 48 44  1  0  0  0  0
M  END
>  <minimizedAffinity>
-7.2807436

$$$$

 OpenBabel03272503113D

 48 53  0  0  0  0  0  0  0  0999 V2000
   36.2990   28.7050   32.6270 C   0  0  0  0  0  0  0  0  0  0  0  0
   36.8400   28.2600   31.4480 C   0  0  0  0  0  0  0  0  0  0  0  0
   36.9130   29.0610   30.3180 C   0  0  0  0  0  0  0  0  0  0  0  0
   36.4250   30.3580   30.3750 C   0  0  0  0  0  0  0  0  0  0  0  0
   36.3610   31.3380   29.4640 N   0  0  0  0  0  0  0  0  0  0  0  0
   35.7920   32.3900   30.0480 C   0  0  0  0  0  0  0  0  0  0  0  0
   35.4960   32.0760   31.3260 N   0  0  0  0  0  0  0  0  0  0  0  0
   35.8840   30.7900   31.5660 C   0  0  0  0  0  0  0  0  0  0  0  0
   35.8020   30.0140   32.6970 C   0  0  0  0  0  0  0  0  0  0  0  0
   36.2430   28.0820   33.5060 H   0  0  0  0  0  0  0  0  0  0  0  0
   37.3440   28.6740   29.4140 H   0  0  0  0  0  0  0  0  0  0  0  0
   36.7070   31.2640   28.4740 H   0  0  0  0  0  0  0  0  0  0  0  0
   35.6200   33.3290   29.5290 H   0  0  0  0  0  0  0  0  0  0  0  0
   35.9200   31.2940   34.8630 C   0  0  0  0  0  3  0  0  0  0  0  0
   35.2250   30.4940   33.9500 C   0  0  0  0  0  0  0  0  0  0  0  0
   33.9090   30.1400   34.2590 C   0  0  0  0  0  0  0  0  0  0  0  0
   33.2920   29.5140   33.5960 H   0  0  0  0  0  0  0  0  0  0  0  0
   33.3010   30.5580   35.4250 C   0  0  0  0  0  0  0  0  0  0  0  0
   32.0930   30.3810   35.9700 N   0  0  0  0  0  0  0  0  0  0  0  0
   32.0320   31.0300   37.1540 C   0  0  0  0  0  0  0  0  0  0  0  0
   31.1940   31.0730   37.8230 H   0  0  0  0  0  0  0  0  0  0  0  0
   33.2200   31.6470   37.3970 N   0  0  0  0  0  0  0  0  0  0  0  0
   33.9830   31.3490   36.3310 C   0  0  0  0  0  0  0  0  0  0  0  0
   35.3010   31.7060   36.0250 C   0  0  0  0  0  3  0  0  0  0  0  0
   31.3470   29.8150   35.5050 H   0  0  0  0  0  0  0  0  0  0  0  0
   37.3370   26.9060   31.4270 C   0  0  0  0  0  0  0  0  0  0  0  0
   38.0040   26.4780   32.4170 O   0  0  0  0  0  0  0  0  0  0  0  0
   37.1440   25.9750   30.3660 N   0  0  0  0  0  0  0  0  0  0  0  0
   36.5860   26.3140   29.5590 H   0  0  0  0  0  0  0  0  0  0  0  0
   35.7200   23.9340   31.4380 F   0  0  0  0  0  0  0  0  0  0  0  0
   37.0350   23.6840   31.1370 C   0  0  0  0  0  0  0  0  0  0  0  0
   37.5470   22.4370   31.3910 C   0  0  0  0  0  0  0  0  0  0  0  0
   38.8670   22.2640   31.0630 C   0  0  0  0  0  0  0  0  0  0  0  0
   39.6480   23.2430   30.5210 C   0  0  0  0  0  0  0  0  0  0  0  0
   39.0870   24.4840   30.2830 C   0  0  0  0  0  0  0  0  0  0  0  0
   37.7670   24.7050   30.5950 C   0  0  0  0  0  0  0  0  0  0  0  0
   39.3040   21.2790   31.2540 H   0  0  0  0  0  0  0  0  0  0  0  0
   40.6890   23.1000   30.2650 H   0  0  0  0  0  0  0  0  0  0  0  0
   39.6040   25.3330   29.8590 H   0  0  0  0  0  0  0  0  0  0  0  0
   35.1520   19.5440   31.7740 C   0  0  0  0  0  0  0  0  0  0  0  0
   35.9930   20.5130   31.2060 C   0  0  0  0  0  0  0  0  0  0  0  0
   36.6740   21.4290   31.9700 C   0  0  0  0  0  0  0  0  0  0  0  0
   36.4900   21.3450   33.3130 N   0  0  0  0  0  0  0  0  0  0  0  0
   35.6860   20.4180   33.8660 C   0  0  0  0  0  0  0  0  0  0  0  0
   35.0340   19.5400   33.1150 N   0  0  0  0  0  0  0  0  0  0  0  0
   34.6410   18.8500   31.1340 H   0  0  0  0  0  0  0  0  0  0  0  0
   36.0900   20.5190   30.1290 H   0  0  0  0  0  0  0  0  0  0  0  0
   35.6700   20.5110   34.9450 H   0  0  0  0  0  0  0  0  0  0  0  0
  1  9  1  0  0  0  0
  1 10  1  0  0  0  0
  2  1  2  0  0  0  0
  3  4  2  0  0  0  0
  3  2  1  0  0  0  0
  4  8  1  0  0  0  0
  5  6  1  0  0  0  0
  5  4  1  0  0  0  0
  6  7  2  0  0  0  0
  7  8  1  0  0  0  0
  8  9  2  0  0  0  0
  9 15  1  0  0  0  0
 11  3  1  0  0  0  0
 12  5  1  0  0  0  0
 13  6  1  0  0  0  0
 14 24  1  0  0  0  0
 15 16  1  0  0  0  0
 15 14  2  0  0  0  0
 16 18  2  0  0  0  0
 17 16  1  0  0  0  0
 18 19  1  0  0  0  0
 18 23  1  0  0  0  0
 19 20  1  0  0  0  0
 20 22  2  0  0  0  0
 20 21  1  0  0  0  0
 23 22  1  0  0  0  0
 24 23  2  0  0  0  0
 25 19  1  0  0  0  0
 26  2  1  0  0  0  0
 26 27  2  0  0  0  0
 28 36  1  0  0  0  0
 28 26  1  0  0  0  0
 29 28  1  0  0  0  0
 31 32  1  0  0  0  0
 31 30  1  0  0  0  0
 32 42  1  0  0  0  0
 33 37  1  0  0  0  0
 33 32  2  0  0  0  0
 34 33  1  0  0  0  0
 35 34  2  0  0  0  0
 35 36  1  0  0  0  0
 36 31  2  0  0  0  0
 38 34  1  0  0  0  0
 39 35  1  0  0  0  0
 40 45  1  0  0  0  0
 41 40  2  0  0  0  0
 41 42  1  0  0  0  0
 42 43  2  0  0  0  0
 43 44  1  0  0  0  0
 44 48  1  0  0  0  0
 45 44  2  0  0  0  0
 46 40  1  0  0  0  0
 47 41  1  0  0  0  0
M  END
>  <minimizedAffinity>
-7.17473125

$$$$

 OpenBabel03272503113D

 48 53  0  0  0  0  0  0  0  0999 V2000
   36.4420   28.7340   31.8680 C   0  0  0  0  0  0  0  0  0  0  0  0
   36.1390   30.0720   31.8820 C   0  0  0  0  0  0  0  0  0  0  0  0
   36.4460   30.9110   30.8200 C   0  0  0  0  0  0  0  0  0  0  0  0
   37.0790   30.3850   29.7040 C   0  0  0  0  0  0  0  0  0  0  0  0
   37.4890   30.9410   28.5560 N   0  0  0  0  0  0  0  0  0  0  0  0
   38.0420   29.9780   27.8210 C   0  0  0  0  0  0  0  0  0  0  0  0
   37.9820   28.8160   28.5040 N   0  0  0  0  0  0  0  0  0  0  0  0
   37.3770   29.0400   29.7060 C   0  0  0  0  0  0  0  0  0  0  0  0
   37.0820   28.1920   30.7450 C   0  0  0  0  0  0  0  0  0  0  0  0
   36.2030   28.0820   32.6940 H   0  0  0  0  0  0  0  0  0  0  0  0
   36.1920   31.9520   30.8710 H   0  0  0  0  0  0  0  0  0  0  0  0
   37.3800   31.9560   28.3050 H   0  0  0  0  0  0  0  0  0  0  0  0
   38.4590   30.1580   26.8340 H   0  0  0  0  0  0  0  0  0  0  0  0
   38.6770   26.2700   30.4170 C   0  0  0  0  0  3  0  0  0  0  0  0
   37.4070   26.7680   30.7250 C   0  0  0  0  0  0  0  0  0  0  0  0
   36.3990   25.8480   31.0270 C   0  0  0  0  0  0  0  0  0  0  0  0
   35.3720   26.1540   31.2800 H   0  0  0  0  0  0  0  0  0  0  0  0
   36.6350   24.4880   31.0260 C   0  0  0  0  0  0  0  0  0  0  0  0
   35.8890   23.4050   31.2680 N   0  0  0  0  0  0  0  0  0  0  0  0
   36.6450   22.2940   31.1210 C   0  0  0  0  0  0  0  0  0  0  0  0
   36.3280   21.2780   31.2490 H   0  0  0  0  0  0  0  0  0  0  0  0
   37.9130   22.6480   30.7760 N   0  0  0  0  0  0  0  0  0  0  0  0
   37.8890   23.9910   30.7230 C   0  0  0  0  0  0  0  0  0  0  0  0
   38.9000   24.9100   30.4200 C   0  0  0  0  0  3  0  0  0  0  0  0
   34.8790   23.4690   31.5270 H   0  0  0  0  0  0  0  0  0  0  0  0
   35.4810   30.5810   33.0600 C   0  0  0  0  0  0  0  0  0  0  0  0
   34.6010   31.4860   32.9340 O   0  0  0  0  0  0  0  0  0  0  0  0
   35.7340   30.1500   34.3940 N   0  0  0  0  0  0  0  0  0  0  0  0
   36.4410   29.3980   34.5040 H   0  0  0  0  0  0  0  0  0  0  0  0
   33.1840   29.3840   34.8980 F   0  0  0  0  0  0  0  0  0  0  0  0
   33.6700   30.4430   35.6220 C   0  0  0  0  0  0  0  0  0  0  0  0
   32.8520   31.0450   36.5450 C   0  0  0  0  0  0  0  0  0  0  0  0
   33.4080   32.0960   37.2290 C   0  0  0  0  0  0  0  0  0  0  0  0
   34.6830   32.5390   37.0300 C   0  0  0  0  0  0  0  0  0  0  0  0
   35.4700   31.9010   36.0890 C   0  0  0  0  0  0  0  0  0  0  0  0
   34.9560   30.8420   35.3790 C   0  0  0  0  0  0  0  0  0  0  0  0
   32.7800   32.5960   37.9710 H   0  0  0  0  0  0  0  0  0  0  0  0
   35.1160   33.3690   37.5720 H   0  0  0  0  0  0  0  0  0  0  0  0
   36.4900   32.1610   35.8460 H   0  0  0  0  0  0  0  0  0  0  0  0
   29.0860   30.7930   36.6280 C   0  0  0  0  0  0  0  0  0  0  0  0
   30.3860   31.2930   36.4550 C   0  0  0  0  0  0  0  0  0  0  0  0
   31.5020   30.5360   36.7190 C   0  0  0  0  0  0  0  0  0  0  0  0
   31.2770   29.2700   37.1570 N   0  0  0  0  0  0  0  0  0  0  0  0
   30.0340   28.7830   37.3240 C   0  0  0  0  0  0  0  0  0  0  0  0
   28.9670   29.5260   37.0660 N   0  0  0  0  0  0  0  0  0  0  0  0
   28.2470   31.4250   36.4080 H   0  0  0  0  0  0  0  0  0  0  0  0
   30.4860   32.3110   36.1030 H   0  0  0  0  0  0  0  0  0  0  0  0
   30.0610   27.7600   37.6780 H   0  0  0  0  0  0  0  0  0  0  0  0
  1  2  1  0  0  0  0
  1 10  1  0  0  0  0
  2 26  1  0  0  0  0
  3 11  1  0  0  0  0
  3  2  2  0  0  0  0
  4  8  2  0  0  0  0
  4  3  1  0  0  0  0
  5  4  1  0  0  0  0
  6  7  2  0  0  0  0
  6  5  1  0  0  0  0
  7  8  1  0  0  0  0
  8  9  1  0  0  0  0
  9  1  2  0  0  0  0
 12  5  1  0  0  0  0
 13  6  1  0  0  0  0
 14 24  2  0  0  0  0
 14 15  1  0  0  0  0
 15  9  1  0  0  0  0
 15 16  2  0  0  0  0
 16 17  1  0  0  0  0
 18 16  1  0  0  0  0
 18 19  1  0  0  0  0
 19 25  1  0  0  0  0
 20 21  1  0  0  0  0
 20 19  1  0  0  0  0
 22 20  2  0  0  0  0
 23 22  1  0  0  0  0
 23 18  2  0  0  0  0
 24 23  1  0  0  0  0
 26 28  1  0  0  0  0
 27 26  2  0  0  0  0
 28 29  1  0  0  0  0
 28 36  1  0  0  0  0
 30 31  1  0  0  0  0
 31 32  1  0  0  0  0
 32 42  1  0  0  0  0
 32 33  2  0  0  0  0
 33 37  1  0  0  0  0
 34 33  1  0  0  0  0
 34 38  1  0  0  0  0
 35 34  2  0  0  0  0
 36 31  2  0  0  0  0
 36 35  1  0  0  0  0
 39 35  1  0  0  0  0
 40 45  1  0  0  0  0
 41 40  2  0  0  0  0
 41 42  1  0  0  0  0
 42 43  2  0  0  0  0
 43 44  1  0  0  0  0
 44 48  1  0  0  0  0
 45 44  2  0  0  0  0
 46 40  1  0  0  0  0
 47 41  1  0  0  0  0
M  END
>  <minimizedAffinity>
-7.08967161

$$$$

 OpenBabel03272503113D

 48 53  0  0  0  0  0  0  0  0999 V2000
   37.9240   24.9560   33.0830 C   0  0  0  0  0  0  0  0  0  0  0  0
   36.8870   25.4940   32.3640 C   0  0  0  0  0  0  0  0  0  0  0  0
   35.9930   24.7070   31.6530 C   0  0  0  0  0  0  0  0  0  0  0  0
   36.1470   23.3280   31.6650 C   0  0  0  0  0  0  0  0  0  0  0  0
   35.4540   22.3390   31.0850 N   0  0  0  0  0  0  0  0  0  0  0  0
   36.0350   21.1910   31.4270 C   0  0  0  0  0  0  0  0  0  0  0  0
   37.0940   21.4540   32.2210 N   0  0  0  0  0  0  0  0  0  0  0  0
   37.1940   22.8040   32.3920 C   0  0  0  0  0  0  0  0  0  0  0  0
   38.0900   23.5640   33.1030 C   0  0  0  0  0  0  0  0  0  0  0  0
   38.6190   25.5690   33.6360 H   0  0  0  0  0  0  0  0  0  0  0  0
   35.1950   25.1670   31.1030 H   0  0  0  0  0  0  0  0  0  0  0  0
   34.6080   22.4730   30.4770 H   0  0  0  0  0  0  0  0  0  0  0  0
   35.6700   20.2250   31.0900 H   0  0  0  0  0  0  0  0  0  0  0  0
   40.4020   22.5830   33.2910 C   0  0  0  0  0  3  0  0  0  0  0  0
   39.1920   22.9860   33.8660 C   0  0  0  0  0  0  0  0  0  0  0  0
   39.0370   22.8220   35.2460 C   0  0  0  0  0  0  0  0  0  0  0  0
   38.1170   23.1120   35.7780 H   0  0  0  0  0  0  0  0  0  0  0  0
   40.0360   22.2820   36.0290 C   0  0  0  0  0  0  0  0  0  0  0  0
   40.1660   22.0130   37.3320 N   0  0  0  0  0  0  0  0  0  0  0  0
   41.3850   21.4740   37.5620 C   0  0  0  0  0  0  0  0  0  0  0  0
   41.7800   21.1560   38.5070 H   0  0  0  0  0  0  0  0  0  0  0  0
   42.0720   21.3850   36.3920 N   0  0  0  0  0  0  0  0  0  0  0  0
   41.2340   21.8830   35.4660 C   0  0  0  0  0  0  0  0  0  0  0  0
   41.3930   22.0460   34.0850 C   0  0  0  0  0  3  0  0  0  0  0  0
   39.4080   22.2100   38.0220 H   0  0  0  0  0  0  0  0  0  0  0  0
   36.7600   26.9310   32.3750 C   0  0  0  0  0  0  0  0  0  0  0  0
   37.7020   27.6300   32.8550 O   0  0  0  0  0  0  0  0  0  0  0  0
   35.6400   27.6610   31.8830 N   0  0  0  0  0  0  0  0  0  0  0  0
   34.8720   27.0960   31.4730 H   0  0  0  0  0  0  0  0  0  0  0  0
   34.6710   28.8750   34.1030 F   0  0  0  0  0  0  0  0  0  0  0  0
   35.2710   29.6780   33.1670 C   0  0  0  0  0  0  0  0  0  0  0  0
   35.3450   31.0270   33.4020 C   0  0  0  0  0  0  0  0  0  0  0  0
   35.9590   31.7640   32.4210 C   0  0  0  0  0  0  0  0  0  0  0  0
   36.4710   31.2250   31.2770 C   0  0  0  0  0  0  0  0  0  0  0  0
   36.3720   29.8590   31.0840 C   0  0  0  0  0  0  0  0  0  0  0  0
   35.7650   29.0800   32.0400 C   0  0  0  0  0  0  0  0  0  0  0  0
   36.0330   32.8440   32.5810 H   0  0  0  0  0  0  0  0  0  0  0  0
   36.9530   31.8110   30.5070 H   0  0  0  0  0  0  0  0  0  0  0  0
   36.7390   29.3210   30.2220 H   0  0  0  0  0  0  0  0  0  0  0  0
   34.9770   32.2140   36.9670 C   0  0  0  0  0  0  0  0  0  0  0  0
   35.5280   31.7070   35.7800 C   0  0  0  0  0  0  0  0  0  0  0  0
   34.7840   31.5530   34.6360 C   0  0  0  0  0  0  0  0  0  0  0  0
   33.4790   31.9230   34.7150 N   0  0  0  0  0  0  0  0  0  0  0  0
   32.9430   32.4110   35.8480 C   0  0  0  0  0  0  0  0  0  0  0  0
   33.6740   32.5530   36.9460 N   0  0  0  0  0  0  0  0  0  0  0  0
   35.6000   32.3140   37.8350 H   0  0  0  0  0  0  0  0  0  0  0  0
   36.5740   31.4330   35.7940 H   0  0  0  0  0  0  0  0  0  0  0  0
   31.8950   32.6470   35.7130 H   0  0  0  0  0  0  0  0  0  0  0  0
  1  9  1  0  0  0  0
  1 10  1  0  0  0  0
  2 26  1  0  0  0  0
  2  1  2  0  0  0  0
  3  4  2  0  0  0  0
  3  2  1  0  0  0  0
  4  8  1  0  0  0  0
  5  6  1  0  0  0  0
  5  4  1  0  0  0  0
  6  7  2  0  0  0  0
  7  8  1  0  0  0  0
  8  9  2  0  0  0  0
  9 15  1  0  0  0  0
 11  3  1  0  0  0  0
 12  5  1  0  0  0  0
 13  6  1  0  0  0  0
 14 15  2  0  0  0  0
 14 24  1  0  0  0  0
 15 16  1  0  0  0  0
 16 17  1  0  0  0  0
 16 18  2  0  0  0  0
 18 19  1  0  0  0  0
 19 20  1  0  0  0  0
 19 25  1  0  0  0  0
 20 21  1  0  0  0  0
 22 20  2  0  0  0  0
 23 18  1  0  0  0  0
 23 22  1  0  0  0  0
 24 23  2  0  0  0  0
 26 27  2  0  0  0  0
 28 36  1  0  0  0  0
 28 26  1  0  0  0  0
 29 28  1  0  0  0  0
 31 32  1  0  0  0  0
 31 30  1  0  0  0  0
 32 42  1  0  0  0  0
 33 37  1  0  0  0  0
 33 32  2  0  0  0  0
 34 33  1  0  0  0  0
 35 34  2  0  0  0  0
 35 36  1  0  0  0  0
 36 31  2  0  0  0  0
 38 34  1  0  0  0  0
 39 35  1  0  0  0  0
 40 46  1  0  0  0  0
 41 47  1  0  0  0  0
 41 40  2  0  0  0  0
 42 43  2  0  0  0  0
 42 41  1  0  0  0  0
 43 44  1  0  0  0  0
 44 45  2  0  0  0  0
 45 40  1  0  0  0  0
 48 44  1  0  0  0  0
M  END
>  <minimizedAffinity>
-7.08012676

$$$$

 OpenBabel03272503113D

 48 53  0  0  0  0  0  0  0  0999 V2000
   36.2280   28.6240   33.7900 C   0  0  0  0  0  0  0  0  0  0  0  0
   36.7980   27.8860   32.7840 C   0  0  0  0  0  0  0  0  0  0  0  0
   36.9450   28.3790   31.4960 C   0  0  0  0  0  0  0  0  0  0  0  0
   36.5040   29.6630   31.2090 C   0  0  0  0  0  0  0  0  0  0  0  0
   36.5140   30.3870   30.0820 N   0  0  0  0  0  0  0  0  0  0  0  0
   35.9630   31.5670   30.3610 C   0  0  0  0  0  0  0  0  0  0  0  0
   35.6050   31.5870   31.6620 N   0  0  0  0  0  0  0  0  0  0  0  0
   35.9340   30.3910   32.2300 C   0  0  0  0  0  0  0  0  0  0  0  0
   35.7790   29.9220   33.5120 C   0  0  0  0  0  0  0  0  0  0  0  0
   36.1140   28.2400   34.7910 H   0  0  0  0  0  0  0  0  0  0  0  0
   37.3960   27.7680   30.7370 H   0  0  0  0  0  0  0  0  0  0  0  0
   36.8950   30.0600   29.1590 H   0  0  0  0  0  0  0  0  0  0  0  0
   35.8460   32.3510   29.6190 H   0  0  0  0  0  0  0  0  0  0  0  0
   35.9030   31.2970   35.6190 C   0  0  0  0  0  3  0  0  0  0  0  0
   35.1720   30.7130   34.5780 C   0  0  0  0  0  0  0  0  0  0  0  0
   33.7870   30.9020   34.5660 C   0  0  0  0  0  0  0  0  0  0  0  0
   33.1370   30.4780   33.7840 H   0  0  0  0  0  0  0  0  0  0  0  0
   33.1470   31.6380   35.5430 C   0  0  0  0  0  0  0  0  0  0  0  0
   31.8760   31.9760   35.7810 N   0  0  0  0  0  0  0  0  0  0  0  0
   31.8110   32.7270   36.9040 C   0  0  0  0  0  0  0  0  0  0  0  0
   30.9300   33.1460   37.3490 H   0  0  0  0  0  0  0  0  0  0  0  0
   33.0610   32.8880   37.4160 N   0  0  0  0  0  0  0  0  0  0  0  0
   33.8650   32.2170   36.5720 C   0  0  0  0  0  0  0  0  0  0  0  0
   35.2510   32.0300   36.5880 C   0  0  0  0  0  3  0  0  0  0  0  0
   31.0910   31.6770   35.1600 H   0  0  0  0  0  0  0  0  0  0  0  0
   37.2430   26.5550   33.1210 C   0  0  0  0  0  0  0  0  0  0  0  0
   37.0270   26.1090   34.2880 O   0  0  0  0  0  0  0  0  0  0  0  0
   37.9260   25.6690   32.2400 N   0  0  0  0  0  0  0  0  0  0  0  0
   38.0920   26.0210   31.2780 H   0  0  0  0  0  0  0  0  0  0  0  0
   36.5090   23.4340   31.6530 F   0  0  0  0  0  0  0  0  0  0  0  0
   37.5510   23.2970   32.5360 C   0  0  0  0  0  0  0  0  0  0  0  0
   37.8130   22.0580   33.0630 C   0  0  0  0  0  0  0  0  0  0  0  0
   38.8690   22.0000   33.9370 C   0  0  0  0  0  0  0  0  0  0  0  0
   39.6280   23.0810   34.2800 C   0  0  0  0  0  0  0  0  0  0  0  0
   39.3250   24.3090   33.7230 C   0  0  0  0  0  0  0  0  0  0  0  0
   38.2760   24.4160   32.8420 C   0  0  0  0  0  0  0  0  0  0  0  0
   39.1020   21.0250   34.3740 H   0  0  0  0  0  0  0  0  0  0  0  0
   40.4590   23.0290   34.9700 H   0  0  0  0  0  0  0  0  0  0  0  0
   39.8530   25.2320   33.9180 H   0  0  0  0  0  0  0  0  0  0  0  0
   35.1440   19.3880   33.0540 C   0  0  0  0  0  0  0  0  0  0  0  0
   35.9460   20.4710   33.4460 C   0  0  0  0  0  0  0  0  0  0  0  0
   36.9760   20.9380   32.6660 C   0  0  0  0  0  0  0  0  0  0  0  0
   37.1770   20.2910   31.4880 N   0  0  0  0  0  0  0  0  0  0  0  0
   36.4110   19.2530   31.1050 C   0  0  0  0  0  0  0  0  0  0  0  0
   35.4200   18.8140   31.8690 N   0  0  0  0  0  0  0  0  0  0  0  0
   34.3510   19.0610   33.7000 H   0  0  0  0  0  0  0  0  0  0  0  0
   35.7260   20.9350   34.3980 H   0  0  0  0  0  0  0  0  0  0  0  0
   36.7250   18.8730   30.1400 H   0  0  0  0  0  0  0  0  0  0  0  0
  1 10  1  0  0  0  0
  2 26  1  0  0  0  0
  2  1  2  0  0  0  0
  3  2  1  0  0  0  0
  4  3  2  0  0  0  0
  4  8  1  0  0  0  0
  5  6  1  0  0  0  0
  5  4  1  0  0  0  0
  6  7  2  0  0  0  0
  7  8  1  0  0  0  0
  8  9  2  0  0  0  0
  9  1  1  0  0  0  0
  9 15  1  0  0  0  0
 11  3  1  0  0  0  0
 12  5  1  0  0  0  0
 13  6  1  0  0  0  0
 14 24  1  0  0  0  0
 15 14  2  0  0  0  0
 16 15  1  0  0  0  0
 16 18  2  0  0  0  0
 17 16  1  0  0  0  0
 18 19  1  0  0  0  0
 18 23  1  0  0  0  0
 19 20  1  0  0  0  0
 20 21  1  0  0  0  0
 20 22  2  0  0  0  0
 23 24  2  0  0  0  0
 23 22  1  0  0  0  0
 25 19  1  0  0  0  0
 26 27  2  0  0  0  0
 28 36  1  0  0  0  0
 28 26  1  0  0  0  0
 29 28  1  0  0  0  0
 30 31  1  0  0  0  0
 31 36  2  0  0  0  0
 31 32  1  0  0  0  0
 32 33  2  0  0  0  0
 33 34  1  0  0  0  0
 33 37  1  0  0  0  0
 34 38  1  0  0  0  0
 35 39  1  0  0  0  0
 35 34  2  0  0  0  0
 36 35  1  0  0  0  0
 40 41  1  0  0  0  0
 40 46  1  0  0  0  0
 41 47  1  0  0  0  0
 42 32  1  0  0  0  0
 42 41  2  0  0  0  0
 43 42  1  0  0  0  0
 44 43  2  0  0  0  0
 44 45  1  0  0  0  0
 45 40  2  0  0  0  0
 48 44  1  0  0  0  0
M  END
>  <minimizedAffinity>
-6.94583511

$$$$

 OpenBabel03272503113D

 48 53  0  0  0  0  0  0  0  0999 V2000
   36.8770   26.0970   32.9830 C   0  0  0  0  0  0  0  0  0  0  0  0
   37.0790   27.4380   32.7720 C   0  0  0  0  0  0  0  0  0  0  0  0
   37.8510   27.9140   31.7220 C   0  0  0  0  0  0  0  0  0  0  0  0
   38.4410   27.0090   30.8520 C   0  0  0  0  0  0  0  0  0  0  0  0
   39.2210   27.1720   29.7760 N   0  0  0  0  0  0  0  0  0  0  0  0
   39.5120   25.9610   29.3060 C   0  0  0  0  0  0  0  0  0  0  0  0
   38.9180   25.0340   30.0840 N   0  0  0  0  0  0  0  0  0  0  0  0
   38.2290   25.6670   31.0780 C   0  0  0  0  0  0  0  0  0  0  0  0
   37.4680   25.1740   32.1100 C   0  0  0  0  0  0  0  0  0  0  0  0
   36.2760   25.7280   33.7990 H   0  0  0  0  0  0  0  0  0  0  0  0
   37.9840   28.9710   31.5920 H   0  0  0  0  0  0  0  0  0  0  0  0
   39.5320   28.1010   29.3920 H   0  0  0  0  0  0  0  0  0  0  0  0
   40.1360   25.8050   28.4300 H   0  0  0  0  0  0  0  0  0  0  0  0
   38.1630   22.9270   33.0120 C   0  0  0  0  0  3  0  0  0  0  0  0
   37.2570   23.7460   32.3290 C   0  0  0  0  0  0  0  0  0  0  0  0
   36.0900   23.1580   31.8340 C   0  0  0  0  0  0  0  0  0  0  0  0
   35.3250   23.7300   31.2860 H   0  0  0  0  0  0  0  0  0  0  0  0
   35.8250   21.8140   32.0040 C   0  0  0  0  0  0  0  0  0  0  0  0
   34.8240   21.0020   31.6500 N   0  0  0  0  0  0  0  0  0  0  0  0
   35.0850   19.7490   32.0840 C   0  0  0  0  0  0  0  0  0  0  0  0
   34.4690   18.8810   31.9530 H   0  0  0  0  0  0  0  0  0  0  0  0
   36.2790   19.7310   32.7360 N   0  0  0  0  0  0  0  0  0  0  0  0
   36.7180   21.0010   32.6780 C   0  0  0  0  0  0  0  0  0  0  0  0
   37.8870   21.5860   33.1750 C   0  0  0  0  0  3  0  0  0  0  0  0
   33.9910   21.3400   31.1190 H   0  0  0  0  0  0  0  0  0  0  0  0
   36.4480   28.3470   33.6980 C   0  0  0  0  0  0  0  0  0  0  0  0
   36.5200   28.1100   34.9410 O   0  0  0  0  0  0  0  0  0  0  0  0
   35.7310   29.5230   33.3350 N   0  0  0  0  0  0  0  0  0  0  0  0
   35.6830   29.7330   32.3200 H   0  0  0  0  0  0  0  0  0  0  0  0
   33.1710   29.0830   34.1080 F   0  0  0  0  0  0  0  0  0  0  0  0
   33.8910   29.9980   34.8330 C   0  0  0  0  0  0  0  0  0  0  0  0
   33.2860   30.6290   35.8900 C   0  0  0  0  0  0  0  0  0  0  0  0
   34.0690   31.5300   36.5670 C   0  0  0  0  0  0  0  0  0  0  0  0
   35.3640   31.8040   36.2370 C   0  0  0  0  0  0  0  0  0  0  0  0
   35.9310   31.1430   35.1630 C   0  0  0  0  0  0  0  0  0  0  0  0
   35.1850   30.2320   34.4550 C   0  0  0  0  0  0  0  0  0  0  0  0
   33.6130   32.0490   37.4150 H   0  0  0  0  0  0  0  0  0  0  0  0
   35.9760   32.5160   36.7730 H   0  0  0  0  0  0  0  0  0  0  0  0
   36.9430   31.2770   34.8100 H   0  0  0  0  0  0  0  0  0  0  0  0
   30.1990   28.8020   37.0680 C   0  0  0  0  0  0  0  0  0  0  0  0
   31.5360   29.1090   36.7730 C   0  0  0  0  0  0  0  0  0  0  0  0
   31.9040   30.3020   36.2010 C   0  0  0  0  0  0  0  0  0  0  0  0
   30.8970   31.1750   35.9350 N   0  0  0  0  0  0  0  0  0  0  0  0
   29.6120   30.8880   36.2150 C   0  0  0  0  0  0  0  0  0  0  0  0
   29.2730   29.7320   36.7670 N   0  0  0  0  0  0  0  0  0  0  0  0
   29.9630   27.8550   37.5150 H   0  0  0  0  0  0  0  0  0  0  0  0
   32.2830   28.3640   37.0130 H   0  0  0  0  0  0  0  0  0  0  0  0
   28.9610   31.7060   35.9310 H   0  0  0  0  0  0  0  0  0  0  0  0
  1 10  1  0  0  0  0
  2  1  1  0  0  0  0
  2 26  1  0  0  0  0
  3  2  2  0  0  0  0
  4  8  2  0  0  0  0
  4  3  1  0  0  0  0
  5  4  1  0  0  0  0
  6  5  1  0  0  0  0
  6  7  2  0  0  0  0
  7  8  1  0  0  0  0
  8  9  1  0  0  0  0
  9 15  1  0  0  0  0
  9  1  2  0  0  0  0
 11  3  1  0  0  0  0
 12  5  1  0  0  0  0
 13  6  1  0  0  0  0
 14 24  1  0  0  0  0
 15 14  2  0  0  0  0
 16 18  2  0  0  0  0
 16 15  1  0  0  0  0
 17 16  1  0  0  0  0
 18 23  1  0  0  0  0
 19 18  1  0  0  0  0
 19 20  1  0  0  0  0
 20 22  2  0  0  0  0
 21 20  1  0  0  0  0
 23 22  1  0  0  0  0
 23 24  2  0  0  0  0
 25 19  1  0  0  0  0
 26 27  2  0  0  0  0
 28 26  1  0  0  0  0
 28 36  1  0  0  0  0
 29 28  1  0  0  0  0
 30 31  1  0  0  0  0
 31 32  1  0  0  0  0
 32 42  1  0  0  0  0
 32 33  2  0  0  0  0
 33 37  1  0  0  0  0
 34 33  1  0  0  0  0
 34 38  1  0  0  0  0
 35 34  2  0  0  0  0
 36 31  2  0  0  0  0
 36 35  1  0  0  0  0
 39 35  1  0  0  0  0
 40 46  1  0  0  0  0
 41 47  1  0  0  0  0
 41 40  1  0  0  0  0
 42 41  2  0  0  0  0
 43 42  1  0  0  0  0
 43 44  2  0  0  0  0
 44 45  1  0  0  0  0
 45 40  2  0  0  0  0
 48 44  1  0  0  0  0
M  END
>  <minimizedAffinity>
-6.91960669

$$$$
