
 OpenBabel03272509213D

 49 54  0  0  0  0  0  0  0  0999 V2000
   40.1030   30.9710   44.2060 C   0  0  0  0  0  0  0  0  0  0  0  0
   39.5340   31.7800   45.1770 C   0  0  0  0  0  0  0  0  0  0  0  0
   38.4140   32.5210   44.8400 C   0  0  0  0  0  0  0  0  0  0  0  0
   37.8570   32.4680   43.5590 C   0  0  0  0  0  0  0  0  0  0  0  0
   36.8080   33.0480   42.9440 N   0  0  0  0  0  0  0  0  0  0  0  0
   36.7230   32.6310   41.6700 C   0  0  0  0  0  0  0  0  0  0  0  0
   37.7520   31.7570   41.4680 N   0  0  0  0  0  0  0  0  0  0  0  0
   38.4530   31.6510   42.6250 C   0  0  0  0  0  0  0  0  0  0  0  0
   39.5630   30.9110   42.9420 C   0  0  0  0  0  0  0  0  0  0  0  0
   40.9690   30.4350   44.5630 H   0  0  0  0  0  0  0  0  0  0  0  0
   37.8600   33.1980   45.4930 H   0  0  0  0  0  0  0  0  0  0  0  0
   36.1530   33.7260   43.3930 H   0  0  0  0  0  0  0  0  0  0  0  0
   35.9810   32.9330   40.9500 H   0  0  0  0  0  0  0  0  0  0  0  0
   40.0730   28.6860   41.8860 C   0  0  0  0  0  3  0  0  0  0  0  0
   40.2150   30.0370   41.9700 C   0  0  0  0  0  0  0  0  0  0  0  0
   41.0430   30.6820   41.0730 C   0  0  0  0  0  0  0  0  0  0  0  0
   41.2080   31.7680   41.0770 H   0  0  0  0  0  0  0  0  0  0  0  0
   41.7080   29.9440   40.1110 C   0  0  0  0  0  0  0  0  0  0  0  0
   42.5580   30.3010   39.1300 N   0  0  0  0  0  0  0  0  0  0  0  0
   42.9370   29.1840   38.4480 C   0  0  0  0  0  0  0  0  0  0  0  0
   43.6050   29.0700   37.6010 H   0  0  0  0  0  0  0  0  0  0  0  0
   42.3230   28.0930   38.9940 N   0  0  0  0  0  0  0  0  0  0  0  0
   41.5740   28.5580   40.0100 C   0  0  0  0  0  0  0  0  0  0  0  0
   40.7290   27.9280   40.9300 C   0  0  0  0  0  3  0  0  0  0  0  0
   42.8980   31.2710   38.8980 H   0  0  0  0  0  0  0  0  0  0  0  0
   39.9000   31.9880   46.4740 O   0  0  0  0  0  0  0  0  0  0  0  0
   38.0970   31.3910   47.9790 C   0  0  0  0  0  0  0  0  0  0  0  0
   37.2410   31.5940   49.0480 C   0  0  0  0  0  0  0  0  0  0  0  0
   37.4380   32.8050   49.7190 C   0  0  0  0  0  0  0  0  0  0  0  0
   38.4220   33.7190   49.3260 C   0  0  0  0  0  0  0  0  0  0  0  0
   39.2450   33.4140   48.2190 C   0  0  0  0  0  0  0  0  0  0  0  0
   39.0600   32.2120   47.5420 C   0  0  0  0  0  0  0  0  0  0  0  0
   36.7900   33.0120   50.5670 H   0  0  0  0  0  0  0  0  0  0  0  0
   38.5480   34.6430   49.8660 H   0  0  0  0  0  0  0  0  0  0  0  0
   39.9990   34.1240   47.9260 H   0  0  0  0  0  0  0  0  0  0  0  0
   35.1130   30.4650   48.6640 C   0  0  0  0  0  0  0  0  0  0  0  0
   36.2370   30.6690   49.4530 C   0  0  0  0  0  0  0  0  0  0  0  0
   36.3300   29.9320   50.6460 C   0  0  0  0  0  0  0  0  0  0  0  0
   35.3300   29.0700   50.9620 N   0  0  0  0  0  0  0  0  0  0  0  0
   34.2480   28.9060   50.1530 C   0  0  0  0  0  0  0  0  0  0  0  0
   34.1500   29.6010   49.0160 N   0  0  0  0  0  0  0  0  0  0  0  0
   34.9460   30.9800   47.7300 H   0  0  0  0  0  0  0  0  0  0  0  0
   33.5700   28.1730   50.5890 H   0  0  0  0  0  0  0  0  0  0  0  0
   37.5110   30.1070   51.5340 C   0  0  0  0  0  0  0  0  0  0  0  0
   38.3560   29.4680   51.2100 H   0  0  0  0  0  0  0  0  0  0  0  0
   37.2370   29.8280   52.5740 H   0  0  0  0  0  0  0  0  0  0  0  0
   37.7570   31.1780   51.5610 H   0  0  0  0  0  0  0  0  0  0  0  0
   37.9760   30.2080   47.2460 O   0  0  0  0  0  0  0  0  0  0  0  0
   38.7570   29.5910   47.2430 H   0  0  0  0  0  0  0  0  0  0  0  0
  1 10  1  0  0  0  0
  1  2  1  0  0  0  0
  2 26  1  0  0  0  0
  3  2  2  0  0  0  0
  3 11  1  0  0  0  0
  4  3  1  0  0  0  0
  5 12  1  0  0  0  0
  5  4  1  0  0  0  0
  6  5  1  0  0  0  0
  7  6  2  0  0  0  0
  7  8  1  0  0  0  0
  8  9  1  0  0  0  0
  8  4  2  0  0  0  0
  9  1  2  0  0  0  0
 13  6  1  0  0  0  0
 14 15  1  0  0  0  0
 15  9  1  0  0  0  0
 16 17  1  0  0  0  0
 16 15  2  0  0  0  0
 18 16  1  0  0  0  0
 19 18  1  0  0  0  0
 20 22  2  0  0  0  0
 20 19  1  0  0  0  0
 21 20  1  0  0  0  0
 22 23  1  0  0  0  0
 23 18  2  0  0  0  0
 23 24  1  0  0  0  0
 24 14  2  0  0  0  0
 25 19  1  0  0  0  0
 26 32  1  0  0  0  0
 27 28  1  0  0  0  0
 28 37  1  0  0  0  0
 28 29  2  0  0  0  0
 29 33  1  0  0  0  0
 30 29  1  0  0  0  0
 30 34  1  0  0  0  0
 31 30  2  0  0  0  0
 32 27  2  0  0  0  0
 32 31  1  0  0  0  0
 35 31  1  0  0  0  0
 36 41  2  0  0  0  0
 36 37  1  0  0  0  0
 37 38  2  0  0  0  0
 38 39  1  0  0  0  0
 38 44  1  0  0  0  0
 40 43  1  0  0  0  0
 40 39  2  0  0  0  0
 41 40  1  0  0  0  0
 42 36  1  0  0  0  0
 44 47  1  0  0  0  0
 44 46  1  0  0  0  0
 45 44  1  0  0  0  0
 48 27  1  0  0  0  0
 49 48  1  0  0  0  0
M  END
>  <minimizedAffinity>
-8.02437401

>  <minimizedRMSD>
1.07268798

$$$$
