
     RDKit          3D

 40 43  0  0  0  0  0  0  0  0999 V2000
   33.2850   27.2867   47.9928 C   0  0  0  0  0  0  0  0  0  0  0  0
   33.7118   26.2082   47.0458 C   0  0  0  0  0  0  0  0  0  0  0  0
   33.9395   24.8866   47.3904 C   0  0  0  0  0  0  0  0  0  0  0  0
   34.3290   23.9830   46.4101 C   0  0  0  0  0  0  0  0  0  0  0  0
   34.4954   24.3905   45.0752 C   0  0  0  0  0  0  0  0  0  0  0  0
   34.2693   25.6963   44.7419 C   0  0  0  0  0  0  0  0  0  0  0  0
   33.8830   26.5884   45.7179 C   0  0  0  0  0  0  0  0  0  0  0  0
   34.6988   28.3972   49.7212 C   0  0  0  0  0  0  0  0  0  0  0  0
   34.4034   28.0843   48.5087 C   0  0  0  0  0  0  0  0  0  0  0  0
   37.3667   30.2368   51.4151 C   0  0  0  0  0  0  0  0  0  0  0  0
   38.1172   30.6900   50.3110 C   0  0  0  0  0  0  0  0  0  0  0  0
   37.6870   30.3555   49.0124 C   0  0  0  0  0  0  0  0  0  0  0  0
   36.5494   29.6006   48.9401 N   0  0  0  0  0  0  0  0  0  0  0  0
   35.8659   29.1897   50.0006 C   0  0  0  0  0  0  0  0  0  0  0  0
   36.2635   29.5010   51.2460 N   0  0  0  0  0  0  0  0  0  0  0  0
   32.7737   26.8253   48.8649 H   0  0  0  0  0  0  0  0  0  0  0  0
   32.5263   27.9033   47.4698 H   0  0  0  0  0  0  0  0  0  0  0  0
   33.7989   24.6240   48.4252 H   0  0  0  0  0  0  0  0  0  0  0  0
   34.4887   22.9642   46.7571 H   0  0  0  0  0  0  0  0  0  0  0  0
   34.8024   23.6320   44.3564 H   0  0  0  0  0  0  0  0  0  0  0  0
   34.4134   25.9495   43.7015 H   0  0  0  0  0  0  0  0  0  0  0  0
   33.7125   27.6143   45.4185 H   0  0  0  0  0  0  0  0  0  0  0  0
   34.0931   28.0746   50.5818 H   0  0  0  0  0  0  0  0  0  0  0  0
   34.9765   28.3843   47.6285 H   0  0  0  0  0  0  0  0  0  0  0  0
   37.7227   30.5097   52.3847 H   0  0  0  0  0  0  0  0  0  0  0  0
   38.9881   31.2707   50.4415 H   0  0  0  0  0  0  0  0  0  0  0  0
   37.9570   31.7757   46.9787 C   0  0  0  0  0  0  0  0  0  0  0  0
   38.3931   30.7758   47.8113 C   0  0  0  0  0  0  0  0  0  0  0  0
   39.5679   30.1277   47.4971 C   0  0  0  0  0  0  0  0  0  0  0  0
   39.9978   29.3328   48.0792 H   0  0  0  0  0  0  0  0  0  0  0  0
   40.2513   30.5243   46.3472 C   0  0  0  0  0  0  0  0  0  0  0  0
   41.3964   30.1075   45.7723 N   0  0  0  0  0  0  0  0  0  0  0  0
   41.6392   30.8225   44.6461 C   0  0  0  0  0  0  0  0  0  0  0  0
   42.4490   30.7733   43.9326 H   0  0  0  0  0  0  0  0  0  0  0  0
   40.6461   31.7036   44.4952 N   0  0  0  0  0  0  0  0  0  0  0  0
   39.7883   31.5428   45.5173 C   0  0  0  0  0  0  0  0  0  0  0  0
   38.5937   32.1896   45.8520 C   0  0  0  0  0  0  0  0  0  0  0  0
   37.0395   32.3006   47.2007 H   0  0  0  0  0  0  0  0  0  0  0  0
   42.0231   29.3493   46.1203 H   0  0  0  0  0  0  0  0  0  0  0  0
   38.2198   32.9845   45.2162 H   0  0  0  0  0  0  0  0  0  0  0  0
  1  9  1  0
  2  3  2  0
  2  1  1  0
  4  3  1  0
  5  4  2  0
  6  5  1  0
  6  7  2  0
  7  2  1  0
  8 14  1  0
  9  8  2  0
 11 10  2  0
 12 11  1  0
 13 12  2  0
 13 14  1  0
 14 15  2  0
 15 10  1  0
  1 16  1  0
  1 17  1  0
  3 18  1  0
  4 19  1  0
  5 20  1  0
  6 21  1  0
  7 22  1  0
  8 23  1  0
  9 24  1  0
 10 25  1  0
 11 26  1  0
 27 28  2  0
 28 29  1  0
 29 30  1  0
 29 31  2  0
 31 32  1  0
 32 33  1  0
 33 34  1  0
 33 35  2  0
 35 36  1  0
 36 37  2  0
 37 27  1  0
 36 31  1  0
 27 38  1  0
 32 39  1  0
 37 40  1  0
 12 28  1  0
M  ISO  8  16   8  17   8  18  14  19  14  20  14  21  14  22  14  25  14
M  ISO  3  26  14  30  15  34  14
M  END
>  <DihAtoms>  (1) 
10,11,27,26

>  <DihDeg>  (1) 
8.661094599854572e-05

$$$$
