REMARK  Name = 
REMARK  3 active torsions:
REMARK  status: ('A' for Active; 'I' for Inactive)
REMARK    1  A    between atoms: N_1  and  C_16
REMARK    2  A    between atoms: C_4  and  C_8
REMARK    3  A    between atoms: C_20  and  C_39
REMARK                            x       y       z     vdW  Elec       q    Type
REMARK                         _______ _______ _______ _____ _____    ______ ____
ROOT
ATOM      1  N   UNL     1      32.706  28.218  47.443  0.00  0.00    +0.000 N 
ATOM      2  C   UNL     1      33.297  27.765  48.655  0.00  0.00    +0.000 C 
ATOM      3  C   UNL     1      34.485  28.502  49.139  0.00  0.00    +0.000 C 
ATOM      4  C   UNL     1      35.417  29.003  48.132  0.00  0.00    +0.000 C 
ATOM      5  C   UNL     1      34.719  29.403  46.821  0.00  0.00    +0.000 C 
ATOM      6  C   UNL     1      33.757  28.269  46.448  0.00  0.00    +0.000 C 
ATOM      7  H   UNL     1      32.499  27.743  49.432  0.00  0.00    +0.000 HD
ATOM      8  H   UNL     1      33.555  26.674  48.518  0.00  0.00    +0.000 HD
ATOM      9  H   UNL     1      34.008  29.415  49.630  0.00  0.00    +0.000 HD
ATOM     10  H   UNL     1      34.975  27.943  49.952  0.00  0.00    +0.000 HD
ATOM     11  H   UNL     1      36.131  28.202  47.814  0.00  0.00    +0.000 HD
ATOM     12  H   UNL     1      35.453  29.467  45.998  0.00  0.00    +0.000 HD
ATOM     13  H   UNL     1      34.090  30.286  46.960  0.00  0.00    +0.000 HD
ATOM     14  H   UNL     1      34.332  27.318  46.367  0.00  0.00    +0.000 HD
ATOM     15  H   UNL     1      33.310  28.434  45.461  0.00  0.00    +0.000 HD
ENDROOT
BRANCH   4  17
ATOM     16  C   UNL     1      35.946  30.743  49.781  0.00  0.00    +0.000 A 
ATOM     17  C   UNL     1      36.196  30.201  48.533  0.00  0.00    +0.000 A 
ATOM     18  C   UNL     1      37.097  30.728  47.646  0.00  0.00    +0.000 A 
ATOM     19  C   UNL     1      37.793  31.872  48.028  0.00  0.00    +0.000 A 
ATOM     20  C   UNL     1      37.541  32.408  49.266  0.00  0.00    +0.000 A 
ATOM     21  C   UNL     1      36.627  31.875  50.171  0.00  0.00    +0.000 A 
ATOM     22  O   UNL     1      38.333  33.553  49.469  0.00  0.00    +0.000 OA
ATOM     23  C   UNL     1      39.329  33.478  48.452  0.00  0.00    +0.000 C 
ATOM     24  O   UNL     1      38.762  32.688  47.436  0.00  0.00    +0.000 OA
ATOM     25  H   UNL     1      35.277  30.414  50.565  0.00  0.00    +0.000 HD
ATOM     26  H   UNL     1      37.272  30.290  46.690  0.00  0.00    +0.000 HD
ATOM     27  H   UNL     1      36.481  32.359  51.140  0.00  0.00    +0.000 HD
ATOM     28  H   UNL     1      39.533  34.482  48.009  0.00  0.00    +0.000 HD
ATOM     29  H   UNL     1      40.248  33.014  48.873  0.00  0.00    +0.000 HD
ENDBRANCH   4  17
BRANCH   1  30
ATOM     30  C   UNL     1      31.338  28.563  47.205  0.00  0.00    +0.000 A 
ATOM     31  C   UNL     1      30.864  29.374  46.180  0.00  0.00    +0.000 A 
ATOM     32  C   UNL     1      29.503  29.576  46.107  0.00  0.00    +0.000 A 
ATOM     33  N   UNL     1      28.696  28.982  47.027  0.00  0.00    +0.000 NA
ATOM     34  C   UNL     1      29.176  28.201  48.011  0.00  0.00    +0.000 A 
ATOM     35  N   UNL     1      30.501  28.006  48.081  0.00  0.00    +0.000 NA
ATOM     36  H   UNL     1      31.610  29.777  45.525  0.00  0.00    +0.000 HD
ATOM     37  H   UNL     1      29.157  30.207  45.305  0.00  0.00    +0.000 HD
BRANCH  34  39
ATOM     38  C   UNL     1      26.916  27.544  48.702  0.00  0.00    +0.000 A 
ATOM     39  C   UNL     1      28.268  27.582  48.980  0.00  0.00    +0.000 A 
ATOM     40  C   UNL     1      28.770  27.045  50.157  0.00  0.00    +0.000 A 
ATOM     41  H   UNL     1      29.835  27.084  50.357  0.00  0.00    +0.000 HD
ATOM     42  C   UNL     1      27.902  26.465  51.060  0.00  0.00    +0.000 A 
ATOM     43  N   UNL     1      28.191  25.895  52.245  0.00  0.00    +0.000 N 
ATOM     44  C   UNL     1      26.973  25.492  52.711  0.00  0.00    +0.000 A 
ATOM     45  H   UNL     1      26.721  24.989  53.625  0.00  0.00    +0.000 HD
ATOM     46  N   UNL     1      26.008  25.806  51.849  0.00  0.00    +0.000 NA
ATOM     47  C   UNL     1      26.547  26.415  50.804  0.00  0.00    +0.000 A 
ATOM     48  C   UNL     1      26.046  26.957  49.618  0.00  0.00    +0.000 A 
ATOM     49  H   UNL     1      29.085  25.748  52.763  0.00  0.00    +0.000 HD
ENDBRANCH  34  39
ENDBRANCH   1  30
TORSDOF 3
