
 OpenBabel03272507203D

 33 36  0  0  1  0  0  0  0  0999 V2000
   37.5490   31.4610   49.4630 C   0  0  0  0  0  0  0  0  0  0  0  0
   38.2600   32.6280   49.6970 C   0  0  0  0  0  0  0  0  0  0  0  0
   38.9280   33.1360   48.5610 C   0  0  0  0  0  0  0  0  0  0  0  0
   38.8520   32.4990   47.3580 N   0  0  0  0  0  0  0  0  0  0  0  0
   38.1390   31.3560   47.1820 C   0  0  0  0  0  0  0  0  0  0  0  0
   37.4770   30.8330   48.2640 N   0  0  0  0  0  0  0  0  0  0  0  0
   38.2990   33.1040   50.6580 H   0  0  0  0  0  0  0  0  0  0  0  0
   39.5080   34.0430   48.6560 H   0  0  0  0  0  0  0  0  0  0  0  0
   36.8190   30.5330   45.3160 C   0  0  0  0  0  3  0  0  0  0  0  0
   38.0650   30.6850   45.8870 C   0  0  0  0  0  0  0  0  0  0  0  0
   39.1840   30.2090   45.2310 C   0  0  0  0  0  0  0  0  0  0  0  0
   40.1480   30.3420   45.7040 H   0  0  0  0  0  0  0  0  0  0  0  0
   39.1150   29.5730   44.0070 C   0  0  0  0  0  0  0  0  0  0  0  0
   40.0200   29.0280   43.1740 N   0  0  0  0  0  0  0  0  0  0  0  0
   39.3270   28.5580   42.1210 C   0  0  0  0  0  0  0  0  0  0  0  0
   39.8950   28.0720   41.3260 H   0  0  0  0  0  0  0  0  0  0  0  0
   38.0090   28.7990   42.2830 N   0  0  0  0  0  0  0  0  0  0  0  0
   37.8470   29.4360   43.4590 C   0  0  0  0  0  0  0  0  0  0  0  0
   36.7130   29.9030   44.0920 C   0  0  0  0  0  3  0  0  0  0  0  0
   41.0420   29.0290   43.4060 H   0  0  0  0  0  0  0  0  0  0  0  0
   36.8050   30.9050   50.6380 C   0  0  1  0  0  0  0  0  0  0  0  0
   36.0830   29.6360   50.5670 C   0  0  2  0  0  0  0  0  0  0  0  0
   37.4490   29.6180   51.1850 C   0  0  0  0  0  0  0  0  0  0  0  0
   36.6020   31.6930   51.4020 H   0  0  0  0  0  0  0  0  0  0  0  0
   35.1440   29.6370   51.1950 H   0  0  0  0  0  0  0  0  0  0  0  0
   38.2460   29.1300   50.5820 H   0  0  0  0  0  0  0  0  0  0  0  0
   37.5720   29.6160   52.2730 H   0  0  0  0  0  0  0  0  0  0  0  0
   35.9000   29.0790   49.3090 O   0  0  0  0  0  0  0  0  0  0  0  0
   34.7590   28.8420   48.6190 C   0  0  0  0  0  0  0  0  0  0  0  0
   34.3240   27.6850   48.4260 O   0  0  0  0  0  0  0  0  0  0  0  0
   34.2340   30.0680   48.2100 N   0  0  0  0  0  0  0  0  0  0  0  0
   33.5200   30.2210   48.9820 H   0  0  0  0  0  0  0  0  0  0  0  0
   34.7170   30.3870   47.3210 H   0  0  0  0  0  0  0  0  0  0  0  0
  1  2  1  0  0  0  0
  1 21  1  0  0  0  0
  2  7  1  0  0  0  0
  3  8  1  0  0  0  0
  3  2  2  0  0  0  0
  4  3  1  0  0  0  0
  5  4  2  0  0  0  0
  5  6  1  0  0  0  0
  6  1  2  0  0  0  0
  9 10  1  0  0  0  0
 10  5  1  0  0  0  0
 11 12  1  0  0  0  0
 11 10  2  0  0  0  0
 13 11  1  0  0  0  0
 14 20  1  0  0  0  0
 14 13  1  0  0  0  0
 15 17  2  0  0  0  0
 15 14  1  0  0  0  0
 16 15  1  0  0  0  0
 17 18  1  0  0  0  0
 18 13  2  0  0  0  0
 18 19  1  0  0  0  0
 19  9  2  0  0  0  0
 21 23  1  0  0  0  0
 21 24  1  1  0  0  0
 22 21  1  0  0  0  0
 22 23  1  0  0  0  0
 22 25  1  1  0  0  0
 23 27  1  0  0  0  0
 26 23  1  0  0  0  0
 28 22  1  0  0  0  0
 29 28  1  0  0  0  0
 30 29  2  0  0  0  0
 31 29  1  0  0  0  0
 31 32  1  0  0  0  0
 33 31  1  0  0  0  0
M  END
>  <minimizedAffinity>
-6.27048683

>  <minimizedRMSD>
1.64174247

$$$$
