
 OpenBabel03272509233D

 49 54  0  0  0  0  0  0  0  0999 V2000
   37.0690   27.5910   34.1310 C   0  0  0  0  0  0  0  0  0  0  0  0
   36.3640   28.4610   33.3120 C   0  0  0  0  0  0  0  0  0  0  0  0
   35.8610   27.9750   32.1170 C   0  0  0  0  0  0  0  0  0  0  0  0
   36.0500   26.6450   31.7280 C   0  0  0  0  0  0  0  0  0  0  0  0
   35.6970   25.8970   30.6650 N   0  0  0  0  0  0  0  0  0  0  0  0
   36.1500   24.6400   30.8050 C   0  0  0  0  0  0  0  0  0  0  0  0
   36.8120   24.5870   31.9970 N   0  0  0  0  0  0  0  0  0  0  0  0
   36.7550   25.8150   32.5710 C   0  0  0  0  0  0  0  0  0  0  0  0
   37.2600   26.2810   33.7580 C   0  0  0  0  0  0  0  0  0  0  0  0
   37.4190   28.0610   35.0370 H   0  0  0  0  0  0  0  0  0  0  0  0
   35.2910   28.5340   31.3750 H   0  0  0  0  0  0  0  0  0  0  0  0
   35.1490   26.2440   29.8470 H   0  0  0  0  0  0  0  0  0  0  0  0
   36.0120   23.8330   30.1060 H   0  0  0  0  0  0  0  0  0  0  0  0
   39.1630   24.7580   34.3780 C   0  0  0  0  0  3  0  0  0  0  0  0
   38.0110   25.4220   34.6700 C   0  0  0  0  0  0  0  0  0  0  0  0
   37.4680   25.3000   35.9340 C   0  0  0  0  0  0  0  0  0  0  0  0
   36.5430   25.8040   36.2440 H   0  0  0  0  0  0  0  0  0  0  0  0
   38.1040   24.5080   36.8730 C   0  0  0  0  0  0  0  0  0  0  0  0
   37.8090   24.2140   38.1520 N   0  0  0  0  0  0  0  0  0  0  0  0
   38.7650   23.3780   38.6440 C   0  0  0  0  0  0  0  0  0  0  0  0
   38.8690   22.9300   39.6270 H   0  0  0  0  0  0  0  0  0  0  0  0
   39.6910   23.1300   37.6720 N   0  0  0  0  0  0  0  0  0  0  0  0
   39.2870   23.8200   36.5890 C   0  0  0  0  0  0  0  0  0  0  0  0
   39.8150   23.9600   35.3030 C   0  0  0  0  0  3  0  0  0  0  0  0
   36.9840   24.5540   38.7130 H   0  0  0  0  0  0  0  0  0  0  0  0
   36.0620   29.7790   33.4830 O   0  0  0  0  0  0  0  0  0  0  0  0
   34.0690   30.1250   34.8180 C   0  0  0  0  0  0  0  0  0  0  0  0
   33.3420   30.6720   35.8610 C   0  0  0  0  0  0  0  0  0  0  0  0
   34.0760   31.5350   36.6810 C   0  0  0  0  0  0  0  0  0  0  0  0
   35.4280   31.8090   36.4480 C   0  0  0  0  0  0  0  0  0  0  0  0
   36.0780   31.1970   35.3530 C   0  0  0  0  0  0  0  0  0  0  0  0
   35.3590   30.3350   34.5280 C   0  0  0  0  0  0  0  0  0  0  0  0
   33.5500   31.9910   37.5160 H   0  0  0  0  0  0  0  0  0  0  0  0
   35.9640   32.4780   37.1000 H   0  0  0  0  0  0  0  0  0  0  0  0
   37.1180   31.4140   35.1830 H   0  0  0  0  0  0  0  0  0  0  0  0
   31.5960   29.3170   36.8930 C   0  0  0  0  0  0  0  0  0  0  0  0
   31.9660   30.3990   36.1040 C   0  0  0  0  0  0  0  0  0  0  0  0
   30.9350   31.1910   35.5710 C   0  0  0  0  0  0  0  0  0  0  0  0
   29.6470   30.8640   35.8500 N   0  0  0  0  0  0  0  0  0  0  0  0
   29.3370   29.7920   36.6290 C   0  0  0  0  0  0  0  0  0  0  0  0
   30.3090   29.0320   37.1420 N   0  0  0  0  0  0  0  0  0  0  0  0
   32.3090   28.6470   37.3490 H   0  0  0  0  0  0  0  0  0  0  0  0
   28.2550   29.7090   36.7270 H   0  0  0  0  0  0  0  0  0  0  0  0
   31.2690   32.3630   34.7170 C   0  0  0  0  0  0  0  0  0  0  0  0
   31.4820   33.2600   35.3320 H   0  0  0  0  0  0  0  0  0  0  0  0
   30.4120   32.5920   34.0490 H   0  0  0  0  0  0  0  0  0  0  0  0
   32.1010   32.0770   34.0590 H   0  0  0  0  0  0  0  0  0  0  0  0
   33.4210   29.2490   33.9430 O   0  0  0  0  0  0  0  0  0  0  0  0
   33.7560   28.3130   33.9040 H   0  0  0  0  0  0  0  0  0  0  0  0
  1 10  1  0  0  0  0
  2 26  1  0  0  0  0
  2  1  2  0  0  0  0
  3  2  1  0  0  0  0
  4  3  2  0  0  0  0
  4  8  1  0  0  0  0
  5  6  1  0  0  0  0
  5  4  1  0  0  0  0
  6  7  2  0  0  0  0
  7  8  1  0  0  0  0
  8  9  2  0  0  0  0
  9  1  1  0  0  0  0
  9 15  1  0  0  0  0
 11  3  1  0  0  0  0
 12  5  1  0  0  0  0
 13  6  1  0  0  0  0
 14 15  2  0  0  0  0
 14 24  1  0  0  0  0
 15 16  1  0  0  0  0
 16 17  1  0  0  0  0
 16 18  2  0  0  0  0
 18 19  1  0  0  0  0
 19 20  1  0  0  0  0
 19 25  1  0  0  0  0
 20 21  1  0  0  0  0
 22 20  2  0  0  0  0
 23 18  1  0  0  0  0
 23 22  1  0  0  0  0
 24 23  2  0  0  0  0
 26 32  1  0  0  0  0
 27 28  1  0  0  0  0
 28 37  1  0  0  0  0
 28 29  2  0  0  0  0
 29 33  1  0  0  0  0
 30 29  1  0  0  0  0
 30 34  1  0  0  0  0
 31 30  2  0  0  0  0
 32 27  2  0  0  0  0
 32 31  1  0  0  0  0
 35 31  1  0  0  0  0
 36 41  1  0  0  0  0
 36 42  1  0  0  0  0
 37 36  2  0  0  0  0
 38 39  2  0  0  0  0
 38 37  1  0  0  0  0
 39 40  1  0  0  0  0
 40 43  1  0  0  0  0
 40 41  2  0  0  0  0
 44 45  1  0  0  0  0
 44 38  1  0  0  0  0
 46 44  1  0  0  0  0
 47 44  1  0  0  0  0
 48 27  1  0  0  0  0
 49 48  1  0  0  0  0
M  END
>  <minimizedAffinity>
-7.58454514

$$$$

 OpenBabel03272509233D

 49 54  0  0  0  0  0  0  0  0999 V2000
   37.7830   26.6670   33.2570 C   0  0  0  0  0  0  0  0  0  0  0  0
   37.1580   27.3910   32.2530 C   0  0  0  0  0  0  0  0  0  0  0  0
   36.4140   26.7000   31.3110 C   0  0  0  0  0  0  0  0  0  0  0  0
   36.2840   25.3080   31.3550 C   0  0  0  0  0  0  0  0  0  0  0  0
   35.6520   24.3800   30.6120 N   0  0  0  0  0  0  0  0  0  0  0  0
   35.8650   23.1520   31.1160 C   0  0  0  0  0  0  0  0  0  0  0  0
   36.6580   23.3060   32.2160 N   0  0  0  0  0  0  0  0  0  0  0  0
   36.9200   24.6290   32.3700 C   0  0  0  0  0  0  0  0  0  0  0  0
   37.6610   25.2980   33.3110 C   0  0  0  0  0  0  0  0  0  0  0  0
   38.3370   27.2920   33.9400 H   0  0  0  0  0  0  0  0  0  0  0  0
   35.8700   27.1280   30.4690 H   0  0  0  0  0  0  0  0  0  0  0  0
   35.0780   24.5830   29.7650 H   0  0  0  0  0  0  0  0  0  0  0  0
   35.4790   22.2270   30.7220 H   0  0  0  0  0  0  0  0  0  0  0  0
   39.4640   23.8340   34.2770 C   0  0  0  0  0  3  0  0  0  0  0  0
   38.3460   24.6000   34.3960 C   0  0  0  0  0  0  0  0  0  0  0  0
   37.7720   24.7600   35.6420 C   0  0  0  0  0  0  0  0  0  0  0  0
   36.8700   25.3630   35.8180 H   0  0  0  0  0  0  0  0  0  0  0  0
   38.3440   24.1410   36.7380 C   0  0  0  0  0  0  0  0  0  0  0  0
   38.0070   24.1230   38.0410 N   0  0  0  0  0  0  0  0  0  0  0  0
   38.9060   23.3540   38.7170 C   0  0  0  0  0  0  0  0  0  0  0  0
   38.9650   23.1060   39.7720 H   0  0  0  0  0  0  0  0  0  0  0  0
   39.8350   22.8700   37.8420 N   0  0  0  0  0  0  0  0  0  0  0  0
   39.4920   23.3510   36.6320 C   0  0  0  0  0  0  0  0  0  0  0  0
   40.0530   23.2050   35.3600 C   0  0  0  0  0  3  0  0  0  0  0  0
   37.1920   24.6090   38.4980 H   0  0  0  0  0  0  0  0  0  0  0  0
   37.1450   28.7330   32.0130 O   0  0  0  0  0  0  0  0  0  0  0  0
   35.5250   29.8410   33.4340 C   0  0  0  0  0  0  0  0  0  0  0  0
   34.4790   30.7080   33.6980 C   0  0  0  0  0  0  0  0  0  0  0  0
   34.0060   31.3950   32.5750 C   0  0  0  0  0  0  0  0  0  0  0  0
   34.5570   31.2040   31.3030 C   0  0  0  0  0  0  0  0  0  0  0  0
   35.6240   30.2930   31.1420 C   0  0  0  0  0  0  0  0  0  0  0  0
   36.1050   29.6030   32.2510 C   0  0  0  0  0  0  0  0  0  0  0  0
   33.1840   32.0890   32.7290 H   0  0  0  0  0  0  0  0  0  0  0  0
   34.1690   31.7500   30.4590 H   0  0  0  0  0  0  0  0  0  0  0  0
   36.0400   30.1540   30.1590 H   0  0  0  0  0  0  0  0  0  0  0  0
   32.7480   30.2450   35.3520 C   0  0  0  0  0  0  0  0  0  0  0  0
   33.9130   30.9070   34.9890 C   0  0  0  0  0  0  0  0  0  0  0  0
   34.4910   31.7650   35.9410 C   0  0  0  0  0  0  0  0  0  0  0  0
   33.8890   31.9000   37.1500 N   0  0  0  0  0  0  0  0  0  0  0  0
   32.7470   31.2280   37.4570 C   0  0  0  0  0  0  0  0  0  0  0  0
   32.1900   30.4100   36.5600 N   0  0  0  0  0  0  0  0  0  0  0  0
   32.2260   29.5640   34.6960 H   0  0  0  0  0  0  0  0  0  0  0  0
   32.4340   31.4770   38.4710 H   0  0  0  0  0  0  0  0  0  0  0  0
   35.7400   32.5030   35.6100 C   0  0  0  0  0  0  0  0  0  0  0  0
   36.6370   31.8800   35.7980 H   0  0  0  0  0  0  0  0  0  0  0  0
   35.8090   33.4160   36.2380 H   0  0  0  0  0  0  0  0  0  0  0  0
   35.6610   32.8530   34.5710 H   0  0  0  0  0  0  0  0  0  0  0  0
   36.0660   29.1090   34.4950 O   0  0  0  0  0  0  0  0  0  0  0  0
   37.0200   29.2730   34.7220 H   0  0  0  0  0  0  0  0  0  0  0  0
  1  9  1  0  0  0  0
  1 10  1  0  0  0  0
  2  1  2  0  0  0  0
  3  4  2  0  0  0  0
  3  2  1  0  0  0  0
  4  8  1  0  0  0  0
  5  6  1  0  0  0  0
  5  4  1  0  0  0  0
  6  7  2  0  0  0  0
  7  8  1  0  0  0  0
  8  9  2  0  0  0  0
  9 15  1  0  0  0  0
 11  3  1  0  0  0  0
 12  5  1  0  0  0  0
 13  6  1  0  0  0  0
 14 15  2  0  0  0  0
 14 24  1  0  0  0  0
 15 16  1  0  0  0  0
 16 17  1  0  0  0  0
 16 18  2  0  0  0  0
 18 19  1  0  0  0  0
 19 25  1  0  0  0  0
 19 20  1  0  0  0  0
 20 21  1  0  0  0  0
 22 20  2  0  0  0  0
 23 18  1  0  0  0  0
 23 22  1  0  0  0  0
 24 23  2  0  0  0  0
 26 32  1  0  0  0  0
 26  2  1  0  0  0  0
 27 28  1  0  0  0  0
 27 48  1  0  0  0  0
 28 37  1  0  0  0  0
 29 33  1  0  0  0  0
 29 28  2  0  0  0  0
 30 29  1  0  0  0  0
 31 30  2  0  0  0  0
 31 32  1  0  0  0  0
 32 27  2  0  0  0  0
 34 30  1  0  0  0  0
 35 31  1  0  0  0  0
 36 41  1  0  0  0  0
 37 36  2  0  0  0  0
 37 38  1  0  0  0  0
 38 39  2  0  0  0  0
 39 40  1  0  0  0  0
 40 43  1  0  0  0  0
 41 40  2  0  0  0  0
 42 36  1  0  0  0  0
 44 45  1  0  0  0  0
 44 38  1  0  0  0  0
 44 46  1  0  0  0  0
 47 44  1  0  0  0  0
 48 49  1  0  0  0  0
M  END
>  <minimizedAffinity>
-7.32215881

$$$$

 OpenBabel03272509233D

 49 54  0  0  0  0  0  0  0  0999 V2000
   36.4900   28.1010   34.4720 C   0  0  0  0  0  0  0  0  0  0  0  0
   37.1140   27.1630   33.6640 C   0  0  0  0  0  0  0  0  0  0  0  0
   37.1990   27.4200   32.3060 C   0  0  0  0  0  0  0  0  0  0  0  0
   36.6750   28.5880   31.7460 C   0  0  0  0  0  0  0  0  0  0  0  0
   36.6020   29.1090   30.5050 N   0  0  0  0  0  0  0  0  0  0  0  0
   35.9740   30.2970   30.5320 C   0  0  0  0  0  0  0  0  0  0  0  0
   35.6360   30.5380   31.8320 N   0  0  0  0  0  0  0  0  0  0  0  0
   36.0640   29.4930   32.5840 C   0  0  0  0  0  0  0  0  0  0  0  0
   35.9710   29.2540   33.9320 C   0  0  0  0  0  0  0  0  0  0  0  0
   36.4740   27.8120   35.5120 H   0  0  0  0  0  0  0  0  0  0  0  0
   37.6570   26.7810   31.5490 H   0  0  0  0  0  0  0  0  0  0  0  0
   36.9800   28.6550   29.6450 H   0  0  0  0  0  0  0  0  0  0  0  0
   35.7770   30.9310   29.6840 H   0  0  0  0  0  0  0  0  0  0  0  0
   35.9610   31.1000   35.6400 C   0  0  0  0  0  3  0  0  0  0  0  0
   35.3280   30.1970   34.8430 C   0  0  0  0  0  0  0  0  0  0  0  0
   33.9490   30.1320   34.8670 C   0  0  0  0  0  0  0  0  0  0  0  0
   33.3670   29.4310   34.2530 H   0  0  0  0  0  0  0  0  0  0  0  0
   33.2430   30.9840   35.6970 C   0  0  0  0  0  0  0  0  0  0  0  0
   31.9250   31.1390   35.9190 N   0  0  0  0  0  0  0  0  0  0  0  0
   31.7460   32.1250   36.8430 C   0  0  0  0  0  0  0  0  0  0  0  0
   30.8360   32.5290   37.2710 H   0  0  0  0  0  0  0  0  0  0  0  0
   32.9630   32.6140   37.2210 N   0  0  0  0  0  0  0  0  0  0  0  0
   33.8780   31.9170   36.5210 C   0  0  0  0  0  0  0  0  0  0  0  0
   35.2750   31.9620   36.4780 C   0  0  0  0  0  3  0  0  0  0  0  0
   31.1330   30.6050   35.4730 H   0  0  0  0  0  0  0  0  0  0  0  0
   37.6900   25.9690   33.9840 O   0  0  0  0  0  0  0  0  0  0  0  0
   39.5400   24.6020   34.7470 C   0  0  0  0  0  0  0  0  0  0  0  0
   40.8600   24.3600   35.0830 C   0  0  0  0  0  0  0  0  0  0  0  0
   41.7020   25.4680   34.9380 C   0  0  0  0  0  0  0  0  0  0  0  0
   41.2270   26.7060   34.4900 C   0  0  0  0  0  0  0  0  0  0  0  0
   39.8580   26.8470   34.1730 C   0  0  0  0  0  0  0  0  0  0  0  0
   39.0090   25.7520   34.3130 C   0  0  0  0  0  0  0  0  0  0  0  0
   42.7500   25.3300   35.1900 H   0  0  0  0  0  0  0  0  0  0  0  0
   41.9020   27.5390   34.3890 H   0  0  0  0  0  0  0  0  0  0  0  0
   39.5040   27.8030   33.8290 H   0  0  0  0  0  0  0  0  0  0  0  0
   41.3120   22.7870   36.8910 C   0  0  0  0  0  0  0  0  0  0  0  0
   41.3500   23.1040   35.5400 C   0  0  0  0  0  0  0  0  0  0  0  0
   41.8870   22.1420   34.6670 C   0  0  0  0  0  0  0  0  0  0  0  0
   42.3330   20.9680   35.1820 N   0  0  0  0  0  0  0  0  0  0  0  0
   42.2730   20.7060   36.5150 C   0  0  0  0  0  0  0  0  0  0  0  0
   41.7650   21.6120   37.3540 N   0  0  0  0  0  0  0  0  0  0  0  0
   40.9190   23.4540   37.6440 H   0  0  0  0  0  0  0  0  0  0  0  0
   42.6800   19.7140   36.7140 H   0  0  0  0  0  0  0  0  0  0  0  0
   41.9560   22.4250   33.2070 C   0  0  0  0  0  0  0  0  0  0  0  0
   41.0000   22.1780   32.7050 H   0  0  0  0  0  0  0  0  0  0  0  0
   42.7610   21.8130   32.7490 H   0  0  0  0  0  0  0  0  0  0  0  0
   42.2590   23.4730   33.0800 H   0  0  0  0  0  0  0  0  0  0  0  0
   38.6220   23.5540   34.8590 O   0  0  0  0  0  0  0  0  0  0  0  0
   38.1760   23.2470   34.0250 H   0  0  0  0  0  0  0  0  0  0  0  0
  1 10  1  0  0  0  0
  2 26  1  0  0  0  0
  2  1  2  0  0  0  0
  3  2  1  0  0  0  0
  4  3  2  0  0  0  0
  4  8  1  0  0  0  0
  5  6  1  0  0  0  0
  5  4  1  0  0  0  0
  6  7  2  0  0  0  0
  7  8  1  0  0  0  0
  8  9  2  0  0  0  0
  9  1  1  0  0  0  0
  9 15  1  0  0  0  0
 11  3  1  0  0  0  0
 12  5  1  0  0  0  0
 13  6  1  0  0  0  0
 14 24  1  0  0  0  0
 15 16  1  0  0  0  0
 15 14  2  0  0  0  0
 16 18  2  0  0  0  0
 17 16  1  0  0  0  0
 18 19  1  0  0  0  0
 18 23  1  0  0  0  0
 19 20  1  0  0  0  0
 20 22  2  0  0  0  0
 20 21  1  0  0  0  0
 23 22  1  0  0  0  0
 24 23  2  0  0  0  0
 25 19  1  0  0  0  0
 26 32  1  0  0  0  0
 27 48  1  0  0  0  0
 27 28  1  0  0  0  0
 28 37  1  0  0  0  0
 29 28  2  0  0  0  0
 29 33  1  0  0  0  0
 30 29  1  0  0  0  0
 31 32  1  0  0  0  0
 31 30  2  0  0  0  0
 32 27  2  0  0  0  0
 34 30  1  0  0  0  0
 35 31  1  0  0  0  0
 36 41  1  0  0  0  0
 36 42  1  0  0  0  0
 37 36  2  0  0  0  0
 38 39  2  0  0  0  0
 38 37  1  0  0  0  0
 39 40  1  0  0  0  0
 40 43  1  0  0  0  0
 40 41  2  0  0  0  0
 44 38  1  0  0  0  0
 45 44  1  0  0  0  0
 46 44  1  0  0  0  0
 47 44  1  0  0  0  0
 49 48  1  0  0  0  0
M  END
>  <minimizedAffinity>
-7.08250427

$$$$

 OpenBabel03272509233D

 49 54  0  0  0  0  0  0  0  0999 V2000
   36.8540   28.0540   32.7970 C   0  0  0  0  0  0  0  0  0  0  0  0
   37.8150   27.5680   31.9230 C   0  0  0  0  0  0  0  0  0  0  0  0
   38.0680   28.2810   30.7630 C   0  0  0  0  0  0  0  0  0  0  0  0
   37.3820   29.4620   30.4630 C   0  0  0  0  0  0  0  0  0  0  0  0
   37.4000   30.3520   29.4520 N   0  0  0  0  0  0  0  0  0  0  0  0
   36.5090   31.3330   29.6760 C   0  0  0  0  0  0  0  0  0  0  0  0
   35.9050   31.0570   30.8680 N   0  0  0  0  0  0  0  0  0  0  0  0
   36.4360   29.9090   31.3590 C   0  0  0  0  0  0  0  0  0  0  0  0
   36.1730   29.2140   32.5120 C   0  0  0  0  0  0  0  0  0  0  0  0
   36.7290   27.4310   33.6690 H   0  0  0  0  0  0  0  0  0  0  0  0
   38.7890   28.0260   29.9860 H   0  0  0  0  0  0  0  0  0  0  0  0
   38.0180   30.2890   28.6130 H   0  0  0  0  0  0  0  0  0  0  0  0
   36.3140   32.1730   29.0310 H   0  0  0  0  0  0  0  0  0  0  0  0
   33.8480   29.3640   33.4590 C   0  0  0  0  0  3  0  0  0  0  0  0
   35.1750   29.6670   33.4780 C   0  0  0  0  0  0  0  0  0  0  0  0
   35.6660   30.4730   34.4850 C   0  0  0  0  0  0  0  0  0  0  0  0
   36.7230   30.7610   34.5680 H   0  0  0  0  0  0  0  0  0  0  0  0
   34.8010   30.9550   35.4510 C   0  0  0  0  0  0  0  0  0  0  0  0
   34.9980   31.7420   36.5250 N   0  0  0  0  0  0  0  0  0  0  0  0
   33.8070   31.9250   37.1610 C   0  0  0  0  0  0  0  0  0  0  0  0
   33.5680   32.4910   38.0550 H   0  0  0  0  0  0  0  0  0  0  0  0
   32.8290   31.2470   36.4920 N   0  0  0  0  0  0  0  0  0  0  0  0
   33.4360   30.6540   35.4470 C   0  0  0  0  0  0  0  0  0  0  0  0
   32.9660   29.8360   34.4160 C   0  0  0  0  0  3  0  0  0  0  0  0
   35.9060   32.1660   36.8510 H   0  0  0  0  0  0  0  0  0  0  0  0
   38.5970   26.4540   32.0060 O   0  0  0  0  0  0  0  0  0  0  0  0
   38.5250   25.0110   33.9510 C   0  0  0  0  0  0  0  0  0  0  0  0
   38.2310   23.8410   34.6300 C   0  0  0  0  0  0  0  0  0  0  0  0
   37.6250   22.8570   33.8420 C   0  0  0  0  0  0  0  0  0  0  0  0
   37.3490   23.0600   32.4850 C   0  0  0  0  0  0  0  0  0  0  0  0
   37.6910   24.2930   31.8880 C   0  0  0  0  0  0  0  0  0  0  0  0
   38.2950   25.2820   32.6600 C   0  0  0  0  0  0  0  0  0  0  0  0
   37.3730   21.9190   34.3290 H   0  0  0  0  0  0  0  0  0  0  0  0
   36.8810   22.2810   31.9070 H   0  0  0  0  0  0  0  0  0  0  0  0
   37.4740   24.4380   30.8430 H   0  0  0  0  0  0  0  0  0  0  0  0
   37.5960   24.0280   36.9770 C   0  0  0  0  0  0  0  0  0  0  0  0
   38.5080   23.6280   36.0100 C   0  0  0  0  0  0  0  0  0  0  0  0
   39.6930   23.0160   36.4540 C   0  0  0  0  0  0  0  0  0  0  0  0
   39.8820   22.8490   37.7880 N   0  0  0  0  0  0  0  0  0  0  0  0
   38.9560   23.2590   38.6960 C   0  0  0  0  0  0  0  0  0  0  0  0
   37.8270   23.8420   38.2850 N   0  0  0  0  0  0  0  0  0  0  0  0
   36.6570   24.5060   36.7430 H   0  0  0  0  0  0  0  0  0  0  0  0
   39.3030   23.0310   39.7040 H   0  0  0  0  0  0  0  0  0  0  0  0
   40.7090   22.5660   35.4650 C   0  0  0  0  0  0  0  0  0  0  0  0
   40.4710   21.5570   35.0750 H   0  0  0  0  0  0  0  0  0  0  0  0
   41.7080   22.5290   35.9500 H   0  0  0  0  0  0  0  0  0  0  0  0
   40.7800   23.3320   34.6800 H   0  0  0  0  0  0  0  0  0  0  0  0
   39.1330   26.0540   34.6550 O   0  0  0  0  0  0  0  0  0  0  0  0
   38.6280   26.9070   34.7330 H   0  0  0  0  0  0  0  0  0  0  0  0
  1 10  1  0  0  0  0
  2 26  1  0  0  0  0
  2  1  2  0  0  0  0
  3  2  1  0  0  0  0
  4  3  2  0  0  0  0
  4  8  1  0  0  0  0
  5  6  1  0  0  0  0
  5  4  1  0  0  0  0
  6  7  2  0  0  0  0
  7  8  1  0  0  0  0
  8  9  2  0  0  0  0
  9  1  1  0  0  0  0
  9 15  1  0  0  0  0
 11  3  1  0  0  0  0
 12  5  1  0  0  0  0
 13  6  1  0  0  0  0
 14 15  2  0  0  0  0
 14 24  1  0  0  0  0
 15 16  1  0  0  0  0
 16 17  1  0  0  0  0
 16 18  2  0  0  0  0
 18 19  1  0  0  0  0
 19 25  1  0  0  0  0
 19 20  1  0  0  0  0
 20 21  1  0  0  0  0
 22 20  2  0  0  0  0
 23 18  1  0  0  0  0
 23 22  1  0  0  0  0
 24 23  2  0  0  0  0
 26 32  1  0  0  0  0
 27 28  1  0  0  0  0
 27 48  1  0  0  0  0
 28 37  1  0  0  0  0
 29 33  1  0  0  0  0
 29 28  2  0  0  0  0
 30 29  1  0  0  0  0
 31 30  2  0  0  0  0
 31 32  1  0  0  0  0
 32 27  2  0  0  0  0
 34 30  1  0  0  0  0
 35 31  1  0  0  0  0
 36 41  1  0  0  0  0
 37 38  1  0  0  0  0
 37 36  2  0  0  0  0
 38 39  2  0  0  0  0
 39 40  1  0  0  0  0
 40 43  1  0  0  0  0
 41 40  2  0  0  0  0
 42 36  1  0  0  0  0
 44 46  1  0  0  0  0
 44 38  1  0  0  0  0
 45 44  1  0  0  0  0
 47 44  1  0  0  0  0
 48 49  1  0  0  0  0
M  END
>  <minimizedAffinity>
-6.96893501

$$$$

 OpenBabel03272509233D

 49 54  0  0  0  0  0  0  0  0999 V2000
   35.4920   28.8050   33.6870 C   0  0  0  0  0  0  0  0  0  0  0  0
   34.7270   29.6960   32.9490 C   0  0  0  0  0  0  0  0  0  0  0  0
   35.1240   29.9880   31.6550 C   0  0  0  0  0  0  0  0  0  0  0  0
   36.2650   29.4090   31.0900 C   0  0  0  0  0  0  0  0  0  0  0  0
   36.8900   29.4870   29.8990 N   0  0  0  0  0  0  0  0  0  0  0  0
   37.9780   28.6970   29.8890 C   0  0  0  0  0  0  0  0  0  0  0  0
   38.0450   28.0980   31.1130 N   0  0  0  0  0  0  0  0  0  0  0  0
   36.9950   28.5290   31.8570 C   0  0  0  0  0  0  0  0  0  0  0  0
   36.6160   28.2300   33.1410 C   0  0  0  0  0  0  0  0  0  0  0  0
   35.1030   28.6430   34.6800 H   0  0  0  0  0  0  0  0  0  0  0  0
   34.6280   30.6640   30.9580 H   0  0  0  0  0  0  0  0  0  0  0  0
   36.5760   30.0770   29.0980 H   0  0  0  0  0  0  0  0  0  0  0  0
   38.6610   28.5670   29.0670 H   0  0  0  0  0  0  0  0  0  0  0  0
   38.1050   27.6280   35.0750 C   0  0  0  0  0  3  0  0  0  0  0  0
   37.3730   27.3010   33.9760 C   0  0  0  0  0  0  0  0  0  0  0  0
   37.3150   25.9810   33.5750 C   0  0  0  0  0  0  0  0  0  0  0  0
   36.7460   25.6400   32.7000 H   0  0  0  0  0  0  0  0  0  0  0  0
   37.9980   25.0210   34.3000 C   0  0  0  0  0  0  0  0  0  0  0  0
   38.1160   23.6900   34.1450 N   0  0  0  0  0  0  0  0  0  0  0  0
   38.9110   23.1990   35.1360 C   0  0  0  0  0  0  0  0  0  0  0  0
   39.2320   22.1840   35.3420 H   0  0  0  0  0  0  0  0  0  0  0  0
   39.3120   24.2260   35.9420 N   0  0  0  0  0  0  0  0  0  0  0  0
   38.7540   25.3390   35.4310 C   0  0  0  0  0  0  0  0  0  0  0  0
   38.7970   26.6830   35.8140 C   0  0  0  0  0  3  0  0  0  0  0  0
   37.6810   23.0910   33.3940 H   0  0  0  0  0  0  0  0  0  0  0  0
   33.5930   30.3730   33.2880 O   0  0  0  0  0  0  0  0  0  0  0  0
   33.1830   31.7730   35.2230 C   0  0  0  0  0  0  0  0  0  0  0  0
   32.7210   32.0360   36.5010 C   0  0  0  0  0  0  0  0  0  0  0  0
   32.1330   30.9370   37.1360 C   0  0  0  0  0  0  0  0  0  0  0  0
   32.0320   29.6880   36.5140 C   0  0  0  0  0  0  0  0  0  0  0  0
   32.5370   29.5250   35.2050 C   0  0  0  0  0  0  0  0  0  0  0  0
   33.1250   30.6110   34.5610 C   0  0  0  0  0  0  0  0  0  0  0  0
   31.7530   31.0920   38.1430 H   0  0  0  0  0  0  0  0  0  0  0  0
   31.5720   28.8620   37.0310 H   0  0  0  0  0  0  0  0  0  0  0  0
   32.4530   28.5600   34.7360 H   0  0  0  0  0  0  0  0  0  0  0  0
   34.0060   33.6870   37.7540 C   0  0  0  0  0  0  0  0  0  0  0  0
   32.8210   33.3040   37.1400 C   0  0  0  0  0  0  0  0  0  0  0  0
   31.7490   34.2120   37.1830 C   0  0  0  0  0  0  0  0  0  0  0  0
   31.9240   35.4020   37.8130 N   0  0  0  0  0  0  0  0  0  0  0  0
   33.1070   35.7300   38.4000 C   0  0  0  0  0  0  0  0  0  0  0  0
   34.1330   34.8750   38.3650 N   0  0  0  0  0  0  0  0  0  0  0  0
   34.8870   33.0640   37.7780 H   0  0  0  0  0  0  0  0  0  0  0  0
   33.0350   36.7220   38.8440 H   0  0  0  0  0  0  0  0  0  0  0  0
   30.4530   33.8580   36.5430 C   0  0  0  0  0  0  0  0  0  0  0  0
   30.4610   34.0960   35.4610 H   0  0  0  0  0  0  0  0  0  0  0  0
   29.6330   34.4330   37.0240 H   0  0  0  0  0  0  0  0  0  0  0  0
   30.2490   32.7990   36.7560 H   0  0  0  0  0  0  0  0  0  0  0  0
   33.7870   32.8100   34.5080 O   0  0  0  0  0  0  0  0  0  0  0  0
   33.3460   33.1010   33.6650 H   0  0  0  0  0  0  0  0  0  0  0  0
  1 10  1  0  0  0  0
  2 26  1  0  0  0  0
  2  1  2  0  0  0  0
  3  2  1  0  0  0  0
  4  3  2  0  0  0  0
  4  8  1  0  0  0  0
  5  4  1  0  0  0  0
  6  5  1  0  0  0  0
  6  7  2  0  0  0  0
  7  8  1  0  0  0  0
  8  9  2  0  0  0  0
  9  1  1  0  0  0  0
  9 15  1  0  0  0  0
 11  3  1  0  0  0  0
 12  5  1  0  0  0  0
 13  6  1  0  0  0  0
 14 24  1  0  0  0  0
 15 14  2  0  0  0  0
 16 15  1  0  0  0  0
 16 18  2  0  0  0  0
 17 16  1  0  0  0  0
 18 23  1  0  0  0  0
 19 18  1  0  0  0  0
 19 20  1  0  0  0  0
 20 21  1  0  0  0  0
 20 22  2  0  0  0  0
 23 24  2  0  0  0  0
 23 22  1  0  0  0  0
 25 19  1  0  0  0  0
 26 32  1  0  0  0  0
 27 28  1  0  0  0  0
 28 29  2  0  0  0  0
 28 37  1  0  0  0  0
 29 33  1  0  0  0  0
 30 34  1  0  0  0  0
 30 29  1  0  0  0  0
 31 30  2  0  0  0  0
 32 31  1  0  0  0  0
 32 27  2  0  0  0  0
 35 31  1  0  0  0  0
 36 42  1  0  0  0  0
 36 41  1  0  0  0  0
 37 38  1  0  0  0  0
 37 36  2  0  0  0  0
 38 39  2  0  0  0  0
 39 40  1  0  0  0  0
 40 43  1  0  0  0  0
 41 40  2  0  0  0  0
 44 47  1  0  0  0  0
 44 46  1  0  0  0  0
 44 38  1  0  0  0  0
 45 44  1  0  0  0  0
 48 27  1  0  0  0  0
 49 48  1  0  0  0  0
M  END
>  <minimizedAffinity>
-6.96772385

$$$$

 OpenBabel03272509233D

 49 54  0  0  0  0  0  0  0  0999 V2000
   36.8890   27.0780   34.2920 C   0  0  0  0  0  0  0  0  0  0  0  0
   36.4960   27.9960   33.3310 C   0  0  0  0  0  0  0  0  0  0  0  0
   37.3080   28.1750   32.2230 C   0  0  0  0  0  0  0  0  0  0  0  0
   38.4960   27.4570   32.0610 C   0  0  0  0  0  0  0  0  0  0  0  0
   39.4670   27.4070   31.1280 N   0  0  0  0  0  0  0  0  0  0  0  0
   40.4090   26.5140   31.4800 C   0  0  0  0  0  0  0  0  0  0  0  0
   40.0240   25.9800   32.6750 N   0  0  0  0  0  0  0  0  0  0  0  0
   38.8490   26.5540   33.0390 C   0  0  0  0  0  0  0  0  0  0  0  0
   38.0560   26.3650   34.1430 C   0  0  0  0  0  0  0  0  0  0  0  0
   36.1940   27.0100   35.1150 H   0  0  0  0  0  0  0  0  0  0  0  0
   37.1320   28.8560   31.3900 H   0  0  0  0  0  0  0  0  0  0  0  0
   39.4870   27.9790   30.2560 H   0  0  0  0  0  0  0  0  0  0  0  0
   41.2960   26.2720   30.9200 H   0  0  0  0  0  0  0  0  0  0  0  0
   37.7270   25.2190   36.3570 C   0  0  0  0  0  3  0  0  0  0  0  0
   38.4080   25.4150   35.1950 C   0  0  0  0  0  0  0  0  0  0  0  0
   39.5420   24.6670   34.9460 C   0  0  0  0  0  0  0  0  0  0  0  0
   40.1430   24.7680   34.0330 H   0  0  0  0  0  0  0  0  0  0  0  0
   39.9600   23.7370   35.8810 C   0  0  0  0  0  0  0  0  0  0  0  0
   41.0040   22.8890   35.9030 N   0  0  0  0  0  0  0  0  0  0  0  0
   40.9690   22.1770   37.0640 C   0  0  0  0  0  0  0  0  0  0  0  0
   41.6360   21.4070   37.4360 H   0  0  0  0  0  0  0  0  0  0  0  0
   39.8900   22.5710   37.8020 N   0  0  0  0  0  0  0  0  0  0  0  0
   39.2730   23.5240   37.0790 C   0  0  0  0  0  0  0  0  0  0  0  0
   38.1290   24.2940   37.3060 C   0  0  0  0  0  3  0  0  0  0  0  0
   41.7450   22.7660   35.1640 H   0  0  0  0  0  0  0  0  0  0  0  0
   35.3950   28.7990   33.2790 O   0  0  0  0  0  0  0  0  0  0  0  0
   33.7420   30.0790   34.5030 C   0  0  0  0  0  0  0  0  0  0  0  0
   33.3220   31.0020   35.4460 C   0  0  0  0  0  0  0  0  0  0  0  0
   34.3610   31.6010   36.1650 C   0  0  0  0  0  0  0  0  0  0  0  0
   35.7040   31.2820   35.9330 C   0  0  0  0  0  0  0  0  0  0  0  0
   36.0250   30.3250   34.9460 C   0  0  0  0  0  0  0  0  0  0  0  0
   35.0010   29.7190   34.2230 C   0  0  0  0  0  0  0  0  0  0  0  0
   34.0840   32.3340   36.9180 H   0  0  0  0  0  0  0  0  0  0  0  0
   36.4800   31.7620   36.5060 H   0  0  0  0  0  0  0  0  0  0  0  0
   37.0610   30.0870   34.7770 H   0  0  0  0  0  0  0  0  0  0  0  0
   31.3970   32.4590   35.1010 C   0  0  0  0  0  0  0  0  0  0  0  0
   31.9580   31.3320   35.6860 C   0  0  0  0  0  0  0  0  0  0  0  0
   31.1280   30.5530   36.5110 C   0  0  0  0  0  0  0  0  0  0  0  0
   29.8390   30.9360   36.6900 N   0  0  0  0  0  0  0  0  0  0  0  0
   29.3370   32.0500   36.0930 C   0  0  0  0  0  0  0  0  0  0  0  0
   30.1160   32.7980   35.3060 N   0  0  0  0  0  0  0  0  0  0  0  0
   31.9470   33.1240   34.4510 H   0  0  0  0  0  0  0  0  0  0  0  0
   28.2890   32.1750   36.3660 H   0  0  0  0  0  0  0  0  0  0  0  0
   31.6730   29.3330   37.1670 C   0  0  0  0  0  0  0  0  0  0  0  0
   31.6260   28.4580   36.4900 H   0  0  0  0  0  0  0  0  0  0  0  0
   31.0790   29.1060   38.0780 H   0  0  0  0  0  0  0  0  0  0  0  0
   32.6900   29.5620   37.5160 H   0  0  0  0  0  0  0  0  0  0  0  0
   32.7750   29.4270   33.7340 O   0  0  0  0  0  0  0  0  0  0  0  0
   32.7090   28.4380   33.8270 H   0  0  0  0  0  0  0  0  0  0  0  0
  1 10  1  0  0  0  0
  2  1  2  0  0  0  0
  3  2  1  0  0  0  0
  4  3  2  0  0  0  0
  4  8  1  0  0  0  0
  5  6  1  0  0  0  0
  5  4  1  0  0  0  0
  6  7  2  0  0  0  0
  7  8  1  0  0  0  0
  8  9  2  0  0  0  0
  9  1  1  0  0  0  0
  9 15  1  0  0  0  0
 11  3  1  0  0  0  0
 12  5  1  0  0  0  0
 13  6  1  0  0  0  0
 14 24  1  0  0  0  0
 15 14  2  0  0  0  0
 16 15  1  0  0  0  0
 16 18  2  0  0  0  0
 17 16  1  0  0  0  0
 18 19  1  0  0  0  0
 18 23  1  0  0  0  0
 19 20  1  0  0  0  0
 20 21  1  0  0  0  0
 20 22  2  0  0  0  0
 23 24  2  0  0  0  0
 23 22  1  0  0  0  0
 25 19  1  0  0  0  0
 26  2  1  0  0  0  0
 26 32  1  0  0  0  0
 27 28  1  0  0  0  0
 28 37  1  0  0  0  0
 28 29  2  0  0  0  0
 29 33  1  0  0  0  0
 30 29  1  0  0  0  0
 30 34  1  0  0  0  0
 31 30  2  0  0  0  0
 32 27  2  0  0  0  0
 32 31  1  0  0  0  0
 35 31  1  0  0  0  0
 36 41  2  0  0  0  0
 36 37  1  0  0  0  0
 37 38  2  0  0  0  0
 38 39  1  0  0  0  0
 38 44  1  0  0  0  0
 40 43  1  0  0  0  0
 40 39  2  0  0  0  0
 41 40  1  0  0  0  0
 42 36  1  0  0  0  0
 44 47  1  0  0  0  0
 44 46  1  0  0  0  0
 45 44  1  0  0  0  0
 48 49  1  0  0  0  0
 48 27  1  0  0  0  0
M  END
>  <minimizedAffinity>
-6.92276239

$$$$

 OpenBabel03272509233D

 49 54  0  0  0  0  0  0  0  0999 V2000
   36.9310   27.8130   32.4920 C   0  0  0  0  0  0  0  0  0  0  0  0
   38.0080   27.3460   31.7530 C   0  0  0  0  0  0  0  0  0  0  0  0
   38.4040   28.0700   30.6410 C   0  0  0  0  0  0  0  0  0  0  0  0
   37.7490   29.2440   30.2580 C   0  0  0  0  0  0  0  0  0  0  0  0
   37.8910   30.1410   29.2630 N   0  0  0  0  0  0  0  0  0  0  0  0
   36.9650   31.1100   29.3700 C   0  0  0  0  0  0  0  0  0  0  0  0
   36.2100   30.8180   30.4690 N   0  0  0  0  0  0  0  0  0  0  0  0
   36.6860   29.6730   31.0210 C   0  0  0  0  0  0  0  0  0  0  0  0
   36.2800   28.9670   32.1250 C   0  0  0  0  0  0  0  0  0  0  0  0
   36.6990   27.1830   33.3360 H   0  0  0  0  0  0  0  0  0  0  0  0
   39.2270   27.8300   29.9670 H   0  0  0  0  0  0  0  0  0  0  0  0
   38.6170   30.0930   28.5150 H   0  0  0  0  0  0  0  0  0  0  0  0
   36.8470   31.9520   28.7100 H   0  0  0  0  0  0  0  0  0  0  0  0
   35.2380   30.0790   34.1260 C   0  0  0  0  0  3  0  0  0  0  0  0
   35.1540   29.4000   32.9500 C   0  0  0  0  0  0  0  0  0  0  0  0
   33.9090   29.0680   32.4530 C   0  0  0  0  0  0  0  0  0  0  0  0
   33.7610   28.5220   31.5120 H   0  0  0  0  0  0  0  0  0  0  0  0
   32.7780   29.4320   33.1600 C   0  0  0  0  0  0  0  0  0  0  0  0
   31.4670   29.2460   32.9200 N   0  0  0  0  0  0  0  0  0  0  0  0
   30.7490   29.8030   33.9360 C   0  0  0  0  0  0  0  0  0  0  0  0
   29.6770   29.8540   34.0930 H   0  0  0  0  0  0  0  0  0  0  0  0
   31.6070   30.3560   34.8420 N   0  0  0  0  0  0  0  0  0  0  0  0
   32.8460   30.1300   34.3690 C   0  0  0  0  0  0  0  0  0  0  0  0
   34.1180   30.4540   34.8490 C   0  0  0  0  0  3  0  0  0  0  0  0
   31.0300   28.7560   32.0960 H   0  0  0  0  0  0  0  0  0  0  0  0
   38.7870   26.2420   31.9350 O   0  0  0  0  0  0  0  0  0  0  0  0
   38.6420   24.8750   33.9310 C   0  0  0  0  0  0  0  0  0  0  0  0
   38.3130   23.7370   34.6450 C   0  0  0  0  0  0  0  0  0  0  0  0
   37.7110   22.7330   33.8800 C   0  0  0  0  0  0  0  0  0  0  0  0
   37.4730   22.8870   32.5090 C   0  0  0  0  0  0  0  0  0  0  0  0
   37.8500   24.0920   31.8750 C   0  0  0  0  0  0  0  0  0  0  0  0
   38.4490   25.1000   32.6250 C   0  0  0  0  0  0  0  0  0  0  0  0
   37.4320   21.8170   34.3950 H   0  0  0  0  0  0  0  0  0  0  0  0
   37.0070   22.0940   31.9490 H   0  0  0  0  0  0  0  0  0  0  0  0
   37.6620   24.2000   30.8210 H   0  0  0  0  0  0  0  0  0  0  0  0
   37.6200   24.0200   36.9670 C   0  0  0  0  0  0  0  0  0  0  0  0
   38.5510   23.5720   36.0390 C   0  0  0  0  0  0  0  0  0  0  0  0
   39.7160   22.9620   36.5370 C   0  0  0  0  0  0  0  0  0  0  0  0
   39.8680   22.8430   37.8810 N   0  0  0  0  0  0  0  0  0  0  0  0
   38.9250   23.2990   38.7480 C   0  0  0  0  0  0  0  0  0  0  0  0
   37.8150   23.8810   38.2860 N   0  0  0  0  0  0  0  0  0  0  0  0
   36.6940   24.5010   36.6900 H   0  0  0  0  0  0  0  0  0  0  0  0
   39.2420   23.1050   39.7730 H   0  0  0  0  0  0  0  0  0  0  0  0
   40.7510   22.4620   35.5920 C   0  0  0  0  0  0  0  0  0  0  0  0
   40.5090   21.4420   35.2340 H   0  0  0  0  0  0  0  0  0  0  0  0
   41.7360   22.4300   36.1040 H   0  0  0  0  0  0  0  0  0  0  0  0
   40.8520   23.1970   34.7810 H   0  0  0  0  0  0  0  0  0  0  0  0
   39.2480   25.9350   34.6100 O   0  0  0  0  0  0  0  0  0  0  0  0
   38.7550   26.7980   34.6430 H   0  0  0  0  0  0  0  0  0  0  0  0
  1 10  1  0  0  0  0
  2 26  1  0  0  0  0
  2  1  2  0  0  0  0
  3  2  1  0  0  0  0
  4  3  2  0  0  0  0
  4  8  1  0  0  0  0
  5  6  1  0  0  0  0
  5  4  1  0  0  0  0
  6  7  2  0  0  0  0
  7  8  1  0  0  0  0
  8  9  2  0  0  0  0
  9  1  1  0  0  0  0
  9 15  1  0  0  0  0
 11  3  1  0  0  0  0
 12  5  1  0  0  0  0
 13  6  1  0  0  0  0
 14 24  1  0  0  0  0
 15 14  2  0  0  0  0
 16 15  1  0  0  0  0
 16 18  2  0  0  0  0
 17 16  1  0  0  0  0
 18 23  1  0  0  0  0
 19 18  1  0  0  0  0
 19 20  1  0  0  0  0
 20 21  1  0  0  0  0
 20 22  2  0  0  0  0
 23 22  1  0  0  0  0
 23 24  2  0  0  0  0
 25 19  1  0  0  0  0
 26 32  1  0  0  0  0
 27 48  1  0  0  0  0
 27 28  1  0  0  0  0
 28 37  1  0  0  0  0
 29 33  1  0  0  0  0
 29 28  2  0  0  0  0
 30 29  1  0  0  0  0
 31 30  2  0  0  0  0
 31 32  1  0  0  0  0
 32 27  2  0  0  0  0
 34 30  1  0  0  0  0
 35 31  1  0  0  0  0
 36 41  1  0  0  0  0
 37 38  1  0  0  0  0
 37 36  2  0  0  0  0
 38 39  2  0  0  0  0
 39 40  1  0  0  0  0
 40 43  1  0  0  0  0
 41 40  2  0  0  0  0
 42 36  1  0  0  0  0
 44 46  1  0  0  0  0
 44 38  1  0  0  0  0
 45 44  1  0  0  0  0
 47 44  1  0  0  0  0
 48 49  1  0  0  0  0
M  END
>  <minimizedAffinity>
-6.87706375

$$$$

 OpenBabel03272509233D

 49 54  0  0  0  0  0  0  0  0999 V2000
   36.0200   29.6100   32.2960 C   0  0  0  0  0  0  0  0  0  0  0  0
   35.8030   30.9530   32.0310 C   0  0  0  0  0  0  0  0  0  0  0  0
   36.2310   31.4610   30.8160 C   0  0  0  0  0  0  0  0  0  0  0  0
   36.8680   30.6550   29.8680 C   0  0  0  0  0  0  0  0  0  0  0  0
   37.3830   30.8450   28.6370 N   0  0  0  0  0  0  0  0  0  0  0  0
   37.8900   29.6960   28.1590 C   0  0  0  0  0  0  0  0  0  0  0  0
   37.6920   28.7450   29.1180 N   0  0  0  0  0  0  0  0  0  0  0  0
   37.0630   29.3260   30.1710 C   0  0  0  0  0  0  0  0  0  0  0  0
   36.6450   28.8080   31.3700 C   0  0  0  0  0  0  0  0  0  0  0  0
   35.6520   29.3100   33.2640 H   0  0  0  0  0  0  0  0  0  0  0  0
   36.1310   32.4900   30.4680 H   0  0  0  0  0  0  0  0  0  0  0  0
   37.3880   31.7550   28.1260 H   0  0  0  0  0  0  0  0  0  0  0  0
   38.3630   29.5600   27.2020 H   0  0  0  0  0  0  0  0  0  0  0  0
   37.8460   26.8980   32.4820 C   0  0  0  0  0  3  0  0  0  0  0  0
   36.8410   27.4020   31.7160 C   0  0  0  0  0  0  0  0  0  0  0  0
   35.8960   26.5390   31.1960 C   0  0  0  0  0  0  0  0  0  0  0  0
   35.0570   26.8700   30.5700 H   0  0  0  0  0  0  0  0  0  0  0  0
   35.9910   25.1860   31.4650 C   0  0  0  0  0  0  0  0  0  0  0  0
   35.2300   24.1390   31.1000 N   0  0  0  0  0  0  0  0  0  0  0  0
   35.7580   23.0020   31.6330 C   0  0  0  0  0  0  0  0  0  0  0  0
   35.4260   21.9720   31.5610 H   0  0  0  0  0  0  0  0  0  0  0  0
   36.8740   23.3180   32.3530 N   0  0  0  0  0  0  0  0  0  0  0  0
   37.0170   24.6530   32.2510 C   0  0  0  0  0  0  0  0  0  0  0  0
   37.9600   25.5470   32.7640 C   0  0  0  0  0  3  0  0  0  0  0  0
   34.3620   24.1560   30.5010 H   0  0  0  0  0  0  0  0  0  0  0  0
   35.2110   31.9160   32.7940 O   0  0  0  0  0  0  0  0  0  0  0  0
   33.6030   31.3140   34.5040 C   0  0  0  0  0  0  0  0  0  0  0  0
   33.1540   31.1770   35.8060 C   0  0  0  0  0  0  0  0  0  0  0  0
   34.0720   31.5930   36.7760 C   0  0  0  0  0  0  0  0  0  0  0  0
   35.3310   32.1020   36.4360 C   0  0  0  0  0  0  0  0  0  0  0  0
   35.6910   32.2000   35.0740 C   0  0  0  0  0  0  0  0  0  0  0  0
   34.7870   31.7890   34.0980 C   0  0  0  0  0  0  0  0  0  0  0  0
   33.7670   31.5060   37.8160 H   0  0  0  0  0  0  0  0  0  0  0  0
   36.0140   32.4130   37.2080 H   0  0  0  0  0  0  0  0  0  0  0  0
   36.6610   32.5920   34.8240 H   0  0  0  0  0  0  0  0  0  0  0  0
   31.6940   29.2950   36.3310 C   0  0  0  0  0  0  0  0  0  0  0  0
   31.8750   30.6610   36.1590 C   0  0  0  0  0  0  0  0  0  0  0  0
   30.7550   31.4890   36.3480 C   0  0  0  0  0  0  0  0  0  0  0  0
   29.5700   30.9180   36.6840 N   0  0  0  0  0  0  0  0  0  0  0  0
   29.4450   29.5730   36.8410 C   0  0  0  0  0  0  0  0  0  0  0  0
   30.5030   28.7770   36.6640 N   0  0  0  0  0  0  0  0  0  0  0  0
   32.4890   28.5740   36.2110 H   0  0  0  0  0  0  0  0  0  0  0  0
   28.4180   29.3270   37.1100 H   0  0  0  0  0  0  0  0  0  0  0  0
   30.8860   32.9610   36.1780 C   0  0  0  0  0  0  0  0  0  0  0  0
   31.2520   33.4420   37.1060 H   0  0  0  0  0  0  0  0  0  0  0  0
   29.8950   33.3940   35.9250 H   0  0  0  0  0  0  0  0  0  0  0  0
   31.5300   33.1450   35.3060 H   0  0  0  0  0  0  0  0  0  0  0  0
   32.7550   30.9240   33.4640 O   0  0  0  0  0  0  0  0  0  0  0  0
   33.0620   30.1790   32.8800 H   0  0  0  0  0  0  0  0  0  0  0  0
  1 10  1  0  0  0  0
  2  1  1  0  0  0  0
  2 26  1  0  0  0  0
  3  2  2  0  0  0  0
  4  8  2  0  0  0  0
  4  3  1  0  0  0  0
  5  4  1  0  0  0  0
  6  5  1  0  0  0  0
  6  7  2  0  0  0  0
  7  8  1  0  0  0  0
  8  9  1  0  0  0  0
  9 15  1  0  0  0  0
  9  1  2  0  0  0  0
 11  3  1  0  0  0  0
 12  5  1  0  0  0  0
 13  6  1  0  0  0  0
 14 24  1  0  0  0  0
 15 14  2  0  0  0  0
 16 18  2  0  0  0  0
 16 15  1  0  0  0  0
 17 16  1  0  0  0  0
 18 23  1  0  0  0  0
 19 18  1  0  0  0  0
 19 20  1  0  0  0  0
 20 22  2  0  0  0  0
 21 20  1  0  0  0  0
 23 22  1  0  0  0  0
 23 24  2  0  0  0  0
 25 19  1  0  0  0  0
 26 32  1  0  0  0  0
 27 28  1  0  0  0  0
 28 37  1  0  0  0  0
 28 29  2  0  0  0  0
 29 33  1  0  0  0  0
 30 29  1  0  0  0  0
 30 34  1  0  0  0  0
 31 30  2  0  0  0  0
 32 27  2  0  0  0  0
 32 31  1  0  0  0  0
 35 31  1  0  0  0  0
 36 41  1  0  0  0  0
 37 36  2  0  0  0  0
 37 38  1  0  0  0  0
 38 39  2  0  0  0  0
 39 40  1  0  0  0  0
 40 43  1  0  0  0  0
 41 40  2  0  0  0  0
 42 36  1  0  0  0  0
 44 38  1  0  0  0  0
 44 45  1  0  0  0  0
 46 44  1  0  0  0  0
 47 44  1  0  0  0  0
 48 27  1  0  0  0  0
 49 48  1  0  0  0  0
M  END
>  <minimizedAffinity>
-6.78472614

$$$$

 OpenBabel03272509233D

 49 54  0  0  0  0  0  0  0  0999 V2000
   36.3700   29.2810   32.5040 C   0  0  0  0  0  0  0  0  0  0  0  0
   36.8900   28.8660   31.2870 C   0  0  0  0  0  0  0  0  0  0  0  0
   36.7800   29.7180   30.2010 C   0  0  0  0  0  0  0  0  0  0  0  0
   36.1650   30.9680   30.3090 C   0  0  0  0  0  0  0  0  0  0  0  0
   35.9120   31.9890   29.4660 N   0  0  0  0  0  0  0  0  0  0  0  0
   35.2750   32.9810   30.1110 C   0  0  0  0  0  0  0  0  0  0  0  0
   35.1180   32.5780   31.4050 N   0  0  0  0  0  0  0  0  0  0  0  0
   35.6630   31.3420   31.5350 C   0  0  0  0  0  0  0  0  0  0  0  0
   35.7630   30.5100   32.6210 C   0  0  0  0  0  0  0  0  0  0  0  0
   36.5030   28.5510   33.2870 H   0  0  0  0  0  0  0  0  0  0  0  0
   37.1390   29.5310   29.1880 H   0  0  0  0  0  0  0  0  0  0  0  0
   36.1730   32.0070   28.4560 H   0  0  0  0  0  0  0  0  0  0  0  0
   34.9530   33.9140   29.6810 H   0  0  0  0  0  0  0  0  0  0  0  0
   35.9100   31.5620   34.9000 C   0  0  0  0  0  3  0  0  0  0  0  0
   35.2380   30.8820   33.9320 C   0  0  0  0  0  0  0  0  0  0  0  0
   33.9360   30.4870   34.1700 C   0  0  0  0  0  0  0  0  0  0  0  0
   33.3290   29.9360   33.4390 H   0  0  0  0  0  0  0  0  0  0  0  0
   33.3450   30.7910   35.3830 C   0  0  0  0  0  0  0  0  0  0  0  0
   32.1190   30.5380   35.8760 N   0  0  0  0  0  0  0  0  0  0  0  0
   32.0350   31.0550   37.1340 C   0  0  0  0  0  0  0  0  0  0  0  0
   31.2130   31.0500   37.8420 H   0  0  0  0  0  0  0  0  0  0  0  0
   33.2200   31.6490   37.4570 N   0  0  0  0  0  0  0  0  0  0  0  0
   34.0210   31.4890   36.3870 C   0  0  0  0  0  0  0  0  0  0  0  0
   35.3380   31.8760   36.1210 C   0  0  0  0  0  3  0  0  0  0  0  0
   31.3290   30.0280   35.4000 H   0  0  0  0  0  0  0  0  0  0  0  0
   37.5230   27.7060   30.9510 O   0  0  0  0  0  0  0  0  0  0  0  0
   38.0840   26.0550   32.6340 C   0  0  0  0  0  0  0  0  0  0  0  0
   38.9500   25.3260   33.4300 C   0  0  0  0  0  0  0  0  0  0  0  0
   40.3020   25.6310   33.2380 C   0  0  0  0  0  0  0  0  0  0  0  0
   40.7200   26.5960   32.3150 C   0  0  0  0  0  0  0  0  0  0  0  0
   39.7520   27.2860   31.5510 C   0  0  0  0  0  0  0  0  0  0  0  0
   38.4030   26.9910   31.7320 C   0  0  0  0  0  0  0  0  0  0  0  0
   41.0230   25.0850   33.8400 H   0  0  0  0  0  0  0  0  0  0  0  0
   41.7690   26.8070   32.1910 H   0  0  0  0  0  0  0  0  0  0  0  0
   40.0850   28.0250   30.8440 H   0  0  0  0  0  0  0  0  0  0  0  0
   38.4590   23.0060   34.0020 C   0  0  0  0  0  0  0  0  0  0  0  0
   38.5330   24.3430   34.3710 C   0  0  0  0  0  0  0  0  0  0  0  0
   38.1810   24.6670   35.6930 C   0  0  0  0  0  0  0  0  0  0  0  0
   37.7930   23.6710   36.5300 N   0  0  0  0  0  0  0  0  0  0  0  0
   37.7370   22.3750   36.1180 C   0  0  0  0  0  0  0  0  0  0  0  0
   38.0700   22.0550   34.8640 N   0  0  0  0  0  0  0  0  0  0  0  0
   38.7070   22.6520   33.0130 H   0  0  0  0  0  0  0  0  0  0  0  0
   37.4040   21.7420   36.9400 H   0  0  0  0  0  0  0  0  0  0  0  0
   38.2390   26.0820   36.1480 C   0  0  0  0  0  0  0  0  0  0  0  0
   39.2610   26.3570   36.4760 H   0  0  0  0  0  0  0  0  0  0  0  0
   37.5450   26.2260   37.0040 H   0  0  0  0  0  0  0  0  0  0  0  0
   37.8560   26.7150   35.3350 H   0  0  0  0  0  0  0  0  0  0  0  0
   36.7120   25.8200   32.7550 O   0  0  0  0  0  0  0  0  0  0  0  0
   36.2370   25.4730   31.9540 H   0  0  0  0  0  0  0  0  0  0  0  0
  1  9  1  0  0  0  0
  1 10  1  0  0  0  0
  2  1  2  0  0  0  0
  3  4  2  0  0  0  0
  3  2  1  0  0  0  0
  4  8  1  0  0  0  0
  5  6  1  0  0  0  0
  5  4  1  0  0  0  0
  6  7  2  0  0  0  0
  7  8  1  0  0  0  0
  8  9  2  0  0  0  0
  9 15  1  0  0  0  0
 11  3  1  0  0  0  0
 12  5  1  0  0  0  0
 13  6  1  0  0  0  0
 14 24  1  0  0  0  0
 15 16  1  0  0  0  0
 15 14  2  0  0  0  0
 16 18  2  0  0  0  0
 17 16  1  0  0  0  0
 18 19  1  0  0  0  0
 18 23  1  0  0  0  0
 19 20  1  0  0  0  0
 20 22  2  0  0  0  0
 20 21  1  0  0  0  0
 23 22  1  0  0  0  0
 24 23  2  0  0  0  0
 25 19  1  0  0  0  0
 26  2  1  0  0  0  0
 26 32  1  0  0  0  0
 27 48  1  0  0  0  0
 27 28  1  0  0  0  0
 28 37  1  0  0  0  0
 29 28  2  0  0  0  0
 29 33  1  0  0  0  0
 30 29  1  0  0  0  0
 31 32  1  0  0  0  0
 31 30  2  0  0  0  0
 32 27  2  0  0  0  0
 34 30  1  0  0  0  0
 35 31  1  0  0  0  0
 36 37  2  0  0  0  0
 36 41  1  0  0  0  0
 37 38  1  0  0  0  0
 38 44  1  0  0  0  0
 38 39  2  0  0  0  0
 40 39  1  0  0  0  0
 40 43  1  0  0  0  0
 41 40  2  0  0  0  0
 42 36  1  0  0  0  0
 44 45  1  0  0  0  0
 44 46  1  0  0  0  0
 47 44  1  0  0  0  0
 49 48  1  0  0  0  0
M  END
>  <minimizedAffinity>
-6.74437666

$$$$
