
 OpenBabel03262523173D

 42 46  0  0  0  0  0  0  0  0999 V2000
   36.2370   23.5910   31.7470 C   0  0  0  0  0  0  0  0  0  0  0  0
   37.2310   23.1620   32.6260 C   0  0  0  0  0  0  0  0  0  0  0  0
   37.9780   24.1240   33.2730 C   0  0  0  0  0  0  0  0  0  0  0  0
   37.7020   25.4230   33.0170 N   0  0  0  0  0  0  0  0  0  0  0  0
   36.7450   25.8280   32.1710 C   0  0  0  0  0  0  0  0  0  0  0  0
   36.0100   24.8810   31.5350 N   0  0  0  0  0  0  0  0  0  0  0  0
   37.3980   22.1280   32.7820 H   0  0  0  0  0  0  0  0  0  0  0  0
   40.1860   24.5640   34.1790 C   0  0  0  0  0  3  0  0  0  0  0  0
   39.0410   23.8000   34.2100 C   0  0  0  0  0  0  0  0  0  0  0  0
   38.9560   22.7730   35.1180 C   0  0  0  0  0  0  0  0  0  0  0  0
   38.0820   22.1570   35.1720 H   0  0  0  0  0  0  0  0  0  0  0  0
   40.0290   22.5380   35.9780 C   0  0  0  0  0  0  0  0  0  0  0  0
   40.1290   21.5780   36.9330 N   0  0  0  0  0  0  0  0  0  0  0  0
   41.3440   21.7730   37.4760 C   0  0  0  0  0  0  0  0  0  0  0  0
   41.8370   21.2450   38.2630 H   0  0  0  0  0  0  0  0  0  0  0  0
   41.9910   22.8020   36.9000 N   0  0  0  0  0  0  0  0  0  0  0  0
   41.1720   23.3060   35.9410 C   0  0  0  0  0  0  0  0  0  0  0  0
   41.2650   24.3510   35.0220 C   0  0  0  0  0  3  0  0  0  0  0  0
   39.4730   20.8350   37.2350 H   0  0  0  0  0  0  0  0  0  0  0  0
   36.5050   27.2520   31.9420 C   0  0  0  0  0  0  0  0  0  0  0  0
   36.8160   27.7870   30.7070 C   0  0  0  0  0  0  0  0  0  0  0  0
   36.5590   29.1340   30.6010 C   0  0  0  0  0  0  0  0  0  0  0  0
   36.0400   29.8810   31.6290 C   0  0  0  0  0  0  0  0  0  0  0  0
   35.7620   29.2680   32.8180 C   0  0  0  0  0  0  0  0  0  0  0  0
   35.9980   27.9510   32.9640 N   0  0  0  0  0  0  0  0  0  0  0  0
   37.2230   27.1560   29.9290 H   0  0  0  0  0  0  0  0  0  0  0  0
   36.7910   29.6060   29.6360 H   0  0  0  0  0  0  0  0  0  0  0  0
   35.8900   30.9290   31.4250 H   0  0  0  0  0  0  0  0  0  0  0  0
   32.7440   29.3420   33.0370 Cl  0  0  0  0  0  0  0  0  0  0  0  0
   33.8560   30.1060   34.1300 C   0  0  0  0  0  0  0  0  0  0  0  0
   35.2070   30.0110   33.9370 C   0  0  0  0  0  0  0  0  0  0  0  0
   35.9660   30.6720   34.8920 C   0  0  0  0  0  0  0  0  0  0  0  0
   35.4600   31.3700   35.9490 C   0  0  0  0  0  0  0  0  0  0  0  0
   34.0950   31.4420   36.1070 C   0  0  0  0  0  0  0  0  0  0  0  0
   33.4140   32.3260   37.4500 Cl  0  0  0  0  0  0  0  0  0  0  0  0
   33.3040   30.8050   35.1890 C   0  0  0  0  0  0  0  0  0  0  0  0
   37.0550   30.6360   34.7950 H   0  0  0  0  0  0  0  0  0  0  0  0
   36.0780   31.8760   36.6780 H   0  0  0  0  0  0  0  0  0  0  0  0
   32.2260   30.8670   35.3250 H   0  0  0  0  0  0  0  0  0  0  0  0
   35.4010   22.6630   31.0210 N   0  0  0  0  0  0  0  0  0  0  0  0
   35.6500   22.6780   30.0000 H   0  0  0  0  0  0  0  0  0  0  0  0
   34.6660   22.0830   31.5010 H   0  0  0  0  0  0  0  0  0  0  0  0
  1  2  1  0  0  0  0
  2  7  1  0  0  0  0
  2  3  2  0  0  0  0
  3  9  1  0  0  0  0
  4  3  1  0  0  0  0
  5  4  2  0  0  0  0
  6  1  2  0  0  0  0
  6  5  1  0  0  0  0
  8  9  2  0  0  0  0
  8 18  1  0  0  0  0
  9 10  1  0  0  0  0
 10 11  1  0  0  0  0
 10 12  2  0  0  0  0
 12 13  1  0  0  0  0
 13 19  1  0  0  0  0
 13 14  1  0  0  0  0
 14 15  1  0  0  0  0
 16 14  2  0  0  0  0
 17 12  1  0  0  0  0
 17 16  1  0  0  0  0
 18 17  2  0  0  0  0
 20  5  1  0  0  0  0
 20 25  1  0  0  0  0
 21 20  2  0  0  0  0
 22 21  1  0  0  0  0
 22 23  2  0  0  0  0
 23 24  1  0  0  0  0
 24 25  2  0  0  0  0
 24 31  1  0  0  0  0
 26 21  1  0  0  0  0
 27 22  1  0  0  0  0
 28 23  1  0  0  0  0
 29 30  1  0  0  0  0
 30 36  1  0  0  0  0
 31 30  2  0  0  0  0
 31 32  1  0  0  0  0
 32 33  2  0  0  0  0
 33 34  1  0  0  0  0
 33 38  1  0  0  0  0
 34 35  1  0  0  0  0
 36 39  1  0  0  0  0
 36 34  2  0  0  0  0
 37 32  1  0  0  0  0
 40 42  1  0  0  0  0
 40  1  1  0  0  0  0
 41 40  1  0  0  0  0
M  END
>  <minimizedAffinity>
-7.209723

$$$$

 OpenBabel03262523173D

 42 46  0  0  0  0  0  0  0  0999 V2000
   36.7480   28.6970   30.3860 C   0  0  0  0  0  0  0  0  0  0  0  0
   36.1750   29.5020   31.3700 C   0  0  0  0  0  0  0  0  0  0  0  0
   35.7230   28.8900   32.5210 C   0  0  0  0  0  0  0  0  0  0  0  0
   35.8620   27.5500   32.6250 N   0  0  0  0  0  0  0  0  0  0  0  0
   36.4140   26.7810   31.6760 C   0  0  0  0  0  0  0  0  0  0  0  0
   36.8580   27.3840   30.5440 N   0  0  0  0  0  0  0  0  0  0  0  0
   36.0940   30.5480   31.2260 H   0  0  0  0  0  0  0  0  0  0  0  0
   33.7460   29.5110   33.7840 C   0  0  0  0  0  3  0  0  0  0  0  0
   35.1080   29.6230   33.6150 C   0  0  0  0  0  0  0  0  0  0  0  0
   35.8180   30.4180   34.4810 C   0  0  0  0  0  0  0  0  0  0  0  0
   36.8780   30.5310   34.3810 H   0  0  0  0  0  0  0  0  0  0  0  0
   35.1400   31.0840   35.5010 C   0  0  0  0  0  0  0  0  0  0  0  0
   35.6640   31.9070   36.4450 N   0  0  0  0  0  0  0  0  0  0  0  0
   34.6060   32.2870   37.1830 C   0  0  0  0  0  0  0  0  0  0  0  0
   34.5580   32.9320   38.0330 H   0  0  0  0  0  0  0  0  0  0  0  0
   33.4620   31.7380   36.7380 N   0  0  0  0  0  0  0  0  0  0  0  0
   33.7760   30.9670   35.6650 C   0  0  0  0  0  0  0  0  0  0  0  0
   33.0480   30.1620   34.7900 C   0  0  0  0  0  3  0  0  0  0  0  0
   36.6360   32.2180   36.6240 H   0  0  0  0  0  0  0  0  0  0  0  0
   36.5290   25.3350   31.8590 C   0  0  0  0  0  0  0  0  0  0  0  0
   35.8030   24.5020   31.0280 C   0  0  0  0  0  0  0  0  0  0  0  0
   35.9770   23.1640   31.2910 C   0  0  0  0  0  0  0  0  0  0  0  0
   36.7980   22.6960   32.2860 C   0  0  0  0  0  0  0  0  0  0  0  0
   37.4790   23.5930   33.0600 C   0  0  0  0  0  0  0  0  0  0  0  0
   37.3370   24.9130   32.8360 N   0  0  0  0  0  0  0  0  0  0  0  0
   35.1700   24.9210   30.2580 H   0  0  0  0  0  0  0  0  0  0  0  0
   35.4200   22.4600   30.6560 H   0  0  0  0  0  0  0  0  0  0  0  0
   36.8460   21.6240   32.3970 H   0  0  0  0  0  0  0  0  0  0  0  0
   40.3600   23.0630   32.2970 Cl  0  0  0  0  0  0  0  0  0  0  0  0
   39.6860   22.8850   33.8870 C   0  0  0  0  0  0  0  0  0  0  0  0
   38.3650   23.1510   34.1230 C   0  0  0  0  0  0  0  0  0  0  0  0
   37.9730   22.9650   35.4410 C   0  0  0  0  0  0  0  0  0  0  0  0
   38.7940   22.5540   36.4520 C   0  0  0  0  0  0  0  0  0  0  0  0
   40.1160   22.2970   36.1720 C   0  0  0  0  0  0  0  0  0  0  0  0
   41.1940   21.7710   37.4410 Cl  0  0  0  0  0  0  0  0  0  0  0  0
   40.5500   22.4670   34.8850 C   0  0  0  0  0  0  0  0  0  0  0  0
   36.9290   23.1590   35.6970 H   0  0  0  0  0  0  0  0  0  0  0  0
   38.4600   22.4180   37.4710 H   0  0  0  0  0  0  0  0  0  0  0  0
   41.5970   22.2620   34.6750 H   0  0  0  0  0  0  0  0  0  0  0  0
   37.2500   29.2400   29.1450 N   0  0  0  0  0  0  0  0  0  0  0  0
   36.6270   28.9550   28.3490 H   0  0  0  0  0  0  0  0  0  0  0  0
   38.1210   29.8290   29.1090 H   0  0  0  0  0  0  0  0  0  0  0  0
  1  6  2  0  0  0  0
  1  2  1  0  0  0  0
  2  3  2  0  0  0  0
  3  4  1  0  0  0  0
  3  9  1  0  0  0  0
  5 20  1  0  0  0  0
  5  4  2  0  0  0  0
  6  5  1  0  0  0  0
  7  2  1  0  0  0  0
  8 18  1  0  0  0  0
  9  8  2  0  0  0  0
  9 10  1  0  0  0  0
 10 12  2  0  0  0  0
 11 10  1  0  0  0  0
 12 17  1  0  0  0  0
 12 13  1  0  0  0  0
 13 19  1  0  0  0  0
 13 14  1  0  0  0  0
 14 15  1  0  0  0  0
 16 14  2  0  0  0  0
 17 16  1  0  0  0  0
 18 17  2  0  0  0  0
 20 25  1  0  0  0  0
 21 22  1  0  0  0  0
 21 20  2  0  0  0  0
 22 23  2  0  0  0  0
 23 28  1  0  0  0  0
 23 24  1  0  0  0  0
 24 31  1  0  0  0  0
 25 24  2  0  0  0  0
 26 21  1  0  0  0  0
 27 22  1  0  0  0  0
 29 30  1  0  0  0  0
 30 31  2  0  0  0  0
 30 36  1  0  0  0  0
 31 32  1  0  0  0  0
 32 37  1  0  0  0  0
 32 33  2  0  0  0  0
 33 38  1  0  0  0  0
 34 33  1  0  0  0  0
 34 35  1  0  0  0  0
 36 34  2  0  0  0  0
 39 36  1  0  0  0  0
 40  1  1  0  0  0  0
 41 40  1  0  0  0  0
 42 40  1  0  0  0  0
M  END
>  <minimizedAffinity>
-7.08092499

$$$$

 OpenBabel03262523173D

 42 46  0  0  0  0  0  0  0  0999 V2000
   38.5670   24.9380   30.5320 C   0  0  0  0  0  0  0  0  0  0  0  0
   38.8360   24.3200   31.7530 C   0  0  0  0  0  0  0  0  0  0  0  0
   38.5410   25.0160   32.9060 C   0  0  0  0  0  0  0  0  0  0  0  0
   38.0080   26.2530   32.7840 N   0  0  0  0  0  0  0  0  0  0  0  0
   37.7520   26.8410   31.6070 C   0  0  0  0  0  0  0  0  0  0  0  0
   38.0420   26.1550   30.4730 N   0  0  0  0  0  0  0  0  0  0  0  0
   39.2550   23.3480   31.7800 H   0  0  0  0  0  0  0  0  0  0  0  0
   39.7150   23.4780   34.3710 C   0  0  0  0  0  3  0  0  0  0  0  0
   38.7780   24.4780   34.2360 C   0  0  0  0  0  0  0  0  0  0  0  0
   38.1130   24.9160   35.3540 C   0  0  0  0  0  0  0  0  0  0  0  0
   37.3770   25.6910   35.2890 H   0  0  0  0  0  0  0  0  0  0  0  0
   38.4080   24.3380   36.5890 C   0  0  0  0  0  0  0  0  0  0  0  0
   37.8610   24.6360   37.7950 N   0  0  0  0  0  0  0  0  0  0  0  0
   38.4780   23.8070   38.6560 C   0  0  0  0  0  0  0  0  0  0  0  0
   38.3570   23.6990   39.7120 H   0  0  0  0  0  0  0  0  0  0  0  0
   39.3750   23.0180   38.0370 N   0  0  0  0  0  0  0  0  0  0  0  0
   39.3480   23.3380   36.7170 C   0  0  0  0  0  0  0  0  0  0  0  0
   40.0270   22.8880   35.5860 C   0  0  0  0  0  3  0  0  0  0  0  0
   37.1360   25.3220   38.0720 H   0  0  0  0  0  0  0  0  0  0  0  0
   37.1760   28.1840   31.5540 C   0  0  0  0  0  0  0  0  0  0  0  0
   37.3610   28.9390   30.4110 C   0  0  0  0  0  0  0  0  0  0  0  0
   36.7860   30.1870   30.4690 C   0  0  0  0  0  0  0  0  0  0  0  0
   36.0910   30.6430   31.5610 C   0  0  0  0  0  0  0  0  0  0  0  0
   35.9580   29.8270   32.6490 C   0  0  0  0  0  0  0  0  0  0  0  0
   36.5050   28.5970   32.6340 N   0  0  0  0  0  0  0  0  0  0  0  0
   37.9160   28.5340   29.5770 H   0  0  0  0  0  0  0  0  0  0  0  0
   36.9060   30.8260   29.5830 H   0  0  0  0  0  0  0  0  0  0  0  0
   35.6930   31.6420   31.4870 H   0  0  0  0  0  0  0  0  0  0  0  0
   33.0200   29.1080   32.7690 Cl  0  0  0  0  0  0  0  0  0  0  0  0
   33.8970   29.9840   33.9850 C   0  0  0  0  0  0  0  0  0  0  0  0
   35.2290   30.2580   33.8290 C   0  0  0  0  0  0  0  0  0  0  0  0
   35.7910   30.9620   34.8840 C   0  0  0  0  0  0  0  0  0  0  0  0
   35.1210   31.3710   36.0000 C   0  0  0  0  0  0  0  0  0  0  0  0
   33.7820   31.0750   36.1170 C   0  0  0  0  0  0  0  0  0  0  0  0
   32.8930   31.5820   37.5320 Cl  0  0  0  0  0  0  0  0  0  0  0  0
   33.1820   30.3810   35.1010 C   0  0  0  0  0  0  0  0  0  0  0  0
   36.8530   31.2150   34.8220 H   0  0  0  0  0  0  0  0  0  0  0  0
   35.5870   31.9200   36.8060 H   0  0  0  0  0  0  0  0  0  0  0  0
   32.1240   30.1520   35.2050 H   0  0  0  0  0  0  0  0  0  0  0  0
   38.8410   24.2930   29.2680 N   0  0  0  0  0  0  0  0  0  0  0  0
   39.6480   24.7650   28.7910 H   0  0  0  0  0  0  0  0  0  0  0  0
   38.2760   23.4730   28.9280 H   0  0  0  0  0  0  0  0  0  0  0  0
  1  2  1  0  0  0  0
  2  7  1  0  0  0  0
  2  3  2  0  0  0  0
  3  9  1  0  0  0  0
  4  3  1  0  0  0  0
  5  4  2  0  0  0  0
  6  1  2  0  0  0  0
  6  5  1  0  0  0  0
  8 18  1  0  0  0  0
  9  8  2  0  0  0  0
  9 10  1  0  0  0  0
 10 12  2  0  0  0  0
 11 10  1  0  0  0  0
 12 17  1  0  0  0  0
 12 13  1  0  0  0  0
 13 19  1  0  0  0  0
 13 14  1  0  0  0  0
 14 15  1  0  0  0  0
 16 14  2  0  0  0  0
 17 16  1  0  0  0  0
 18 17  2  0  0  0  0
 20  5  1  0  0  0  0
 20 25  1  0  0  0  0
 21 22  1  0  0  0  0
 21 20  2  0  0  0  0
 22 23  2  0  0  0  0
 23 24  1  0  0  0  0
 24 31  1  0  0  0  0
 25 24  2  0  0  0  0
 26 21  1  0  0  0  0
 27 22  1  0  0  0  0
 28 23  1  0  0  0  0
 29 30  1  0  0  0  0
 30 36  1  0  0  0  0
 31 30  2  0  0  0  0
 31 32  1  0  0  0  0
 32 33  2  0  0  0  0
 33 34  1  0  0  0  0
 33 38  1  0  0  0  0
 34 35  1  0  0  0  0
 36 39  1  0  0  0  0
 36 34  2  0  0  0  0
 37 32  1  0  0  0  0
 40  1  1  0  0  0  0
 41 40  1  0  0  0  0
 42 40  1  0  0  0  0
M  END
>  <minimizedAffinity>
-7.05032825

$$$$

 OpenBabel03262523173D

 42 46  0  0  0  0  0  0  0  0999 V2000
   36.6880   27.9720   30.5470 C   0  0  0  0  0  0  0  0  0  0  0  0
   36.0540   28.8900   31.3850 C   0  0  0  0  0  0  0  0  0  0  0  0
   35.8720   28.5370   32.7050 C   0  0  0  0  0  0  0  0  0  0  0  0
   36.3180   27.3250   33.1070 N   0  0  0  0  0  0  0  0  0  0  0  0
   36.9260   26.4480   32.2970 C   0  0  0  0  0  0  0  0  0  0  0  0
   37.1050   26.7960   30.9980 N   0  0  0  0  0  0  0  0  0  0  0  0
   35.7280   29.8230   31.0070 H   0  0  0  0  0  0  0  0  0  0  0  0
   33.8510   29.4890   33.6520 C   0  0  0  0  0  3  0  0  0  0  0  0
   35.2250   29.4080   33.6730 C   0  0  0  0  0  0  0  0  0  0  0  0
   35.9170   30.1480   34.5990 C   0  0  0  0  0  0  0  0  0  0  0  0
   36.9860   30.1110   34.6460 H   0  0  0  0  0  0  0  0  0  0  0  0
   35.2090   30.9560   35.4880 C   0  0  0  0  0  0  0  0  0  0  0  0
   35.7120   31.7540   36.4650 N   0  0  0  0  0  0  0  0  0  0  0  0
   34.6290   32.3140   37.0300 C   0  0  0  0  0  0  0  0  0  0  0  0
   34.5580   33.0080   37.8390 H   0  0  0  0  0  0  0  0  0  0  0  0
   33.4890   31.9000   36.4490 N   0  0  0  0  0  0  0  0  0  0  0  0
   33.8330   31.0340   35.4620 C   0  0  0  0  0  0  0  0  0  0  0  0
   33.1230   30.2840   34.5240 C   0  0  0  0  0  3  0  0  0  0  0  0
   36.6850   31.9420   36.7670 H   0  0  0  0  0  0  0  0  0  0  0  0
   37.3790   25.1540   32.8030 C   0  0  0  0  0  0  0  0  0  0  0  0
   37.9330   25.0940   34.0680 C   0  0  0  0  0  0  0  0  0  0  0  0
   38.3320   23.8320   34.4430 C   0  0  0  0  0  0  0  0  0  0  0  0
   38.1940   22.7310   33.6350 C   0  0  0  0  0  0  0  0  0  0  0  0
   37.6340   22.8840   32.3980 C   0  0  0  0  0  0  0  0  0  0  0  0
   37.2290   24.1010   31.9920 N   0  0  0  0  0  0  0  0  0  0  0  0
   38.0190   25.9900   34.6660 H   0  0  0  0  0  0  0  0  0  0  0  0
   38.7790   23.7330   35.4420 H   0  0  0  0  0  0  0  0  0  0  0  0
   38.5510   21.7980   34.0400 H   0  0  0  0  0  0  0  0  0  0  0  0
   34.9850   21.4280   32.5500 Cl  0  0  0  0  0  0  0  0  0  0  0  0
   36.3000   21.0240   31.4920 C   0  0  0  0  0  0  0  0  0  0  0  0
   37.4600   21.7510   31.5050 C   0  0  0  0  0  0  0  0  0  0  0  0
   38.4180   21.3090   30.6040 C   0  0  0  0  0  0  0  0  0  0  0  0
   38.2680   20.2500   29.7570 C   0  0  0  0  0  0  0  0  0  0  0  0
   37.0860   19.5460   29.7750 C   0  0  0  0  0  0  0  0  0  0  0  0
   36.8600   18.1850   28.7040 Cl  0  0  0  0  0  0  0  0  0  0  0  0
   36.1090   19.9440   30.6480 C   0  0  0  0  0  0  0  0  0  0  0  0
   39.3700   21.8460   30.5640 H   0  0  0  0  0  0  0  0  0  0  0  0
   39.0340   19.9290   29.0640 H   0  0  0  0  0  0  0  0  0  0  0  0
   35.1790   19.3810   30.6530 H   0  0  0  0  0  0  0  0  0  0  0  0
   36.9250   28.2470   29.1480 N   0  0  0  0  0  0  0  0  0  0  0  0
   36.3030   27.6450   28.5530 H   0  0  0  0  0  0  0  0  0  0  0  0
   37.6340   28.9570   28.8330 H   0  0  0  0  0  0  0  0  0  0  0  0
  1  6  2  0  0  0  0
  1  2  1  0  0  0  0
  2  3  2  0  0  0  0
  3  4  1  0  0  0  0
  3  9  1  0  0  0  0
  5 20  1  0  0  0  0
  5  4  2  0  0  0  0
  6  5  1  0  0  0  0
  7  2  1  0  0  0  0
  8  9  2  0  0  0  0
  8 18  1  0  0  0  0
  9 10  1  0  0  0  0
 10 11  1  0  0  0  0
 10 12  2  0  0  0  0
 12 13  1  0  0  0  0
 13 19  1  0  0  0  0
 13 14  1  0  0  0  0
 14 15  1  0  0  0  0
 16 14  2  0  0  0  0
 17 12  1  0  0  0  0
 17 16  1  0  0  0  0
 18 17  2  0  0  0  0
 20 21  1  0  0  0  0
 21 22  2  0  0  0  0
 21 26  1  0  0  0  0
 22 27  1  0  0  0  0
 23 28  1  0  0  0  0
 23 22  1  0  0  0  0
 24 23  2  0  0  0  0
 25 24  1  0  0  0  0
 25 20  2  0  0  0  0
 30 31  1  0  0  0  0
 30 29  1  0  0  0  0
 31 24  1  0  0  0  0
 32 31  2  0  0  0  0
 33 34  2  0  0  0  0
 33 32  1  0  0  0  0
 34 36  1  0  0  0  0
 35 34  1  0  0  0  0
 36 39  1  0  0  0  0
 36 30  2  0  0  0  0
 37 32  1  0  0  0  0
 38 33  1  0  0  0  0
 40  1  1  0  0  0  0
 41 40  1  0  0  0  0
 42 40  1  0  0  0  0
M  END
>  <minimizedAffinity>
-7.03983879

$$$$

 OpenBabel03262523173D

 42 46  0  0  0  0  0  0  0  0999 V2000
   38.2940   24.5240   35.0140 C   0  0  0  0  0  0  0  0  0  0  0  0
   38.0830   23.3840   34.2380 C   0  0  0  0  0  0  0  0  0  0  0  0
   37.4680   23.5430   33.0140 C   0  0  0  0  0  0  0  0  0  0  0  0
   37.1080   24.7910   32.6400 N   0  0  0  0  0  0  0  0  0  0  0  0
   37.3140   25.8830   33.3900 C   0  0  0  0  0  0  0  0  0  0  0  0
   37.9200   25.7260   34.5940 N   0  0  0  0  0  0  0  0  0  0  0  0
   38.3880   22.4330   34.5900 H   0  0  0  0  0  0  0  0  0  0  0  0
   35.9150   21.9200   32.0960 C   0  0  0  0  0  3  0  0  0  0  0  0
   37.1930   22.4310   32.1190 C   0  0  0  0  0  0  0  0  0  0  0  0
   38.1440   21.8700   31.3030 C   0  0  0  0  0  0  0  0  0  0  0  0
   39.1490   22.2390   31.2930 H   0  0  0  0  0  0  0  0  0  0  0  0
   37.7860   20.8040   30.4770 C   0  0  0  0  0  0  0  0  0  0  0  0
   38.5800   20.1250   29.6090 N   0  0  0  0  0  0  0  0  0  0  0  0
   37.7670   19.2030   29.0640 C   0  0  0  0  0  0  0  0  0  0  0  0
   37.9720   18.4550   28.3300 H   0  0  0  0  0  0  0  0  0  0  0  0
   36.5170   19.2840   29.5550 N   0  0  0  0  0  0  0  0  0  0  0  0
   36.5040   20.2980   30.4580 C   0  0  0  0  0  0  0  0  0  0  0  0
   35.5330   20.8620   31.2850 C   0  0  0  0  0  3  0  0  0  0  0  0
   39.5810   20.2300   29.3660 H   0  0  0  0  0  0  0  0  0  0  0  0
   36.8950   27.2020   32.9190 C   0  0  0  0  0  0  0  0  0  0  0  0
   37.1090   27.5320   31.5940 C   0  0  0  0  0  0  0  0  0  0  0  0
   36.6860   28.7960   31.2590 C   0  0  0  0  0  0  0  0  0  0  0  0
   36.1020   29.6540   32.1570 C   0  0  0  0  0  0  0  0  0  0  0  0
   35.9300   29.2440   33.4490 C   0  0  0  0  0  0  0  0  0  0  0  0
   36.3300   28.0130   33.8200 N   0  0  0  0  0  0  0  0  0  0  0  0
   37.5730   26.8190   30.9250 H   0  0  0  0  0  0  0  0  0  0  0  0
   36.8340   29.1050   30.2150 H   0  0  0  0  0  0  0  0  0  0  0  0
   35.8190   30.6220   31.7740 H   0  0  0  0  0  0  0  0  0  0  0  0
   32.9050   29.2620   33.5450 Cl  0  0  0  0  0  0  0  0  0  0  0  0
   33.9540   30.1930   34.5680 C   0  0  0  0  0  0  0  0  0  0  0  0
   35.3140   30.1100   34.4400 C   0  0  0  0  0  0  0  0  0  0  0  0
   36.0190   30.9110   35.3270 C   0  0  0  0  0  0  0  0  0  0  0  0
   35.4560   31.7260   36.2640 C   0  0  0  0  0  0  0  0  0  0  0  0
   34.0840   31.7810   36.3610 C   0  0  0  0  0  0  0  0  0  0  0  0
   33.3290   32.8130   37.5500 Cl  0  0  0  0  0  0  0  0  0  0  0  0
   33.3440   31.0080   35.5060 C   0  0  0  0  0  0  0  0  0  0  0  0
   37.1110   30.8920   35.2760 H   0  0  0  0  0  0  0  0  0  0  0  0
   36.0320   32.3400   36.9430 H   0  0  0  0  0  0  0  0  0  0  0  0
   32.2610   31.0580   35.5920 H   0  0  0  0  0  0  0  0  0  0  0  0
   38.9290   24.4640   36.3100 N   0  0  0  0  0  0  0  0  0  0  0  0
   38.2250   24.6570   37.0650 H   0  0  0  0  0  0  0  0  0  0  0  0
   39.9540   24.2530   36.4180 H   0  0  0  0  0  0  0  0  0  0  0  0
  1 40  1  0  0  0  0
  2  7  1  0  0  0  0
  2  1  2  0  0  0  0
  3  2  1  0  0  0  0
  4  3  2  0  0  0  0
  4  5  1  0  0  0  0
  5  6  2  0  0  0  0
  6  1  1  0  0  0  0
  8  9  1  0  0  0  0
  9  3  1  0  0  0  0
 10  9  2  0  0  0  0
 11 10  1  0  0  0  0
 12 10  1  0  0  0  0
 13 12  1  0  0  0  0
 14 16  2  0  0  0  0
 14 13  1  0  0  0  0
 15 14  1  0  0  0  0
 16 17  1  0  0  0  0
 17 12  2  0  0  0  0
 17 18  1  0  0  0  0
 18  8  2  0  0  0  0
 19 13  1  0  0  0  0
 20  5  1  0  0  0  0
 20 25  1  0  0  0  0
 21 20  2  0  0  0  0
 22 21  1  0  0  0  0
 22 23  2  0  0  0  0
 23 24  1  0  0  0  0
 24 25  2  0  0  0  0
 24 31  1  0  0  0  0
 26 21  1  0  0  0  0
 27 22  1  0  0  0  0
 28 23  1  0  0  0  0
 29 30  1  0  0  0  0
 30 36  1  0  0  0  0
 31 30  2  0  0  0  0
 31 32  1  0  0  0  0
 32 33  2  0  0  0  0
 33 34  1  0  0  0  0
 33 38  1  0  0  0  0
 34 35  1  0  0  0  0
 36 39  1  0  0  0  0
 36 34  2  0  0  0  0
 37 32  1  0  0  0  0
 40 42  1  0  0  0  0
 40 41  1  0  0  0  0
M  END
>  <minimizedAffinity>
-7.03507185

$$$$

 OpenBabel03262523173D

 42 46  0  0  0  0  0  0  0  0999 V2000
   36.3010   28.9120   31.2680 C   0  0  0  0  0  0  0  0  0  0  0  0
   35.7090   29.8140   32.1520 C   0  0  0  0  0  0  0  0  0  0  0  0
   35.6530   29.4660   33.4850 C   0  0  0  0  0  0  0  0  0  0  0  0
   36.1740   28.2750   33.8540 N   0  0  0  0  0  0  0  0  0  0  0  0
   36.7410   27.4120   32.9990 C   0  0  0  0  0  0  0  0  0  0  0  0
   36.7960   27.7550   31.6880 N   0  0  0  0  0  0  0  0  0  0  0  0
   35.3190   30.7330   31.7980 H   0  0  0  0  0  0  0  0  0  0  0  0
   35.9060   30.9820   35.3630 C   0  0  0  0  0  3  0  0  0  0  0  0
   35.0600   30.3220   34.5000 C   0  0  0  0  0  0  0  0  0  0  0  0
   33.7060   30.5010   34.6360 C   0  0  0  0  0  0  0  0  0  0  0  0
   33.0170   30.0050   33.9840 H   0  0  0  0  0  0  0  0  0  0  0  0
   33.2300   31.3430   35.6410 C   0  0  0  0  0  0  0  0  0  0  0  0
   31.9370   31.6420   35.9280 N   0  0  0  0  0  0  0  0  0  0  0  0
   32.0140   32.4870   36.9710 C   0  0  0  0  0  0  0  0  0  0  0  0
   31.2360   32.9730   37.5190 H   0  0  0  0  0  0  0  0  0  0  0  0
   33.2870   32.7200   37.3360 N   0  0  0  0  0  0  0  0  0  0  0  0
   34.0820   32.0010   36.5020 C   0  0  0  0  0  0  0  0  0  0  0  0
   35.4590   31.8250   36.3690 C   0  0  0  0  0  3  0  0  0  0  0  0
   31.0470   31.3350   35.4970 H   0  0  0  0  0  0  0  0  0  0  0  0
   37.2810   26.1390   33.4720 C   0  0  0  0  0  0  0  0  0  0  0  0
   37.9820   26.1170   34.6630 C   0  0  0  0  0  0  0  0  0  0  0  0
   38.4530   24.8730   35.0110 C   0  0  0  0  0  0  0  0  0  0  0  0
   38.2450   23.7520   34.2460 C   0  0  0  0  0  0  0  0  0  0  0  0
   37.5400   23.8670   33.0810 C   0  0  0  0  0  0  0  0  0  0  0  0
   37.0620   25.0670   32.7040 N   0  0  0  0  0  0  0  0  0  0  0  0
   38.1170   27.0280   35.2300 H   0  0  0  0  0  0  0  0  0  0  0  0
   39.0170   24.8040   35.9520 H   0  0  0  0  0  0  0  0  0  0  0  0
   38.6700   22.8360   34.6230 H   0  0  0  0  0  0  0  0  0  0  0  0
   39.6900   23.1590   31.0710 Cl  0  0  0  0  0  0  0  0  0  0  0  0
   38.1950   22.3040   31.2960 C   0  0  0  0  0  0  0  0  0  0  0  0
   37.2890   22.7120   32.2370 C   0  0  0  0  0  0  0  0  0  0  0  0
   36.1440   21.9290   32.3000 C   0  0  0  0  0  0  0  0  0  0  0  0
   35.8950   20.8400   31.5170 C   0  0  0  0  0  0  0  0  0  0  0  0
   36.8330   20.4640   30.5830 C   0  0  0  0  0  0  0  0  0  0  0  0
   36.5470   19.0750   29.5650 Cl  0  0  0  0  0  0  0  0  0  0  0  0
   37.9790   21.2050   30.4830 C   0  0  0  0  0  0  0  0  0  0  0  0
   35.3780   22.2020   33.0310 H   0  0  0  0  0  0  0  0  0  0  0  0
   34.9930   20.2500   31.5890 H   0  0  0  0  0  0  0  0  0  0  0  0
   38.7140   20.8980   29.7420 H   0  0  0  0  0  0  0  0  0  0  0  0
   36.4090   29.1830   29.8520 N   0  0  0  0  0  0  0  0  0  0  0  0
   35.7600   28.5550   29.3160 H   0  0  0  0  0  0  0  0  0  0  0  0
   37.0620   29.9150   29.4740 H   0  0  0  0  0  0  0  0  0  0  0  0
  1  6  2  0  0  0  0
  1  2  1  0  0  0  0
  2  3  2  0  0  0  0
  3  4  1  0  0  0  0
  3  9  1  0  0  0  0
  5 20  1  0  0  0  0
  5  4  2  0  0  0  0
  6  5  1  0  0  0  0
  7  2  1  0  0  0  0
  8 18  1  0  0  0  0
  9 10  1  0  0  0  0
  9  8  2  0  0  0  0
 10 12  2  0  0  0  0
 11 10  1  0  0  0  0
 12 13  1  0  0  0  0
 12 17  1  0  0  0  0
 13 14  1  0  0  0  0
 14 16  2  0  0  0  0
 14 15  1  0  0  0  0
 17 16  1  0  0  0  0
 18 17  2  0  0  0  0
 19 13  1  0  0  0  0
 20 21  1  0  0  0  0
 21 22  2  0  0  0  0
 21 26  1  0  0  0  0
 22 27  1  0  0  0  0
 23 28  1  0  0  0  0
 23 22  1  0  0  0  0
 24 23  2  0  0  0  0
 25 24  1  0  0  0  0
 25 20  2  0  0  0  0
 29 30  1  0  0  0  0
 30 31  1  0  0  0  0
 31 32  2  0  0  0  0
 31 24  1  0  0  0  0
 32 37  1  0  0  0  0
 33 38  1  0  0  0  0
 33 32  1  0  0  0  0
 34 33  2  0  0  0  0
 35 34  1  0  0  0  0
 36 34  1  0  0  0  0
 36 30  2  0  0  0  0
 39 36  1  0  0  0  0
 40  1  1  0  0  0  0
 41 40  1  0  0  0  0
 42 40  1  0  0  0  0
M  END
>  <minimizedAffinity>
-6.89883566

$$$$

 OpenBabel03262523173D

 42 46  0  0  0  0  0  0  0  0999 V2000
   36.5900   29.9600   30.6310 C   0  0  0  0  0  0  0  0  0  0  0  0
   35.8530   30.4970   31.6870 C   0  0  0  0  0  0  0  0  0  0  0  0
   35.8480   29.8120   32.8840 C   0  0  0  0  0  0  0  0  0  0  0  0
   36.5580   28.6640   32.9630 N   0  0  0  0  0  0  0  0  0  0  0  0
   37.2640   28.1530   31.9450 C   0  0  0  0  0  0  0  0  0  0  0  0
   37.2680   28.8270   30.7670 N   0  0  0  0  0  0  0  0  0  0  0  0
   35.3170   31.4010   31.5600 H   0  0  0  0  0  0  0  0  0  0  0  0
   35.7710   31.0970   34.9410 C   0  0  0  0  0  3  0  0  0  0  0  0
   35.1180   30.2720   34.0530 C   0  0  0  0  0  0  0  0  0  0  0  0
   33.8150   29.9240   34.3110 C   0  0  0  0  0  0  0  0  0  0  0  0
   33.2740   29.2840   33.6440 H   0  0  0  0  0  0  0  0  0  0  0  0
   33.1960   30.4150   35.4610 C   0  0  0  0  0  0  0  0  0  0  0  0
   31.9260   30.1830   35.8810 N   0  0  0  0  0  0  0  0  0  0  0  0
   31.8220   30.8760   37.0290 C   0  0  0  0  0  0  0  0  0  0  0  0
   30.9950   30.9780   37.6970 H   0  0  0  0  0  0  0  0  0  0  0  0
   32.9650   31.5190   37.3310 N   0  0  0  0  0  0  0  0  0  0  0  0
   33.8560   31.2400   36.3460 C   0  0  0  0  0  0  0  0  0  0  0  0
   35.1790   31.5980   36.0900 C   0  0  0  0  0  3  0  0  0  0  0  0
   31.1580   29.6200   35.4740 H   0  0  0  0  0  0  0  0  0  0  0  0
   38.0060   26.9030   32.1040 C   0  0  0  0  0  0  0  0  0  0  0  0
   39.3780   26.9620   32.2600 C   0  0  0  0  0  0  0  0  0  0  0  0
   39.9770   25.7320   32.3930 C   0  0  0  0  0  0  0  0  0  0  0  0
   39.2770   24.5510   32.3750 C   0  0  0  0  0  0  0  0  0  0  0  0
   37.9210   24.5880   32.2160 C   0  0  0  0  0  0  0  0  0  0  0  0
   37.2940   25.7710   32.0820 N   0  0  0  0  0  0  0  0  0  0  0  0
   39.8830   27.9180   32.2680 H   0  0  0  0  0  0  0  0  0  0  0  0
   41.0690   25.7260   32.5200 H   0  0  0  0  0  0  0  0  0  0  0  0
   39.8620   23.6510   32.4830 H   0  0  0  0  0  0  0  0  0  0  0  0
   38.0500   22.8400   34.6840 Cl  0  0  0  0  0  0  0  0  0  0  0  0
   37.1170   22.5080   33.2580 C   0  0  0  0  0  0  0  0  0  0  0  0
   37.1320   23.3680   32.1940 C   0  0  0  0  0  0  0  0  0  0  0  0
   36.3370   22.9690   31.1290 C   0  0  0  0  0  0  0  0  0  0  0  0
   35.5870   21.8290   31.0950 C   0  0  0  0  0  0  0  0  0  0  0  0
   35.6010   20.9910   32.1860 C   0  0  0  0  0  0  0  0  0  0  0  0
   34.6530   19.5240   32.1760 Cl  0  0  0  0  0  0  0  0  0  0  0  0
   36.3710   21.3420   33.2620 C   0  0  0  0  0  0  0  0  0  0  0  0
   36.3040   23.6120   30.2450 H   0  0  0  0  0  0  0  0  0  0  0  0
   34.9770   21.5430   30.2490 H   0  0  0  0  0  0  0  0  0  0  0  0
   36.3730   20.6730   34.1190 H   0  0  0  0  0  0  0  0  0  0  0  0
   36.6580   30.6000   29.3380 N   0  0  0  0  0  0  0  0  0  0  0  0
   36.1240   30.0370   28.6300 H   0  0  0  0  0  0  0  0  0  0  0  0
   37.1830   31.4990   29.1890 H   0  0  0  0  0  0  0  0  0  0  0  0
  1  6  2  0  0  0  0
  1  2  1  0  0  0  0
  2  3  2  0  0  0  0
  3  4  1  0  0  0  0
  3  9  1  0  0  0  0
  5 20  1  0  0  0  0
  5  4  2  0  0  0  0
  6  5  1  0  0  0  0
  7  2  1  0  0  0  0
  8 18  1  0  0  0  0
  9 10  1  0  0  0  0
  9  8  2  0  0  0  0
 10 12  2  0  0  0  0
 11 10  1  0  0  0  0
 12 13  1  0  0  0  0
 12 17  1  0  0  0  0
 13 14  1  0  0  0  0
 14 16  2  0  0  0  0
 14 15  1  0  0  0  0
 17 16  1  0  0  0  0
 18 17  2  0  0  0  0
 19 13  1  0  0  0  0
 20 21  1  0  0  0  0
 21 26  1  0  0  0  0
 21 22  2  0  0  0  0
 22 27  1  0  0  0  0
 23 22  1  0  0  0  0
 23 28  1  0  0  0  0
 24 23  2  0  0  0  0
 25 20  2  0  0  0  0
 25 24  1  0  0  0  0
 30 36  1  0  0  0  0
 30 29  1  0  0  0  0
 31 24  1  0  0  0  0
 31 30  2  0  0  0  0
 32 31  1  0  0  0  0
 33 32  2  0  0  0  0
 33 34  1  0  0  0  0
 34 36  2  0  0  0  0
 35 34  1  0  0  0  0
 36 39  1  0  0  0  0
 37 32  1  0  0  0  0
 38 33  1  0  0  0  0
 40  1  1  0  0  0  0
 41 40  1  0  0  0  0
 42 40  1  0  0  0  0
M  END
>  <minimizedAffinity>
-6.84632254

$$$$

 OpenBabel03262523173D

 42 46  0  0  0  0  0  0  0  0999 V2000
   36.7000   23.8110   32.0650 C   0  0  0  0  0  0  0  0  0  0  0  0
   37.8400   23.5010   32.8070 C   0  0  0  0  0  0  0  0  0  0  0  0
   38.5920   24.5470   33.3000 C   0  0  0  0  0  0  0  0  0  0  0  0
   38.1800   25.8070   33.0350 N   0  0  0  0  0  0  0  0  0  0  0  0
   37.0840   26.0990   32.3210 C   0  0  0  0  0  0  0  0  0  0  0  0
   36.3440   25.0690   31.8370 N   0  0  0  0  0  0  0  0  0  0  0  0
   38.1080   22.4920   32.9790 H   0  0  0  0  0  0  0  0  0  0  0  0
   39.9570   23.1460   34.7360 C   0  0  0  0  0  3  0  0  0  0  0  0
   39.7990   24.3490   34.0850 C   0  0  0  0  0  0  0  0  0  0  0  0
   40.7820   25.3000   34.2060 C   0  0  0  0  0  0  0  0  0  0  0  0
   40.6950   26.2470   33.7150 H   0  0  0  0  0  0  0  0  0  0  0  0
   41.9060   25.0190   34.9830 C   0  0  0  0  0  0  0  0  0  0  0  0
   42.9720   25.8250   35.2200 N   0  0  0  0  0  0  0  0  0  0  0  0
   43.7710   25.0960   36.0190 C   0  0  0  0  0  0  0  0  0  0  0  0
   44.7180   25.3390   36.4490 H   0  0  0  0  0  0  0  0  0  0  0  0
   43.2470   23.8860   36.2820 N   0  0  0  0  0  0  0  0  0  0  0  0
   42.0570   23.8120   35.6320 C   0  0  0  0  0  0  0  0  0  0  0  0
   41.0640   22.8420   35.5130 C   0  0  0  0  0  3  0  0  0  0  0  0
   43.1940   26.7850   34.9010 H   0  0  0  0  0  0  0  0  0  0  0  0
   36.7020   27.4880   32.0730 C   0  0  0  0  0  0  0  0  0  0  0  0
   36.9460   28.0300   30.8250 C   0  0  0  0  0  0  0  0  0  0  0  0
   36.5570   29.3420   30.7010 C   0  0  0  0  0  0  0  0  0  0  0  0
   35.9760   30.0520   31.7230 C   0  0  0  0  0  0  0  0  0  0  0  0
   35.7720   29.4350   32.9250 C   0  0  0  0  0  0  0  0  0  0  0  0
   36.1390   28.1500   33.0890 N   0  0  0  0  0  0  0  0  0  0  0  0
   37.4060   27.4290   30.0520 H   0  0  0  0  0  0  0  0  0  0  0  0
   36.7300   29.8180   29.7260 H   0  0  0  0  0  0  0  0  0  0  0  0
   35.7210   31.0760   31.5040 H   0  0  0  0  0  0  0  0  0  0  0  0
   32.7620   29.2320   33.1650 Cl  0  0  0  0  0  0  0  0  0  0  0  0
   33.8050   30.1110   34.2390 C   0  0  0  0  0  0  0  0  0  0  0  0
   35.1580   30.1380   34.0380 C   0  0  0  0  0  0  0  0  0  0  0  0
   35.8580   30.8790   34.9790 C   0  0  0  0  0  0  0  0  0  0  0  0
   35.2970   31.5410   36.0310 C   0  0  0  0  0  0  0  0  0  0  0  0
   33.9310   31.4890   36.1980 C   0  0  0  0  0  0  0  0  0  0  0  0
   33.1800   32.3240   37.5340 Cl  0  0  0  0  0  0  0  0  0  0  0  0
   33.1970   30.7690   35.2940 C   0  0  0  0  0  0  0  0  0  0  0  0
   36.9450   30.9420   34.8740 H   0  0  0  0  0  0  0  0  0  0  0  0
   35.8690   32.1120   36.7490 H   0  0  0  0  0  0  0  0  0  0  0  0
   32.1190   30.7340   35.4370 H   0  0  0  0  0  0  0  0  0  0  0  0
   35.8460   22.7890   31.5060 N   0  0  0  0  0  0  0  0  0  0  0  0
   35.9450   22.7700   30.4600 H   0  0  0  0  0  0  0  0  0  0  0  0
   35.2340   22.1830   32.1100 H   0  0  0  0  0  0  0  0  0  0  0  0
  1  2  1  0  0  0  0
  2  7  1  0  0  0  0
  2  3  2  0  0  0  0
  3  9  1  0  0  0  0
  4  3  1  0  0  0  0
  5  4  2  0  0  0  0
  6  1  2  0  0  0  0
  6  5  1  0  0  0  0
  8 18  1  0  0  0  0
  9 10  1  0  0  0  0
  9  8  2  0  0  0  0
 10 12  2  0  0  0  0
 11 10  1  0  0  0  0
 12 13  1  0  0  0  0
 12 17  1  0  0  0  0
 13 14  1  0  0  0  0
 14 16  2  0  0  0  0
 14 15  1  0  0  0  0
 17 16  1  0  0  0  0
 18 17  2  0  0  0  0
 19 13  1  0  0  0  0
 20  5  1  0  0  0  0
 20 25  1  0  0  0  0
 21 20  2  0  0  0  0
 22 21  1  0  0  0  0
 22 23  2  0  0  0  0
 23 24  1  0  0  0  0
 24 25  2  0  0  0  0
 24 31  1  0  0  0  0
 26 21  1  0  0  0  0
 27 22  1  0  0  0  0
 28 23  1  0  0  0  0
 29 30  1  0  0  0  0
 30 36  1  0  0  0  0
 31 30  2  0  0  0  0
 31 32  1  0  0  0  0
 32 33  2  0  0  0  0
 33 34  1  0  0  0  0
 33 38  1  0  0  0  0
 34 35  1  0  0  0  0
 36 39  1  0  0  0  0
 36 34  2  0  0  0  0
 37 32  1  0  0  0  0
 40  1  1  0  0  0  0
 40 42  1  0  0  0  0
 41 40  1  0  0  0  0
M  END
>  <minimizedAffinity>
-6.76724672

$$$$

 OpenBabel03262523173D

 42 46  0  0  0  0  0  0  0  0999 V2000
   38.5860   25.0920   30.5510 C   0  0  0  0  0  0  0  0  0  0  0  0
   38.8780   24.4570   31.7580 C   0  0  0  0  0  0  0  0  0  0  0  0
   38.4800   25.0740   32.9250 C   0  0  0  0  0  0  0  0  0  0  0  0
   37.8310   26.2560   32.8290 N   0  0  0  0  0  0  0  0  0  0  0  0
   37.5530   26.8630   31.6670 C   0  0  0  0  0  0  0  0  0  0  0  0
   37.9450   26.2540   30.5190 N   0  0  0  0  0  0  0  0  0  0  0  0
   39.3910   23.5300   31.7640 H   0  0  0  0  0  0  0  0  0  0  0  0
   39.6420   23.4840   34.3420 C   0  0  0  0  0  3  0  0  0  0  0  0
   38.7290   24.5100   34.2410 C   0  0  0  0  0  0  0  0  0  0  0  0
   38.0980   24.9480   35.3790 C   0  0  0  0  0  0  0  0  0  0  0  0
   37.3820   25.7430   35.3400 H   0  0  0  0  0  0  0  0  0  0  0  0
   38.4020   24.3440   36.5990 C   0  0  0  0  0  0  0  0  0  0  0  0
   37.8870   24.6370   37.8200 N   0  0  0  0  0  0  0  0  0  0  0  0
   38.4990   23.7800   38.6560 C   0  0  0  0  0  0  0  0  0  0  0  0
   38.3960   23.6590   39.7120 H   0  0  0  0  0  0  0  0  0  0  0  0
   39.3620   22.9770   38.0070 N   0  0  0  0  0  0  0  0  0  0  0  0
   39.3180   23.3180   36.6930 C   0  0  0  0  0  0  0  0  0  0  0  0
   39.9620   22.8670   35.5420 C   0  0  0  0  0  3  0  0  0  0  0  0
   37.1870   25.3380   38.1220 H   0  0  0  0  0  0  0  0  0  0  0  0
   36.8490   28.1430   31.6420 C   0  0  0  0  0  0  0  0  0  0  0  0
   37.2910   29.1270   30.7780 C   0  0  0  0  0  0  0  0  0  0  0  0
   36.5650   30.2930   30.8410 C   0  0  0  0  0  0  0  0  0  0  0  0
   35.4950   30.4650   31.6840 C   0  0  0  0  0  0  0  0  0  0  0  0
   35.1270   29.4370   32.5050 C   0  0  0  0  0  0  0  0  0  0  0  0
   35.8110   28.2780   32.4750 N   0  0  0  0  0  0  0  0  0  0  0  0
   38.1390   28.9420   30.1330 H   0  0  0  0  0  0  0  0  0  0  0  0
   36.8790   31.1060   30.1720 H   0  0  0  0  0  0  0  0  0  0  0  0
   35.0110   31.4270   31.6440 H   0  0  0  0  0  0  0  0  0  0  0  0
   35.6980   30.6520   35.2180 Cl  0  0  0  0  0  0  0  0  0  0  0  0
   34.1470   30.1010   34.6630 C   0  0  0  0  0  0  0  0  0  0  0  0
   34.0000   29.5640   33.4130 C   0  0  0  0  0  0  0  0  0  0  0  0
   32.7030   29.1720   33.1120 C   0  0  0  0  0  0  0  0  0  0  0  0
   31.6340   29.2890   33.9510 C   0  0  0  0  0  0  0  0  0  0  0  0
   31.8260   29.8340   35.2010 C   0  0  0  0  0  0  0  0  0  0  0  0
   30.4800   30.0000   36.3000 Cl  0  0  0  0  0  0  0  0  0  0  0  0
   33.0880   30.2370   35.5430 C   0  0  0  0  0  0  0  0  0  0  0  0
   32.5170   28.7330   32.1280 H   0  0  0  0  0  0  0  0  0  0  0  0
   30.6340   28.9730   33.6890 H   0  0  0  0  0  0  0  0  0  0  0  0
   33.2280   30.6680   36.5320 H   0  0  0  0  0  0  0  0  0  0  0  0
   38.9610   24.5280   29.2750 N   0  0  0  0  0  0  0  0  0  0  0  0
   39.7320   25.0960   28.8430 H   0  0  0  0  0  0  0  0  0  0  0  0
   38.4910   23.6710   28.8860 H   0  0  0  0  0  0  0  0  0  0  0  0
  1  2  1  0  0  0  0
  2  7  1  0  0  0  0
  2  3  2  0  0  0  0
  3  9  1  0  0  0  0
  4  3  1  0  0  0  0
  5  4  2  0  0  0  0
  6  1  2  0  0  0  0
  6  5  1  0  0  0  0
  8 18  1  0  0  0  0
  9  8  2  0  0  0  0
  9 10  1  0  0  0  0
 10 12  2  0  0  0  0
 11 10  1  0  0  0  0
 12 17  1  0  0  0  0
 12 13  1  0  0  0  0
 13 19  1  0  0  0  0
 13 14  1  0  0  0  0
 14 15  1  0  0  0  0
 16 14  2  0  0  0  0
 17 16  1  0  0  0  0
 18 17  2  0  0  0  0
 20  5  1  0  0  0  0
 20 25  1  0  0  0  0
 21 22  1  0  0  0  0
 21 20  2  0  0  0  0
 22 23  2  0  0  0  0
 23 24  1  0  0  0  0
 24 31  1  0  0  0  0
 25 24  2  0  0  0  0
 26 21  1  0  0  0  0
 27 22  1  0  0  0  0
 28 23  1  0  0  0  0
 30 29  1  0  0  0  0
 30 36  1  0  0  0  0
 31 30  2  0  0  0  0
 32 31  1  0  0  0  0
 32 33  2  0  0  0  0
 33 34  1  0  0  0  0
 34 36  2  0  0  0  0
 34 35  1  0  0  0  0
 36 39  1  0  0  0  0
 37 32  1  0  0  0  0
 38 33  1  0  0  0  0
 40  1  1  0  0  0  0
 41 40  1  0  0  0  0
 42 40  1  0  0  0  0
M  END
>  <minimizedAffinity>
-6.75491714

$$$$
