
 OpenBabel03272509043D

 36 39  0  0  0  0  0  0  0  0999 V2000
   37.4280   30.2740   51.3300 C   0  0  0  0  0  0  0  0  0  0  0  0
   38.0700   30.8030   50.1920 C   0  0  0  0  0  0  0  0  0  0  0  0
   37.5690   30.4800   48.9150 C   0  0  0  0  0  0  0  0  0  0  0  0
   36.4740   29.6620   48.8970 N   0  0  0  0  0  0  0  0  0  0  0  0
   35.8930   29.1800   49.9890 C   0  0  0  0  0  0  0  0  0  0  0  0
   36.3600   29.4780   51.2130 N   0  0  0  0  0  0  0  0  0  0  0  0
   37.8350   30.5400   52.2810 H   0  0  0  0  0  0  0  0  0  0  0  0
   38.9130   31.4310   50.2800 H   0  0  0  0  0  0  0  0  0  0  0  0
   38.1800   30.2730   46.5050 C   0  0  0  0  0  3  0  0  0  0  0  0
   38.1620   30.9770   47.6830 C   0  0  0  0  0  0  0  0  0  0  0  0
   38.7390   32.2280   47.7070 C   0  0  0  0  0  0  0  0  0  0  0  0
   38.7800   32.8630   48.5740 H   0  0  0  0  0  0  0  0  0  0  0  0
   39.3100   32.7130   46.5290 C   0  0  0  0  0  0  0  0  0  0  0  0
   39.9380   33.8640   46.2220 N   0  0  0  0  0  0  0  0  0  0  0  0
   40.3170   33.8550   44.9200 C   0  0  0  0  0  0  0  0  0  0  0  0
   40.8350   34.5920   44.3240 H   0  0  0  0  0  0  0  0  0  0  0  0
   39.9300   32.6920   44.3870 N   0  0  0  0  0  0  0  0  0  0  0  0
   39.3160   31.9780   45.3460 C   0  0  0  0  0  0  0  0  0  0  0  0
   38.7260   30.7100   45.3400 C   0  0  0  0  0  3  0  0  0  0  0  0
   40.1200   34.6620   46.8690 H   0  0  0  0  0  0  0  0  0  0  0  0
   34.7570   28.3260   49.7640 C   0  0  0  0  0  3  0  0  0  0  0  0
   34.3720   28.0620   48.5660 C   0  0  0  0  0  3  0  0  0  0  0  0
   33.2630   27.2210   48.1020 C   0  0  0  0  0  0  0  0  0  0  0  0
   32.8400   26.7050   48.9910 H   0  0  0  0  0  0  0  0  0  0  0  0
   32.4370   27.8100   47.6550 H   0  0  0  0  0  0  0  0  0  0  0  0
   33.6770   26.1960   47.0910 C   0  0  0  0  0  0  0  0  0  0  0  0
   33.8840   24.8530   47.3540 C   0  0  0  0  0  0  0  0  0  0  0  0
   34.2630   24.0060   46.3210 C   0  0  0  0  0  0  0  0  0  0  0  0
   34.4400   24.4920   45.0140 C   0  0  0  0  0  0  0  0  0  0  0  0
   34.2360   25.8200   44.7620 C   0  0  0  0  0  0  0  0  0  0  0  0
   33.8590   26.6550   45.7900 C   0  0  0  0  0  0  0  0  0  0  0  0
   33.7350   24.5290   48.3700 H   0  0  0  0  0  0  0  0  0  0  0  0
   34.4060   22.9650   46.6040 H   0  0  0  0  0  0  0  0  0  0  0  0
   34.7390   23.7750   44.2500 H   0  0  0  0  0  0  0  0  0  0  0  0
   34.3880   26.1350   43.7400 H   0  0  0  0  0  0  0  0  0  0  0  0
   33.7050   27.7000   45.5550 H   0  0  0  0  0  0  0  0  0  0  0  0
  1  7  1  0  0  0  0
  2  8  1  0  0  0  0
  2  1  2  0  0  0  0
  3  2  1  0  0  0  0
  4  3  2  0  0  0  0
  4  5  1  0  0  0  0
  5  6  2  0  0  0  0
  6  1  1  0  0  0  0
  9 10  1  0  0  0  0
 10 11  2  0  0  0  0
 10  3  1  0  0  0  0
 11 12  1  0  0  0  0
 13 11  1  0  0  0  0
 14 13  1  0  0  0  0
 14 20  1  0  0  0  0
 15 14  1  0  0  0  0
 16 15  1  0  0  0  0
 17 15  2  0  0  0  0
 17 18  1  0  0  0  0
 18 13  2  0  0  0  0
 19 18  1  0  0  0  0
 19  9  2  0  0  0  0
 21  5  1  0  0  0  0
 22 21  2  0  0  0  0
 23 22  1  0  0  0  0
 23 24  1  0  0  0  0
 25 23  1  0  0  0  0
 26 27  1  0  0  0  0
 26 23  1  0  0  0  0
 27 32  1  0  0  0  0
 28 33  1  0  0  0  0
 28 27  2  0  0  0  0
 29 28  1  0  0  0  0
 30 29  2  0  0  0  0
 30 31  1  0  0  0  0
 31 26  2  0  0  0  0
 34 29  1  0  0  0  0
 35 30  1  0  0  0  0
 36 31  1  0  0  0  0
M  END
>  <minimizedAffinity>
-6.93373871

>  <minimizedRMSD>
0.508985221

$$$$
