
 OpenBabel03272509213D

 49 54  0  0  0  0  0  0  0  0999 V2000
   40.1030   30.9710   44.2060 C   0  0  0  0  0  0  0  0  0  0  0  0
   39.5330   31.7800   45.1780 C   0  0  0  0  0  0  0  0  0  0  0  0
   38.4130   32.5210   44.8410 C   0  0  0  0  0  0  0  0  0  0  0  0
   37.8560   32.4680   43.5600 C   0  0  0  0  0  0  0  0  0  0  0  0
   36.8070   33.0480   42.9450 N   0  0  0  0  0  0  0  0  0  0  0  0
   36.7220   32.6300   41.6700 C   0  0  0  0  0  0  0  0  0  0  0  0
   37.7510   31.7570   41.4690 N   0  0  0  0  0  0  0  0  0  0  0  0
   38.4520   31.6510   42.6260 C   0  0  0  0  0  0  0  0  0  0  0  0
   39.5630   30.9110   42.9430 C   0  0  0  0  0  0  0  0  0  0  0  0
   40.9680   30.4350   44.5630 H   0  0  0  0  0  0  0  0  0  0  0  0
   37.8590   33.1970   45.4930 H   0  0  0  0  0  0  0  0  0  0  0  0
   36.1520   33.7250   43.3940 H   0  0  0  0  0  0  0  0  0  0  0  0
   35.9800   32.9330   40.9510 H   0  0  0  0  0  0  0  0  0  0  0  0
   40.0730   28.6860   41.8860 C   0  0  0  0  0  3  0  0  0  0  0  0
   40.2150   30.0370   41.9700 C   0  0  0  0  0  0  0  0  0  0  0  0
   41.0420   30.6830   41.0740 C   0  0  0  0  0  0  0  0  0  0  0  0
   41.2070   31.7690   41.0780 H   0  0  0  0  0  0  0  0  0  0  0  0
   41.7080   29.9450   40.1100 C   0  0  0  0  0  0  0  0  0  0  0  0
   42.5580   30.3010   39.1300 N   0  0  0  0  0  0  0  0  0  0  0  0
   42.9370   29.1850   38.4480 C   0  0  0  0  0  0  0  0  0  0  0  0
   43.6040   29.0720   37.6020 H   0  0  0  0  0  0  0  0  0  0  0  0
   42.3230   28.0930   38.9950 N   0  0  0  0  0  0  0  0  0  0  0  0
   41.5720   28.5580   40.0100 C   0  0  0  0  0  0  0  0  0  0  0  0
   40.7290   27.9290   40.9300 C   0  0  0  0  0  3  0  0  0  0  0  0
   42.8970   31.2720   38.8980 H   0  0  0  0  0  0  0  0  0  0  0  0
   39.8990   31.9880   46.4750 O   0  0  0  0  0  0  0  0  0  0  0  0
   38.0970   31.3900   47.9800 C   0  0  0  0  0  0  0  0  0  0  0  0
   37.2410   31.5940   49.0490 C   0  0  0  0  0  0  0  0  0  0  0  0
   37.4380   32.8050   49.7200 C   0  0  0  0  0  0  0  0  0  0  0  0
   38.4220   33.7190   49.3270 C   0  0  0  0  0  0  0  0  0  0  0  0
   39.2450   33.4140   48.2200 C   0  0  0  0  0  0  0  0  0  0  0  0
   39.0590   32.2120   47.5420 C   0  0  0  0  0  0  0  0  0  0  0  0
   36.7900   33.0120   50.5670 H   0  0  0  0  0  0  0  0  0  0  0  0
   38.5480   34.6420   49.8660 H   0  0  0  0  0  0  0  0  0  0  0  0
   39.9980   34.1240   47.9260 H   0  0  0  0  0  0  0  0  0  0  0  0
   35.1130   30.4650   48.6650 C   0  0  0  0  0  0  0  0  0  0  0  0
   36.2370   30.6690   49.4540 C   0  0  0  0  0  0  0  0  0  0  0  0
   36.3300   29.9310   50.6470 C   0  0  0  0  0  0  0  0  0  0  0  0
   35.3300   29.0690   50.9630 N   0  0  0  0  0  0  0  0  0  0  0  0
   34.2480   28.9060   50.1540 C   0  0  0  0  0  0  0  0  0  0  0  0
   34.1490   29.6010   49.0180 N   0  0  0  0  0  0  0  0  0  0  0  0
   34.9450   30.9800   47.7310 H   0  0  0  0  0  0  0  0  0  0  0  0
   33.5700   28.1720   50.5900 H   0  0  0  0  0  0  0  0  0  0  0  0
   37.5110   30.1070   51.5350 C   0  0  0  0  0  0  0  0  0  0  0  0
   38.3560   29.4680   51.2110 H   0  0  0  0  0  0  0  0  0  0  0  0
   37.2380   29.8270   52.5750 H   0  0  0  0  0  0  0  0  0  0  0  0
   37.7570   31.1780   51.5620 H   0  0  0  0  0  0  0  0  0  0  0  0
   37.9760   30.2070   47.2470 O   0  0  0  0  0  0  0  0  0  0  0  0
   38.7560   29.5910   47.2440 H   0  0  0  0  0  0  0  0  0  0  0  0
  1 10  1  0  0  0  0
  1  2  1  0  0  0  0
  2 26  1  0  0  0  0
  3  2  2  0  0  0  0
  3 11  1  0  0  0  0
  4  3  1  0  0  0  0
  5 12  1  0  0  0  0
  5  4  1  0  0  0  0
  6  5  1  0  0  0  0
  7  6  2  0  0  0  0
  7  8  1  0  0  0  0
  8  9  1  0  0  0  0
  8  4  2  0  0  0  0
  9  1  2  0  0  0  0
 13  6  1  0  0  0  0
 14 15  1  0  0  0  0
 15  9  1  0  0  0  0
 16 17  1  0  0  0  0
 16 15  2  0  0  0  0
 18 16  1  0  0  0  0
 19 18  1  0  0  0  0
 20 22  2  0  0  0  0
 20 19  1  0  0  0  0
 21 20  1  0  0  0  0
 22 23  1  0  0  0  0
 23 18  2  0  0  0  0
 23 24  1  0  0  0  0
 24 14  2  0  0  0  0
 25 19  1  0  0  0  0
 26 32  1  0  0  0  0
 27 28  1  0  0  0  0
 28 37  1  0  0  0  0
 28 29  2  0  0  0  0
 29 33  1  0  0  0  0
 30 29  1  0  0  0  0
 30 34  1  0  0  0  0
 31 30  2  0  0  0  0
 32 27  2  0  0  0  0
 32 31  1  0  0  0  0
 35 31  1  0  0  0  0
 36 41  2  0  0  0  0
 36 37  1  0  0  0  0
 37 38  2  0  0  0  0
 38 39  1  0  0  0  0
 38 44  1  0  0  0  0
 40 43  1  0  0  0  0
 40 39  2  0  0  0  0
 41 40  1  0  0  0  0
 42 36  1  0  0  0  0
 44 47  1  0  0  0  0
 44 46  1  0  0  0  0
 45 44  1  0  0  0  0
 48 27  1  0  0  0  0
 49 48  1  0  0  0  0
M  END
>  <minimizedAffinity>
-8.02363968

>  <minimizedRMSD>
0.866125345

$$$$
