REMARK  Name = 
REMARK  2 active torsions:
REMARK  status: ('A' for Active; 'I' for Inactive)
REMARK    1  A    between atoms: C_2  and  C_9
REMARK    2  A    between atoms: C_13  and  C_21
REMARK                            x       y       z     vdW  Elec       q    Type
REMARK                         _______ _______ _______ _____ _____    ______ ____
ROOT
ATOM      1 CL   UNL     1      38.395  30.587  46.786  0.00  0.00    +0.000 Cl
ATOM      2  C   UNL     1      38.827  32.024  47.666  0.00  0.00    +0.000 A 
ATOM      3  C   UNL     1      38.337  32.188  48.935  0.00  0.00    +0.000 A 
ATOM      4  C   UNL     1      38.718  33.365  49.599  0.00  0.00    +0.000 A 
ATOM      5  C   UNL     1      39.543  34.281  48.966  0.00  0.00    +0.000 A 
ATOM      6  C   UNL     1      40.012  34.081  47.698  0.00  0.00    +0.000 A 
ATOM      7  C   UNL     1      39.640  32.924  47.043  0.00  0.00    +0.000 A 
ATOM      8  H   UNL     1      38.328  33.498  50.609  0.00  0.00    +0.000 HD
ATOM      9  H   UNL     1      39.782  35.152  49.551  0.00  0.00    +0.000 HD
ATOM     10  H   UNL     1      40.650  34.821  47.252  0.00  0.00    +0.000 HD
ENDROOT
BRANCH   7  12
ATOM     11  C   UNL     1      41.367  33.249  45.223  0.00  0.00    +0.000 A 
ATOM     12  C   UNL     1      40.165  32.755  45.691  0.00  0.00    +0.000 A 
ATOM     13  C   UNL     1      39.391  32.041  44.814  0.00  0.00    +0.000 A 
ATOM     14  H   UNL     1      38.437  31.625  45.116  0.00  0.00    +0.000 HD
ATOM     15  C   UNL     1      39.736  31.787  43.502  0.00  0.00    +0.000 A 
ATOM     16  N   UNL     1      39.159  31.127  42.465  0.00  0.00    +0.000 N 
ATOM     17  C   UNL     1      39.982  31.209  41.381  0.00  0.00    +0.000 A 
ATOM     18  H   UNL     1      39.709  30.744  40.438  0.00  0.00    +0.000 HD
ATOM     19  N   UNL     1      41.067  31.918  41.745  0.00  0.00    +0.000 NA
ATOM     20  C   UNL     1      40.956  32.293  43.038  0.00  0.00    +0.000 A 
ATOM     21  C   UNL     1      41.740  33.012  43.916  0.00  0.00    +0.000 A 
ATOM     22  H   UNL     1      38.221  30.651  42.560  0.00  0.00    +0.000 HD
ENDBRANCH   7  12
BRANCH   3  24
ATOM     23  C   UNL     1      37.935  30.430  50.662  0.00  0.00    +0.000 A 
ATOM     24  C   UNL     1      37.469  31.235  49.611  0.00  0.00    +0.000 A 
ATOM     25  C   UNL     1      36.131  31.085  49.235  0.00  0.00    +0.000 A 
ATOM     26  N   UNL     1      35.369  30.180  49.901  0.00  0.00    +0.000 NA
ATOM     27  C   UNL     1      35.847  29.427  50.901  0.00  0.00    +0.000 A 
ATOM     28  N   UNL     1      37.136  29.550  51.286  0.00  0.00    +0.000 NA
ATOM     29  H   UNL     1      38.965  30.511  50.988  0.00  0.00    +0.000 HD
ATOM     30  H   UNL     1      35.759  31.706  48.420  0.00  0.00    +0.000 HD
ATOM     31  H   UNL     1      35.090  28.774  51.299  0.00  0.00    +0.000 HD
ENDBRANCH   3  24
TORSDOF 2
