REMARK  Name = 
REMARK  4 active torsions:
REMARK  status: ('A' for Active; 'I' for Inactive)
REMARK    1  A    between atoms: C_1  and  O_12
REMARK    2  A    between atoms: C_2  and  C_8
REMARK    3  A    between atoms: O_12  and  C_15
REMARK    4  A    between atoms: C_19  and  C_33
REMARK                            x       y       z     vdW  Elec       q    Type
REMARK                         _______ _______ _______ _____ _____    ______ ____
ROOT
ATOM      1 CL   UNL     1      40.950  31.250  45.381  0.00  0.00    +0.000 Cl
ATOM      2  C   UNL     1      39.365  30.685  44.906  0.00  0.00    +0.000 A 
ATOM      3  C   UNL     1      38.322  31.243  45.634  0.00  0.00    +0.000 A 
ATOM      4  C   UNL     1      37.063  30.808  45.264  0.00  0.00    +0.000 A 
ATOM      5  C   UNL     1      36.867  29.891  44.248  0.00  0.00    +0.000 A 
ATOM      6  C   UNL     1      37.937  29.378  43.567  0.00  0.00    +0.000 A 
ATOM      7  C   UNL     1      39.201  29.779  43.899  0.00  0.00    +0.000 A 
ATOM      8  H   UNL     1      36.135  31.128  45.714  0.00  0.00    +0.000 HD
ATOM      9  H   UNL     1      35.896  29.532  43.936  0.00  0.00    +0.000 HD
ATOM     10  H   UNL     1      37.805  28.660  42.771  0.00  0.00    +0.000 HD
ENDROOT
BRANCH   7  12
ATOM     11  C   UNL     1      41.587  28.815  43.715  0.00  0.00    +0.000 A 
ATOM     12  C   UNL     1      40.385  29.268  43.212  0.00  0.00    +0.000 A 
ATOM     13  C   UNL     1      40.184  29.273  41.828  0.00  0.00    +0.000 A 
ATOM     14  H   UNL     1      39.293  29.600  41.298  0.00  0.00    +0.000 HD
ATOM     15  C   UNL     1      41.162  28.835  40.952  0.00  0.00    +0.000 A 
ATOM     16  N   UNL     1      41.301  28.707  39.619  0.00  0.00    +0.000 N 
ATOM     17  C   UNL     1      42.527  28.202  39.319  0.00  0.00    +0.000 A 
ATOM     18  H   UNL     1      42.908  27.996  38.324  0.00  0.00    +0.000 HD
ATOM     19  N   UNL     1      43.174  28.005  40.462  0.00  0.00    +0.000 NA
ATOM     20  C   UNL     1      42.365  28.384  41.481  0.00  0.00    +0.000 A 
ATOM     21  C   UNL     1      42.557  28.380  42.840  0.00  0.00    +0.000 A 
ATOM     22  H   UNL     1      40.562  28.965  38.925  0.00  0.00    +0.000 HD
ENDBRANCH   7  12
BRANCH   3  23
ATOM     23  O   UNL     1      38.281  32.136  46.645  0.00  0.00    +0.000 OA
BRANCH  23  24
ATOM     24  C   UNL     1      38.956  32.371  47.794  0.00  0.00    +0.000 C 
ATOM     25  C   UNL     1      38.002  32.746  48.975  0.00  0.00    +0.000 C 
ATOM     26  C   UNL     1      38.889  33.551  49.797  0.00  0.00    +0.000 C 
ATOM     27  O   UNL     1      39.732  34.270  48.959  0.00  0.00    +0.000 OA
ATOM     28  C   UNL     1      39.620  33.775  47.697  0.00  0.00    +0.000 C 
ATOM     29  H   UNL     1      39.699  31.667  48.154  0.00  0.00    +0.000 HD
ATOM     30  H   UNL     1      37.188  33.392  48.531  0.00  0.00    +0.000 HD
ATOM     31  H   UNL     1      38.283  34.300  50.373  0.00  0.00    +0.000 HD
ATOM     32  H   UNL     1      39.510  33.044  50.531  0.00  0.00    +0.000 HD
ATOM     33  H   UNL     1      39.033  34.426  47.032  0.00  0.00    +0.000 HD
ATOM     34  H   UNL     1      40.615  33.620  47.234  0.00  0.00    +0.000 HD
BRANCH  25  37
ATOM     35  C   UNL     1      37.366  29.697  51.084  0.00  0.00    +0.000 A 
ATOM     36  C   UNL     1      38.037  30.837  50.563  0.00  0.00    +0.000 A 
ATOM     37  C   UNL     1      37.369  31.590  49.552  0.00  0.00    +0.000 A 
ATOM     38  N   UNL     1      36.122  31.185  49.132  0.00  0.00    +0.000 NA
ATOM     39  C   UNL     1      35.534  30.104  49.656  0.00  0.00    +0.000 A 
ATOM     40  N   UNL     1      36.132  29.356  50.621  0.00  0.00    +0.000 NA
ATOM     41  H   UNL     1      37.894  29.149  51.846  0.00  0.00    +0.000 HD
ATOM     42  H   UNL     1      39.017  31.110  50.929  0.00  0.00    +0.000 HD
ATOM     43  H   UNL     1      34.554  29.808  49.308  0.00  0.00    +0.000 HD
ENDBRANCH  25  37
ENDBRANCH  23  24
ENDBRANCH   3  23
TORSDOF 4
