
 OpenBabel03262520183D

 21 23  0  0  0  0  0  0  0  0999 V2000
   37.8730   26.7570   35.7120 C   0  0  0  0  0  3  0  0  0  0  0  0
   38.0610   25.4650   35.2690 C   0  0  0  0  0  0  0  0  0  0  0  0
   37.6870   25.1090   33.9920 C   0  0  0  0  0  0  0  0  0  0  0  0
   37.8250   24.1220   33.6340 H   0  0  0  0  0  0  0  0  0  0  0  0
   37.1230   26.0930   33.1860 C   0  0  0  0  0  0  0  0  0  0  0  0
   36.6810   25.9760   31.9000 N   0  0  0  0  0  0  0  0  0  0  0  0
   36.2170   27.1860   31.5330 C   0  0  0  0  0  0  0  0  0  0  0  0
   35.7910   27.4300   30.5560 H   0  0  0  0  0  0  0  0  0  0  0  0
   36.3510   28.0600   32.5420 N   0  0  0  0  0  0  0  0  0  0  0  0
   36.9140   27.4070   33.5890 C   0  0  0  0  0  0  0  0  0  0  0  0
   37.3030   27.7320   34.8850 C   0  0  0  0  0  3  0  0  0  0  0  0
   36.6890   25.1380   31.3030 H   0  0  0  0  0  0  0  0  0  0  0  0
   38.8110   23.3410   38.2920 C   0  0  0  0  0  0  0  0  0  0  0  0
   38.1520   24.2660   37.4740 C   0  0  0  0  0  0  0  0  0  0  0  0
   38.6620   24.5240   36.2060 C   0  0  0  0  0  0  0  0  0  0  0  0
   39.7810   23.8650   35.8150 N   0  0  0  0  0  0  0  0  0  0  0  0
   40.4070   22.9670   36.6290 C   0  0  0  0  0  0  0  0  0  0  0  0
   39.9240   22.7120   37.8520 N   0  0  0  0  0  0  0  0  0  0  0  0
   38.4480   23.1110   39.2860 H   0  0  0  0  0  0  0  0  0  0  0  0
   37.2850   24.7680   37.7960 H   0  0  0  0  0  0  0  0  0  0  0  0
   41.2970   22.4700   36.2650 H   0  0  0  0  0  0  0  0  0  0  0  0
  2  1  1  0  0  0  0
  2 15  1  0  0  0  0
  3  2  2  0  0  0  0
  4  3  1  0  0  0  0
  5 10  2  0  0  0  0
  5  3  1  0  0  0  0
  6  5  1  0  0  0  0
  7  6  1  0  0  0  0
  7  9  2  0  0  0  0
  8  7  1  0  0  0  0
  9 10  1  0  0  0  0
 10 11  1  0  0  0  0
 11  1  2  0  0  0  0
 12  6  1  0  0  0  0
 13 19  1  0  0  0  0
 14 20  1  0  0  0  0
 14 13  2  0  0  0  0
 15 14  1  0  0  0  0
 16 15  2  0  0  0  0
 16 17  1  0  0  0  0
 17 18  2  0  0  0  0
 18 13  1  0  0  0  0
 21 17  1  0  0  0  0
M  END
>  <minimizedAffinity>
-4.66896486

$$$$

 OpenBabel03262520183D

 21 23  0  0  0  0  0  0  0  0999 V2000
   38.1140   24.4340   36.8530 C   0  0  0  0  0  3  0  0  0  0  0  0
   38.6250   24.7590   35.6140 C   0  0  0  0  0  0  0  0  0  0  0  0
   39.7690   24.1460   35.1540 C   0  0  0  0  0  0  0  0  0  0  0  0
   40.1750   24.3830   34.2050 H   0  0  0  0  0  0  0  0  0  0  0  0
   40.3730   23.2020   35.9790 C   0  0  0  0  0  0  0  0  0  0  0  0
   41.5010   22.4730   35.7380 N   0  0  0  0  0  0  0  0  0  0  0  0
   41.7030   21.6920   36.8170 C   0  0  0  0  0  0  0  0  0  0  0  0
   42.5270   20.9860   36.9410 H   0  0  0  0  0  0  0  0  0  0  0  0
   40.7410   21.9040   37.7290 N   0  0  0  0  0  0  0  0  0  0  0  0
   39.8950   22.8430   37.2340 C   0  0  0  0  0  0  0  0  0  0  0  0
   38.7370   23.4820   37.6680 C   0  0  0  0  0  3  0  0  0  0  0  0
   42.1010   22.4950   34.9020 H   0  0  0  0  0  0  0  0  0  0  0  0
   36.8480   27.8960   34.5140 C   0  0  0  0  0  0  0  0  0  0  0  0
   37.5400   27.0080   35.3450 C   0  0  0  0  0  0  0  0  0  0  0  0
   37.9030   25.7630   34.8430 C   0  0  0  0  0  0  0  0  0  0  0  0
   37.5680   25.4620   33.5630 N   0  0  0  0  0  0  0  0  0  0  0  0
   36.8930   26.3430   32.7710 C   0  0  0  0  0  0  0  0  0  0  0  0
   36.5390   27.5440   33.2450 N   0  0  0  0  0  0  0  0  0  0  0  0
   36.5450   28.8750   34.8650 H   0  0  0  0  0  0  0  0  0  0  0  0
   37.7900   27.2610   36.3350 H   0  0  0  0  0  0  0  0  0  0  0  0
   36.6520   26.0490   31.7580 H   0  0  0  0  0  0  0  0  0  0  0  0
  1 11  1  0  0  0  0
  2  1  2  0  0  0  0
  3  2  1  0  0  0  0
  3  5  2  0  0  0  0
  4  3  1  0  0  0  0
  5 10  1  0  0  0  0
  6  5  1  0  0  0  0
  6  7  1  0  0  0  0
  7  8  1  0  0  0  0
  7  9  2  0  0  0  0
 10 11  2  0  0  0  0
 10  9  1  0  0  0  0
 12  6  1  0  0  0  0
 13 19  1  0  0  0  0
 13 14  1  0  0  0  0
 14 20  1  0  0  0  0
 15 14  2  0  0  0  0
 15  2  1  0  0  0  0
 16 15  1  0  0  0  0
 17 18  1  0  0  0  0
 17 16  2  0  0  0  0
 18 13  2  0  0  0  0
 21 17  1  0  0  0  0
M  END
>  <minimizedAffinity>
-4.47546291

$$$$

 OpenBabel03262520183D

 21 23  0  0  0  0  0  0  0  0999 V2000
   36.2460   28.5880   34.2130 C   0  0  0  0  0  3  0  0  0  0  0  0
   35.5740   29.7470   33.8860 C   0  0  0  0  0  0  0  0  0  0  0  0
   35.4960   30.1570   32.5740 C   0  0  0  0  0  0  0  0  0  0  0  0
   34.9840   31.0440   32.3050 H   0  0  0  0  0  0  0  0  0  0  0  0
   36.1140   29.3650   31.6120 C   0  0  0  0  0  0  0  0  0  0  0  0
   36.1680   29.5670   30.2630 N   0  0  0  0  0  0  0  0  0  0  0  0
   36.8710   28.5430   29.7400 C   0  0  0  0  0  0  0  0  0  0  0  0
   37.0960   28.4080   28.6790 H   0  0  0  0  0  0  0  0  0  0  0  0
   37.2600   27.7040   30.7110 N   0  0  0  0  0  0  0  0  0  0  0  0
   36.8030   28.1900   31.8930 C   0  0  0  0  0  0  0  0  0  0  0  0
   36.8610   27.8050   33.2290 C   0  0  0  0  0  3  0  0  0  0  0  0
   35.7610   30.3430   29.7240 H   0  0  0  0  0  0  0  0  0  0  0  0
   34.9850   32.0380   36.8220 C   0  0  0  0  0  0  0  0  0  0  0  0
   35.6700   31.3740   35.7970 C   0  0  0  0  0  0  0  0  0  0  0  0
   34.9670   30.4920   34.9820 C   0  0  0  0  0  0  0  0  0  0  0  0
   33.6440   30.3130   35.2180 N   0  0  0  0  0  0  0  0  0  0  0  0
   32.9970   30.9710   36.2220 C   0  0  0  0  0  0  0  0  0  0  0  0
   33.6640   31.8210   37.0120 N   0  0  0  0  0  0  0  0  0  0  0  0
   35.4930   32.7320   37.4800 H   0  0  0  0  0  0  0  0  0  0  0  0
   36.6970   31.5270   35.6310 H   0  0  0  0  0  0  0  0  0  0  0  0
   31.9390   30.7890   36.3640 H   0  0  0  0  0  0  0  0  0  0  0  0
  2  1  1  0  0  0  0
  2 15  1  0  0  0  0
  3  2  2  0  0  0  0
  4  3  1  0  0  0  0
  5 10  2  0  0  0  0
  5  3  1  0  0  0  0
  6  5  1  0  0  0  0
  7  6  1  0  0  0  0
  7  9  2  0  0  0  0
  8  7  1  0  0  0  0
  9 10  1  0  0  0  0
 10 11  1  0  0  0  0
 11  1  2  0  0  0  0
 12  6  1  0  0  0  0
 13 18  1  0  0  0  0
 13 19  1  0  0  0  0
 14 13  2  0  0  0  0
 15 16  2  0  0  0  0
 15 14  1  0  0  0  0
 16 17  1  0  0  0  0
 17 21  1  0  0  0  0
 17 18  2  0  0  0  0
 20 14  1  0  0  0  0
M  END
>  <minimizedAffinity>
-4.47332573

$$$$

 OpenBabel03262520183D

 21 23  0  0  0  0  0  0  0  0999 V2000
   37.9430   24.9140   33.7580 C   0  0  0  0  0  3  0  0  0  0  0  0
   37.9640   25.3690   35.0600 C   0  0  0  0  0  0  0  0  0  0  0  0
   37.4340   26.6020   35.3720 C   0  0  0  0  0  0  0  0  0  0  0  0
   37.4410   26.9670   36.3650 H   0  0  0  0  0  0  0  0  0  0  0  0
   36.8880   27.3510   34.3350 C   0  0  0  0  0  0  0  0  0  0  0  0
   36.3120   28.5870   34.4020 N   0  0  0  0  0  0  0  0  0  0  0  0
   35.9290   28.9110   33.1510 C   0  0  0  0  0  0  0  0  0  0  0  0
   35.4340   29.8410   32.8630 H   0  0  0  0  0  0  0  0  0  0  0  0
   36.2440   27.9230   32.3000 N   0  0  0  0  0  0  0  0  0  0  0  0
   36.8440   26.9340   33.0090 C   0  0  0  0  0  0  0  0  0  0  0  0
   37.3880   25.6840   32.7300 C   0  0  0  0  0  3  0  0  0  0  0  0
   36.1820   29.1790   35.2340 H   0  0  0  0  0  0  0  0  0  0  0  0
   40.1980   22.9280   36.8640 C   0  0  0  0  0  0  0  0  0  0  0  0
   39.7080   23.7360   35.8320 C   0  0  0  0  0  0  0  0  0  0  0  0
   38.5630   24.4930   36.0580 C   0  0  0  0  0  0  0  0  0  0  0  0
   37.9690   24.4140   37.2750 N   0  0  0  0  0  0  0  0  0  0  0  0
   38.4650   23.6200   38.2660 C   0  0  0  0  0  0  0  0  0  0  0  0
   39.5650   22.8870   38.0590 N   0  0  0  0  0  0  0  0  0  0  0  0
   41.0860   22.3210   36.7310 H   0  0  0  0  0  0  0  0  0  0  0  0
   40.1840   23.7820   34.8950 H   0  0  0  0  0  0  0  0  0  0  0  0
   37.9490   23.5970   39.2180 H   0  0  0  0  0  0  0  0  0  0  0  0
  1  2  1  0  0  0  0
  2  3  2  0  0  0  0
  2 15  1  0  0  0  0
  3  4  1  0  0  0  0
  5  6  1  0  0  0  0
  5  3  1  0  0  0  0
  6 12  1  0  0  0  0
  7  6  1  0  0  0  0
  8  7  1  0  0  0  0
  9 10  1  0  0  0  0
  9  7  2  0  0  0  0
 10  5  2  0  0  0  0
 11 10  1  0  0  0  0
 11  1  2  0  0  0  0
 13 18  1  0  0  0  0
 14 15  1  0  0  0  0
 14 13  2  0  0  0  0
 15 16  2  0  0  0  0
 16 17  1  0  0  0  0
 17 21  1  0  0  0  0
 18 17  2  0  0  0  0
 19 13  1  0  0  0  0
 20 14  1  0  0  0  0
M  END
>  <minimizedAffinity>
-4.4399724

$$$$

 OpenBabel03262520183D

 21 23  0  0  0  0  0  0  0  0999 V2000
   37.2850   22.9850   32.8830 C   0  0  0  0  0  3  0  0  0  0  0  0
   36.3600   22.5030   31.9820 C   0  0  0  0  0  0  0  0  0  0  0  0
   35.6830   23.3690   31.1530 C   0  0  0  0  0  0  0  0  0  0  0  0
   34.9700   23.0170   30.4540 H   0  0  0  0  0  0  0  0  0  0  0  0
   35.9700   24.7260   31.2630 C   0  0  0  0  0  0  0  0  0  0  0  0
   35.4310   25.7610   30.5540 N   0  0  0  0  0  0  0  0  0  0  0  0
   36.0110   26.8900   31.0050 C   0  0  0  0  0  0  0  0  0  0  0  0
   35.7990   27.8980   30.6420 H   0  0  0  0  0  0  0  0  0  0  0  0
   36.8960   26.6030   31.9720 N   0  0  0  0  0  0  0  0  0  0  0  0
   36.8930   25.2590   32.1560 C   0  0  0  0  0  0  0  0  0  0  0  0
   37.5580   24.3550   32.9790 C   0  0  0  0  0  3  0  0  0  0  0  0
   34.7180   25.7150   29.8140 H   0  0  0  0  0  0  0  0  0  0  0  0
   35.4490   18.9600   32.8930 C   0  0  0  0  0  0  0  0  0  0  0  0
   35.6110   20.3440   33.0250 C   0  0  0  0  0  0  0  0  0  0  0  0
   36.1470   21.0610   31.9590 C   0  0  0  0  0  0  0  0  0  0  0  0
   36.4900   20.3850   30.8350 N   0  0  0  0  0  0  0  0  0  0  0  0
   36.3230   19.0350   30.7300 C   0  0  0  0  0  0  0  0  0  0  0  0
   35.8090   18.3360   31.7490 N   0  0  0  0  0  0  0  0  0  0  0  0
   35.0380   18.3630   33.6980 H   0  0  0  0  0  0  0  0  0  0  0  0
   35.3390   20.8500   33.9050 H   0  0  0  0  0  0  0  0  0  0  0  0
   36.6140   18.5480   29.8080 H   0  0  0  0  0  0  0  0  0  0  0  0
  1 11  1  0  0  0  0
  2  1  2  0  0  0  0
  3  5  2  0  0  0  0
  3  2  1  0  0  0  0
  4  3  1  0  0  0  0
  5 10  1  0  0  0  0
  6  7  1  0  0  0  0
  6  5  1  0  0  0  0
  7  9  2  0  0  0  0
  8  7  1  0  0  0  0
  9 10  1  0  0  0  0
 10 11  2  0  0  0  0
 12  6  1  0  0  0  0
 13 14  1  0  0  0  0
 13 19  1  0  0  0  0
 14 20  1  0  0  0  0
 15  2  1  0  0  0  0
 15 14  2  0  0  0  0
 16 15  1  0  0  0  0
 17 16  2  0  0  0  0
 17 18  1  0  0  0  0
 18 13  2  0  0  0  0
 21 17  1  0  0  0  0
M  END
>  <minimizedAffinity>
-4.4182415

$$$$

 OpenBabel03262520183D

 21 23  0  0  0  0  0  0  0  0999 V2000
   35.2060   24.1360   31.0780 C   0  0  0  0  0  3  0  0  0  0  0  0
   36.1470   23.3450   31.7030 C   0  0  0  0  0  0  0  0  0  0  0  0
   37.1910   23.9210   32.3910 C   0  0  0  0  0  0  0  0  0  0  0  0
   37.9220   23.3290   32.8770 H   0  0  0  0  0  0  0  0  0  0  0  0
   37.2520   25.3110   32.4270 C   0  0  0  0  0  0  0  0  0  0  0  0
   38.1840   26.0970   33.0410 N   0  0  0  0  0  0  0  0  0  0  0  0
   37.8360   27.3770   32.8050 C   0  0  0  0  0  0  0  0  0  0  0  0
   38.3790   28.2550   33.1610 H   0  0  0  0  0  0  0  0  0  0  0  0
   36.7180   27.4240   32.0650 N   0  0  0  0  0  0  0  0  0  0  0  0
   36.3290   26.1490   31.8120 C   0  0  0  0  0  0  0  0  0  0  0  0
   35.2870   25.5330   31.1260 C   0  0  0  0  0  3  0  0  0  0  0  0
   39.0050   25.7960   33.5840 H   0  0  0  0  0  0  0  0  0  0  0  0
   34.8790   19.8110   32.0440 C   0  0  0  0  0  0  0  0  0  0  0  0
   34.9490   21.1980   32.2170 C   0  0  0  0  0  0  0  0  0  0  0  0
   35.9750   21.9010   31.5950 C   0  0  0  0  0  0  0  0  0  0  0  0
   36.8670   21.2090   30.8440 N   0  0  0  0  0  0  0  0  0  0  0  0
   36.7790   19.8570   30.6890 C   0  0  0  0  0  0  0  0  0  0  0  0
   35.7970   19.1710   31.2840 N   0  0  0  0  0  0  0  0  0  0  0  0
   34.0980   19.2240   32.5110 H   0  0  0  0  0  0  0  0  0  0  0  0
   34.2460   21.7160   32.8040 H   0  0  0  0  0  0  0  0  0  0  0  0
   37.5200   19.3570   30.0780 H   0  0  0  0  0  0  0  0  0  0  0  0
  1 11  2  0  0  0  0
  1  2  1  0  0  0  0
  2  3  2  0  0  0  0
  3  5  1  0  0  0  0
  3  4  1  0  0  0  0
  5  6  1  0  0  0  0
  6 12  1  0  0  0  0
  7  6  1  0  0  0  0
  7  8  1  0  0  0  0
  9  7  2  0  0  0  0
 10  9  1  0  0  0  0
 10  5  2  0  0  0  0
 11 10  1  0  0  0  0
 13 14  1  0  0  0  0
 13 19  1  0  0  0  0
 14 20  1  0  0  0  0
 15  2  1  0  0  0  0
 15 14  2  0  0  0  0
 16 15  1  0  0  0  0
 17 16  2  0  0  0  0
 17 18  1  0  0  0  0
 18 13  2  0  0  0  0
 21 17  1  0  0  0  0
M  END
>  <minimizedAffinity>
-4.30114746

$$$$

 OpenBabel03262520183D

 21 23  0  0  0  0  0  0  0  0999 V2000
   39.1160   24.8900   34.2980 C   0  0  0  0  0  3  0  0  0  0  0  0
   38.1650   25.7750   34.7590 C   0  0  0  0  0  0  0  0  0  0  0  0
   37.7030   25.6850   36.0530 C   0  0  0  0  0  0  0  0  0  0  0  0
   36.9730   26.3560   36.4240 H   0  0  0  0  0  0  0  0  0  0  0  0
   38.2300   24.6800   36.8580 C   0  0  0  0  0  0  0  0  0  0  0  0
   37.9290   24.4000   38.1600 N   0  0  0  0  0  0  0  0  0  0  0  0
   38.6850   23.3440   38.5200 C   0  0  0  0  0  0  0  0  0  0  0  0
   38.6810   22.8710   39.5050 H   0  0  0  0  0  0  0  0  0  0  0  0
   39.4510   22.9510   37.4910 N   0  0  0  0  0  0  0  0  0  0  0  0
   39.1900   23.7660   36.4380 C   0  0  0  0  0  0  0  0  0  0  0  0
   39.6330   23.8860   35.1250 C   0  0  0  0  0  3  0  0  0  0  0  0
   37.2580   24.8850   38.7710 H   0  0  0  0  0  0  0  0  0  0  0  0
   36.3010   28.6210   33.1350 C   0  0  0  0  0  0  0  0  0  0  0  0
   36.6780   27.6930   34.1130 C   0  0  0  0  0  0  0  0  0  0  0  0
   37.6890   26.7840   33.8210 C   0  0  0  0  0  0  0  0  0  0  0  0
   38.2690   26.8360   32.5950 N   0  0  0  0  0  0  0  0  0  0  0  0
   37.8850   27.7500   31.6580 C   0  0  0  0  0  0  0  0  0  0  0  0
   36.9120   28.6290   31.9290 N   0  0  0  0  0  0  0  0  0  0  0  0
   35.5170   29.3460   33.3200 H   0  0  0  0  0  0  0  0  0  0  0  0
   36.2160   27.6690   35.0570 H   0  0  0  0  0  0  0  0  0  0  0  0
   38.3830   27.7460   30.6970 H   0  0  0  0  0  0  0  0  0  0  0  0
  1  2  2  0  0  0  0
  1 11  1  0  0  0  0
  2  3  1  0  0  0  0
  3  4  1  0  0  0  0
  3  5  2  0  0  0  0
  5  6  1  0  0  0  0
  6  7  1  0  0  0  0
  6 12  1  0  0  0  0
  7  8  1  0  0  0  0
  9  7  2  0  0  0  0
 10  5  1  0  0  0  0
 10  9  1  0  0  0  0
 11 10  2  0  0  0  0
 13 19  1  0  0  0  0
 13 14  1  0  0  0  0
 14 20  1  0  0  0  0
 15 14  2  0  0  0  0
 15  2  1  0  0  0  0
 16 15  1  0  0  0  0
 17 18  1  0  0  0  0
 17 16  2  0  0  0  0
 18 13  2  0  0  0  0
 21 17  1  0  0  0  0
M  END
>  <minimizedAffinity>
-4.29860306

$$$$

 OpenBabel03262520183D

 21 23  0  0  0  0  0  0  0  0999 V2000
   37.0960   26.8870   34.8170 C   0  0  0  0  0  3  0  0  0  0  0  0
   37.5870   25.7180   34.2760 C   0  0  0  0  0  0  0  0  0  0  0  0
   37.6460   25.5580   32.9090 C   0  0  0  0  0  0  0  0  0  0  0  0
   38.0210   24.6670   32.4760 H   0  0  0  0  0  0  0  0  0  0  0  0
   37.1970   26.6080   32.1150 C   0  0  0  0  0  0  0  0  0  0  0  0
   37.1610   26.6780   30.7530 N   0  0  0  0  0  0  0  0  0  0  0  0
   36.6490   27.8830   30.4340 C   0  0  0  0  0  0  0  0  0  0  0  0
   36.4860   28.2520   29.4180 H   0  0  0  0  0  0  0  0  0  0  0  0
   36.3630   28.5740   31.5470 N   0  0  0  0  0  0  0  0  0  0  0  0
   36.6940   27.8050   32.6150 C   0  0  0  0  0  0  0  0  0  0  0  0
   36.6490   27.9320   34.0000 C   0  0  0  0  0  3  0  0  0  0  0  0
   37.4590   25.9630   30.0760 H   0  0  0  0  0  0  0  0  0  0  0  0
   38.5680   23.8300   37.3880 C   0  0  0  0  0  0  0  0  0  0  0  0
   38.1340   24.8900   36.5830 C   0  0  0  0  0  0  0  0  0  0  0  0
   38.0280   24.6900   35.2100 C   0  0  0  0  0  0  0  0  0  0  0  0
   38.3500   23.4720   34.7090 N   0  0  0  0  0  0  0  0  0  0  0  0
   38.7700   22.4530   35.5130 C   0  0  0  0  0  0  0  0  0  0  0  0
   38.8770   22.6350   36.8350 N   0  0  0  0  0  0  0  0  0  0  0  0
   38.6660   23.9420   38.4600 H   0  0  0  0  0  0  0  0  0  0  0  0
   37.8890   25.8280   36.9910 H   0  0  0  0  0  0  0  0  0  0  0  0
   39.0140   21.5010   35.0590 H   0  0  0  0  0  0  0  0  0  0  0  0
  2  1  1  0  0  0  0
  2 15  1  0  0  0  0
  3  2  2  0  0  0  0
  4  3  1  0  0  0  0
  5 10  2  0  0  0  0
  5  3  1  0  0  0  0
  6  5  1  0  0  0  0
  7  6  1  0  0  0  0
  7  9  2  0  0  0  0
  8  7  1  0  0  0  0
  9 10  1  0  0  0  0
 10 11  1  0  0  0  0
 11  1  2  0  0  0  0
 12  6  1  0  0  0  0
 13 19  1  0  0  0  0
 14 20  1  0  0  0  0
 14 13  2  0  0  0  0
 15 14  1  0  0  0  0
 16 15  2  0  0  0  0
 16 17  1  0  0  0  0
 17 18  2  0  0  0  0
 18 13  1  0  0  0  0
 21 17  1  0  0  0  0
M  END
>  <minimizedAffinity>
-4.28123236

$$$$

 OpenBabel03262520183D

 21 23  0  0  0  0  0  0  0  0999 V2000
   37.7360   27.5430   35.1700 C   0  0  0  0  0  3  0  0  0  0  0  0
   37.2960   27.0970   33.9420 C   0  0  0  0  0  0  0  0  0  0  0  0
   37.4360   25.7720   33.5940 C   0  0  0  0  0  0  0  0  0  0  0  0
   37.1030   25.4120   32.6550 H   0  0  0  0  0  0  0  0  0  0  0  0
   38.0290   24.9200   34.5190 C   0  0  0  0  0  0  0  0  0  0  0  0
   38.2700   23.5820   34.3980 N   0  0  0  0  0  0  0  0  0  0  0  0
   38.8600   23.1840   35.5430 C   0  0  0  0  0  0  0  0  0  0  0  0
   39.1830   22.1640   35.7660 H   0  0  0  0  0  0  0  0  0  0  0  0
   38.9980   24.2240   36.3790 N   0  0  0  0  0  0  0  0  0  0  0  0
   38.4880   25.3230   35.7690 C   0  0  0  0  0  0  0  0  0  0  0  0
   38.3310   26.6690   36.0870 C   0  0  0  0  0  3  0  0  0  0  0  0
   38.0540   22.9710   33.5990 H   0  0  0  0  0  0  0  0  0  0  0  0
   35.2800   29.9640   32.5510 C   0  0  0  0  0  0  0  0  0  0  0  0
   35.8010   29.0640   33.4880 C   0  0  0  0  0  0  0  0  0  0  0  0
   36.6900   28.0850   33.0570 C   0  0  0  0  0  0  0  0  0  0  0  0
   37.0150   28.0440   31.7410 N   0  0  0  0  0  0  0  0  0  0  0  0
   36.4950   28.9320   30.8450 C   0  0  0  0  0  0  0  0  0  0  0  0
   35.6380   29.8770   31.2500 N   0  0  0  0  0  0  0  0  0  0  0  0
   34.5850   30.7410   32.8430 H   0  0  0  0  0  0  0  0  0  0  0  0
   35.5360   29.1130   34.5050 H   0  0  0  0  0  0  0  0  0  0  0  0
   36.7900   28.8520   29.8070 H   0  0  0  0  0  0  0  0  0  0  0  0
  1 11  1  0  0  0  0
  2  1  2  0  0  0  0
  3  2  1  0  0  0  0
  3  5  2  0  0  0  0
  4  3  1  0  0  0  0
  5 10  1  0  0  0  0
  6  5  1  0  0  0  0
  6  7  1  0  0  0  0
  7  8  1  0  0  0  0
  7  9  2  0  0  0  0
 10 11  2  0  0  0  0
 10  9  1  0  0  0  0
 12  6  1  0  0  0  0
 13 19  1  0  0  0  0
 13 14  1  0  0  0  0
 14 20  1  0  0  0  0
 15 14  2  0  0  0  0
 15  2  1  0  0  0  0
 16 15  1  0  0  0  0
 17 18  1  0  0  0  0
 17 16  2  0  0  0  0
 18 13  2  0  0  0  0
 21 17  1  0  0  0  0
M  END
>  <minimizedAffinity>
-4.27340937

$$$$
