
 OpenBabel03272508553D

 41 45  0  0  1  0  0  0  0  0999 V2000
   39.1080   31.5150   43.3500 C   0  0  0  0  0  0  0  0  0  0  0  0
   40.0870   30.5660   43.4820 C   0  0  0  0  0  0  0  0  0  0  0  0
   40.8140   30.2070   42.3640 C   0  0  0  0  0  0  0  0  0  0  0  0
   40.5140   30.8190   41.1780 C   0  0  0  0  0  0  0  0  0  0  0  0
   39.5300   31.7770   41.0310 C   0  0  0  0  0  0  0  0  0  0  0  0
   38.8610   32.0820   42.1550 N   0  0  0  0  0  0  0  0  0  0  0  0
   40.3540   30.0570   44.4080 H   0  0  0  0  0  0  0  0  0  0  0  0
   41.5870   29.4700   42.4230 H   0  0  0  0  0  0  0  0  0  0  0  0
   41.0770   30.5440   40.2960 H   0  0  0  0  0  0  0  0  0  0  0  0
   39.8160   32.0100   38.6430 C   0  0  0  0  0  0  0  0  0  0  0  0
   39.1840   32.4530   39.7870 C   0  0  0  0  0  0  0  0  0  0  0  0
   38.2720   33.4870   39.7460 C   0  0  0  0  0  0  0  0  0  0  0  0
   37.7770   33.8380   40.6220 H   0  0  0  0  0  0  0  0  0  0  0  0
   38.0140   34.0630   38.5020 C   0  0  0  0  0  0  0  0  0  0  0  0
   37.1640   35.0840   38.2110 N   0  0  0  0  0  0  0  0  0  0  0  0
   37.2600   35.2850   36.8740 C   0  0  0  0  0  0  0  0  0  0  0  0
   36.6910   36.0490   36.3290 H   0  0  0  0  0  0  0  0  0  0  0  0
   38.1560   34.4000   36.3590 N   0  0  0  0  0  0  0  0  0  0  0  0
   38.6430   33.6260   37.3430 C   0  0  0  0  0  0  0  0  0  0  0  0
   39.5650   32.5790   37.4070 C   0  0  0  0  0  0  0  0  0  0  0  0
   36.5680   35.5910   38.9000 H   0  0  0  0  0  0  0  0  0  0  0  0
   38.3330   31.8830   44.5410 C   0  0  0  0  0  0  0  0  0  0  0  0
   37.1530   32.3360   44.4370 O   0  0  0  0  0  0  0  0  0  0  0  0
   38.9420   31.7200   45.8360 N   0  0  0  0  0  0  0  0  0  0  0  0
   39.9530   31.5120   45.9820 H   0  0  0  0  0  0  0  0  0  0  0  0
   38.4490   31.1800   48.2150 C   0  0  2  0  0  0  0  0  0  0  0  0
   38.7380   32.6220   48.1660 C   0  0  0  0  0  0  0  0  0  0  0  0
   38.0730   31.8570   46.9970 C   0  0  1  0  0  0  0  0  0  0  0  0
   39.3640   30.5510   48.2640 H   0  0  0  0  0  0  0  0  0  0  0  0
   38.0960   33.3180   48.7410 H   0  0  0  0  0  0  0  0  0  0  0  0
   39.7670   32.9800   48.0180 H   0  0  0  0  0  0  0  0  0  0  0  0
   37.0220   32.1930   46.8110 H   0  0  0  0  0  0  0  0  0  0  0  0
   35.1140   30.2380   49.5090 C   0  0  0  0  0  0  0  0  0  0  0  0
   35.4360   29.5560   50.7250 C   0  0  0  0  0  0  0  0  0  0  0  0
   36.8350   29.4480   51.0670 C   0  0  0  0  0  0  0  0  0  0  0  0
   37.7790   29.9870   50.2400 N   0  0  0  0  0  0  0  0  0  0  0  0
   37.3760   30.6230   49.0960 C   0  0  0  0  0  0  0  0  0  0  0  0
   36.0610   30.7660   48.7010 N   0  0  0  0  0  0  0  0  0  0  0  0
   34.0780   30.3020   49.2820 H   0  0  0  0  0  0  0  0  0  0  0  0
   34.6810   29.1470   51.3470 H   0  0  0  0  0  0  0  0  0  0  0  0
   37.1050   28.9420   51.9730 H   0  0  0  0  0  0  0  0  0  0  0  0
  1  2  1  0  0  0  0
  1 22  1  0  0  0  0
  2  7  1  0  0  0  0
  3  8  1  0  0  0  0
  3  2  2  0  0  0  0
  4  3  1  0  0  0  0
  5  4  2  0  0  0  0
  5  6  1  0  0  0  0
  6  1  2  0  0  0  0
  9  4  1  0  0  0  0
 10 11  1  0  0  0  0
 11  5  1  0  0  0  0
 12 11  2  0  0  0  0
 12 13  1  0  0  0  0
 14 12  1  0  0  0  0
 15 14  1  0  0  0  0
 15 21  1  0  0  0  0
 16 15  1  0  0  0  0
 17 16  1  0  0  0  0
 18 16  2  0  0  0  0
 18 19  1  0  0  0  0
 19 20  1  0  0  0  0
 19 14  2  0  0  0  0
 20 10  2  0  0  0  0
 22 24  1  0  0  0  0
 23 22  2  0  0  0  0
 24 25  1  0  0  0  0
 24 28  1  0  0  0  0
 26 29  1  6  0  0  0
 26 37  1  0  0  0  0
 27 26  1  0  0  0  0
 27 30  1  0  0  0  0
 28 32  1  6  0  0  0
 28 27  1  0  0  0  0
 28 26  1  0  0  0  0
 31 27  1  0  0  0  0
 33 34  1  0  0  0  0
 34 35  2  0  0  0  0
 34 40  1  0  0  0  0
 35 41  1  0  0  0  0
 36 35  1  0  0  0  0
 37 36  2  0  0  0  0
 38 37  1  0  0  0  0
 38 33  2  0  0  0  0
 39 33  1  0  0  0  0
M  END
>  <minimizedAffinity>
-5.4351716

>  <minimizedRMSD>
1.05827713

$$$$
