
     RDKit          3D

 51 56  0  0  0  0  0  0  0  0999 V2000
   38.0868   31.3010   47.7717 C   0  0  0  0  0  0  0  0  0  0  0  0
   37.0881   31.3069   48.7301 C   0  0  0  0  0  0  0  0  0  0  0  0
   37.1217   32.4106   49.5878 C   0  0  0  0  0  0  0  0  0  0  0  0
   38.0920   33.4128   49.4691 C   0  0  0  0  0  0  0  0  0  0  0  0
   39.0690   33.3109   48.4540 C   0  0  0  0  0  0  0  0  0  0  0  0
   39.0473   32.2167   47.5926 C   0  0  0  0  0  0  0  0  0  0  0  0
   34.9682   30.3105   48.0499 C   0  0  0  0  0  0  0  0  0  0  0  0
   36.0983   30.2920   48.8572 C   0  0  0  0  0  0  0  0  0  0  0  0
   36.2099   29.2417   49.7852 C   0  0  0  0  0  0  0  0  0  0  0  0
   35.2224   28.3129   49.8444 N   0  0  0  0  0  0  0  0  0  0  0  0
   34.1342   28.3767   49.0298 C   0  0  0  0  0  0  0  0  0  0  0  0
   34.0170   29.3702   48.1438 N   0  0  0  0  0  0  0  0  0  0  0  0
   37.3985   29.1678   50.6784 C   0  0  0  0  0  0  0  0  0  0  0  0
   38.1349   30.2372   46.8682 O   0  0  0  0  0  0  0  0  0  0  0  0
   40.0309   32.1896   46.6314 O   0  0  0  0  0  0  0  0  0  0  0  0
   40.5698   31.1789   44.4149 C   0  0  0  0  0  0  0  0  0  0  0  0
   39.8597   31.9832   45.2941 C   0  0  0  0  0  0  0  0  0  0  0  0
   38.7968   32.7191   44.7983 C   0  0  0  0  0  0  0  0  0  0  0  0
   38.4336   32.6655   43.4485 C   0  0  0  0  0  0  0  0  0  0  0  0
   37.4830   33.2418   42.6885 N   0  0  0  0  0  0  0  0  0  0  0  0
   37.5882   32.8272   41.4145 C   0  0  0  0  0  0  0  0  0  0  0  0
   38.6403   31.9590   41.3642 N   0  0  0  0  0  0  0  0  0  0  0  0
   39.1651   31.8544   42.6106 C   0  0  0  0  0  0  0  0  0  0  0  0
   40.2213   31.1187   43.0858 C   0  0  0  0  0  0  0  0  0  0  0  0
   36.3580   32.4630   50.3594 H   0  0  0  0  0  0  0  0  0  0  0  0
   38.0896   34.2503   50.1466 H   0  0  0  0  0  0  0  0  0  0  0  0
   39.8104   34.0875   48.3721 H   0  0  0  0  0  0  0  0  0  0  0  0
   34.7865   31.0723   47.3062 H   0  0  0  0  0  0  0  0  0  0  0  0
   33.4680   27.5402   49.2395 H   0  0  0  0  0  0  0  0  0  0  0  0
   38.2463   28.6612   50.1771 H   0  0  0  0  0  0  0  0  0  0  0  0
   37.1383   28.5964   51.5943 H   0  0  0  0  0  0  0  0  0  0  0  0
   37.6340   30.1880   51.0118 H   0  0  0  0  0  0  0  0  0  0  0  0
   38.9451   29.6603   46.8852 H   0  0  0  0  0  0  0  0  0  0  0  0
   41.3766   30.6468   44.8936 H   0  0  0  0  0  0  0  0  0  0  0  0
   38.1495   33.3912   45.3634 H   0  0  0  0  0  0  0  0  0  0  0  0
   36.7658   33.9147   43.0366 H   0  0  0  0  0  0  0  0  0  0  0  0
   36.9584   33.1270   40.5939 H   0  0  0  0  0  0  0  0  0  0  0  0
   42.3293   29.9454   42.3776 C   0  0  0  0  0  0  0  0  0  0  0  0
   41.0130   30.2511   42.2183 C   0  0  0  0  0  0  0  0  0  0  0  0
   40.3232   29.7126   41.1502 C   0  0  0  0  0  0  0  0  0  0  0  0
   39.2607   29.9123   40.9553 H   0  0  0  0  0  0  0  0  0  0  0  0
   40.9829   28.8763   40.2676 C   0  0  0  0  0  0  0  0  0  0  0  0
   40.5706   28.2246   39.1645 N   0  0  0  0  0  0  0  0  0  0  0  0
   41.6200   27.5247   38.6489 C   0  0  0  0  0  0  0  0  0  0  0  0
   41.6762   26.8862   37.7743 H   0  0  0  0  0  0  0  0  0  0  0  0
   42.7233   27.7264   39.4277 N   0  0  0  0  0  0  0  0  0  0  0  0
   42.3337   28.5525   40.4169 C   0  0  0  0  0  0  0  0  0  0  0  0
   43.0092   29.1106   41.5062 C   0  0  0  0  0  0  0  0  0  0  0  0
   42.8390   30.3780   43.2157 H   0  0  0  0  0  0  0  0  0  0  0  0
   39.6064   28.2303   38.7402 H   0  0  0  0  0  0  0  0  0  0  0  0
   44.0700   28.8851   41.6639 H   0  0  0  0  0  0  0  0  0  0  0  0
  1  2  2  0
  2  8  1  0
  2  3  1  0
  4  3  2  0
  5  4  1  0
  6  1  1  0
  6  5  2  0
  7 12  2  0
  7  8  1  0
  8  9  2  0
  9 10  1  0
  9 13  1  0
 11 10  2  0
 12 11  1  0
 14  1  1  0
 15  6  1  0
 16 17  2  0
 17 15  1  0
 18 17  1  0
 19 18  2  0
 20 19  1  0
 21 20  1  0
 22 21  2  0
 22 23  1  0
 23 24  2  0
 23 19  1  0
 24 16  1  0
  3 25  1  0
  4 26  1  0
  5 27  1  0
  7 28  1  0
 11 29  1  0
 13 30  1  0
 13 31  1  0
 13 32  1  0
 14 33  1  0
 16 34  1  0
 18 35  1  0
 20 36  1  0
 21 37  1  0
 38 39  2  0
 39 40  1  0
 40 41  1  0
 40 42  2  0
 42 43  1  0
 43 44  1  0
 44 45  1  0
 44 46  2  0
 46 47  1  0
 47 48  2  0
 48 38  1  0
 47 42  1  0
 38 49  1  0
 43 50  1  0
 48 51  1  0
 24 39  1  0
M  ISO  8  25  14  26  14  27  14  28  14  29  14  30   8  31   8  32   8
M  ISO  7  33   3  34  14  35  14  36   9  37  14  41  15  45  14
M  END
>  <DihAtoms>  (1) 
22,23,38,37

>  <DihDeg>  (1) 
-44.999664870517

$$$$
