
 OpenBabel03272509053D

 36 39  0  0  0  0  0  0  0  0999 V2000
   37.4210   30.2690   51.3360 C   0  0  0  0  0  0  0  0  0  0  0  0
   38.0670   30.7950   50.1990 C   0  0  0  0  0  0  0  0  0  0  0  0
   37.5620   30.4800   48.9220 C   0  0  0  0  0  0  0  0  0  0  0  0
   36.4610   29.6700   48.9030 N   0  0  0  0  0  0  0  0  0  0  0  0
   35.8770   29.1900   49.9940 C   0  0  0  0  0  0  0  0  0  0  0  0
   36.3470   29.4820   51.2190 N   0  0  0  0  0  0  0  0  0  0  0  0
   37.8320   30.5290   52.2880 H   0  0  0  0  0  0  0  0  0  0  0  0
   38.9140   31.4170   50.2880 H   0  0  0  0  0  0  0  0  0  0  0  0
   38.1770   30.2690   46.5140 C   0  0  0  0  0  3  0  0  0  0  0  0
   38.1580   30.9750   47.6900 C   0  0  0  0  0  0  0  0  0  0  0  0
   38.7340   32.2270   47.7130 C   0  0  0  0  0  0  0  0  0  0  0  0
   38.7730   32.8610   48.5790 H   0  0  0  0  0  0  0  0  0  0  0  0
   39.3070   32.7080   46.5360 C   0  0  0  0  0  0  0  0  0  0  0  0
   39.9350   33.8610   46.2270 N   0  0  0  0  0  0  0  0  0  0  0  0
   40.3150   33.8490   44.9260 C   0  0  0  0  0  0  0  0  0  0  0  0
   40.8350   34.5850   44.3300 H   0  0  0  0  0  0  0  0  0  0  0  0
   39.9310   32.6850   44.3940 N   0  0  0  0  0  0  0  0  0  0  0  0
   39.3150   31.9730   45.3530 C   0  0  0  0  0  0  0  0  0  0  0  0
   38.7260   30.7040   45.3490 C   0  0  0  0  0  3  0  0  0  0  0  0
   40.1150   34.6580   46.8740 H   0  0  0  0  0  0  0  0  0  0  0  0
   34.7340   28.3460   49.7690 C   0  0  0  0  0  3  0  0  0  0  0  0
   34.3770   28.0450   48.5710 C   0  0  0  0  0  3  0  0  0  0  0  0
   33.2680   27.2050   48.1070 C   0  0  0  0  0  0  0  0  0  0  0  0
   32.8480   26.6850   48.9950 H   0  0  0  0  0  0  0  0  0  0  0  0
   32.4400   27.7950   47.6640 H   0  0  0  0  0  0  0  0  0  0  0  0
   33.6800   26.1840   47.0910 C   0  0  0  0  0  0  0  0  0  0  0  0
   33.8890   24.8400   47.3470 C   0  0  0  0  0  0  0  0  0  0  0  0
   34.2660   23.9970   46.3100 C   0  0  0  0  0  0  0  0  0  0  0  0
   34.4390   24.4890   45.0050 C   0  0  0  0  0  0  0  0  0  0  0  0
   34.2320   25.8170   44.7580 C   0  0  0  0  0  0  0  0  0  0  0  0
   33.8580   26.6480   45.7910 C   0  0  0  0  0  0  0  0  0  0  0  0
   33.7430   24.5120   48.3630 H   0  0  0  0  0  0  0  0  0  0  0  0
   34.4110   22.9550   46.5890 H   0  0  0  0  0  0  0  0  0  0  0  0
   34.7360   23.7750   44.2370 H   0  0  0  0  0  0  0  0  0  0  0  0
   34.3810   26.1370   43.7370 H   0  0  0  0  0  0  0  0  0  0  0  0
   33.7020   27.6940   45.5600 H   0  0  0  0  0  0  0  0  0  0  0  0
  1  7  1  0  0  0  0
  2  8  1  0  0  0  0
  2  1  2  0  0  0  0
  3  2  1  0  0  0  0
  4  3  2  0  0  0  0
  4  5  1  0  0  0  0
  5  6  2  0  0  0  0
  6  1  1  0  0  0  0
  9 10  1  0  0  0  0
 10 11  2  0  0  0  0
 10  3  1  0  0  0  0
 11 12  1  0  0  0  0
 13 11  1  0  0  0  0
 14 13  1  0  0  0  0
 14 20  1  0  0  0  0
 15 14  1  0  0  0  0
 16 15  1  0  0  0  0
 17 15  2  0  0  0  0
 17 18  1  0  0  0  0
 18 13  2  0  0  0  0
 19 18  1  0  0  0  0
 19  9  2  0  0  0  0
 21  5  1  0  0  0  0
 22 21  2  0  0  0  0
 23 22  1  0  0  0  0
 23 24  1  0  0  0  0
 25 23  1  0  0  0  0
 26 27  1  0  0  0  0
 26 23  1  0  0  0  0
 27 32  1  0  0  0  0
 28 33  1  0  0  0  0
 28 27  2  0  0  0  0
 29 28  1  0  0  0  0
 30 29  2  0  0  0  0
 30 31  1  0  0  0  0
 31 26  2  0  0  0  0
 34 29  1  0  0  0  0
 35 30  1  0  0  0  0
 36 31  1  0  0  0  0
M  END
>  <minimizedAffinity>
-6.93231344

>  <minimizedRMSD>
0.508940279

$$$$
