
 OpenBabel03272509043D

 36 39  0  0  0  0  0  0  0  0999 V2000
   37.9620   30.9930   50.4050 C   0  0  0  0  0  0  0  0  0  0  0  0
   38.3710   31.1050   49.0610 C   0  0  0  0  0  0  0  0  0  0  0  0
   37.5340   30.5930   48.0500 C   0  0  0  0  0  0  0  0  0  0  0  0
   36.3680   30.0200   48.4780 N   0  0  0  0  0  0  0  0  0  0  0  0
   36.0140   29.9310   49.7530 C   0  0  0  0  0  0  0  0  0  0  0  0
   36.8020   30.4130   50.7290 N   0  0  0  0  0  0  0  0  0  0  0  0
   38.6220   31.3910   51.1450 H   0  0  0  0  0  0  0  0  0  0  0  0
   39.2860   31.5610   48.8020 H   0  0  0  0  0  0  0  0  0  0  0  0
   36.9350   30.7170   45.6300 C   0  0  0  0  0  3  0  0  0  0  0  0
   37.8680   30.6620   46.6350 C   0  0  0  0  0  0  0  0  0  0  0  0
   39.2020   30.6700   46.2910 C   0  0  0  0  0  0  0  0  0  0  0  0
   40.0130   30.6300   46.9960 H   0  0  0  0  0  0  0  0  0  0  0  0
   39.5320   30.7350   44.9360 C   0  0  0  0  0  0  0  0  0  0  0  0
   40.7090   30.7600   44.2800 N   0  0  0  0  0  0  0  0  0  0  0  0
   40.4950   30.8280   42.9430 C   0  0  0  0  0  0  0  0  0  0  0  0
   41.1860   30.8640   42.1130 H   0  0  0  0  0  0  0  0  0  0  0  0
   39.1750   30.8470   42.7380 N   0  0  0  0  0  0  0  0  0  0  0  0
   38.5660   30.7910   43.9350 C   0  0  0  0  0  0  0  0  0  0  0  0
   37.2160   30.7820   44.3040 C   0  0  0  0  0  3  0  0  0  0  0  0
   41.6590   30.7330   44.7110 H   0  0  0  0  0  0  0  0  0  0  0  0
   34.7530   29.2840   50.0050 C   0  0  0  0  0  3  0  0  0  0  0  0
   34.0470   28.8380   49.0270 C   0  0  0  0  0  3  0  0  0  0  0  0
   32.7540   28.1450   49.0440 C   0  0  0  0  0  0  0  0  0  0  0  0
   32.5690   27.8100   50.0870 H   0  0  0  0  0  0  0  0  0  0  0  0
   31.9090   28.8080   48.7690 H   0  0  0  0  0  0  0  0  0  0  0  0
   32.7040   26.9590   48.1310 C   0  0  0  0  0  0  0  0  0  0  0  0
   31.6000   26.1480   47.9340 C   0  0  0  0  0  0  0  0  0  0  0  0
   31.6870   25.0780   47.0520 C   0  0  0  0  0  0  0  0  0  0  0  0
   32.8780   24.8070   46.3580 C   0  0  0  0  0  0  0  0  0  0  0  0
   33.9650   25.6120   46.5570 C   0  0  0  0  0  0  0  0  0  0  0  0
   33.8730   26.6710   47.4330 C   0  0  0  0  0  0  0  0  0  0  0  0
   30.7110   26.3960   48.4890 H   0  0  0  0  0  0  0  0  0  0  0  0
   30.7780   24.4870   46.9510 H   0  0  0  0  0  0  0  0  0  0  0  0
   32.8790   23.9540   45.6820 H   0  0  0  0  0  0  0  0  0  0  0  0
   34.8520   25.3550   45.9970 H   0  0  0  0  0  0  0  0  0  0  0  0
   34.7530   27.2880   47.5660 H   0  0  0  0  0  0  0  0  0  0  0  0
  1  6  1  0  0  0  0
  1  7  1  0  0  0  0
  2  1  2  0  0  0  0
  3  4  2  0  0  0  0
  3  2  1  0  0  0  0
  4  5  1  0  0  0  0
  5 21  1  0  0  0  0
  5  6  2  0  0  0  0
  8  2  1  0  0  0  0
  9 10  1  0  0  0  0
 10  3  1  0  0  0  0
 11 10  2  0  0  0  0
 11 12  1  0  0  0  0
 13 11  1  0  0  0  0
 14 20  1  0  0  0  0
 14 13  1  0  0  0  0
 15 14  1  0  0  0  0
 16 15  1  0  0  0  0
 17 15  2  0  0  0  0
 17 18  1  0  0  0  0
 18 19  1  0  0  0  0
 18 13  2  0  0  0  0
 19  9  2  0  0  0  0
 22 23  1  0  0  0  0
 22 21  2  0  0  0  0
 23 24  1  0  0  0  0
 25 23  1  0  0  0  0
 26 23  1  0  0  0  0
 27 26  1  0  0  0  0
 27 32  1  0  0  0  0
 28 27  2  0  0  0  0
 29 30  2  0  0  0  0
 29 28  1  0  0  0  0
 30 31  1  0  0  0  0
 31 36  1  0  0  0  0
 31 26  2  0  0  0  0
 33 28  1  0  0  0  0
 34 29  1  0  0  0  0
 35 30  1  0  0  0  0
M  END
>  <minimizedAffinity>
-6.32793093

>  <minimizedRMSD>
1.78295732

$$$$
