
     RDKit          3D

 26 28  0  0  0  0  0  0  0  0999 V2000
   38.3051   31.2387   50.1157 C   0  0  0  0  0  0  0  0  0  0  0  0
   38.2898   31.6108   48.7699 C   0  0  0  0  0  0  0  0  0  0  0  0
   37.2018   31.2228   48.0026 C   0  0  0  0  0  0  0  0  0  0  0  0
   36.2164   30.5079   48.5927 N   0  0  0  0  0  0  0  0  0  0  0  0
   36.2625   30.1632   49.9023 C   0  0  0  0  0  0  0  0  0  0  0  0
   37.3121   30.5344   50.6536 N   0  0  0  0  0  0  0  0  0  0  0  0
   35.1238   29.3786   50.4374 C   0  0  0  0  0  0  0  0  0  0  0  0
   35.2608   29.1296   51.8010 F   0  0  0  0  0  0  0  0  0  0  0  0
   33.9243   30.0622   50.3016 F   0  0  0  0  0  0  0  0  0  0  0  0
   34.9524   28.1637   49.8270 F   0  0  0  0  0  0  0  0  0  0  0  0
   39.1747   31.5635   50.6771 H   0  0  0  0  0  0  0  0  0  0  0  0
   39.0781   32.1724   48.3341 H   0  0  0  0  0  0  0  0  0  0  0  0
   38.0507   31.0841   45.7402 C   0  0  0  0  0  0  0  0  0  0  0  0
   37.0702   31.5486   46.5918 C   0  0  0  0  0  0  0  0  0  0  0  0
   36.0449   32.2779   46.0718 C   0  0  0  0  0  0  0  0  0  0  0  0
   35.2736   32.6506   46.6990 H   0  0  0  0  0  0  0  0  0  0  0  0
   35.9240   32.5854   44.7278 C   0  0  0  0  0  0  0  0  0  0  0  0
   34.9968   33.2854   44.0234 N   0  0  0  0  0  0  0  0  0  0  0  0
   35.3962   33.2588   42.7356 C   0  0  0  0  0  0  0  0  0  0  0  0
   34.7862   33.7660   42.0016 H   0  0  0  0  0  0  0  0  0  0  0  0
   36.5508   32.5562   42.6343 N   0  0  0  0  0  0  0  0  0  0  0  0
   36.9099   32.1212   43.8555 C   0  0  0  0  0  0  0  0  0  0  0  0
   37.9632   31.3742   44.3770 C   0  0  0  0  0  0  0  0  0  0  0  0
   38.9194   30.4946   46.0162 H   0  0  0  0  0  0  0  0  0  0  0  0
   34.1414   33.7445   44.4546 H   0  0  0  0  0  0  0  0  0  0  0  0
   38.6628   31.0701   43.6119 H   0  0  0  0  0  0  0  0  0  0  0  0
  1  6  2  0
  2  1  1  0
  3  4  1  0
  3  2  2  0
  4  5  2  0
  5  7  1  0
  5  6  1  0
  7  8  1  0
  9  7  1  0
 10  7  1  0
  1 11  1  0
  2 12  1  0
 13 14  2  0
 14 15  1  0
 15 16  1  0
 15 17  2  0
 17 18  1  0
 18 19  1  0
 19 20  1  0
 19 21  2  0
 21 22  1  0
 22 23  2  0
 23 13  1  0
 22 17  1  0
 13 24  1  0
 18 25  1  0
 23 26  1  0
  3 14  1  0
M  ISO  4  11  14  12  14  16  15  20  14
M  END
>  <DihAtoms>  (1) 
3,2,13,12

>  <DihDeg>  (1) 
0.0009976429068668244

$$$$
